WDF.pdb
     RDKit          3D

 34 36  0  0  1  0  0  0  0  0999 V2000
   28.2348  -21.2734  -10.8339 N   0  0  0  0  0  0  0  0  0  0  0  0
   27.0091  -21.1117  -10.1263 C   0  0  1  0  0  0  0  0  0  0  0  0
   27.1717  -20.1154   -8.9996 C   0  0  0  0  0  0  0  0  0  0  0  0
   28.2941  -20.5175   -8.1488 C   0  0  0  0  0  0  0  0  0  0  0  0
   29.3931  -21.2779   -8.4791 C   0  0  0  0  0  0  0  0  0  0  0  0
   30.1629  -21.3940   -7.3903 N   0  0  0  0  0  0  0  0  0  0  0  0
   29.6046  -20.7382   -6.3686 C   0  0  0  0  0  0  0  0  0  0  0  0
   29.9743  -20.5383   -5.0367 C   0  0  0  0  0  0  0  0  0  0  0  0
   29.1961  -19.8005   -4.1721 C   0  0  0  0  0  0  0  0  0  0  0  0
   28.0334  -19.2538   -4.6397 C   0  0  0  0  0  0  0  0  0  0  0  0
   27.6351  -19.4349   -5.9660 C   0  0  0  0  0  0  0  0  0  0  0  0
   28.4408  -20.1854   -6.8190 C   0  0  0  0  0  0  0  0  0  0  0  0
   25.9537  -20.6512  -11.0592 C   0  0  0  0  0  0  0  0  0  0  0  0
   25.8417  -19.4085  -11.2509 O   0  0  0  0  0  0  0  0  0  0  0  0
   25.0885  -21.5630  -11.7239 N   0  0  0  0  0  0  0  0  0  0  0  0
   23.9964  -21.1388  -12.5786 C   0  0  1  0  0  0  0  0  0  0  0  0
   24.3279  -21.3035  -14.0291 C   0  0  0  0  0  0  0  0  0  0  0  0
   23.2748  -20.8085  -14.9276 C   0  0  0  0  0  0  0  0  0  0  0  0
   22.5315  -21.6213  -15.5227 O   0  0  0  0  0  0  0  0  0  0  0  0
   22.7109  -21.7559  -12.1634 C   0  0  0  0  0  0  0  0  0  0  0  0
   22.7744  -22.7811  -11.4400 O   0  0  0  0  0  0  0  0  0  0  0  0
   23.1226  -19.4457  -15.1008 O   0  0  0  0  0  0  0  0  0  0  0  0
   21.4596  -21.2146  -12.5638 N   0  0  0  0  0  0  0  0  0  0  0  0
   20.1887  -21.7771  -12.1904 C   0  0  1  0  0  0  0  0  0  0  0  0
   19.8416  -21.4609  -10.7724 C   0  0  0  0  0  0  0  0  0  0  0  0
   18.5713  -21.9932  -10.2862 C   0  0  0  0  0  0  0  0  0  0  0  0
   17.3936  -21.2800  -10.3604 C   0  0  0  0  0  0  0  0  0  0  0  0
   16.2486  -21.8706   -9.8770 C   0  0  0  0  0  0  0  0  0  0  0  0
   16.2434  -23.1337   -9.3293 C   0  0  0  0  0  0  0  0  0  0  0  0
   17.4203  -23.8438   -9.2560 C   0  0  0  0  0  0  0  0  0  0  0  0
   18.5793  -23.2757   -9.7326 C   0  0  0  0  0  0  0  0  0  0  0  0
   19.1333  -21.4013  -13.1581 C   0  0  0  0  0  0  0  0  0  0  0  0
   19.1499  -20.2535  -13.6604 O   0  0  0  0  0  0  0  0  0  0  0  0
   18.1148  -22.2440  -13.5483 O   0  0  0  0  0  0  0  0  0  0  0  0
  2  1  1  6
  2  3  1  0
  4  3  1  0
  4  5  2  0
  6  5  1  0
  7  6  1  0
  8  7  2  0
  9  8  1  0
 10  9  2  0
 10 11  1  0
 11 12  2  0
 12  7  1  0
 12  4  1  0
 13  2  1  0
 14 13  2  0
 15 13  1  0
 16 15  1  0
 17 18  1  0
 16 17  1  6
 18 19  2  0
 20 16  1  0
 20 23  1  0
 21 20  2  0
 22 18  1  0
 24 23  1  0
 24 25  1  1
 24 32  1  0
 26 31  1  0
 26 25  1  0
 27 26  2  0
 28 29  2  0
 28 27  1  0
 29 30  1  0
 30 31  2  0
 32 34  1  0
 33 32  2  0
M  END
$$$$
