WDF.pdb
     RDKit          3D

 34 36  0  0  1  0  0  0  0  0999 V2000
   27.4314  -18.0381  -14.3897 N   0  0  0  0  0  0  0  0  0  0  0  0
   26.9311  -19.3315  -14.7158 C   0  0  1  0  0  0  0  0  0  0  0  0
   27.0458  -20.2621  -13.5286 C   0  0  0  0  0  0  0  0  0  0  0  0
   28.4593  -20.5068  -13.2333 C   0  0  0  0  0  0  0  0  0  0  0  0
   29.2653  -19.8798  -12.3101 C   0  0  0  0  0  0  0  0  0  0  0  0
   30.4857  -20.4245  -12.3830 N   0  0  0  0  0  0  0  0  0  0  0  0
   30.5006  -21.3797  -13.3173 C   0  0  0  0  0  0  0  0  0  0  0  0
   31.4885  -22.2446  -13.7931 C   0  0  0  0  0  0  0  0  0  0  0  0
   31.2310  -23.1592  -14.7906 C   0  0  0  0  0  0  0  0  0  0  0  0
   29.9724  -23.2135  -15.3221 C   0  0  0  0  0  0  0  0  0  0  0  0
   28.9621  -22.3627  -14.8686 C   0  0  0  0  0  0  0  0  0  0  0  0
   29.2496  -21.4473  -13.8589 C   0  0  0  0  0  0  0  0  0  0  0  0
   25.5148  -19.2244  -15.1385 C   0  0  0  0  0  0  0  0  0  0  0  0
   24.7586  -18.4665  -14.4696 O   0  0  0  0  0  0  0  0  0  0  0  0
   25.0080  -19.9428  -16.2560 N   0  0  0  0  0  0  0  0  0  0  0  0
   23.5906  -20.1048  -16.5169 C   0  0  1  0  0  0  0  0  0  0  0  0
   23.2958  -20.1515  -17.9838 C   0  0  0  0  0  0  0  0  0  0  0  0
   23.8326  -18.9999  -18.7233 C   0  0  0  0  0  0  0  0  0  0  0  0
   23.5338  -17.8374  -18.3672 O   0  0  0  0  0  0  0  0  0  0  0  0
   23.0199  -21.2309  -15.7345 C   0  0  0  0  0  0  0  0  0  0  0  0
   23.4275  -22.3863  -16.0122 O   0  0  0  0  0  0  0  0  0  0  0  0
   24.6631  -19.2218  -19.8056 O   0  0  0  0  0  0  0  0  0  0  0  0
   22.0541  -21.0169  -14.7145 N   0  0  0  0  0  0  0  0  0  0  0  0
   21.2209  -22.0570  -14.1713 C   0  0  1  0  0  0  0  0  0  0  0  0
   21.6614  -22.4564  -12.8011 C   0  0  0  0  0  0  0  0  0  0  0  0
   22.9611  -21.9489  -12.3689 C   0  0  0  0  0  0  0  0  0  0  0  0
   23.1344  -20.6646  -11.8982 C   0  0  0  0  0  0  0  0  0  0  0  0
   24.3988  -20.2825  -11.5126 C   0  0  0  0  0  0  0  0  0  0  0  0
   25.4805  -21.1313  -11.5817 C   0  0  0  0  0  0  0  0  0  0  0  0
   25.3053  -22.4130  -12.0520 C   0  0  0  0  0  0  0  0  0  0  0  0
   24.0507  -22.8199  -12.4439 C   0  0  0  0  0  0  0  0  0  0  0  0
   19.7888  -21.6906  -14.2516 C   0  0  0  0  0  0  0  0  0  0  0  0
   18.9277  -22.5167  -13.8692 O   0  0  0  0  0  0  0  0  0  0  0  0
   19.3318  -20.4813  -14.7293 O   0  0  0  0  0  0  0  0  0  0  0  0
  2  1  1  1
  2  3  1  0
  4  3  1  0
  4  5  2  0
  6  5  1  0
  7  6  1  0
  8  7  2  0
  9  8  1  0
 10  9  2  0
 10 11  1  0
 11 12  2  0
 12  7  1  0
 12  4  1  0
 13  2  1  0
 14 13  2  0
 15 13  1  0
 16 15  1  0
 17 18  1  0
 16 17  1  6
 18 19  2  0
 20 16  1  0
 20 23  1  0
 21 20  2  0
 22 18  1  0
 24 23  1  0
 24 25  1  1
 24 32  1  0
 26 31  1  0
 26 25  1  0
 27 26  2  0
 28 29  2  0
 28 27  1  0
 29 30  1  0
 30 31  2  0
 32 34  1  0
 33 32  2  0
M  END
$$$$
