WDF.pdb
     RDKit          3D

 34 36  0  0  1  0  0  0  0  0999 V2000
   20.9832  -18.8476  -19.6016 N   0  0  0  0  0  0  0  0  0  0  0  0
   22.3362  -19.1924  -19.8842 C   0  0  1  0  0  0  0  0  0  0  0  0
   23.0654  -18.0221  -20.5064 C   0  0  0  0  0  0  0  0  0  0  0  0
   22.3233  -17.5494  -21.6772 C   0  0  0  0  0  0  0  0  0  0  0  0
   21.0774  -17.9350  -22.1179 C   0  0  0  0  0  0  0  0  0  0  0  0
   20.7940  -17.2419  -23.2274 N   0  0  0  0  0  0  0  0  0  0  0  0
   21.8080  -16.4228  -23.5214 C   0  0  0  0  0  0  0  0  0  0  0  0
   22.0330  -15.4993  -24.5446 C   0  0  0  0  0  0  0  0  0  0  0  0
   23.1969  -14.7657  -24.6150 C   0  0  0  0  0  0  0  0  0  0  0  0
   24.1502  -14.9539  -23.6532 C   0  0  0  0  0  0  0  0  0  0  0  0
   23.9563  -15.8695  -22.6166 C   0  0  0  0  0  0  0  0  0  0  0  0
   22.7702  -16.5982  -22.5694 C   0  0  0  0  0  0  0  0  0  0  0  0
   23.0159  -19.6037  -18.6332 C   0  0  0  0  0  0  0  0  0  0  0  0
   24.2655  -19.4388  -18.5630 O   0  0  0  0  0  0  0  0  0  0  0  0
   22.3014  -20.1662  -17.5401 N   0  0  0  0  0  0  0  0  0  0  0  0
   22.8434  -20.2474  -16.1974 C   0  0  1  0  0  0  0  0  0  0  0  0
   23.4055  -18.9364  -15.7432 C   0  0  0  0  0  0  0  0  0  0  0  0
   24.0682  -19.0088  -14.4330 C   0  0  0  0  0  0  0  0  0  0  0  0
   23.4021  -18.8318  -13.3878 O   0  0  0  0  0  0  0  0  0  0  0  0
   21.8734  -20.8643  -15.2569 C   0  0  0  0  0  0  0  0  0  0  0  0
   20.6793  -20.4816  -15.3322 O   0  0  0  0  0  0  0  0  0  0  0  0
   25.4238  -19.2727  -14.3773 O   0  0  0  0  0  0  0  0  0  0  0  0
   22.2730  -21.8459  -14.3103 N   0  0  0  0  0  0  0  0  0  0  0  0
   21.3905  -22.4120  -13.3245 C   0  0  1  0  0  0  0  0  0  0  0  0
   22.1489  -23.0114  -12.1858 C   0  0  0  0  0  0  0  0  0  0  0  0
   23.1860  -22.1728  -11.5903 C   0  0  0  0  0  0  0  0  0  0  0  0
   22.9023  -21.1904  -10.6652 C   0  0  0  0  0  0  0  0  0  0  0  0
   23.9504  -20.4555  -10.1606 C   0  0  0  0  0  0  0  0  0  0  0  0
   25.2550  -20.6680  -10.5458 C   0  0  0  0  0  0  0  0  0  0  0  0
   25.5360  -21.6491  -11.4695 C   0  0  0  0  0  0  0  0  0  0  0  0
   24.5056  -22.3983  -11.9893 C   0  0  0  0  0  0  0  0  0  0  0  0
   20.3620  -21.4340  -12.9038 C   0  0  0  0  0  0  0  0  0  0  0  0
   19.3415  -21.8450  -12.3039 O   0  0  0  0  0  0  0  0  0  0  0  0
   20.4528  -20.0781  -13.1341 O   0  0  0  0  0  0  0  0  0  0  0  0
  2  1  1  1
  2  3  1  0
  4  3  1  0
  4  5  2  0
  6  5  1  0
  7  6  1  0
  8  7  2  0
  9  8  1  0
 10  9  2  0
 10 11  1  0
 11 12  2  0
 12  7  1  0
 12  4  1  0
 13  2  1  0
 14 13  2  0
 15 13  1  0
 16 15  1  0
 17 18  1  0
 16 17  1  1
 18 19  2  0
 20 16  1  0
 20 23  1  0
 21 20  2  0
 22 18  1  0
 24 23  1  0
 24 25  1  1
 24 32  1  0
 26 31  1  0
 26 25  1  0
 27 26  2  0
 28 29  2  0
 28 27  1  0
 29 30  1  0
 30 31  2  0
 32 34  1  0
 33 32  2  0
M  END
$$$$
