WDF.pdb
     RDKit          3D

 34 36  0  0  1  0  0  0  0  0999 V2000
   23.5810  -18.2802  -17.0975 N   0  0  0  0  0  0  0  0  0  0  0  0
   22.2924  -17.7128  -16.8806 C   0  0  1  0  0  0  0  0  0  0  0  0
   21.5511  -17.5582  -18.1902 C   0  0  0  0  0  0  0  0  0  0  0  0
   22.2633  -16.6069  -19.0464 C   0  0  0  0  0  0  0  0  0  0  0  0
   23.2048  -16.8630  -20.0175 C   0  0  0  0  0  0  0  0  0  0  0  0
   23.5868  -15.6946  -20.5471 N   0  0  0  0  0  0  0  0  0  0  0  0
   22.9289  -14.6927  -19.9565 C   0  0  0  0  0  0  0  0  0  0  0  0
   22.9419  -13.3056  -20.1187 C   0  0  0  0  0  0  0  0  0  0  0  0
   22.1421  -12.4802  -19.3593 C   0  0  0  0  0  0  0  0  0  0  0  0
   21.3178  -13.0434  -18.4251 C   0  0  0  0  0  0  0  0  0  0  0  0
   21.2809  -14.4269  -18.2380 C   0  0  0  0  0  0  0  0  0  0  0  0
   22.1000  -15.2383  -19.0194 C   0  0  0  0  0  0  0  0  0  0  0  0
   21.5170  -18.5779  -15.9605 C   0  0  0  0  0  0  0  0  0  0  0  0
   21.4459  -19.8086  -16.2326 O   0  0  0  0  0  0  0  0  0  0  0  0
   20.8691  -18.0571  -14.8069 N   0  0  0  0  0  0  0  0  0  0  0  0
   20.1385  -18.8854  -13.8671 C   0  0  1  0  0  0  0  0  0  0  0  0
   20.2703  -18.3837  -12.4628 C   0  0  0  0  0  0  0  0  0  0  0  0
   19.5610  -19.2136  -11.4783 C   0  0  0  0  0  0  0  0  0  0  0  0
   20.0084  -20.3440  -11.1792 O   0  0  0  0  0  0  0  0  0  0  0  0
   18.7406  -19.1112  -14.3152 C   0  0  0  0  0  0  0  0  0  0  0  0
   18.1165  -18.1194  -14.7679 O   0  0  0  0  0  0  0  0  0  0  0  0
   18.4051  -18.7284  -10.8961 O   0  0  0  0  0  0  0  0  0  0  0  0
   18.1299  -20.3918  -14.2377 N   0  0  0  0  0  0  0  0  0  0  0  0
   16.7559  -20.6447  -14.5829 C   0  0  1  0  0  0  0  0  0  0  0  0
   16.6107  -21.8975  -15.3833 C   0  0  0  0  0  0  0  0  0  0  0  0
   15.2529  -22.2453  -15.7945 C   0  0  0  0  0  0  0  0  0  0  0  0
   14.5031  -21.4410  -16.6265 C   0  0  0  0  0  0  0  0  0  0  0  0
   13.2346  -21.8584  -16.9581 C   0  0  0  0  0  0  0  0  0  0  0  0
   12.6990  -23.0375  -16.4913 C   0  0  0  0  0  0  0  0  0  0  0  0
   13.4492  -23.8389  -15.6608 C   0  0  0  0  0  0  0  0  0  0  0  0
   14.7209  -23.4442  -15.3140 C   0  0  0  0  0  0  0  0  0  0  0  0
   15.8875  -20.6014  -13.3848 C   0  0  0  0  0  0  0  0  0  0  0  0
   16.3529  -20.9744  -12.2828 O   0  0  0  0  0  0  0  0  0  0  0  0
   14.5776  -20.1727  -13.4017 O   0  0  0  0  0  0  0  0  0  0  0  0
  2  1  1  6
  2  3  1  0
  4  3  1  0
  4  5  2  0
  6  5  1  0
  7  6  1  0
  8  7  2  0
  9  8  1  0
 10  9  2  0
 10 11  1  0
 11 12  2  0
 12  7  1  0
 12  4  1  0
 13  2  1  0
 14 13  2  0
 15 13  1  0
 16 15  1  0
 17 18  1  0
 16 17  1  1
 18 19  2  0
 20 16  1  0
 20 23  1  0
 21 20  2  0
 22 18  1  0
 24 23  1  0
 24 25  1  1
 24 32  1  0
 26 31  1  0
 26 25  1  0
 27 26  2  0
 28 29  2  0
 28 27  1  0
 29 30  1  0
 30 31  2  0
 32 34  1  0
 33 32  2  0
M  END
$$$$
