EKC.pdb
     RDKit          3D

 25 24  0  0  1  0  0  0  0  0999 V2000
   10.5202  -18.3639   17.4999 N   0  0  0  0  0  0  0  0  0  0  0  0
   10.6838  -19.2530   18.6720 C   0  0  1  0  0  0  0  0  0  0  0  0
   12.1533  -19.3858   18.8936 C   0  0  0  0  0  0  0  0  0  0  0  0
   12.9277  -18.3684   18.1240 C   0  0  0  0  0  0  0  0  0  0  0  0
   14.3738  -18.5464   18.3339 C   0  0  0  0  0  0  0  0  0  0  0  0
   15.1544  -19.0944   17.5324 O   0  0  0  0  0  0  0  0  0  0  0  0
   10.0325  -18.5735   19.8060 C   0  0  0  0  0  0  0  0  0  0  0  0
    9.9509  -17.2950   19.8376 O   0  0  0  0  0  0  0  0  0  0  0  0
   14.8952  -18.0526   19.5389 O   0  0  0  0  0  0  0  0  0  0  0  0
    9.4921  -19.3350   20.8692 N   0  0  0  0  0  0  0  0  0  0  0  0
    8.6932  -18.6911   21.8769 C   0  0  1  0  0  0  0  0  0  0  0  0
    7.6015  -19.6114   22.3524 C   0  0  0  0  0  0  0  0  0  0  0  0
    6.5101  -19.8172   21.3294 C   0  0  0  0  0  0  0  0  0  0  0  0
    5.6471  -20.9578   21.8517 C   0  0  0  0  0  0  0  0  0  0  0  0
    4.5978  -21.3786   20.8695 C   0  0  0  0  0  0  0  0  0  0  0  0
    3.9214  -22.5357   21.4287 N   0  0  0  0  0  0  0  0  0  0  0  0
    9.5182  -18.1553   22.9845 C   0  0  0  0  0  0  0  0  0  0  0  0
   10.5603  -18.6693   23.4036 O   0  0  0  0  0  0  0  0  0  0  0  0
    9.0678  -16.9572   23.6058 N   0  0  0  0  0  0  0  0  0  0  0  0
    9.7799  -16.3793   24.7257 C   0  0  1  0  0  0  0  0  0  0  0  0
    9.2468  -14.9878   25.0543 C   0  0  0  0  0  0  0  0  0  0  0  0
    7.4795  -15.1157   25.4429 S   0  0  0  0  0  0  0  0  0  0  0  0
    9.8024  -17.2626   25.8985 C   0  0  0  0  0  0  0  0  0  0  0  0
    8.9801  -18.1968   26.0665 O   0  0  0  0  0  0  0  0  0  0  0  0
   10.7647  -17.0977   26.9047 O   0  0  0  0  0  0  0  0  0  0  0  0
  2  7  1  0
  2  1  1  6
  3  2  1  0
  4  3  1  0
  5  4  1  0
  5  9  1  0
  6  5  2  0
  7  8  2  0
 10 11  1  0
 10  7  1  0
 11 12  1  1
 12 13  1  0
 13 14  1  0
 15 14  1  0
 16 15  1  0
 17 11  1  0
 18 17  2  0
 19 17  1  0
 20 19  1  0
 20 21  1  1
 22 21  1  0
 23 20  1  0
 23 25  1  0
 24 23  2  0
M  END
$$$$
