EKC.pdb
     RDKit          3D

 25 24  0  0  1  0  0  0  0  0999 V2000
   13.0971  -17.1360   20.3210 N   0  0  0  0  0  0  0  0  0  0  0  0
   12.8289  -17.8134   21.6094 C   0  0  1  0  0  0  0  0  0  0  0  0
   14.1577  -18.2245   22.1495 C   0  0  0  0  0  0  0  0  0  0  0  0
   15.2451  -18.0597   21.1408 C   0  0  0  0  0  0  0  0  0  0  0  0
   16.5402  -18.4843   21.6971 C   0  0  0  0  0  0  0  0  0  0  0  0
   17.3662  -17.7330   22.2495 O   0  0  0  0  0  0  0  0  0  0  0  0
   12.1848  -16.8145   22.4807 C   0  0  0  0  0  0  0  0  0  0  0  0
   12.8145  -15.7545   22.8301 O   0  0  0  0  0  0  0  0  0  0  0  0
   16.8503  -19.8479   21.5865 O   0  0  0  0  0  0  0  0  0  0  0  0
   10.8616  -17.0238   22.9362 N   0  0  0  0  0  0  0  0  0  0  0  0
   10.2189  -16.0276   23.7505 C   0  0  1  0  0  0  0  0  0  0  0  0
    8.7286  -16.0588   23.5441 C   0  0  0  0  0  0  0  0  0  0  0  0
    8.2494  -15.0588   22.5192 C   0  0  0  0  0  0  0  0  0  0  0  0
    7.1362  -15.7473   21.7412 C   0  0  0  0  0  0  0  0  0  0  0  0
    6.5302  -14.8579   20.6998 C   0  0  0  0  0  0  0  0  0  0  0  0
    5.6026  -15.6658   19.9278 N   0  0  0  0  0  0  0  0  0  0  0  0
   10.6057  -16.1384   25.1762 C   0  0  0  0  0  0  0  0  0  0  0  0
   11.0160  -17.1686   25.7203 O   0  0  0  0  0  0  0  0  0  0  0  0
   10.4925  -14.9633   25.9705 N   0  0  0  0  0  0  0  0  0  0  0  0
   10.7737  -14.9875   27.3901 C   0  0  1  0  0  0  0  0  0  0  0  0
   10.2966  -13.7046   28.0648 C   0  0  0  0  0  0  0  0  0  0  0  0
   10.7952  -13.7410   29.8086 S   0  0  0  0  0  0  0  0  0  0  0  0
   10.2560  -16.1935   28.0490 C   0  0  0  0  0  0  0  0  0  0  0  0
   10.9395  -16.8849   28.8438 O   0  0  0  0  0  0  0  0  0  0  0  0
    8.9464  -16.6354   27.8139 O   0  0  0  0  0  0  0  0  0  0  0  0
  2  7  1  0
  2  1  1  6
  3  2  1  0
  4  3  1  0
  5  4  1  0
  5  9  1  0
  6  5  2  0
  7  8  2  0
 10 11  1  0
 10  7  1  0
 11 12  1  1
 12 13  1  0
 13 14  1  0
 15 14  1  0
 16 15  1  0
 17 11  1  0
 18 17  2  0
 19 17  1  0
 20 19  1  0
 20 21  1  1
 22 21  1  0
 23 20  1  0
 23 25  1  0
 24 23  2  0
M  END
$$$$
