EKC.pdb
     RDKit          3D

 25 24  0  0  1  0  0  0  0  0999 V2000
    9.9017  -17.1581   19.4170 N   0  0  0  0  0  0  0  0  0  0  0  0
   10.6040  -17.5884   20.6469 C   0  0  1  0  0  0  0  0  0  0  0  0
   11.9540  -16.9546   20.6003 C   0  0  0  0  0  0  0  0  0  0  0  0
   13.0337  -17.9581   20.3674 C   0  0  0  0  0  0  0  0  0  0  0  0
   14.3545  -17.3083   20.3534 C   0  0  0  0  0  0  0  0  0  0  0  0
   14.8842  -16.7779   19.3583 O   0  0  0  0  0  0  0  0  0  0  0  0
    9.8132  -17.0767   21.7804 C   0  0  0  0  0  0  0  0  0  0  0  0
    9.7291  -15.8166   21.9978 O   0  0  0  0  0  0  0  0  0  0  0  0
   15.0568  -17.2956   21.5677 O   0  0  0  0  0  0  0  0  0  0  0  0
    9.1404  -17.9803   22.6365 N   0  0  0  0  0  0  0  0  0  0  0  0
    8.2755  -17.4780   23.6700 C   0  0  1  0  0  0  0  0  0  0  0  0
    7.3181  -18.5471   24.1227 C   0  0  0  0  0  0  0  0  0  0  0  0
    6.2879  -18.9036   23.0779 C   0  0  0  0  0  0  0  0  0  0  0  0
    5.4226  -19.9971   23.6895 C   0  0  0  0  0  0  0  0  0  0  0  0
    4.2999  -20.4104   22.7886 C   0  0  0  0  0  0  0  0  0  0  0  0
    3.5385  -21.4310   23.4869 N   0  0  0  0  0  0  0  0  0  0  0  0
    9.0359  -16.8741   24.7887 C   0  0  0  0  0  0  0  0  0  0  0  0
   10.1667  -17.2209   25.1447 O   0  0  0  0  0  0  0  0  0  0  0  0
    8.4073  -15.8147   25.5009 N   0  0  0  0  0  0  0  0  0  0  0  0
    9.0788  -15.1430   26.5931 C   0  0  1  0  0  0  0  0  0  0  0  0
    8.3105  -13.8973   27.0250 C   0  0  0  0  0  0  0  0  0  0  0  0
    9.2770  -13.0226   28.2866 S   0  0  0  0  0  0  0  0  0  0  0  0
    9.3677  -16.0416   27.7180 C   0  0  0  0  0  0  0  0  0  0  0  0
    8.5993  -16.9726   28.0640 O   0  0  0  0  0  0  0  0  0  0  0  0
   10.5409  -15.8959   28.4719 O   0  0  0  0  0  0  0  0  0  0  0  0
  2  7  1  0
  2  1  1  6
  3  2  1  0
  4  3  1  0
  5  4  1  0
  5  9  1  0
  6  5  2  0
  7  8  2  0
 10 11  1  0
 10  7  1  0
 11 12  1  1
 12 13  1  0
 13 14  1  0
 15 14  1  0
 16 15  1  0
 17 11  1  0
 18 17  2  0
 19 17  1  0
 20 19  1  0
 20 21  1  1
 22 21  1  0
 23 20  1  0
 23 25  1  0
 24 23  2  0
M  END
$$$$
