EKC.pdb
     RDKit          3D

 25 24  0  0  1  0  0  0  0  0999 V2000
    8.6001  -12.8316   18.9858 N   0  0  0  0  0  0  0  0  0  0  0  0
    8.6047  -14.2754   19.3120 C   0  0  1  0  0  0  0  0  0  0  0  0
   10.0124  -14.7385   19.1374 C   0  0  0  0  0  0  0  0  0  0  0  0
   10.9930  -13.7724   19.7135 C   0  0  0  0  0  0  0  0  0  0  0  0
   12.3681  -14.2772   19.5683 C   0  0  0  0  0  0  0  0  0  0  0  0
   12.6931  -15.3114   18.9544 O   0  0  0  0  0  0  0  0  0  0  0  0
    8.1767  -14.3875   20.7178 C   0  0  0  0  0  0  0  0  0  0  0  0
    7.9376  -13.3361   21.4101 O   0  0  0  0  0  0  0  0  0  0  0  0
   13.3791  -13.5188   20.1770 O   0  0  0  0  0  0  0  0  0  0  0  0
    8.0274  -15.6638   21.3104 N   0  0  0  0  0  0  0  0  0  0  0  0
    7.3653  -15.7899   22.5809 C   0  0  1  0  0  0  0  0  0  0  0  0
    6.6461  -17.1086   22.6724 C   0  0  0  0  0  0  0  0  0  0  0  0
    5.4296  -17.1853   21.7810 C   0  0  0  0  0  0  0  0  0  0  0  0
    4.7785  -18.5321   22.0649 C   0  0  0  0  0  0  0  0  0  0  0  0
    3.4825  -18.7071   21.3352 C   0  0  0  0  0  0  0  0  0  0  0  0
    2.9753  -20.0274   21.6651 N   0  0  0  0  0  0  0  0  0  0  0  0
    8.2880  -15.5569   23.7161 C   0  0  0  0  0  0  0  0  0  0  0  0
    9.4946  -15.8214   23.7134 O   0  0  0  0  0  0  0  0  0  0  0  0
    7.7326  -14.9842   24.8943 N   0  0  0  0  0  0  0  0  0  0  0  0
    8.5419  -14.7615   26.0735 C   0  0  1  0  0  0  0  0  0  0  0  0
    7.8962  -13.7298   26.9940 C   0  0  0  0  0  0  0  0  0  0  0  0
    7.5321  -12.2353   26.0323 S   0  0  0  0  0  0  0  0  0  0  0  0
    8.8751  -16.0079   26.7748 C   0  0  0  0  0  0  0  0  0  0  0  0
    8.4009  -17.1239   26.4479 O   0  0  0  0  0  0  0  0  0  0  0  0
    9.7570  -16.0063   27.8647 O   0  0  0  0  0  0  0  0  0  0  0  0
  2  7  1  0
  2  1  1  1
  3  2  1  0
  4  3  1  0
  5  4  1  0
  5  9  1  0
  6  5  2  0
  7  8  2  0
 10 11  1  0
 10  7  1  0
 11 12  1  1
 12 13  1  0
 13 14  1  0
 15 14  1  0
 16 15  1  0
 17 11  1  0
 18 17  2  0
 19 17  1  0
 20 19  1  0
 20 21  1  1
 22 21  1  0
 23 20  1  0
 23 25  1  0
 24 23  2  0
M  END
$$$$
