EKC.pdb
     RDKit          3D

 25 24  0  0  1  0  0  0  0  0999 V2000
   12.3521  -16.1358   19.9653 N   0  0  0  0  0  0  0  0  0  0  0  0
   12.2082  -17.0887   21.0888 C   0  0  1  0  0  0  0  0  0  0  0  0
   13.4680  -16.9920   21.8824 C   0  0  0  0  0  0  0  0  0  0  0  0
   13.9145  -15.5779   22.0501 C   0  0  0  0  0  0  0  0  0  0  0  0
   15.2171  -15.5207   22.7334 C   0  0  0  0  0  0  0  0  0  0  0  0
   16.3007  -15.2302   22.1918 O   0  0  0  0  0  0  0  0  0  0  0  0
   11.0465  -16.6359   21.8746 C   0  0  0  0  0  0  0  0  0  0  0  0
   10.5573  -15.4651   21.6955 O   0  0  0  0  0  0  0  0  0  0  0  0
   15.2168  -15.8203   24.1038 O   0  0  0  0  0  0  0  0  0  0  0  0
   10.4646  -17.4975   22.8343 N   0  0  0  0  0  0  0  0  0  0  0  0
    9.2531  -17.1081   23.5045 C   0  0  1  0  0  0  0  0  0  0  0  0
    8.4410  -18.3203   23.8729 C   0  0  0  0  0  0  0  0  0  0  0  0
    7.1941  -18.4773   23.0358 C   0  0  0  0  0  0  0  0  0  0  0  0
    6.4946  -19.7301   23.5454 C   0  0  0  0  0  0  0  0  0  0  0  0
    5.2064  -19.9981   22.8302 C   0  0  0  0  0  0  0  0  0  0  0  0
    4.6418  -21.2106   23.3962 N   0  0  0  0  0  0  0  0  0  0  0  0
    9.5158  -16.2179   24.6590 C   0  0  0  0  0  0  0  0  0  0  0  0
   10.5248  -16.2602   25.3703 O   0  0  0  0  0  0  0  0  0  0  0  0
    8.5248  -15.2433   24.9633 N   0  0  0  0  0  0  0  0  0  0  0  0
    8.6408  -14.3942   26.1298 C   0  0  1  0  0  0  0  0  0  0  0  0
    7.5459  -13.3315   26.1446 C   0  0  0  0  0  0  0  0  0  0  0  0
    7.7112  -12.3432   27.6568 S   0  0  0  0  0  0  0  0  0  0  0  0
    8.6976  -15.1584   27.3824 C   0  0  0  0  0  0  0  0  0  0  0  0
    7.9745  -16.1607   27.6050 O   0  0  0  0  0  0  0  0  0  0  0  0
    9.5816  -14.7938   28.4078 O   0  0  0  0  0  0  0  0  0  0  0  0
  2  7  1  0
  2  1  1  6
  3  2  1  0
  4  3  1  0
  5  4  1  0
  5  9  1  0
  6  5  2  0
  7  8  2  0
 10 11  1  0
 10  7  1  0
 11 12  1  1
 12 13  1  0
 13 14  1  0
 15 14  1  0
 16 15  1  0
 17 11  1  0
 18 17  2  0
 19 17  1  0
 20 19  1  0
 20 21  1  1
 22 21  1  0
 23 20  1  0
 23 25  1  0
 24 23  2  0
M  END
$$$$
