EKC.pdb
     RDKit          3D

 25 24  0  0  1  0  0  0  0  0999 V2000
   11.0500  -15.3279   19.3920 N   0  0  0  0  0  0  0  0  0  0  0  0
   11.7984  -15.9217   20.5227 C   0  0  1  0  0  0  0  0  0  0  0  0
   12.9969  -15.0575   20.7300 C   0  0  0  0  0  0  0  0  0  0  0  0
   13.9972  -15.2188   19.6343 C   0  0  0  0  0  0  0  0  0  0  0  0
   15.2018  -14.4178   19.9068 C   0  0  0  0  0  0  0  0  0  0  0  0
   15.5248  -13.3771   19.3030 O   0  0  0  0  0  0  0  0  0  0  0  0
   10.8991  -15.8755   21.6893 C   0  0  0  0  0  0  0  0  0  0  0  0
   10.0736  -14.9062   21.8355 O   0  0  0  0  0  0  0  0  0  0  0  0
   16.0400  -14.8799   20.9324 O   0  0  0  0  0  0  0  0  0  0  0  0
   10.9445  -16.9071   22.6567 N   0  0  0  0  0  0  0  0  0  0  0  0
   10.0087  -16.9057   23.7489 C   0  0  1  0  0  0  0  0  0  0  0  0
    9.4825  -18.2941   23.9944 C   0  0  0  0  0  0  0  0  0  0  0  0
    8.6894  -18.8432   22.8327 C   0  0  0  0  0  0  0  0  0  0  0  0
    8.2514  -20.2433   23.2406 C   0  0  0  0  0  0  0  0  0  0  0  0
    7.5252  -20.9589   22.1436 C   0  0  0  0  0  0  0  0  0  0  0  0
    7.2581  -22.3079   22.6102 N   0  0  0  0  0  0  0  0  0  0  0  0
   10.5741  -16.2801   24.9668 C   0  0  0  0  0  0  0  0  0  0  0  0
   11.7394  -16.4120   25.3547 O   0  0  0  0  0  0  0  0  0  0  0  0
    9.7005  -15.4671   25.7417 N   0  0  0  0  0  0  0  0  0  0  0  0
   10.1051  -14.9480   27.0308 C   0  0  1  0  0  0  0  0  0  0  0  0
    9.1455  -13.8625   27.5098 C   0  0  0  0  0  0  0  0  0  0  0  0
    8.9679  -12.6200   26.2001 S   0  0  0  0  0  0  0  0  0  0  0  0
   10.2997  -16.0055   28.0309 C   0  0  0  0  0  0  0  0  0  0  0  0
    9.9606  -17.1992   27.8383 O   0  0  0  0  0  0  0  0  0  0  0  0
   10.8859  -15.7220   29.2726 O   0  0  0  0  0  0  0  0  0  0  0  0
  2  7  1  0
  2  1  1  6
  3  2  1  0
  4  3  1  0
  5  4  1  0
  5  9  1  0
  6  5  2  0
  7  8  2  0
 10 11  1  0
 10  7  1  0
 11 12  1  1
 12 13  1  0
 13 14  1  0
 15 14  1  0
 16 15  1  0
 17 11  1  0
 18 17  2  0
 19 17  1  0
 20 19  1  0
 20 21  1  1
 22 21  1  0
 23 20  1  0
 23 25  1  0
 24 23  2  0
M  END
$$$$
