EKC.pdb
     RDKit          3D

 25 24  0  0  1  0  0  0  0  0999 V2000
    9.1838  -18.2103   21.6823 N   0  0  0  0  0  0  0  0  0  0  0  0
   10.4926  -17.5388   21.5178 C   0  0  1  0  0  0  0  0  0  0  0  0
   10.9051  -17.7691   20.1024 C   0  0  0  0  0  0  0  0  0  0  0  0
   11.3614  -19.1717   19.8755 C   0  0  0  0  0  0  0  0  0  0  0  0
   11.8043  -19.3566   18.4839 C   0  0  0  0  0  0  0  0  0  0  0  0
   11.8946  -18.4520   17.6321 O   0  0  0  0  0  0  0  0  0  0  0  0
   10.2636  -16.1068   21.7805 C   0  0  0  0  0  0  0  0  0  0  0  0
   11.2093  -15.2572   21.6193 O   0  0  0  0  0  0  0  0  0  0  0  0
   12.1477  -20.6633   18.1064 O   0  0  0  0  0  0  0  0  0  0  0  0
    8.9916  -15.6634   22.2135 N   0  0  0  0  0  0  0  0  0  0  0  0
    8.7587  -14.2611   22.4320 C   0  0  1  0  0  0  0  0  0  0  0  0
    7.4675  -13.8341   21.7878 C   0  0  0  0  0  0  0  0  0  0  0  0
    7.6681  -12.9164   20.6056 C   0  0  0  0  0  0  0  0  0  0  0  0
    7.5578  -13.7914   19.3643 C   0  0  0  0  0  0  0  0  0  0  0  0
    7.8525  -13.0379   18.1041 C   0  0  0  0  0  0  0  0  0  0  0  0
    7.6563  -13.9555   16.9957 N   0  0  0  0  0  0  0  0  0  0  0  0
    8.8337  -13.9003   23.8668 C   0  0  0  0  0  0  0  0  0  0  0  0
    8.5661  -12.7878   24.3319 O   0  0  0  0  0  0  0  0  0  0  0  0
    9.2462  -14.9198   24.7696 N   0  0  0  0  0  0  0  0  0  0  0  0
    9.2016  -14.7164   26.2020 C   0  0  1  0  0  0  0  0  0  0  0  0
    7.8119  -14.2722   26.6490 C   0  0  0  0  0  0  0  0  0  0  0  0
    7.9490  -12.6591   27.4675 S   0  0  0  0  0  0  0  0  0  0  0  0
    9.6872  -15.8803   26.9542 C   0  0  0  0  0  0  0  0  0  0  0  0
    9.9992  -16.9664   26.4065 O   0  0  0  0  0  0  0  0  0  0  0  0
    9.8269  -15.8284   28.3483 O   0  0  0  0  0  0  0  0  0  0  0  0
  2  7  1  0
  2  1  1  6
  3  2  1  0
  4  3  1  0
  5  4  1  0
  5  9  1  0
  6  5  2  0
  7  8  2  0
 10 11  1  0
 10  7  1  0
 11 12  1  1
 12 13  1  0
 13 14  1  0
 15 14  1  0
 16 15  1  0
 17 11  1  0
 18 17  2  0
 19 17  1  0
 20 19  1  0
 20 21  1  1
 22 21  1  0
 23 20  1  0
 23 25  1  0
 24 23  2  0
M  END
$$$$
