MPY.pdb
     RDKit          3D

 28 29  0  0  1  0  0  0  0  0999 V2000
    4.6490  -11.9652   26.1562 C   0  0  0  0  0  0  0  0  0  0  0  0
    6.4006  -12.1947   26.5358 S   0  0  0  0  0  0  0  0  0  0  0  0
    7.1609  -13.3453   25.3453 C   0  0  0  0  0  0  0  0  0  0  0  0
    6.9348  -14.7466   25.8543 C   0  0  0  0  0  0  0  0  0  0  0  0
    7.3352  -15.8260   24.8685 C   0  0  2  0  0  0  0  0  0  0  0  0
    8.7709  -15.9303   24.9163 N   0  0  0  0  0  0  0  0  0  0  0  0
    6.8280  -15.6245   23.5120 C   0  0  0  0  0  0  0  0  0  0  0  0
    5.5739  -15.4899   23.3849 O   0  0  0  0  0  0  0  0  0  0  0  0
    7.6455  -15.5754   22.3840 N   0  0  0  0  0  0  0  0  0  0  0  0
    7.3674  -14.6603   21.2633 C   0  0  0  0  0  0  0  0  0  0  0  0
    8.4528  -14.8168   20.2654 C   0  0  0  0  0  0  0  0  0  0  0  0
    9.0502  -16.1464   20.5651 C   0  0  0  0  0  0  0  0  0  0  0  0
    8.8142  -16.3021   22.0594 C   0  0  1  0  0  0  0  0  0  0  0  0
   10.0169  -15.8707   22.8314 C   0  0  0  0  0  0  0  0  0  0  0  0
   10.4283  -14.6927   22.6962 O   0  0  0  0  0  0  0  0  0  0  0  0
   10.1541  -16.1269   30.6676 O   0  0  0  0  0  0  0  0  0  0  0  0
   10.5666  -15.9375   29.3693 C   0  0  0  0  0  0  0  0  0  0  0  0
   10.8807  -16.9962   28.5207 C   0  0  0  0  0  0  0  0  0  0  0  0
   11.2908  -16.7758   27.2262 C   0  0  0  0  0  0  0  0  0  0  0  0
   11.4104  -15.4861   26.7057 C   0  0  0  0  0  0  0  0  0  0  0  0
   11.8294  -15.2156   25.3402 C   0  0  0  0  0  0  0  0  0  0  0  0
   11.9089  -16.4077   24.4217 C   0  0  2  0  0  0  0  0  0  0  0  0
   10.7204  -16.7233   23.7111 N   0  0  0  0  0  0  0  0  0  0  0  0
   12.5036  -17.5230   25.1918 C   0  0  0  0  0  0  0  0  0  0  0  0
   11.8727  -18.5597   25.4449 O   0  0  0  0  0  0  0  0  0  0  0  0
   11.1006  -14.4460   27.5425 C   0  0  0  0  0  0  0  0  0  0  0  0
   10.6838  -14.6682   28.8581 C   0  0  0  0  0  0  0  0  0  0  0  0
   13.7999  -17.4011   25.6403 O   0  0  0  0  0  0  0  0  0  0  0  0
  2  1  1  0
  3  2  1  0
  4  3  1  0
  4  5  1  0
  5  6  1  6
  7  5  1  0
  7  8  2  0
  9  7  1  0
 10  9  1  0
 11 12  1  0
 11 10  1  0
 12 13  1  0
 13  9  1  0
 13 14  1  1
 14 23  1  0
 15 14  2  0
 17 16  1  0
 17 18  2  0
 18 19  1  0
 20 19  2  0
 21 20  1  0
 22 21  1  1
 22 23  1  0
 22 24  1  0
 24 25  2  0
 24 28  1  0
 26 27  2  0
 26 20  1  0
 27 17  1  0
M  END
$$$$
