MPY.pdb
     RDKit          3D

 28 29  0  0  1  0  0  0  0  0999 V2000
    5.8296  -11.7973   26.5813 C   0  0  0  0  0  0  0  0  0  0  0  0
    7.3619  -12.7490   26.4771 S   0  0  0  0  0  0  0  0  0  0  0  0
    7.0111  -14.5312   26.6181 C   0  0  0  0  0  0  0  0  0  0  0  0
    6.0886  -14.9074   25.4862 C   0  0  0  0  0  0  0  0  0  0  0  0
    6.2007  -16.3588   25.0642 C   0  0  2  0  0  0  0  0  0  0  0  0
    6.1312  -17.1539   26.2631 N   0  0  0  0  0  0  0  0  0  0  0  0
    7.3774  -16.6632   24.2515 C   0  0  0  0  0  0  0  0  0  0  0  0
    8.0602  -17.6759   24.5912 O   0  0  0  0  0  0  0  0  0  0  0  0
    7.7677  -15.9059   23.1482 N   0  0  0  0  0  0  0  0  0  0  0  0
    6.9191  -14.8305   22.6057 C   0  0  0  0  0  0  0  0  0  0  0  0
    7.6504  -14.1929   21.4846 C   0  0  0  0  0  0  0  0  0  0  0  0
    8.6580  -15.2059   21.0686 C   0  0  0  0  0  0  0  0  0  0  0  0
    8.9381  -15.9637   22.3571 C   0  0  1  0  0  0  0  0  0  0  0  0
   10.1463  -15.4141   23.0406 C   0  0  0  0  0  0  0  0  0  0  0  0
   10.0050  -14.4454   23.8260 O   0  0  0  0  0  0  0  0  0  0  0  0
    8.9760  -14.6809   29.1398 O   0  0  0  0  0  0  0  0  0  0  0  0
    9.7553  -15.1918   28.1282 C   0  0  0  0  0  0  0  0  0  0  0  0
   10.5266  -14.3845   27.2958 C   0  0  0  0  0  0  0  0  0  0  0  0
   11.2966  -14.9244   26.2917 C   0  0  0  0  0  0  0  0  0  0  0  0
   11.3402  -16.3005   26.0620 C   0  0  0  0  0  0  0  0  0  0  0  0
   12.1506  -16.9071   25.0187 C   0  0  0  0  0  0  0  0  0  0  0  0
   12.4671  -16.0339   23.8320 C   0  0  2  0  0  0  0  0  0  0  0  0
   11.4473  -15.9299   22.8490 N   0  0  0  0  0  0  0  0  0  0  0  0
   13.7982  -16.4373   23.3260 C   0  0  0  0  0  0  0  0  0  0  0  0
   13.9576  -16.9043   22.1888 O   0  0  0  0  0  0  0  0  0  0  0  0
   10.5806  -17.0928   26.8826 C   0  0  0  0  0  0  0  0  0  0  0  0
    9.7976  -16.5460   27.9032 C   0  0  0  0  0  0  0  0  0  0  0  0
   14.8927  -16.2878   24.1484 O   0  0  0  0  0  0  0  0  0  0  0  0
  2  1  1  0
  3  2  1  0
  4  3  1  0
  4  5  1  0
  5  6  1  1
  7  5  1  0
  7  8  2  0
  9  7  1  0
 10  9  1  0
 11 12  1  0
 11 10  1  0
 12 13  1  0
 13  9  1  0
 13 14  1  1
 14 23  1  0
 15 14  2  0
 17 16  1  0
 17 18  2  0
 18 19  1  0
 20 19  2  0
 21 20  1  0
 22 21  1  1
 22 23  1  0
 22 24  1  0
 24 25  2  0
 24 28  1  0
 26 27  2  0
 26 20  1  0
 27 17  1  0
M  END
$$$$
