MPY.pdb
     RDKit          3D

 28 29  0  0  1  0  0  0  0  0999 V2000
    5.8498  -18.0280   19.2624 C   0  0  0  0  0  0  0  0  0  0  0  0
    6.5858  -17.4503   20.8081 S   0  0  0  0  0  0  0  0  0  0  0  0
    5.9410  -15.8017   21.2391 C   0  0  0  0  0  0  0  0  0  0  0  0
    6.5227  -15.4176   22.5762 C   0  0  0  0  0  0  0  0  0  0  0  0
    7.5479  -14.3040   22.4984 C   0  0  2  0  0  0  0  0  0  0  0  0
    8.3272  -14.5296   21.3084 N   0  0  0  0  0  0  0  0  0  0  0  0
    8.3740  -14.1579   23.6959 C   0  0  0  0  0  0  0  0  0  0  0  0
    9.5648  -14.5867   23.6245 O   0  0  0  0  0  0  0  0  0  0  0  0
    7.9176  -13.5813   24.8801 N   0  0  0  0  0  0  0  0  0  0  0  0
    6.5683  -13.0000   24.9906 C   0  0  0  0  0  0  0  0  0  0  0  0
    6.3845  -12.5334   26.3859 C   0  0  0  0  0  0  0  0  0  0  0  0
    7.7665  -12.3833   26.9171 C   0  0  0  0  0  0  0  0  0  0  0  0
    8.5525  -13.4230   26.1335 C   0  0  1  0  0  0  0  0  0  0  0  0
    8.6650  -14.6941   26.9085 C   0  0  0  0  0  0  0  0  0  0  0  0
    7.6291  -15.3765   27.0990 O   0  0  0  0  0  0  0  0  0  0  0  0
   11.5826  -17.0823   21.9835 O   0  0  0  0  0  0  0  0  0  0  0  0
   11.4433  -17.1500   23.3501 C   0  0  0  0  0  0  0  0  0  0  0  0
   12.2990  -16.4844   24.2245 C   0  0  0  0  0  0  0  0  0  0  0  0
   12.1348  -16.5710   25.5876 C   0  0  0  0  0  0  0  0  0  0  0  0
   11.1074  -17.3267   26.1548 C   0  0  0  0  0  0  0  0  0  0  0  0
   10.8965  -17.4318   27.5892 C   0  0  0  0  0  0  0  0  0  0  0  0
   10.0604  -16.3474   28.2185 C   0  0  2  0  0  0  0  0  0  0  0  0
    9.8828  -15.1718   27.4416 N   0  0  0  0  0  0  0  0  0  0  0  0
   10.5726  -16.1310   29.5901 C   0  0  0  0  0  0  0  0  0  0  0  0
   10.7438  -17.0664   30.3853 O   0  0  0  0  0  0  0  0  0  0  0  0
   10.2666  -17.9805   25.2924 C   0  0  0  0  0  0  0  0  0  0  0  0
   10.4320  -17.8938   23.9071 C   0  0  0  0  0  0  0  0  0  0  0  0
   10.8670  -14.8472   29.9923 O   0  0  0  0  0  0  0  0  0  0  0  0
  2  1  1  0
  3  2  1  0
  4  3  1  0
  4  5  1  0
  5  6  1  6
  7  5  1  0
  7  8  2  0
  9  7  1  0
 10  9  1  0
 11 12  1  0
 11 10  1  0
 12 13  1  0
 13  9  1  0
 13 14  1  1
 14 23  1  0
 15 14  2  0
 17 16  1  0
 17 18  2  0
 18 19  1  0
 20 19  2  0
 21 20  1  0
 22 21  1  6
 22 23  1  0
 22 24  1  0
 24 25  2  0
 24 28  1  0
 26 27  2  0
 26 20  1  0
 27 17  1  0
M  END
$$$$
