MPY.pdb
     RDKit          3D

 28 29  0  0  1  0  0  0  0  0999 V2000
    7.4250  -11.9496   27.3324 C   0  0  0  0  0  0  0  0  0  0  0  0
    6.2009  -12.9519   26.4597 S   0  0  0  0  0  0  0  0  0  0  0  0
    6.9080  -14.5718   26.0175 C   0  0  0  0  0  0  0  0  0  0  0  0
    5.9019  -15.2906   25.1545 C   0  0  0  0  0  0  0  0  0  0  0  0
    6.3280  -16.6896   24.7568 C   0  0  2  0  0  0  0  0  0  0  0  0
    6.4831  -17.4458   25.9727 N   0  0  0  0  0  0  0  0  0  0  0  0
    7.5146  -16.7410   23.9041 C   0  0  0  0  0  0  0  0  0  0  0  0
    8.2913  -17.7300   24.0643 O   0  0  0  0  0  0  0  0  0  0  0  0
    7.8177  -15.7730   22.9479 N   0  0  0  0  0  0  0  0  0  0  0  0
    7.0406  -14.5266   22.8320 C   0  0  0  0  0  0  0  0  0  0  0  0
    7.6588  -13.6999   21.7677 C   0  0  0  0  0  0  0  0  0  0  0  0
    8.4453  -14.6644   20.9517 C   0  0  0  0  0  0  0  0  0  0  0  0
    8.8278  -15.7376   21.9591 C   0  0  1  0  0  0  0  0  0  0  0  0
   10.1915  -15.4821   22.5103 C   0  0  0  0  0  0  0  0  0  0  0  0
   10.7288  -14.3684   22.2950 O   0  0  0  0  0  0  0  0  0  0  0  0
   10.2345  -16.3256   30.2229 O   0  0  0  0  0  0  0  0  0  0  0  0
   10.6791  -16.0530   28.9502 C   0  0  0  0  0  0  0  0  0  0  0  0
   11.0248  -17.0549   28.0466 C   0  0  0  0  0  0  0  0  0  0  0  0
   11.4668  -16.7517   26.7797 C   0  0  0  0  0  0  0  0  0  0  0  0
   11.5886  -15.4314   26.3432 C   0  0  0  0  0  0  0  0  0  0  0  0
   12.0408  -15.0737   25.0087 C   0  0  0  0  0  0  0  0  0  0  0  0
   12.1022  -16.1966   24.0055 C   0  0  2  0  0  0  0  0  0  0  0  0
   10.9130  -16.4329   23.2657 N   0  0  0  0  0  0  0  0  0  0  0  0
   12.6666  -17.3782   24.6952 C   0  0  0  0  0  0  0  0  0  0  0  0
   13.7533  -17.3377   25.2904 O   0  0  0  0  0  0  0  0  0  0  0  0
   11.2475  -14.4474   27.2340 C   0  0  0  0  0  0  0  0  0  0  0  0
   10.7984  -14.7537   28.5217 C   0  0  0  0  0  0  0  0  0  0  0  0
   11.9587  -18.5593   24.6724 O   0  0  0  0  0  0  0  0  0  0  0  0
  2  1  1  0
  3  2  1  0
  4  3  1  0
  4  5  1  0
  5  6  1  1
  7  5  1  0
  7  8  2  0
  9  7  1  0
 10  9  1  0
 11 12  1  0
 11 10  1  0
 12 13  1  0
 13  9  1  0
 13 14  1  1
 14 23  1  0
 15 14  2  0
 17 16  1  0
 17 18  2  0
 18 19  1  0
 20 19  2  0
 21 20  1  0
 22 21  1  1
 22 23  1  0
 22 24  1  0
 24 25  2  0
 24 28  1  0
 26 27  2  0
 26 20  1  0
 27 17  1  0
M  END
$$$$
