MPY.pdb
     RDKit          3D

 28 29  0  0  1  0  0  0  0  0999 V2000
    5.2898  -11.3457   25.8576 C   0  0  0  0  0  0  0  0  0  0  0  0
    6.3340  -12.8023   26.0868 S   0  0  0  0  0  0  0  0  0  0  0  0
    5.5158  -14.2812   25.4064 C   0  0  0  0  0  0  0  0  0  0  0  0
    6.3660  -15.4766   25.7556 C   0  0  0  0  0  0  0  0  0  0  0  0
    6.2982  -16.5933   24.7332 C   0  0  2  0  0  0  0  0  0  0  0  0
    5.8746  -17.7799   25.4310 N   0  0  0  0  0  0  0  0  0  0  0  0
    7.5315  -16.7940   23.9740 C   0  0  0  0  0  0  0  0  0  0  0  0
    8.2206  -17.8179   24.2634 O   0  0  0  0  0  0  0  0  0  0  0  0
    7.9680  -15.9287   22.9720 N   0  0  0  0  0  0  0  0  0  0  0  0
    7.3033  -14.6387   22.7169 C   0  0  0  0  0  0  0  0  0  0  0  0
    8.0481  -13.9465   21.6377 C   0  0  0  0  0  0  0  0  0  0  0  0
    8.7995  -15.0287   20.9457 C   0  0  0  0  0  0  0  0  0  0  0  0
    9.0336  -16.0474   22.0503 C   0  0  1  0  0  0  0  0  0  0  0  0
   10.3791  -15.8560   22.6683 C   0  0  0  0  0  0  0  0  0  0  0  0
   11.0443  -14.8377   22.3588 O   0  0  0  0  0  0  0  0  0  0  0  0
    8.9823  -15.2312   29.7878 O   0  0  0  0  0  0  0  0  0  0  0  0
    9.7883  -15.2898   28.6749 C   0  0  0  0  0  0  0  0  0  0  0  0
   10.6228  -16.3730   28.4103 C   0  0  0  0  0  0  0  0  0  0  0  0
   11.4183  -16.4035   27.2884 C   0  0  0  0  0  0  0  0  0  0  0  0
   11.4258  -15.3547   26.3674 C   0  0  0  0  0  0  0  0  0  0  0  0
   12.2441  -15.3575   25.1659 C   0  0  0  0  0  0  0  0  0  0  0  0
   12.1586  -16.5931   24.3075 C   0  0  2  0  0  0  0  0  0  0  0  0
   10.9462  -16.7658   23.5882 N   0  0  0  0  0  0  0  0  0  0  0  0
   12.5713  -17.7435   25.1423 C   0  0  0  0  0  0  0  0  0  0  0  0
   11.8237  -18.7108   25.3479 O   0  0  0  0  0  0  0  0  0  0  0  0
   10.6037  -14.2901   26.6299 C   0  0  0  0  0  0  0  0  0  0  0  0
    9.7948  -14.2573   27.7693 C   0  0  0  0  0  0  0  0  0  0  0  0
   13.8270  -17.7351   25.7075 O   0  0  0  0  0  0  0  0  0  0  0  0
  2  1  1  0
  3  2  1  0
  4  3  1  0
  4  5  1  0
  5  6  1  1
  7  5  1  0
  7  8  2  0
  9  7  1  0
 10  9  1  0
 11 12  1  0
 11 10  1  0
 12 13  1  0
 13  9  1  0
 13 14  1  1
 14 23  1  0
 15 14  2  0
 17 16  1  0
 17 18  2  0
 18 19  1  0
 20 19  2  0
 21 20  1  0
 22 21  1  1
 22 23  1  0
 22 24  1  0
 24 25  2  0
 24 28  1  0
 26 27  2  0
 26 20  1  0
 27 17  1  0
M  END
$$$$
