MPY.pdb
     RDKit          3D

 28 29  0  0  1  0  0  0  0  0999 V2000
    6.9959  -18.6675   26.7239 C   0  0  0  0  0  0  0  0  0  0  0  0
    5.7921  -18.3337   25.4185 S   0  0  0  0  0  0  0  0  0  0  0  0
    6.5756  -18.4861   23.7807 C   0  0  0  0  0  0  0  0  0  0  0  0
    5.5706  -18.0401   22.7489 C   0  0  0  0  0  0  0  0  0  0  0  0
    6.1183  -18.0115   21.3360 C   0  0  2  0  0  0  0  0  0  0  0  0
    6.1936  -19.3770   20.8842 N   0  0  0  0  0  0  0  0  0  0  0  0
    7.3866  -17.2982   21.1933 C   0  0  0  0  0  0  0  0  0  0  0  0
    8.4443  -17.9938   21.2603 O   0  0  0  0  0  0  0  0  0  0  0  0
    7.4772  -15.9219   20.9917 N   0  0  0  0  0  0  0  0  0  0  0  0
    6.2886  -15.0997   20.7048 C   0  0  0  0  0  0  0  0  0  0  0  0
    6.7239  -13.6857   20.6067 C   0  0  0  0  0  0  0  0  0  0  0  0
    8.1846  -13.7603   20.3325 C   0  0  0  0  0  0  0  0  0  0  0  0
    8.5970  -15.0588   21.0082 C   0  0  1  0  0  0  0  0  0  0  0  0
    9.1254  -14.7956   22.3795 C   0  0  0  0  0  0  0  0  0  0  0  0
    8.4198  -14.1348   23.1799 O   0  0  0  0  0  0  0  0  0  0  0  0
    6.6001  -11.5481   27.2914 O   0  0  0  0  0  0  0  0  0  0  0  0
    7.3906  -12.5553   26.7892 C   0  0  0  0  0  0  0  0  0  0  0  0
    8.7503  -12.6537   27.0744 C   0  0  0  0  0  0  0  0  0  0  0  0
    9.5159  -13.6729   26.5573 C   0  0  0  0  0  0  0  0  0  0  0  0
    8.9677  -14.6514   25.7264 C   0  0  0  0  0  0  0  0  0  0  0  0
    9.7430  -15.7487   25.1714 C   0  0  0  0  0  0  0  0  0  0  0  0
   10.8098  -15.3710   24.1763 C   0  0  2  0  0  0  0  0  0  0  0  0
   10.3848  -15.2538   22.8262 N   0  0  0  0  0  0  0  0  0  0  0  0
   11.9659  -16.2670   24.4027 C   0  0  0  0  0  0  0  0  0  0  0  0
   12.5253  -16.3559   25.5054 O   0  0  0  0  0  0  0  0  0  0  0  0
    7.6296  -14.5526   25.4475 C   0  0  0  0  0  0  0  0  0  0  0  0
    6.8501  -13.5177   25.9719 C   0  0  0  0  0  0  0  0  0  0  0  0
   12.4325  -17.0247   23.3516 O   0  0  0  0  0  0  0  0  0  0  0  0
  2  1  1  0
  3  2  1  0
  4  3  1  0
  4  5  1  0
  5  6  1  1
  7  5  1  0
  7  8  2  0
  9  7  1  0
 10  9  1  0
 11 12  1  0
 11 10  1  0
 12 13  1  0
 13  9  1  0
 13 14  1  1
 14 23  1  0
 15 14  2  0
 17 16  1  0
 17 18  2  0
 18 19  1  0
 20 19  2  0
 21 20  1  0
 22 21  1  1
 22 23  1  0
 22 24  1  0
 24 25  2  0
 24 28  1  0
 26 27  2  0
 26 20  1  0
 27 17  1  0
M  END
$$$$
