MPY.pdb
     RDKit          3D

 28 29  0  0  1  0  0  0  0  0999 V2000
    5.2562  -18.2797   25.0431 C   0  0  0  0  0  0  0  0  0  0  0  0
    4.5246  -18.6557   23.4344 S   0  0  0  0  0  0  0  0  0  0  0  0
    5.7894  -18.5629   22.1263 C   0  0  0  0  0  0  0  0  0  0  0  0
    5.1793  -17.8447   20.9492 C   0  0  0  0  0  0  0  0  0  0  0  0
    6.1486  -17.6108   19.8078 C   0  0  2  0  0  0  0  0  0  0  0  0
    6.3956  -18.8903   19.1944 N   0  0  0  0  0  0  0  0  0  0  0  0
    7.3792  -16.9207   20.1911 C   0  0  0  0  0  0  0  0  0  0  0  0
    8.4106  -17.6396   20.3543 O   0  0  0  0  0  0  0  0  0  0  0  0
    7.4620  -15.5419   20.3789 N   0  0  0  0  0  0  0  0  0  0  0  0
    6.3201  -14.6517   20.1062 C   0  0  0  0  0  0  0  0  0  0  0  0
    6.7218  -13.2702   20.4649 C   0  0  0  0  0  0  0  0  0  0  0  0
    8.2096  -13.2962   20.4526 C   0  0  0  0  0  0  0  0  0  0  0  0
    8.5330  -14.7345   20.8263 C   0  0  1  0  0  0  0  0  0  0  0  0
    8.7960  -14.8528   22.2911 C   0  0  0  0  0  0  0  0  0  0  0  0
    7.8247  -15.0383   23.0639 O   0  0  0  0  0  0  0  0  0  0  0  0
   10.6410  -15.7682   30.6175 O   0  0  0  0  0  0  0  0  0  0  0  0
   10.3034  -15.5174   29.3080 C   0  0  0  0  0  0  0  0  0  0  0  0
    9.9789  -14.2433   28.8486 C   0  0  0  0  0  0  0  0  0  0  0  0
    9.6450  -14.0229   27.5324 C   0  0  0  0  0  0  0  0  0  0  0  0
    9.6161  -15.0617   26.6006 C   0  0  0  0  0  0  0  0  0  0  0  0
    9.2794  -14.8645   25.2002 C   0  0  0  0  0  0  0  0  0  0  0  0
   10.4244  -14.9489   24.2240 C   0  0  2  0  0  0  0  0  0  0  0  0
   10.0878  -14.7666   22.8563 N   0  0  0  0  0  0  0  0  0  0  0  0
   11.1815  -16.1825   24.5328 C   0  0  0  0  0  0  0  0  0  0  0  0
   10.9327  -17.2644   23.9811 O   0  0  0  0  0  0  0  0  0  0  0  0
    9.9361  -16.3144   27.0549 C   0  0  0  0  0  0  0  0  0  0  0  0
   10.2755  -16.5402   28.3919 C   0  0  0  0  0  0  0  0  0  0  0  0
   12.1943  -16.1225   25.4640 O   0  0  0  0  0  0  0  0  0  0  0  0
  2  1  1  0
  3  2  1  0
  4  3  1  0
  4  5  1  0
  5  6  1  1
  7  5  1  0
  7  8  2  0
  9  7  1  0
 10  9  1  0
 11 12  1  0
 11 10  1  0
 12 13  1  0
 13  9  1  0
 13 14  1  1
 14 23  1  0
 15 14  2  0
 17 16  1  0
 17 18  2  0
 18 19  1  0
 20 19  2  0
 21 20  1  0
 22 21  1  1
 22 23  1  0
 22 24  1  0
 24 25  2  0
 24 28  1  0
 26 27  2  0
 26 20  1  0
 27 17  1  0
M  END
$$$$
