MPY.pdb
     RDKit          3D

 28 29  0  0  1  0  0  0  0  0999 V2000
    8.2592  -11.6871   26.7521 C   0  0  0  0  0  0  0  0  0  0  0  0
    6.7800  -12.4707   26.0719 S   0  0  0  0  0  0  0  0  0  0  0  0
    7.1155  -14.2161   25.6713 C   0  0  0  0  0  0  0  0  0  0  0  0
    5.8841  -14.7783   25.0070 C   0  0  0  0  0  0  0  0  0  0  0  0
    6.0424  -16.2122   24.5421 C   0  0  2  0  0  0  0  0  0  0  0  0
    5.9772  -17.0462   25.7146 N   0  0  0  0  0  0  0  0  0  0  0  0
    7.2388  -16.4590   23.7388 C   0  0  0  0  0  0  0  0  0  0  0  0
    7.9396  -17.4678   24.0521 O   0  0  0  0  0  0  0  0  0  0  0  0
    7.6290  -15.6520   22.6712 N   0  0  0  0  0  0  0  0  0  0  0  0
    6.9305  -14.3943   22.3533 C   0  0  0  0  0  0  0  0  0  0  0  0
    7.6303  -13.7590   21.2108 C   0  0  0  0  0  0  0  0  0  0  0  0
    8.3848  -14.8690   20.5680 C   0  0  0  0  0  0  0  0  0  0  0  0
    8.6709  -15.8095   21.7284 C   0  0  1  0  0  0  0  0  0  0  0  0
   10.0287  -15.5528   22.2935 C   0  0  0  0  0  0  0  0  0  0  0  0
   10.6116  -14.4817   21.9965 O   0  0  0  0  0  0  0  0  0  0  0  0
    9.1089  -16.2413   29.7782 O   0  0  0  0  0  0  0  0  0  0  0  0
    9.7582  -15.9931   28.5914 C   0  0  0  0  0  0  0  0  0  0  0  0
   10.1111  -17.0068   27.7040 C   0  0  0  0  0  0  0  0  0  0  0  0
   10.7605  -16.7280   26.5238 C   0  0  0  0  0  0  0  0  0  0  0  0
   11.0942  -15.4216   26.1627 C   0  0  0  0  0  0  0  0  0  0  0  0
   11.7695  -15.0883   24.9192 C   0  0  0  0  0  0  0  0  0  0  0  0
   11.8717  -16.1954   23.9019 C   0  0  2  0  0  0  0  0  0  0  0  0
   10.6957  -16.4569   23.1498 N   0  0  0  0  0  0  0  0  0  0  0  0
   12.4656  -17.3690   24.5806 C   0  0  0  0  0  0  0  0  0  0  0  0
   13.5525  -17.3076   25.1736 O   0  0  0  0  0  0  0  0  0  0  0  0
   10.7457  -14.4258   27.0373 C   0  0  0  0  0  0  0  0  0  0  0  0
   10.0860  -14.7074   28.2371 C   0  0  0  0  0  0  0  0  0  0  0  0
   11.7857  -18.5662   24.5499 O   0  0  0  0  0  0  0  0  0  0  0  0
  2  1  1  0
  3  2  1  0
  4  3  1  0
  4  5  1  0
  5  6  1  1
  7  5  1  0
  7  8  2  0
  9  7  1  0
 10  9  1  0
 11 12  1  0
 11 10  1  0
 12 13  1  0
 13  9  1  0
 13 14  1  1
 14 23  1  0
 15 14  2  0
 17 16  1  0
 17 18  2  0
 18 19  1  0
 20 19  2  0
 21 20  1  0
 22 21  1  1
 22 23  1  0
 22 24  1  0
 24 25  2  0
 24 28  1  0
 26 27  2  0
 26 20  1  0
 27 17  1  0
M  END
$$$$
