WHR.pdb
     RDKit          3D

 36 38  0  0  1  0  0  0  0  0999 V2000
    9.7689  -14.7287   22.7547 N   0  0  0  0  0  0  0  0  0  0  0  0
    9.5673  -15.6297   23.8601 C   0  0  1  0  0  0  0  0  0  0  0  0
    8.1079  -15.9219   24.0285 C   0  0  0  0  0  0  0  0  0  0  0  0
    7.2307  -14.7355   23.9557 C   0  0  0  0  0  0  0  0  0  0  0  0
    6.3458  -14.4491   22.9112 C   0  0  0  0  0  0  0  0  0  0  0  0
    5.7104  -13.3222   23.2039 N   0  0  0  0  0  0  0  0  0  0  0  0
    6.1146  -12.8273   24.3874 C   0  0  0  0  0  0  0  0  0  0  0  0
    5.7867  -11.7086   25.1322 C   0  0  0  0  0  0  0  0  0  0  0  0
    6.3776  -11.4369   26.3367 C   0  0  0  0  0  0  0  0  0  0  0  0
    7.3303  -12.3068   26.8221 C   0  0  0  0  0  0  0  0  0  0  0  0
    7.6720  -13.4411   26.0819 C   0  0  0  0  0  0  0  0  0  0  0  0
    7.0763  -13.7118   24.8732 C   0  0  0  0  0  0  0  0  0  0  0  0
   10.2720  -16.9322   23.5766 C   0  0  0  0  0  0  0  0  0  0  0  0
    9.9732  -17.9600   24.2376 O   0  0  0  0  0  0  0  0  0  0  0  0
   11.2652  -17.0478   22.5884 N   0  0  0  0  0  0  0  0  0  0  0  0
   12.1811  -18.1527   22.4701 C   0  0  1  0  0  0  0  0  0  0  0  0
   12.7484  -18.2625   21.0843 C   0  0  0  0  0  0  0  0  0  0  0  0
   11.7087  -18.4175   20.0515 C   0  0  0  0  0  0  0  0  0  0  0  0
   10.4052  -18.8002   20.2642 C   0  0  0  0  0  0  0  0  0  0  0  0
    9.7869  -18.8192   19.0670 N   0  0  0  0  0  0  0  0  0  0  0  0
   10.6578  -18.4615   18.1100 C   0  0  0  0  0  0  0  0  0  0  0  0
   11.8285  -18.2205   18.7385 N   0  0  0  0  0  0  0  0  0  0  0  0
   13.3663  -17.9649   23.3885 C   0  0  0  0  0  0  0  0  0  0  0  0
   13.5590  -16.8621   23.9601 O   0  0  0  0  0  0  0  0  0  0  0  0
   10.2644  -18.7897   29.5199 N   0  0  0  0  0  0  0  0  0  0  0  0
   11.3136  -17.8487   29.4771 C   0  0  0  0  0  0  0  0  0  0  0  0
   11.0575  -16.6130   29.7516 N   0  0  0  0  0  0  0  0  0  0  0  0
   12.6524  -18.1901   29.1463 N   0  0  0  0  0  0  0  0  0  0  0  0
   13.0317  -19.1572   28.1680 C   0  0  0  0  0  0  0  0  0  0  0  0
   13.2414  -18.5569   26.8079 C   0  0  0  0  0  0  0  0  0  0  0  0
   13.5714  -19.5873   25.8039 C   0  0  0  0  0  0  0  0  0  0  0  0
   14.8310  -19.2722   24.9743 C   0  0  2  0  0  0  0  0  0  0  0  0
   14.2808  -19.0093   23.6281 N   0  0  0  0  0  0  0  0  0  0  0  0
   15.6571  -20.4921   24.9606 C   0  0  0  0  0  0  0  0  0  0  0  0
   16.7634  -20.7390   25.7313 O   0  0  0  0  0  0  0  0  0  0  0  0
   15.3063  -21.4164   24.1438 O   0  0  0  0  0  0  0  0  0  0  0  0
  2  3  1  0
  2  1  1  6
  4  3  1  0
  5  4  2  0
  6  5  1  0
  7  6  1  0
  7 12  2  0
  8  9  2  0
  8  7  1  0
  9 10  1  0
 10 11  2  0
 12 11  1  0
 12  4  1  0
 13 14  2  0
 13  2  1  0
 15 13  1  0
 16 15  1  0
 16 17  1  6
 18 22  1  0
 18 17  1  0
 19 18  2  0
 20 19  1  0
 20 21  1  0
 21 22  2  0
 23 24  2  0
 23 16  1  0
 25 26  1  0
 26 27  2  0
 28 29  1  0
 28 26  1  0
 30 29  1  0
 31 30  1  0
 32 31  1  1
 32 33  1  0
 33 23  1  0
 34 32  1  0
 35 34  1  0
 36 34  2  0
M  END
$$$$
