WHR.pdb
     RDKit          3D

 36 38  0  0  1  0  0  0  0  0999 V2000
    6.8620  -17.1568   20.7465 N   0  0  0  0  0  0  0  0  0  0  0  0
    7.5265  -16.1478   21.5304 C   0  0  1  0  0  0  0  0  0  0  0  0
    6.5230  -15.3576   22.3128 C   0  0  0  0  0  0  0  0  0  0  0  0
    7.0737  -14.1696   22.9967 C   0  0  0  0  0  0  0  0  0  0  0  0
    7.8772  -13.1940   22.3980 C   0  0  0  0  0  0  0  0  0  0  0  0
    8.1557  -12.2706   23.3086 N   0  0  0  0  0  0  0  0  0  0  0  0
    7.5873  -12.5650   24.4916 C   0  0  0  0  0  0  0  0  0  0  0  0
    7.5683  -11.9580   25.7346 C   0  0  0  0  0  0  0  0  0  0  0  0
    6.8952  -12.4969   26.7978 C   0  0  0  0  0  0  0  0  0  0  0  0
    6.2149  -13.6829   26.6231 C   0  0  0  0  0  0  0  0  0  0  0  0
    6.2243  -14.3078   25.3739 C   0  0  0  0  0  0  0  0  0  0  0  0
    6.9003  -13.7639   24.3078 C   0  0  0  0  0  0  0  0  0  0  0  0
    8.4603  -16.8123   22.5102 C   0  0  0  0  0  0  0  0  0  0  0  0
    8.0633  -17.8021   23.1774 O   0  0  0  0  0  0  0  0  0  0  0  0
    9.7774  -16.3645   22.7125 N   0  0  0  0  0  0  0  0  0  0  0  0
   10.7354  -16.9973   23.5816 C   0  0  1  0  0  0  0  0  0  0  0  0
   12.1029  -16.3938   23.4397 C   0  0  0  0  0  0  0  0  0  0  0  0
   12.7815  -16.8011   22.1966 C   0  0  0  0  0  0  0  0  0  0  0  0
   12.3286  -17.7344   21.2941 C   0  0  0  0  0  0  0  0  0  0  0  0
   13.2362  -17.8128   20.3009 N   0  0  0  0  0  0  0  0  0  0  0  0
   14.2433  -16.9606   20.5494 C   0  0  0  0  0  0  0  0  0  0  0  0
   13.9415  -16.3524   21.7167 N   0  0  0  0  0  0  0  0  0  0  0  0
   10.3486  -16.8092   25.0302 C   0  0  0  0  0  0  0  0  0  0  0  0
   10.1388  -15.6574   25.4877 O   0  0  0  0  0  0  0  0  0  0  0  0
    4.8364  -22.3371   27.3652 N   0  0  0  0  0  0  0  0  0  0  0  0
    6.1032  -22.7521   26.9057 C   0  0  0  0  0  0  0  0  0  0  0  0
    6.2475  -23.9608   26.4747 N   0  0  0  0  0  0  0  0  0  0  0  0
    7.2419  -21.9026   26.8895 N   0  0  0  0  0  0  0  0  0  0  0  0
    7.2388  -20.5239   27.2573 C   0  0  0  0  0  0  0  0  0  0  0  0
    8.5913  -19.8848   27.1289 C   0  0  0  0  0  0  0  0  0  0  0  0
    8.5526  -18.4535   27.4873 C   0  0  0  0  0  0  0  0  0  0  0  0
    9.9066  -17.7337   27.3366 C   0  0  2  0  0  0  0  0  0  0  0  0
   10.2137  -17.9080   25.9015 N   0  0  0  0  0  0  0  0  0  0  0  0
   10.8818  -18.4679   28.1618 C   0  0  0  0  0  0  0  0  0  0  0  0
   10.9499  -18.4794   29.5306 O   0  0  0  0  0  0  0  0  0  0  0  0
   11.7566  -19.1660   27.5357 O   0  0  0  0  0  0  0  0  0  0  0  0
  2  3  1  0
  2  1  1  1
  4  3  1  0
  5  4  2  0
  6  5  1  0
  7  6  1  0
  7 12  2  0
  8  9  2  0
  8  7  1  0
  9 10  1  0
 10 11  2  0
 12 11  1  0
 12  4  1  0
 13 14  2  0
 13  2  1  0
 15 13  1  0
 16 15  1  0
 16 17  1  1
 18 22  1  0
 18 17  1  0
 19 18  2  0
 20 19  1  0
 20 21  1  0
 21 22  2  0
 23 24  2  0
 23 16  1  0
 25 26  1  0
 26 27  2  0
 28 29  1  0
 28 26  1  0
 30 29  1  0
 31 30  1  0
 32 31  1  6
 32 33  1  0
 33 23  1  0
 34 32  1  0
 35 34  1  0
 36 34  2  0
M  END
$$$$
