WHR.pdb
     RDKit          3D

 36 38  0  0  1  0  0  0  0  0999 V2000
    6.1552  -17.5814   23.1980 N   0  0  0  0  0  0  0  0  0  0  0  0
    7.0117  -16.4235   23.1939 C   0  0  1  0  0  0  0  0  0  0  0  0
    7.5781  -16.1953   24.5617 C   0  0  0  0  0  0  0  0  0  0  0  0
    6.7861  -15.2819   25.4107 C   0  0  0  0  0  0  0  0  0  0  0  0
    5.5993  -15.6184   26.0695 C   0  0  0  0  0  0  0  0  0  0  0  0
    5.1910  -14.5585   26.7547 N   0  0  0  0  0  0  0  0  0  0  0  0
    6.0333  -13.5218   26.5974 C   0  0  0  0  0  0  0  0  0  0  0  0
    6.0693  -12.2227   27.0718 C   0  0  0  0  0  0  0  0  0  0  0  0
    7.0705  -11.3520   26.7349 C   0  0  0  0  0  0  0  0  0  0  0  0
    8.0746  -11.7848   25.8957 C   0  0  0  0  0  0  0  0  0  0  0  0
    8.0525  -13.0939   25.4086 C   0  0  0  0  0  0  0  0  0  0  0  0
    7.0464  -13.9662   25.7493 C   0  0  0  0  0  0  0  0  0  0  0  0
    8.1624  -16.6578   22.2480 C   0  0  0  0  0  0  0  0  0  0  0  0
    8.5543  -17.8314   22.0209 O   0  0  0  0  0  0  0  0  0  0  0  0
    8.8262  -15.6023   21.5988 N   0  0  0  0  0  0  0  0  0  0  0  0
    9.9368  -15.7623   20.6963 C   0  0  1  0  0  0  0  0  0  0  0  0
   10.1747  -14.5260   19.8781 C   0  0  0  0  0  0  0  0  0  0  0  0
    9.1355  -14.3080   18.8561 C   0  0  0  0  0  0  0  0  0  0  0  0
    8.3542  -13.1846   18.7211 C   0  0  0  0  0  0  0  0  0  0  0  0
    7.5349  -13.3836   17.6697 N   0  0  0  0  0  0  0  0  0  0  0  0
    7.7753  -14.5937   17.1403 C   0  0  0  0  0  0  0  0  0  0  0  0
    8.7603  -15.1405   17.8849 N   0  0  0  0  0  0  0  0  0  0  0  0
   11.2169  -16.0042   21.4620 C   0  0  0  0  0  0  0  0  0  0  0  0
   11.7713  -15.0646   22.0863 O   0  0  0  0  0  0  0  0  0  0  0  0
   14.8174  -16.3618   14.8070 N   0  0  0  0  0  0  0  0  0  0  0  0
   13.4963  -16.7887   15.0536 C   0  0  0  0  0  0  0  0  0  0  0  0
   12.6553  -16.8189   14.0741 N   0  0  0  0  0  0  0  0  0  0  0  0
   13.0356  -17.1936   16.3351 N   0  0  0  0  0  0  0  0  0  0  0  0
   13.8565  -17.3266   17.4947 C   0  0  0  0  0  0  0  0  0  0  0  0
   13.0690  -17.6556   18.7299 C   0  0  0  0  0  0  0  0  0  0  0  0
   13.4601  -16.8006   19.8677 C   0  0  0  0  0  0  0  0  0  0  0  0
   13.2645  -17.4634   21.2450 C   0  0  2  0  0  0  0  0  0  0  0  0
   11.8205  -17.2766   21.4976 N   0  0  0  0  0  0  0  0  0  0  0  0
   14.0584  -16.6890   22.2150 C   0  0  0  0  0  0  0  0  0  0  0  0
   15.4241  -16.6781   22.3303 O   0  0  0  0  0  0  0  0  0  0  0  0
   13.4053  -15.9512   23.0358 O   0  0  0  0  0  0  0  0  0  0  0  0
  2  3  1  0
  2  1  1  1
  4  3  1  0
  5  4  2  0
  6  5  1  0
  7  6  1  0
  7 12  2  0
  8  9  2  0
  8  7  1  0
  9 10  1  0
 10 11  2  0
 12 11  1  0
 12  4  1  0
 13 14  2  0
 13  2  1  0
 15 13  1  0
 16 15  1  0
 16 17  1  1
 18 22  1  0
 18 17  1  0
 19 18  2  0
 20 19  1  0
 20 21  1  0
 21 22  2  0
 23 24  2  0
 23 16  1  0
 25 26  1  0
 26 27  2  0
 28 29  1  0
 28 26  1  0
 30 29  1  0
 31 30  1  0
 32 31  1  6
 32 33  1  0
 33 23  1  0
 34 32  1  0
 35 34  1  0
 36 34  2  0
M  END
$$$$
