WHR.pdb
     RDKit          3D

 36 38  0  0  1  0  0  0  0  0999 V2000
    6.1894  -17.6557   23.5830 N   0  0  0  0  0  0  0  0  0  0  0  0
    6.9882  -16.4682   23.4216 C   0  0  1  0  0  0  0  0  0  0  0  0
    7.6603  -16.1183   24.7136 C   0  0  0  0  0  0  0  0  0  0  0  0
    6.9043  -15.1768   25.5648 C   0  0  0  0  0  0  0  0  0  0  0  0
    5.7088  -15.4706   26.2284 C   0  0  0  0  0  0  0  0  0  0  0  0
    5.3409  -14.3964   26.9142 N   0  0  0  0  0  0  0  0  0  0  0  0
    6.2187  -13.3903   26.7529 C   0  0  0  0  0  0  0  0  0  0  0  0
    6.3024  -12.0929   27.2259 C   0  0  0  0  0  0  0  0  0  0  0  0
    7.3326  -11.2585   26.8846 C   0  0  0  0  0  0  0  0  0  0  0  0
    8.3176  -11.7271   26.0419 C   0  0  0  0  0  0  0  0  0  0  0  0
    8.2473  -13.0349   25.5561 C   0  0  0  0  0  0  0  0  0  0  0  0
    7.2122  -13.8708   25.9013 C   0  0  0  0  0  0  0  0  0  0  0  0
    8.0617  -16.7252   22.3944 C   0  0  0  0  0  0  0  0  0  0  0  0
    8.4714  -17.8987   22.2003 O   0  0  0  0  0  0  0  0  0  0  0  0
    8.6332  -15.6914   21.6322 N   0  0  0  0  0  0  0  0  0  0  0  0
    9.6678  -15.8729   20.6473 C   0  0  1  0  0  0  0  0  0  0  0  0
   10.0041  -14.5882   19.9467 C   0  0  0  0  0  0  0  0  0  0  0  0
    8.9313  -14.1302   19.0461 C   0  0  0  0  0  0  0  0  0  0  0  0
    8.6486  -14.6357   17.7990 C   0  0  0  0  0  0  0  0  0  0  0  0
    7.5995  -13.9459   17.3094 N   0  0  0  0  0  0  0  0  0  0  0  0
    7.2141  -13.0247   18.2066 C   0  0  0  0  0  0  0  0  0  0  0  0
    8.0456  -13.1575   19.2623 N   0  0  0  0  0  0  0  0  0  0  0  0
   10.9500  -16.3368   21.2986 C   0  0  0  0  0  0  0  0  0  0  0  0
   11.3606  -15.7910   22.3539 O   0  0  0  0  0  0  0  0  0  0  0  0
   11.9218  -22.4295   24.9862 N   0  0  0  0  0  0  0  0  0  0  0  0
   13.2518  -22.0345   24.7348 C   0  0  0  0  0  0  0  0  0  0  0  0
   13.9427  -21.5159   25.6947 N   0  0  0  0  0  0  0  0  0  0  0  0
   13.8806  -22.1791   23.4691 N   0  0  0  0  0  0  0  0  0  0  0  0
   13.3805  -21.6491   22.2422 C   0  0  0  0  0  0  0  0  0  0  0  0
   13.7657  -20.2137   22.0290 C   0  0  0  0  0  0  0  0  0  0  0  0
   12.6358  -19.4191   21.5090 C   0  0  0  0  0  0  0  0  0  0  0  0
   12.9216  -17.9074   21.4214 C   0  0  2  0  0  0  0  0  0  0  0  0
   11.7153  -17.3834   20.7475 N   0  0  0  0  0  0  0  0  0  0  0  0
   14.1040  -17.7394   20.5585 C   0  0  0  0  0  0  0  0  0  0  0  0
   15.4077  -17.9883   20.9005 O   0  0  0  0  0  0  0  0  0  0  0  0
   13.8921  -17.3159   19.3667 O   0  0  0  0  0  0  0  0  0  0  0  0
  2  3  1  0
  2  1  1  1
  4  3  1  0
  5  4  2  0
  6  5  1  0
  7  6  1  0
  7 12  2  0
  8  9  2  0
  8  7  1  0
  9 10  1  0
 10 11  2  0
 12 11  1  0
 12  4  1  0
 13 14  2  0
 13  2  1  0
 15 13  1  0
 16 15  1  0
 16 17  1  1
 18 22  1  0
 18 17  1  0
 19 18  2  0
 20 19  1  0
 20 21  1  0
 21 22  2  0
 23 24  2  0
 23 16  1  0
 25 26  1  0
 26 27  2  0
 28 29  1  0
 28 26  1  0
 30 29  1  0
 31 30  1  0
 32 31  1  6
 32 33  1  0
 33 23  1  0
 34 32  1  0
 35 34  1  0
 36 34  2  0
M  END
$$$$
