WHR.pdb
     RDKit          3D

 36 38  0  0  1  0  0  0  0  0999 V2000
    5.9533  -17.2306   23.4262 N   0  0  0  0  0  0  0  0  0  0  0  0
    6.7672  -16.0476   23.3138 C   0  0  1  0  0  0  0  0  0  0  0  0
    7.3505  -15.6936   24.6472 C   0  0  0  0  0  0  0  0  0  0  0  0
    6.5479  -14.7355   25.4347 C   0  0  0  0  0  0  0  0  0  0  0  0
    5.4035  -15.0560   26.1720 C   0  0  0  0  0  0  0  0  0  0  0  0
    4.9709  -13.9519   26.7664 N   0  0  0  0  0  0  0  0  0  0  0  0
    5.7565  -12.9002   26.4735 C   0  0  0  0  0  0  0  0  0  0  0  0
    5.7482  -11.5600   26.8164 C   0  0  0  0  0  0  0  0  0  0  0  0
    6.6938  -10.6844   26.3546 C   0  0  0  0  0  0  0  0  0  0  0  0
    7.6857  -11.1545   25.5209 C   0  0  0  0  0  0  0  0  0  0  0  0
    7.7079  -12.5053   25.1658 C   0  0  0  0  0  0  0  0  0  0  0  0
    6.7576  -13.3824   25.6317 C   0  0  0  0  0  0  0  0  0  0  0  0
    7.9076  -16.3153   22.3643 C   0  0  0  0  0  0  0  0  0  0  0  0
    8.4700  -17.4406   22.3663 O   0  0  0  0  0  0  0  0  0  0  0  0
    8.3760  -15.3441   21.4623 N   0  0  0  0  0  0  0  0  0  0  0  0
    9.5201  -15.5056   20.6030 C   0  0  1  0  0  0  0  0  0  0  0  0
    9.7353  -14.3050   19.7274 C   0  0  0  0  0  0  0  0  0  0  0  0
    8.7781  -14.2339   18.6091 C   0  0  0  0  0  0  0  0  0  0  0  0
    7.9017  -13.2050   18.3563 C   0  0  0  0  0  0  0  0  0  0  0  0
    7.2076  -13.5261   17.2466 N   0  0  0  0  0  0  0  0  0  0  0  0
    7.6184  -14.7215   16.7945 C   0  0  0  0  0  0  0  0  0  0  0  0
    8.5812  -15.1348   17.6464 N   0  0  0  0  0  0  0  0  0  0  0  0
   10.7837  -15.6548   21.4182 C   0  0  0  0  0  0  0  0  0  0  0  0
   11.0706  -14.8125   22.3060 O   0  0  0  0  0  0  0  0  0  0  0  0
   14.4119  -19.5733   26.6009 N   0  0  0  0  0  0  0  0  0  0  0  0
   13.0805  -19.7539   27.0287 C   0  0  0  0  0  0  0  0  0  0  0  0
   12.8386  -19.8629   28.2925 N   0  0  0  0  0  0  0  0  0  0  0  0
   11.9782  -19.8216   26.1349 N   0  0  0  0  0  0  0  0  0  0  0  0
   12.0758  -19.7828   24.7118 C   0  0  0  0  0  0  0  0  0  0  0  0
   12.4617  -18.4281   24.1922 C   0  0  0  0  0  0  0  0  0  0  0  0
   12.4255  -18.3809   22.7175 C   0  0  0  0  0  0  0  0  0  0  0  0
   12.7939  -17.0066   22.1259 C   0  0  2  0  0  0  0  0  0  0  0  0
   11.6684  -16.7310   21.2088 N   0  0  0  0  0  0  0  0  0  0  0  0
   14.0431  -17.1834   21.3649 C   0  0  0  0  0  0  0  0  0  0  0  0
   15.3196  -17.0680   21.8507 O   0  0  0  0  0  0  0  0  0  0  0  0
   13.9241  -17.4733   20.1214 O   0  0  0  0  0  0  0  0  0  0  0  0
  2  3  1  0
  2  1  1  1
  4  3  1  0
  5  4  2  0
  6  5  1  0
  7  6  1  0
  7 12  2  0
  8  9  2  0
  8  7  1  0
  9 10  1  0
 10 11  2  0
 12 11  1  0
 12  4  1  0
 13 14  2  0
 13  2  1  0
 15 13  1  0
 16 15  1  0
 16 17  1  6
 18 22  1  0
 18 17  1  0
 19 18  2  0
 20 19  1  0
 20 21  1  0
 21 22  2  0
 23 24  2  0
 23 16  1  0
 25 26  1  0
 26 27  2  0
 28 29  1  0
 28 26  1  0
 30 29  1  0
 31 30  1  0
 32 31  1  6
 32 33  1  0
 33 23  1  0
 34 32  1  0
 35 34  1  0
 36 34  2  0
M  END
$$$$
