GQE.pdb
     RDKit          3D

 23 22  0  0  1  0  0  0  0  0999 V2000
   14.5462   -6.9430   -6.6017 N   0  0  0  0  0  0  0  0  0  0  0  0
   14.3772   -6.8294   -8.0160 C   0  0  0  0  0  0  0  0  0  0  0  0
   15.4024   -7.6385   -8.7641 C   0  0  0  0  0  0  0  0  0  0  0  0
   16.5469   -7.7836   -8.2768 O   0  0  0  0  0  0  0  0  0  0  0  0
   16.1866  -13.6637  -11.8303 N   0  0  0  0  0  0  0  0  0  0  0  0
   15.7915  -12.4351  -12.4014 C   0  0  0  0  0  0  0  0  0  0  0  0
   14.8764  -12.4205  -13.2437 O   0  0  0  0  0  0  0  0  0  0  0  0
   16.4512  -11.1794  -12.0088 C   0  0  0  0  0  0  0  0  0  0  0  0
   15.4996  -10.3374  -11.2322 C   0  0  0  0  0  0  0  0  0  0  0  0
   16.1032   -9.0671  -10.7003 C   0  0  2  0  0  0  0  0  0  0  0  0
   15.1199   -8.2454  -10.0058 N   0  0  0  0  0  0  0  0  0  0  0  0
   16.7115   -8.2436  -11.7774 C   0  0  0  0  0  0  0  0  0  0  0  0
   16.0061   -7.4312  -12.4663 O   0  0  0  0  0  0  0  0  0  0  0  0
   18.0853   -8.2998  -12.1090 N   0  0  0  0  0  0  0  0  0  0  0  0
   18.6781   -7.3679  -13.0901 C   0  0  1  0  0  0  0  0  0  0  0  0
   20.0205   -6.8936  -12.6008 C   0  0  0  0  0  0  0  0  0  0  0  0
   20.6897   -5.8793  -13.4538 C   0  0  0  0  0  0  0  0  0  0  0  0
   22.0280   -5.4655  -13.0246 C   0  0  0  0  0  0  0  0  0  0  0  0
   22.5624   -5.8758  -11.9654 O   0  0  0  0  0  0  0  0  0  0  0  0
   18.8814   -8.1168  -14.3508 C   0  0  0  0  0  0  0  0  0  0  0  0
   19.0069   -9.3598  -14.3652 O   0  0  0  0  0  0  0  0  0  0  0  0
   22.7992   -4.5772  -13.7799 O   0  0  0  0  0  0  0  0  0  0  0  0
   18.9382   -7.4507  -15.5609 O   0  0  0  0  0  0  0  0  0  0  0  0
  2  1  1  0
  3  4  2  0
  3  2  1  0
  6  7  2  0
  6  5  1  0
  8  6  1  0
 10  9  1  6
  9  8  1  0
 10 11  1  0
 11  3  1  0
 12 10  1  0
 13 12  2  0
 14 12  1  0
 15 14  1  0
 15 16  1  1
 17 16  1  0
 18 19  2  0
 18 17  1  0
 20 23  1  0
 20 15  1  0
 21 20  2  0
 22 18  1  0
M  END
$$$$
