GQE.pdb
     RDKit          3D

 23 22  0  0  1  0  0  0  0  0999 V2000
   27.5783  -13.0426  -16.3288 N   0  0  0  0  0  0  0  0  0  0  0  0
   26.4972  -12.8603  -15.4126 C   0  0  0  0  0  0  0  0  0  0  0  0
   25.3778  -12.0632  -16.0267 C   0  0  0  0  0  0  0  0  0  0  0  0
   25.5999  -11.3795  -17.0522 O   0  0  0  0  0  0  0  0  0  0  0  0
   21.0065  -12.9544  -18.6091 N   0  0  0  0  0  0  0  0  0  0  0  0
   20.2382  -11.9068  -18.0574 C   0  0  0  0  0  0  0  0  0  0  0  0
   19.2828  -11.4447  -18.7059 O   0  0  0  0  0  0  0  0  0  0  0  0
   20.5587  -11.3618  -16.7285 C   0  0  0  0  0  0  0  0  0  0  0  0
   21.7127  -12.1040  -16.1498 C   0  0  0  0  0  0  0  0  0  0  0  0
   22.9888  -11.3099  -16.1064 C   0  0  2  0  0  0  0  0  0  0  0  0
   24.0751  -12.0573  -15.4854 N   0  0  0  0  0  0  0  0  0  0  0  0
   22.8273  -10.0324  -15.3647 C   0  0  0  0  0  0  0  0  0  0  0  0
   22.8141  -10.0071  -14.0874 O   0  0  0  0  0  0  0  0  0  0  0  0
   22.6800   -8.7808  -16.0067 N   0  0  0  0  0  0  0  0  0  0  0  0
   22.5007   -7.5358  -15.2319 C   0  0  1  0  0  0  0  0  0  0  0  0
   22.5994   -6.3440  -16.1462 C   0  0  0  0  0  0  0  0  0  0  0  0
   22.3822   -5.0243  -15.5017 C   0  0  0  0  0  0  0  0  0  0  0  0
   22.4447   -3.8608  -16.3900 C   0  0  0  0  0  0  0  0  0  0  0  0
   22.7019   -3.9508  -17.6153 O   0  0  0  0  0  0  0  0  0  0  0  0
   21.1395   -7.5638  -14.6506 C   0  0  0  0  0  0  0  0  0  0  0  0
   20.1852   -8.1192  -15.2354 O   0  0  0  0  0  0  0  0  0  0  0  0
   22.2184   -2.5644  -15.9186 O   0  0  0  0  0  0  0  0  0  0  0  0
   20.8860   -6.9680  -13.4291 O   0  0  0  0  0  0  0  0  0  0  0  0
  2  1  1  0
  3  4  2  0
  3  2  1  0
  6  7  2  0
  6  5  1  0
  8  6  1  0
 10  9  1  1
  9  8  1  0
 10 11  1  0
 11  3  1  0
 12 10  1  0
 13 12  2  0
 14 12  1  0
 15 14  1  0
 15 16  1  6
 17 16  1  0
 18 19  2  0
 18 17  1  0
 20 23  1  0
 20 15  1  0
 21 20  2  0
 22 18  1  0
M  END
$$$$
