GQE.pdb
     RDKit          3D

 23 22  0  0  1  0  0  0  0  0999 V2000
   12.4587   -9.8707   -8.2173 N   0  0  0  0  0  0  0  0  0  0  0  0
   12.6598   -8.8555   -9.2024 C   0  0  0  0  0  0  0  0  0  0  0  0
   13.9752   -9.0257   -9.9141 C   0  0  0  0  0  0  0  0  0  0  0  0
   14.9339   -9.5641   -9.3147 O   0  0  0  0  0  0  0  0  0  0  0  0
   13.2909  -11.2606  -13.6384 N   0  0  0  0  0  0  0  0  0  0  0  0
   14.6180  -11.7399  -13.6068 C   0  0  0  0  0  0  0  0  0  0  0  0
   14.8297  -12.9578  -13.7438 O   0  0  0  0  0  0  0  0  0  0  0  0
   15.7452  -10.8135  -13.4139 C   0  0  0  0  0  0  0  0  0  0  0  0
   15.2319   -9.4204  -13.2983 C   0  0  0  0  0  0  0  0  0  0  0  0
   15.4336   -8.8068  -11.9404 C   0  0  2  0  0  0  0  0  0  0  0  0
   14.1705   -8.5973  -11.2438 N   0  0  0  0  0  0  0  0  0  0  0  0
   16.1385   -7.5009  -12.0162 C   0  0  0  0  0  0  0  0  0  0  0  0
   15.4913   -6.3994  -12.0114 O   0  0  0  0  0  0  0  0  0  0  0  0
   17.5460   -7.3873  -12.0972 N   0  0  0  0  0  0  0  0  0  0  0  0
   18.2058   -6.0704  -12.2096 C   0  0  1  0  0  0  0  0  0  0  0  0
   19.7012   -6.2438  -12.2051 C   0  0  0  0  0  0  0  0  0  0  0  0
   20.4865   -5.0298  -12.5422 C   0  0  0  0  0  0  0  0  0  0  0  0
   21.9425   -5.1643  -12.4511 C   0  0  0  0  0  0  0  0  0  0  0  0
   22.5433   -5.3598  -11.3664 O   0  0  0  0  0  0  0  0  0  0  0  0
   17.8104   -5.4823  -13.5094 C   0  0  0  0  0  0  0  0  0  0  0  0
   17.6362   -6.1882  -14.5255 O   0  0  0  0  0  0  0  0  0  0  0  0
   22.7596   -5.0819  -13.5824 O   0  0  0  0  0  0  0  0  0  0  0  0
   17.6210   -4.1186  -13.6337 O   0  0  0  0  0  0  0  0  0  0  0  0
  2  1  1  0
  3  4  2  0
  3  2  1  0
  6  7  2  0
  6  5  1  0
  8  6  1  0
 10  9  1  6
  9  8  1  0
 10 11  1  0
 11  3  1  0
 12 10  1  0
 13 12  2  0
 14 12  1  0
 15 14  1  0
 15 16  1  6
 17 16  1  0
 18 19  2  0
 18 17  1  0
 20 23  1  0
 20 15  1  0
 21 20  2  0
 22 18  1  0
M  END
$$$$
