GQE.pdb
     RDKit          3D

 23 22  0  0  1  0  0  0  0  0999 V2000
   28.5330  -21.6810  -17.2418 N   0  0  0  0  0  0  0  0  0  0  0  0
   28.2925  -20.5510  -16.4011 C   0  0  0  0  0  0  0  0  0  0  0  0
   27.0554  -20.7355  -15.5638 C   0  0  0  0  0  0  0  0  0  0  0  0
   26.2829  -21.6901  -15.8094 O   0  0  0  0  0  0  0  0  0  0  0  0
   24.9381  -21.7346  -11.0665 N   0  0  0  0  0  0  0  0  0  0  0  0
   26.2735  -21.3202  -10.8747 C   0  0  0  0  0  0  0  0  0  0  0  0
   27.0286  -22.0065  -10.1636 O   0  0  0  0  0  0  0  0  0  0  0  0
   26.7745  -20.0892  -11.5067 C   0  0  0  0  0  0  0  0  0  0  0  0
   25.6900  -19.4664  -12.3153 C   0  0  0  0  0  0  0  0  0  0  0  0
   25.5365  -20.0586  -13.6889 C   0  0  2  0  0  0  0  0  0  0  0  0
   26.7303  -19.8651  -14.5024 N   0  0  0  0  0  0  0  0  0  0  0  0
   24.3818  -19.4779  -14.4221 C   0  0  0  0  0  0  0  0  0  0  0  0
   24.3525  -18.2393  -14.7342 O   0  0  0  0  0  0  0  0  0  0  0  0
   23.2573  -20.2390  -14.8179 N   0  0  0  0  0  0  0  0  0  0  0  0
   22.1190  -19.6179  -15.5256 C   0  0  1  0  0  0  0  0  0  0  0  0
   21.7353  -20.4567  -16.7154 C   0  0  0  0  0  0  0  0  0  0  0  0
   20.5647  -19.9713  -17.4888 C   0  0  0  0  0  0  0  0  0  0  0  0
   20.1879  -20.7781  -18.6522 C   0  0  0  0  0  0  0  0  0  0  0  0
   19.2647  -20.4529  -19.4382 O   0  0  0  0  0  0  0  0  0  0  0  0
   20.9730  -19.5889  -14.5889 C   0  0  0  0  0  0  0  0  0  0  0  0
   20.0666  -18.7342  -14.6838 O   0  0  0  0  0  0  0  0  0  0  0  0
   20.8434  -21.9739  -18.9597 O   0  0  0  0  0  0  0  0  0  0  0  0
   20.8753  -20.5194  -13.5712 O   0  0  0  0  0  0  0  0  0  0  0  0
  2  1  1  0
  3  4  2  0
  3  2  1  0
  6  7  2  0
  6  5  1  0
  8  6  1  0
 10  9  1  1
  9  8  1  0
 10 11  1  0
 11  3  1  0
 12 10  1  0
 13 12  2  0
 14 12  1  0
 15 14  1  0
 15 16  1  6
 17 16  1  0
 18 19  2  0
 18 17  1  0
 20 23  1  0
 20 15  1  0
 21 20  2  0
 22 18  1  0
M  END
$$$$
