GQE.pdb
     RDKit          3D

 23 22  0  0  1  0  0  0  0  0999 V2000
   12.4730  -12.8239  -13.7486 N   0  0  0  0  0  0  0  0  0  0  0  0
   13.0146  -12.0469  -14.8184 C   0  0  0  0  0  0  0  0  0  0  0  0
   14.4868  -11.7952  -14.6314 C   0  0  0  0  0  0  0  0  0  0  0  0
   15.1749  -12.6196  -13.9869 O   0  0  0  0  0  0  0  0  0  0  0  0
   20.7158  -12.5993  -16.7791 N   0  0  0  0  0  0  0  0  0  0  0  0
   19.4309  -12.6873  -16.2018 C   0  0  0  0  0  0  0  0  0  0  0  0
   18.8327  -13.7777  -16.2092 O   0  0  0  0  0  0  0  0  0  0  0  0
   18.7990  -11.5046  -15.5954 C   0  0  0  0  0  0  0  0  0  0  0  0
   17.3176  -11.6371  -15.6696 C   0  0  0  0  0  0  0  0  0  0  0  0
   16.5707  -10.4756  -15.0745 C   0  0  2  0  0  0  0  0  0  0  0  0
   15.1268  -10.6547  -15.1599 N   0  0  0  0  0  0  0  0  0  0  0  0
   16.9144   -9.1911  -15.7379 C   0  0  0  0  0  0  0  0  0  0  0  0
   16.5215   -8.9353  -16.9264 O   0  0  0  0  0  0  0  0  0  0  0  0
   17.6845   -8.1822  -15.1138 N   0  0  0  0  0  0  0  0  0  0  0  0
   17.9937   -6.9134  -15.8043 C   0  0  1  0  0  0  0  0  0  0  0  0
   17.2671   -5.7761  -15.1374 C   0  0  0  0  0  0  0  0  0  0  0  0
   17.5267   -4.4300  -15.7072 C   0  0  0  0  0  0  0  0  0  0  0  0
   16.8081   -3.3195  -15.0771 C   0  0  0  0  0  0  0  0  0  0  0  0
   16.0461   -3.4715  -14.0913 O   0  0  0  0  0  0  0  0  0  0  0  0
   19.4490   -6.6760  -15.6717 C   0  0  0  0  0  0  0  0  0  0  0  0
   20.1358   -7.2631  -14.8087 O   0  0  0  0  0  0  0  0  0  0  0  0
   16.9306   -2.0073  -15.5433 O   0  0  0  0  0  0  0  0  0  0  0  0
   20.0940   -5.7866  -16.5108 O   0  0  0  0  0  0  0  0  0  0  0  0
  2  1  1  0
  3  4  2  0
  3  2  1  0
  6  7  2  0
  6  5  1  0
  8  6  1  0
 10  9  1  6
  9  8  1  0
 10 11  1  0
 11  3  1  0
 12 10  1  0
 13 12  2  0
 14 12  1  0
 15 14  1  0
 15 16  1  1
 17 16  1  0
 18 19  2  0
 18 17  1  0
 20 23  1  0
 20 15  1  0
 21 20  2  0
 22 18  1  0
M  END
$$$$
