DNL.pdb
     RDKit          3D

 25 24  0  0  1  0  0  0  0  0999 V2000
    9.8038  -14.4939   19.0829 N   0  0  0  0  0  0  0  0  0  0  0  0
    8.7493  -13.6457   19.5384 C   0  0  1  0  0  0  0  0  0  0  0  0
    7.8090  -13.1833   18.4500 C   0  0  0  0  0  0  0  0  0  0  0  0
    7.8595  -14.0882   17.3073 C   0  0  0  0  0  0  0  0  0  0  0  0
    7.9275  -15.3398   17.3900 O   0  0  0  0  0  0  0  0  0  0  0  0
    8.0289  -14.2690   20.6645 C   0  0  0  0  0  0  0  0  0  0  0  0
    7.1869  -13.5475   21.3145 O   0  0  0  0  0  0  0  0  0  0  0  0
    7.8357  -13.5718   15.9925 O   0  0  0  0  0  0  0  0  0  0  0  0
    5.9288  -17.3654   23.9536 N   0  0  0  0  0  0  0  0  0  0  0  0
    7.1484  -18.0354   23.6317 C   0  0  0  0  0  0  0  0  0  0  0  0
    7.5719  -18.9906   24.3265 O   0  0  0  0  0  0  0  0  0  0  0  0
    7.8656  -17.5411   22.4483 C   0  0  0  0  0  0  0  0  0  0  0  0
    7.7924  -16.0339   22.3356 C   0  0  2  0  0  0  0  0  0  0  0  0
    8.2654  -15.6216   21.0118 N   0  0  0  0  0  0  0  0  0  0  0  0
    8.5571  -15.4012   23.4249 C   0  0  0  0  0  0  0  0  0  0  0  0
    9.2774  -14.3972   23.2110 O   0  0  0  0  0  0  0  0  0  0  0  0
    6.0461  -12.2052   26.8841 C   0  0  0  0  0  0  0  0  0  0  0  0
    7.4191  -12.8881   26.7855 C   0  0  2  0  0  0  0  0  0  0  0  0
    8.4453  -11.8386   26.5175 C   0  0  0  0  0  0  0  0  0  0  0  0
    7.4165  -13.9064   25.6853 C   0  0  0  0  0  0  0  0  0  0  0  0
    8.5354  -14.8994   25.8947 C   0  0  2  0  0  0  0  0  0  0  0  0
    8.5333  -15.8593   24.7668 N   0  0  0  0  0  0  0  0  0  0  0  0
    8.5154  -15.5765   27.1584 C   0  0  0  0  0  0  0  0  0  0  0  0
    9.1825  -15.0784   28.1406 O   0  0  0  0  0  0  0  0  0  0  0  0
    7.8268  -16.7578   27.4593 O   0  0  0  0  0  0  0  0  0  0  0  0
  2  1  1  6
  2  3  1  0
  3  4  1  0
  4  5  2  0
  6  2  1  0
  7  6  2  0
  8  4  1  0
  9 10  1  0
 10 12  1  0
 11 10  2  0
 13 12  1  6
 13 15  1  0
 13 14  1  0
 14  6  1  0
 15 16  2  0
 18 17  1  6
 18 19  1  0
 21 20  1  6
 20 18  1  0
 22 21  1  0
 22 15  1  0
 23 21  1  0
 24 23  2  0
 25 23  1  0
M  END
$$$$
