DNL.pdb
     RDKit          3D

 25 24  0  0  1  0  0  0  0  0999 V2000
   10.5272  -18.5920   21.8038 N   0  0  0  0  0  0  0  0  0  0  0  0
    9.9925  -17.4171   21.1934 C   0  0  1  0  0  0  0  0  0  0  0  0
    9.6416  -17.5798   19.7329 C   0  0  0  0  0  0  0  0  0  0  0  0
   10.8313  -17.8935   18.9495 C   0  0  0  0  0  0  0  0  0  0  0  0
   11.9728  -17.4140   19.1616 O   0  0  0  0  0  0  0  0  0  0  0  0
    8.8609  -16.8905   21.9793 C   0  0  0  0  0  0  0  0  0  0  0  0
    8.2771  -15.8263   21.5567 O   0  0  0  0  0  0  0  0  0  0  0  0
   10.7477  -18.7924   17.8628 O   0  0  0  0  0  0  0  0  0  0  0  0
    6.8669  -20.3393   24.1430 N   0  0  0  0  0  0  0  0  0  0  0  0
    6.2042  -19.1072   23.8555 C   0  0  0  0  0  0  0  0  0  0  0  0
    5.3440  -19.0251   22.9457 O   0  0  0  0  0  0  0  0  0  0  0  0
    6.5888  -17.9566   24.6846 C   0  0  0  0  0  0  0  0  0  0  0  0
    7.3320  -16.9100   23.8834 C   0  0  2  0  0  0  0  0  0  0  0  0
    8.4385  -17.5442   23.1627 N   0  0  0  0  0  0  0  0  0  0  0  0
    7.7895  -15.8203   24.7639 C   0  0  0  0  0  0  0  0  0  0  0  0
    7.5882  -14.6193   24.4645 O   0  0  0  0  0  0  0  0  0  0  0  0
    7.8289  -12.1340   25.9132 C   0  0  0  0  0  0  0  0  0  0  0  0
    7.0389  -13.4106   26.2407 C   0  0  2  0  0  0  0  0  0  0  0  0
    5.6586  -13.0153   26.6467 C   0  0  0  0  0  0  0  0  0  0  0  0
    7.7096  -14.1688   27.3465 C   0  0  0  0  0  0  0  0  0  0  0  0
    8.9232  -14.8952   26.8158 C   0  0  2  0  0  0  0  0  0  0  0  0
    8.4676  -16.0373   25.9903 N   0  0  0  0  0  0  0  0  0  0  0  0
    9.8633  -15.3131   27.8145 C   0  0  0  0  0  0  0  0  0  0  0  0
   10.3580  -14.4299   28.6103 O   0  0  0  0  0  0  0  0  0  0  0  0
   10.3196  -16.6183   28.0342 O   0  0  0  0  0  0  0  0  0  0  0  0
  2  1  1  1
  2  3  1  0
  3  4  1  0
  4  5  2  0
  6  2  1  0
  7  6  2  0
  8  4  1  0
  9 10  1  0
 10 12  1  0
 11 10  2  0
 13 12  1  1
 13 15  1  0
 13 14  1  0
 14  6  1  0
 15 16  2  0
 18 17  1  1
 18 19  1  0
 21 20  1  1
 20 18  1  0
 22 21  1  0
 22 15  1  0
 23 21  1  0
 24 23  2  0
 25 23  1  0
M  END
$$$$
