DNL.pdb
     RDKit          3D

 25 24  0  0  1  0  0  0  0  0999 V2000
   10.7660  -16.5800   19.3795 N   0  0  0  0  0  0  0  0  0  0  0  0
   10.2773  -17.5447   20.3120 C   0  0  1  0  0  0  0  0  0  0  0  0
   11.2947  -18.5830   20.7233 C   0  0  0  0  0  0  0  0  0  0  0  0
   12.6448  -18.0350   20.6578 C   0  0  0  0  0  0  0  0  0  0  0  0
   12.9258  -16.8725   20.2735 O   0  0  0  0  0  0  0  0  0  0  0  0
    9.6633  -16.8794   21.4764 C   0  0  0  0  0  0  0  0  0  0  0  0
   10.3151  -15.9244   22.0378 O   0  0  0  0  0  0  0  0  0  0  0  0
   13.7506  -18.8270   21.0399 O   0  0  0  0  0  0  0  0  0  0  0  0
   10.3545  -19.9848   25.5042 N   0  0  0  0  0  0  0  0  0  0  0  0
    9.2657  -19.1670   25.0734 C   0  0  0  0  0  0  0  0  0  0  0  0
    8.3781  -18.7860   25.8744 O   0  0  0  0  0  0  0  0  0  0  0  0
    9.2529  -18.8036   23.6496 C   0  0  0  0  0  0  0  0  0  0  0  0
    8.3284  -17.6375   23.3755 C   0  0  2  0  0  0  0  0  0  0  0  0
    8.3942  -17.2881   21.9544 N   0  0  0  0  0  0  0  0  0  0  0  0
    8.6676  -16.4990   24.2477 C   0  0  0  0  0  0  0  0  0  0  0  0
    9.8377  -16.0510   24.3005 O   0  0  0  0  0  0  0  0  0  0  0  0
    5.7513  -11.7908   26.9727 C   0  0  0  0  0  0  0  0  0  0  0  0
    7.0746  -12.4253   26.5174 C   0  0  2  0  0  0  0  0  0  0  0  0
    7.7971  -11.4383   25.6630 C   0  0  0  0  0  0  0  0  0  0  0  0
    6.8108  -13.6847   25.7481 C   0  0  0  0  0  0  0  0  0  0  0  0
    8.0553  -14.5401   25.7105 C   0  0  2  0  0  0  0  0  0  0  0  0
    7.7222  -15.8322   25.0677 N   0  0  0  0  0  0  0  0  0  0  0  0
    8.6941  -14.7358   26.9791 C   0  0  0  0  0  0  0  0  0  0  0  0
    9.1186  -13.7066   27.6262 O   0  0  0  0  0  0  0  0  0  0  0  0
    8.9148  -15.9607   27.6201 O   0  0  0  0  0  0  0  0  0  0  0  0
  2  1  1  6
  2  3  1  0
  3  4  1  0
  4  5  2  0
  6  2  1  0
  7  6  2  0
  8  4  1  0
  9 10  1  0
 10 12  1  0
 11 10  2  0
 13 12  1  6
 13 15  1  0
 13 14  1  0
 14  6  1  0
 15 16  2  0
 18 17  1  6
 18 19  1  0
 21 20  1  1
 20 18  1  0
 22 21  1  0
 22 15  1  0
 23 21  1  0
 24 23  2  0
 25 23  1  0
M  END
$$$$
