DNL.pdb
     RDKit          3D

 25 24  0  0  1  0  0  0  0  0999 V2000
   11.3001  -17.5302   14.4031 N   0  0  0  0  0  0  0  0  0  0  0  0
   11.9311  -17.8676   15.6388 C   0  0  1  0  0  0  0  0  0  0  0  0
   13.2314  -17.1410   15.8918 C   0  0  0  0  0  0  0  0  0  0  0  0
   14.1515  -17.3287   14.7758 C   0  0  0  0  0  0  0  0  0  0  0  0
   14.3092  -18.4088   14.1541 O   0  0  0  0  0  0  0  0  0  0  0  0
   10.9873  -17.7214   16.7628 C   0  0  0  0  0  0  0  0  0  0  0  0
    9.8320  -17.2142   16.5175 O   0  0  0  0  0  0  0  0  0  0  0  0
   14.9469  -16.2519   14.3241 O   0  0  0  0  0  0  0  0  0  0  0  0
   10.6892  -21.5596   19.0066 N   0  0  0  0  0  0  0  0  0  0  0  0
    9.7881  -20.4668   19.1902 C   0  0  0  0  0  0  0  0  0  0  0  0
    8.6151  -20.5059   18.7465 O   0  0  0  0  0  0  0  0  0  0  0  0
   10.3163  -19.3088   19.9245 C   0  0  0  0  0  0  0  0  0  0  0  0
   10.2968  -18.0522   19.0816 C   0  0  2  0  0  0  0  0  0  0  0  0
   11.3525  -18.1294   18.0690 N   0  0  0  0  0  0  0  0  0  0  0  0
   10.4284  -16.8595   19.9372 C   0  0  0  0  0  0  0  0  0  0  0  0
   11.5564  -16.4155   20.2585 O   0  0  0  0  0  0  0  0  0  0  0  0
    8.9341  -12.8936   19.1896 C   0  0  0  0  0  0  0  0  0  0  0  0
    7.8758  -13.7950   19.8443 C   0  0  2  0  0  0  0  0  0  0  0  0
    6.5660  -13.0814   19.8075 C   0  0  0  0  0  0  0  0  0  0  0  0
    8.2597  -14.1054   21.2598 C   0  0  0  0  0  0  0  0  0  0  0  0
    9.5241  -14.9317   21.2853 C   0  0  2  0  0  0  0  0  0  0  0  0
    9.3207  -16.1337   20.4443 N   0  0  0  0  0  0  0  0  0  0  0  0
    9.9922  -15.2819   22.5945 C   0  0  0  0  0  0  0  0  0  0  0  0
   10.3926  -14.3452   23.3821 O   0  0  0  0  0  0  0  0  0  0  0  0
   10.0640  -16.5709   23.1360 O   0  0  0  0  0  0  0  0  0  0  0  0
  2  1  1  6
  2  3  1  0
  3  4  1  0
  4  5  2  0
  6  2  1  0
  7  6  2  0
  8  4  1  0
  9 10  1  0
 10 12  1  0
 11 10  2  0
 13 12  1  1
 13 15  1  0
 13 14  1  0
 14  6  1  0
 15 16  2  0
 18 17  1  1
 18 19  1  0
 21 20  1  1
 20 18  1  0
 22 21  1  0
 22 15  1  0
 23 21  1  0
 24 23  2  0
 25 23  1  0
M  END
$$$$
