DNL.pdb
     RDKit          3D

 25 24  0  0  1  0  0  0  0  0999 V2000
    9.6025  -13.0755   19.3194 N   0  0  0  0  0  0  0  0  0  0  0  0
    8.2311  -13.4443   19.4684 C   0  0  1  0  0  0  0  0  0  0  0  0
    7.5635  -13.8871   18.1875 C   0  0  0  0  0  0  0  0  0  0  0  0
    8.5342  -13.9668   17.1019 C   0  0  0  0  0  0  0  0  0  0  0  0
    8.4819  -13.2884   16.0459 O   0  0  0  0  0  0  0  0  0  0  0  0
    8.0730  -14.4375   20.5473 C   0  0  0  0  0  0  0  0  0  0  0  0
    6.8805  -14.7944   20.8678 O   0  0  0  0  0  0  0  0  0  0  0  0
    9.6284  -14.8558   17.1932 O   0  0  0  0  0  0  0  0  0  0  0  0
    8.9550  -18.8689   20.4574 N   0  0  0  0  0  0  0  0  0  0  0  0
    8.9433  -18.3689   21.7952 C   0  0  0  0  0  0  0  0  0  0  0  0
    8.2615  -18.9205   22.6926 O   0  0  0  0  0  0  0  0  0  0  0  0
    9.7720  -17.1825   22.0501 C   0  0  0  0  0  0  0  0  0  0  0  0
    8.9295  -15.9445   22.2673 C   0  0  2  0  0  0  0  0  0  0  0  0
    9.2065  -14.9750   21.2047 N   0  0  0  0  0  0  0  0  0  0  0  0
    9.1736  -15.3880   23.6099 C   0  0  0  0  0  0  0  0  0  0  0  0
   10.2877  -14.8995   23.9147 O   0  0  0  0  0  0  0  0  0  0  0  0
    8.0612  -11.9058   25.9084 C   0  0  0  0  0  0  0  0  0  0  0  0
    6.9446  -12.9536   25.7804 C   0  0  2  0  0  0  0  0  0  0  0  0
    5.6788  -12.3533   26.2940 C   0  0  0  0  0  0  0  0  0  0  0  0
    7.2924  -14.1837   26.5636 C   0  0  0  0  0  0  0  0  0  0  0  0
    8.5232  -14.8384   25.9820 C   0  0  2  0  0  0  0  0  0  0  0  0
    8.1926  -15.3536   24.6333 N   0  0  0  0  0  0  0  0  0  0  0  0
    9.1119  -15.8569   26.8017 C   0  0  0  0  0  0  0  0  0  0  0  0
    9.5180  -15.5457   27.9833 O   0  0  0  0  0  0  0  0  0  0  0  0
    9.3000  -17.2000   26.4542 O   0  0  0  0  0  0  0  0  0  0  0  0
  2  1  1  6
  2  3  1  0
  3  4  1  0
  4  5  2  0
  6  2  1  0
  7  6  2  0
  8  4  1  0
  9 10  1  0
 10 12  1  0
 11 10  2  0
 13 12  1  6
 13 15  1  0
 13 14  1  0
 14  6  1  0
 15 16  2  0
 18 17  1  1
 18 19  1  0
 21 20  1  1
 20 18  1  0
 22 21  1  0
 22 15  1  0
 23 21  1  0
 24 23  2  0
 25 23  1  0
M  END
$$$$
