DNL.pdb
     RDKit          3D

 25 24  0  0  1  0  0  0  0  0999 V2000
    8.7249  -13.0588   19.4740 N   0  0  0  0  0  0  0  0  0  0  0  0
    8.1479  -14.3511   19.6642 C   0  0  1  0  0  0  0  0  0  0  0  0
    7.8098  -15.0759   18.3825 C   0  0  0  0  0  0  0  0  0  0  0  0
    7.9288  -14.1801   17.2377 C   0  0  0  0  0  0  0  0  0  0  0  0
    8.3480  -12.9974   17.2969 O   0  0  0  0  0  0  0  0  0  0  0  0
    8.9876  -15.1701   20.5585 C   0  0  0  0  0  0  0  0  0  0  0  0
    8.6299  -16.3854   20.7753 O   0  0  0  0  0  0  0  0  0  0  0  0
    7.5573  -14.6237   15.9488 O   0  0  0  0  0  0  0  0  0  0  0  0
   12.9651  -16.5781   19.9872 N   0  0  0  0  0  0  0  0  0  0  0  0
   12.7672  -15.2940   20.5803 C   0  0  0  0  0  0  0  0  0  0  0  0
   12.9529  -14.2379   19.9286 O   0  0  0  0  0  0  0  0  0  0  0  0
   12.3362  -15.2893   21.9851 C   0  0  0  0  0  0  0  0  0  0  0  0
   10.8419  -15.4892   22.1151 C   0  0  2  0  0  0  0  0  0  0  0  0
   10.1502  -14.6246   21.1559 N   0  0  0  0  0  0  0  0  0  0  0  0
   10.4110  -15.2424   23.5026 C   0  0  0  0  0  0  0  0  0  0  0  0
   11.2310  -14.8809   24.3798 O   0  0  0  0  0  0  0  0  0  0  0  0
    8.3452  -12.3797   25.9171 C   0  0  0  0  0  0  0  0  0  0  0  0
    7.4449  -13.2408   25.0176 C   0  0  2  0  0  0  0  0  0  0  0  0
    6.0807  -12.6364   25.0053 C   0  0  0  0  0  0  0  0  0  0  0  0
    7.3862  -14.6473   25.5331 C   0  0  0  0  0  0  0  0  0  0  0  0
    8.7347  -15.3115   25.3834 C   0  0  2  0  0  0  0  0  0  0  0  0
    9.0701  -15.3820   23.9425 N   0  0  0  0  0  0  0  0  0  0  0  0
    8.8503  -16.5953   26.0112 C   0  0  0  0  0  0  0  0  0  0  0  0
    8.7335  -16.6737   27.2911 O   0  0  0  0  0  0  0  0  0  0  0  0
    9.0809  -17.8182   25.3697 O   0  0  0  0  0  0  0  0  0  0  0  0
  2  1  1  6
  2  3  1  0
  3  4  1  0
  4  5  2  0
  6  2  1  0
  7  6  2  0
  8  4  1  0
  9 10  1  0
 10 12  1  0
 11 10  2  0
 13 12  1  1
 13 15  1  0
 13 14  1  0
 14  6  1  0
 15 16  2  0
 18 17  1  1
 18 19  1  0
 21 20  1  6
 20 18  1  0
 22 21  1  0
 22 15  1  0
 23 21  1  0
 24 23  2  0
 25 23  1  0
M  END
$$$$
