TRR.pdb
     RDKit          3D

 30 29  0  0  1  0  0  0  0  0999 V2000
    9.1365  -12.0788   20.5324 C   0  0  0  0  0  0  0  0  0  0  0  0
    7.9663  -12.7398   19.8018 C   0  0  1  0  0  0  0  0  0  0  0  0
    7.0212  -11.7900   19.4699 O   0  0  0  0  0  0  0  0  0  0  0  0
    8.4184  -13.4856   18.5877 C   0  0  2  0  0  0  0  0  0  0  0  0
    7.2525  -14.0866   17.9020 N   0  0  0  0  0  0  0  0  0  0  0  0
    9.3881  -14.5303   18.9360 C   0  0  0  0  0  0  0  0  0  0  0  0
    8.9872  -15.7045   19.1582 O   0  0  0  0  0  0  0  0  0  0  0  0
   15.2264  -16.3575   13.8728 N   0  0  0  0  0  0  0  0  0  0  0  0
   14.9001  -15.1443   14.5588 C   0  0  0  0  0  0  0  0  0  0  0  0
   15.4993  -14.0701   14.2530 N   0  0  0  0  0  0  0  0  0  0  0  0
   13.9219  -15.1511   15.5655 N   0  0  0  0  0  0  0  0  0  0  0  0
   13.0708  -16.3618   15.7919 C   0  0  0  0  0  0  0  0  0  0  0  0
   12.2001  -16.0414   16.9253 C   0  0  0  0  0  0  0  0  0  0  0  0
   12.6435  -15.5698   18.2229 C   0  0  0  0  0  0  0  0  0  0  0  0
   11.7374  -15.3550   19.3347 C   0  0  2  0  0  0  0  0  0  0  0  0
   10.7581  -14.2968   19.0317 N   0  0  0  0  0  0  0  0  0  0  0  0
   12.3030  -15.1919   20.6652 C   0  0  0  0  0  0  0  0  0  0  0  0
   13.0487  -14.2518   20.9792 O   0  0  0  0  0  0  0  0  0  0  0  0
   15.3041  -13.1874   14.7423 N   0  0  0  0  0  0  0  0  0  0  0  0
   10.4954  -18.9534   28.5933 C   0  0  0  0  0  0  0  0  0  0  0  0
   11.4949  -17.9467   28.7868 N   0  0  0  0  0  0  0  0  0  0  0  0
   11.8424  -17.5656   29.9658 N   0  0  0  0  0  0  0  0  0  0  0  0
   12.1122  -17.3584   27.6567 C   0  0  0  0  0  0  0  0  0  0  0  0
   11.5758  -17.5639   26.3316 C   0  0  0  0  0  0  0  0  0  0  0  0
   12.3361  -16.6709   25.3549 C   0  0  0  0  0  0  0  0  0  0  0  0
   11.7605  -16.7670   23.9763 C   0  0  1  0  0  0  0  0  0  0  0  0
   12.5651  -15.9309   23.0132 N   0  0  0  0  0  0  0  0  0  0  0  0
   11.9923  -16.1590   21.6925 C   0  0  0  0  0  0  0  0  0  0  0  0
   13.9702  -16.3368   23.0406 O   0  0  0  0  0  0  0  0  0  0  0  0
   14.5274  -17.1643   22.2849 O   0  0  0  0  0  0  0  0  0  0  0  0
  2  1  1  6
  2  3  1  0
  4  5  1  1
  4  2  1  0
  6  7  2  0
  6  4  1  0
  9  8  1  0
 10  9  2  0
 11  9  1  0
 12 11  1  0
 13 12  1  0
 13 14  1  0
 15 14  1  6
 15 17  1  0
 15 16  1  0
 16  6  1  0
 17 27  1  0
 18 17  2  0
 20 19  1  0
 20 22  1  0
 21 20  2  0
 23 22  1  0
 23 24  1  0
 24 25  1  0
 26 25  1  1
 26 28  1  0
 27 26  1  0
 28 29  2  0
 28 30  1  0
M  END
$$$$
