TRR.pdb
     RDKit          3D

 30 29  0  0  1  0  0  0  0  0999 V2000
    5.8881  -21.2456   24.4969 C   0  0  0  0  0  0  0  0  0  0  0  0
    5.4764  -22.0386   23.2553 C   0  0  1  0  0  0  0  0  0  0  0  0
    4.5384  -22.9926   23.5953 O   0  0  0  0  0  0  0  0  0  0  0  0
    4.9588  -21.1476   22.1724 C   0  0  2  0  0  0  0  0  0  0  0  0
    4.5709  -21.9572   20.9956 N   0  0  0  0  0  0  0  0  0  0  0  0
    5.9589  -20.1466   21.7842 C   0  0  0  0  0  0  0  0  0  0  0  0
    6.9308  -20.4854   21.0564 O   0  0  0  0  0  0  0  0  0  0  0  0
    7.0125  -11.9391   19.7771 N   0  0  0  0  0  0  0  0  0  0  0  0
    8.0850  -12.8471   20.0497 C   0  0  0  0  0  0  0  0  0  0  0  0
    9.0051  -12.5082   20.8528 N   0  0  0  0  0  0  0  0  0  0  0  0
    8.1130  -14.1042   19.4260 N   0  0  0  0  0  0  0  0  0  0  0  0
    6.9954  -15.0796   19.6284 C   0  0  0  0  0  0  0  0  0  0  0  0
    6.9459  -15.3495   21.0671 C   0  0  0  0  0  0  0  0  0  0  0  0
    6.2847  -16.4790   21.6914 C   0  0  0  0  0  0  0  0  0  0  0  0
    6.8802  -17.7994   21.7627 C   0  0  2  0  0  0  0  0  0  0  0  0
    5.8928  -18.8115   22.1765 N   0  0  0  0  0  0  0  0  0  0  0  0
    8.1345  -17.9534   22.4837 C   0  0  0  0  0  0  0  0  0  0  0  0
    8.2139  -17.9587   23.7215 O   0  0  0  0  0  0  0  0  0  0  0  0
    9.8341  -13.0977   21.0007 N   0  0  0  0  0  0  0  0  0  0  0  0
   14.4460  -21.8204   22.1203 C   0  0  0  0  0  0  0  0  0  0  0  0
   15.5010  -20.8715   22.3102 N   0  0  0  0  0  0  0  0  0  0  0  0
   16.6455  -21.2270   22.7792 N   0  0  0  0  0  0  0  0  0  0  0  0
   15.2791  -19.5139   21.9753 C   0  0  0  0  0  0  0  0  0  0  0  0
   14.1004  -19.1177   21.2408 C   0  0  0  0  0  0  0  0  0  0  0  0
   12.9587  -18.9046   22.2310 C   0  0  0  0  0  0  0  0  0  0  0  0
   11.6852  -18.5653   21.5208 C   0  0  2  0  0  0  0  0  0  0  0  0
   10.5863  -18.2932   22.5170 N   0  0  0  0  0  0  0  0  0  0  0  0
    9.3645  -18.1139   21.7429 C   0  0  0  0  0  0  0  0  0  0  0  0
   10.8877  -17.0869   23.2877 O   0  0  0  0  0  0  0  0  0  0  0  0
   10.5547  -15.9138   23.0063 O   0  0  0  0  0  0  0  0  0  0  0  0
  2  1  1  1
  2  3  1  0
  4  5  1  6
  4  2  1  0
  6  7  2  0
  6  4  1  0
  9  8  1  0
 10  9  2  0
 11  9  1  0
 12 11  1  0
 13 12  1  0
 13 14  1  0
 15 14  1  1
 15 17  1  0
 15 16  1  0
 16  6  1  0
 17 27  1  0
 18 17  2  0
 20 19  1  0
 20 22  1  0
 21 20  2  0
 23 22  1  0
 23 24  1  0
 24 25  1  0
 26 25  1  1
 26 28  1  0
 27 26  1  0
 28 29  2  0
 28 30  1  0
M  END
$$$$
