TRR.pdb
     RDKit          3D

 30 29  0  0  1  0  0  0  0  0999 V2000
    2.2293  -26.9766   32.3564 C   0  0  0  0  0  0  0  0  0  0  0  0
    2.0648  -28.4504   31.9808 C   0  0  1  0  0  0  0  0  0  0  0  0
    0.7313  -28.8035   32.0314 O   0  0  0  0  0  0  0  0  0  0  0  0
    2.6423  -28.7492   30.6347 C   0  0  2  0  0  0  0  0  0  0  0  0
    2.4715  -30.1854   30.3203 N   0  0  0  0  0  0  0  0  0  0  0  0
    4.0634  -28.3887   30.5740 C   0  0  0  0  0  0  0  0  0  0  0  0
    4.9056  -29.0589   31.2302 O   0  0  0  0  0  0  0  0  0  0  0  0
    9.7839  -24.8719   24.5575 N   0  0  0  0  0  0  0  0  0  0  0  0
   10.4104  -25.0165   25.8364 C   0  0  0  0  0  0  0  0  0  0  0  0
   11.6542  -24.8031   25.9534 N   0  0  0  0  0  0  0  0  0  0  0  0
    9.6458  -25.3948   26.9511 N   0  0  0  0  0  0  0  0  0  0  0  0
    8.1662  -25.5879   26.8294 C   0  0  0  0  0  0  0  0  0  0  0  0
    7.7058  -26.0452   28.1425 C   0  0  0  0  0  0  0  0  0  0  0  0
    6.3510  -26.4465   28.4689 C   0  0  0  0  0  0  0  0  0  0  0  0
    5.9705  -26.9446   29.7767 C   0  0  2  0  0  0  0  0  0  0  0  0
    4.5486  -27.3287   29.8113 N   0  0  0  0  0  0  0  0  0  0  0  0
    6.3397  -26.1638   30.9474 C   0  0  0  0  0  0  0  0  0  0  0  0
    5.7523  -25.1260   31.2887 O   0  0  0  0  0  0  0  0  0  0  0  0
   12.1290  -24.8751   26.8623 N   0  0  0  0  0  0  0  0  0  0  0  0
    8.4997  -27.6200   39.2377 C   0  0  0  0  0  0  0  0  0  0  0  0
    8.4512  -26.2039   39.0326 N   0  0  0  0  0  0  0  0  0  0  0  0
    8.4369  -25.3834   40.0239 N   0  0  0  0  0  0  0  0  0  0  0  0
    8.4175  -25.6970   37.7110 C   0  0  0  0  0  0  0  0  0  0  0  0
    8.0621  -26.5506   36.6016 C   0  0  0  0  0  0  0  0  0  0  0  0
    8.2130  -25.7552   35.3078 C   0  0  0  0  0  0  0  0  0  0  0  0
    7.7625  -26.5567   34.1263 C   0  0  1  0  0  0  0  0  0  0  0  0
    7.8355  -25.7251   32.8705 N   0  0  0  0  0  0  0  0  0  0  0  0
    7.4413  -26.6006   31.7739 C   0  0  0  0  0  0  0  0  0  0  0  0
    9.1972  -25.2302   32.6684 O   0  0  0  0  0  0  0  0  0  0  0  0
    9.8143  -24.4151   33.3902 O   0  0  0  0  0  0  0  0  0  0  0  0
  2  1  1  6
  2  3  1  0
  4  5  1  1
  4  2  1  0
  6  7  2  0
  6  4  1  0
  9  8  1  0
 10  9  2  0
 11  9  1  0
 12 11  1  0
 13 12  1  0
 13 14  1  0
 15 14  1  6
 15 17  1  0
 15 16  1  0
 16  6  1  0
 17 27  1  0
 18 17  2  0
 20 19  1  0
 20 22  1  0
 21 20  2  0
 23 22  1  0
 23 24  1  0
 24 25  1  0
 26 25  1  1
 26 28  1  0
 27 26  1  0
 28 29  2  0
 28 30  1  0
M  END
$$$$
