TRR.pdb
     RDKit          3D

 30 29  0  0  1  0  0  0  0  0999 V2000
    9.7836  -12.4931   19.3247 C   0  0  0  0  0  0  0  0  0  0  0  0
    8.2942  -12.5733   18.9850 C   0  0  1  0  0  0  0  0  0  0  0  0
    7.9916  -11.6782   17.9787 O   0  0  0  0  0  0  0  0  0  0  0  0
    7.8845  -13.9594   18.6034 C   0  0  2  0  0  0  0  0  0  0  0  0
    6.4164  -14.0201   18.4249 N   0  0  0  0  0  0  0  0  0  0  0  0
    8.3070  -14.9358   19.6139 C   0  0  0  0  0  0  0  0  0  0  0  0
    7.6837  -15.0119   20.7069 O   0  0  0  0  0  0  0  0  0  0  0  0
   13.5412  -20.7321   22.3068 N   0  0  0  0  0  0  0  0  0  0  0  0
   13.0317  -20.8995   20.9796 C   0  0  0  0  0  0  0  0  0  0  0  0
   13.8076  -20.7587   19.9874 N   0  0  0  0  0  0  0  0  0  0  0  0
   11.6782  -21.2160   20.7846 N   0  0  0  0  0  0  0  0  0  0  0  0
   10.6162  -20.1825   20.9975 C   0  0  0  0  0  0  0  0  0  0  0  0
   11.2189  -18.8982   20.6333 C   0  0  0  0  0  0  0  0  0  0  0  0
   10.5808  -17.8589   19.8488 C   0  0  0  0  0  0  0  0  0  0  0  0
    9.8012  -16.7900   20.4431 C   0  0  2  0  0  0  0  0  0  0  0  0
    9.3774  -15.8081   19.4297 N   0  0  0  0  0  0  0  0  0  0  0  0
   10.3213  -16.1355   21.6338 C   0  0  0  0  0  0  0  0  0  0  0  0
   11.1427  -15.2068   21.5984 O   0  0  0  0  0  0  0  0  0  0  0  0
   13.4707  -20.8645   19.0220 N   0  0  0  0  0  0  0  0  0  0  0  0
    9.8179  -16.7092   30.3893 C   0  0  0  0  0  0  0  0  0  0  0  0
   10.1438  -15.4853   29.7217 N   0  0  0  0  0  0  0  0  0  0  0  0
    9.6882  -14.3549   30.1348 N   0  0  0  0  0  0  0  0  0  0  0  0
   10.9842  -15.5210   28.5829 C   0  0  0  0  0  0  0  0  0  0  0  0
   10.5975  -16.2582   27.4026 C   0  0  0  0  0  0  0  0  0  0  0  0
    9.9277  -15.2959   26.4255 C   0  0  0  0  0  0  0  0  0  0  0  0
    9.4430  -16.0163   25.2060 C   0  0  2  0  0  0  0  0  0  0  0  0
   10.4565  -15.9060   24.0949 N   0  0  0  0  0  0  0  0  0  0  0  0
    9.8706  -16.5685   22.9364 C   0  0  0  0  0  0  0  0  0  0  0  0
   11.7068  -16.5593   24.4823 O   0  0  0  0  0  0  0  0  0  0  0  0
   12.7673  -15.9988   24.8392 O   0  0  0  0  0  0  0  0  0  0  0  0
  2  1  1  6
  2  3  1  0
  4  5  1  1
  4  2  1  0
  6  7  2  0
  6  4  1  0
  9  8  1  0
 10  9  2  0
 11  9  1  0
 12 11  1  0
 13 12  1  0
 13 14  1  0
 15 14  1  6
 15 17  1  0
 15 16  1  0
 16  6  1  0
 17 27  1  0
 18 17  2  0
 20 19  1  0
 20 22  1  0
 21 20  2  0
 23 22  1  0
 23 24  1  0
 24 25  1  0
 26 25  1  6
 26 28  1  0
 27 26  1  0
 28 29  2  0
 28 30  1  0
M  END
$$$$
