TRR.pdb
     RDKit          3D

 30 29  0  0  1  0  0  0  0  0999 V2000
    7.7915  -12.5906   18.2944 C   0  0  0  0  0  0  0  0  0  0  0  0
    8.5735  -13.5856   19.1538 C   0  0  1  0  0  0  0  0  0  0  0  0
    9.1932  -12.9238   20.1947 O   0  0  0  0  0  0  0  0  0  0  0  0
    7.6993  -14.6836   19.6684 C   0  0  2  0  0  0  0  0  0  0  0  0
    6.5675  -14.1113   20.4315 N   0  0  0  0  0  0  0  0  0  0  0  0
    8.4558  -15.6126   20.5154 C   0  0  0  0  0  0  0  0  0  0  0  0
    8.3265  -15.5610   21.7683 O   0  0  0  0  0  0  0  0  0  0  0  0
   11.3014  -19.1931   16.6725 N   0  0  0  0  0  0  0  0  0  0  0  0
   10.0274  -19.7151   16.2807 C   0  0  0  0  0  0  0  0  0  0  0  0
    9.6138  -19.5369   15.0960 N   0  0  0  0  0  0  0  0  0  0  0  0
    9.2440  -20.4183   17.2092 N   0  0  0  0  0  0  0  0  0  0  0  0
    9.7626  -20.6989   18.5853 C   0  0  0  0  0  0  0  0  0  0  0  0
    9.4600  -19.5097   19.3850 C   0  0  0  0  0  0  0  0  0  0  0  0
   10.4277  -18.7191   20.1207 C   0  0  0  0  0  0  0  0  0  0  0  0
   10.0709  -17.5194   20.8533 C   0  0  2  0  0  0  0  0  0  0  0  0
    9.3240  -16.5748   20.0045 N   0  0  0  0  0  0  0  0  0  0  0  0
   11.1075  -16.8430   21.6179 C   0  0  0  0  0  0  0  0  0  0  0  0
   11.8656  -15.9892   21.1334 O   0  0  0  0  0  0  0  0  0  0  0  0
    8.7003  -19.8921   14.7861 N   0  0  0  0  0  0  0  0  0  0  0  0
    9.1491  -16.5811   29.4228 C   0  0  0  0  0  0  0  0  0  0  0  0
   10.5205  -16.1762   29.4940 N   0  0  0  0  0  0  0  0  0  0  0  0
   11.1263  -16.0575   30.6232 N   0  0  0  0  0  0  0  0  0  0  0  0
   11.2235  -15.9000   28.2965 C   0  0  0  0  0  0  0  0  0  0  0  0
   10.5349  -15.8651   27.0274 C   0  0  0  0  0  0  0  0  0  0  0  0
   11.5358  -15.4808   25.9411 C   0  0  0  0  0  0  0  0  0  0  0  0
   12.0377  -16.6915   25.2175 C   0  0  2  0  0  0  0  0  0  0  0  0
   12.2582  -16.3764   23.7594 N   0  0  0  0  0  0  0  0  0  0  0  0
   11.2807  -17.1617   23.0164 C   0  0  0  0  0  0  0  0  0  0  0  0
   13.6183  -16.7402   23.3620 O   0  0  0  0  0  0  0  0  0  0  0  0
   14.6726  -16.1297   23.6485 O   0  0  0  0  0  0  0  0  0  0  0  0
  2  1  1  1
  2  3  1  0
  4  5  1  1
  4  2  1  0
  6  7  2  0
  6  4  1  0
  9  8  1  0
 10  9  2  0
 11  9  1  0
 12 11  1  0
 13 12  1  0
 13 14  1  0
 15 14  1  6
 15 17  1  0
 15 16  1  0
 16  6  1  0
 17 27  1  0
 18 17  2  0
 20 19  1  0
 20 22  1  0
 21 20  2  0
 23 22  1  0
 23 24  1  0
 24 25  1  0
 26 25  1  1
 26 28  1  0
 27 26  1  0
 28 29  2  0
 28 30  1  0
M  END
$$$$
