TRR.pdb
     RDKit          3D

 30 29  0  0  1  0  0  0  0  0999 V2000
   10.7199  -13.1067   18.9807 C   0  0  0  0  0  0  0  0  0  0  0  0
    9.3449  -12.4364   18.9773 C   0  0  1  0  0  0  0  0  0  0  0  0
    9.3337  -11.3886   18.0787 O   0  0  0  0  0  0  0  0  0  0  0  0
    8.2522  -13.4096   18.6714 C   0  0  2  0  0  0  0  0  0  0  0  0
    6.9431  -12.7192   18.6867 N   0  0  0  0  0  0  0  0  0  0  0  0
    8.2446  -14.5193   19.6314 C   0  0  0  0  0  0  0  0  0  0  0  0
    7.7137  -14.3610   20.7637 O   0  0  0  0  0  0  0  0  0  0  0  0
   13.4456  -20.7256   20.5959 N   0  0  0  0  0  0  0  0  0  0  0  0
   12.1651  -20.3287   20.0942 C   0  0  0  0  0  0  0  0  0  0  0  0
   12.0713  -19.3038   19.3545 N   0  0  0  0  0  0  0  0  0  0  0  0
   11.0225  -21.0740   20.4248 N   0  0  0  0  0  0  0  0  0  0  0  0
    9.6726  -20.6587   19.9283 C   0  0  0  0  0  0  0  0  0  0  0  0
    9.4201  -19.3323   20.4961 C   0  0  0  0  0  0  0  0  0  0  0  0
    9.1599  -18.1249   19.7363 C   0  0  0  0  0  0  0  0  0  0  0  0
    8.9053  -16.8409   20.3606 C   0  0  2  0  0  0  0  0  0  0  0  0
    8.7967  -15.7684   19.3564 N   0  0  0  0  0  0  0  0  0  0  0  0
    9.7430  -16.4391   21.4803 C   0  0  0  0  0  0  0  0  0  0  0  0
   10.8070  -15.8157   21.3473 O   0  0  0  0  0  0  0  0  0  0  0  0
   11.1658  -18.9898   18.9828 N   0  0  0  0  0  0  0  0  0  0  0  0
   10.2707  -16.8959   29.3665 C   0  0  0  0  0  0  0  0  0  0  0  0
   10.3343  -15.4742   29.5232 N   0  0  0  0  0  0  0  0  0  0  0  0
   10.8650  -14.9382   30.5659 N   0  0  0  0  0  0  0  0  0  0  0  0
    9.8010  -14.6419   28.5097 C   0  0  0  0  0  0  0  0  0  0  0  0
    9.0314  -15.2017   27.4233 C   0  0  0  0  0  0  0  0  0  0  0  0
    9.9620  -15.4313   26.2355 C   0  0  0  0  0  0  0  0  0  0  0  0
    9.2040  -15.9325   25.0457 C   0  0  1  0  0  0  0  0  0  0  0  0
   10.1510  -16.2428   23.9139 N   0  0  0  0  0  0  0  0  0  0  0  0
    9.3347  -16.7677   22.8266 C   0  0  0  0  0  0  0  0  0  0  0  0
   11.1403  -17.2336   24.3378 O   0  0  0  0  0  0  0  0  0  0  0  0
   11.0733  -18.4740   24.1854 O   0  0  0  0  0  0  0  0  0  0  0  0
  2  1  1  6
  2  3  1  0
  4  5  1  1
  4  2  1  0
  6  7  2  0
  6  4  1  0
  9  8  1  0
 10  9  2  0
 11  9  1  0
 12 11  1  0
 13 12  1  0
 13 14  1  0
 15 14  1  6
 15 17  1  0
 15 16  1  0
 16  6  1  0
 17 27  1  0
 18 17  2  0
 20 19  1  0
 20 22  1  0
 21 20  2  0
 23 22  1  0
 23 24  1  0
 24 25  1  0
 26 25  1  6
 26 28  1  0
 27 26  1  0
 28 29  2  0
 28 30  1  0
M  END
$$$$
