TRR.pdb
     RDKit          3D

 30 29  0  0  1  0  0  0  0  0999 V2000
    6.9167  -11.2409   27.9677 C   0  0  0  0  0  0  0  0  0  0  0  0
    7.4378  -12.2670   26.9600 C   0  0  1  0  0  0  0  0  0  0  0  0
    8.2305  -13.1972   27.6018 O   0  0  0  0  0  0  0  0  0  0  0  0
    6.3239  -12.9376   26.2223 C   0  0  2  0  0  0  0  0  0  0  0  0
    5.5138  -13.7472   27.1598 N   0  0  0  0  0  0  0  0  0  0  0  0
    6.8375  -13.7870   25.1417 C   0  0  0  0  0  0  0  0  0  0  0  0
    7.1097  -14.9957   25.3741 O   0  0  0  0  0  0  0  0  0  0  0  0
    8.5647  -12.7447   17.4917 N   0  0  0  0  0  0  0  0  0  0  0  0
    8.6396  -14.1558   17.2635 C   0  0  0  0  0  0  0  0  0  0  0  0
    9.4077  -14.6055   16.3611 N   0  0  0  0  0  0  0  0  0  0  0  0
    7.8625  -15.0319   18.0374 N   0  0  0  0  0  0  0  0  0  0  0  0
    6.9887  -14.5077   19.1343 C   0  0  0  0  0  0  0  0  0  0  0  0
    7.8856  -14.1613   20.2392 C   0  0  0  0  0  0  0  0  0  0  0  0
    7.4895  -13.5198   21.4779 C   0  0  0  0  0  0  0  0  0  0  0  0
    7.6148  -14.1617   22.7724 C   0  0  2  0  0  0  0  0  0  0  0  0
    7.0408  -13.3274   23.8425 N   0  0  0  0  0  0  0  0  0  0  0  0
    8.9117  -14.6992   23.1542 C   0  0  0  0  0  0  0  0  0  0  0  0
    9.8610  -13.9924   23.5253 O   0  0  0  0  0  0  0  0  0  0  0  0
    9.5076  -15.6148   16.1938 N   0  0  0  0  0  0  0  0  0  0  0  0
    9.4549  -14.9923   28.1531 C   0  0  0  0  0  0  0  0  0  0  0  0
   10.6290  -15.6974   28.5704 N   0  0  0  0  0  0  0  0  0  0  0  0
   11.4936  -15.1545   29.3538 N   0  0  0  0  0  0  0  0  0  0  0  0
   10.8425  -17.0191   28.1100 C   0  0  0  0  0  0  0  0  0  0  0  0
   10.1449  -17.5181   26.9480 C   0  0  0  0  0  0  0  0  0  0  0  0
   11.0291  -17.3076   25.7219 C   0  0  0  0  0  0  0  0  0  0  0  0
   10.3066  -17.6822   24.4654 C   0  0  2  0  0  0  0  0  0  0  0  0
   10.4707  -16.6029   23.4251 N   0  0  0  0  0  0  0  0  0  0  0  0
    9.1294  -16.1269   23.1112 C   0  0  0  0  0  0  0  0  0  0  0  0
   11.1161  -17.1450   22.2294 O   0  0  0  0  0  0  0  0  0  0  0  0
   12.3328  -17.3993   22.0832 O   0  0  0  0  0  0  0  0  0  0  0  0
  2  1  1  1
  2  3  1  0
  4  5  1  1
  4  2  1  0
  6  7  2  0
  6  4  1  0
  9  8  1  0
 10  9  2  0
 11  9  1  0
 12 11  1  0
 13 12  1  0
 13 14  1  0
 15 14  1  6
 15 17  1  0
 15 16  1  0
 16  6  1  0
 17 27  1  0
 18 17  2  0
 20 19  1  0
 20 22  1  0
 21 20  2  0
 23 22  1  0
 23 24  1  0
 24 25  1  0
 26 25  1  1
 26 28  1  0
 27 26  1  0
 28 29  2  0
 28 30  1  0
M  END
$$$$
