TRR.pdb
     RDKit          3D

 30 29  0  0  1  0  0  0  0  0999 V2000
    6.7078  -14.7174   15.8067 C   0  0  0  0  0  0  0  0  0  0  0  0
    7.5976  -14.9006   17.0374 C   0  0  1  0  0  0  0  0  0  0  0  0
    8.8900  -15.1871   16.6460 O   0  0  0  0  0  0  0  0  0  0  0  0
    7.5667  -13.7017   17.9297 C   0  0  2  0  0  0  0  0  0  0  0  0
    8.0712  -12.5169   17.2000 N   0  0  0  0  0  0  0  0  0  0  0  0
    8.3641  -13.9205   19.1419 C   0  0  0  0  0  0  0  0  0  0  0  0
    9.6011  -13.6784   19.1270 O   0  0  0  0  0  0  0  0  0  0  0  0
   11.4735  -16.2478   25.4647 N   0  0  0  0  0  0  0  0  0  0  0  0
   10.2944  -16.6913   26.1445 C   0  0  0  0  0  0  0  0  0  0  0  0
   10.3182  -17.7767   26.7986 N   0  0  0  0  0  0  0  0  0  0  0  0
    9.1205  -15.9245   26.0817 N   0  0  0  0  0  0  0  0  0  0  0  0
    8.9200  -14.9276   24.9828 C   0  0  0  0  0  0  0  0  0  0  0  0
    8.3386  -15.6690   23.8614 C   0  0  0  0  0  0  0  0  0  0  0  0
    7.8016  -15.0813   22.6494 C   0  0  0  0  0  0  0  0  0  0  0  0
    8.6338  -14.6903   21.5278 C   0  0  2  0  0  0  0  0  0  0  0  0
    7.8209  -14.3848   20.3377 N   0  0  0  0  0  0  0  0  0  0  0  0
    9.7769  -15.5253   21.1919 C   0  0  0  0  0  0  0  0  0  0  0  0
    9.6905  -16.5590   20.5119 O   0  0  0  0  0  0  0  0  0  0  0  0
    9.4866  -18.1255   27.2920 N   0  0  0  0  0  0  0  0  0  0  0  0
   16.3388  -12.8738   17.5600 C   0  0  0  0  0  0  0  0  0  0  0  0
   16.8920  -14.1623   17.8491 N   0  0  0  0  0  0  0  0  0  0  0  0
   18.1598  -14.3756   17.7903 N   0  0  0  0  0  0  0  0  0  0  0  0
   16.0251  -15.2232   18.2060 C   0  0  0  0  0  0  0  0  0  0  0  0
   14.5987  -15.0141   18.2921 C   0  0  0  0  0  0  0  0  0  0  0  0
   14.0730  -15.7462   19.5238 C   0  0  0  0  0  0  0  0  0  0  0  0
   12.8721  -15.0548   20.0904 C   0  0  1  0  0  0  0  0  0  0  0  0
   12.2210  -15.9149   21.1441 N   0  0  0  0  0  0  0  0  0  0  0  0
   11.0918  -15.1506   21.6589 C   0  0  0  0  0  0  0  0  0  0  0  0
   13.1719  -16.2110   22.2157 O   0  0  0  0  0  0  0  0  0  0  0  0
   13.1768  -15.7270   23.3697 O   0  0  0  0  0  0  0  0  0  0  0  0
  2  1  1  6
  2  3  1  0
  4  5  1  6
  4  2  1  0
  6  7  2  0
  6  4  1  0
  9  8  1  0
 10  9  2  0
 11  9  1  0
 12 11  1  0
 13 12  1  0
 13 14  1  0
 15 14  1  1
 15 17  1  0
 15 16  1  0
 16  6  1  0
 17 27  1  0
 18 17  2  0
 20 19  1  0
 20 22  1  0
 21 20  2  0
 23 22  1  0
 23 24  1  0
 24 25  1  0
 26 25  1  6
 26 28  1  0
 27 26  1  0
 28 29  2  0
 28 30  1  0
M  END
$$$$
