TRR.pdb
     RDKit          3D

 30 29  0  0  1  0  0  0  0  0999 V2000
   12.8514  -19.8918   19.8024 C   0  0  0  0  0  0  0  0  0  0  0  0
   11.4396  -19.9762   19.2196 C   0  0  1  0  0  0  0  0  0  0  0  0
   10.6233  -20.6999   20.0654 O   0  0  0  0  0  0  0  0  0  0  0  0
   10.8642  -18.6217   18.9570 C   0  0  2  0  0  0  0  0  0  0  0  0
   11.6622  -17.9269   17.9220 N   0  0  0  0  0  0  0  0  0  0  0  0
   10.8220  -17.8154   20.1822 C   0  0  0  0  0  0  0  0  0  0  0  0
   11.8805  -17.2882   20.6188 O   0  0  0  0  0  0  0  0  0  0  0  0
    7.9788  -11.2018   20.4136 N   0  0  0  0  0  0  0  0  0  0  0  0
    7.9974  -12.2120   19.3996 C   0  0  0  0  0  0  0  0  0  0  0  0
    8.6649  -12.0238   18.3387 N   0  0  0  0  0  0  0  0  0  0  0  0
    7.2766  -13.4022   19.5844 N   0  0  0  0  0  0  0  0  0  0  0  0
    7.1720  -14.0261   20.9413 C   0  0  0  0  0  0  0  0  0  0  0  0
    8.2884  -14.9688   21.0433 C   0  0  0  0  0  0  0  0  0  0  0  0
    8.5491  -15.8495   22.1654 C   0  0  0  0  0  0  0  0  0  0  0  0
    9.6194  -16.8282   22.1665 C   0  0  2  0  0  0  0  0  0  0  0  0
    9.6528  -17.5878   20.9046 N   0  0  0  0  0  0  0  0  0  0  0  0
    9.7521  -17.7053   23.3196 C   0  0  0  0  0  0  0  0  0  0  0  0
    8.9480  -18.6120   23.5836 O   0  0  0  0  0  0  0  0  0  0  0  0
    8.6869  -12.7234   17.5859 N   0  0  0  0  0  0  0  0  0  0  0  0
   14.3901  -22.4944   25.3783 C   0  0  0  0  0  0  0  0  0  0  0  0
   14.6316  -22.3723   26.7842 N   0  0  0  0  0  0  0  0  0  0  0  0
   14.8245  -23.4080   27.5233 N   0  0  0  0  0  0  0  0  0  0  0  0
   14.6577  -21.0848   27.3725 C   0  0  0  0  0  0  0  0  0  0  0  0
   14.3986  -19.9055   26.5800 C   0  0  0  0  0  0  0  0  0  0  0  0
   12.8909  -19.7732   26.3827 C   0  0  0  0  0  0  0  0  0  0  0  0
   12.5649  -18.6365   25.4647 C   0  0  2  0  0  0  0  0  0  0  0  0
   11.0778  -18.5674   25.2241 N   0  0  0  0  0  0  0  0  0  0  0  0
   10.8716  -17.5345   24.2168 C   0  0  0  0  0  0  0  0  0  0  0  0
   10.3792  -18.2237   26.4626 O   0  0  0  0  0  0  0  0  0  0  0  0
    9.8559  -17.1235   26.7487 O   0  0  0  0  0  0  0  0  0  0  0  0
  2  1  1  1
  2  3  1  0
  4  5  1  6
  4  2  1  0
  6  7  2  0
  6  4  1  0
  9  8  1  0
 10  9  2  0
 11  9  1  0
 12 11  1  0
 13 12  1  0
 13 14  1  0
 15 14  1  1
 15 17  1  0
 15 16  1  0
 16  6  1  0
 17 27  1  0
 18 17  2  0
 20 19  1  0
 20 22  1  0
 21 20  2  0
 23 22  1  0
 23 24  1  0
 24 25  1  0
 26 25  1  6
 26 28  1  0
 27 26  1  0
 28 29  2  0
 28 30  1  0
M  END
$$$$
