FRG.pdb
     RDKit          3D

 27 27  0  0  1  0  0  0  0  0999 V2000
   22.2810  -20.2216  -12.9202 N   0  0  0  0  0  0  0  0  0  0  0  0
   23.7046  -20.2579  -12.7244 C   0  0  1  0  0  0  0  0  0  0  0  0
   24.0258  -21.4886  -11.9069 C   0  0  0  0  0  0  0  0  0  0  0  0
   23.7147  -21.3129  -10.4772 C   0  0  0  0  0  0  0  0  0  0  0  0
   22.5003  -21.6909   -9.9228 C   0  0  0  0  0  0  0  0  0  0  0  0
   22.3147  -21.4822   -8.5795 C   0  0  0  0  0  0  0  0  0  0  0  0
   23.2846  -20.9159   -7.7738 C   0  0  0  0  0  0  0  0  0  0  0  0
   24.4973  -20.5365   -8.3184 C   0  0  0  0  0  0  0  0  0  0  0  0
   24.6871  -20.7461   -9.6741 C   0  0  0  0  0  0  0  0  0  0  0  0
   24.3690  -20.4690  -14.0626 C   0  0  0  0  0  0  0  0  0  0  0  0
   23.7728  -21.1346  -14.9448 O   0  0  0  0  0  0  0  0  0  0  0  0
   28.8700  -19.1853  -20.1554 N   0  0  0  0  0  0  0  0  0  0  0  0
   28.6143  -17.8762  -19.6198 C   0  0  0  0  0  0  0  0  0  0  0  0
   28.1335  -16.9435  -20.3661 N   0  0  0  0  0  0  0  0  0  0  0  0
   28.8852  -17.5856  -18.2633 N   0  0  0  0  0  0  0  0  0  0  0  0
   29.3594  -18.5737  -17.3339 C   0  0  0  0  0  0  0  0  0  0  0  0
   28.2959  -19.6236  -17.0705 C   0  0  0  0  0  0  0  0  0  0  0  0
   27.4607  -19.2401  -15.8772 C   0  0  0  0  0  0  0  0  0  0  0  0
   26.4618  -20.2674  -15.4740 C   0  0  2  0  0  0  0  0  0  0  0  0
   25.6510  -19.9304  -14.3405 N   0  0  0  0  0  0  0  0  0  0  0  0
   27.0112  -21.6563  -15.3905 C   0  0  0  0  0  0  0  0  0  0  0  0
   27.7850  -21.9973  -14.4703 O   0  0  0  0  0  0  0  0  0  0  0  0
   27.9690  -15.9838  -20.0036 N   0  0  0  0  0  0  0  0  0  0  0  0
   26.6768  -22.6315  -16.3457 C   0  0  0  0  0  0  0  0  0  0  0  0
   27.1913  -23.9977  -16.2953 C   0  0  0  0  0  0  0  0  0  0  0  0
   26.7038  -24.8183  -17.4017 O   0  0  0  0  0  0  0  0  0  0  0  0
   25.9071  -24.3346  -18.2433 O   0  0  0  0  0  0  0  0  0  0  0  0
  2  1  1  6
  2  3  1  0
  2 10  1  0
  4  3  1  0
  4  5  2  0
  6  5  1  0
  7  6  2  0
  8  9  2  0
  8  7  1  0
  9  4  1  0
 10 11  2  0
 13 15  1  0
 13 12  1  0
 14 13  2  0
 16 15  1  0
 17 16  1  0
 17 18  1  0
 19 18  1  1
 20 19  1  0
 20 10  1  0
 21 22  2  0
 21 19  1  0
 23 21  1  0
 24 23  1  0
 24 25  1  0
 25 27  1  0
 26 25  2  0
M  END
$$$$
