FRG.pdb
     RDKit          3D

 27 27  0  0  1  0  0  0  0  0999 V2000
   22.3311  -18.1929  -14.6079 N   0  0  0  0  0  0  0  0  0  0  0  0
   23.1546  -18.8953  -15.5538 C   0  0  1  0  0  0  0  0  0  0  0  0
   23.1104  -18.1325  -16.8585 C   0  0  0  0  0  0  0  0  0  0  0  0
   21.8217  -18.2842  -17.5571 C   0  0  0  0  0  0  0  0  0  0  0  0
   21.2187  -19.5176  -17.7570 C   0  0  0  0  0  0  0  0  0  0  0  0
   20.0180  -19.5455  -18.4204 C   0  0  0  0  0  0  0  0  0  0  0  0
   19.4001  -18.4011  -18.8884 C   0  0  0  0  0  0  0  0  0  0  0  0
   19.9943  -17.1683  -18.6933 C   0  0  0  0  0  0  0  0  0  0  0  0
   21.2063  -17.1375  -18.0239 C   0  0  0  0  0  0  0  0  0  0  0  0
   24.5879  -18.8281  -15.0871 C   0  0  0  0  0  0  0  0  0  0  0  0
   25.1072  -17.7072  -14.8618 O   0  0  0  0  0  0  0  0  0  0  0  0
   25.2110  -20.1794   -8.6536 N   0  0  0  0  0  0  0  0  0  0  0  0
   24.1749  -20.7917   -9.4394 C   0  0  0  0  0  0  0  0  0  0  0  0
   22.9361  -20.6508   -9.1173 N   0  0  0  0  0  0  0  0  0  0  0  0
   24.4941  -21.5609  -10.5814 N   0  0  0  0  0  0  0  0  0  0  0  0
   25.6915  -21.3568  -11.3491 C   0  0  0  0  0  0  0  0  0  0  0  0
   25.6057  -20.0741  -12.1553 C   0  0  0  0  0  0  0  0  0  0  0  0
   26.8688  -19.8643  -12.9483 C   0  0  0  0  0  0  0  0  0  0  0  0
   26.7060  -20.0433  -14.4170 C   0  0  2  0  0  0  0  0  0  0  0  0
   25.3562  -20.0049  -14.8991 N   0  0  0  0  0  0  0  0  0  0  0  0
   27.4827  -21.1892  -14.9841 C   0  0  0  0  0  0  0  0  0  0  0  0
   27.6040  -22.2662  -14.3621 O   0  0  0  0  0  0  0  0  0  0  0  0
   22.1734  -21.0764   -9.6800 N   0  0  0  0  0  0  0  0  0  0  0  0
   28.1061  -21.0970  -16.2405 C   0  0  0  0  0  0  0  0  0  0  0  0
   28.9110  -22.1770  -16.8055 C   0  0  0  0  0  0  0  0  0  0  0  0
   29.3894  -21.8703  -18.1517 O   0  0  0  0  0  0  0  0  0  0  0  0
   29.0142  -20.8214  -18.7314 O   0  0  0  0  0  0  0  0  0  0  0  0
  2  1  1  1
  2  3  1  0
  2 10  1  0
  4  3  1  0
  4  5  2  0
  6  5  1  0
  7  6  2  0
  8  9  2  0
  8  7  1  0
  9  4  1  0
 10 11  2  0
 13 15  1  0
 13 12  1  0
 14 13  2  0
 16 15  1  0
 17 16  1  0
 17 18  1  0
 19 18  1  1
 20 19  1  0
 20 10  1  0
 21 22  2  0
 21 19  1  0
 23 21  1  0
 24 23  1  0
 24 25  1  0
 25 27  1  0
 26 25  2  0
M  END
$$$$
