FRG.pdb
     RDKit          3D

 27 27  0  0  1  0  0  0  0  0999 V2000
   27.1861  -18.8071  -17.2321 N   0  0  0  0  0  0  0  0  0  0  0  0
   26.8068  -18.1899  -15.9905 C   0  0  1  0  0  0  0  0  0  0  0  0
   25.7895  -17.1157  -16.3021 C   0  0  0  0  0  0  0  0  0  0  0  0
   26.4043  -15.7860  -16.4618 C   0  0  0  0  0  0  0  0  0  0  0  0
   26.7588  -14.9901  -15.3821 C   0  0  0  0  0  0  0  0  0  0  0  0
   27.3251  -13.7680  -15.6435 C   0  0  0  0  0  0  0  0  0  0  0  0
   27.5500  -13.3121  -16.9289 C   0  0  0  0  0  0  0  0  0  0  0  0
   27.1997  -14.0991  -18.0101 C   0  0  0  0  0  0  0  0  0  0  0  0
   26.6279  -15.3330  -17.7488 C   0  0  0  0  0  0  0  0  0  0  0  0
   26.0818  -19.2102  -15.1478 C   0  0  0  0  0  0  0  0  0  0  0  0
   25.5017  -20.1704  -15.7120 O   0  0  0  0  0  0  0  0  0  0  0  0
   22.5987  -20.6393   -8.8167 N   0  0  0  0  0  0  0  0  0  0  0  0
   23.3832  -21.5909   -8.0784 C   0  0  0  0  0  0  0  0  0  0  0  0
   22.8192  -22.4271   -7.2779 N   0  0  0  0  0  0  0  0  0  0  0  0
   24.7895  -21.6286   -8.2158 N   0  0  0  0  0  0  0  0  0  0  0  0
   25.5115  -20.7446   -9.0889 C   0  0  0  0  0  0  0  0  0  0  0  0
   24.9918  -20.8449  -10.5110 C   0  0  0  0  0  0  0  0  0  0  0  0
   25.8018  -19.9700  -11.4312 C   0  0  0  0  0  0  0  0  0  0  0  0
   25.3672  -20.0110  -12.8543 C   0  0  2  0  0  0  0  0  0  0  0  0
   26.0442  -19.1038  -13.7343 N   0  0  0  0  0  0  0  0  0  0  0  0
   23.8832  -19.9886  -13.0423 C   0  0  0  0  0  0  0  0  0  0  0  0
   23.2086  -18.9686  -12.7848 O   0  0  0  0  0  0  0  0  0  0  0  0
   23.3693  -23.1284   -6.7439 N   0  0  0  0  0  0  0  0  0  0  0  0
   23.1911  -21.1161  -13.5167 C   0  0  0  0  0  0  0  0  0  0  0  0
   21.7359  -21.1588  -13.6362 C   0  0  0  0  0  0  0  0  0  0  0  0
   21.2396  -20.3061  -14.7141 O   0  0  0  0  0  0  0  0  0  0  0  0
   21.7022  -20.4233  -15.8756 O   0  0  0  0  0  0  0  0  0  0  0  0
  2  1  1  6
  2  3  1  0
  2 10  1  0
  4  3  1  0
  4  5  2  0
  6  5  1  0
  7  6  2  0
  8  9  2  0
  8  7  1  0
  9  4  1  0
 10 11  2  0
 13 15  1  0
 13 12  1  0
 14 13  2  0
 16 15  1  0
 17 16  1  0
 17 18  1  0
 19 18  1  1
 20 19  1  0
 20 10  1  0
 21 22  2  0
 21 19  1  0
 23 21  1  0
 24 23  1  0
 24 25  1  0
 25 27  1  0
 26 25  2  0
M  END
$$$$
