FRG.pdb
     RDKit          3D

 27 27  0  0  1  0  0  0  0  0999 V2000
   25.4046  -17.4694  -17.5871 N   0  0  0  0  0  0  0  0  0  0  0  0
   25.0827  -17.4539  -16.1863 C   0  0  1  0  0  0  0  0  0  0  0  0
   24.3241  -16.1773  -15.9022 C   0  0  0  0  0  0  0  0  0  0  0  0
   25.1629  -14.9759  -16.0599 C   0  0  0  0  0  0  0  0  0  0  0  0
   25.0782  -14.1431  -17.1663 C   0  0  0  0  0  0  0  0  0  0  0  0
   25.9063  -13.0501  -17.2125 C   0  0  0  0  0  0  0  0  0  0  0  0
   26.8083  -12.7573  -16.2069 C   0  0  0  0  0  0  0  0  0  0  0  0
   26.8989  -13.5821  -15.1011 C   0  0  0  0  0  0  0  0  0  0  0  0
   26.0640  -14.6859  -15.0521 C   0  0  0  0  0  0  0  0  0  0  0  0
   24.1166  -18.5776  -15.9021 C   0  0  0  0  0  0  0  0  0  0  0  0
   23.3813  -19.0023  -16.8271 O   0  0  0  0  0  0  0  0  0  0  0  0
   27.4384  -21.0859  -10.3784 N   0  0  0  0  0  0  0  0  0  0  0  0
   26.0376  -21.2770  -10.1187 C   0  0  0  0  0  0  0  0  0  0  0  0
   25.5192  -20.9004   -9.0017 N   0  0  0  0  0  0  0  0  0  0  0  0
   25.2005  -21.8821  -11.0836 N   0  0  0  0  0  0  0  0  0  0  0  0
   25.6921  -22.3854  -12.3366 C   0  0  0  0  0  0  0  0  0  0  0  0
   25.1578  -21.5656  -13.4963 C   0  0  0  0  0  0  0  0  0  0  0  0
   23.7111  -21.2128  -13.2702 C   0  0  0  0  0  0  0  0  0  0  0  0
   23.1566  -20.2436  -14.2544 C   0  0  2  0  0  0  0  0  0  0  0  0
   24.0250  -19.1604  -14.6127 N   0  0  0  0  0  0  0  0  0  0  0  0
   21.7672  -19.7834  -13.9446 C   0  0  0  0  0  0  0  0  0  0  0  0
   21.5558  -18.7180  -13.3266 O   0  0  0  0  0  0  0  0  0  0  0  0
   24.4949  -20.9421   -8.8332 N   0  0  0  0  0  0  0  0  0  0  0  0
   20.6457  -20.5334  -14.3382 C   0  0  0  0  0  0  0  0  0  0  0  0
   19.2776  -20.1452  -14.0049 C   0  0  0  0  0  0  0  0  0  0  0  0
   18.6883  -19.2621  -15.0090 O   0  0  0  0  0  0  0  0  0  0  0  0
   17.5221  -18.8220  -14.8564 O   0  0  0  0  0  0  0  0  0  0  0  0
  2  1  1  6
  2  3  1  0
  2 10  1  0
  4  3  1  0
  4  5  2  0
  6  5  1  0
  7  6  2  0
  8  9  2  0
  8  7  1  0
  9  4  1  0
 10 11  2  0
 13 15  1  0
 13 12  1  0
 14 13  2  0
 16 15  1  0
 17 16  1  0
 17 18  1  0
 19 18  1  1
 20 19  1  0
 20 10  1  0
 21 22  2  0
 21 19  1  0
 23 21  1  0
 24 23  1  0
 24 25  1  0
 25 27  1  0
 26 25  2  0
M  END
$$$$
