FRG.pdb
     RDKit          3D

 27 27  0  0  1  0  0  0  0  0999 V2000
   29.2877  -29.3706  -19.2026 N   0  0  0  0  0  0  0  0  0  0  0  0
   28.1280  -29.9951  -18.6271 C   0  0  1  0  0  0  0  0  0  0  0  0
   28.1873  -29.7862  -17.1308 C   0  0  0  0  0  0  0  0  0  0  0  0
   28.8655  -30.8931  -16.4332 C   0  0  0  0  0  0  0  0  0  0  0  0
   28.1736  -31.9220  -15.8107 C   0  0  0  0  0  0  0  0  0  0  0  0
   28.9039  -32.9035  -15.1896 C   0  0  0  0  0  0  0  0  0  0  0  0
   30.2859  -32.8993  -15.1651 C   0  0  0  0  0  0  0  0  0  0  0  0
   30.9828  -31.8777  -15.7830 C   0  0  0  0  0  0  0  0  0  0  0  0
   30.2478  -30.8858  -16.4106 C   0  0  0  0  0  0  0  0  0  0  0  0
   26.8999  -29.2549  -19.0967 C   0  0  0  0  0  0  0  0  0  0  0  0
   27.0373  -28.1781  -19.7278 O   0  0  0  0  0  0  0  0  0  0  0  0
   19.8926  -31.9239  -23.5899 N   0  0  0  0  0  0  0  0  0  0  0  0
   19.7484  -30.5079  -23.3895 C   0  0  0  0  0  0  0  0  0  0  0  0
   18.8446  -29.8437  -24.0221 N   0  0  0  0  0  0  0  0  0  0  0  0
   20.5952  -29.8155  -22.4944 N   0  0  0  0  0  0  0  0  0  0  0  0
   21.7636  -30.4116  -21.9075 C   0  0  0  0  0  0  0  0  0  0  0  0
   22.4642  -29.4333  -20.9830 C   0  0  0  0  0  0  0  0  0  0  0  0
   23.6457  -30.0896  -20.3186 C   0  0  0  0  0  0  0  0  0  0  0  0
   24.3831  -29.2084  -19.3724 C   0  0  2  0  0  0  0  0  0  0  0  0
   25.5975  -29.7526  -18.8386 N   0  0  0  0  0  0  0  0  0  0  0  0
   23.5234  -28.5872  -18.3175 C   0  0  0  0  0  0  0  0  0  0  0  0
   23.2795  -29.1780  -17.2436 O   0  0  0  0  0  0  0  0  0  0  0  0
   18.7118  -28.8240  -23.8739 N   0  0  0  0  0  0  0  0  0  0  0  0
   22.9570  -27.3132  -18.4950 C   0  0  0  0  0  0  0  0  0  0  0  0
   22.1623  -26.6499  -17.4644 C   0  0  0  0  0  0  0  0  0  0  0  0
   20.7629  -27.0701  -17.4827 O   0  0  0  0  0  0  0  0  0  0  0  0
   20.3580  -27.8792  -18.3535 O   0  0  0  0  0  0  0  0  0  0  0  0
  2  1  1  6
  2  3  1  0
  2 10  1  0
  4  3  1  0
  4  5  2  0
  6  5  1  0
  7  6  2  0
  8  9  2  0
  8  7  1  0
  9  4  1  0
 10 11  2  0
 13 15  1  0
 13 12  1  0
 14 13  2  0
 16 15  1  0
 17 16  1  0
 17 18  1  0
 19 18  1  1
 20 19  1  0
 20 10  1  0
 21 22  2  0
 21 19  1  0
 23 21  1  0
 24 23  1  0
 24 25  1  0
 25 27  1  0
 26 25  2  0
M  END
$$$$
