FRG.pdb
     RDKit          3D

 27 27  0  0  1  0  0  0  0  0999 V2000
   26.5243  -22.6890  -11.4198 N   0  0  0  0  0  0  0  0  0  0  0  0
   25.7841  -21.5962  -10.8503 C   0  0  1  0  0  0  0  0  0  0  0  0
   26.6792  -20.3778  -10.8627 C   0  0  0  0  0  0  0  0  0  0  0  0
   27.6750  -20.3984   -9.7765 C   0  0  0  0  0  0  0  0  0  0  0  0
   28.9248  -20.9842   -9.9171 C   0  0  0  0  0  0  0  0  0  0  0  0
   29.7761  -20.9473   -8.8417 C   0  0  0  0  0  0  0  0  0  0  0  0
   29.4328  -20.3539   -7.6414 C   0  0  0  0  0  0  0  0  0  0  0  0
   28.1894  -19.7681   -7.4932 C   0  0  0  0  0  0  0  0  0  0  0  0
   27.3284  -19.8041   -8.5773 C   0  0  0  0  0  0  0  0  0  0  0  0
   24.6305  -21.2677  -11.7657 C   0  0  0  0  0  0  0  0  0  0  0  0
   24.7511  -21.4672  -12.9996 O   0  0  0  0  0  0  0  0  0  0  0  0
   18.7125  -24.0826  -10.2014 N   0  0  0  0  0  0  0  0  0  0  0  0
   18.9154  -23.6759   -8.8377 C   0  0  0  0  0  0  0  0  0  0  0  0
   18.8119  -24.5262   -7.8763 N   0  0  0  0  0  0  0  0  0  0  0  0
   19.2325  -22.3347   -8.5239 N   0  0  0  0  0  0  0  0  0  0  0  0
   19.4199  -21.3227   -9.5268 C   0  0  0  0  0  0  0  0  0  0  0  0
   20.7926  -21.4389  -10.1631 C   0  0  0  0  0  0  0  0  0  0  0  0
   20.9685  -20.3924  -11.2319 C   0  0  0  0  0  0  0  0  0  0  0  0
   22.2216  -20.5306  -12.0232 C   0  0  2  0  0  0  0  0  0  0  0  0
   23.4164  -20.7392  -11.2585 N   0  0  0  0  0  0  0  0  0  0  0  0
   22.3957  -19.4878  -13.0816 C   0  0  0  0  0  0  0  0  0  0  0  0
   22.3257  -18.2691  -12.8141 O   0  0  0  0  0  0  0  0  0  0  0  0
   18.9438  -24.2479   -6.8840 N   0  0  0  0  0  0  0  0  0  0  0  0
   22.6453  -19.8406  -14.4190 C   0  0  0  0  0  0  0  0  0  0  0  0
   21.7021  -20.6142  -15.2224 C   0  0  0  0  0  0  0  0  0  0  0  0
   20.7545  -19.7653  -15.9412 O   0  0  0  0  0  0  0  0  0  0  0  0
   20.5851  -18.5713  -15.5913 O   0  0  0  0  0  0  0  0  0  0  0  0
  2  1  1  6
  2  3  1  0
  2 10  1  0
  4  3  1  0
  4  5  2  0
  6  5  1  0
  7  6  2  0
  8  9  2  0
  8  7  1  0
  9  4  1  0
 10 11  2  0
 13 15  1  0
 13 12  1  0
 14 13  2  0
 16 15  1  0
 17 16  1  0
 17 18  1  0
 19 18  1  1
 20 19  1  0
 20 10  1  0
 21 22  2  0
 21 19  1  0
 23 21  1  0
 24 23  1  0
 24 25  1  0
 25 27  1  0
 26 25  2  0
M  END
$$$$
