FRG.pdb
     RDKit          3D

 27 27  0  0  1  0  0  0  0  0999 V2000
   26.9237  -22.2459  -13.7146 N   0  0  0  0  0  0  0  0  0  0  0  0
   26.1273  -21.2849  -13.0014 C   0  0  1  0  0  0  0  0  0  0  0  0
   26.9953  -20.0765  -12.7322 C   0  0  0  0  0  0  0  0  0  0  0  0
   28.0630  -20.3554  -11.7556 C   0  0  0  0  0  0  0  0  0  0  0  0
   29.3796  -20.5824  -12.1295 C   0  0  0  0  0  0  0  0  0  0  0  0
   30.2948  -20.8329  -11.1385 C   0  0  0  0  0  0  0  0  0  0  0  0
   29.9514  -20.8657   -9.8000 C   0  0  0  0  0  0  0  0  0  0  0  0
   28.6417  -20.6406   -9.4190 C   0  0  0  0  0  0  0  0  0  0  0  0
   27.7161  -20.3875  -10.4176 C   0  0  0  0  0  0  0  0  0  0  0  0
   25.0243  -20.8037  -13.9117 C   0  0  0  0  0  0  0  0  0  0  0  0
   25.2513  -20.6874  -15.1412 O   0  0  0  0  0  0  0  0  0  0  0  0
   21.4591  -21.2134   -9.2517 N   0  0  0  0  0  0  0  0  0  0  0  0
   20.2669  -21.8033   -9.7962 C   0  0  0  0  0  0  0  0  0  0  0  0
   19.7846  -22.8886   -9.2985 N   0  0  0  0  0  0  0  0  0  0  0  0
   19.5994  -21.2048  -10.8890 N   0  0  0  0  0  0  0  0  0  0  0  0
   19.9768  -19.9274  -11.4282 C   0  0  0  0  0  0  0  0  0  0  0  0
   21.3773  -19.9779  -12.0101 C   0  0  0  0  0  0  0  0  0  0  0  0
   21.3234  -19.9706  -13.5153 C   0  0  0  0  0  0  0  0  0  0  0  0
   22.6573  -19.9435  -14.1752 C   0  0  2  0  0  0  0  0  0  0  0  0
   23.7400  -20.4816  -13.4044 N   0  0  0  0  0  0  0  0  0  0  0  0
   23.0020  -18.6314  -14.8059 C   0  0  0  0  0  0  0  0  0  0  0  0
   23.1968  -17.6076  -14.1163 O   0  0  0  0  0  0  0  0  0  0  0  0
   18.9068  -23.3120   -9.6586 N   0  0  0  0  0  0  0  0  0  0  0  0
   23.1201  -18.5012  -16.2004 C   0  0  0  0  0  0  0  0  0  0  0  0
   24.1336  -19.2093  -16.9782 C   0  0  0  0  0  0  0  0  0  0  0  0
   25.1778  -18.3170  -17.4769 O   0  0  0  0  0  0  0  0  0  0  0  0
   25.0482  -17.0725  -17.3717 O   0  0  0  0  0  0  0  0  0  0  0  0
  2  1  1  6
  2  3  1  0
  2 10  1  0
  4  3  1  0
  4  5  2  0
  6  5  1  0
  7  6  2  0
  8  9  2  0
  8  7  1  0
  9  4  1  0
 10 11  2  0
 13 15  1  0
 13 12  1  0
 14 13  2  0
 16 15  1  0
 17 16  1  0
 17 18  1  0
 19 18  1  1
 20 19  1  0
 20 10  1  0
 21 22  2  0
 21 19  1  0
 23 21  1  0
 24 23  1  0
 24 25  1  0
 25 27  1  0
 26 25  2  0
M  END
$$$$
