FRG.pdb
     RDKit          3D

 27 27  0  0  1  0  0  0  0  0999 V2000
   19.6778  -23.6068  -13.7780 N   0  0  0  0  0  0  0  0  0  0  0  0
   19.9839  -23.5822  -12.3738 C   0  0  1  0  0  0  0  0  0  0  0  0
   19.6586  -22.1996  -11.8556 C   0  0  0  0  0  0  0  0  0  0  0  0
   20.4753  -21.1517  -12.4935 C   0  0  0  0  0  0  0  0  0  0  0  0
   21.8247  -20.9828  -12.2191 C   0  0  0  0  0  0  0  0  0  0  0  0
   22.4912  -19.9751  -12.8692 C   0  0  0  0  0  0  0  0  0  0  0  0
   21.8699  -19.1359  -13.7750 C   0  0  0  0  0  0  0  0  0  0  0  0
   20.5256  -19.2975  -14.0540 C   0  0  0  0  0  0  0  0  0  0  0  0
   19.8507  -20.3141  -13.3990 C   0  0  0  0  0  0  0  0  0  0  0  0
   19.0424  -24.5204  -11.6596 C   0  0  0  0  0  0  0  0  0  0  0  0
   17.8450  -24.5877  -12.0316 O   0  0  0  0  0  0  0  0  0  0  0  0
   22.0560  -30.5210  -12.6121 N   0  0  0  0  0  0  0  0  0  0  0  0
   21.6837  -30.4339  -11.2266 C   0  0  0  0  0  0  0  0  0  0  0  0
   22.5092  -30.7814  -10.3014 N   0  0  0  0  0  0  0  0  0  0  0  0
   20.4042  -29.9651  -10.8509 N   0  0  0  0  0  0  0  0  0  0  0  0
   19.4161  -29.5456  -11.8062 C   0  0  0  0  0  0  0  0  0  0  0  0
   19.0798  -28.0768  -11.6276 C   0  0  0  0  0  0  0  0  0  0  0  0
   19.0341  -27.7204  -10.1650 C   0  0  0  0  0  0  0  0  0  0  0  0
   18.6877  -26.2988   -9.8920 C   0  0  2  0  0  0  0  0  0  0  0  0
   19.4850  -25.3249  -10.5790 N   0  0  0  0  0  0  0  0  0  0  0  0
   18.5183  -25.9774   -8.4408 C   0  0  0  0  0  0  0  0  0  0  0  0
   17.9976  -26.7919   -7.6490 O   0  0  0  0  0  0  0  0  0  0  0  0
   22.2432  -30.7647   -9.2972 N   0  0  0  0  0  0  0  0  0  0  0  0
   18.9396  -24.7449   -7.9128 C   0  0  0  0  0  0  0  0  0  0  0  0
   18.6717  -24.3414   -6.5347 C   0  0  0  0  0  0  0  0  0  0  0  0
   17.3026  -23.8658   -6.3491 O   0  0  0  0  0  0  0  0  0  0  0  0
   16.4963  -23.8714   -7.3118 O   0  0  0  0  0  0  0  0  0  0  0  0
  2  1  1  6
  2  3  1  0
  2 10  1  0
  4  3  1  0
  4  5  2  0
  6  5  1  0
  7  6  2  0
  8  9  2  0
  8  7  1  0
  9  4  1  0
 10 11  2  0
 13 15  1  0
 13 12  1  0
 14 13  2  0
 16 15  1  0
 17 16  1  0
 17 18  1  0
 19 18  1  1
 20 19  1  0
 20 10  1  0
 21 22  2  0
 21 19  1  0
 23 21  1  0
 24 23  1  0
 24 25  1  0
 25 27  1  0
 26 25  2  0
M  END
$$$$
