FRG.pdb
     RDKit          3D

 27 27  0  0  1  0  0  0  0  0999 V2000
   16.9516   -7.8801   -9.2240 N   0  0  0  0  0  0  0  0  0  0  0  0
   16.0083   -7.5667  -10.2623 C   0  0  1  0  0  0  0  0  0  0  0  0
   15.1692   -6.4026   -9.7860 C   0  0  0  0  0  0  0  0  0  0  0  0
   14.2166   -6.7888   -8.7299 C   0  0  0  0  0  0  0  0  0  0  0  0
   14.4557   -6.5551   -7.3835 C   0  0  0  0  0  0  0  0  0  0  0  0
   13.5013   -6.9554   -6.4827 C   0  0  0  0  0  0  0  0  0  0  0  0
   12.3274   -7.5747   -6.8688 C   0  0  0  0  0  0  0  0  0  0  0  0
   12.0816   -7.8112   -8.2084 C   0  0  0  0  0  0  0  0  0  0  0  0
   13.0435   -7.4080   -9.1196 C   0  0  0  0  0  0  0  0  0  0  0  0
   16.7667   -7.0614  -11.4649 C   0  0  0  0  0  0  0  0  0  0  0  0
   17.8290   -6.4145  -11.2921 O   0  0  0  0  0  0  0  0  0  0  0  0
   15.9842  -12.3478  -14.5693 N   0  0  0  0  0  0  0  0  0  0  0  0
   17.3398  -12.4920  -15.0249 C   0  0  0  0  0  0  0  0  0  0  0  0
   17.9717  -13.6026  -14.8658 N   0  0  0  0  0  0  0  0  0  0  0  0
   18.0072  -11.4180  -15.6566 N   0  0  0  0  0  0  0  0  0  0  0  0
   17.3707  -10.1600  -15.9347 C   0  0  0  0  0  0  0  0  0  0  0  0
   17.5821   -9.1824  -14.7936 C   0  0  0  0  0  0  0  0  0  0  0  0
   16.9361   -7.8585  -15.1070 C   0  0  0  0  0  0  0  0  0  0  0  0
   16.9635   -6.8829  -13.9831 C   0  0  2  0  0  0  0  0  0  0  0  0
   16.3021   -7.3036  -12.7825 N   0  0  0  0  0  0  0  0  0  0  0  0
   16.6002   -5.4858  -14.3758 C   0  0  0  0  0  0  0  0  0  0  0  0
   15.4197   -5.0795  -14.3222 O   0  0  0  0  0  0  0  0  0  0  0  0
   18.9643  -13.7124  -15.1522 N   0  0  0  0  0  0  0  0  0  0  0  0
   17.5752   -4.5764  -14.8204 C   0  0  0  0  0  0  0  0  0  0  0  0
   17.2487   -3.2305  -15.2846 C   0  0  0  0  0  0  0  0  0  0  0  0
   18.4355   -2.4706  -15.6709 O   0  0  0  0  0  0  0  0  0  0  0  0
   19.5783   -2.9735  -15.5373 O   0  0  0  0  0  0  0  0  0  0  0  0
  2  1  1  1
  2  3  1  0
  2 10  1  0
  4  3  1  0
  4  5  2  0
  6  5  1  0
  7  6  2  0
  8  9  2  0
  8  7  1  0
  9  4  1  0
 10 11  2  0
 13 15  1  0
 13 12  1  0
 14 13  2  0
 16 15  1  0
 17 16  1  0
 17 18  1  0
 19 18  1  6
 20 19  1  0
 20 10  1  0
 21 22  2  0
 21 19  1  0
 23 21  1  0
 24 23  1  0
 24 25  1  0
 25 27  1  0
 26 25  2  0
M  END
$$$$
