FTP.pdb
     RDKit          3D

 26 27  0  0  1  0  0  0  0  0999 V2000
    8.1154  -16.5979   26.9088 N   0  0  0  0  0  0  0  0  0  0  0  0
    7.4371  -16.4682   25.6454 C   0  0  1  0  0  0  0  0  0  0  0  0
    6.1568  -15.7095   25.8611 C   0  0  0  0  0  0  0  0  0  0  0  0
    6.5032  -14.3484   26.3393 C   0  0  0  0  0  0  0  0  0  0  0  0
    7.4369  -14.1594   27.3558 C   0  0  0  0  0  0  0  0  0  0  0  0
    7.7675  -12.9029   27.8150 C   0  0  0  0  0  0  0  0  0  0  0  0
    7.1688  -11.8049   27.2651 C   0  0  0  0  0  0  0  0  0  0  0  0
    6.2489  -11.9486   26.2671 C   0  0  0  0  0  0  0  0  0  0  0  0
    5.9224  -13.2028   25.8125 C   0  0  0  0  0  0  0  0  0  0  0  0
    8.2887  -15.8486   24.6047 C   0  0  0  0  0  0  0  0  0  0  0  0
    9.1978  -15.0627   25.0434 O   0  0  0  0  0  0  0  0  0  0  0  0
   11.2505  -15.7146   23.4984 C   0  0  0  0  0  0  0  0  0  0  0  0
   10.3757  -16.2833   22.3808 C   0  0  1  0  0  0  0  0  0  0  0  0
   10.2312  -17.6269   22.4558 O   0  0  0  0  0  0  0  0  0  0  0  0
    9.1122  -15.4656   22.2321 C   0  0  2  0  0  0  0  0  0  0  0  0
    8.1621  -16.0651   23.2143 N   0  0  0  0  0  0  0  0  0  0  0  0
    8.5205  -15.4603   20.9015 C   0  0  0  0  0  0  0  0  0  0  0  0
    8.1933  -16.6162   20.4526 O   0  0  0  0  0  0  0  0  0  0  0  0
    8.2533  -14.3739   20.0393 N   0  0  0  0  0  0  0  0  0  0  0  0
    8.5408  -12.9925   20.4733 C   0  0  0  0  0  0  0  0  0  0  0  0
    8.8615  -12.2782   19.1883 C   0  0  0  0  0  0  0  0  0  0  0  0
    7.7420  -12.8040   18.3104 C   0  0  0  0  0  0  0  0  0  0  0  0
    7.7453  -14.2828   18.7115 C   0  0  1  0  0  0  0  0  0  0  0  0
    8.6011  -14.9500   17.7008 C   0  0  0  0  0  0  0  0  0  0  0  0
    9.9007  -15.2845   18.0022 O   0  0  0  0  0  0  0  0  0  0  0  0
    8.1352  -15.2050   16.5790 O   0  0  0  0  0  0  0  0  0  0  0  0
  2  1  1  1
  2 10  1  0
  3  2  1  0
  3  4  1  0
  4  5  2  0
  4  9  1  0
  5  6  1  0
  6  7  2  0
  8  7  1  0
  9  8  2  0
 10 11  2  0
 13 12  1  1
 13 15  1  0
 14 13  1  0
 15 17  1  0
 15 16  1  1
 16 10  1  0
 17 18  2  0
 19 17  1  0
 19 20  1  0
 20 21  1  0
 22 21  1  0
 23 19  1  0
 23 22  1  0
 23 24  1  6
 25 24  1  0
 26 24  2  0
M  END
$$$$
