FTP.pdb
     RDKit          3D

 26 27  0  0  1  0  0  0  0  0999 V2000
    6.3829  -16.3470   26.1654 N   0  0  0  0  0  0  0  0  0  0  0  0
    6.9501  -15.4268   25.2143 C   0  0  1  0  0  0  0  0  0  0  0  0
    7.9180  -14.5270   25.9318 C   0  0  0  0  0  0  0  0  0  0  0  0
    7.1683  -13.3466   26.4277 C   0  0  0  0  0  0  0  0  0  0  0  0
    7.5055  -12.7352   27.6332 C   0  0  0  0  0  0  0  0  0  0  0  0
    6.8176  -11.6408   28.1108 C   0  0  0  0  0  0  0  0  0  0  0  0
    5.7740  -11.1331   27.3899 C   0  0  0  0  0  0  0  0  0  0  0  0
    5.4129  -11.7043   26.2040 C   0  0  0  0  0  0  0  0  0  0  0  0
    6.1013  -12.7949   25.7318 C   0  0  0  0  0  0  0  0  0  0  0  0
    7.5724  -16.1147   24.0603 C   0  0  0  0  0  0  0  0  0  0  0  0
    7.8245  -17.3561   24.2391 O   0  0  0  0  0  0  0  0  0  0  0  0
    7.0309  -14.9699   20.3493 C   0  0  0  0  0  0  0  0  0  0  0  0
    8.4962  -15.3660   20.5327 C   0  0  1  0  0  0  0  0  0  0  0  0
    9.3462  -14.3219   20.3947 O   0  0  0  0  0  0  0  0  0  0  0  0
    8.6601  -16.2244   21.7671 C   0  0  2  0  0  0  0  0  0  0  0  0
    7.8906  -15.5068   22.8253 N   0  0  0  0  0  0  0  0  0  0  0  0
   10.0322  -16.4401   22.2044 C   0  0  0  0  0  0  0  0  0  0  0  0
   10.6889  -15.3701   22.4662 O   0  0  0  0  0  0  0  0  0  0  0  0
   10.7405  -17.6489   22.3838 N   0  0  0  0  0  0  0  0  0  0  0  0
   10.0655  -18.9444   22.1706 C   0  0  0  0  0  0  0  0  0  0  0  0
   11.1761  -19.8496   21.7107 C   0  0  0  0  0  0  0  0  0  0  0  0
   12.2524  -19.4717   22.7103 C   0  0  0  0  0  0  0  0  0  0  0  0
   12.0889  -17.9485   22.7323 C   0  0  1  0  0  0  0  0  0  0  0  0
   13.0817  -17.4442   21.7529 C   0  0  0  0  0  0  0  0  0  0  0  0
   12.6766  -17.0160   20.5103 O   0  0  0  0  0  0  0  0  0  0  0  0
   14.2830  -17.4115   22.0633 O   0  0  0  0  0  0  0  0  0  0  0  0
  2  1  1  1
  2 10  1  0
  3  2  1  0
  3  4  1  0
  4  5  2  0
  4  9  1  0
  5  6  1  0
  6  7  2  0
  8  7  1  0
  9  8  2  0
 10 11  2  0
 13 12  1  1
 13 15  1  0
 14 13  1  0
 15 17  1  0
 15 16  1  1
 16 10  1  0
 17 18  2  0
 19 17  1  0
 19 20  1  0
 20 21  1  0
 22 21  1  0
 23 19  1  0
 23 22  1  0
 23 24  1  6
 25 24  1  0
 26 24  2  0
M  END
$$$$
