FTP.pdb
     RDKit          3D

 26 27  0  0  1  0  0  0  0  0999 V2000
    6.7524  -15.5010   26.1792 N   0  0  0  0  0  0  0  0  0  0  0  0
    6.6642  -14.9526   24.8509 C   0  0  1  0  0  0  0  0  0  0  0  0
    7.2038  -13.5491   24.8717 C   0  0  0  0  0  0  0  0  0  0  0  0
    7.2770  -13.1050   26.2855 C   0  0  0  0  0  0  0  0  0  0  0  0
    8.4371  -13.2831   27.0359 C   0  0  0  0  0  0  0  0  0  0  0  0
    8.5214  -12.8806   28.3511 C   0  0  0  0  0  0  0  0  0  0  0  0
    7.4428  -12.2891   28.9456 C   0  0  0  0  0  0  0  0  0  0  0  0
    6.2881  -12.0970   28.2438 C   0  0  0  0  0  0  0  0  0  0  0  0
    6.2086  -12.4998   26.9331 C   0  0  0  0  0  0  0  0  0  0  0  0
    7.3394  -15.7990   23.8410 C   0  0  0  0  0  0  0  0  0  0  0  0
    7.5363  -17.0130   24.1935 O   0  0  0  0  0  0  0  0  0  0  0  0
    6.7173  -15.1410   20.0321 C   0  0  0  0  0  0  0  0  0  0  0  0
    8.1672  -15.5821   20.2346 C   0  0  1  0  0  0  0  0  0  0  0  0
    9.0595  -14.5995   19.9700 O   0  0  0  0  0  0  0  0  0  0  0  0
    8.3184  -16.3081   21.5527 C   0  0  2  0  0  0  0  0  0  0  0  0
    7.7613  -15.3637   22.5649 N   0  0  0  0  0  0  0  0  0  0  0  0
    9.6794  -16.6815   21.9114 C   0  0  0  0  0  0  0  0  0  0  0  0
   10.3969  -15.7242   22.3736 O   0  0  0  0  0  0  0  0  0  0  0  0
   10.3202  -17.9375   21.8278 N   0  0  0  0  0  0  0  0  0  0  0  0
    9.5821  -19.1169   21.3345 C   0  0  0  0  0  0  0  0  0  0  0  0
   10.6514  -19.9605   20.6949 C   0  0  0  0  0  0  0  0  0  0  0  0
   11.7287  -19.8678   21.7585 C   0  0  0  0  0  0  0  0  0  0  0  0
   11.6449  -18.3789   22.1101 C   0  0  1  0  0  0  0  0  0  0  0  0
   12.6794  -17.7297   21.2690 C   0  0  0  0  0  0  0  0  0  0  0  0
   13.9887  -17.6855   21.6879 O   0  0  0  0  0  0  0  0  0  0  0  0
   12.3545  -17.2256   20.1824 O   0  0  0  0  0  0  0  0  0  0  0  0
  2  1  1  1
  2 10  1  0
  3  2  1  0
  3  4  1  0
  4  5  2  0
  4  9  1  0
  5  6  1  0
  6  7  2  0
  8  7  1  0
  9  8  2  0
 10 11  2  0
 13 12  1  1
 13 15  1  0
 14 13  1  0
 15 17  1  0
 15 16  1  1
 16 10  1  0
 17 18  2  0
 19 17  1  0
 19 20  1  0
 20 21  1  0
 22 21  1  0
 23 19  1  0
 23 22  1  0
 23 24  1  6
 25 24  1  0
 26 24  2  0
M  END
$$$$
