FTP.pdb
     RDKit          3D

 26 27  0  0  1  0  0  0  0  0999 V2000
    5.8146  -17.2586   25.8028 N   0  0  0  0  0  0  0  0  0  0  0  0
    6.6089  -16.1546   25.3302 C   0  0  1  0  0  0  0  0  0  0  0  0
    7.3969  -15.5986   26.4840 C   0  0  0  0  0  0  0  0  0  0  0  0
    7.0487  -14.1638   26.6303 C   0  0  0  0  0  0  0  0  0  0  0  0
    8.0295  -13.1762   26.5707 C   0  0  0  0  0  0  0  0  0  0  0  0
    7.7247  -11.8394   26.7086 C   0  0  0  0  0  0  0  0  0  0  0  0
    6.4274  -11.4609   26.9098 C   0  0  0  0  0  0  0  0  0  0  0  0
    5.4378  -12.3986   26.9741 C   0  0  0  0  0  0  0  0  0  0  0  0
    5.7462  -13.7299   26.8362 C   0  0  0  0  0  0  0  0  0  0  0  0
    7.4732  -16.5254   24.1866 C   0  0  0  0  0  0  0  0  0  0  0  0
    7.9766  -17.7002   24.2445 O   0  0  0  0  0  0  0  0  0  0  0  0
    6.8669  -14.9256   20.5838 C   0  0  0  0  0  0  0  0  0  0  0  0
    8.3588  -15.1226   20.8545 C   0  0  1  0  0  0  0  0  0  0  0  0
    9.0260  -13.9550   21.0069 O   0  0  0  0  0  0  0  0  0  0  0  0
    8.5670  -16.1749   21.9207 C   0  0  2  0  0  0  0  0  0  0  0  0
    7.7624  -15.6938   23.0817 N   0  0  0  0  0  0  0  0  0  0  0  0
    9.9486  -16.3945   22.3250 C   0  0  0  0  0  0  0  0  0  0  0  0
   10.4699  -15.4391   23.0034 O   0  0  0  0  0  0  0  0  0  0  0  0
   10.7926  -17.5008   22.0827 N   0  0  0  0  0  0  0  0  0  0  0  0
   10.2700  -18.6973   21.3938 C   0  0  0  0  0  0  0  0  0  0  0  0
   11.4745  -19.2474   20.6790 C   0  0  0  0  0  0  0  0  0  0  0  0
   12.5065  -19.1406   21.7853 C   0  0  0  0  0  0  0  0  0  0  0  0
   12.1688  -17.7562   22.3480 C   0  0  1  0  0  0  0  0  0  0  0  0
   13.0905  -16.8263   21.6515 C   0  0  0  0  0  0  0  0  0  0  0  0
   12.6425  -16.0611   20.6001 O   0  0  0  0  0  0  0  0  0  0  0  0
   14.2712  -16.7435   22.0251 O   0  0  0  0  0  0  0  0  0  0  0  0
  2  1  1  1
  2 10  1  0
  3  2  1  0
  3  4  1  0
  4  5  2  0
  4  9  1  0
  5  6  1  0
  6  7  2  0
  8  7  1  0
  9  8  2  0
 10 11  2  0
 13 12  1  1
 13 15  1  0
 14 13  1  0
 15 17  1  0
 15 16  1  1
 16 10  1  0
 17 18  2  0
 19 17  1  0
 19 20  1  0
 20 21  1  0
 22 21  1  0
 23 19  1  0
 23 22  1  0
 23 24  1  6
 25 24  1  0
 26 24  2  0
M  END
$$$$
