FTP.pdb
     RDKit          3D

 26 27  0  0  1  0  0  0  0  0999 V2000
    6.1517  -15.6126   25.7290 N   0  0  0  0  0  0  0  0  0  0  0  0
    6.5072  -15.4088   24.3488 C   0  0  1  0  0  0  0  0  0  0  0  0
    6.7388  -13.9404   24.1222 C   0  0  0  0  0  0  0  0  0  0  0  0
    6.7977  -13.2739   25.4464 C   0  0  0  0  0  0  0  0  0  0  0  0
    8.0183  -12.9909   26.0552 C   0  0  0  0  0  0  0  0  0  0  0  0
    8.0916  -12.3762   27.2864 C   0  0  0  0  0  0  0  0  0  0  0  0
    6.9411  -12.0303   27.9369 C   0  0  0  0  0  0  0  0  0  0  0  0
    5.7256  -12.2908   27.3733 C   0  0  0  0  0  0  0  0  0  0  0  0
    5.6573  -12.9036   26.1461 C   0  0  0  0  0  0  0  0  0  0  0  0
    7.6665  -16.2309   23.9337 C   0  0  0  0  0  0  0  0  0  0  0  0
    8.1031  -17.0422   24.8214 O   0  0  0  0  0  0  0  0  0  0  0  0
   10.4631  -18.0436   20.2360 C   0  0  0  0  0  0  0  0  0  0  0  0
    9.3128  -17.1975   20.7826 C   0  0  1  0  0  0  0  0  0  0  0  0
    8.1136  -17.5313   20.2514 O   0  0  0  0  0  0  0  0  0  0  0  0
    9.3935  -17.1087   22.2902 C   0  0  2  0  0  0  0  0  0  0  0  0
    8.2926  -16.1750   22.6684 N   0  0  0  0  0  0  0  0  0  0  0  0
   10.6613  -16.6310   22.8241 C   0  0  0  0  0  0  0  0  0  0  0  0
   11.0979  -15.5499   22.2901 O   0  0  0  0  0  0  0  0  0  0  0  0
   11.4743  -17.1800   23.8404 N   0  0  0  0  0  0  0  0  0  0  0  0
   11.0609  -18.4140   24.5373 C   0  0  0  0  0  0  0  0  0  0  0  0
   12.3663  -19.0616   24.9128 C   0  0  0  0  0  0  0  0  0  0  0  0
   13.1140  -17.8537   25.4442 C   0  0  0  0  0  0  0  0  0  0  0  0
   12.7329  -16.8062   24.3931 C   0  0  1  0  0  0  0  0  0  0  0  0
   13.8437  -16.8298   23.4109 C   0  0  0  0  0  0  0  0  0  0  0  0
   15.0333  -16.1992   23.6915 O   0  0  0  0  0  0  0  0  0  0  0  0
   13.6917  -17.4240   22.3318 O   0  0  0  0  0  0  0  0  0  0  0  0
  2  1  1  1
  2 10  1  0
  3  2  1  0
  3  4  1  0
  4  5  2  0
  4  9  1  0
  5  6  1  0
  6  7  2  0
  8  7  1  0
  9  8  2  0
 10 11  2  0
 13 12  1  1
 13 15  1  0
 14 13  1  0
 15 17  1  0
 15 16  1  6
 16 10  1  0
 17 18  2  0
 19 17  1  0
 19 20  1  0
 20 21  1  0
 22 21  1  0
 23 19  1  0
 23 22  1  0
 23 24  1  6
 25 24  1  0
 26 24  2  0
M  END
$$$$
