MSQ.pdb
     RDKit          3D

 24 23  0  0  1  0  0  0  0  0999 V2000
   23.0318  -25.1387  -12.5150 C   0  0  0  0  0  0  0  0  0  0  0  0
   24.1372  -23.7990  -13.0262 S   0  0  0  0  0  0  0  0  0  0  0  0
   23.6632  -22.2660  -12.1899 C   0  0  0  0  0  0  0  0  0  0  0  0
   24.5736  -21.1143  -12.5656 C   0  0  0  0  0  0  0  0  0  0  0  0
   24.4421  -20.9260  -14.0748 C   0  0  2  0  0  0  0  0  0  0  0  0
   24.8627  -22.0857  -14.7933 N   0  0  0  0  0  0  0  0  0  0  0  0
   25.2618  -19.7069  -14.4259 C   0  0  0  0  0  0  0  0  0  0  0  0
   25.0075  -18.5766  -13.9454 O   0  0  0  0  0  0  0  0  0  0  0  0
   27.6973  -19.9079  -17.8371 O   0  0  0  0  0  0  0  0  0  0  0  0
   28.1549  -19.0872  -16.8146 C   0  0  0  0  0  0  0  0  0  0  0  0
   26.9603  -18.6542  -15.9936 C   0  0  2  0  0  0  0  0  0  0  0  0
   26.3564  -19.8022  -15.3186 N   0  0  0  0  0  0  0  0  0  0  0  0
   25.9601  -17.9287  -16.7905 C   0  0  0  0  0  0  0  0  0  0  0  0
   24.9368  -18.5491  -17.2637 O   0  0  0  0  0  0  0  0  0  0  0  0
   21.3356  -17.1773  -16.3667 N   0  0  0  0  0  0  0  0  0  0  0  0
   21.2873  -15.8553  -16.8463 C   0  0  0  0  0  0  0  0  0  0  0  0
   20.2076  -15.3521  -17.1911 O   0  0  0  0  0  0  0  0  0  0  0  0
   22.5368  -15.0616  -16.9388 C   0  0  0  0  0  0  0  0  0  0  0  0
   23.7390  -15.8542  -16.5105 C   0  0  0  0  0  0  0  0  0  0  0  0
   24.8219  -15.7849  -17.5013 C   0  0  2  0  0  0  0  0  0  0  0  0
   25.9961  -16.5657  -17.1104 N   0  0  0  0  0  0  0  0  0  0  0  0
   25.2718  -14.4620  -17.8600 C   0  0  0  0  0  0  0  0  0  0  0  0
   24.4584  -13.6004  -18.3359 O   0  0  0  0  0  0  0  0  0  0  0  0
   26.5711  -14.0498  -17.7149 O   0  0  0  0  0  0  0  0  0  0  0  0
  2  1  1  0
  2  3  1  0
  4  3  1  0
  5  4  1  0
  5  6  1  6
  7  8  2  0
  7  5  1  0
  9 10  1  0
 11 10  1  6
 11 12  1  0
 12  7  1  0
 13 11  1  0
 13 21  1  0
 14 13  2  0
 16 17  2  0
 16 15  1  0
 18 16  1  0
 19 18  1  0
 20 19  1  1
 20 21  1  0
 20 22  1  0
 22 24  1  0
 23 22  2  0
M  END
$$$$
