MSQ.pdb
     RDKit          3D

 24 23  0  0  1  0  0  0  0  0999 V2000
   23.1020  -26.9985  -20.8178 C   0  0  0  0  0  0  0  0  0  0  0  0
   23.8759  -27.1313  -22.4493 S   0  0  0  0  0  0  0  0  0  0  0  0
   25.6331  -26.7180  -22.3249 C   0  0  0  0  0  0  0  0  0  0  0  0
   26.2377  -27.2120  -21.0260 C   0  0  0  0  0  0  0  0  0  0  0  0
   27.6796  -26.7114  -20.9955 C   0  0  2  0  0  0  0  0  0  0  0  0
   28.3483  -26.9424  -22.2354 N   0  0  0  0  0  0  0  0  0  0  0  0
   28.3524  -27.4177  -19.8423 C   0  0  0  0  0  0  0  0  0  0  0  0
   28.9470  -28.5119  -19.9916 O   0  0  0  0  0  0  0  0  0  0  0  0
   27.7759  -25.9737  -16.0243 O   0  0  0  0  0  0  0  0  0  0  0  0
   29.0407  -26.5107  -16.2256 C   0  0  0  0  0  0  0  0  0  0  0  0
   28.9547  -27.4893  -17.3760 C   0  0  2  0  0  0  0  0  0  0  0  0
   28.3335  -26.8606  -18.5409 N   0  0  0  0  0  0  0  0  0  0  0  0
   28.2521  -28.7287  -17.0121 C   0  0  0  0  0  0  0  0  0  0  0  0
   27.0256  -28.9025  -17.3600 O   0  0  0  0  0  0  0  0  0  0  0  0
   28.1489  -33.7998  -18.6637 N   0  0  0  0  0  0  0  0  0  0  0  0
   27.1055  -33.9923  -17.7394 C   0  0  0  0  0  0  0  0  0  0  0  0
   26.5479  -35.0959  -17.6437 O   0  0  0  0  0  0  0  0  0  0  0  0
   26.6724  -32.8669  -16.8760 C   0  0  0  0  0  0  0  0  0  0  0  0
   27.4130  -31.5986  -17.1924 C   0  0  0  0  0  0  0  0  0  0  0  0
   28.0781  -31.0425  -16.0060 C   0  0  2  0  0  0  0  0  0  0  0  0
   28.7954  -29.7994  -16.2911 N   0  0  0  0  0  0  0  0  0  0  0  0
   28.9845  -31.9253  -15.3129 C   0  0  0  0  0  0  0  0  0  0  0  0
   30.2439  -31.7148  -15.3289 O   0  0  0  0  0  0  0  0  0  0  0  0
   28.5647  -33.0216  -14.6050 O   0  0  0  0  0  0  0  0  0  0  0  0
  2  1  1  0
  2  3  1  0
  4  3  1  0
  5  4  1  0
  5  6  1  6
  7  8  2  0
  7  5  1  0
  9 10  1  0
 11 10  1  1
 11 12  1  0
 12  7  1  0
 13 11  1  0
 13 21  1  0
 14 13  2  0
 16 17  2  0
 16 15  1  0
 18 16  1  0
 19 18  1  0
 20 19  1  6
 20 21  1  0
 20 22  1  0
 22 24  1  0
 23 22  2  0
M  END
$$$$
