MSQ.pdb
     RDKit          3D

 24 23  0  0  1  0  0  0  0  0999 V2000
   14.7370  -13.6209  -16.9392 C   0  0  0  0  0  0  0  0  0  0  0  0
   15.5417  -12.5815  -18.1843 S   0  0  0  0  0  0  0  0  0  0  0  0
   17.2961  -12.3968  -17.7816 C   0  0  0  0  0  0  0  0  0  0  0  0
   17.5017  -11.5891  -16.5159 C   0  0  0  0  0  0  0  0  0  0  0  0
   18.9955  -11.6351  -16.2046 C   0  0  2  0  0  0  0  0  0  0  0  0
   19.4508  -12.9698  -15.9821 N   0  0  0  0  0  0  0  0  0  0  0  0
   19.2078  -10.7498  -14.9993 C   0  0  0  0  0  0  0  0  0  0  0  0
   18.8716  -11.1093  -13.8457 O   0  0  0  0  0  0  0  0  0  0  0  0
   20.7438   -6.8771  -15.5057 O   0  0  0  0  0  0  0  0  0  0  0  0
   21.0770   -7.5443  -14.3343 C   0  0  0  0  0  0  0  0  0  0  0  0
   19.9716   -8.5307  -14.0283 C   0  0  2  0  0  0  0  0  0  0  0  0
   19.8005   -9.4713  -15.1347 N   0  0  0  0  0  0  0  0  0  0  0  0
   18.6997   -7.8701  -13.7002 C   0  0  0  0  0  0  0  0  0  0  0  0
   17.8273   -7.6537  -14.6209 O   0  0  0  0  0  0  0  0  0  0  0  0
   15.1998   -7.5510   -8.4954 N   0  0  0  0  0  0  0  0  0  0  0  0
   14.6813   -6.4825   -9.2501 C   0  0  0  0  0  0  0  0  0  0  0  0
   13.6908   -5.8536   -8.8485 O   0  0  0  0  0  0  0  0  0  0  0  0
   15.3252   -6.1089  -10.5328 C   0  0  0  0  0  0  0  0  0  0  0  0
   16.5038   -6.9862  -10.8465 C   0  0  0  0  0  0  0  0  0  0  0  0
   17.0739   -6.6858  -12.1670 C   0  0  2  0  0  0  0  0  0  0  0  0
   18.3084   -7.4257  -12.4310 N   0  0  0  0  0  0  0  0  0  0  0  0
   17.3257   -5.2935  -12.4490 C   0  0  0  0  0  0  0  0  0  0  0  0
   18.4913   -4.7949  -12.2963 O   0  0  0  0  0  0  0  0  0  0  0  0
   16.3546   -4.4334  -12.8921 O   0  0  0  0  0  0  0  0  0  0  0  0
  2  1  1  0
  2  3  1  0
  4  3  1  0
  5  4  1  0
  5  6  1  1
  7  8  2  0
  7  5  1  0
  9 10  1  0
 11 10  1  6
 11 12  1  0
 12  7  1  0
 13 11  1  0
 13 21  1  0
 14 13  2  0
 16 17  2  0
 16 15  1  0
 18 16  1  0
 19 18  1  0
 20 19  1  1
 20 21  1  0
 20 22  1  0
 22 24  1  0
 23 22  2  0
M  END
$$$$
