MSQ.pdb
     RDKit          3D

 24 23  0  0  1  0  0  0  0  0999 V2000
   28.1825  -11.6343  -16.5601 C   0  0  0  0  0  0  0  0  0  0  0  0
   27.9234  -13.0426  -15.4520 S   0  0  0  0  0  0  0  0  0  0  0  0
   26.1617  -13.4508  -15.3881 C   0  0  0  0  0  0  0  0  0  0  0  0
   25.3022  -12.3237  -15.9241 C   0  0  0  0  0  0  0  0  0  0  0  0
   23.8880  -12.8806  -16.0665 C   0  0  2  0  0  0  0  0  0  0  0  0
   23.8354  -13.9660  -16.9923 N   0  0  0  0  0  0  0  0  0  0  0  0
   23.0144  -11.7238  -16.4908 C   0  0  0  0  0  0  0  0  0  0  0  0
   23.0280  -11.2785  -17.6633 O   0  0  0  0  0  0  0  0  0  0  0  0
   20.3262  -10.0637  -13.7580 O   0  0  0  0  0  0  0  0  0  0  0  0
   19.9970  -10.0164  -15.1063 C   0  0  0  0  0  0  0  0  0  0  0  0
   21.2839   -9.9613  -15.8995 C   0  0  2  0  0  0  0  0  0  0  0  0
   22.1416  -11.0983  -15.5682 N   0  0  0  0  0  0  0  0  0  0  0  0
   22.0039   -8.6918  -15.7206 C   0  0  0  0  0  0  0  0  0  0  0  0
   22.9697   -8.6100  -14.8742 O   0  0  0  0  0  0  0  0  0  0  0  0
   24.1873   -2.2222  -18.5805 N   0  0  0  0  0  0  0  0  0  0  0  0
   23.4236   -3.4035  -18.5458 C   0  0  0  0  0  0  0  0  0  0  0  0
   22.7389   -3.7368  -19.5246 O   0  0  0  0  0  0  0  0  0  0  0  0
   23.4395   -4.2528  -17.3300 C   0  0  0  0  0  0  0  0  0  0  0  0
   22.5764   -5.4727  -17.4853 C   0  0  0  0  0  0  0  0  0  0  0  0
   22.5439   -6.2802  -16.2581 C   0  0  2  0  0  0  0  0  0  0  0  0
   21.7443   -7.4970  -16.4036 N   0  0  0  0  0  0  0  0  0  0  0  0
   22.1027   -5.6032  -15.0630 C   0  0  0  0  0  0  0  0  0  0  0  0
   20.8936   -5.7002  -14.6641 O   0  0  0  0  0  0  0  0  0  0  0  0
   22.9325   -4.8309  -14.2922 O   0  0  0  0  0  0  0  0  0  0  0  0
  2  1  1  0
  2  3  1  0
  4  3  1  0
  5  4  1  0
  5  6  1  6
  7  8  2  0
  7  5  1  0
  9 10  1  0
 11 10  1  1
 11 12  1  0
 12  7  1  0
 13 11  1  0
 13 21  1  0
 14 13  2  0
 16 17  2  0
 16 15  1  0
 18 16  1  0
 19 18  1  0
 20 19  1  6
 20 21  1  0
 20 22  1  0
 22 24  1  0
 23 22  2  0
M  END
$$$$
