MSQ.pdb
     RDKit          3D

 24 23  0  0  1  0  0  0  0  0999 V2000
   10.5001   -9.7718   -8.5904 C   0  0  0  0  0  0  0  0  0  0  0  0
   11.0801  -11.1792   -9.5707 S   0  0  0  0  0  0  0  0  0  0  0  0
   12.8753  -11.0803   -9.7751 C   0  0  0  0  0  0  0  0  0  0  0  0
   13.2846   -9.8634  -10.5802 C   0  0  0  0  0  0  0  0  0  0  0  0
   14.8087   -9.8865  -10.6650 C   0  0  2  0  0  0  0  0  0  0  0  0
   15.4049  -10.2316   -9.4146 N   0  0  0  0  0  0  0  0  0  0  0  0
   15.2305   -8.5166  -11.1413 C   0  0  0  0  0  0  0  0  0  0  0  0
   14.8582   -8.0558  -12.2469 O   0  0  0  0  0  0  0  0  0  0  0  0
   17.4385   -6.0703   -8.5995 O   0  0  0  0  0  0  0  0  0  0  0  0
   16.6130   -5.4572   -9.5329 C   0  0  0  0  0  0  0  0  0  0  0  0
   16.5181   -6.3646  -10.7396 C   0  0  2  0  0  0  0  0  0  0  0  0
   16.0690   -7.6992  -10.3457 N   0  0  0  0  0  0  0  0  0  0  0  0
   17.7788   -6.4367  -11.4929 C   0  0  0  0  0  0  0  0  0  0  0  0
   18.5484   -7.4603  -11.3687 O   0  0  0  0  0  0  0  0  0  0  0  0
   20.9493   -8.8557  -13.4614 N   0  0  0  0  0  0  0  0  0  0  0  0
   21.1913   -8.1657  -14.6636 C   0  0  0  0  0  0  0  0  0  0  0  0
   22.2100   -8.4042  -15.3296 O   0  0  0  0  0  0  0  0  0  0  0  0
   20.2207   -7.1479  -15.1344 C   0  0  0  0  0  0  0  0  0  0  0  0
   19.1160   -6.9231  -14.1413 C   0  0  0  0  0  0  0  0  0  0  0  0
   19.3306   -5.7034  -13.3505 C   0  0  2  0  0  0  0  0  0  0  0  0
   18.2634   -5.4656  -12.3781 N   0  0  0  0  0  0  0  0  0  0  0  0
   19.5236   -4.4857  -14.0996 C   0  0  0  0  0  0  0  0  0  0  0  0
   18.5253   -3.7931  -14.4919 O   0  0  0  0  0  0  0  0  0  0  0  0
   20.7623   -4.0004  -14.4303 O   0  0  0  0  0  0  0  0  0  0  0  0
  2  1  1  0
  2  3  1  0
  4  3  1  0
  5  4  1  0
  5  6  1  1
  7  8  2  0
  7  5  1  0
  9 10  1  0
 11 10  1  1
 11 12  1  0
 12  7  1  0
 13 11  1  0
 13 21  1  0
 14 13  2  0
 16 17  2  0
 16 15  1  0
 18 16  1  0
 19 18  1  0
 20 19  1  6
 20 21  1  0
 20 22  1  0
 22 24  1  0
 23 22  2  0
M  END
$$$$
