MSQ.pdb
     RDKit          3D

 24 23  0  0  1  0  0  0  0  0999 V2000
   29.5490  -16.6597  -16.3395 C   0  0  0  0  0  0  0  0  0  0  0  0
   28.6246  -17.8398  -15.3241 S   0  0  0  0  0  0  0  0  0  0  0  0
   27.2603  -18.5349  -16.2884 C   0  0  0  0  0  0  0  0  0  0  0  0
   26.3392  -19.3812  -15.4329 C   0  0  0  0  0  0  0  0  0  0  0  0
   27.1985  -20.4874  -14.8257 C   0  0  2  0  0  0  0  0  0  0  0  0
   27.7791  -21.3201  -15.8295 N   0  0  0  0  0  0  0  0  0  0  0  0
   26.2999  -21.2609  -13.8900 C   0  0  0  0  0  0  0  0  0  0  0  0
   25.6239  -22.2424  -14.2811 O   0  0  0  0  0  0  0  0  0  0  0  0
   25.6299  -19.6909  -10.0384 O   0  0  0  0  0  0  0  0  0  0  0  0
   25.4175  -21.0525  -10.2102 C   0  0  0  0  0  0  0  0  0  0  0  0
   25.0765  -21.2920  -11.6645 C   0  0  2  0  0  0  0  0  0  0  0  0
   26.1910  -20.8990  -12.5257 N   0  0  0  0  0  0  0  0  0  0  0  0
   23.8354  -20.6173  -12.0723 C   0  0  0  0  0  0  0  0  0  0  0  0
   23.8666  -19.3967  -12.4784 O   0  0  0  0  0  0  0  0  0  0  0  0
   20.3754  -21.0732  -16.5815 N   0  0  0  0  0  0  0  0  0  0  0  0
   19.4807  -20.3153  -15.8037 C   0  0  0  0  0  0  0  0  0  0  0  0
   18.4366  -19.8703  -16.3036 O   0  0  0  0  0  0  0  0  0  0  0  0
   19.7910  -20.0486  -14.3781 C   0  0  0  0  0  0  0  0  0  0  0  0
   21.0754  -20.7006  -13.9511 C   0  0  0  0  0  0  0  0  0  0  0  0
   21.3504  -20.4854  -12.5238 C   0  0  2  0  0  0  0  0  0  0  0  0
   22.5540  -21.1824  -12.0691 N   0  0  0  0  0  0  0  0  0  0  0  0
   20.2805  -20.8140  -11.6135 C   0  0  0  0  0  0  0  0  0  0  0  0
   19.3042  -20.0110  -11.4334 O   0  0  0  0  0  0  0  0  0  0  0  0
   20.2395  -21.9837  -10.8999 O   0  0  0  0  0  0  0  0  0  0  0  0
  2  1  1  0
  2  3  1  0
  4  3  1  0
  5  4  1  0
  5  6  1  6
  7  8  2  0
  7  5  1  0
  9 10  1  0
 11 10  1  1
 11 12  1  0
 12  7  1  0
 13 11  1  0
 13 21  1  0
 14 13  2  0
 16 17  2  0
 16 15  1  0
 18 16  1  0
 19 18  1  0
 20 19  1  6
 20 21  1  0
 20 22  1  0
 22 24  1  0
 23 22  2  0
M  END
$$$$
