MSQ.pdb
     RDKit          3D

 24 23  0  0  1  0  0  0  0  0999 V2000
   26.5274  -19.5764  -21.4460 C   0  0  0  0  0  0  0  0  0  0  0  0
   27.0042  -18.2248  -22.5523 S   0  0  0  0  0  0  0  0  0  0  0  0
   27.1671  -16.6916  -21.6052 C   0  0  0  0  0  0  0  0  0  0  0  0
   26.8818  -16.9060  -20.1324 C   0  0  0  0  0  0  0  0  0  0  0  0
   27.0478  -15.5496  -19.4519 C   0  0  2  0  0  0  0  0  0  0  0  0
   28.4193  -15.2499  -19.1925 N   0  0  0  0  0  0  0  0  0  0  0  0
   26.2246  -15.6032  -18.1866 C   0  0  0  0  0  0  0  0  0  0  0  0
   26.7393  -15.8582  -17.0716 O   0  0  0  0  0  0  0  0  0  0  0  0
   22.4164  -13.9336  -18.0654 O   0  0  0  0  0  0  0  0  0  0  0  0
   23.2167  -14.0465  -16.9360 C   0  0  0  0  0  0  0  0  0  0  0  0
   23.9770  -15.3508  -17.0311 C   0  0  2  0  0  0  0  0  0  0  0  0
   24.8296  -15.3640  -18.2190 N   0  0  0  0  0  0  0  0  0  0  0  0
   23.0911  -16.5242  -17.0086 C   0  0  0  0  0  0  0  0  0  0  0  0
   22.7187  -17.0742  -18.1106 O   0  0  0  0  0  0  0  0  0  0  0  0
   21.3307  -20.3865  -12.2470 N   0  0  0  0  0  0  0  0  0  0  0  0
   20.5401  -20.8248  -13.3254 C   0  0  0  0  0  0  0  0  0  0  0  0
   19.7222  -21.7440  -13.1706 O   0  0  0  0  0  0  0  0  0  0  0  0
   20.6883  -20.1816  -14.6536 C   0  0  0  0  0  0  0  0  0  0  0  0
   21.6409  -19.0206  -14.6127 C   0  0  0  0  0  0  0  0  0  0  0  0
   21.6715  -18.2924  -15.8886 C   0  0  2  0  0  0  0  0  0  0  0  0
   22.5789  -17.1448  -15.8624 N   0  0  0  0  0  0  0  0  0  0  0  0
   20.3985  -17.8362  -16.3910 C   0  0  0  0  0  0  0  0  0  0  0  0
   19.6723  -18.5934  -17.1188 O   0  0  0  0  0  0  0  0  0  0  0  0
   19.8934  -16.5899  -16.1249 O   0  0  0  0  0  0  0  0  0  0  0  0
  2  1  1  0
  2  3  1  0
  4  3  1  0
  5  4  1  0
  5  6  1  1
  7  8  2  0
  7  5  1  0
  9 10  1  0
 11 10  1  6
 11 12  1  0
 12  7  1  0
 13 11  1  0
 13 21  1  0
 14 13  2  0
 16 17  2  0
 16 15  1  0
 18 16  1  0
 19 18  1  0
 20 19  1  1
 20 21  1  0
 20 22  1  0
 22 24  1  0
 23 22  2  0
M  END
$$$$
