MSQ.pdb
     RDKit          3D

 24 23  0  0  1  0  0  0  0  0999 V2000
   29.3044  -20.7622   -4.8388 C   0  0  0  0  0  0  0  0  0  0  0  0
   27.8327  -19.9050   -4.2246 S   0  0  0  0  0  0  0  0  0  0  0  0
   26.5487  -19.9101   -5.4995 C   0  0  0  0  0  0  0  0  0  0  0  0
   27.1397  -19.8854   -6.8947 C   0  0  0  0  0  0  0  0  0  0  0  0
   25.9641  -19.8686   -7.8684 C   0  0  2  0  0  0  0  0  0  0  0  0
   25.1273  -21.0144   -7.7105 N   0  0  0  0  0  0  0  0  0  0  0  0
   26.5588  -19.7811   -9.2541 C   0  0  0  0  0  0  0  0  0  0  0  0
   27.4139  -18.9141   -9.5547 O   0  0  0  0  0  0  0  0  0  0  0  0
   27.9314  -22.7037  -11.5093 O   0  0  0  0  0  0  0  0  0  0  0  0
   26.8490  -22.1053  -12.1409 C   0  0  0  0  0  0  0  0  0  0  0  0
   26.7281  -20.6903  -11.6196 C   0  0  2  0  0  0  0  0  0  0  0  0
   26.1657  -20.6856  -10.2698 N   0  0  0  0  0  0  0  0  0  0  0  0
   25.9489  -19.8228  -12.5152 C   0  0  0  0  0  0  0  0  0  0  0  0
   24.6778  -19.7030  -12.3546 O   0  0  0  0  0  0  0  0  0  0  0  0
   27.9861  -15.1580  -16.3159 N   0  0  0  0  0  0  0  0  0  0  0  0
   26.5864  -15.0665  -16.4277 C   0  0  0  0  0  0  0  0  0  0  0  0
   26.0687  -14.1651  -17.1041 O   0  0  0  0  0  0  0  0  0  0  0  0
   25.7279  -16.0552  -15.7312 C   0  0  0  0  0  0  0  0  0  0  0  0
   26.5381  -17.0615  -14.9643 C   0  0  0  0  0  0  0  0  0  0  0  0
   25.6885  -18.0761  -14.3256 C   0  0  2  0  0  0  0  0  0  0  0  0
   26.4602  -19.0714  -13.5808 N   0  0  0  0  0  0  0  0  0  0  0  0
   24.7799  -18.7832  -15.1948 C   0  0  0  0  0  0  0  0  0  0  0  0
   25.1817  -19.7695  -15.8993 O   0  0  0  0  0  0  0  0  0  0  0  0
   23.4549  -18.4537  -15.3179 O   0  0  0  0  0  0  0  0  0  0  0  0
  2  1  1  0
  2  3  1  0
  4  3  1  0
  5  4  1  0
  5  6  1  6
  7  8  2  0
  7  5  1  0
  9 10  1  0
 11 10  1  6
 11 12  1  0
 12  7  1  0
 13 11  1  0
 13 21  1  0
 14 13  2  0
 16 17  2  0
 16 15  1  0
 18 16  1  0
 19 18  1  0
 20 19  1  6
 20 21  1  0
 20 22  1  0
 22 24  1  0
 23 22  2  0
M  END
$$$$
