LEH.pdb
     RDKit          3D

 28 28  0  0  1  0  0  0  0  0999 V2000
   14.3341  -22.4825    1.9673 C   0  0  0  0  0  0  0  0  0  0  0  0
   14.9345  -21.1756    1.5568 C   0  0  2  0  0  0  0  0  0  0  0  0
   15.5219  -21.3141    0.1698 C   0  0  0  0  0  0  0  0  0  0  0  0
   16.0194  -20.6950    2.4959 C   0  0  0  0  0  0  0  0  0  0  0  0
   15.5649  -20.7029    3.9332 C   0  0  2  0  0  0  0  0  0  0  0  0
   14.5804  -19.6536    4.0819 N   0  0  0  0  0  0  0  0  0  0  0  0
   16.7869  -20.4092    4.7610 C   0  0  0  0  0  0  0  0  0  0  0  0
   17.8581  -21.0402    4.5711 O   0  0  0  0  0  0  0  0  0  0  0  0
   16.7349  -19.4220    5.7557 N   0  0  0  0  0  0  0  0  0  0  0  0
   17.8731  -19.1298    6.5906 C   0  0  1  0  0  0  0  0  0  0  0  0
   17.8327  -17.7570    7.1688 C   0  0  0  0  0  0  0  0  0  0  0  0
   17.7335  -16.6054    6.2703 C   0  0  0  0  0  0  0  0  0  0  0  0
   17.5359  -15.2711    6.7794 C   0  0  0  0  0  0  0  0  0  0  0  0
   17.4305  -14.8511    7.9337 O   0  0  0  0  0  0  0  0  0  0  0  0
   18.2433  -20.2172    7.5202 C   0  0  0  0  0  0  0  0  0  0  0  0
   17.3054  -20.9265    7.9802 O   0  0  0  0  0  0  0  0  0  0  0  0
   17.4440  -14.2486    5.7974 O   0  0  0  0  0  0  0  0  0  0  0  0
   19.5527  -20.5037    7.9099 N   0  0  0  0  0  0  0  0  0  0  0  0
   19.9265  -21.5492    8.8666 C   0  0  1  0  0  0  0  0  0  0  0  0
   20.7218  -22.6264    8.2133 C   0  0  0  0  0  0  0  0  0  0  0  0
   21.0372  -23.6897    9.1956 C   0  0  0  0  0  0  0  0  0  0  0  0
   20.2269  -24.5856    9.8550 C   0  0  0  0  0  0  0  0  0  0  0  0
   20.9642  -25.4283   10.5952 N   0  0  0  0  0  0  0  0  0  0  0  0
   22.2333  -25.0942   10.4246 C   0  0  0  0  0  0  0  0  0  0  0  0
   22.3052  -24.0526    9.5879 N   0  0  0  0  0  0  0  0  0  0  0  0
   20.8671  -20.8402    9.7889 C   0  0  0  0  0  0  0  0  0  0  0  0
   21.2873  -19.7055    9.4776 O   0  0  0  0  0  0  0  0  0  0  0  0
   21.2903  -21.3817   10.9584 O   0  0  0  0  0  0  0  0  0  0  0  0
  2  1  1  1
  2  3  1  0
  4  2  1  0
  5  4  1  0
  5  6  1  6
  7  8  2  0
  7  5  1  0
  9  7  1  0
 10  9  1  0
 10 11  1  1
 11 12  1  0
 12 13  1  0
 13 14  2  0
 13 17  1  0
 15 16  2  0
 15 10  1  0
 18 15  1  0
 19 20  1  6
 19 18  1  0
 20 21  1  0
 21 25  1  0
 21 22  2  0
 22 23  1  0
 24 23  1  0
 25 24  2  0
 26 19  1  0
 27 26  2  0
 28 26  1  0
M  END
$$$$
