LEH.pdb
     RDKit          3D

 28 28  0  0  1  0  0  0  0  0999 V2000
   37.3180  -12.1077  -13.3132 C   0  0  0  0  0  0  0  0  0  0  0  0
   37.1929  -10.6500  -13.6237 C   0  0  2  0  0  0  0  0  0  0  0  0
   36.8723   -9.8981  -12.3510 C   0  0  0  0  0  0  0  0  0  0  0  0
   36.1206  -10.3469  -14.6476 C   0  0  0  0  0  0  0  0  0  0  0  0
   36.2957  -11.1606  -15.9046 C   0  0  2  0  0  0  0  0  0  0  0  0
   37.5682  -10.7921  -16.4853 N   0  0  0  0  0  0  0  0  0  0  0  0
   35.1616  -10.7742  -16.8155 C   0  0  0  0  0  0  0  0  0  0  0  0
   35.2258   -9.7300  -17.5134 O   0  0  0  0  0  0  0  0  0  0  0  0
   34.0195  -11.5845  -16.8897 N   0  0  0  0  0  0  0  0  0  0  0  0
   32.9269  -11.2712  -17.7763 C   0  0  1  0  0  0  0  0  0  0  0  0
   32.1388  -12.4715  -18.1745 C   0  0  0  0  0  0  0  0  0  0  0  0
   31.0474  -12.3225  -19.1389 C   0  0  0  0  0  0  0  0  0  0  0  0
   31.2115  -12.6966  -20.5216 C   0  0  0  0  0  0  0  0  0  0  0  0
   31.6421  -13.7309  -21.0362 O   0  0  0  0  0  0  0  0  0  0  0  0
   32.1455  -10.0796  -17.3846 C   0  0  0  0  0  0  0  0  0  0  0  0
   31.8481   -9.9616  -16.1632 O   0  0  0  0  0  0  0  0  0  0  0  0
   30.8143  -11.7178  -21.4718 O   0  0  0  0  0  0  0  0  0  0  0  0
   31.7271   -9.0892  -18.2747 N   0  0  0  0  0  0  0  0  0  0  0  0
   30.8717   -7.9546  -17.9151 C   0  0  1  0  0  0  0  0  0  0  0  0
   31.5182   -6.6559  -18.2547 C   0  0  0  0  0  0  0  0  0  0  0  0
   32.4460   -6.2538  -17.1718 C   0  0  0  0  0  0  0  0  0  0  0  0
   32.6056   -6.7292  -15.8901 C   0  0  0  0  0  0  0  0  0  0  0  0
   33.6350   -6.1147  -15.2867 N   0  0  0  0  0  0  0  0  0  0  0  0
   34.1428   -5.2541  -16.1543 C   0  0  0  0  0  0  0  0  0  0  0  0
   33.4470   -5.3179  -17.2954 N   0  0  0  0  0  0  0  0  0  0  0  0
   29.7125   -8.0981  -18.8498 C   0  0  0  0  0  0  0  0  0  0  0  0
   29.7488   -8.9779  -19.7362 O   0  0  0  0  0  0  0  0  0  0  0  0
   28.6142   -7.3051  -18.7786 O   0  0  0  0  0  0  0  0  0  0  0  0
  2  1  1  1
  2  3  1  0
  4  2  1  0
  5  4  1  0
  5  6  1  6
  7  8  2  0
  7  5  1  0
  9  7  1  0
 10  9  1  0
 10 11  1  1
 11 12  1  0
 12 13  1  0
 13 14  2  0
 13 17  1  0
 15 16  2  0
 15 10  1  0
 18 15  1  0
 19 20  1  6
 19 18  1  0
 20 21  1  0
 21 25  1  0
 21 22  2  0
 22 23  1  0
 24 23  1  0
 25 24  2  0
 26 19  1  0
 27 26  2  0
 28 26  1  0
M  END
$$$$
