LEH.pdb
     RDKit          3D

 28 28  0  0  1  0  0  0  0  0999 V2000
   28.9818  -18.8778  -18.5406 C   0  0  0  0  0  0  0  0  0  0  0  0
   29.0490  -20.2551  -17.9613 C   0  0  2  0  0  0  0  0  0  0  0  0
   29.1305  -21.2626  -19.0866 C   0  0  0  0  0  0  0  0  0  0  0  0
   27.8584  -20.5965  -17.0918 C   0  0  0  0  0  0  0  0  0  0  0  0
   27.6558  -19.5859  -15.9916 C   0  0  2  0  0  0  0  0  0  0  0  0
   28.9274  -19.4112  -15.3245 N   0  0  0  0  0  0  0  0  0  0  0  0
   26.6399  -20.1832  -15.0556 C   0  0  0  0  0  0  0  0  0  0  0  0
   25.6115  -20.7525  -15.5026 O   0  0  0  0  0  0  0  0  0  0  0  0
   26.8385  -20.1063  -13.6694 N   0  0  0  0  0  0  0  0  0  0  0  0
   25.8029  -20.4731  -12.7362 C   0  0  1  0  0  0  0  0  0  0  0  0
   26.2891  -20.5520  -11.3298 C   0  0  0  0  0  0  0  0  0  0  0  0
   25.3531  -20.9313  -10.2700 C   0  0  0  0  0  0  0  0  0  0  0  0
   25.7828  -21.0596   -8.8998 C   0  0  0  0  0  0  0  0  0  0  0  0
   26.8142  -20.6887   -8.3354 O   0  0  0  0  0  0  0  0  0  0  0  0
   24.5187  -19.7719  -12.9428 C   0  0  0  0  0  0  0  0  0  0  0  0
   24.5724  -18.5424  -13.2254 O   0  0  0  0  0  0  0  0  0  0  0  0
   24.8751  -21.7259   -8.0334 O   0  0  0  0  0  0  0  0  0  0  0  0
   23.2675  -20.3835  -12.8489 N   0  0  0  0  0  0  0  0  0  0  0  0
   22.0268  -19.8293  -13.3983 C   0  0  1  0  0  0  0  0  0  0  0  0
   22.0484  -19.8172  -14.8880 C   0  0  0  0  0  0  0  0  0  0  0  0
   20.7721  -19.2739  -15.4085 C   0  0  0  0  0  0  0  0  0  0  0  0
   19.6790  -18.7457  -14.7603 C   0  0  0  0  0  0  0  0  0  0  0  0
   18.7779  -18.2980  -15.6487 N   0  0  0  0  0  0  0  0  0  0  0  0
   19.2693  -18.5258  -16.8561 C   0  0  0  0  0  0  0  0  0  0  0  0
   20.4668  -19.1110  -16.7403 N   0  0  0  0  0  0  0  0  0  0  0  0
   21.0019  -20.8461  -13.0063 C   0  0  0  0  0  0  0  0  0  0  0  0
   21.3749  -21.9908  -12.6722 O   0  0  0  0  0  0  0  0  0  0  0  0
   19.6721  -20.5782  -13.0005 O   0  0  0  0  0  0  0  0  0  0  0  0
  2  1  1  6
  2  3  1  0
  4  2  1  0
  5  4  1  0
  5  6  1  1
  7  8  2  0
  7  5  1  0
  9  7  1  0
 10  9  1  0
 10 11  1  1
 11 12  1  0
 12 13  1  0
 13 14  2  0
 13 17  1  0
 15 16  2  0
 15 10  1  0
 18 15  1  0
 19 20  1  6
 19 18  1  0
 20 21  1  0
 21 25  1  0
 21 22  2  0
 22 23  1  0
 24 23  1  0
 25 24  2  0
 26 19  1  0
 27 26  2  0
 28 26  1  0
M  END
$$$$
