LEH.pdb
     RDKit          3D

 28 28  0  0  1  0  0  0  0  0999 V2000
   24.0019  -14.4257  -18.4500 C   0  0  0  0  0  0  0  0  0  0  0  0
   23.6101  -15.1980  -19.6694 C   0  0  2  0  0  0  0  0  0  0  0  0
   22.7216  -14.3354  -20.5380 C   0  0  0  0  0  0  0  0  0  0  0  0
   22.8762  -16.4831  -19.3528 C   0  0  0  0  0  0  0  0  0  0  0  0
   23.6180  -17.3215  -18.3431 C   0  0  2  0  0  0  0  0  0  0  0  0
   24.6645  -18.0263  -19.0507 N   0  0  0  0  0  0  0  0  0  0  0  0
   22.6110  -18.2876  -17.7796 C   0  0  0  0  0  0  0  0  0  0  0  0
   22.1894  -19.2509  -18.4695 O   0  0  0  0  0  0  0  0  0  0  0  0
   22.1352  -18.1154  -16.4717 N   0  0  0  0  0  0  0  0  0  0  0  0
   21.2190  -19.0524  -15.8713 C   0  0  1  0  0  0  0  0  0  0  0  0
   21.6208  -19.4576  -14.4948 C   0  0  0  0  0  0  0  0  0  0  0  0
   20.7815  -20.4007  -13.7535 C   0  0  0  0  0  0  0  0  0  0  0  0
   21.1091  -20.7989  -12.4071 C   0  0  0  0  0  0  0  0  0  0  0  0
   20.5413  -21.5672  -11.6279 O   0  0  0  0  0  0  0  0  0  0  0  0
   19.7922  -18.7179  -16.0613 C   0  0  0  0  0  0  0  0  0  0  0  0
   19.4518  -17.5166  -15.8728 O   0  0  0  0  0  0  0  0  0  0  0  0
   22.2863  -20.2162  -11.8658 O   0  0  0  0  0  0  0  0  0  0  0  0
   18.8138  -19.6403  -16.4361 N   0  0  0  0  0  0  0  0  0  0  0  0
   17.3926  -19.3240  -16.6040 C   0  0  1  0  0  0  0  0  0  0  0  0
   16.6734  -20.4132  -17.3225 C   0  0  0  0  0  0  0  0  0  0  0  0
   15.2611  -20.0253  -17.5469 C   0  0  0  0  0  0  0  0  0  0  0  0
   14.6335  -18.8025  -17.4760 C   0  0  0  0  0  0  0  0  0  0  0  0
   13.3475  -18.9133  -17.8441 N   0  0  0  0  0  0  0  0  0  0  0  0
   13.1345  -20.1825  -18.1521 C   0  0  0  0  0  0  0  0  0  0  0  0
   14.2683  -20.8724  -17.9826 N   0  0  0  0  0  0  0  0  0  0  0  0
   16.8761  -19.3415  -15.2001 C   0  0  0  0  0  0  0  0  0  0  0  0
   16.2259  -18.3620  -14.7771 O   0  0  0  0  0  0  0  0  0  0  0  0
   17.0874  -20.3829  -14.3569 O   0  0  0  0  0  0  0  0  0  0  0  0
  2  1  1  1
  2  3  1  0
  4  2  1  0
  5  4  1  0
  5  6  1  6
  7  8  2  0
  7  5  1  0
  9  7  1  0
 10  9  1  0
 10 11  1  1
 11 12  1  0
 12 13  1  0
 13 14  2  0
 13 17  1  0
 15 16  2  0
 15 10  1  0
 18 15  1  0
 19 20  1  6
 19 18  1  0
 20 21  1  0
 21 25  1  0
 21 22  2  0
 22 23  1  0
 24 23  1  0
 25 24  2  0
 26 19  1  0
 27 26  2  0
 28 26  1  0
M  END
$$$$
