LEH.pdb
     RDKit          3D

 28 28  0  0  1  0  0  0  0  0999 V2000
   44.1617  -15.9864   -9.4918 C   0  0  0  0  0  0  0  0  0  0  0  0
   44.5304  -15.7053   -8.0698 C   0  0  2  0  0  0  0  0  0  0  0  0
   44.1408  -16.8898   -7.2135 C   0  0  0  0  0  0  0  0  0  0  0  0
   43.8638  -14.4660   -7.5133 C   0  0  0  0  0  0  0  0  0  0  0  0
   44.1392  -13.2495   -8.3601 C   0  0  2  0  0  0  0  0  0  0  0  0
   45.5751  -13.1168   -8.4735 N   0  0  0  0  0  0  0  0  0  0  0  0
   43.5524  -12.0798   -7.6168 C   0  0  0  0  0  0  0  0  0  0  0  0
   42.3313  -12.0569   -7.3165 O   0  0  0  0  0  0  0  0  0  0  0  0
   44.3725  -11.0018   -7.2534 N   0  0  0  0  0  0  0  0  0  0  0  0
   43.8455   -9.8495   -6.5661 C   0  0  1  0  0  0  0  0  0  0  0  0
   44.9093   -8.9313   -6.0706 C   0  0  0  0  0  0  0  0  0  0  0  0
   44.5254   -7.6981   -5.3812 C   0  0  0  0  0  0  0  0  0  0  0  0
   45.5165   -6.7812   -4.8757 C   0  0  0  0  0  0  0  0  0  0  0  0
   46.2197   -5.9486   -5.4520 O   0  0  0  0  0  0  0  0  0  0  0  0
   42.6954   -9.2105   -7.2391 C   0  0  0  0  0  0  0  0  0  0  0  0
   42.7579   -9.0873   -8.4942 O   0  0  0  0  0  0  0  0  0  0  0  0
   45.7360   -6.8296   -3.4728 O   0  0  0  0  0  0  0  0  0  0  0  0
   41.5583   -8.7458   -6.5762 N   0  0  0  0  0  0  0  0  0  0  0  0
   40.4032   -8.1308   -7.2363 C   0  0  1  0  0  0  0  0  0  0  0  0
   39.1779   -8.2310   -6.3948 C   0  0  0  0  0  0  0  0  0  0  0  0
   38.5914   -9.5865   -6.5136 C   0  0  0  0  0  0  0  0  0  0  0  0
   38.9460  -10.6636   -7.2933 C   0  0  0  0  0  0  0  0  0  0  0  0
   38.1745  -11.7241   -7.0072 N   0  0  0  0  0  0  0  0  0  0  0  0
   37.3312  -11.3521   -6.0577 C   0  0  0  0  0  0  0  0  0  0  0  0
   37.5605  -10.0722   -5.7425 N   0  0  0  0  0  0  0  0  0  0  0  0
   40.7673   -6.6802   -7.2683 C   0  0  0  0  0  0  0  0  0  0  0  0
   41.7757   -6.2903   -6.6420 O   0  0  0  0  0  0  0  0  0  0  0  0
   40.0419   -5.7599   -7.9517 O   0  0  0  0  0  0  0  0  0  0  0  0
  2  1  1  6
  2  3  1  0
  4  2  1  0
  5  4  1  0
  5  6  1  1
  7  8  2  0
  7  5  1  0
  9  7  1  0
 10  9  1  0
 10 11  1  6
 11 12  1  0
 12 13  1  0
 13 14  2  0
 13 17  1  0
 15 16  2  0
 15 10  1  0
 18 15  1  0
 19 20  1  1
 19 18  1  0
 20 21  1  0
 21 25  1  0
 21 22  2  0
 22 23  1  0
 24 23  1  0
 25 24  2  0
 26 19  1  0
 27 26  2  0
 28 26  1  0
M  END
$$$$
