LEH.pdb
     RDKit          3D

 28 28  0  0  1  0  0  0  0  0999 V2000
   17.3356  -13.3909  -16.5530 C   0  0  0  0  0  0  0  0  0  0  0  0
   18.7816  -13.6739  -16.2959 C   0  0  2  0  0  0  0  0  0  0  0  0
   18.8955  -14.7506  -15.2396 C   0  0  0  0  0  0  0  0  0  0  0  0
   19.5554  -12.4585  -15.8332 C   0  0  0  0  0  0  0  0  0  0  0  0
   19.4822  -11.3305  -16.8307 C   0  0  2  0  0  0  0  0  0  0  0  0
   20.0899  -11.7973  -18.0576 N   0  0  0  0  0  0  0  0  0  0  0  0
   20.2760  -10.1965  -16.2401 C   0  0  0  0  0  0  0  0  0  0  0  0
   20.0471   -9.7929  -15.0712 O   0  0  0  0  0  0  0  0  0  0  0  0
   21.2825   -9.5805  -16.9979 N   0  0  0  0  0  0  0  0  0  0  0  0
   22.0555   -8.4813  -16.4762 C   0  0  1  0  0  0  0  0  0  0  0  0
   23.4369   -8.4265  -17.0323 C   0  0  0  0  0  0  0  0  0  0  0  0
   24.3479   -7.3730  -16.5812 C   0  0  0  0  0  0  0  0  0  0  0  0
   25.6262   -7.1645  -17.2144 C   0  0  0  0  0  0  0  0  0  0  0  0
   26.2116   -7.8055  -18.0899 O   0  0  0  0  0  0  0  0  0  0  0  0
   21.3266   -7.1972  -16.4155 C   0  0  0  0  0  0  0  0  0  0  0  0
   20.8259   -6.7673  -17.4920 O   0  0  0  0  0  0  0  0  0  0  0  0
   26.3535   -6.0293  -16.7661 O   0  0  0  0  0  0  0  0  0  0  0  0
   21.1588   -6.4453  -15.2516 N   0  0  0  0  0  0  0  0  0  0  0  0
   20.4922   -5.1413  -15.1920 C   0  0  1  0  0  0  0  0  0  0  0  0
   19.3002   -5.1793  -14.2990 C   0  0  0  0  0  0  0  0  0  0  0  0
   18.1392   -5.7415  -15.0278 C   0  0  0  0  0  0  0  0  0  0  0  0
   18.0282   -6.2551  -16.2998 C   0  0  0  0  0  0  0  0  0  0  0  0
   16.7903   -6.7307  -16.5073 N   0  0  0  0  0  0  0  0  0  0  0  0
   16.1022   -6.5352  -15.3940 C   0  0  0  0  0  0  0  0  0  0  0  0
   16.8894   -5.9428  -14.4888 N   0  0  0  0  0  0  0  0  0  0  0  0
   21.5010   -4.2793  -14.5012 C   0  0  0  0  0  0  0  0  0  0  0  0
   22.5640   -4.7926  -14.0918 O   0  0  0  0  0  0  0  0  0  0  0  0
   21.3092   -2.9524  -14.2950 O   0  0  0  0  0  0  0  0  0  0  0  0
  2  1  1  1
  2  3  1  0
  4  2  1  0
  5  4  1  0
  5  6  1  6
  7  8  2  0
  7  5  1  0
  9  7  1  0
 10  9  1  0
 10 11  1  6
 11 12  1  0
 12 13  1  0
 13 14  2  0
 13 17  1  0
 15 16  2  0
 15 10  1  0
 18 15  1  0
 19 20  1  1
 19 18  1  0
 20 21  1  0
 21 25  1  0
 21 22  2  0
 22 23  1  0
 24 23  1  0
 25 24  2  0
 26 19  1  0
 27 26  2  0
 28 26  1  0
M  END
$$$$
