LEH.pdb
     RDKit          3D

 28 28  0  0  1  0  0  0  0  0999 V2000
   28.3795  -20.5883  -18.1249 C   0  0  0  0  0  0  0  0  0  0  0  0
   28.3190  -21.8436  -17.3140 C   0  0  2  0  0  0  0  0  0  0  0  0
   28.3912  -23.0365  -18.2412 C   0  0  0  0  0  0  0  0  0  0  0  0
   27.0620  -21.9555  -16.4788 C   0  0  0  0  0  0  0  0  0  0  0  0
   26.8587  -20.7463  -15.6017 C   0  0  2  0  0  0  0  0  0  0  0  0
   27.9838  -20.6747  -14.6953 N   0  0  0  0  0  0  0  0  0  0  0  0
   25.5794  -20.9867  -14.8462 C   0  0  0  0  0  0  0  0  0  0  0  0
   24.5994  -21.5436  -15.4039 O   0  0  0  0  0  0  0  0  0  0  0  0
   25.4751  -20.5870  -13.5061 N   0  0  0  0  0  0  0  0  0  0  0  0
   24.2678  -20.7966  -12.7468 C   0  0  1  0  0  0  0  0  0  0  0  0
   24.4893  -20.7360  -11.2745 C   0  0  0  0  0  0  0  0  0  0  0  0
   25.7065  -21.3216  -10.7098 C   0  0  0  0  0  0  0  0  0  0  0  0
   26.0545  -21.1371   -9.3229 C   0  0  0  0  0  0  0  0  0  0  0  0
   27.1197  -21.3041   -8.7251 O   0  0  0  0  0  0  0  0  0  0  0  0
   23.0901  -20.0656  -13.2588 C   0  0  0  0  0  0  0  0  0  0  0  0
   23.2783  -18.8880  -13.6737 O   0  0  0  0  0  0  0  0  0  0  0  0
   25.0018  -20.6852   -8.4826 O   0  0  0  0  0  0  0  0  0  0  0  0
   21.8003  -20.5967  -13.3130 N   0  0  0  0  0  0  0  0  0  0  0  0
   20.6480  -19.9240  -13.9196 C   0  0  1  0  0  0  0  0  0  0  0  0
   20.4965  -20.2915  -15.3554 C   0  0  0  0  0  0  0  0  0  0  0  0
   19.3131  -19.6099  -15.9303 C   0  0  0  0  0  0  0  0  0  0  0  0
   18.6763  -18.4428  -15.5749 C   0  0  0  0  0  0  0  0  0  0  0  0
   17.6865  -18.1668  -16.4385 N   0  0  0  0  0  0  0  0  0  0  0  0
   17.6740  -19.1319  -17.3439 C   0  0  0  0  0  0  0  0  0  0  0  0
   18.6417  -20.0118  -17.0621 N   0  0  0  0  0  0  0  0  0  0  0  0
   19.4857  -20.5413  -13.2082 C   0  0  0  0  0  0  0  0  0  0  0  0
   19.4947  -21.7688  -12.9756 O   0  0  0  0  0  0  0  0  0  0  0  0
   18.4104  -19.8202  -12.8034 O   0  0  0  0  0  0  0  0  0  0  0  0
  2  1  1  6
  2  3  1  0
  4  2  1  0
  5  4  1  0
  5  6  1  1
  7  8  2  0
  7  5  1  0
  9  7  1  0
 10  9  1  0
 10 11  1  1
 11 12  1  0
 12 13  1  0
 13 14  2  0
 13 17  1  0
 15 16  2  0
 15 10  1  0
 18 15  1  0
 19 20  1  6
 19 18  1  0
 20 21  1  0
 21 25  1  0
 21 22  2  0
 22 23  1  0
 24 23  1  0
 25 24  2  0
 26 19  1  0
 27 26  2  0
 28 26  1  0
M  END
$$$$
