HMR.pdb
     RDKit          3D

 30 30  0  0  1  0  0  0  0  0999 V2000
    9.2456  -16.0014   19.2264 N   0  0  0  0  0  0  0  0  0  0  0  0
    8.2194  -16.2413   20.2208 C   0  0  1  0  0  0  0  0  0  0  0  0
    7.9342  -17.6965   20.3870 C   0  0  0  0  0  0  0  0  0  0  0  0
    7.2977  -18.2938   19.1917 C   0  0  0  0  0  0  0  0  0  0  0  0
    6.6637  -17.6216   18.1447 C   0  0  0  0  0  0  0  0  0  0  0  0
    6.2128  -18.5009   17.2475 N   0  0  0  0  0  0  0  0  0  0  0  0
    6.5400  -19.7219   17.6897 C   0  0  0  0  0  0  0  0  0  0  0  0
    7.1928  -19.6019   18.8592 N   0  0  0  0  0  0  0  0  0  0  0  0
    8.6919  -15.6375   21.5113 C   0  0  0  0  0  0  0  0  0  0  0  0
    9.8961  -15.8018   21.8274 O   0  0  0  0  0  0  0  0  0  0  0  0
    6.8149  -11.1458   27.7333 C   0  0  0  0  0  0  0  0  0  0  0  0
    6.0908  -12.1562   26.4153 S   0  0  0  0  0  0  0  0  0  0  0  0
    7.3595  -13.3407   25.7682 C   0  0  0  0  0  0  0  0  0  0  0  0
    7.0138  -13.6275   24.3436 C   0  0  0  0  0  0  0  0  0  0  0  0
    8.0507  -14.5507   23.7253 C   0  0  2  0  0  0  0  0  0  0  0  0
    7.8435  -14.9017   22.3718 N   0  0  0  0  0  0  0  0  0  0  0  0
    8.4913  -15.6066   24.6312 C   0  0  0  0  0  0  0  0  0  0  0  0
    7.6600  -16.5499   24.8715 O   0  0  0  0  0  0  0  0  0  0  0  0
   15.6418  -21.8294   26.9614 N   0  0  0  0  0  0  0  0  0  0  0  0
   15.2715  -20.6305   26.2744 C   0  0  0  0  0  0  0  0  0  0  0  0
   16.0857  -20.0687   25.4582 N   0  0  0  0  0  0  0  0  0  0  0  0
   13.9953  -20.0562   26.4929 N   0  0  0  0  0  0  0  0  0  0  0  0
   13.5461  -18.8646   25.8000 C   0  0  0  0  0  0  0  0  0  0  0  0
   12.1733  -18.4680   26.2293 C   0  0  0  0  0  0  0  0  0  0  0  0
   11.5459  -17.3135   25.5806 C   0  0  0  0  0  0  0  0  0  0  0  0
   10.1870  -16.8882   25.9929 C   0  0  2  0  0  0  0  0  0  0  0  0
    9.7504  -15.6861   25.2678 N   0  0  0  0  0  0  0  0  0  0  0  0
    9.9768  -16.7058   27.4436 C   0  0  0  0  0  0  0  0  0  0  0  0
    9.9011  -17.8057   28.2728 O   0  0  0  0  0  0  0  0  0  0  0  0
    9.8569  -15.5753   27.9846 O   0  0  0  0  0  0  0  0  0  0  0  0
  2  1  1  6
  2  9  1  0
  2  3  1  0
  3  4  1  0
  4  8  1  0
  5  6  1  0
  5  4  2  0
  6  7  1  0
  7  8  2  0
  9 16  1  0
 10  9  2  0
 11 12  1  0
 12 13  1  0
 13 14  1  0
 15 14  1  1
 16 15  1  0
 17 15  1  0
 18 17  2  0
 19 20  1  0
 20 22  1  0
 21 20  2  0
 22 23  1  0
 23 24  1  0
 24 25  1  0
 26 25  1  1
 26 28  1  0
 26 27  1  0
 27 17  1  0
 28 29  1  0
 30 28  2  0
M  END
$$$$
