HMR.pdb
     RDKit          3D

 30 30  0  0  1  0  0  0  0  0999 V2000
   10.1279  -13.6579   20.3986 N   0  0  0  0  0  0  0  0  0  0  0  0
    8.7881  -13.9775   20.8483 C   0  0  1  0  0  0  0  0  0  0  0  0
    8.1837  -15.0867   20.0539 C   0  0  0  0  0  0  0  0  0  0  0  0
    7.9237  -14.7060   18.6475 C   0  0  0  0  0  0  0  0  0  0  0  0
    8.2919  -13.5198   18.0092 C   0  0  0  0  0  0  0  0  0  0  0  0
    7.8814  -13.5410   16.7394 N   0  0  0  0  0  0  0  0  0  0  0  0
    7.2584  -14.7102   16.5435 C   0  0  0  0  0  0  0  0  0  0  0  0
    7.2815  -15.4142   17.6890 N   0  0  0  0  0  0  0  0  0  0  0  0
    8.8757  -14.3453   22.3010 C   0  0  0  0  0  0  0  0  0  0  0  0
    9.9744  -14.7765   22.7297 O   0  0  0  0  0  0  0  0  0  0  0  0
    7.4247  -11.5404   27.7840 C   0  0  0  0  0  0  0  0  0  0  0  0
    5.9417  -11.8028   26.7769 S   0  0  0  0  0  0  0  0  0  0  0  0
    6.4181  -12.5337   25.1428 C   0  0  0  0  0  0  0  0  0  0  0  0
    6.5303  -14.0110   25.3326 C   0  0  0  0  0  0  0  0  0  0  0  0
    7.7258  -14.5515   24.5658 C   0  0  2  0  0  0  0  0  0  0  0  0
    7.7827  -14.2263   23.1914 N   0  0  0  0  0  0  0  0  0  0  0  0
    8.0833  -15.9141   24.9470 C   0  0  0  0  0  0  0  0  0  0  0  0
    7.1961  -16.8192   24.7666 O   0  0  0  0  0  0  0  0  0  0  0  0
   11.7318  -20.4039   20.4790 N   0  0  0  0  0  0  0  0  0  0  0  0
   11.4231  -19.0070   20.4709 C   0  0  0  0  0  0  0  0  0  0  0  0
   10.7347  -18.4968   19.5167 N   0  0  0  0  0  0  0  0  0  0  0  0
   11.8781  -18.1766   21.5243 N   0  0  0  0  0  0  0  0  0  0  0  0
   11.8934  -18.6084   22.9082 C   0  0  0  0  0  0  0  0  0  0  0  0
   10.7772  -17.9939   23.6844 C   0  0  0  0  0  0  0  0  0  0  0  0
   10.6326  -18.3494   25.0986 C   0  0  0  0  0  0  0  0  0  0  0  0
    9.5639  -17.7181   25.9090 C   0  0  2  0  0  0  0  0  0  0  0  0
    9.3175  -16.3288   25.4961 N   0  0  0  0  0  0  0  0  0  0  0  0
    9.7361  -17.7853   27.3746 C   0  0  0  0  0  0  0  0  0  0  0  0
    9.8675  -19.0089   27.9980 O   0  0  0  0  0  0  0  0  0  0  0  0
    9.7690  -16.7645   28.1109 O   0  0  0  0  0  0  0  0  0  0  0  0
  2  1  1  6
  2  9  1  0
  2  3  1  0
  3  4  1  0
  4  8  1  0
  5  6  1  0
  5  4  2  0
  6  7  1  0
  7  8  2  0
  9 16  1  0
 10  9  2  0
 11 12  1  0
 12 13  1  0
 13 14  1  0
 15 14  1  6
 16 15  1  0
 17 15  1  0
 18 17  2  0
 19 20  1  0
 20 22  1  0
 21 20  2  0
 22 23  1  0
 23 24  1  0
 24 25  1  0
 26 25  1  6
 26 28  1  0
 26 27  1  0
 27 17  1  0
 28 29  1  0
 30 28  2  0
M  END
$$$$
