HMR.pdb
     RDKit          3D

 30 30  0  0  1  0  0  0  0  0999 V2000
    9.1510  -12.4492   19.6109 N   0  0  0  0  0  0  0  0  0  0  0  0
    8.3359  -13.5492   20.0853 C   0  0  1  0  0  0  0  0  0  0  0  0
    8.4965  -14.7671   19.2382 C   0  0  0  0  0  0  0  0  0  0  0  0
    8.0970  -14.5407   17.8312 C   0  0  0  0  0  0  0  0  0  0  0  0
    7.3556  -13.4722   17.3226 C   0  0  0  0  0  0  0  0  0  0  0  0
    7.1963  -13.6162   16.0053 N   0  0  0  0  0  0  0  0  0  0  0  0
    7.8159  -14.7499   15.6524 C   0  0  0  0  0  0  0  0  0  0  0  0
    8.3591  -15.3094   16.7479 N   0  0  0  0  0  0  0  0  0  0  0  0
    8.7362  -13.8277   21.5049 C   0  0  0  0  0  0  0  0  0  0  0  0
    9.9575  -13.7657   21.7909 O   0  0  0  0  0  0  0  0  0  0  0  0
    5.4323  -11.1237   27.2923 C   0  0  0  0  0  0  0  0  0  0  0  0
    5.4477  -12.7675   26.5308 S   0  0  0  0  0  0  0  0  0  0  0  0
    6.8993  -12.9132   25.3894 C   0  0  0  0  0  0  0  0  0  0  0  0
    6.8855  -14.2971   24.8275 C   0  0  0  0  0  0  0  0  0  0  0  0
    8.0487  -14.4880   23.8682 C   0  0  2  0  0  0  0  0  0  0  0  0
    7.8029  -14.1528   22.5172 N   0  0  0  0  0  0  0  0  0  0  0  0
    8.8129  -15.7038   24.1283 C   0  0  0  0  0  0  0  0  0  0  0  0
    8.2168  -16.8186   23.9272 O   0  0  0  0  0  0  0  0  0  0  0  0
   16.0553  -16.3229   20.5559 N   0  0  0  0  0  0  0  0  0  0  0  0
   14.7750  -15.9818   20.0164 C   0  0  0  0  0  0  0  0  0  0  0  0
   14.6606  -15.6090   18.7945 N   0  0  0  0  0  0  0  0  0  0  0  0
   13.6209  -16.0561   20.8341 N   0  0  0  0  0  0  0  0  0  0  0  0
   13.6551  -16.5736   22.1880 C   0  0  0  0  0  0  0  0  0  0  0  0
   12.2979  -16.5714   22.8079 C   0  0  0  0  0  0  0  0  0  0  0  0
   12.1496  -17.1072   24.1637 C   0  0  0  0  0  0  0  0  0  0  0  0
   10.8312  -17.0433   24.8384 C   0  0  2  0  0  0  0  0  0  0  0  0
   10.1501  -15.7661   24.5809 N   0  0  0  0  0  0  0  0  0  0  0  0
   10.8295  -17.3322   26.2871 C   0  0  0  0  0  0  0  0  0  0  0  0
   11.2488  -18.5641   26.7449 O   0  0  0  0  0  0  0  0  0  0  0  0
   10.4558  -16.4994   27.1542 O   0  0  0  0  0  0  0  0  0  0  0  0
  2  1  1  6
  2  9  1  0
  2  3  1  0
  3  4  1  0
  4  8  1  0
  5  6  1  0
  5  4  2  0
  6  7  1  0
  7  8  2  0
  9 16  1  0
 10  9  2  0
 11 12  1  0
 12 13  1  0
 13 14  1  0
 15 14  1  1
 16 15  1  0
 17 15  1  0
 18 17  2  0
 19 20  1  0
 20 22  1  0
 21 20  2  0
 22 23  1  0
 23 24  1  0
 24 25  1  0
 26 25  1  1
 26 28  1  0
 26 27  1  0
 27 17  1  0
 28 29  1  0
 30 28  2  0
M  END
$$$$
