HMR.pdb
     RDKit          3D

 30 30  0  0  1  0  0  0  0  0999 V2000
    7.7660  -15.7436   19.8672 N   0  0  0  0  0  0  0  0  0  0  0  0
    9.0915  -15.3189   20.2696 C   0  0  1  0  0  0  0  0  0  0  0  0
    9.5083  -14.0640   19.5781 C   0  0  0  0  0  0  0  0  0  0  0  0
    9.0804  -14.0235   18.1618 C   0  0  0  0  0  0  0  0  0  0  0  0
    8.3799  -15.0069   17.4601 C   0  0  0  0  0  0  0  0  0  0  0  0
    8.1766  -14.6095   16.2023 N   0  0  0  0  0  0  0  0  0  0  0  0
    8.7280  -13.3956   16.0758 C   0  0  0  0  0  0  0  0  0  0  0  0
    9.2729  -13.0392   17.2524 N   0  0  0  0  0  0  0  0  0  0  0  0
    9.0715  -15.1285   21.7585 C   0  0  0  0  0  0  0  0  0  0  0  0
   10.1464  -14.8039   22.3209 O   0  0  0  0  0  0  0  0  0  0  0  0
    7.2836  -11.4058   26.6294 C   0  0  0  0  0  0  0  0  0  0  0  0
    6.1914  -12.8436   26.7783 S   0  0  0  0  0  0  0  0  0  0  0  0
    7.0296  -14.3394   26.0775 C   0  0  0  0  0  0  0  0  0  0  0  0
    7.0183  -14.1993   24.5904 C   0  0  0  0  0  0  0  0  0  0  0  0
    7.7846  -15.3433   23.9474 C   0  0  2  0  0  0  0  0  0  0  0  0
    7.9044  -15.2988   22.5397 N   0  0  0  0  0  0  0  0  0  0  0  0
    7.4970  -16.6389   24.5545 C   0  0  0  0  0  0  0  0  0  0  0  0
    6.2950  -16.8434   24.9445 O   0  0  0  0  0  0  0  0  0  0  0  0
   10.6031  -19.9131   31.0885 N   0  0  0  0  0  0  0  0  0  0  0  0
   11.6874  -20.4604   30.3326 C   0  0  0  0  0  0  0  0  0  0  0  0
   12.4033  -21.4099   30.8130 N   0  0  0  0  0  0  0  0  0  0  0  0
   11.9755  -19.9538   29.0416 N   0  0  0  0  0  0  0  0  0  0  0  0
   11.4609  -18.6838   28.5683 C   0  0  0  0  0  0  0  0  0  0  0  0
   10.0989  -18.8324   27.9776 C   0  0  0  0  0  0  0  0  0  0  0  0
    9.8447  -18.2526   26.6560 C   0  0  0  0  0  0  0  0  0  0  0  0
    8.5149  -18.4218   26.0232 C   0  0  2  0  0  0  0  0  0  0  0  0
    8.4209  -17.6897   24.7517 N   0  0  0  0  0  0  0  0  0  0  0  0
    7.3479  -18.1081   26.8728 C   0  0  0  0  0  0  0  0  0  0  0  0
    6.3492  -19.0440   27.0452 O   0  0  0  0  0  0  0  0  0  0  0  0
    7.2040  -17.0061   27.4644 O   0  0  0  0  0  0  0  0  0  0  0  0
  2  1  1  6
  2  9  1  0
  2  3  1  0
  3  4  1  0
  4  8  1  0
  5  6  1  0
  5  4  2  0
  6  7  1  0
  7  8  2  0
  9 16  1  0
 10  9  2  0
 11 12  1  0
 12 13  1  0
 13 14  1  0
 15 14  1  6
 16 15  1  0
 17 15  1  0
 18 17  2  0
 19 20  1  0
 20 22  1  0
 21 20  2  0
 22 23  1  0
 23 24  1  0
 24 25  1  0
 26 25  1  1
 26 28  1  0
 26 27  1  0
 27 17  1  0
 28 29  1  0
 30 28  2  0
M  END
$$$$
