HMR.pdb
     RDKit          3D

 30 30  0  0  1  0  0  0  0  0999 V2000
   10.8648  -13.6200   19.8907 N   0  0  0  0  0  0  0  0  0  0  0  0
    9.5039  -13.9300   20.2798 C   0  0  1  0  0  0  0  0  0  0  0  0
    8.9531  -15.0828   19.5089 C   0  0  0  0  0  0  0  0  0  0  0  0
    8.4229  -14.6838   18.1858 C   0  0  0  0  0  0  0  0  0  0  0  0
    8.4076  -13.4025   17.6309 C   0  0  0  0  0  0  0  0  0  0  0  0
    7.8472  -13.4387   16.4201 N   0  0  0  0  0  0  0  0  0  0  0  0
    7.5012  -14.7102   16.1810 C   0  0  0  0  0  0  0  0  0  0  0  0
    7.8457  -15.4627   17.2408 N   0  0  0  0  0  0  0  0  0  0  0  0
    9.5117  -14.2249   21.7516 C   0  0  0  0  0  0  0  0  0  0  0  0
   10.5554  -14.7210   22.2430 O   0  0  0  0  0  0  0  0  0  0  0  0
    6.4109  -11.0686   26.8635 C   0  0  0  0  0  0  0  0  0  0  0  0
    5.8276  -12.7829   26.9218 S   0  0  0  0  0  0  0  0  0  0  0  0
    7.0733  -13.8939   26.1186 C   0  0  0  0  0  0  0  0  0  0  0  0
    7.0622  -13.5898   24.6561 C   0  0  0  0  0  0  0  0  0  0  0  0
    8.2773  -14.2039   23.9809 C   0  0  2  0  0  0  0  0  0  0  0  0
    8.4033  -13.9689   22.5928 N   0  0  0  0  0  0  0  0  0  0  0  0
    8.5841  -15.5466   24.4635 C   0  0  0  0  0  0  0  0  0  0  0  0
    7.7770  -16.4823   24.1293 O   0  0  0  0  0  0  0  0  0  0  0  0
   12.6955  -20.3014   22.1237 N   0  0  0  0  0  0  0  0  0  0  0  0
   12.9819  -21.2617   23.1447 C   0  0  0  0  0  0  0  0  0  0  0  0
   13.0239  -22.5136   22.8691 N   0  0  0  0  0  0  0  0  0  0  0  0
   13.2233  -20.8311   24.4723 N   0  0  0  0  0  0  0  0  0  0  0  0
   13.1813  -19.4348   24.8602 C   0  0  0  0  0  0  0  0  0  0  0  0
   11.8389  -19.0551   25.3895 C   0  0  0  0  0  0  0  0  0  0  0  0
   11.3076  -17.7303   25.0580 C   0  0  0  0  0  0  0  0  0  0  0  0
    9.9902  -17.3123   25.5937 C   0  0  2  0  0  0  0  0  0  0  0  0
    9.6894  -15.9113   25.2648 N   0  0  0  0  0  0  0  0  0  0  0  0
    9.7714  -17.5496   27.0352 C   0  0  0  0  0  0  0  0  0  0  0  0
    9.8929  -18.8236   27.5503 O   0  0  0  0  0  0  0  0  0  0  0  0
    9.4699  -16.6341   27.8452 O   0  0  0  0  0  0  0  0  0  0  0  0
  2  1  1  6
  2  9  1  0
  2  3  1  0
  3  4  1  0
  4  8  1  0
  5  6  1  0
  5  4  2  0
  6  7  1  0
  7  8  2  0
  9 16  1  0
 10  9  2  0
 11 12  1  0
 12 13  1  0
 13 14  1  0
 15 14  1  6
 16 15  1  0
 17 15  1  0
 18 17  2  0
 19 20  1  0
 20 22  1  0
 21 20  2  0
 22 23  1  0
 23 24  1  0
 24 25  1  0
 26 25  1  1
 26 28  1  0
 26 27  1  0
 27 17  1  0
 28 29  1  0
 30 28  2  0
M  END
$$$$
