HMR.pdb
     RDKit          3D

 30 30  0  0  1  0  0  0  0  0999 V2000
    9.2831  -16.4028   19.5667 N   0  0  0  0  0  0  0  0  0  0  0  0
    8.2495  -16.6762   20.5447 C   0  0  1  0  0  0  0  0  0  0  0  0
    7.9388  -18.1329   20.6345 C   0  0  0  0  0  0  0  0  0  0  0  0
    7.3921  -18.6790   19.3722 C   0  0  0  0  0  0  0  0  0  0  0  0
    6.1692  -18.3678   18.7741 C   0  0  0  0  0  0  0  0  0  0  0  0
    6.0265  -19.0629   17.6436 N   0  0  0  0  0  0  0  0  0  0  0  0
    7.1260  -19.8136   17.4983 C   0  0  0  0  0  0  0  0  0  0  0  0
    7.9502  -19.5858   18.5361 N   0  0  0  0  0  0  0  0  0  0  0  0
    8.7277  -16.1482   21.8660 C   0  0  0  0  0  0  0  0  0  0  0  0
    9.9044  -16.4176   22.2119 O   0  0  0  0  0  0  0  0  0  0  0  0
    6.9886  -11.5735   28.1879 C   0  0  0  0  0  0  0  0  0  0  0  0
    6.5084  -12.1351   26.5337 S   0  0  0  0  0  0  0  0  0  0  0  0
    7.6669  -13.4638   25.9647 C   0  0  0  0  0  0  0  0  0  0  0  0
    7.2736  -13.8291   24.5707 C   0  0  0  0  0  0  0  0  0  0  0  0
    8.2002  -14.9035   24.0262 C   0  0  2  0  0  0  0  0  0  0  0  0
    7.9141  -15.3705   22.7231 N   0  0  0  0  0  0  0  0  0  0  0  0
    8.5760  -15.8975   25.0264 C   0  0  0  0  0  0  0  0  0  0  0  0
    7.6676  -16.7192   25.3982 O   0  0  0  0  0  0  0  0  0  0  0  0
   10.6787  -20.8614   22.3780 N   0  0  0  0  0  0  0  0  0  0  0  0
   12.0857  -20.6181   22.2896 C   0  0  0  0  0  0  0  0  0  0  0  0
   12.8347  -21.3750   21.5747 N   0  0  0  0  0  0  0  0  0  0  0  0
   12.6609  -19.5326   22.9946 N   0  0  0  0  0  0  0  0  0  0  0  0
   12.6054  -19.4224   24.4391 C   0  0  0  0  0  0  0  0  0  0  0  0
   11.3479  -18.7566   24.8882 C   0  0  0  0  0  0  0  0  0  0  0  0
   11.4053  -17.8723   26.0553 C   0  0  0  0  0  0  0  0  0  0  0  0
   10.1805  -17.1681   26.5040 C   0  0  2  0  0  0  0  0  0  0  0  0
    9.8492  -16.0388   25.6228 N   0  0  0  0  0  0  0  0  0  0  0  0
   10.1652  -16.7284   27.9141 C   0  0  0  0  0  0  0  0  0  0  0  0
    9.7007  -17.5785   28.8963 O   0  0  0  0  0  0  0  0  0  0  0  0
   10.5593  -15.5915   28.2846 O   0  0  0  0  0  0  0  0  0  0  0  0
  2  1  1  6
  2  9  1  0
  2  3  1  0
  3  4  1  0
  4  8  1  0
  5  6  1  0
  5  4  2  0
  6  7  1  0
  7  8  2  0
  9 16  1  0
 10  9  2  0
 11 12  1  0
 12 13  1  0
 13 14  1  0
 15 14  1  1
 16 15  1  0
 17 15  1  0
 18 17  2  0
 19 20  1  0
 20 22  1  0
 21 20  2  0
 22 23  1  0
 23 24  1  0
 24 25  1  0
 26 25  1  6
 26 28  1  0
 26 27  1  0
 27 17  1  0
 28 29  1  0
 30 28  2  0
M  END
$$$$
