HMR.pdb
     RDKit          3D

 30 30  0  0  1  0  0  0  0  0999 V2000
   10.1082  -15.3562   20.1722 N   0  0  0  0  0  0  0  0  0  0  0  0
    8.9395  -15.8106   20.8982 C   0  0  1  0  0  0  0  0  0  0  0  0
    8.5406  -17.1930   20.5025 C   0  0  0  0  0  0  0  0  0  0  0  0
    8.0556  -17.2697   19.1063 C   0  0  0  0  0  0  0  0  0  0  0  0
    8.0349  -16.2437   18.1592 C   0  0  0  0  0  0  0  0  0  0  0  0
    7.5245  -16.6953   17.0116 N   0  0  0  0  0  0  0  0  0  0  0  0
    7.2161  -17.9855   17.1951 C   0  0  0  0  0  0  0  0  0  0  0  0
    7.5340  -18.3353   18.4540 N   0  0  0  0  0  0  0  0  0  0  0  0
    9.2644  -15.7454   22.3622 C   0  0  0  0  0  0  0  0  0  0  0  0
   10.4422  -16.0053   22.7119 O   0  0  0  0  0  0  0  0  0  0  0  0
    6.1492  -10.5840   25.8437 C   0  0  0  0  0  0  0  0  0  0  0  0
    6.1122  -12.3654   26.1719 S   0  0  0  0  0  0  0  0  0  0  0  0
    7.4453  -13.2071   25.1995 C   0  0  0  0  0  0  0  0  0  0  0  0
    7.3936  -14.6605   25.5403 C   0  0  0  0  0  0  0  0  0  0  0  0
    8.4467  -15.4239   24.7543 C   0  0  2  0  0  0  0  0  0  0  0  0
    8.3073  -15.4075   23.3478 N   0  0  0  0  0  0  0  0  0  0  0  0
    8.8198  -16.6906   25.3756 C   0  0  0  0  0  0  0  0  0  0  0  0
    7.9037  -17.5788   25.4788 O   0  0  0  0  0  0  0  0  0  0  0  0
   12.2308  -20.3361   23.2687 N   0  0  0  0  0  0  0  0  0  0  0  0
   13.5635  -19.8874   23.0058 C   0  0  0  0  0  0  0  0  0  0  0  0
   14.0257  -19.8820   21.8095 N   0  0  0  0  0  0  0  0  0  0  0  0
   14.3828  -19.4429   24.0723 N   0  0  0  0  0  0  0  0  0  0  0  0
   13.8737  -19.2345   25.4137 C   0  0  0  0  0  0  0  0  0  0  0  0
   12.4359  -18.8363   25.3965 C   0  0  0  0  0  0  0  0  0  0  0  0
   11.7513  -18.6393   26.6770 C   0  0  0  0  0  0  0  0  0  0  0  0
   10.3271  -18.2286   26.6928 C   0  0  2  0  0  0  0  0  0  0  0  0
   10.0980  -17.0294   25.8737 N   0  0  0  0  0  0  0  0  0  0  0  0
    9.7180  -18.0514   28.0269 C   0  0  0  0  0  0  0  0  0  0  0  0
    9.2342  -19.1452   28.7146 O   0  0  0  0  0  0  0  0  0  0  0  0
    9.6083  -16.9306   28.5897 O   0  0  0  0  0  0  0  0  0  0  0  0
  2  1  1  6
  2  9  1  0
  2  3  1  0
  3  4  1  0
  4  8  1  0
  5  6  1  0
  5  4  2  0
  6  7  1  0
  7  8  2  0
  9 16  1  0
 10  9  2  0
 11 12  1  0
 12 13  1  0
 13 14  1  0
 15 14  1  1
 16 15  1  0
 17 15  1  0
 18 17  2  0
 19 20  1  0
 20 22  1  0
 21 20  2  0
 22 23  1  0
 23 24  1  0
 24 25  1  0
 26 25  1  1
 26 28  1  0
 26 27  1  0
 27 17  1  0
 28 29  1  0
 30 28  2  0
M  END
$$$$
