DAF.pdb
     RDKit          3D

 25 25  0  0  1  0  0  0  0  0999 V2000
   15.8371  -12.9995  -18.4888 N   0  0  0  0  0  0  0  0  0  0  0  0
   15.5880  -12.3686  -17.2087 C   0  0  1  0  0  0  0  0  0  0  0  0
   16.0577  -13.3349  -16.1431 C   0  0  0  0  0  0  0  0  0  0  0  0
   15.0697  -14.4455  -16.0976 C   0  0  0  0  0  0  0  0  0  0  0  0
   13.8296  -14.2670  -16.2878 O   0  0  0  0  0  0  0  0  0  0  0  0
   16.3340  -11.0934  -17.1734 C   0  0  0  0  0  0  0  0  0  0  0  0
   17.4415  -11.0060  -17.7476 O   0  0  0  0  0  0  0  0  0  0  0  0
   15.4512  -15.7648  -15.8404 O   0  0  0  0  0  0  0  0  0  0  0  0
   15.7287   -7.6024  -15.7394 C   0  0  0  0  0  0  0  0  0  0  0  0
   16.5619   -8.7012  -16.4124 C   0  0  2  0  0  0  0  0  0  0  0  0
   15.8473   -9.9294  -16.5038 N   0  0  0  0  0  0  0  0  0  0  0  0
   17.8511   -8.8480  -15.6612 C   0  0  0  0  0  0  0  0  0  0  0  0
   18.1379   -9.9269  -15.0875 O   0  0  0  0  0  0  0  0  0  0  0  0
   18.7865   -7.7859  -15.5702 N   0  0  0  0  0  0  0  0  0  0  0  0
   20.1311   -7.9494  -15.0542 C   0  0  1  0  0  0  0  0  0  0  0  0
   20.9345   -8.9209  -15.8746 C   0  0  0  0  0  0  0  0  0  0  0  0
   22.2952   -9.0256  -15.3125 C   0  0  0  0  0  0  0  0  0  0  0  0
   23.2344   -8.0431  -15.4508 C   0  0  0  0  0  0  0  0  0  0  0  0
   24.5273   -8.1333  -14.9272 C   0  0  0  0  0  0  0  0  0  0  0  0
   24.8214   -9.3003  -14.2404 C   0  0  0  0  0  0  0  0  0  0  0  0
   23.8804  -10.2874  -14.1002 C   0  0  0  0  0  0  0  0  0  0  0  0
   22.6132  -10.1809  -14.6225 C   0  0  0  0  0  0  0  0  0  0  0  0
   20.7859   -6.6216  -15.0660 C   0  0  0  0  0  0  0  0  0  0  0  0
   20.7759   -5.8830  -16.0857 O   0  0  0  0  0  0  0  0  0  0  0  0
   21.4447   -6.1239  -13.9517 O   0  0  0  0  0  0  0  0  0  0  0  0
  2  1  1  6
  2  6  1  0
  3  2  1  0
  3  4  1  0
  4  8  1  0
  5  4  2  0
  6  7  2  0
 10  9  1  1
 10 12  1  0
 11 10  1  0
 11  6  1  0
 12 13  2  0
 12 14  1  0
 14 15  1  0
 15 23  1  0
 15 16  1  6
 17 16  1  0
 17 22  2  0
 18 17  1  0
 19 18  2  0
 19 20  1  0
 20 21  2  0
 21 22  1  0
 23 24  2  0
 23 25  1  0
M  END
$$$$
