DAF.pdb
     RDKit          3D

 25 25  0  0  1  0  0  0  0  0999 V2000
   16.4565  -13.1423  -17.3422 N   0  0  0  0  0  0  0  0  0  0  0  0
   16.5636  -12.3578  -16.1290 C   0  0  1  0  0  0  0  0  0  0  0  0
   17.1461  -13.2659  -15.0678 C   0  0  0  0  0  0  0  0  0  0  0  0
   16.1078  -14.2812  -14.7471 C   0  0  0  0  0  0  0  0  0  0  0  0
   16.3410  -15.5267  -14.7602 O   0  0  0  0  0  0  0  0  0  0  0  0
   17.4342  -11.1971  -16.4092 C   0  0  0  0  0  0  0  0  0  0  0  0
   18.4668  -11.3475  -17.0984 O   0  0  0  0  0  0  0  0  0  0  0  0
   14.8008  -13.9211  -14.4088 O   0  0  0  0  0  0  0  0  0  0  0  0
   17.4182   -7.4815  -15.5056 C   0  0  0  0  0  0  0  0  0  0  0  0
   18.0081   -8.7603  -16.1150 C   0  0  2  0  0  0  0  0  0  0  0  0
   17.1536   -9.8832  -15.9242 N   0  0  0  0  0  0  0  0  0  0  0  0
   19.3727   -8.9788  -15.5333 C   0  0  0  0  0  0  0  0  0  0  0  0
   19.5185   -9.6341  -14.4728 O   0  0  0  0  0  0  0  0  0  0  0  0
   20.5388   -8.4597  -16.1513 N   0  0  0  0  0  0  0  0  0  0  0  0
   21.8771   -8.6780  -15.6393 C   0  0  1  0  0  0  0  0  0  0  0  0
   22.6396   -9.6774  -16.4651 C   0  0  0  0  0  0  0  0  0  0  0  0
   24.0168   -9.7899  -15.9460 C   0  0  0  0  0  0  0  0  0  0  0  0
   24.3471  -10.5761  -14.8787 C   0  0  0  0  0  0  0  0  0  0  0  0
   25.6465  -10.6867  -14.3755 C   0  0  0  0  0  0  0  0  0  0  0  0
   26.6135   -9.9397  -15.0289 C   0  0  0  0  0  0  0  0  0  0  0  0
   26.2842   -9.1502  -16.1003 C   0  0  0  0  0  0  0  0  0  0  0  0
   25.0000   -9.0540  -16.5814 C   0  0  0  0  0  0  0  0  0  0  0  0
   22.5838   -7.3771  -15.6481 C   0  0  0  0  0  0  0  0  0  0  0  0
   22.4563   -6.5561  -16.5942 O   0  0  0  0  0  0  0  0  0  0  0  0
   23.4236   -6.9968  -14.6118 O   0  0  0  0  0  0  0  0  0  0  0  0
  2  1  1  6
  2  6  1  0
  3  2  1  0
  3  4  1  0
  4  8  1  0
  5  4  2  0
  6  7  2  0
 10  9  1  1
 10 12  1  0
 11 10  1  0
 11  6  1  0
 12 13  2  0
 12 14  1  0
 14 15  1  0
 15 23  1  0
 15 16  1  6
 17 16  1  0
 17 22  2  0
 18 17  1  0
 19 18  2  0
 19 20  1  0
 20 21  2  0
 21 22  1  0
 23 24  2  0
 23 25  1  0
M  END
$$$$
