DAF.pdb
     RDKit          3D

 25 25  0  0  1  0  0  0  0  0999 V2000
   21.5350  -12.1118  -18.6127 N   0  0  0  0  0  0  0  0  0  0  0  0
   20.4671  -11.1958  -18.2673 C   0  0  1  0  0  0  0  0  0  0  0  0
   19.1861  -12.0012  -18.2465 C   0  0  0  0  0  0  0  0  0  0  0  0
   18.6824  -12.0526  -19.6449 C   0  0  0  0  0  0  0  0  0  0  0  0
   19.3211  -11.5582  -20.6213 O   0  0  0  0  0  0  0  0  0  0  0  0
   20.7773  -10.6069  -16.9479 C   0  0  0  0  0  0  0  0  0  0  0  0
   19.9620   -9.8266  -16.4092 O   0  0  0  0  0  0  0  0  0  0  0  0
   17.4640  -12.6540  -19.9704 O   0  0  0  0  0  0  0  0  0  0  0  0
   23.6953  -10.7945  -14.4839 C   0  0  0  0  0  0  0  0  0  0  0  0
   22.3683  -10.2471  -15.0262 C   0  0  2  0  0  0  0  0  0  0  0  0
   21.9852  -10.8873  -16.2390 N   0  0  0  0  0  0  0  0  0  0  0  0
   22.4953   -8.7613  -15.1831 C   0  0  0  0  0  0  0  0  0  0  0  0
   22.9861   -8.2680  -16.2277 O   0  0  0  0  0  0  0  0  0  0  0  0
   22.0710   -7.8653  -14.1691 N   0  0  0  0  0  0  0  0  0  0  0  0
   22.1061   -6.4234  -14.3131 C   0  0  1  0  0  0  0  0  0  0  0  0
   21.1753   -5.9427  -15.3922 C   0  0  0  0  0  0  0  0  0  0  0  0
   21.2811   -4.4752  -15.5098 C   0  0  0  0  0  0  0  0  0  0  0  0
   22.4203   -3.8425  -15.9202 C   0  0  0  0  0  0  0  0  0  0  0  0
   22.5337   -2.4537  -16.0306 C   0  0  0  0  0  0  0  0  0  0  0  0
   21.4032   -1.7261  -15.6948 C   0  0  0  0  0  0  0  0  0  0  0  0
   20.2590   -2.3590  -15.2830 C   0  0  0  0  0  0  0  0  0  0  0  0
   20.1661   -3.7268  -15.1804 C   0  0  0  0  0  0  0  0  0  0  0  0
   21.7179   -5.8283  -13.0143 C   0  0  0  0  0  0  0  0  0  0  0  0
   20.8396   -6.3503  -12.2783 O   0  0  0  0  0  0  0  0  0  0  0  0
   22.3038   -4.6632  -12.5422 O   0  0  0  0  0  0  0  0  0  0  0  0
  2  1  1  1
  2  6  1  0
  3  2  1  0
  3  4  1  0
  4  8  1  0
  5  4  2  0
  6  7  2  0
 10  9  1  6
 10 12  1  0
 11 10  1  0
 11  6  1  0
 12 13  2  0
 12 14  1  0
 14 15  1  0
 15 23  1  0
 15 16  1  6
 17 16  1  0
 17 22  2  0
 18 17  1  0
 19 18  2  0
 19 20  1  0
 20 21  2  0
 21 22  1  0
 23 24  2  0
 23 25  1  0
M  END
$$$$
