DAF.pdb
     RDKit          3D

 25 25  0  0  1  0  0  0  0  0999 V2000
   22.8860  -17.2299  -17.5714 N   0  0  0  0  0  0  0  0  0  0  0  0
   22.3757  -18.5382  -17.9276 C   0  0  1  0  0  0  0  0  0  0  0  0
   23.5447  -19.4974  -17.8682 C   0  0  0  0  0  0  0  0  0  0  0  0
   24.2288  -19.4309  -19.1871 C   0  0  0  0  0  0  0  0  0  0  0  0
   25.2455  -20.1335  -19.4672 O   0  0  0  0  0  0  0  0  0  0  0  0
   21.3130  -18.8935  -16.9642 C   0  0  0  0  0  0  0  0  0  0  0  0
   21.4892  -18.6909  -15.7428 O   0  0  0  0  0  0  0  0  0  0  0  0
   23.7889  -18.5826  -20.2064 O   0  0  0  0  0  0  0  0  0  0  0  0
   17.6738  -19.9678  -17.1777 C   0  0  0  0  0  0  0  0  0  0  0  0
   19.0213  -19.8139  -16.4599 C   0  0  2  0  0  0  0  0  0  0  0  0
   20.0676  -19.4688  -17.3618 N   0  0  0  0  0  0  0  0  0  0  0  0
   19.3096  -21.0814  -15.7127 C   0  0  0  0  0  0  0  0  0  0  0  0
   19.8617  -22.0512  -16.2872 O   0  0  0  0  0  0  0  0  0  0  0  0
   18.9738  -21.2328  -14.3432 N   0  0  0  0  0  0  0  0  0  0  0  0
   19.4016  -22.3588  -13.5369 C   0  0  1  0  0  0  0  0  0  0  0  0
   20.6736  -22.0651  -12.7898 C   0  0  0  0  0  0  0  0  0  0  0  0
   20.4734  -20.8804  -11.9325 C   0  0  0  0  0  0  0  0  0  0  0  0
   20.6878  -19.6032  -12.3674 C   0  0  0  0  0  0  0  0  0  0  0  0
   20.5064  -18.4743  -11.5634 C   0  0  0  0  0  0  0  0  0  0  0  0
   20.0861  -18.7176  -10.2656 C   0  0  0  0  0  0  0  0  0  0  0  0
   19.8702  -19.9985   -9.8271 C   0  0  0  0  0  0  0  0  0  0  0  0
   20.0541  -21.0971  -10.6328 C   0  0  0  0  0  0  0  0  0  0  0  0
   18.3169  -22.6680  -12.5780 C   0  0  0  0  0  0  0  0  0  0  0  0
   17.3418  -21.8910  -12.4019 O   0  0  0  0  0  0  0  0  0  0  0  0
   18.3206  -23.8320  -11.8238 O   0  0  0  0  0  0  0  0  0  0  0  0
  2  1  1  1
  2  6  1  0
  3  2  1  0
  3  4  1  0
  4  8  1  0
  5  4  2  0
  6  7  2  0
 10  9  1  6
 10 12  1  0
 11 10  1  0
 11  6  1  0
 12 13  2  0
 12 14  1  0
 14 15  1  0
 15 23  1  0
 15 16  1  1
 17 16  1  0
 17 22  2  0
 18 17  1  0
 19 18  2  0
 19 20  1  0
 20 21  2  0
 21 22  1  0
 23 24  2  0
 23 25  1  0
M  END
$$$$
