DAF.pdb
     RDKit          3D

 25 25  0  0  1  0  0  0  0  0999 V2000
   22.3071  -21.7039  -13.7629 N   0  0  0  0  0  0  0  0  0  0  0  0
   22.7437  -20.5171  -13.0559 C   0  0  1  0  0  0  0  0  0  0  0  0
   21.5047  -19.8692  -12.4769 C   0  0  0  0  0  0  0  0  0  0  0  0
   20.8000  -19.1972  -13.6011 C   0  0  0  0  0  0  0  0  0  0  0  0
   20.9036  -19.5843  -14.8033 O   0  0  0  0  0  0  0  0  0  0  0  0
   23.6976  -20.9334  -12.0069 C   0  0  0  0  0  0  0  0  0  0  0  0
   23.2736  -21.2631  -10.8776 O   0  0  0  0  0  0  0  0  0  0  0  0
   19.9738  -18.0888  -13.3989 O   0  0  0  0  0  0  0  0  0  0  0  0
   27.4869  -21.3845  -11.7731 C   0  0  0  0  0  0  0  0  0  0  0  0
   26.0562  -21.3464  -11.2195 C   0  0  2  0  0  0  0  0  0  0  0  0
   25.1094  -20.9806  -12.2181 N   0  0  0  0  0  0  0  0  0  0  0  0
   26.0267  -20.4196  -10.0412 C   0  0  0  0  0  0  0  0  0  0  0  0
   25.5549  -19.2616  -10.1499 O   0  0  0  0  0  0  0  0  0  0  0  0
   26.5249  -20.8104   -8.7723 N   0  0  0  0  0  0  0  0  0  0  0  0
   26.5925  -19.9174   -7.6325 C   0  0  1  0  0  0  0  0  0  0  0  0
   26.4078  -20.6498   -6.3319 C   0  0  0  0  0  0  0  0  0  0  0  0
   27.5855  -20.4216   -5.4719 C   0  0  0  0  0  0  0  0  0  0  0  0
   28.3453  -19.2880   -5.5373 C   0  0  0  0  0  0  0  0  0  0  0  0
   29.4652  -19.0631   -4.7316 C   0  0  0  0  0  0  0  0  0  0  0  0
   29.7787  -20.0732   -3.8364 C   0  0  0  0  0  0  0  0  0  0  0  0
   29.0175  -21.2114   -3.7691 C   0  0  0  0  0  0  0  0  0  0  0  0
   27.9190  -21.4152   -4.5700 C   0  0  0  0  0  0  0  0  0  0  0  0
   27.9171  -19.2565   -7.6521 C   0  0  0  0  0  0  0  0  0  0  0  0
   28.9331  -19.8153   -8.1429 O   0  0  0  0  0  0  0  0  0  0  0  0
   28.1054  -17.9857   -7.1295 O   0  0  0  0  0  0  0  0  0  0  0  0
  2  1  1  1
  2  6  1  0
  3  2  1  0
  3  4  1  0
  4  8  1  0
  5  4  2  0
  6  7  2  0
 10  9  1  6
 10 12  1  0
 11 10  1  0
 11  6  1  0
 12 13  2  0
 12 14  1  0
 14 15  1  0
 15 23  1  0
 15 16  1  1
 17 16  1  0
 17 22  2  0
 18 17  1  0
 19 18  2  0
 19 20  1  0
 20 21  2  0
 21 22  1  0
 23 24  2  0
 23 25  1  0
M  END
$$$$
