DAF.pdb
     RDKit          3D

 25 25  0  0  1  0  0  0  0  0999 V2000
   17.1417  -10.9258  -18.1566 N   0  0  0  0  0  0  0  0  0  0  0  0
   17.1858  -10.5451  -16.7595 C   0  0  1  0  0  0  0  0  0  0  0  0
   17.8209  -11.6961  -16.0097 C   0  0  0  0  0  0  0  0  0  0  0  0
   16.8140  -12.7893  -15.9579 C   0  0  0  0  0  0  0  0  0  0  0  0
   15.5753  -12.5725  -15.8020 O   0  0  0  0  0  0  0  0  0  0  0  0
   17.9773   -9.3022  -16.6479 C   0  0  0  0  0  0  0  0  0  0  0  0
   19.0796   -9.2136  -17.2316 O   0  0  0  0  0  0  0  0  0  0  0  0
   17.1750  -14.1336  -16.0790 O   0  0  0  0  0  0  0  0  0  0  0  0
   17.6377   -6.0351  -14.6919 C   0  0  0  0  0  0  0  0  0  0  0  0
   18.3562   -7.0405  -15.6015 C   0  0  2  0  0  0  0  0  0  0  0  0
   17.5412   -8.1713  -15.8922 N   0  0  0  0  0  0  0  0  0  0  0  0
   19.6527   -7.4254  -14.9543 C   0  0  0  0  0  0  0  0  0  0  0  0
   19.7431   -8.4811  -14.2813 O   0  0  0  0  0  0  0  0  0  0  0  0
   20.8146   -6.6213  -15.0755 N   0  0  0  0  0  0  0  0  0  0  0  0
   22.1496   -7.0983  -14.7737 C   0  0  1  0  0  0  0  0  0  0  0  0
   22.6112   -8.1387  -15.7568 C   0  0  0  0  0  0  0  0  0  0  0  0
   24.0036   -8.5185  -15.4476 C   0  0  0  0  0  0  0  0  0  0  0  0
   24.3265   -9.4727  -14.5246 C   0  0  0  0  0  0  0  0  0  0  0  0
   25.6411   -9.8370  -14.2201 C   0  0  0  0  0  0  0  0  0  0  0  0
   26.6319   -9.1658  -14.9186 C   0  0  0  0  0  0  0  0  0  0  0  0
   26.3101   -8.2080  -15.8453 C   0  0  0  0  0  0  0  0  0  0  0  0
   25.0106   -7.8627  -16.1316 C   0  0  0  0  0  0  0  0  0  0  0  0
   23.0651   -5.9353  -14.8076 C   0  0  0  0  0  0  0  0  0  0  0  0
   23.9671   -5.7722  -13.9443 O   0  0  0  0  0  0  0  0  0  0  0  0
   22.9746   -4.9650  -15.7945 O   0  0  0  0  0  0  0  0  0  0  0  0
  2  1  1  6
  2  6  1  0
  3  2  1  0
  3  4  1  0
  4  8  1  0
  5  4  2  0
  6  7  2  0
 10  9  1  1
 10 12  1  0
 11 10  1  0
 11  6  1  0
 12 13  2  0
 12 14  1  0
 14 15  1  0
 15 23  1  0
 15 16  1  6
 17 16  1  0
 17 22  2  0
 18 17  1  0
 19 18  2  0
 19 20  1  0
 20 21  2  0
 21 22  1  0
 23 24  2  0
 23 25  1  0
M  END
$$$$
