DAF.pdb
     RDKit          3D

 25 25  0  0  1  0  0  0  0  0999 V2000
   28.2374  -23.0567  -17.4226 N   0  0  0  0  0  0  0  0  0  0  0  0
   27.3900  -21.9134  -17.1511 C   0  0  1  0  0  0  0  0  0  0  0  0
   25.9727  -22.3277  -17.4825 C   0  0  0  0  0  0  0  0  0  0  0  0
   25.8202  -22.2132  -18.9574 C   0  0  0  0  0  0  0  0  0  0  0  0
   26.1942  -21.1915  -19.6071 O   0  0  0  0  0  0  0  0  0  0  0  0
   27.5475  -21.5543  -15.7263 C   0  0  0  0  0  0  0  0  0  0  0  0
   27.7991  -22.4452  -14.8856 O   0  0  0  0  0  0  0  0  0  0  0  0
   25.2504  -23.2334  -19.7234 O   0  0  0  0  0  0  0  0  0  0  0  0
   27.5704  -18.3166  -13.7008 C   0  0  0  0  0  0  0  0  0  0  0  0
   27.5399  -19.8405  -13.8779 C   0  0  2  0  0  0  0  0  0  0  0  0
   27.4252  -20.2143  -15.2470 N   0  0  0  0  0  0  0  0  0  0  0  0
   26.4252  -20.3943  -13.0419 C   0  0  0  0  0  0  0  0  0  0  0  0
   25.2728  -20.5293  -13.5207 O   0  0  0  0  0  0  0  0  0  0  0  0
   26.6266  -20.7829  -11.6930 N   0  0  0  0  0  0  0  0  0  0  0  0
   25.5873  -21.3647  -10.8670 C   0  0  1  0  0  0  0  0  0  0  0  0
   26.1527  -22.0710   -9.6654 C   0  0  0  0  0  0  0  0  0  0  0  0
   26.8366  -21.0901   -8.8000 C   0  0  0  0  0  0  0  0  0  0  0  0
   26.1664  -20.2308   -7.9762 C   0  0  0  0  0  0  0  0  0  0  0  0
   26.8030  -19.2948   -7.1562 C   0  0  0  0  0  0  0  0  0  0  0  0
   28.1872  -19.2782   -7.2190 C   0  0  0  0  0  0  0  0  0  0  0  0
   28.8618  -20.1398   -8.0450 C   0  0  0  0  0  0  0  0  0  0  0  0
   28.2182  -21.0541   -8.8448 C   0  0  0  0  0  0  0  0  0  0  0  0
   24.6902  -20.2712  -10.4298 C   0  0  0  0  0  0  0  0  0  0  0  0
   25.0537  -19.0658  -10.4431 O   0  0  0  0  0  0  0  0  0  0  0  0
   23.4012  -20.5208   -9.9825 O   0  0  0  0  0  0  0  0  0  0  0  0
  2  1  1  1
  2  6  1  0
  3  2  1  0
  3  4  1  0
  4  8  1  0
  5  4  2  0
  6  7  2  0
 10  9  1  6
 10 12  1  0
 11 10  1  0
 11  6  1  0
 12 13  2  0
 12 14  1  0
 14 15  1  0
 15 23  1  0
 15 16  1  1
 17 16  1  0
 17 22  2  0
 18 17  1  0
 19 18  2  0
 19 20  1  0
 20 21  2  0
 21 22  1  0
 23 24  2  0
 23 25  1  0
M  END
$$$$
