DAF.pdb
     RDKit          3D

 25 25  0  0  1  0  0  0  0  0999 V2000
   25.6447  -17.3969  -16.7405 N   0  0  0  0  0  0  0  0  0  0  0  0
   25.6603  -18.7668  -16.2694 C   0  0  1  0  0  0  0  0  0  0  0  0
   27.0810  -19.2667  -16.4170 C   0  0  0  0  0  0  0  0  0  0  0  0
   27.3301  -19.4445  -17.8724 C   0  0  0  0  0  0  0  0  0  0  0  0
   26.4898  -19.1037  -18.7575 O   0  0  0  0  0  0  0  0  0  0  0  0
   25.2104  -18.7725  -14.8618 C   0  0  0  0  0  0  0  0  0  0  0  0
   26.0041  -18.4387  -13.9550 O   0  0  0  0  0  0  0  0  0  0  0  0
   28.5157  -20.0029  -18.3570 O   0  0  0  0  0  0  0  0  0  0  0  0
   21.9698  -19.6308  -13.0236 C   0  0  0  0  0  0  0  0  0  0  0  0
   23.4669  -19.3087  -13.1221 C   0  0  2  0  0  0  0  0  0  0  0  0
   23.8881  -19.1471  -14.4727 N   0  0  0  0  0  0  0  0  0  0  0  0
   24.2326  -20.3849  -12.4125 C   0  0  0  0  0  0  0  0  0  0  0  0
   24.5846  -21.4257  -13.0194 O   0  0  0  0  0  0  0  0  0  0  0  0
   24.5853  -20.2706  -11.0437 N   0  0  0  0  0  0  0  0  0  0  0  0
   25.2791  -21.3100  -10.3094 C   0  0  1  0  0  0  0  0  0  0  0  0
   26.7425  -21.0032  -10.1467 C   0  0  0  0  0  0  0  0  0  0  0  0
   26.9398  -20.2015   -8.9232 C   0  0  0  0  0  0  0  0  0  0  0  0
   26.4554  -18.9321   -8.7799 C   0  0  0  0  0  0  0  0  0  0  0  0
   26.6402  -18.1620   -7.6282 C   0  0  0  0  0  0  0  0  0  0  0  0
   27.3589  -18.7634   -6.6074 C   0  0  0  0  0  0  0  0  0  0  0  0
   27.8457  -20.0372   -6.7491 C   0  0  0  0  0  0  0  0  0  0  0  0
   27.6540  -20.7798   -7.8900 C   0  0  0  0  0  0  0  0  0  0  0  0
   24.6407  -21.4287   -8.9789 C   0  0  0  0  0  0  0  0  0  0  0  0
   24.9895  -22.3089   -8.1489 O   0  0  0  0  0  0  0  0  0  0  0  0
   23.6241  -20.5740   -8.5795 O   0  0  0  0  0  0  0  0  0  0  0  0
  2  1  1  1
  2  6  1  0
  3  2  1  0
  3  4  1  0
  4  8  1  0
  5  4  2  0
  6  7  2  0
 10  9  1  6
 10 12  1  0
 11 10  1  0
 11  6  1  0
 12 13  2  0
 12 14  1  0
 14 15  1  0
 15 23  1  0
 15 16  1  1
 17 16  1  0
 17 22  2  0
 18 17  1  0
 19 18  2  0
 19 20  1  0
 20 21  2  0
 21 22  1  0
 23 24  2  0
 23 25  1  0
M  END
$$$$
