DAF.pdb
     RDKit          3D

 25 25  0  0  1  0  0  0  0  0999 V2000
   32.9966  -32.3862  -15.7300 N   0  0  0  0  0  0  0  0  0  0  0  0
   32.1153  -32.4070  -16.8797 C   0  0  1  0  0  0  0  0  0  0  0  0
   31.9589  -33.8558  -17.2878 C   0  0  0  0  0  0  0  0  0  0  0  0
   33.2448  -34.2742  -17.9068 C   0  0  0  0  0  0  0  0  0  0  0  0
   33.9556  -35.2138  -17.4401 O   0  0  0  0  0  0  0  0  0  0  0  0
   30.8291  -31.7974  -16.4823 C   0  0  0  0  0  0  0  0  0  0  0  0
   30.3176  -32.0905  -15.3795 O   0  0  0  0  0  0  0  0  0  0  0  0
   33.7523  -33.6518  -19.0501 O   0  0  0  0  0  0  0  0  0  0  0  0
   28.4092  -29.2630  -18.0097 C   0  0  0  0  0  0  0  0  0  0  0  0
   28.8574  -30.3077  -16.9790 C   0  0  2  0  0  0  0  0  0  0  0  0
   30.1231  -30.8706  -17.3086 N   0  0  0  0  0  0  0  0  0  0  0  0
   27.7854  -31.3493  -16.8605 C   0  0  0  0  0  0  0  0  0  0  0  0
   27.7957  -32.3647  -17.5982 O   0  0  0  0  0  0  0  0  0  0  0  0
   26.7297  -31.2296  -15.9211 N   0  0  0  0  0  0  0  0  0  0  0  0
   25.6707  -32.2094  -15.7824 C   0  0  1  0  0  0  0  0  0  0  0  0
   25.2185  -32.3513  -14.3550 C   0  0  0  0  0  0  0  0  0  0  0  0
   24.1625  -33.3796  -14.2776 C   0  0  0  0  0  0  0  0  0  0  0  0
   22.8322  -33.0757  -14.2104 C   0  0  0  0  0  0  0  0  0  0  0  0
   21.8240  -34.0406  -14.1319 C   0  0  0  0  0  0  0  0  0  0  0  0
   22.2486  -35.3596  -14.1254 C   0  0  0  0  0  0  0  0  0  0  0  0
   23.5830  -35.6668  -14.1929 C   0  0  0  0  0  0  0  0  0  0  0  0
   24.5609  -34.7037  -14.2695 C   0  0  0  0  0  0  0  0  0  0  0  0
   24.5356  -31.7730  -16.6269 C   0  0  0  0  0  0  0  0  0  0  0  0
   24.2819  -30.5556  -16.8244 O   0  0  0  0  0  0  0  0  0  0  0  0
   23.6931  -32.6856  -17.2440 O   0  0  0  0  0  0  0  0  0  0  0  0
  2  1  1  1
  2  6  1  0
  3  2  1  0
  3  4  1  0
  4  8  1  0
  5  4  2  0
  6  7  2  0
 10  9  1  6
 10 12  1  0
 11 10  1  0
 11  6  1  0
 12 13  2  0
 12 14  1  0
 14 15  1  0
 15 23  1  0
 15 16  1  1
 17 16  1  0
 17 22  2  0
 18 17  1  0
 19 18  2  0
 19 20  1  0
 20 21  2  0
 21 22  1  0
 23 24  2  0
 23 25  1  0
M  END
$$$$
