DAF.pdb
     RDKit          3D

 25 25  0  0  1  0  0  0  0  0999 V2000
   26.2800  -18.9507  -15.4373 N   0  0  0  0  0  0  0  0  0  0  0  0
   26.4731  -20.1438  -14.6386 C   0  0  1  0  0  0  0  0  0  0  0  0
   27.9387  -20.5075  -14.7379 C   0  0  0  0  0  0  0  0  0  0  0  0
   28.1456  -21.1150  -16.0795 C   0  0  0  0  0  0  0  0  0  0  0  0
   27.2214  -21.2010  -16.9422 O   0  0  0  0  0  0  0  0  0  0  0  0
   26.0672  -19.8372  -13.2511 C   0  0  0  0  0  0  0  0  0  0  0  0
   26.4234  -18.7608  -12.7236 O   0  0  0  0  0  0  0  0  0  0  0  0
   29.3820  -21.6325  -16.4743 O   0  0  0  0  0  0  0  0  0  0  0  0
   23.4420  -21.1121  -10.8774 C   0  0  0  0  0  0  0  0  0  0  0  0
   24.7787  -20.4149  -11.1631 C   0  0  2  0  0  0  0  0  0  0  0  0
   25.2723  -20.7239  -12.4625 N   0  0  0  0  0  0  0  0  0  0  0  0
   25.7496  -20.7868  -10.0828 C   0  0  0  0  0  0  0  0  0  0  0  0
   26.3499  -21.8887  -10.1138 O   0  0  0  0  0  0  0  0  0  0  0  0
   26.0248  -19.9184   -8.9960 N   0  0  0  0  0  0  0  0  0  0  0  0
   26.9236  -20.2587   -7.9110 C   0  0  1  0  0  0  0  0  0  0  0  0
   27.5830  -19.0413   -7.3234 C   0  0  0  0  0  0  0  0  0  0  0  0
   28.3223  -19.4267   -6.1054 C   0  0  0  0  0  0  0  0  0  0  0  0
   29.3576  -20.3181   -6.1150 C   0  0  0  0  0  0  0  0  0  0  0  0
   30.0617  -20.6942   -4.9676 C   0  0  0  0  0  0  0  0  0  0  0  0
   29.6488  -20.1035   -3.7840 C   0  0  0  0  0  0  0  0  0  0  0  0
   28.6102  -19.2087   -3.7722 C   0  0  0  0  0  0  0  0  0  0  0  0
   27.9291  -18.8507   -4.9114 C   0  0  0  0  0  0  0  0  0  0  0  0
   26.1340  -20.9534   -6.8689 C   0  0  0  0  0  0  0  0  0  0  0  0
   24.9039  -20.7365   -6.7101 O   0  0  0  0  0  0  0  0  0  0  0  0
   26.7114  -21.8800   -6.0136 O   0  0  0  0  0  0  0  0  0  0  0  0
  2  1  1  6
  2  6  1  0
  3  2  1  0
  3  4  1  0
  4  8  1  0
  5  4  2  0
  6  7  2  0
 10  9  1  1
 10 12  1  0
 11 10  1  0
 11  6  1  0
 12 13  2  0
 12 14  1  0
 14 15  1  0
 15 23  1  0
 15 16  1  1
 17 16  1  0
 17 22  2  0
 18 17  1  0
 19 18  2  0
 19 20  1  0
 20 21  2  0
 21 22  1  0
 23 24  2  0
 23 25  1  0
M  END
$$$$
