LTM.pdb
     RDKit          3D

 24 23  0  0  1  0  0  0  0  0999 V2000
    9.6896  -13.3048   18.6414 C   0  0  0  0  0  0  0  0  0  0  0  0
    8.2005  -13.5433   18.7965 C   0  0  2  0  0  0  0  0  0  0  0  0
    7.5080  -12.2199   18.8754 C   0  0  0  0  0  0  0  0  0  0  0  0
    7.9924  -14.3876   20.0356 C   0  0  0  0  0  0  0  0  0  0  0  0
    8.6395  -15.7313   19.7806 C   0  0  2  0  0  0  0  0  0  0  0  0
    7.7879  -16.4438   18.8530 N   0  0  0  0  0  0  0  0  0  0  0  0
    8.8293  -16.5068   21.0248 C   0  0  0  0  0  0  0  0  0  0  0  0
    7.8762  -17.0099   21.6418 O   0  0  0  0  0  0  0  0  0  0  0  0
   11.9489  -18.6444   24.2560 C   0  0  0  0  0  0  0  0  0  0  0  0
   11.6974  -18.0269   22.8967 C   0  0  1  0  0  0  0  0  0  0  0  0
   11.7974  -18.9728   21.8784 O   0  0  0  0  0  0  0  0  0  0  0  0
   10.4098  -17.2587   22.8410 C   0  0  2  0  0  0  0  0  0  0  0  0
   10.1262  -16.6942   21.5467 N   0  0  0  0  0  0  0  0  0  0  0  0
   10.4447  -16.2241   23.9060 C   0  0  0  0  0  0  0  0  0  0  0  0
   11.1679  -15.2036   23.7693 O   0  0  0  0  0  0  0  0  0  0  0  0
    6.0245  -11.4678   27.6651 C   0  0  0  0  0  0  0  0  0  0  0  0
    6.3086  -12.8987   26.5770 S   0  0  0  0  0  0  0  0  0  0  0  0
    7.9329  -13.6343   26.8930 C   0  0  0  0  0  0  0  0  0  0  0  0
    8.1680  -14.7203   25.8530 C   0  0  0  0  0  0  0  0  0  0  0  0
    9.5363  -15.3744   26.0981 C   0  0  2  0  0  0  0  0  0  0  0  0
    9.6769  -16.3773   25.0616 N   0  0  0  0  0  0  0  0  0  0  0  0
    9.5314  -15.9369   27.4457 C   0  0  0  0  0  0  0  0  0  0  0  0
    9.8129  -15.1497   28.5403 O   0  0  0  0  0  0  0  0  0  0  0  0
    9.2704  -17.1447   27.6192 O   0  0  0  0  0  0  0  0  0  0  0  0
  2  1  1  1
  2  3  1  0
  4  2  1  0
  5  7  1  0
  5  4  1  0
  5  6  1  6
  7  8  2  0
 10  9  1  1
 11 10  1  0
 12 10  1  0
 13  7  1  0
 12 13  1  6
 14 15  2  0
 14 12  1  0
 16 17  1  0
 18 19  1  0
 18 17  1  0
 20 19  1  6
 20 21  1  0
 21 14  1  0
 22 20  1  0
 22 23  1  0
 24 22  2  0
M  END
$$$$
