LTM.pdb
     RDKit          3D

 24 23  0  0  1  0  0  0  0  0999 V2000
    7.0523  -12.8708   17.9405 C   0  0  0  0  0  0  0  0  0  0  0  0
    7.9842  -13.3148   19.0508 C   0  0  2  0  0  0  0  0  0  0  0  0
    8.7983  -12.1404   19.4926 C   0  0  0  0  0  0  0  0  0  0  0  0
    8.8337  -14.4487   18.5178 C   0  0  0  0  0  0  0  0  0  0  0  0
    9.7263  -14.9142   19.6474 C   0  0  2  0  0  0  0  0  0  0  0  0
   10.5570  -15.9762   19.1226 N   0  0  0  0  0  0  0  0  0  0  0  0
    8.9522  -15.3795   20.8178 C   0  0  0  0  0  0  0  0  0  0  0  0
    8.1318  -14.6509   21.3995 O   0  0  0  0  0  0  0  0  0  0  0  0
   10.2786  -18.9465   22.8042 C   0  0  0  0  0  0  0  0  0  0  0  0
    8.7925  -18.6649   22.7383 C   0  0  1  0  0  0  0  0  0  0  0  0
    8.1280  -19.1569   23.8600 O   0  0  0  0  0  0  0  0  0  0  0  0
    8.4900  -17.2179   22.4816 C   0  0  2  0  0  0  0  0  0  0  0  0
    9.1350  -16.6896   21.3073 N   0  0  0  0  0  0  0  0  0  0  0  0
    8.8402  -16.4507   23.7041 C   0  0  0  0  0  0  0  0  0  0  0  0
   10.0292  -16.0906   23.9027 O   0  0  0  0  0  0  0  0  0  0  0  0
    7.3185  -10.7200   27.6286 C   0  0  0  0  0  0  0  0  0  0  0  0
    7.0793  -12.0349   26.3933 S   0  0  0  0  0  0  0  0  0  0  0  0
    6.8016  -13.6322   27.2000 C   0  0  0  0  0  0  0  0  0  0  0  0
    6.6676  -14.6906   26.1146 C   0  0  0  0  0  0  0  0  0  0  0  0
    8.0552  -15.2596   25.7820 C   0  0  2  0  0  0  0  0  0  0  0  0
    7.8544  -16.1250   24.6371 N   0  0  0  0  0  0  0  0  0  0  0  0
    8.5449  -15.9695   26.9605 C   0  0  0  0  0  0  0  0  0  0  0  0
    9.3313  -15.3306   27.8935 O   0  0  0  0  0  0  0  0  0  0  0  0
    8.2533  -17.1702   27.1344 O   0  0  0  0  0  0  0  0  0  0  0  0
  2  1  1  6
  2  3  1  0
  4  2  1  0
  5  7  1  0
  5  4  1  0
  5  6  1  6
  7  8  2  0
 10  9  1  1
 11 10  1  0
 12 10  1  0
 13  7  1  0
 12 13  1  6
 14 15  2  0
 14 12  1  0
 16 17  1  0
 18 19  1  0
 18 17  1  0
 20 19  1  1
 20 21  1  0
 21 14  1  0
 22 20  1  0
 22 23  1  0
 24 22  2  0
M  END
$$$$
