LTM.pdb
     RDKit          3D

 24 23  0  0  1  0  0  0  0  0999 V2000
    9.4079  -13.2917   18.5195 C   0  0  0  0  0  0  0  0  0  0  0  0
    7.9117  -13.4931   18.6587 C   0  0  2  0  0  0  0  0  0  0  0  0
    7.2481  -12.1531   18.6945 C   0  0  0  0  0  0  0  0  0  0  0  0
    7.6674  -14.3011   19.9153 C   0  0  0  0  0  0  0  0  0  0  0  0
    8.3724  -15.6287   19.7431 C   0  0  2  0  0  0  0  0  0  0  0  0
    7.6209  -16.3851   18.7650 N   0  0  0  0  0  0  0  0  0  0  0  0
    8.4824  -16.3737   21.0152 C   0  0  0  0  0  0  0  0  0  0  0  0
    7.4846  -16.7964   21.6218 O   0  0  0  0  0  0  0  0  0  0  0  0
   11.3824  -18.6244   24.3711 C   0  0  0  0  0  0  0  0  0  0  0  0
   11.1799  -18.0570   22.9822 C   0  0  1  0  0  0  0  0  0  0  0  0
   11.1876  -19.0590   22.0138 O   0  0  0  0  0  0  0  0  0  0  0  0
    9.9670  -17.1787   22.8886 C   0  0  2  0  0  0  0  0  0  0  0  0
    9.7517  -16.6243   21.5769 N   0  0  0  0  0  0  0  0  0  0  0  0
   10.0808  -16.1247   23.9286 C   0  0  0  0  0  0  0  0  0  0  0  0
   10.9372  -15.2109   23.8083 O   0  0  0  0  0  0  0  0  0  0  0  0
    6.4573  -10.8519   27.9454 C   0  0  0  0  0  0  0  0  0  0  0  0
    6.4612  -12.2923   26.8330 S   0  0  0  0  0  0  0  0  0  0  0  0
    7.9577  -13.2840   27.0705 C   0  0  0  0  0  0  0  0  0  0  0  0
    8.0018  -14.3392   25.9746 C   0  0  0  0  0  0  0  0  0  0  0  0
    9.2815  -15.1762   26.1227 C   0  0  2  0  0  0  0  0  0  0  0  0
    9.2398  -16.1413   25.0426 N   0  0  0  0  0  0  0  0  0  0  0  0
    9.2651  -15.7931   27.4462 C   0  0  0  0  0  0  0  0  0  0  0  0
    8.9658  -17.1288   27.5989 O   0  0  0  0  0  0  0  0  0  0  0  0
    9.5240  -15.1108   28.4584 O   0  0  0  0  0  0  0  0  0  0  0  0
  2  1  1  1
  2  3  1  0
  4  2  1  0
  5  7  1  0
  5  4  1  0
  5  6  1  6
  7  8  2  0
 10  9  1  1
 11 10  1  0
 12 10  1  0
 13  7  1  0
 12 13  1  6
 14 15  2  0
 14 12  1  0
 16 17  1  0
 18 19  1  0
 18 17  1  0
 20 19  1  1
 20 21  1  0
 21 14  1  0
 22 20  1  0
 22 23  1  0
 24 22  2  0
M  END
$$$$
