LTM.pdb
     RDKit          3D

 24 23  0  0  1  0  0  0  0  0999 V2000
    7.2674  -12.5000   17.5064 C   0  0  0  0  0  0  0  0  0  0  0  0
    8.1596  -12.9533   18.6451 C   0  0  2  0  0  0  0  0  0  0  0  0
    9.4774  -12.2551   18.5298 C   0  0  0  0  0  0  0  0  0  0  0  0
    8.2863  -14.4596   18.5637 C   0  0  0  0  0  0  0  0  0  0  0  0
    9.3256  -14.8812   19.5794 C   0  0  2  0  0  0  0  0  0  0  0  0
   10.1098  -15.9348   18.9726 N   0  0  0  0  0  0  0  0  0  0  0  0
    8.7171  -15.3394   20.8464 C   0  0  0  0  0  0  0  0  0  0  0  0
    7.8822  -14.6575   21.4630 O   0  0  0  0  0  0  0  0  0  0  0  0
    8.0654  -19.4189   21.7248 C   0  0  0  0  0  0  0  0  0  0  0  0
    8.7815  -18.6012   22.7787 C   0  0  1  0  0  0  0  0  0  0  0  0
   10.1346  -18.9268   22.8473 O   0  0  0  0  0  0  0  0  0  0  0  0
    8.5541  -17.1268   22.6185 C   0  0  2  0  0  0  0  0  0  0  0  0
    9.0818  -16.5881   21.3915 N   0  0  0  0  0  0  0  0  0  0  0  0
    9.1104  -16.4428   23.8136 C   0  0  0  0  0  0  0  0  0  0  0  0
   10.3561  -16.3659   23.9725 O   0  0  0  0  0  0  0  0  0  0  0  0
    5.8440  -11.7774   26.9071 C   0  0  0  0  0  0  0  0  0  0  0  0
    7.4789  -12.0641   27.6534 S   0  0  0  0  0  0  0  0  0  0  0  0
    7.7941  -13.8364   27.8502 C   0  0  0  0  0  0  0  0  0  0  0  0
    7.4440  -14.5251   26.5389 C   0  0  0  0  0  0  0  0  0  0  0  0
    8.6930  -15.2229   25.9793 C   0  0  2  0  0  0  0  0  0  0  0  0
    8.2565  -15.8821   24.7649 N   0  0  0  0  0  0  0  0  0  0  0  0
    9.1821  -16.1522   26.9941 C   0  0  0  0  0  0  0  0  0  0  0  0
   10.1803  -15.7820   27.8679 O   0  0  0  0  0  0  0  0  0  0  0  0
    8.6968  -17.2986   27.0794 O   0  0  0  0  0  0  0  0  0  0  0  0
  2  1  1  6
  2  3  1  0
  4  2  1  0
  5  7  1  0
  5  4  1  0
  5  6  1  6
  7  8  2  0
 10  9  1  6
 11 10  1  0
 12 10  1  0
 13  7  1  0
 12 13  1  6
 14 15  2  0
 14 12  1  0
 16 17  1  0
 18 19  1  0
 18 17  1  0
 20 19  1  1
 20 21  1  0
 21 14  1  0
 22 20  1  0
 22 23  1  0
 24 22  2  0
M  END
$$$$
