LTM.pdb
     RDKit          3D

 24 23  0  0  1  0  0  0  0  0999 V2000
    9.9040  -13.1810   19.4610 C   0  0  0  0  0  0  0  0  0  0  0  0
    8.6010  -13.1499   18.6867 C   0  0  2  0  0  0  0  0  0  0  0  0
    7.9447  -11.8237   18.9043 C   0  0  0  0  0  0  0  0  0  0  0  0
    7.7510  -14.3087   19.1623 C   0  0  0  0  0  0  0  0  0  0  0  0
    8.6921  -15.3966   19.6317 C   0  0  2  0  0  0  0  0  0  0  0  0
    8.5791  -16.4908   18.6918 N   0  0  0  0  0  0  0  0  0  0  0  0
    8.3859  -15.8477   21.0058 C   0  0  0  0  0  0  0  0  0  0  0  0
    7.2559  -15.7237   21.5057 O   0  0  0  0  0  0  0  0  0  0  0  0
    8.4893  -19.2527   22.4505 C   0  0  0  0  0  0  0  0  0  0  0  0
    9.4528  -18.4155   23.2647 C   0  0  1  0  0  0  0  0  0  0  0  0
   10.7778  -18.7520   22.9945 O   0  0  0  0  0  0  0  0  0  0  0  0
    9.1960  -16.9436   23.1282 C   0  0  2  0  0  0  0  0  0  0  0  0
    9.3946  -16.4410   21.7933 N   0  0  0  0  0  0  0  0  0  0  0  0
   10.0407  -16.2349   24.1232 C   0  0  0  0  0  0  0  0  0  0  0  0
   11.1330  -16.7373   24.4939 O   0  0  0  0  0  0  0  0  0  0  0  0
    6.7424  -11.4169   26.3161 C   0  0  0  0  0  0  0  0  0  0  0  0
    6.4364  -12.5969   27.6674 S   0  0  0  0  0  0  0  0  0  0  0  0
    7.6383  -13.9507   27.6235 C   0  0  0  0  0  0  0  0  0  0  0  0
    7.9669  -14.2411   26.1661 C   0  0  0  0  0  0  0  0  0  0  0  0
    9.4128  -14.7493   26.0600 C   0  0  2  0  0  0  0  0  0  0  0  0
    9.6289  -15.0100   24.6510 N   0  0  0  0  0  0  0  0  0  0  0  0
    9.5320  -15.9443   26.8909 C   0  0  0  0  0  0  0  0  0  0  0  0
   10.3217  -15.9435   28.0194 O   0  0  0  0  0  0  0  0  0  0  0  0
    8.9152  -16.9845   26.5839 O   0  0  0  0  0  0  0  0  0  0  0  0
  2  1  1  1
  2  3  1  0
  4  2  1  0
  5  7  1  0
  5  4  1  0
  5  6  1  6
  7  8  2  0
 10  9  1  6
 11 10  1  0
 12 10  1  0
 13  7  1  0
 12 13  1  6
 14 15  2  0
 14 12  1  0
 16 17  1  0
 18 19  1  0
 18 17  1  0
 20 19  1  6
 20 21  1  0
 21 14  1  0
 22 20  1  0
 22 23  1  0
 24 22  2  0
M  END
$$$$
