LTM.pdb
     RDKit          3D

 24 23  0  0  1  0  0  0  0  0999 V2000
    9.2566  -12.5765   19.4614 C   0  0  0  0  0  0  0  0  0  0  0  0
    8.1086  -13.4314   18.9618 C   0  0  2  0  0  0  0  0  0  0  0  0
    7.0084  -12.5323   18.4945 C   0  0  0  0  0  0  0  0  0  0  0  0
    7.6804  -14.3407   20.0938 C   0  0  0  0  0  0  0  0  0  0  0  0
    8.9366  -14.8247   20.7844 C   0  0  2  0  0  0  0  0  0  0  0  0
    9.4639  -15.9146   19.9923 N   0  0  0  0  0  0  0  0  0  0  0  0
    8.6802  -15.2585   22.1742 C   0  0  0  0  0  0  0  0  0  0  0  0
    7.8853  -14.6600   22.9173 O   0  0  0  0  0  0  0  0  0  0  0  0
    8.2698  -19.1589   23.2879 C   0  0  0  0  0  0  0  0  0  0  0  0
    9.3060  -18.4096   24.0984 C   0  0  1  0  0  0  0  0  0  0  0  0
   10.5993  -18.8182   23.7789 O   0  0  0  0  0  0  0  0  0  0  0  0
    9.1380  -16.9209   24.0150 C   0  0  2  0  0  0  0  0  0  0  0  0
    9.3490  -16.3861   22.6945 N   0  0  0  0  0  0  0  0  0  0  0  0
   10.0380  -16.2993   25.0197 C   0  0  0  0  0  0  0  0  0  0  0  0
   11.2082  -15.9679   24.6975 O   0  0  0  0  0  0  0  0  0  0  0  0
    6.5416  -11.5815   26.5619 C   0  0  0  0  0  0  0  0  0  0  0  0
    7.4126  -12.6244   27.7726 S   0  0  0  0  0  0  0  0  0  0  0  0
    8.7049  -13.6036   26.9660 C   0  0  0  0  0  0  0  0  0  0  0  0
    9.3972  -14.4392   28.0331 C   0  0  0  0  0  0  0  0  0  0  0  0
   10.3641  -15.4261   27.3614 C   0  0  2  0  0  0  0  0  0  0  0  0
    9.5916  -16.0792   26.3238 N   0  0  0  0  0  0  0  0  0  0  0  0
   10.8486  -16.3485   28.3846 C   0  0  0  0  0  0  0  0  0  0  0  0
   10.4331  -17.6615   28.4052 O   0  0  0  0  0  0  0  0  0  0  0  0
   11.6493  -15.9528   29.2559 O   0  0  0  0  0  0  0  0  0  0  0  0
  2  1  1  1
  2  3  1  0
  4  2  1  0
  5  7  1  0
  5  4  1  0
  5  6  1  6
  7  8  2  0
 10  9  1  6
 11 10  1  0
 12 10  1  0
 13  7  1  0
 12 13  1  6
 14 15  2  0
 14 12  1  0
 16 17  1  0
 18 19  1  0
 18 17  1  0
 20 19  1  1
 20 21  1  0
 21 14  1  0
 22 20  1  0
 22 23  1  0
 24 22  2  0
M  END
$$$$
