LTM.pdb
     RDKit          3D

 24 23  0  0  1  0  0  0  0  0999 V2000
    5.8740  -12.3077   24.5577 C   0  0  0  0  0  0  0  0  0  0  0  0
    5.9143  -13.0240   25.8933 C   0  0  2  0  0  0  0  0  0  0  0  0
    6.1013  -12.0098   26.9766 C   0  0  0  0  0  0  0  0  0  0  0  0
    7.0362  -14.0390   25.8417 C   0  0  0  0  0  0  0  0  0  0  0  0
    6.6042  -15.1427   24.9012 C   0  0  2  0  0  0  0  0  0  0  0  0
    5.5201  -15.8509   25.5467 N   0  0  0  0  0  0  0  0  0  0  0  0
    7.7128  -16.0631   24.5708 C   0  0  0  0  0  0  0  0  0  0  0  0
    8.0063  -17.0301   25.2927 O   0  0  0  0  0  0  0  0  0  0  0  0
    8.6068  -17.1698   20.7468 C   0  0  0  0  0  0  0  0  0  0  0  0
    9.8207  -16.6975   21.5186 C   0  0  1  0  0  0  0  0  0  0  0  0
   10.2921  -15.4786   21.0353 O   0  0  0  0  0  0  0  0  0  0  0  0
    9.5896  -16.6756   23.0010 C   0  0  2  0  0  0  0  0  0  0  0  0
    8.4757  -15.8558   23.4027 N   0  0  0  0  0  0  0  0  0  0  0  0
   10.8549  -16.2596   23.6579 C   0  0  0  0  0  0  0  0  0  0  0  0
   11.2718  -15.0793   23.5312 O   0  0  0  0  0  0  0  0  0  0  0  0
   10.6512  -13.4015   28.1568 C   0  0  0  0  0  0  0  0  0  0  0  0
   11.1738  -14.9489   28.9596 S   0  0  0  0  0  0  0  0  0  0  0  0
   12.2477  -15.9109   27.8639 C   0  0  0  0  0  0  0  0  0  0  0  0
   11.4793  -16.1929   26.5808 C   0  0  0  0  0  0  0  0  0  0  0  0
   12.4252  -16.8231   25.5471 C   0  0  2  0  0  0  0  0  0  0  0  0
   11.5867  -17.1732   24.4182 N   0  0  0  0  0  0  0  0  0  0  0  0
   13.0652  -17.9793   26.1686 C   0  0  0  0  0  0  0  0  0  0  0  0
   14.2112  -17.8336   26.9185 O   0  0  0  0  0  0  0  0  0  0  0  0
   12.5761  -19.1182   26.0248 O   0  0  0  0  0  0  0  0  0  0  0  0
  2  1  1  6
  2  3  1  0
  4  2  1  0
  5  7  1  0
  5  4  1  0
  5  6  1  1
  7  8  2  0
 10  9  1  6
 11 10  1  0
 12 10  1  0
 13  7  1  0
 12 13  1  6
 14 15  2  0
 14 12  1  0
 16 17  1  0
 18 19  1  0
 18 17  1  0
 20 19  1  1
 20 21  1  0
 21 14  1  0
 22 20  1  0
 22 23  1  0
 24 22  2  0
M  END
$$$$
