LTM.pdb
     RDKit          3D

 24 23  0  0  1  0  0  0  0  0999 V2000
    9.7875  -13.1729   19.5729 C   0  0  0  0  0  0  0  0  0  0  0  0
    8.5600  -13.1349   18.6840 C   0  0  2  0  0  0  0  0  0  0  0  0
    7.8407  -11.8438   18.9137 C   0  0  0  0  0  0  0  0  0  0  0  0
    7.7112  -14.3444   19.0132 C   0  0  0  0  0  0  0  0  0  0  0  0
    8.6503  -15.5124   19.2209 C   0  0  2  0  0  0  0  0  0  0  0  0
    8.4371  -16.4296   18.1223 N   0  0  0  0  0  0  0  0  0  0  0  0
    8.4302  -16.1842   20.5192 C   0  0  0  0  0  0  0  0  0  0  0  0
    7.3322  -16.6722   20.8330 O   0  0  0  0  0  0  0  0  0  0  0  0
    9.9897  -19.2190   21.9056 C   0  0  0  0  0  0  0  0  0  0  0  0
   10.2957  -18.1108   22.8907 C   0  0  1  0  0  0  0  0  0  0  0  0
   11.6421  -17.7532   22.8569 O   0  0  0  0  0  0  0  0  0  0  0  0
    9.3846  -16.9294   22.7318 C   0  0  2  0  0  0  0  0  0  0  0  0
    9.4873  -16.2858   21.4475 N   0  0  0  0  0  0  0  0  0  0  0  0
    9.6506  -15.9893   23.8504 C   0  0  0  0  0  0  0  0  0  0  0  0
   10.1808  -14.8716   23.6213 O   0  0  0  0  0  0  0  0  0  0  0  0
    7.0325  -11.0946   26.3975 C   0  0  0  0  0  0  0  0  0  0  0  0
    6.5821  -12.6243   27.2744 S   0  0  0  0  0  0  0  0  0  0  0  0
    8.0225  -13.7055   27.4627 C   0  0  0  0  0  0  0  0  0  0  0  0
    8.0860  -14.6206   26.2483 C   0  0  0  0  0  0  0  0  0  0  0  0
    9.3821  -15.4440   26.2964 C   0  0  2  0  0  0  0  0  0  0  0  0
    9.3142  -16.3395   25.1591 N   0  0  0  0  0  0  0  0  0  0  0  0
    9.4235  -16.1437   27.5776 C   0  0  0  0  0  0  0  0  0  0  0  0
    9.2517  -17.5087   27.6425 O   0  0  0  0  0  0  0  0  0  0  0  0
    9.6163  -15.5066   28.6331 O   0  0  0  0  0  0  0  0  0  0  0  0
  2  1  1  1
  2  3  1  0
  4  2  1  0
  5  7  1  0
  5  4  1  0
  5  6  1  6
  7  8  2  0
 10  9  1  6
 11 10  1  0
 12 10  1  0
 13  7  1  0
 12 13  1  6
 14 15  2  0
 14 12  1  0
 16 17  1  0
 18 19  1  0
 18 17  1  0
 20 19  1  1
 20 21  1  0
 21 14  1  0
 22 20  1  0
 22 23  1  0
 24 22  2  0
M  END
$$$$
