LTM.pdb
     RDKit          3D

 24 23  0  0  1  0  0  0  0  0999 V2000
    9.8892  -12.9811   19.3309 C   0  0  0  0  0  0  0  0  0  0  0  0
    8.6413  -13.1639   18.4896 C   0  0  2  0  0  0  0  0  0  0  0  0
    7.8629  -11.8867   18.5015 C   0  0  0  0  0  0  0  0  0  0  0  0
    7.8627  -14.3292   19.0617 C   0  0  0  0  0  0  0  0  0  0  0  0
    8.8143  -15.5010   19.1656 C   0  0  2  0  0  0  0  0  0  0  0  0
    8.6051  -16.3234   17.9937 N   0  0  0  0  0  0  0  0  0  0  0  0
    8.6069  -16.2831   20.4028 C   0  0  0  0  0  0  0  0  0  0  0  0
    7.5831  -16.9599   20.5929 O   0  0  0  0  0  0  0  0  0  0  0  0
   10.1337  -19.1727   21.7138 C   0  0  0  0  0  0  0  0  0  0  0  0
   10.3591  -18.1531   22.8101 C   0  0  1  0  0  0  0  0  0  0  0  0
   11.7041  -17.8045   22.9162 O   0  0  0  0  0  0  0  0  0  0  0  0
    9.4652  -16.9554   22.6772 C   0  0  2  0  0  0  0  0  0  0  0  0
    9.5903  -16.2752   21.4139 N   0  0  0  0  0  0  0  0  0  0  0  0
    9.7313  -16.0529   23.8262 C   0  0  0  0  0  0  0  0  0  0  0  0
   10.1511  -14.8840   23.6250 O   0  0  0  0  0  0  0  0  0  0  0  0
    7.4867  -11.7411   27.5320 C   0  0  0  0  0  0  0  0  0  0  0  0
    6.8168  -12.8372   26.2429 S   0  0  0  0  0  0  0  0  0  0  0  0
    6.8023  -14.5583   26.8059 C   0  0  0  0  0  0  0  0  0  0  0  0
    7.4969  -15.4050   25.7491 C   0  0  0  0  0  0  0  0  0  0  0  0
    8.9399  -15.6915   26.1917 C   0  0  2  0  0  0  0  0  0  0  0  0
    9.5171  -16.4949   25.1328 N   0  0  0  0  0  0  0  0  0  0  0  0
    8.8876  -16.3846   27.4761 C   0  0  0  0  0  0  0  0  0  0  0  0
    8.7835  -17.7568   27.5341 O   0  0  0  0  0  0  0  0  0  0  0  0
    8.9370  -15.7353   28.5405 O   0  0  0  0  0  0  0  0  0  0  0  0
  2  1  1  1
  2  3  1  0
  4  2  1  0
  5  7  1  0
  5  4  1  0
  5  6  1  6
  7  8  2  0
 10  9  1  6
 11 10  1  0
 12 10  1  0
 13  7  1  0
 12 13  1  6
 14 15  2  0
 14 12  1  0
 16 17  1  0
 18 19  1  0
 18 17  1  0
 20 19  1  6
 20 21  1  0
 21 14  1  0
 22 20  1  0
 22 23  1  0
 24 22  2  0
M  END
$$$$
