SCM.pdb
     RDKit          3D

 21 20  0  0  1  0  0  0  0  0999 V2000
    9.1606  -11.7461   18.5235 O   0  0  0  0  0  0  0  0  0  0  0  0
    8.5363  -12.6107   19.4361 C   0  0  0  0  0  0  0  0  0  0  0  0
    8.6055  -14.0430   18.9440 C   0  0  2  0  0  0  0  0  0  0  0  0
    7.5781  -14.1729   17.9266 N   0  0  0  0  0  0  0  0  0  0  0  0
    8.3600  -15.0086   20.0312 C   0  0  0  0  0  0  0  0  0  0  0  0
    7.1915  -15.4546   20.2981 O   0  0  0  0  0  0  0  0  0  0  0  0
    9.4052  -15.5071   20.8535 N   0  0  0  0  0  0  0  0  0  0  0  0
    9.1981  -16.4916   21.8855 C   0  0  1  0  0  0  0  0  0  0  0  0
   10.2791  -17.5403   21.7118 C   0  0  0  0  0  0  0  0  0  0  0  0
   10.2518  -18.7426   23.0602 S   0  0  0  0  0  0  0  0  0  0  0  0
    9.3142  -15.9175   23.2467 C   0  0  0  0  0  0  0  0  0  0  0  0
   10.3445  -15.1992   23.4885 O   0  0  0  0  0  0  0  0  0  0  0  0
    6.3820  -10.7608   26.7596 C   0  0  0  0  0  0  0  0  0  0  0  0
    5.9802  -12.5065   26.5645 S   0  0  0  0  0  0  0  0  0  0  0  0
    7.5079  -13.3824   26.0809 C   0  0  0  0  0  0  0  0  0  0  0  0
    7.2827  -14.8619   26.0025 C   0  0  0  0  0  0  0  0  0  0  0  0
    8.5180  -15.5499   25.5419 C   0  0  2  0  0  0  0  0  0  0  0  0
    8.3267  -16.1586   24.2264 N   0  0  0  0  0  0  0  0  0  0  0  0
    8.9258  -16.6553   26.4289 C   0  0  0  0  0  0  0  0  0  0  0  0
    9.7471  -16.4628   27.5188 O   0  0  0  0  0  0  0  0  0  0  0  0
    8.5123  -17.8393   26.1869 O   0  0  0  0  0  0  0  0  0  0  0  0
  2  1  1  0
  3  2  1  0
  3  4  1  6
  5  6  2  0
  5  3  1  0
  7  5  1  0
  8 11  1  0
  8  7  1  0
  8  9  1  1
 10  9  1  0
 11 12  2  0
 13 14  1  0
 15 14  1  0
 16 15  1  0
 17 16  1  1
 18 17  1  0
 18 11  1  0
 19 17  1  0
 20 19  1  0
 21 19  2  0
M  END
$$$$
