SCM.pdb
     RDKit          3D

 21 20  0  0  1  0  0  0  0  0999 V2000
    8.6646  -20.1169   20.5558 O   0  0  0  0  0  0  0  0  0  0  0  0
    7.8269  -19.5182   19.6019 C   0  0  0  0  0  0  0  0  0  0  0  0
    8.5190  -18.3346   18.9549 C   0  0  2  0  0  0  0  0  0  0  0  0
    9.7762  -18.8363   18.4303 N   0  0  0  0  0  0  0  0  0  0  0  0
    8.7756  -17.2529   19.9238 C   0  0  0  0  0  0  0  0  0  0  0  0
    9.9326  -17.0480   20.4287 O   0  0  0  0  0  0  0  0  0  0  0  0
    7.7547  -16.3671   20.3599 N   0  0  0  0  0  0  0  0  0  0  0  0
    7.9778  -15.3142   21.3185 C   0  0  1  0  0  0  0  0  0  0  0  0
    6.8250  -14.3403   21.1734 C   0  0  0  0  0  0  0  0  0  0  0  0
    6.9560  -12.9846   22.3606 S   0  0  0  0  0  0  0  0  0  0  0  0
    7.9987  -15.8139   22.7134 C   0  0  0  0  0  0  0  0  0  0  0  0
    7.3014  -16.8554   22.9680 O   0  0  0  0  0  0  0  0  0  0  0  0
   10.9233  -14.0258   29.4634 C   0  0  0  0  0  0  0  0  0  0  0  0
    9.3871  -14.1123   28.5255 S   0  0  0  0  0  0  0  0  0  0  0  0
    9.5152  -15.5199   27.3692 C   0  0  0  0  0  0  0  0  0  0  0  0
    9.6860  -15.0477   25.9572 C   0  0  0  0  0  0  0  0  0  0  0  0
    8.6809  -15.6920   25.0706 C   0  0  2  0  0  0  0  0  0  0  0  0
    8.7572  -15.1624   23.7101 N   0  0  0  0  0  0  0  0  0  0  0  0
    7.2923  -15.4532   25.5061 C   0  0  0  0  0  0  0  0  0  0  0  0
    6.5058  -16.4486   26.0445 O   0  0  0  0  0  0  0  0  0  0  0  0
    6.7875  -14.2864   25.3820 O   0  0  0  0  0  0  0  0  0  0  0  0
  2  1  1  0
  3  2  1  0
  3  4  1  1
  5  6  2  0
  5  3  1  0
  7  5  1  0
  8 11  1  0
  8  7  1  0
  8  9  1  1
 10  9  1  0
 11 12  2  0
 13 14  1  0
 15 14  1  0
 16 15  1  0
 17 16  1  1
 18 17  1  0
 18 11  1  0
 19 17  1  0
 20 19  1  0
 21 19  2  0
M  END
$$$$
