SCM.pdb
     RDKit          3D

 21 20  0  0  1  0  0  0  0  0999 V2000
   13.6197  -28.2543   31.0189 O   0  0  0  0  0  0  0  0  0  0  0  0
   12.4328  -27.5368   31.2346 C   0  0  0  0  0  0  0  0  0  0  0  0
   12.2710  -26.4505   30.1895 C   0  0  2  0  0  0  0  0  0  0  0  0
   12.6693  -27.0413   28.9246 N   0  0  0  0  0  0  0  0  0  0  0  0
   13.1148  -25.2773   30.4831 C   0  0  0  0  0  0  0  0  0  0  0  0
   14.2267  -25.0689   29.8868 O   0  0  0  0  0  0  0  0  0  0  0  0
   12.7481  -24.3013   31.4475 N   0  0  0  0  0  0  0  0  0  0  0  0
   13.5484  -23.1389   31.7398 C   0  0  1  0  0  0  0  0  0  0  0  0
   12.6024  -21.9545   31.7725 C   0  0  0  0  0  0  0  0  0  0  0  0
   13.4692  -20.4327   32.2166 S   0  0  0  0  0  0  0  0  0  0  0  0
   14.2273  -23.2350   33.0535 C   0  0  0  0  0  0  0  0  0  0  0  0
   13.5630  -23.7562   34.0141 O   0  0  0  0  0  0  0  0  0  0  0  0
   16.2860  -27.6690   35.9173 C   0  0  0  0  0  0  0  0  0  0  0  0
   17.2811  -26.3177   36.5737 S   0  0  0  0  0  0  0  0  0  0  0  0
   16.4124  -24.7535   36.2084 C   0  0  0  0  0  0  0  0  0  0  0  0
   16.4921  -24.4170   34.7502 C   0  0  0  0  0  0  0  0  0  0  0  0
   16.1730  -22.9810   34.5321 C   0  0  2  0  0  0  0  0  0  0  0  0
   15.5486  -22.7690   33.2273 N   0  0  0  0  0  0  0  0  0  0  0  0
   17.3692  -22.1184   34.5382 C   0  0  0  0  0  0  0  0  0  0  0  0
   17.7500  -21.3919   35.6457 O   0  0  0  0  0  0  0  0  0  0  0  0
   18.0848  -22.0303   33.4838 O   0  0  0  0  0  0  0  0  0  0  0  0
  2  1  1  0
  3  2  1  0
  3  4  1  6
  5  6  2  0
  5  3  1  0
  7  5  1  0
  8 11  1  0
  8  7  1  0
  8  9  1  1
 10  9  1  0
 11 12  2  0
 13 14  1  0
 15 14  1  0
 16 15  1  0
 17 16  1  6
 18 17  1  0
 18 11  1  0
 19 17  1  0
 20 19  1  0
 21 19  2  0
M  END
$$$$
