SCM.pdb
     RDKit          3D

 21 20  0  0  1  0  0  0  0  0999 V2000
   13.3870  -14.4812   20.3425 O   0  0  0  0  0  0  0  0  0  0  0  0
   13.4040  -15.8708   20.5394 C   0  0  0  0  0  0  0  0  0  0  0  0
   12.2637  -16.5282   19.7869 C   0  0  2  0  0  0  0  0  0  0  0  0
   12.1561  -15.8276   18.5199 N   0  0  0  0  0  0  0  0  0  0  0  0
   10.9908  -16.4291   20.5247 C   0  0  0  0  0  0  0  0  0  0  0  0
   10.1109  -15.5415   20.2533 O   0  0  0  0  0  0  0  0  0  0  0  0
   10.6580  -17.3129   21.5854 N   0  0  0  0  0  0  0  0  0  0  0  0
    9.4152  -17.2434   22.3121 C   0  0  1  0  0  0  0  0  0  0  0  0
    9.0455  -18.6665   22.6818 C   0  0  0  0  0  0  0  0  0  0  0  0
    7.5283  -18.7184   23.6616 S   0  0  0  0  0  0  0  0  0  0  0  0
    9.5317  -16.4491   23.5576 C   0  0  0  0  0  0  0  0  0  0  0  0
   10.6742  -16.4337   24.1323 O   0  0  0  0  0  0  0  0  0  0  0  0
    5.2264  -11.8024   26.4845 C   0  0  0  0  0  0  0  0  0  0  0  0
    6.9809  -11.7169   26.8867 S   0  0  0  0  0  0  0  0  0  0  0  0
    7.6321  -13.4227   26.9184 C   0  0  0  0  0  0  0  0  0  0  0  0
    7.4675  -14.0905   25.5869 C   0  0  0  0  0  0  0  0  0  0  0  0
    8.6342  -14.9666   25.2993 C   0  0  2  0  0  0  0  0  0  0  0  0
    8.4251  -15.7444   24.0792 N   0  0  0  0  0  0  0  0  0  0  0  0
    8.8821  -15.9611   26.3596 C   0  0  0  0  0  0  0  0  0  0  0  0
    9.7376  -15.7199   27.4129 O   0  0  0  0  0  0  0  0  0  0  0  0
    8.2912  -17.0924   26.3096 O   0  0  0  0  0  0  0  0  0  0  0  0
  2  1  1  0
  3  2  1  0
  3  4  1  6
  5  6  2  0
  5  3  1  0
  7  5  1  0
  8 11  1  0
  8  7  1  0
  8  9  1  1
 10  9  1  0
 11 12  2  0
 13 14  1  0
 15 14  1  0
 16 15  1  0
 17 16  1  1
 18 17  1  0
 18 11  1  0
 19 17  1  0
 20 19  1  0
 21 19  2  0
M  END
$$$$
