SCM.pdb
     RDKit          3D

 21 20  0  0  1  0  0  0  0  0999 V2000
   10.4137  -16.9210   18.3006 O   0  0  0  0  0  0  0  0  0  0  0  0
    9.0961  -16.5227   18.5751 C   0  0  0  0  0  0  0  0  0  0  0  0
    8.2170  -17.7319   18.8272 C   0  0  2  0  0  0  0  0  0  0  0  0
    7.2717  -17.7832   17.7266 N   0  0  0  0  0  0  0  0  0  0  0  0
    7.4919  -17.6252   20.1068 C   0  0  0  0  0  0  0  0  0  0  0  0
    6.4327  -16.9201   20.2354 O   0  0  0  0  0  0  0  0  0  0  0  0
    7.9219  -18.2987   21.2810 N   0  0  0  0  0  0  0  0  0  0  0  0
    7.2956  -18.1237   22.5671 C   0  0  1  0  0  0  0  0  0  0  0  0
    7.4685  -19.4294   23.3181 C   0  0  0  0  0  0  0  0  0  0  0  0
    6.8136  -19.3135   24.9981 S   0  0  0  0  0  0  0  0  0  0  0  0
    7.9223  -17.0392   23.3590 C   0  0  0  0  0  0  0  0  0  0  0  0
    9.1970  -16.9464   23.3103 O   0  0  0  0  0  0  0  0  0  0  0  0
    6.2304  -10.5457   25.6009 C   0  0  0  0  0  0  0  0  0  0  0  0
    6.4411  -11.8089   26.8685 S   0  0  0  0  0  0  0  0  0  0  0  0
    7.5941  -13.0674   26.2192 C   0  0  0  0  0  0  0  0  0  0  0  0
    6.8671  -14.1112   25.4269 C   0  0  0  0  0  0  0  0  0  0  0  0
    7.8319  -15.0687   24.8238 C   0  0  2  0  0  0  0  0  0  0  0  0
    7.1390  -16.1531   24.1299 N   0  0  0  0  0  0  0  0  0  0  0  0
    8.6890  -15.7297   25.8254 C   0  0  0  0  0  0  0  0  0  0  0  0
    8.4111  -16.9849   26.3220 O   0  0  0  0  0  0  0  0  0  0  0  0
    9.7277  -15.1259   26.2591 O   0  0  0  0  0  0  0  0  0  0  0  0
  2  1  1  0
  3  2  1  0
  3  4  1  6
  5  6  2  0
  5  3  1  0
  7  5  1  0
  8 11  1  0
  8  7  1  0
  8  9  1  1
 10  9  1  0
 11 12  2  0
 13 14  1  0
 15 14  1  0
 16 15  1  0
 17 16  1  1
 18 17  1  0
 18 11  1  0
 19 17  1  0
 20 19  1  0
 21 19  2  0
M  END
$$$$
