SCM.pdb
     RDKit          3D

 21 20  0  0  1  0  0  0  0  0999 V2000
    5.3515  -19.2791   23.2938 O   0  0  0  0  0  0  0  0  0  0  0  0
    4.5049  -18.5246   22.4667 C   0  0  0  0  0  0  0  0  0  0  0  0
    5.1659  -18.2616   21.1279 C   0  0  2  0  0  0  0  0  0  0  0  0
    5.2430  -19.5451   20.4540 N   0  0  0  0  0  0  0  0  0  0  0  0
    6.5185  -17.6959   21.2861 C   0  0  0  0  0  0  0  0  0  0  0  0
    7.5686  -18.4259   21.2882 O   0  0  0  0  0  0  0  0  0  0  0  0
    6.7443  -16.3029   21.4465 N   0  0  0  0  0  0  0  0  0  0  0  0
    8.0513  -15.7328   21.6562 C   0  0  1  0  0  0  0  0  0  0  0  0
    8.2021  -14.6060   20.6531 C   0  0  0  0  0  0  0  0  0  0  0  0
    6.7427  -13.5409   20.6361 S   0  0  0  0  0  0  0  0  0  0  0  0
    8.2128  -15.1739   23.0191 C   0  0  0  0  0  0  0  0  0  0  0  0
    7.8357  -13.9652   23.1999 O   0  0  0  0  0  0  0  0  0  0  0  0
    6.5102  -10.9943   26.2612 C   0  0  0  0  0  0  0  0  0  0  0  0
    7.2076  -12.5763   26.7690 S   0  0  0  0  0  0  0  0  0  0  0  0
    6.8489  -13.7939   25.4562 C   0  0  0  0  0  0  0  0  0  0  0  0
    7.3029  -15.1665   25.8511 C   0  0  0  0  0  0  0  0  0  0  0  0
    8.7067  -15.3927   25.4159 C   0  0  2  0  0  0  0  0  0  0  0  0
    8.7598  -15.9486   24.0649 N   0  0  0  0  0  0  0  0  0  0  0  0
    9.4237  -16.3612   26.2661 C   0  0  0  0  0  0  0  0  0  0  0  0
    9.8916  -17.5638   25.7823 O   0  0  0  0  0  0  0  0  0  0  0  0
    9.6214  -16.0889   27.4983 O   0  0  0  0  0  0  0  0  0  0  0  0
  2  1  1  0
  3  2  1  0
  3  4  1  1
  5  6  2  0
  5  3  1  0
  7  5  1  0
  8 11  1  0
  8  7  1  0
  8  9  1  6
 10  9  1  0
 11 12  2  0
 13 14  1  0
 15 14  1  0
 16 15  1  0
 17 16  1  1
 18 17  1  0
 18 11  1  0
 19 17  1  0
 20 19  1  0
 21 19  2  0
M  END
$$$$
