SCM.pdb
     RDKit          3D

 21 20  0  0  1  0  0  0  0  0999 V2000
    7.7274  -19.6051   23.5117 O   0  0  0  0  0  0  0  0  0  0  0  0
    6.7808  -19.5853   22.4755 C   0  0  0  0  0  0  0  0  0  0  0  0
    7.4442  -19.2421   21.1561 C   0  0  2  0  0  0  0  0  0  0  0  0
    8.1886  -20.4228   20.7567 N   0  0  0  0  0  0  0  0  0  0  0  0
    8.3586  -18.0924   21.2851 C   0  0  0  0  0  0  0  0  0  0  0  0
    9.6249  -18.2350   21.3927 O   0  0  0  0  0  0  0  0  0  0  0  0
    7.8931  -16.7506   21.2980 N   0  0  0  0  0  0  0  0  0  0  0  0
    8.7638  -15.6132   21.4576 C   0  0  1  0  0  0  0  0  0  0  0  0
    8.0435  -14.4238   20.8533 C   0  0  0  0  0  0  0  0  0  0  0  0
    6.4438  -14.1507   21.6476 S   0  0  0  0  0  0  0  0  0  0  0  0
    9.0510  -15.3156   22.8806 C   0  0  0  0  0  0  0  0  0  0  0  0
    9.8804  -14.3723   23.1211 O   0  0  0  0  0  0  0  0  0  0  0  0
    6.4925  -11.0967   25.9395 C   0  0  0  0  0  0  0  0  0  0  0  0
    6.2573  -12.7021   26.7233 S   0  0  0  0  0  0  0  0  0  0  0  0
    7.7824  -13.6754   26.4752 C   0  0  0  0  0  0  0  0  0  0  0  0
    7.4755  -15.0298   25.9118 C   0  0  0  0  0  0  0  0  0  0  0  0
    8.6913  -15.6204   25.2919 C   0  0  2  0  0  0  0  0  0  0  0  0
    8.4319  -16.0466   23.9177 N   0  0  0  0  0  0  0  0  0  0  0  0
    9.1660  -16.8278   25.9931 C   0  0  0  0  0  0  0  0  0  0  0  0
    9.6664  -16.7875   27.2766 O   0  0  0  0  0  0  0  0  0  0  0  0
    9.1203  -17.9575   25.3988 O   0  0  0  0  0  0  0  0  0  0  0  0
  2  1  1  0
  3  2  1  0
  3  4  1  1
  5  6  2  0
  5  3  1  0
  7  5  1  0
  8 11  1  0
  8  7  1  0
  8  9  1  1
 10  9  1  0
 11 12  2  0
 13 14  1  0
 15 14  1  0
 16 15  1  0
 17 16  1  1
 18 17  1  0
 18 11  1  0
 19 17  1  0
 20 19  1  0
 21 19  2  0
M  END
$$$$
