SCM.pdb
     RDKit          3D

 21 20  0  0  1  0  0  0  0  0999 V2000
   10.2487  -15.5289   19.0239 O   0  0  0  0  0  0  0  0  0  0  0  0
   10.5130  -16.9073   19.0207 C   0  0  0  0  0  0  0  0  0  0  0  0
    9.2187  -17.6967   19.0029 C   0  0  2  0  0  0  0  0  0  0  0  0
    8.5391  -17.3345   17.7722 N   0  0  0  0  0  0  0  0  0  0  0  0
    8.3646  -17.3751   20.1611 C   0  0  0  0  0  0  0  0  0  0  0  0
    7.3657  -16.5812   20.0741 O   0  0  0  0  0  0  0  0  0  0  0  0
    8.5948  -17.9260   21.4498 N   0  0  0  0  0  0  0  0  0  0  0  0
    7.7641  -17.6394   22.5921 C   0  0  1  0  0  0  0  0  0  0  0  0
    7.5157  -18.9603   23.2937 C   0  0  0  0  0  0  0  0  0  0  0  0
    6.6930  -18.7159   24.8837 S   0  0  0  0  0  0  0  0  0  0  0  0
    8.4165  -16.7143   23.5484 C   0  0  0  0  0  0  0  0  0  0  0  0
    9.6907  -16.7767   23.6398 O   0  0  0  0  0  0  0  0  0  0  0  0
    5.6145  -11.6460   26.3618 C   0  0  0  0  0  0  0  0  0  0  0  0
    7.2634  -11.4257   27.0546 S   0  0  0  0  0  0  0  0  0  0  0  0
    8.2626  -12.8843   26.5974 C   0  0  0  0  0  0  0  0  0  0  0  0
    7.5065  -13.7917   25.6750 C   0  0  0  0  0  0  0  0  0  0  0  0
    8.3853  -14.8912   25.1952 C   0  0  2  0  0  0  0  0  0  0  0  0
    7.6570  -15.8084   24.3201 N   0  0  0  0  0  0  0  0  0  0  0  0
    8.9093  -15.7285   26.2903 C   0  0  0  0  0  0  0  0  0  0  0  0
   10.1315  -15.4912   26.8813 O   0  0  0  0  0  0  0  0  0  0  0  0
    8.2162  -16.7146   26.7132 O   0  0  0  0  0  0  0  0  0  0  0  0
  2  1  1  0
  3  2  1  0
  3  4  1  6
  5  6  2  0
  5  3  1  0
  7  5  1  0
  8 11  1  0
  8  7  1  0
  8  9  1  1
 10  9  1  0
 11 12  2  0
 13 14  1  0
 15 14  1  0
 16 15  1  0
 17 16  1  1
 18 17  1  0
 18 11  1  0
 19 17  1  0
 20 19  1  0
 21 19  2  0
M  END
$$$$
