SCM.pdb
     RDKit          3D

 21 20  0  0  1  0  0  0  0  0999 V2000
    8.4705  -17.7453   22.7296 O   0  0  0  0  0  0  0  0  0  0  0  0
    7.3857  -17.2575   21.9845 C   0  0  0  0  0  0  0  0  0  0  0  0
    7.6463  -15.8327   21.5366 C   0  0  2  0  0  0  0  0  0  0  0  0
    8.6705  -15.9105   20.5107 N   0  0  0  0  0  0  0  0  0  0  0  0
    8.1139  -14.9852   22.6491 C   0  0  0  0  0  0  0  0  0  0  0  0
    9.3553  -14.7729   22.8714 O   0  0  0  0  0  0  0  0  0  0  0  0
    7.2164  -14.3488   23.5472 N   0  0  0  0  0  0  0  0  0  0  0  0
    7.6484  -13.6227   24.7148 C   0  0  1  0  0  0  0  0  0  0  0  0
    6.4228  -12.9282   25.2753 C   0  0  0  0  0  0  0  0  0  0  0  0
    6.8102  -12.0391   26.7997 S   0  0  0  0  0  0  0  0  0  0  0  0
    8.2043  -14.5127   25.7611 C   0  0  0  0  0  0  0  0  0  0  0  0
    7.6007  -15.6225   25.9607 O   0  0  0  0  0  0  0  0  0  0  0  0
   13.3334  -18.7617   29.0433 C   0  0  0  0  0  0  0  0  0  0  0  0
   13.1780  -17.2817   28.0272 S   0  0  0  0  0  0  0  0  0  0  0  0
   11.5582  -16.5205   28.3901 C   0  0  0  0  0  0  0  0  0  0  0  0
   11.1424  -15.5838   27.2967 C   0  0  0  0  0  0  0  0  0  0  0  0
    9.7837  -15.0432   27.5669 C   0  0  2  0  0  0  0  0  0  0  0  0
    9.3493  -14.1433   26.4998 N   0  0  0  0  0  0  0  0  0  0  0  0
    9.7181  -14.2434   28.8042 C   0  0  0  0  0  0  0  0  0  0  0  0
    9.5860  -12.8716   28.7906 O   0  0  0  0  0  0  0  0  0  0  0  0
    9.7888  -14.8313   29.9360 O   0  0  0  0  0  0  0  0  0  0  0  0
  2  1  1  0
  3  2  1  0
  3  4  1  6
  5  6  2  0
  5  3  1  0
  7  5  1  0
  8 11  1  0
  8  7  1  0
  8  9  1  1
 10  9  1  0
 11 12  2  0
 13 14  1  0
 15 14  1  0
 16 15  1  0
 17 16  1  6
 18 17  1  0
 18 11  1  0
 19 17  1  0
 20 19  1  0
 21 19  2  0
M  END
$$$$
