TRQ.pdb
     RDKit          3D

 28 27  0  0  1  0  0  0  0  0999 V2000
    2.7396  -24.7947   48.4730 C   0  0  0  0  0  0  0  0  0  0  0  0
    3.8875  -25.7803   48.5986 C   0  0  1  0  0  0  0  0  0  0  0  0
    3.7338  -26.5518   49.7256 O   0  0  0  0  0  0  0  0  0  0  0  0
    3.9036  -26.6369   47.3624 C   0  0  2  0  0  0  0  0  0  0  0  0
    4.9548  -27.6298   47.4392 N   0  0  0  0  0  0  0  0  0  0  0  0
    4.1517  -25.7921   46.1560 C   0  0  0  0  0  0  0  0  0  0  0  0
    5.3359  -25.4086   45.8757 O   0  0  0  0  0  0  0  0  0  0  0  0
   -1.6976  -26.2647   40.1673 N   0  0  0  0  0  0  0  0  0  0  0  0
   -0.6962  -27.2508   40.2753 C   0  0  0  0  0  0  0  0  0  0  0  0
   -0.7754  -28.3458   39.6002 N   0  0  0  0  0  0  0  0  0  0  0  0
    0.4278  -27.0750   41.1248 N   0  0  0  0  0  0  0  0  0  0  0  0
    0.6976  -25.8185   41.7932 C   0  0  0  0  0  0  0  0  0  0  0  0
    1.9519  -25.9136   42.6206 C   0  0  0  0  0  0  0  0  0  0  0  0
    2.2185  -24.6092   43.2739 C   0  0  0  0  0  0  0  0  0  0  0  0
    3.4319  -24.5471   44.1581 C   0  0  2  0  0  0  0  0  0  0  0  0
    3.0775  -25.4079   45.3106 N   0  0  0  0  0  0  0  0  0  0  0  0
    3.6666  -23.1946   44.6835 C   0  0  0  0  0  0  0  0  0  0  0  0
    2.8986  -22.7659   45.5936 O   0  0  0  0  0  0  0  0  0  0  0  0
   -0.0073  -29.0660   39.6870 N   0  0  0  0  0  0  0  0  0  0  0  0
    1.6888  -20.5294   47.8206 C   0  0  0  0  0  0  0  0  0  0  0  0
    2.6231  -19.4837   47.6334 O   0  0  0  0  0  0  0  0  0  0  0  0
    2.5311  -18.4075   48.3274 C   0  0  0  0  0  0  0  0  0  0  0  0
    3.7147  -19.6010   46.6568 C   0  0  0  0  0  0  0  0  0  0  0  0
    3.7661  -20.8218   45.8354 C   0  0  2  0  0  0  0  0  0  0  0  0
    4.9206  -21.0530   44.9329 N   0  0  0  0  0  0  0  0  0  0  0  0
    4.6953  -22.3318   44.2478 C   0  0  0  0  0  0  0  0  0  0  0  0
    6.2540  -20.9699   45.4985 O   0  0  0  0  0  0  0  0  0  0  0  0
    7.0522  -21.9598   45.5439 O   0  0  0  0  0  0  0  0  0  0  0  0
  2  1  1  6
  2  3  1  0
  4  2  1  0
  4  5  1  1
  6  4  1  0
  7  6  2  0
  9  8  1  0
 10  9  2  0
 11  9  1  0
 12 11  1  0
 13 14  1  0
 13 12  1  0
 15 14  1  6
 15 16  1  0
 16  6  1  0
 17 18  2  0
 17 15  1  0
 19 20  1  0
 20 22  1  0
 21 20  2  0
 22 23  1  0
 24 23  1  6
 24 25  1  0
 25 17  1  0
 26 28  1  0
 26 24  1  0
 27 26  2  0
M  END
$$$$
