TRQ.pdb
     RDKit          3D

 28 27  0  0  1  0  0  0  0  0999 V2000
    8.1843  -16.0551   27.2809 C   0  0  0  0  0  0  0  0  0  0  0  0
    8.0590  -17.5640   27.3902 C   0  0  1  0  0  0  0  0  0  0  0  0
    7.6452  -17.9191   28.6518 O   0  0  0  0  0  0  0  0  0  0  0  0
    7.0715  -18.0260   26.3539 C   0  0  2  0  0  0  0  0  0  0  0  0
    6.8050  -19.4423   26.4938 N   0  0  0  0  0  0  0  0  0  0  0  0
    7.6176  -17.7906   24.9839 C   0  0  0  0  0  0  0  0  0  0  0  0
    8.3333  -18.6827   24.4182 O   0  0  0  0  0  0  0  0  0  0  0  0
    9.1246  -12.2363   19.6063 N   0  0  0  0  0  0  0  0  0  0  0  0
    8.3082  -12.9423   18.6996 C   0  0  0  0  0  0  0  0  0  0  0  0
    8.6860  -13.1284   17.4815 N   0  0  0  0  0  0  0  0  0  0  0  0
    7.0501  -13.4703   19.0921 N   0  0  0  0  0  0  0  0  0  0  0  0
    6.7424  -13.7779   20.4738 C   0  0  0  0  0  0  0  0  0  0  0  0
    7.6551  -14.8556   20.9958 C   0  0  0  0  0  0  0  0  0  0  0  0
    7.1809  -15.3099   22.3255 C   0  0  0  0  0  0  0  0  0  0  0  0
    7.9422  -16.4465   22.9473 C   0  0  2  0  0  0  0  0  0  0  0  0
    7.3477  -16.5770   24.2980 N   0  0  0  0  0  0  0  0  0  0  0  0
    9.3653  -16.1269   23.1293 C   0  0  0  0  0  0  0  0  0  0  0  0
    9.6964  -15.4248   24.1289 O   0  0  0  0  0  0  0  0  0  0  0  0
    8.0716  -13.6853   16.8268 N   0  0  0  0  0  0  0  0  0  0  0  0
   11.1670  -19.8414   25.9454 C   0  0  0  0  0  0  0  0  0  0  0  0
   12.4800  -19.4712   25.5703 O   0  0  0  0  0  0  0  0  0  0  0  0
   13.4904  -20.0504   26.1104 C   0  0  0  0  0  0  0  0  0  0  0  0
   12.7208  -18.4315   24.5603 C   0  0  0  0  0  0  0  0  0  0  0  0
   11.5453  -17.8024   23.9358 C   0  0  1  0  0  0  0  0  0  0  0  0
   11.7294  -16.8544   22.8097 N   0  0  0  0  0  0  0  0  0  0  0  0
   10.3994  -16.5507   22.2672 C   0  0  0  0  0  0  0  0  0  0  0  0
   12.6708  -17.2127   21.7655 O   0  0  0  0  0  0  0  0  0  0  0  0
   12.3175  -17.7424   20.6638 O   0  0  0  0  0  0  0  0  0  0  0  0
  2  1  1  1
  2  3  1  0
  4  2  1  0
  4  5  1  1
  6  4  1  0
  7  6  2  0
  9  8  1  0
 10  9  2  0
 11  9  1  0
 12 11  1  0
 13 14  1  0
 13 12  1  0
 15 14  1  6
 15 16  1  0
 16  6  1  0
 17 18  2  0
 17 15  1  0
 19 20  1  0
 20 22  1  0
 21 20  2  0
 22 23  1  0
 24 23  1  1
 24 25  1  0
 25 17  1  0
 26 28  1  0
 26 24  1  0
 27 26  2  0
M  END
$$$$
