TRQ.pdb
     RDKit          3D

 28 27  0  0  1  0  0  0  0  0999 V2000
    7.1161  -18.8041   25.9352 C   0  0  0  0  0  0  0  0  0  0  0  0
    7.1060  -19.8908   24.8752 C   0  0  1  0  0  0  0  0  0  0  0  0
    6.3059  -20.9362   25.2701 O   0  0  0  0  0  0  0  0  0  0  0  0
    6.6022  -19.2866   23.5931 C   0  0  2  0  0  0  0  0  0  0  0  0
    6.4158  -20.3071   22.5829 N   0  0  0  0  0  0  0  0  0  0  0  0
    7.5882  -18.2934   23.0718 C   0  0  0  0  0  0  0  0  0  0  0  0
    8.6769  -18.6917   22.5387 O   0  0  0  0  0  0  0  0  0  0  0  0
    7.6561  -11.9122   18.9011 N   0  0  0  0  0  0  0  0  0  0  0  0
    7.4636  -13.1219   18.2035 C   0  0  0  0  0  0  0  0  0  0  0  0
    6.9690  -13.1236   17.0134 N   0  0  0  0  0  0  0  0  0  0  0  0
    7.8054  -14.3728   18.7818 N   0  0  0  0  0  0  0  0  0  0  0  0
    8.3263  -14.4805   20.1292 C   0  0  0  0  0  0  0  0  0  0  0  0
    7.2048  -14.5099   21.1333 C   0  0  0  0  0  0  0  0  0  0  0  0
    7.7605  -14.6889   22.4966 C   0  0  0  0  0  0  0  0  0  0  0  0
    8.4372  -16.0028   22.7686 C   0  0  2  0  0  0  0  0  0  0  0  0
    7.3267  -16.9008   23.1626 N   0  0  0  0  0  0  0  0  0  0  0  0
    9.3585  -15.9260   23.9113 C   0  0  0  0  0  0  0  0  0  0  0  0
    8.8707  -15.7033   25.0577 O   0  0  0  0  0  0  0  0  0  0  0  0
    6.8790  -14.0370   16.4900 N   0  0  0  0  0  0  0  0  0  0  0  0
    9.2929  -19.0969   27.8751 C   0  0  0  0  0  0  0  0  0  0  0  0
   10.6520  -19.2763   27.5258 O   0  0  0  0  0  0  0  0  0  0  0  0
   11.2383  -20.3909   27.7751 C   0  0  0  0  0  0  0  0  0  0  0  0
   11.4191  -18.2081   26.8704 C   0  0  0  0  0  0  0  0  0  0  0  0
   10.8159  -17.5586   25.6948 C   0  0  1  0  0  0  0  0  0  0  0  0
   11.5305  -16.4468   25.0211 N   0  0  0  0  0  0  0  0  0  0  0  0
   10.7582  -16.0866   23.8256 C   0  0  0  0  0  0  0  0  0  0  0  0
   12.9389  -16.6252   24.7219 O   0  0  0  0  0  0  0  0  0  0  0  0
   13.3863  -16.7562   23.5379 O   0  0  0  0  0  0  0  0  0  0  0  0
  2  1  1  1
  2  3  1  0
  4  2  1  0
  4  5  1  6
  6  4  1  0
  7  6  2  0
  9  8  1  0
 10  9  2  0
 11  9  1  0
 12 11  1  0
 13 14  1  0
 13 12  1  0
 15 14  1  1
 15 16  1  0
 16  6  1  0
 17 18  2  0
 17 15  1  0
 19 20  1  0
 20 22  1  0
 21 20  2  0
 22 23  1  0
 24 23  1  1
 24 25  1  0
 25 17  1  0
 26 28  1  0
 26 24  1  0
 27 26  2  0
M  END
$$$$
