TRQ.pdb
     RDKit          3D

 28 27  0  0  1  0  0  0  0  0999 V2000
   10.7208  -22.1190   19.0866 C   0  0  0  0  0  0  0  0  0  0  0  0
   11.3727  -21.7026   17.7804 C   0  0  1  0  0  0  0  0  0  0  0  0
   11.2313  -22.6934   16.8385 O   0  0  0  0  0  0  0  0  0  0  0  0
   10.7193  -20.4289   17.3188 C   0  0  2  0  0  0  0  0  0  0  0  0
   11.2812  -19.9910   16.0581 N   0  0  0  0  0  0  0  0  0  0  0  0
   10.9380  -19.3463   18.3242 C   0  0  0  0  0  0  0  0  0  0  0  0
   12.1145  -18.9027   18.5413 O   0  0  0  0  0  0  0  0  0  0  0  0
    7.4418  -12.2887   18.5988 N   0  0  0  0  0  0  0  0  0  0  0  0
    7.7210  -13.0558   19.7480 C   0  0  0  0  0  0  0  0  0  0  0  0
    8.4139  -12.5622   20.7162 N   0  0  0  0  0  0  0  0  0  0  0  0
    7.2525  -14.3896   19.8801 N   0  0  0  0  0  0  0  0  0  0  0  0
    7.4934  -15.1747   21.0733 C   0  0  0  0  0  0  0  0  0  0  0  0
    8.8660  -15.7924   21.0367 C   0  0  0  0  0  0  0  0  0  0  0  0
    8.8820  -16.9149   20.0676 C   0  0  0  0  0  0  0  0  0  0  0  0
   10.1655  -17.6908   19.9741 C   0  0  2  0  0  0  0  0  0  0  0  0
    9.8443  -18.8006   19.0468 N   0  0  0  0  0  0  0  0  0  0  0  0
   10.5428  -18.2957   21.2595 C   0  0  0  0  0  0  0  0  0  0  0  0
    9.7756  -19.1717   21.7551 O   0  0  0  0  0  0  0  0  0  0  0  0
    8.7843  -13.2039   21.4693 N   0  0  0  0  0  0  0  0  0  0  0  0
   16.3547  -19.3050   23.2854 C   0  0  0  0  0  0  0  0  0  0  0  0
   15.5677  -19.8250   24.3398 O   0  0  0  0  0  0  0  0  0  0  0  0
   16.1296  -20.4241   25.3265 C   0  0  0  0  0  0  0  0  0  0  0  0
   14.1045  -19.6899   24.3386 C   0  0  0  0  0  0  0  0  0  0  0  0
   13.4866  -18.9785   23.2074 C   0  0  1  0  0  0  0  0  0  0  0  0
   12.0294  -18.7005   23.2207 N   0  0  0  0  0  0  0  0  0  0  0  0
   11.7083  -17.9723   21.9870 C   0  0  0  0  0  0  0  0  0  0  0  0
   11.4710  -18.0523   24.3925 O   0  0  0  0  0  0  0  0  0  0  0  0
   11.2195  -16.8060   24.4432 O   0  0  0  0  0  0  0  0  0  0  0  0
  2  1  1  1
  2  3  1  0
  4  2  1  0
  4  5  1  6
  6  4  1  0
  7  6  2  0
  9  8  1  0
 10  9  2  0
 11  9  1  0
 12 11  1  0
 13 14  1  0
 13 12  1  0
 15 14  1  1
 15 16  1  0
 16  6  1  0
 17 18  2  0
 17 15  1  0
 19 20  1  0
 20 22  1  0
 21 20  2  0
 22 23  1  0
 24 23  1  6
 24 25  1  0
 25 17  1  0
 26 28  1  0
 26 24  1  0
 27 26  2  0
M  END
$$$$
