TRQ.pdb
     RDKit          3D

 28 27  0  0  1  0  0  0  0  0999 V2000
    6.9871  -19.3657   27.9007 C   0  0  0  0  0  0  0  0  0  0  0  0
    7.6667  -18.6392   26.7540 C   0  0  1  0  0  0  0  0  0  0  0  0
    8.9659  -19.0671   26.6202 O   0  0  0  0  0  0  0  0  0  0  0  0
    6.8823  -18.9111   25.4998 C   0  0  2  0  0  0  0  0  0  0  0  0
    6.8732  -20.3270   25.1966 N   0  0  0  0  0  0  0  0  0  0  0  0
    7.4984  -18.1939   24.3436 C   0  0  0  0  0  0  0  0  0  0  0  0
    8.1951  -18.8366   23.4895 O   0  0  0  0  0  0  0  0  0  0  0  0
    8.1434  -14.8529   17.3326 N   0  0  0  0  0  0  0  0  0  0  0  0
    7.7548  -13.8766   18.2721 C   0  0  0  0  0  0  0  0  0  0  0  0
    7.7211  -12.6293   17.9493 N   0  0  0  0  0  0  0  0  0  0  0  0
    7.3887  -14.2288   19.5980 N   0  0  0  0  0  0  0  0  0  0  0  0
    8.3754  -14.5532   20.6078 C   0  0  0  0  0  0  0  0  0  0  0  0
    8.0213  -13.9131   21.9238 C   0  0  0  0  0  0  0  0  0  0  0  0
    7.3340  -14.9013   22.7901 C   0  0  0  0  0  0  0  0  0  0  0  0
    8.0989  -16.1578   23.0973 C   0  0  2  0  0  0  0  0  0  0  0  0
    7.3165  -16.7950   24.1821 N   0  0  0  0  0  0  0  0  0  0  0  0
    9.4366  -15.8749   23.6367 C   0  0  0  0  0  0  0  0  0  0  0  0
    9.5329  -15.5558   24.8576 O   0  0  0  0  0  0  0  0  0  0  0  0
    7.4101  -11.9162   18.6642 N   0  0  0  0  0  0  0  0  0  0  0  0
   11.5863  -19.7661   25.9107 C   0  0  0  0  0  0  0  0  0  0  0  0
   12.0779  -18.5944   26.5326 O   0  0  0  0  0  0  0  0  0  0  0  0
   12.4236  -18.6192   27.7688 C   0  0  0  0  0  0  0  0  0  0  0  0
   12.2112  -17.3340   25.7891 C   0  0  0  0  0  0  0  0  0  0  0  0
   11.8637  -17.3465   24.3585 C   0  0  2  0  0  0  0  0  0  0  0  0
   11.9210  -16.0871   23.5765 N   0  0  0  0  0  0  0  0  0  0  0  0
   10.6324  -15.9360   22.8893 C   0  0  0  0  0  0  0  0  0  0  0  0
   13.0410  -15.8966   22.6742 O   0  0  0  0  0  0  0  0  0  0  0  0
   12.9183  -15.8841   21.4078 O   0  0  0  0  0  0  0  0  0  0  0  0
  2  1  1  1
  2  3  1  0
  4  2  1  0
  4  5  1  6
  6  4  1  0
  7  6  2  0
  9  8  1  0
 10  9  2  0
 11  9  1  0
 12 11  1  0
 13 14  1  0
 13 12  1  0
 15 14  1  1
 15 16  1  0
 16  6  1  0
 17 18  2  0
 17 15  1  0
 19 20  1  0
 20 22  1  0
 21 20  2  0
 22 23  1  0
 24 23  1  1
 24 25  1  0
 25 17  1  0
 26 28  1  0
 26 24  1  0
 27 26  2  0
M  END
$$$$
