TRQ.pdb
     RDKit          3D

 28 27  0  0  1  0  0  0  0  0999 V2000
   13.8898  -18.5445   17.6193 C   0  0  0  0  0  0  0  0  0  0  0  0
   12.4232  -18.5311   17.2273 C   0  0  1  0  0  0  0  0  0  0  0  0
   12.2011  -19.3905   16.1781 O   0  0  0  0  0  0  0  0  0  0  0  0
   11.6157  -18.9357   18.4301 C   0  0  2  0  0  0  0  0  0  0  0  0
   10.3015  -19.3975   18.0346 N   0  0  0  0  0  0  0  0  0  0  0  0
   11.4405  -17.7695   19.3465 C   0  0  0  0  0  0  0  0  0  0  0  0
   12.4512  -17.2629   19.9380 O   0  0  0  0  0  0  0  0  0  0  0  0
    8.5233  -12.0965   18.6557 N   0  0  0  0  0  0  0  0  0  0  0  0
    7.6185  -13.1199   18.3079 C   0  0  0  0  0  0  0  0  0  0  0  0
    7.3329  -13.3541   17.0731 N   0  0  0  0  0  0  0  0  0  0  0  0
    6.9938  -13.9240   19.2974 N   0  0  0  0  0  0  0  0  0  0  0  0
    7.1605  -13.6688   20.7135 C   0  0  0  0  0  0  0  0  0  0  0  0
    8.3658  -14.3959   21.2478 C   0  0  0  0  0  0  0  0  0  0  0  0
    8.8046  -15.4203   20.2693 C   0  0  0  0  0  0  0  0  0  0  0  0
   10.0703  -16.1576   20.6050 C   0  0  2  0  0  0  0  0  0  0  0  0
   10.1531  -17.2134   19.5691 N   0  0  0  0  0  0  0  0  0  0  0  0
    9.9892  -16.8339   21.9075 C   0  0  0  0  0  0  0  0  0  0  0  0
    9.1652  -17.7860   22.0356 O   0  0  0  0  0  0  0  0  0  0  0  0
    6.7318  -14.1878   16.8285 N   0  0  0  0  0  0  0  0  0  0  0  0
   12.6605  -20.9171   21.6100 C   0  0  0  0  0  0  0  0  0  0  0  0
   12.8077  -20.9428   23.0168 O   0  0  0  0  0  0  0  0  0  0  0  0
   13.3542  -21.9547   23.5877 C   0  0  0  0  0  0  0  0  0  0  0  0
   12.3514  -19.8239   23.8527 C   0  0  0  0  0  0  0  0  0  0  0  0
   11.7594  -18.6610   23.1710 C   0  0  1  0  0  0  0  0  0  0  0  0
   11.1920  -17.5488   23.9722 N   0  0  0  0  0  0  0  0  0  0  0  0
   10.7705  -16.5005   23.0347 C   0  0  0  0  0  0  0  0  0  0  0  0
   11.9930  -17.0141   25.0572 O   0  0  0  0  0  0  0  0  0  0  0  0
   12.7309  -15.9848   24.9340 O   0  0  0  0  0  0  0  0  0  0  0  0
  2  1  1  1
  2  3  1  0
  4  2  1  0
  4  5  1  6
  6  4  1  0
  7  6  2  0
  9  8  1  0
 10  9  2  0
 11  9  1  0
 12 11  1  0
 13 14  1  0
 13 12  1  0
 15 14  1  6
 15 16  1  0
 16  6  1  0
 17 18  2  0
 17 15  1  0
 19 20  1  0
 20 22  1  0
 21 20  2  0
 22 23  1  0
 24 23  1  6
 24 25  1  0
 25 17  1  0
 26 28  1  0
 26 24  1  0
 27 26  2  0
M  END
$$$$
