TRQ.pdb
     RDKit          3D

 28 27  0  0  1  0  0  0  0  0999 V2000
    6.8220  -11.1591   27.4472 C   0  0  0  0  0  0  0  0  0  0  0  0
    7.4398  -12.3034   26.6638 C   0  0  1  0  0  0  0  0  0  0  0  0
    7.9905  -13.2264   27.5203 O   0  0  0  0  0  0  0  0  0  0  0  0
    6.3602  -12.9301   25.8247 C   0  0  2  0  0  0  0  0  0  0  0  0
    5.3582  -13.5568   26.6613 N   0  0  0  0  0  0  0  0  0  0  0  0
    6.9445  -13.9793   24.9368 C   0  0  0  0  0  0  0  0  0  0  0  0
    6.9813  -15.1953   25.3216 O   0  0  0  0  0  0  0  0  0  0  0  0
    8.9485  -15.1685   16.4796 N   0  0  0  0  0  0  0  0  0  0  0  0
    8.3267  -14.1850   17.2753 C   0  0  0  0  0  0  0  0  0  0  0  0
    8.2723  -12.9586   16.8825 N   0  0  0  0  0  0  0  0  0  0  0  0
    7.7419  -14.5069   18.5284 N   0  0  0  0  0  0  0  0  0  0  0  0
    7.1859  -13.4930   19.4008 C   0  0  0  0  0  0  0  0  0  0  0  0
    6.9246  -14.0553   20.7728 C   0  0  0  0  0  0  0  0  0  0  0  0
    8.2067  -14.2035   21.5035 C   0  0  0  0  0  0  0  0  0  0  0  0
    8.1120  -14.7352   22.9058 C   0  0  2  0  0  0  0  0  0  0  0  0
    7.4631  -13.6375   23.6600 N   0  0  0  0  0  0  0  0  0  0  0  0
    9.4355  -14.9510   23.5076 C   0  0  0  0  0  0  0  0  0  0  0  0
    9.7862  -14.2000   24.4641 O   0  0  0  0  0  0  0  0  0  0  0  0
    7.7663  -12.2456   17.4756 N   0  0  0  0  0  0  0  0  0  0  0  0
    8.2421  -18.6728   26.7242 C   0  0  0  0  0  0  0  0  0  0  0  0
    9.6249  -18.7955   26.9967 O   0  0  0  0  0  0  0  0  0  0  0  0
   10.0233  -19.4877   28.0019 C   0  0  0  0  0  0  0  0  0  0  0  0
   10.6313  -18.1481   26.1440 C   0  0  0  0  0  0  0  0  0  0  0  0
   10.1474  -17.2989   25.0430 C   0  0  1  0  0  0  0  0  0  0  0  0
   11.1188  -16.6938   24.0990 N   0  0  0  0  0  0  0  0  0  0  0  0
   10.3512  -15.9436   23.0972 C   0  0  0  0  0  0  0  0  0  0  0  0
   12.1039  -17.5643   23.4852 O   0  0  0  0  0  0  0  0  0  0  0  0
   11.7930  -18.5848   22.7918 O   0  0  0  0  0  0  0  0  0  0  0  0
  2  1  1  1
  2  3  1  0
  4  2  1  0
  4  5  1  1
  6  4  1  0
  7  6  2  0
  9  8  1  0
 10  9  2  0
 11  9  1  0
 12 11  1  0
 13 14  1  0
 13 12  1  0
 15 14  1  6
 15 16  1  0
 16  6  1  0
 17 18  2  0
 17 15  1  0
 19 20  1  0
 20 22  1  0
 21 20  2  0
 22 23  1  0
 24 23  1  1
 24 25  1  0
 25 17  1  0
 26 28  1  0
 26 24  1  0
 27 26  2  0
M  END
$$$$
