VDH.pdb
     RDKit          3D

 26 26  0  0  1  0  0  0  0  0999 V2000
    7.8997  -12.3929   19.0291 C   0  0  0  0  0  0  0  0  0  0  0  0
    7.9469  -13.8860   19.2783 C   0  0  1  0  0  0  0  0  0  0  0  0
    6.8805  -14.6157   18.5295 C   0  0  0  0  0  0  0  0  0  0  0  0
    9.3411  -14.3495   18.9281 C   0  0  2  0  0  0  0  0  0  0  0  0
    9.6068  -14.1830   17.5258 N   0  0  0  0  0  0  0  0  0  0  0  0
    9.5988  -15.7437   19.3168 C   0  0  0  0  0  0  0  0  0  0  0  0
    9.3323  -16.1820   20.4722 O   0  0  0  0  0  0  0  0  0  0  0  0
   10.1657  -16.6336   18.3680 N   0  0  0  0  0  0  0  0  0  0  0  0
   10.3899  -18.0693   18.6901 C   0  0  1  0  0  0  0  0  0  0  0  0
   10.3939  -18.8640   17.4195 C   0  0  0  0  0  0  0  0  0  0  0  0
    9.0552  -19.0676   16.8665 C   0  0  0  0  0  0  0  0  0  0  0  0
    8.0088  -19.3601   17.4740 O   0  0  0  0  0  0  0  0  0  0  0  0
   11.6810  -18.1145   19.4018 C   0  0  0  0  0  0  0  0  0  0  0  0
   12.7229  -17.6951   18.8742 O   0  0  0  0  0  0  0  0  0  0  0  0
    8.9113  -18.9184   15.4730 O   0  0  0  0  0  0  0  0  0  0  0  0
   11.7507  -18.6415   20.7080 N   0  0  0  0  0  0  0  0  0  0  0  0
   13.0062  -18.4816   21.4845 C   0  0  1  0  0  0  0  0  0  0  0  0
   13.0695  -17.0949   22.0161 C   0  0  0  0  0  0  0  0  0  0  0  0
   13.5188  -16.0443   21.1389 C   0  0  0  0  0  0  0  0  0  0  0  0
   13.9590  -16.0713   19.8521 C   0  0  0  0  0  0  0  0  0  0  0  0
   14.2129  -14.7966   19.4201 N   0  0  0  0  0  0  0  0  0  0  0  0
   13.9260  -14.0060   20.4401 C   0  0  0  0  0  0  0  0  0  0  0  0
   13.5072  -14.7192   21.4856 N   0  0  0  0  0  0  0  0  0  0  0  0
   12.9061  -19.5130   22.5295 C   0  0  0  0  0  0  0  0  0  0  0  0
   11.8608  -20.1347   22.7458 O   0  0  0  0  0  0  0  0  0  0  0  0
   14.0032  -19.8192   23.3131 O   0  0  0  0  0  0  0  0  0  0  0  0
  2  3  1  6
  2  1  1  0
  4  2  1  0
  4  5  1  6
  6  4  1  0
  7  6  2  0
  8  6  1  0
  9 10  1  6
  9  8  1  0
 10 11  1  0
 11 15  1  0
 11 12  2  0
 13  9  1  0
 14 13  2  0
 16 13  1  0
 17 18  1  1
 17 16  1  0
 18 19  1  0
 19 20  2  0
 20 21  1  0
 22 21  1  0
 23 19  1  0
 23 22  2  0
 24 17  1  0
 25 24  2  0
 26 24  1  0
M  END
$$$$
