VDH.pdb
     RDKit          3D

 26 26  0  0  1  0  0  0  0  0999 V2000
    7.8128  -12.1056   18.8275 C   0  0  0  0  0  0  0  0  0  0  0  0
    8.8772  -13.0207   19.3962 C   0  0  1  0  0  0  0  0  0  0  0  0
    8.4489  -13.6526   20.6799 C   0  0  0  0  0  0  0  0  0  0  0  0
    9.2150  -14.0279   18.3227 C   0  0  2  0  0  0  0  0  0  0  0  0
    8.0767  -14.8425   17.9982 N   0  0  0  0  0  0  0  0  0  0  0  0
   10.3523  -14.8889   18.6785 C   0  0  0  0  0  0  0  0  0  0  0  0
   10.2054  -16.1047   18.9919 O   0  0  0  0  0  0  0  0  0  0  0  0
   11.6622  -14.3436   18.6720 N   0  0  0  0  0  0  0  0  0  0  0  0
   12.8476  -15.1715   19.0254 C   0  0  1  0  0  0  0  0  0  0  0  0
   14.0892  -14.4842   18.5438 C   0  0  0  0  0  0  0  0  0  0  0  0
   15.2375  -15.3839   18.4364 C   0  0  0  0  0  0  0  0  0  0  0  0
   16.3927  -15.1142   18.0590 O   0  0  0  0  0  0  0  0  0  0  0  0
   12.8015  -15.3162   20.4925 C   0  0  0  0  0  0  0  0  0  0  0  0
   12.9590  -14.3397   21.2418 O   0  0  0  0  0  0  0  0  0  0  0  0
   15.0304  -16.7287   18.8014 O   0  0  0  0  0  0  0  0  0  0  0  0
   12.5750  -16.5819   21.0718 N   0  0  0  0  0  0  0  0  0  0  0  0
   12.5556  -16.7052   22.5513 C   0  0  1  0  0  0  0  0  0  0  0  0
   11.2941  -17.3759   22.9614 C   0  0  0  0  0  0  0  0  0  0  0  0
   10.0926  -16.5855   23.0433 C   0  0  0  0  0  0  0  0  0  0  0  0
    9.8814  -15.2494   22.8997 C   0  0  0  0  0  0  0  0  0  0  0  0
    8.5431  -14.9761   23.0011 N   0  0  0  0  0  0  0  0  0  0  0  0
    7.9512  -16.1408   23.2032 C   0  0  0  0  0  0  0  0  0  0  0  0
    8.8486  -17.1262   23.2339 N   0  0  0  0  0  0  0  0  0  0  0  0
   13.7667  -17.4843   22.8543 C   0  0  0  0  0  0  0  0  0  0  0  0
   14.0970  -17.7688   24.0102 O   0  0  0  0  0  0  0  0  0  0  0  0
   14.5840  -17.9275   21.8310 O   0  0  0  0  0  0  0  0  0  0  0  0
  2  3  1  1
  2  1  1  0
  4  2  1  0
  4  5  1  1
  6  4  1  0
  7  6  2  0
  8  6  1  0
  9 10  1  1
  9  8  1  0
 10 11  1  0
 11 15  1  0
 11 12  2  0
 13  9  1  0
 14 13  2  0
 16 13  1  0
 17 18  1  6
 17 16  1  0
 18 19  1  0
 19 20  2  0
 20 21  1  0
 22 21  1  0
 23 19  1  0
 23 22  2  0
 24 17  1  0
 25 24  2  0
 26 24  1  0
M  END
$$$$
