VDH.pdb
     RDKit          3D

 26 26  0  0  1  0  0  0  0  0999 V2000
    8.4039  -13.1287   21.1173 C   0  0  0  0  0  0  0  0  0  0  0  0
    7.5177  -13.6957   20.0278 C   0  0  1  0  0  0  0  0  0  0  0  0
    7.1971  -12.6822   18.9787 C   0  0  0  0  0  0  0  0  0  0  0  0
    8.2167  -14.9169   19.4791 C   0  0  2  0  0  0  0  0  0  0  0  0
    7.4894  -15.4795   18.3749 N   0  0  0  0  0  0  0  0  0  0  0  0
    8.4486  -15.9530   20.4961 C   0  0  0  0  0  0  0  0  0  0  0  0
    8.0111  -17.1322   20.3692 O   0  0  0  0  0  0  0  0  0  0  0  0
    9.1875  -15.6255   21.6623 N   0  0  0  0  0  0  0  0  0  0  0  0
    9.9320  -16.6647   22.4246 C   0  0  1  0  0  0  0  0  0  0  0  0
   10.8366  -17.4080   21.4890 C   0  0  0  0  0  0  0  0  0  0  0  0
   11.6069  -18.4602   22.1515 C   0  0  0  0  0  0  0  0  0  0  0  0
   11.2633  -19.6338   22.3843 O   0  0  0  0  0  0  0  0  0  0  0  0
   10.6652  -15.9315   23.4736 C   0  0  0  0  0  0  0  0  0  0  0  0
   11.8935  -15.7684   23.4074 O   0  0  0  0  0  0  0  0  0  0  0  0
   12.9031  -18.1228   22.5882 O   0  0  0  0  0  0  0  0  0  0  0  0
    9.9722  -15.3988   24.5803 N   0  0  0  0  0  0  0  0  0  0  0  0
    9.3757  -16.3277   25.5733 C   0  0  1  0  0  0  0  0  0  0  0  0
    8.4087  -17.2177   24.8787 C   0  0  0  0  0  0  0  0  0  0  0  0
    7.7649  -18.2574   25.6400 C   0  0  0  0  0  0  0  0  0  0  0  0
    7.7880  -18.5473   26.9688 C   0  0  0  0  0  0  0  0  0  0  0  0
    6.9549  -19.6028   27.2295 N   0  0  0  0  0  0  0  0  0  0  0  0
    6.4319  -19.9460   26.0649 C   0  0  0  0  0  0  0  0  0  0  0  0
    6.8944  -19.1616   25.0913 N   0  0  0  0  0  0  0  0  0  0  0  0
   10.5375  -17.0367   26.1327 C   0  0  0  0  0  0  0  0  0  0  0  0
   11.4407  -16.4501   26.7379 O   0  0  0  0  0  0  0  0  0  0  0  0
   10.6508  -18.4075   25.9922 O   0  0  0  0  0  0  0  0  0  0  0  0
  2  3  1  6
  2  1  1  0
  4  2  1  0
  4  5  1  6
  6  4  1  0
  7  6  2  0
  8  6  1  0
  9 10  1  6
  9  8  1  0
 10 11  1  0
 11 15  1  0
 11 12  2  0
 13  9  1  0
 14 13  2  0
 16 13  1  0
 17 18  1  6
 17 16  1  0
 18 19  1  0
 19 20  2  0
 20 21  1  0
 22 21  1  0
 23 19  1  0
 23 22  2  0
 24 17  1  0
 25 24  2  0
 26 24  1  0
M  END
$$$$
