VDH.pdb
     RDKit          3D

 26 26  0  0  1  0  0  0  0  0999 V2000
    9.6875  -13.7837   18.9525 C   0  0  0  0  0  0  0  0  0  0  0  0
    8.3311  -13.3757   19.4888 C   0  0  1  0  0  0  0  0  0  0  0  0
    7.4613  -12.7844   18.4285 C   0  0  0  0  0  0  0  0  0  0  0  0
    7.7265  -14.5972   20.1394 C   0  0  2  0  0  0  0  0  0  0  0  0
    6.4076  -14.3208   20.6384 N   0  0  0  0  0  0  0  0  0  0  0  0
    8.5583  -15.1447   21.2209 C   0  0  0  0  0  0  0  0  0  0  0  0
    8.6366  -14.5939   22.3561 O   0  0  0  0  0  0  0  0  0  0  0  0
    9.3013  -16.3313   20.9902 N   0  0  0  0  0  0  0  0  0  0  0  0
   10.0982  -16.9691   22.0734 C   0  0  1  0  0  0  0  0  0  0  0  0
    9.7147  -18.4139   22.1811 C   0  0  0  0  0  0  0  0  0  0  0  0
   10.3916  -19.1066   23.2772 C   0  0  0  0  0  0  0  0  0  0  0  0
   11.1691  -18.6296   24.1243 O   0  0  0  0  0  0  0  0  0  0  0  0
   11.5088  -16.7747   21.6889 C   0  0  0  0  0  0  0  0  0  0  0  0
   11.8481  -16.7027   20.4974 O   0  0  0  0  0  0  0  0  0  0  0  0
   10.1456  -20.4876   23.4075 O   0  0  0  0  0  0  0  0  0  0  0  0
   12.5043  -16.6667   22.6819 N   0  0  0  0  0  0  0  0  0  0  0  0
   13.9036  -16.3846   22.2731 C   0  0  1  0  0  0  0  0  0  0  0  0
   13.9688  -15.0174   21.6934 C   0  0  0  0  0  0  0  0  0  0  0  0
   14.1257  -14.8840   20.2677 C   0  0  0  0  0  0  0  0  0  0  0  0
   13.9448  -15.7729   19.2541 C   0  0  0  0  0  0  0  0  0  0  0  0
   14.1557  -15.1551   18.0500 N   0  0  0  0  0  0  0  0  0  0  0  0
   14.4605  -13.9009   18.3362 C   0  0  0  0  0  0  0  0  0  0  0  0
   14.4517  -13.7032   19.6546 N   0  0  0  0  0  0  0  0  0  0  0  0
   14.6708  -16.5372   23.5195 C   0  0  0  0  0  0  0  0  0  0  0  0
   15.8983  -16.4040   23.5600 O   0  0  0  0  0  0  0  0  0  0  0  0
   14.0236  -16.8401   24.7031 O   0  0  0  0  0  0  0  0  0  0  0  0
  2  3  1  6
  2  1  1  0
  4  2  1  0
  4  5  1  1
  6  4  1  0
  7  6  2  0
  8  6  1  0
  9 10  1  6
  9  8  1  0
 10 11  1  0
 11 15  1  0
 11 12  2  0
 13  9  1  0
 14 13  2  0
 16 13  1  0
 17 18  1  1
 17 16  1  0
 18 19  1  0
 19 20  2  0
 20 21  1  0
 22 21  1  0
 23 19  1  0
 23 22  2  0
 24 17  1  0
 25 24  2  0
 26 24  1  0
M  END
$$$$
