VDH.pdb
     RDKit          3D

 26 26  0  0  1  0  0  0  0  0999 V2000
    7.9263  -12.1226   18.8114 C   0  0  0  0  0  0  0  0  0  0  0  0
    7.6470  -13.3943   19.5851 C   0  0  1  0  0  0  0  0  0  0  0  0
    7.2238  -14.5145   18.6927 C   0  0  0  0  0  0  0  0  0  0  0  0
    8.8897  -13.7087   20.3837 C   0  0  2  0  0  0  0  0  0  0  0  0
   10.0203  -13.9218   19.5226 N   0  0  0  0  0  0  0  0  0  0  0  0
    8.7237  -14.8659   21.2751 C   0  0  0  0  0  0  0  0  0  0  0  0
    7.7750  -14.9458   22.1067 O   0  0  0  0  0  0  0  0  0  0  0  0
    9.6560  -15.9332   21.2052 N   0  0  0  0  0  0  0  0  0  0  0  0
    9.5043  -17.1506   22.0480 C   0  0  1  0  0  0  0  0  0  0  0  0
   10.4122  -18.2244   21.5296 C   0  0  0  0  0  0  0  0  0  0  0  0
   10.2349  -19.5049   22.2140 C   0  0  0  0  0  0  0  0  0  0  0  0
    9.3192  -19.8434   22.9863 O   0  0  0  0  0  0  0  0  0  0  0  0
    9.8418  -16.7232   23.4187 C   0  0  0  0  0  0  0  0  0  0  0  0
   10.8884  -16.1022   23.6609 O   0  0  0  0  0  0  0  0  0  0  0  0
   11.2128  -20.4923   21.9830 O   0  0  0  0  0  0  0  0  0  0  0  0
    8.9692  -17.0177   24.4866 N   0  0  0  0  0  0  0  0  0  0  0  0
    9.2681  -16.4712   25.8344 C   0  0  1  0  0  0  0  0  0  0  0  0
    8.0156  -15.9265   26.4211 C   0  0  0  0  0  0  0  0  0  0  0  0
    7.5724  -14.6220   26.0007 C   0  0  0  0  0  0  0  0  0  0  0  0
    8.1573  -13.6833   25.2089 C   0  0  0  0  0  0  0  0  0  0  0  0
    7.3100  -12.6199   25.0439 N   0  0  0  0  0  0  0  0  0  0  0  0
    6.2204  -12.9166   25.7312 C   0  0  0  0  0  0  0  0  0  0  0  0
    6.3426  -14.1080   26.3166 N   0  0  0  0  0  0  0  0  0  0  0  0
    9.8134  -17.6247   26.5677 C   0  0  0  0  0  0  0  0  0  0  0  0
    9.7330  -18.7795   26.1364 O   0  0  0  0  0  0  0  0  0  0  0  0
   10.4433  -17.4418   27.7848 O   0  0  0  0  0  0  0  0  0  0  0  0
  2  3  1  6
  2  1  1  0
  4  2  1  0
  4  5  1  6
  6  4  1  0
  7  6  2  0
  8  6  1  0
  9 10  1  6
  9  8  1  0
 10 11  1  0
 11 15  1  0
 11 12  2  0
 13  9  1  0
 14 13  2  0
 16 13  1  0
 17 18  1  1
 17 16  1  0
 18 19  1  0
 19 20  2  0
 20 21  1  0
 22 21  1  0
 23 19  1  0
 23 22  2  0
 24 17  1  0
 25 24  2  0
 26 24  1  0
M  END
$$$$
