VDH.pdb
     RDKit          3D

 26 26  0  0  1  0  0  0  0  0999 V2000
    8.8116  -12.9995   20.8603 C   0  0  0  0  0  0  0  0  0  0  0  0
    7.8831  -13.4425   19.7487 C   0  0  1  0  0  0  0  0  0  0  0  0
    7.5681  -12.3311   18.8021 C   0  0  0  0  0  0  0  0  0  0  0  0
    8.5320  -14.6289   19.0761 C   0  0  2  0  0  0  0  0  0  0  0  0
    7.7020  -15.1476   18.0240 N   0  0  0  0  0  0  0  0  0  0  0  0
    8.8707  -15.7085   20.0147 C   0  0  0  0  0  0  0  0  0  0  0  0
    8.0170  -16.5551   20.4052 O   0  0  0  0  0  0  0  0  0  0  0  0
   10.1991  -15.8101   20.5032 N   0  0  0  0  0  0  0  0  0  0  0  0
   10.6142  -16.9299   21.3914 C   0  0  1  0  0  0  0  0  0  0  0  0
   12.0297  -17.3088   21.0770 C   0  0  0  0  0  0  0  0  0  0  0  0
   12.5030  -18.4536   21.8547 C   0  0  0  0  0  0  0  0  0  0  0  0
   11.8313  -19.3779   22.3488 O   0  0  0  0  0  0  0  0  0  0  0  0
   10.4454  -16.4231   22.7662 C   0  0  0  0  0  0  0  0  0  0  0  0
   10.9966  -15.3759   23.1394 O   0  0  0  0  0  0  0  0  0  0  0  0
   13.8903  -18.5390   22.0841 O   0  0  0  0  0  0  0  0  0  0  0  0
    9.6454  -17.1301   23.6876 N   0  0  0  0  0  0  0  0  0  0  0  0
    9.5188  -16.6175   25.0753 C   0  0  1  0  0  0  0  0  0  0  0  0
    8.0859  -16.3385   25.3560 C   0  0  0  0  0  0  0  0  0  0  0  0
    7.6418  -14.9682   25.3576 C   0  0  0  0  0  0  0  0  0  0  0  0
    8.3074  -13.8049   25.1254 C   0  0  0  0  0  0  0  0  0  0  0  0
    7.4340  -12.7509   25.1753 N   0  0  0  0  0  0  0  0  0  0  0  0
    6.2489  -13.2762   25.4346 C   0  0  0  0  0  0  0  0  0  0  0  0
    6.3361  -14.6015   25.5497 N   0  0  0  0  0  0  0  0  0  0  0  0
   10.0854  -17.6959   25.9008 C   0  0  0  0  0  0  0  0  0  0  0  0
    9.8803  -18.8899   25.6591 O   0  0  0  0  0  0  0  0  0  0  0  0
   10.8790  -17.3942   26.9920 O   0  0  0  0  0  0  0  0  0  0  0  0
  2  3  1  6
  2  1  1  0
  4  2  1  0
  4  5  1  6
  6  4  1  0
  7  6  2  0
  8  6  1  0
  9 10  1  6
  9  8  1  0
 10 11  1  0
 11 15  1  0
 11 12  2  0
 13  9  1  0
 14 13  2  0
 16 13  1  0
 17 18  1  1
 17 16  1  0
 18 19  1  0
 19 20  2  0
 20 21  1  0
 22 21  1  0
 23 19  1  0
 23 22  2  0
 24 17  1  0
 25 24  2  0
 26 24  1  0
M  END
$$$$
