VDH.pdb
     RDKit          3D

 26 26  0  0  1  0  0  0  0  0999 V2000
    8.4108  -11.9615   18.3321 C   0  0  0  0  0  0  0  0  0  0  0  0
    8.7929  -13.2618   19.0081 C   0  0  1  0  0  0  0  0  0  0  0  0
    7.6547  -13.8546   19.7720 C   0  0  0  0  0  0  0  0  0  0  0  0
    9.3281  -14.1787   17.9339 C   0  0  2  0  0  0  0  0  0  0  0  0
    8.3019  -14.5282   16.9907 N   0  0  0  0  0  0  0  0  0  0  0  0
    9.9395  -15.4020   18.4734 C   0  0  0  0  0  0  0  0  0  0  0  0
    9.5417  -16.5561   18.1449 O   0  0  0  0  0  0  0  0  0  0  0  0
   11.0131  -15.2914   19.3945 N   0  0  0  0  0  0  0  0  0  0  0  0
   11.6959  -16.4977   19.9367 C   0  0  1  0  0  0  0  0  0  0  0  0
   12.9977  -16.6905   19.2197 C   0  0  0  0  0  0  0  0  0  0  0  0
   13.6836  -17.9255   19.5988 C   0  0  0  0  0  0  0  0  0  0  0  0
   13.2335  -18.8858   20.2506 O   0  0  0  0  0  0  0  0  0  0  0  0
   11.8655  -16.2374   21.3786 C   0  0  0  0  0  0  0  0  0  0  0  0
   12.4530  -15.2231   21.7857 O   0  0  0  0  0  0  0  0  0  0  0  0
   15.0225  -18.0647   19.1835 O   0  0  0  0  0  0  0  0  0  0  0  0
   11.3563  -17.1487   22.3267 N   0  0  0  0  0  0  0  0  0  0  0  0
   11.3086  -16.7511   23.7565 C   0  0  1  0  0  0  0  0  0  0  0  0
    9.8978  -16.8005   24.2224 C   0  0  0  0  0  0  0  0  0  0  0  0
    8.9561  -15.8685   23.6573 C   0  0  0  0  0  0  0  0  0  0  0  0
    7.5984  -15.8956   23.5778 C   0  0  0  0  0  0  0  0  0  0  0  0
    7.1426  -14.7386   23.0037 N   0  0  0  0  0  0  0  0  0  0  0  0
    8.2190  -14.0180   22.7400 C   0  0  0  0  0  0  0  0  0  0  0  0
    9.3223  -14.6635   23.1184 N   0  0  0  0  0  0  0  0  0  0  0  0
   12.1870  -17.7266   24.4215 C   0  0  0  0  0  0  0  0  0  0  0  0
   12.6523  -18.7067   23.8306 O   0  0  0  0  0  0  0  0  0  0  0  0
   12.5213  -17.5682   25.7536 O   0  0  0  0  0  0  0  0  0  0  0  0
  2  3  1  6
  2  1  1  0
  4  2  1  0
  4  5  1  6
  6  4  1  0
  7  6  2  0
  8  6  1  0
  9 10  1  6
  9  8  1  0
 10 11  1  0
 11 15  1  0
 11 12  2  0
 13  9  1  0
 14 13  2  0
 16 13  1  0
 17 18  1  1
 17 16  1  0
 18 19  1  0
 19 20  2  0
 20 21  1  0
 22 21  1  0
 23 19  1  0
 23 22  2  0
 24 17  1  0
 25 24  2  0
 26 24  1  0
M  END
$$$$
