VDH.pdb
     RDKit          3D

 26 26  0  0  1  0  0  0  0  0999 V2000
   10.0357  -13.6702   19.0190 C   0  0  0  0  0  0  0  0  0  0  0  0
    8.6922  -13.3711   19.6510 C   0  0  1  0  0  0  0  0  0  0  0  0
    8.0233  -12.1940   19.0206 C   0  0  0  0  0  0  0  0  0  0  0  0
    7.8714  -14.6360   19.5661 C   0  0  2  0  0  0  0  0  0  0  0  0
    6.5723  -14.4524   20.1521 N   0  0  0  0  0  0  0  0  0  0  0  0
    8.5326  -15.7939   20.1854 C   0  0  0  0  0  0  0  0  0  0  0  0
    8.4098  -16.0628   21.4145 O   0  0  0  0  0  0  0  0  0  0  0  0
    9.3375  -16.6430   19.3825 N   0  0  0  0  0  0  0  0  0  0  0  0
   10.0721  -17.7965   19.9699 C   0  0  1  0  0  0  0  0  0  0  0  0
   10.1215  -18.9102   18.9682 C   0  0  0  0  0  0  0  0  0  0  0  0
   10.8199  -20.0960   19.4634 C   0  0  0  0  0  0  0  0  0  0  0  0
   11.9933  -20.4465   19.2398 O   0  0  0  0  0  0  0  0  0  0  0  0
   11.4072  -17.2750   20.3178 C   0  0  0  0  0  0  0  0  0  0  0  0
   12.1122  -16.6958   19.4768 O   0  0  0  0  0  0  0  0  0  0  0  0
   10.0901  -20.9631   20.3002 O   0  0  0  0  0  0  0  0  0  0  0  0
   11.9077  -17.4292   21.6271 N   0  0  0  0  0  0  0  0  0  0  0  0
   13.2398  -16.8649   21.9614 C   0  0  1  0  0  0  0  0  0  0  0  0
   13.1994  -15.3913   21.7704 C   0  0  0  0  0  0  0  0  0  0  0  0
   13.5303  -14.8588   20.4735 C   0  0  0  0  0  0  0  0  0  0  0  0
   12.8119  -14.1039   19.5992 C   0  0  0  0  0  0  0  0  0  0  0  0
   13.5854  -13.7851   18.5147 N   0  0  0  0  0  0  0  0  0  0  0  0
   14.7634  -14.3433   18.7348 C   0  0  0  0  0  0  0  0  0  0  0  0
   14.7662  -14.9939   19.8984 N   0  0  0  0  0  0  0  0  0  0  0  0
   13.4545  -17.2759   23.3580 C   0  0  0  0  0  0  0  0  0  0  0  0
   12.6101  -17.9129   23.9963 O   0  0  0  0  0  0  0  0  0  0  0  0
   14.6322  -16.9525   24.0060 O   0  0  0  0  0  0  0  0  0  0  0  0
  2  3  1  6
  2  1  1  0
  4  2  1  0
  4  5  1  1
  6  4  1  0
  7  6  2  0
  8  6  1  0
  9 10  1  6
  9  8  1  0
 10 11  1  0
 11 15  1  0
 11 12  2  0
 13  9  1  0
 14 13  2  0
 16 13  1  0
 17 18  1  1
 17 16  1  0
 18 19  1  0
 19 20  2  0
 20 21  1  0
 22 21  1  0
 23 19  1  0
 23 22  2  0
 24 17  1  0
 25 24  2  0
 26 24  1  0
M  END
$$$$
