VDH.pdb
     RDKit          3D

 26 26  0  0  1  0  0  0  0  0999 V2000
    7.6973  -11.9999   18.7061 C   0  0  0  0  0  0  0  0  0  0  0  0
    7.8668  -13.0894   19.7443 C   0  0  1  0  0  0  0  0  0  0  0  0
    6.5912  -13.8209   20.0058 C   0  0  0  0  0  0  0  0  0  0  0  0
    8.9796  -13.9902   19.2634 C   0  0  2  0  0  0  0  0  0  0  0  0
    8.6666  -14.5645   17.9839 N   0  0  0  0  0  0  0  0  0  0  0  0
    9.3072  -15.0599   20.2172 C   0  0  0  0  0  0  0  0  0  0  0  0
    9.5457  -14.8264   21.4365 O   0  0  0  0  0  0  0  0  0  0  0  0
    9.3594  -16.4024   19.7609 N   0  0  0  0  0  0  0  0  0  0  0  0
    9.6227  -17.5290   20.6973 C   0  0  1  0  0  0  0  0  0  0  0  0
    9.4000  -18.8266   19.9812 C   0  0  0  0  0  0  0  0  0  0  0  0
    8.0939  -18.9036   19.3271 C   0  0  0  0  0  0  0  0  0  0  0  0
    7.8476  -19.1017   18.1231 O   0  0  0  0  0  0  0  0  0  0  0  0
   11.0168  -17.3497   21.1442 C   0  0  0  0  0  0  0  0  0  0  0  0
   11.9424  -17.2125   20.3291 O   0  0  0  0  0  0  0  0  0  0  0  0
    6.9598  -18.7348   20.1457 O   0  0  0  0  0  0  0  0  0  0  0  0
   11.3216  -17.3316   22.5210 N   0  0  0  0  0  0  0  0  0  0  0  0
   12.7213  -17.0780   22.9468 C   0  0  1  0  0  0  0  0  0  0  0  0
   13.1268  -15.7247   22.4846 C   0  0  0  0  0  0  0  0  0  0  0  0
   13.5712  -15.5698   21.1232 C   0  0  0  0  0  0  0  0  0  0  0  0
   13.7172  -16.4711   20.1148 C   0  0  0  0  0  0  0  0  0  0  0  0
   14.1101  -15.8294   18.9703 N   0  0  0  0  0  0  0  0  0  0  0  0
   14.1990  -14.5490   19.2867 C   0  0  0  0  0  0  0  0  0  0  0  0
   13.8831  -14.3573   20.5676 N   0  0  0  0  0  0  0  0  0  0  0  0
   12.6726  -17.2143   24.4113 C   0  0  0  0  0  0  0  0  0  0  0  0
   13.6648  -17.0338   25.1247 O   0  0  0  0  0  0  0  0  0  0  0  0
   11.4895  -17.5554   25.0401 O   0  0  0  0  0  0  0  0  0  0  0  0
  2  3  1  6
  2  1  1  0
  4  2  1  0
  4  5  1  6
  6  4  1  0
  7  6  2  0
  8  6  1  0
  9 10  1  6
  9  8  1  0
 10 11  1  0
 11 15  1  0
 11 12  2  0
 13  9  1  0
 14 13  2  0
 16 13  1  0
 17 18  1  1
 17 16  1  0
 18 19  1  0
 19 20  2  0
 20 21  1  0
 22 21  1  0
 23 19  1  0
 23 22  2  0
 24 17  1  0
 25 24  2  0
 26 24  1  0
M  END
$$$$
