VDH.pdb
     RDKit          3D

 26 26  0  0  1  0  0  0  0  0999 V2000
    8.1817  -11.8663   17.9554 C   0  0  0  0  0  0  0  0  0  0  0  0
    9.0218  -12.7448   18.8589 C   0  0  1  0  0  0  0  0  0  0  0  0
    8.2940  -13.1295   20.1050 C   0  0  0  0  0  0  0  0  0  0  0  0
    9.4610  -13.9334   18.0372 C   0  0  2  0  0  0  0  0  0  0  0  0
    8.3315  -14.6992   17.5867 N   0  0  0  0  0  0  0  0  0  0  0  0
   10.3992  -14.8117   18.7510 C   0  0  0  0  0  0  0  0  0  0  0  0
   10.0513  -15.9350   19.2149 O   0  0  0  0  0  0  0  0  0  0  0  0
   11.7425  -14.3910   18.9291 N   0  0  0  0  0  0  0  0  0  0  0  0
   12.7396  -15.2543   19.6190 C   0  0  1  0  0  0  0  0  0  0  0  0
   14.1101  -14.6832   19.4150 C   0  0  0  0  0  0  0  0  0  0  0  0
   14.6389  -14.9271   18.0733 C   0  0  0  0  0  0  0  0  0  0  0  0
   14.6278  -15.9891   17.4239 O   0  0  0  0  0  0  0  0  0  0  0  0
   12.3285  -15.2734   21.0353 C   0  0  0  0  0  0  0  0  0  0  0  0
   11.5874  -14.3950   21.5033 O   0  0  0  0  0  0  0  0  0  0  0  0
   15.2404  -13.8355   17.4166 O   0  0  0  0  0  0  0  0  0  0  0  0
   12.7773  -16.3028   21.8884 N   0  0  0  0  0  0  0  0  0  0  0  0
   11.9766  -16.6432   23.0916 C   0  0  1  0  0  0  0  0  0  0  0  0
   10.6376  -17.1218   22.6585 C   0  0  0  0  0  0  0  0  0  0  0  0
    9.5121  -16.2348   22.8052 C   0  0  0  0  0  0  0  0  0  0  0  0
    9.4034  -15.0028   23.3715 C   0  0  0  0  0  0  0  0  0  0  0  0
    8.1303  -14.5252   23.2062 N   0  0  0  0  0  0  0  0  0  0  0  0
    7.4761  -15.4633   22.5431 C   0  0  0  0  0  0  0  0  0  0  0  0
    8.2727  -16.5009   22.2861 N   0  0  0  0  0  0  0  0  0  0  0  0
   12.7824  -17.6708   23.7701 C   0  0  0  0  0  0  0  0  0  0  0  0
   13.6133  -18.3608   23.1705 O   0  0  0  0  0  0  0  0  0  0  0  0
   12.6268  -17.8954   25.1254 O   0  0  0  0  0  0  0  0  0  0  0  0
  2  3  1  1
  2  1  1  0
  4  2  1  0
  4  5  1  1
  6  4  1  0
  7  6  2  0
  8  6  1  0
  9 10  1  1
  9  8  1  0
 10 11  1  0
 11 15  1  0
 11 12  2  0
 13  9  1  0
 14 13  2  0
 16 13  1  0
 17 18  1  6
 17 16  1  0
 18 19  1  0
 19 20  2  0
 20 21  1  0
 22 21  1  0
 23 19  1  0
 23 22  2  0
 24 17  1  0
 25 24  2  0
 26 24  1  0
M  END
$$$$
