NYW.pdb
     RDKit          3D

 35 37  0  0  1  0  0  0  0  0999 V2000
    7.3023  -13.7220   17.4197 N   0  0  0  0  0  0  0  0  0  0  0  0
    8.2086  -14.7669   17.0917 C   0  0  0  0  0  0  0  0  0  0  0  0
    8.4227  -15.0111   15.8777 O   0  0  0  0  0  0  0  0  0  0  0  0
    8.8853  -15.5509   18.1257 C   0  0  0  0  0  0  0  0  0  0  0  0
    8.3825  -15.1914   19.5315 C   0  0  2  0  0  0  0  0  0  0  0  0
    8.3939  -13.7411   19.5813 N   0  0  0  0  0  0  0  0  0  0  0  0
    9.3839  -15.7675   20.4688 C   0  0  0  0  0  0  0  0  0  0  0  0
    9.5941  -17.0124   20.3839 O   0  0  0  0  0  0  0  0  0  0  0  0
   15.1757  -15.1665   17.5097 O   0  0  0  0  0  0  0  0  0  0  0  0
   14.4657  -15.1077   18.7275 C   0  0  0  0  0  0  0  0  0  0  0  0
   13.7759  -13.9854   19.0653 C   0  0  0  0  0  0  0  0  0  0  0  0
   13.0716  -13.9328   20.2777 C   0  0  0  0  0  0  0  0  0  0  0  0
   13.0680  -15.0071   21.1365 C   0  0  0  0  0  0  0  0  0  0  0  0
   12.3378  -14.9523   22.3894 C   0  0  0  0  0  0  0  0  0  0  0  0
   10.9958  -15.6635   22.3707 C   0  0  2  0  0  0  0  0  0  0  0  0
   10.0880  -15.0013   21.4205 N   0  0  0  0  0  0  0  0  0  0  0  0
   10.4033  -15.6699   23.7328 C   0  0  0  0  0  0  0  0  0  0  0  0
   10.2795  -14.5411   24.3229 O   0  0  0  0  0  0  0  0  0  0  0  0
   13.7712  -16.1274   20.7730 C   0  0  0  0  0  0  0  0  0  0  0  0
   14.4747  -16.1925   19.5720 C   0  0  0  0  0  0  0  0  0  0  0  0
    9.9667  -16.7981   24.4339 N   0  0  0  0  0  0  0  0  0  0  0  0
    9.5686  -16.7327   25.8613 C   0  0  1  0  0  0  0  0  0  0  0  0
    8.0934  -16.7638   25.9785 C   0  0  0  0  0  0  0  0  0  0  0  0
    7.4515  -15.5519   25.4696 C   0  0  0  0  0  0  0  0  0  0  0  0
    6.8149  -15.3954   24.2229 C   0  0  0  0  0  0  0  0  0  0  0  0
    6.3798  -14.1411   24.0759 N   0  0  0  0  0  0  0  0  0  0  0  0
    6.7036  -13.4643   25.1777 C   0  0  0  0  0  0  0  0  0  0  0  0
    6.4609  -12.1441   25.5293 C   0  0  0  0  0  0  0  0  0  0  0  0
    6.8712  -11.6390   26.7630 C   0  0  0  0  0  0  0  0  0  0  0  0
    7.5271  -12.4854   27.6308 C   0  0  0  0  0  0  0  0  0  0  0  0
    7.7795  -13.7972   27.3036 C   0  0  0  0  0  0  0  0  0  0  0  0
    7.3650  -14.2939   26.0641 C   0  0  0  0  0  0  0  0  0  0  0  0
   10.2390  -17.8246   26.5489 C   0  0  0  0  0  0  0  0  0  0  0  0
   10.1157  -18.0343   27.7983 O   0  0  0  0  0  0  0  0  0  0  0  0
   11.0615  -18.7258   25.8790 O   0  0  0  0  0  0  0  0  0  0  0  0
  2  1  1  0
  3  2  2  0
  4  2  1  0
  5  6  1  6
  5  4  1  0
  7  5  1  0
  8  7  2  0
  9 10  1  0
 10 20  2  0
 10 11  1  0
 11 12  2  0
 12 13  1  0
 13 14  1  0
 15 14  1  1
 15 17  1  0
 15 16  1  0
 16  7  1  0
 17 21  1  0
 18 17  2  0
 19 13  2  0
 20 19  1  0
 22 21  1  0
 22 23  1  6
 22 33  1  0
 24 32  1  0
 24 23  1  0
 25 24  2  0
 26 25  1  0
 26 27  1  0
 27 32  2  0
 28 27  1  0
 28 29  2  0
 29 30  1  0
 30 31  2  0
 32 31  1  0
 33 34  2  0
 33 35  1  0
M  END
$$$$
