NYW.pdb
     RDKit          3D

 35 37  0  0  1  0  0  0  0  0999 V2000
    7.7632  -21.1094   19.2830 N   0  0  0  0  0  0  0  0  0  0  0  0
    8.1683  -19.9533   18.5617 C   0  0  0  0  0  0  0  0  0  0  0  0
    8.0805  -19.9715   17.3083 O   0  0  0  0  0  0  0  0  0  0  0  0
    8.6779  -18.7618   19.2419 C   0  0  0  0  0  0  0  0  0  0  0  0
    8.7219  -18.9522   20.7650 C   0  0  2  0  0  0  0  0  0  0  0  0
    7.3344  -18.9454   21.1904 N   0  0  0  0  0  0  0  0  0  0  0  0
    9.4491  -17.7658   21.2909 C   0  0  0  0  0  0  0  0  0  0  0  0
   10.6685  -17.6566   20.9708 O   0  0  0  0  0  0  0  0  0  0  0  0
    7.3699  -13.3945   17.0194 O   0  0  0  0  0  0  0  0  0  0  0  0
    7.7535  -13.6356   18.3555 C   0  0  0  0  0  0  0  0  0  0  0  0
    8.9882  -14.1325   18.6351 C   0  0  0  0  0  0  0  0  0  0  0  0
    9.3642  -14.3702   19.9659 C   0  0  0  0  0  0  0  0  0  0  0  0
    8.4967  -14.1063   21.0000 C   0  0  0  0  0  0  0  0  0  0  0  0
    8.8872  -14.3509   22.3760 C   0  0  0  0  0  0  0  0  0  0  0  0
    9.6447  -15.6488   22.5972 C   0  0  2  0  0  0  0  0  0  0  0  0
    8.8489  -16.7859   22.1084 N   0  0  0  0  0  0  0  0  0  0  0  0
    9.9560  -15.8178   24.0397 C   0  0  0  0  0  0  0  0  0  0  0  0
   10.7967  -15.0031   24.5569 O   0  0  0  0  0  0  0  0  0  0  0  0
    7.2573  -13.6056   20.6920 C   0  0  0  0  0  0  0  0  0  0  0  0
    6.8716  -13.3651   19.3748 C   0  0  0  0  0  0  0  0  0  0  0  0
    9.4148  -16.7876   24.8892 N   0  0  0  0  0  0  0  0  0  0  0  0
    9.9162  -16.9928   26.2700 C   0  0  1  0  0  0  0  0  0  0  0  0
    8.8701  -16.6231   27.2498 C   0  0  0  0  0  0  0  0  0  0  0  0
    7.8692  -15.7074   26.7028 C   0  0  0  0  0  0  0  0  0  0  0  0
    6.7060  -16.0582   25.9902 C   0  0  0  0  0  0  0  0  0  0  0  0
    6.0469  -14.9622   25.6050 N   0  0  0  0  0  0  0  0  0  0  0  0
    6.7296  -13.9017   26.0367 C   0  0  0  0  0  0  0  0  0  0  0  0
    6.4601  -12.5458   25.9174 C   0  0  0  0  0  0  0  0  0  0  0  0
    7.3086  -11.5898   26.4752 C   0  0  0  0  0  0  0  0  0  0  0  0
    8.4280  -12.0242   27.1520 C   0  0  0  0  0  0  0  0  0  0  0  0
    8.7160  -13.3627   27.2822 C   0  0  0  0  0  0  0  0  0  0  0  0
    7.8596  -14.3134   26.7186 C   0  0  0  0  0  0  0  0  0  0  0  0
   10.3573  -18.3748   26.3702 C   0  0  0  0  0  0  0  0  0  0  0  0
    9.5639  -19.3373   26.6236 O   0  0  0  0  0  0  0  0  0  0  0  0
   11.6875  -18.7412   26.1865 O   0  0  0  0  0  0  0  0  0  0  0  0
  2  1  1  0
  3  2  2  0
  4  2  1  0
  5  6  1  1
  5  4  1  0
  7  5  1  0
  8  7  2  0
  9 10  1  0
 10 20  2  0
 10 11  1  0
 11 12  2  0
 12 13  1  0
 13 14  1  0
 15 14  1  1
 15 17  1  0
 15 16  1  0
 16  7  1  0
 17 21  1  0
 18 17  2  0
 19 13  2  0
 20 19  1  0
 22 21  1  0
 22 23  1  1
 22 33  1  0
 24 32  1  0
 24 23  1  0
 25 24  2  0
 26 25  1  0
 26 27  1  0
 27 32  2  0
 28 27  1  0
 28 29  2  0
 29 30  1  0
 30 31  2  0
 32 31  1  0
 33 34  2  0
 33 35  1  0
M  END
$$$$
