NYW.pdb
     RDKit          3D

 35 37  0  0  1  0  0  0  0  0999 V2000
   15.8018  -16.4888   18.6043 N   0  0  0  0  0  0  0  0  0  0  0  0
   15.3579  -15.1386   18.5776 C   0  0  0  0  0  0  0  0  0  0  0  0
   15.9282  -14.3390   17.7936 O   0  0  0  0  0  0  0  0  0  0  0  0
   14.2666  -14.6707   19.4333 C   0  0  0  0  0  0  0  0  0  0  0  0
   12.9510  -15.4008   19.1264 C   0  0  2  0  0  0  0  0  0  0  0  0
   12.5253  -14.8932   17.8352 N   0  0  0  0  0  0  0  0  0  0  0  0
   12.0094  -14.9872   20.2014 C   0  0  0  0  0  0  0  0  0  0  0  0
   12.0990  -13.7928   20.6093 O   0  0  0  0  0  0  0  0  0  0  0  0
    7.2874  -13.1437   16.3611 O   0  0  0  0  0  0  0  0  0  0  0  0
    7.6296  -13.7562   17.5852 C   0  0  0  0  0  0  0  0  0  0  0  0
    7.6756  -13.0227   18.7295 C   0  0  0  0  0  0  0  0  0  0  0  0
    8.0165  -13.6372   19.9439 C   0  0  0  0  0  0  0  0  0  0  0  0
    8.3072  -14.9806   19.9954 C   0  0  0  0  0  0  0  0  0  0  0  0
    8.6580  -15.6156   21.2521 C   0  0  0  0  0  0  0  0  0  0  0  0
   10.0697  -15.3278   21.7336 C   0  0  2  0  0  0  0  0  0  0  0  0
   11.0479  -15.8503   20.7665 N   0  0  0  0  0  0  0  0  0  0  0  0
   10.2869  -15.9387   23.0699 C   0  0  0  0  0  0  0  0  0  0  0  0
   10.8488  -17.0881   23.1042 O   0  0  0  0  0  0  0  0  0  0  0  0
    8.2539  -15.6985   18.8277 C   0  0  0  0  0  0  0  0  0  0  0  0
    7.9167  -15.1003   17.6153 C   0  0  0  0  0  0  0  0  0  0  0  0
    9.9334  -15.3738   24.2992 N   0  0  0  0  0  0  0  0  0  0  0  0
   10.2056  -16.0575   25.5871 C   0  0  1  0  0  0  0  0  0  0  0  0
    9.8619  -15.1658   26.7174 C   0  0  0  0  0  0  0  0  0  0  0  0
    8.4687  -14.7208   26.6944 C   0  0  0  0  0  0  0  0  0  0  0  0
    7.3262  -15.5342   26.5638 C   0  0  0  0  0  0  0  0  0  0  0  0
    6.2208  -14.7848   26.5384 N   0  0  0  0  0  0  0  0  0  0  0  0
    6.5896  -13.5085   26.6482 C   0  0  0  0  0  0  0  0  0  0  0  0
    5.8272  -12.3500   26.6944 C   0  0  0  0  0  0  0  0  0  0  0  0
    6.4248  -11.0984   26.8410 C   0  0  0  0  0  0  0  0  0  0  0  0
    7.7982  -11.0370   26.9395 C   0  0  0  0  0  0  0  0  0  0  0  0
    8.5743  -12.1716   26.8953 C   0  0  0  0  0  0  0  0  0  0  0  0
    7.9659  -13.4216   26.7472 C   0  0  0  0  0  0  0  0  0  0  0  0
    9.4674  -17.3103   25.5774 C   0  0  0  0  0  0  0  0  0  0  0  0
    8.4992  -17.5364   24.7825 O   0  0  0  0  0  0  0  0  0  0  0  0
    9.7780  -18.3579   26.4397 O   0  0  0  0  0  0  0  0  0  0  0  0
  2  1  1  0
  3  2  2  0
  4  2  1  0
  5  6  1  6
  5  4  1  0
  7  5  1  0
  8  7  2  0
  9 10  1  0
 10 20  2  0
 10 11  1  0
 11 12  2  0
 12 13  1  0
 13 14  1  0
 15 14  1  6
 15 17  1  0
 15 16  1  0
 16  7  1  0
 17 21  1  0
 18 17  2  0
 19 13  2  0
 20 19  1  0
 22 21  1  0
 22 23  1  1
 22 33  1  0
 24 32  1  0
 24 23  1  0
 25 24  2  0
 26 25  1  0
 26 27  1  0
 27 32  2  0
 28 27  1  0
 28 29  2  0
 29 30  1  0
 30 31  2  0
 32 31  1  0
 33 34  2  0
 33 35  1  0
M  END
$$$$
