NYW.pdb
     RDKit          3D

 35 37  0  0  1  0  0  0  0  0999 V2000
   13.1545  -18.7358   17.9663 N   0  0  0  0  0  0  0  0  0  0  0  0
   11.7768  -18.4492   18.1680 C   0  0  0  0  0  0  0  0  0  0  0  0
   10.9264  -19.2173   17.6522 O   0  0  0  0  0  0  0  0  0  0  0  0
   11.3383  -17.2940   18.9525 C   0  0  0  0  0  0  0  0  0  0  0  0
   10.9969  -17.6852   20.3976 C   0  0  2  0  0  0  0  0  0  0  0  0
    9.7870  -18.4808   20.3017 N   0  0  0  0  0  0  0  0  0  0  0  0
   10.7394  -16.4017   21.1043 C   0  0  0  0  0  0  0  0  0  0  0  0
   11.6717  -15.5463   21.0905 O   0  0  0  0  0  0  0  0  0  0  0  0
    7.1878  -13.3505   16.6623 O   0  0  0  0  0  0  0  0  0  0  0  0
    7.4090  -13.5557   18.0405 C   0  0  0  0  0  0  0  0  0  0  0  0
    8.0021  -12.5890   18.7910 C   0  0  0  0  0  0  0  0  0  0  0  0
    8.2195  -12.7988   20.1612 C   0  0  0  0  0  0  0  0  0  0  0  0
    7.8390  -13.9761   20.7618 C   0  0  0  0  0  0  0  0  0  0  0  0
    8.0628  -14.1914   22.1794 C   0  0  0  0  0  0  0  0  0  0  0  0
    9.3889  -14.8506   22.5172 C   0  0  2  0  0  0  0  0  0  0  0  0
    9.5305  -16.1097   21.7691 N   0  0  0  0  0  0  0  0  0  0  0  0
    9.4740  -15.1050   23.9782 C   0  0  0  0  0  0  0  0  0  0  0  0
    9.3578  -14.0955   24.7563 O   0  0  0  0  0  0  0  0  0  0  0  0
    7.2428  -14.9355   19.9835 C   0  0  0  0  0  0  0  0  0  0  0  0
    7.0212  -14.7397   18.6218 C   0  0  0  0  0  0  0  0  0  0  0  0
    9.6703  -16.3488   24.5858 N   0  0  0  0  0  0  0  0  0  0  0  0
    9.9649  -16.4800   26.0336 C   0  0  1  0  0  0  0  0  0  0  0  0
    8.7260  -16.8033   26.7762 C   0  0  0  0  0  0  0  0  0  0  0  0
    7.6440  -15.8502   26.5302 C   0  0  0  0  0  0  0  0  0  0  0  0
    6.4532  -16.0926   25.8181 C   0  0  0  0  0  0  0  0  0  0  0  0
    5.7138  -14.9820   25.7544 N   0  0  0  0  0  0  0  0  0  0  0  0
    6.3702  -14.0165   26.3978 C   0  0  0  0  0  0  0  0  0  0  0  0
    6.0244  -12.6936   26.6343 C   0  0  0  0  0  0  0  0  0  0  0  0
    6.8602  -11.8490   27.3646 C   0  0  0  0  0  0  0  0  0  0  0  0
    8.0448  -12.3603   27.8492 C   0  0  0  0  0  0  0  0  0  0  0  0
    8.4089  -13.6678   27.6265 C   0  0  0  0  0  0  0  0  0  0  0  0
    7.5646  -14.5064   26.8925 C   0  0  0  0  0  0  0  0  0  0  0  0
   11.0148  -17.4763   26.1740 C   0  0  0  0  0  0  0  0  0  0  0  0
   11.5217  -17.7931   27.2978 O   0  0  0  0  0  0  0  0  0  0  0  0
   11.5347  -18.1615   25.0796 O   0  0  0  0  0  0  0  0  0  0  0  0
  2  1  1  0
  3  2  2  0
  4  2  1  0
  5  6  1  6
  5  4  1  0
  7  5  1  0
  8  7  2  0
  9 10  1  0
 10 20  2  0
 10 11  1  0
 11 12  2  0
 12 13  1  0
 13 14  1  0
 15 14  1  1
 15 17  1  0
 15 16  1  0
 16  7  1  0
 17 21  1  0
 18 17  2  0
 19 13  2  0
 20 19  1  0
 22 21  1  0
 22 23  1  1
 22 33  1  0
 24 32  1  0
 24 23  1  0
 25 24  2  0
 26 25  1  0
 26 27  1  0
 27 32  2  0
 28 27  1  0
 28 29  2  0
 29 30  1  0
 30 31  2  0
 32 31  1  0
 33 34  2  0
 33 35  1  0
M  END
$$$$
