EKE.pdb
     RDKit          3D

 28 27  0  0  1  0  0  0  0  0999 V2000
   24.4213  -17.5919  -19.8912 N   0  0  0  0  0  0  0  0  0  0  0  0
   24.3807  -17.1357  -18.5173 C   0  0  1  0  0  0  0  0  0  0  0  0
   23.6033  -15.8464  -18.3829 C   0  0  0  0  0  0  0  0  0  0  0  0
   22.5099  -15.8720  -19.4465 C   0  0  0  0  0  0  0  0  0  0  0  0
   21.1675  -15.7705  -18.8375 C   0  0  0  0  0  0  0  0  0  0  0  0
   21.0558  -15.3694  -17.6639 O   0  0  0  0  0  0  0  0  0  0  0  0
   23.8458  -18.2103  -17.6541 C   0  0  0  0  0  0  0  0  0  0  0  0
   22.9399  -18.9921  -18.0630 O   0  0  0  0  0  0  0  0  0  0  0  0
   20.0294  -16.1108  -19.5406 O   0  0  0  0  0  0  0  0  0  0  0  0
   24.3352  -18.3994  -16.3332 N   0  0  0  0  0  0  0  0  0  0  0  0
   23.9280  -19.4142  -15.4261 C   0  0  1  0  0  0  0  0  0  0  0  0
   24.7942  -19.4607  -14.1591 C   0  0  0  0  0  0  0  0  0  0  0  0
   24.5031  -20.6694  -13.3419 C   0  0  0  0  0  0  0  0  0  0  0  0
   24.8292  -21.9309  -14.0647 C   0  0  0  0  0  0  0  0  0  0  0  0
   24.3398  -23.1496  -13.3294 C   0  0  0  0  0  0  0  0  0  0  0  0
   24.6485  -24.3601  -14.0856 N   0  0  0  0  0  0  0  0  0  0  0  0
   22.5243  -19.2944  -14.9818 C   0  0  0  0  0  0  0  0  0  0  0  0
   22.1716  -18.2137  -14.4426 O   0  0  0  0  0  0  0  0  0  0  0  0
   21.5614  -20.2981  -15.1185 N   0  0  0  0  0  0  0  0  0  0  0  0
   20.1523  -20.1587  -14.6286 C   0  0  1  0  0  0  0  0  0  0  0  0
   19.3889  -21.3346  -15.1273 C   0  0  0  0  0  0  0  0  0  0  0  0
   17.9619  -21.4190  -14.7868 C   0  0  0  0  0  0  0  0  0  0  0  0
   17.1871  -22.6043  -15.1264 C   0  0  0  0  0  0  0  0  0  0  0  0
   16.0413  -22.4531  -15.6790 O   0  0  0  0  0  0  0  0  0  0  0  0
   20.2882  -20.1668  -13.1657 C   0  0  0  0  0  0  0  0  0  0  0  0
   19.2854  -19.5190  -12.4000 O   0  0  0  0  0  0  0  0  0  0  0  0
   17.5913  -23.9091  -14.9019 O   0  0  0  0  0  0  0  0  0  0  0  0
   21.1982  -20.6841  -12.4916 O   0  0  0  0  0  0  0  0  0  0  0  0
  2  1  1  6
  2  3  1  0
  3  4  1  0
  5  4  1  0
  6  5  2  0
  7  2  1  0
  7 10  1  0
  8  7  2  0
  9  5  1  0
 11 10  1  0
 11 12  1  1
 13 12  1  0
 13 14  1  0
 15 14  1  0
 16 15  1  0
 17 11  1  0
 18 17  2  0
 19 17  1  0
 20 19  1  0
 20 21  1  1
 22 21  1  0
 23 24  2  0
 23 22  1  0
 25 20  1  0
 25 26  1  0
 27 23  1  0
 28 25  2  0
M  END
$$$$
