EKE.pdb
     RDKit          3D

 28 27  0  0  1  0  0  0  0  0999 V2000
   26.6853  -19.5058  -15.2637 N   0  0  0  0  0  0  0  0  0  0  0  0
   26.0712  -20.7107  -15.7821 C   0  0  1  0  0  0  0  0  0  0  0  0
   27.1067  -21.7513  -16.1419 C   0  0  0  0  0  0  0  0  0  0  0  0
   27.3380  -21.6488  -17.6463 C   0  0  0  0  0  0  0  0  0  0  0  0
   28.5391  -20.8436  -17.9501 C   0  0  0  0  0  0  0  0  0  0  0  0
   29.6686  -21.3311  -17.7572 O   0  0  0  0  0  0  0  0  0  0  0  0
   25.0759  -21.2159  -14.8125 C   0  0  0  0  0  0  0  0  0  0  0  0
   24.4687  -22.3087  -15.0030 O   0  0  0  0  0  0  0  0  0  0  0  0
   28.4394  -19.5588  -18.4449 O   0  0  0  0  0  0  0  0  0  0  0  0
   24.7697  -20.4870  -13.6314 N   0  0  0  0  0  0  0  0  0  0  0  0
   23.7193  -20.7736  -12.7186 C   0  0  1  0  0  0  0  0  0  0  0  0
   24.0313  -20.3081  -11.2891 C   0  0  0  0  0  0  0  0  0  0  0  0
   23.0078  -20.7886  -10.3221 C   0  0  0  0  0  0  0  0  0  0  0  0
   23.3407  -20.4183   -8.9178 C   0  0  0  0  0  0  0  0  0  0  0  0
   22.3279  -20.9439   -7.9364 C   0  0  0  0  0  0  0  0  0  0  0  0
   22.7239  -20.6164   -6.5696 N   0  0  0  0  0  0  0  0  0  0  0  0
   22.4207  -20.1756  -13.0906 C   0  0  0  0  0  0  0  0  0  0  0  0
   22.3880  -18.9367  -13.3077 O   0  0  0  0  0  0  0  0  0  0  0  0
   21.2266  -20.8904  -13.2178 N   0  0  0  0  0  0  0  0  0  0  0  0
   19.9254  -20.2565  -13.6052 C   0  0  1  0  0  0  0  0  0  0  0  0
   19.1499  -21.2660  -14.3757 C   0  0  0  0  0  0  0  0  0  0  0  0
   17.7769  -20.9202  -14.7691 C   0  0  0  0  0  0  0  0  0  0  0  0
   16.9647  -21.8591  -15.5304 C   0  0  0  0  0  0  0  0  0  0  0  0
   17.5511  -22.7965  -16.1773 O   0  0  0  0  0  0  0  0  0  0  0  0
   19.2940  -19.9385  -12.3173 C   0  0  0  0  0  0  0  0  0  0  0  0
   19.5877  -20.7717  -11.2077 O   0  0  0  0  0  0  0  0  0  0  0  0
   15.5832  -21.8277  -15.6151 O   0  0  0  0  0  0  0  0  0  0  0  0
   18.5099  -19.0042  -12.0674 O   0  0  0  0  0  0  0  0  0  0  0  0
  2  1  1  1
  2  3  1  0
  3  4  1  0
  5  4  1  0
  6  5  2  0
  7  2  1  0
  7 10  1  0
  8  7  2  0
  9  5  1  0
 11 10  1  0
 11 12  1  1
 13 12  1  0
 13 14  1  0
 15 14  1  0
 16 15  1  0
 17 11  1  0
 18 17  2  0
 19 17  1  0
 20 19  1  0
 20 21  1  1
 22 21  1  0
 23 24  2  0
 23 22  1  0
 25 20  1  0
 25 26  1  0
 27 23  1  0
 28 25  2  0
M  END
$$$$
