EKE.pdb
     RDKit          3D

 28 27  0  0  1  0  0  0  0  0999 V2000
   19.2316  -10.5079  -14.1451 N   0  0  0  0  0  0  0  0  0  0  0  0
   19.4540   -9.1999  -13.5644 C   0  0  1  0  0  0  0  0  0  0  0  0
   20.1495   -8.2725  -14.5345 C   0  0  0  0  0  0  0  0  0  0  0  0
   21.5129   -7.9414  -13.9354 C   0  0  0  0  0  0  0  0  0  0  0  0
   21.4109   -6.8547  -12.9395 C   0  0  0  0  0  0  0  0  0  0  0  0
   21.4387   -7.1313  -11.7257 O   0  0  0  0  0  0  0  0  0  0  0  0
   18.1711   -8.6493  -13.0778 C   0  0  0  0  0  0  0  0  0  0  0  0
   17.5780   -7.7194  -13.6965 O   0  0  0  0  0  0  0  0  0  0  0  0
   21.2851   -5.5348  -13.3232 O   0  0  0  0  0  0  0  0  0  0  0  0
   17.5616   -9.1500  -11.8954 N   0  0  0  0  0  0  0  0  0  0  0  0
   16.3304   -8.7124  -11.3377 C   0  0  1  0  0  0  0  0  0  0  0  0
   15.5892   -9.8276  -10.5862 C   0  0  0  0  0  0  0  0  0  0  0  0
   14.2611   -9.3684  -10.0976 C   0  0  0  0  0  0  0  0  0  0  0  0
   13.4850  -10.4671   -9.4567 C   0  0  0  0  0  0  0  0  0  0  0  0
   12.1415  -10.0009   -8.9639 C   0  0  0  0  0  0  0  0  0  0  0  0
   11.3874  -11.1188   -8.4038 N   0  0  0  0  0  0  0  0  0  0  0  0
   16.4652   -7.5793  -10.3995 C   0  0  0  0  0  0  0  0  0  0  0  0
   17.2937   -7.6935   -9.4596 O   0  0  0  0  0  0  0  0  0  0  0  0
   15.7361   -6.3899  -10.4836 N   0  0  0  0  0  0  0  0  0  0  0  0
   15.9257   -5.2403   -9.5416 C   0  0  1  0  0  0  0  0  0  0  0  0
   15.9727   -3.9977  -10.3588 C   0  0  0  0  0  0  0  0  0  0  0  0
   15.9626   -2.7109   -9.6493 C   0  0  0  0  0  0  0  0  0  0  0  0
   15.8410   -1.4596  -10.3843 C   0  0  0  0  0  0  0  0  0  0  0  0
   15.7886   -1.4997  -11.6636 O   0  0  0  0  0  0  0  0  0  0  0  0
   14.7356   -5.2927   -8.6817 C   0  0  0  0  0  0  0  0  0  0  0  0
   13.6131   -6.0275   -9.1419 O   0  0  0  0  0  0  0  0  0  0  0  0
   15.7726   -0.2028   -9.8076 O   0  0  0  0  0  0  0  0  0  0  0  0
   14.5807   -4.7581   -7.5680 O   0  0  0  0  0  0  0  0  0  0  0  0
  2  1  1  6
  2  3  1  0
  3  4  1  0
  5  4  1  0
  6  5  2  0
  7  2  1  0
  7 10  1  0
  8  7  2  0
  9  5  1  0
 11 10  1  0
 11 12  1  1
 13 12  1  0
 13 14  1  0
 15 14  1  0
 16 15  1  0
 17 11  1  0
 18 17  2  0
 19 17  1  0
 20 19  1  0
 20 21  1  6
 22 21  1  0
 23 24  2  0
 23 22  1  0
 25 20  1  0
 25 26  1  0
 27 23  1  0
 28 25  2  0
M  END
$$$$
