EKE.pdb
     RDKit          3D

 28 27  0  0  1  0  0  0  0  0999 V2000
   24.4790  -25.5486  -18.2789 N   0  0  0  0  0  0  0  0  0  0  0  0
   23.9204  -24.2894  -18.7259 C   0  0  1  0  0  0  0  0  0  0  0  0
   22.7006  -24.4995  -19.5934 C   0  0  0  0  0  0  0  0  0  0  0  0
   23.1934  -25.0382  -20.9329 C   0  0  0  0  0  0  0  0  0  0  0  0
   24.0168  -24.0374  -21.6426 C   0  0  0  0  0  0  0  0  0  0  0  0
   25.1842  -24.3238  -21.9678 O   0  0  0  0  0  0  0  0  0  0  0  0
   23.6405  -23.4288  -17.5567 C   0  0  0  0  0  0  0  0  0  0  0  0
   22.9448  -23.8447  -16.5860 O   0  0  0  0  0  0  0  0  0  0  0  0
   23.5216  -22.7875  -21.9554 O   0  0  0  0  0  0  0  0  0  0  0  0
   24.1469  -22.1026  -17.4864 N   0  0  0  0  0  0  0  0  0  0  0  0
   23.9475  -21.1851  -16.4202 C   0  0  1  0  0  0  0  0  0  0  0  0
   24.7962  -19.9136  -16.5644 C   0  0  0  0  0  0  0  0  0  0  0  0
   26.2346  -20.2364  -16.7652 C   0  0  0  0  0  0  0  0  0  0  0  0
   27.0689  -19.0134  -16.9344 C   0  0  0  0  0  0  0  0  0  0  0  0
   28.5316  -19.3387  -17.0757 C   0  0  0  0  0  0  0  0  0  0  0  0
   29.3302  -18.1163  -17.0585 N   0  0  0  0  0  0  0  0  0  0  0  0
   22.5455  -20.7488  -16.2578 C   0  0  0  0  0  0  0  0  0  0  0  0
   21.9299  -20.3636  -17.2852 O   0  0  0  0  0  0  0  0  0  0  0  0
   21.8561  -20.7340  -15.0422 N   0  0  0  0  0  0  0  0  0  0  0  0
   20.4625  -20.2042  -14.8931 C   0  0  1  0  0  0  0  0  0  0  0  0
   19.6639  -21.2432  -14.1883 C   0  0  0  0  0  0  0  0  0  0  0  0
   18.2757  -20.9164  -13.8339 C   0  0  0  0  0  0  0  0  0  0  0  0
   17.4009  -21.9258  -13.2540 C   0  0  0  0  0  0  0  0  0  0  0  0
   17.8567  -23.1108  -13.0833 O   0  0  0  0  0  0  0  0  0  0  0  0
   20.6341  -18.9922  -14.0805 C   0  0  0  0  0  0  0  0  0  0  0  0
   19.6255  -17.9972  -14.1472 O   0  0  0  0  0  0  0  0  0  0  0  0
   16.0914  -21.7106  -12.8595 O   0  0  0  0  0  0  0  0  0  0  0  0
   21.5798  -18.7177  -13.3187 O   0  0  0  0  0  0  0  0  0  0  0  0
  2  1  1  1
  2  3  1  0
  3  4  1  0
  5  4  1  0
  6  5  2  0
  7  2  1  0
  7 10  1  0
  8  7  2  0
  9  5  1  0
 11 10  1  0
 11 12  1  6
 13 12  1  0
 13 14  1  0
 15 14  1  0
 16 15  1  0
 17 11  1  0
 18 17  2  0
 19 17  1  0
 20 19  1  0
 20 21  1  1
 22 21  1  0
 23 24  2  0
 23 22  1  0
 25 20  1  0
 25 26  1  0
 27 23  1  0
 28 25  2  0
M  END
$$$$
