EKE.pdb
     RDKit          3D

 28 27  0  0  1  0  0  0  0  0999 V2000
   13.6325  -12.6553  -12.4033 N   0  0  0  0  0  0  0  0  0  0  0  0
   14.8585  -12.1759  -11.7996 C   0  0  1  0  0  0  0  0  0  0  0  0
   16.0679  -12.5523  -12.6244 C   0  0  0  0  0  0  0  0  0  0  0  0
   16.1456  -14.0758  -12.6325 C   0  0  0  0  0  0  0  0  0  0  0  0
   17.2684  -14.5506  -13.4675 C   0  0  0  0  0  0  0  0  0  0  0  0
   17.5598  -15.7613  -13.4717 O   0  0  0  0  0  0  0  0  0  0  0  0
   14.7615  -10.7183  -11.5719 C   0  0  0  0  0  0  0  0  0  0  0  0
   14.2982   -9.9440  -12.4579 O   0  0  0  0  0  0  0  0  0  0  0  0
   18.0053  -13.6813  -14.2464 O   0  0  0  0  0  0  0  0  0  0  0  0
   15.1870  -10.1395  -10.3455 N   0  0  0  0  0  0  0  0  0  0  0  0
   15.1290   -8.7614  -10.0047 C   0  0  1  0  0  0  0  0  0  0  0  0
   14.2382   -8.4884   -8.7842 C   0  0  0  0  0  0  0  0  0  0  0  0
   12.7941   -8.5514   -9.1365 C   0  0  0  0  0  0  0  0  0  0  0  0
   11.9149   -8.3572   -7.9493 C   0  0  0  0  0  0  0  0  0  0  0  0
   10.4574   -8.5160   -8.2897 C   0  0  0  0  0  0  0  0  0  0  0  0
    9.6312   -8.3142   -7.1028 N   0  0  0  0  0  0  0  0  0  0  0  0
   16.4465   -8.1579   -9.7177 C   0  0  0  0  0  0  0  0  0  0  0  0
   17.1786   -8.7283   -8.8681 O   0  0  0  0  0  0  0  0  0  0  0  0
   16.9356   -6.9976  -10.3240 N   0  0  0  0  0  0  0  0  0  0  0  0
   18.3363   -6.4995  -10.1373 C   0  0  1  0  0  0  0  0  0  0  0  0
   19.1128   -6.8899  -11.3451 C   0  0  0  0  0  0  0  0  0  0  0  0
   20.4617   -6.3289  -11.5028 C   0  0  0  0  0  0  0  0  0  0  0  0
   21.2835   -6.6845  -12.6512 C   0  0  0  0  0  0  0  0  0  0  0  0
   21.1457   -7.8476  -13.1701 O   0  0  0  0  0  0  0  0  0  0  0  0
   18.1779   -5.0429  -10.0281 C   0  0  0  0  0  0  0  0  0  0  0  0
   19.2167   -4.3047   -9.4055 O   0  0  0  0  0  0  0  0  0  0  0  0
   22.2192   -5.8555  -13.2460 O   0  0  0  0  0  0  0  0  0  0  0  0
   17.2198   -4.3527  -10.4229 O   0  0  0  0  0  0  0  0  0  0  0  0
  2  1  1  6
  2  3  1  0
  3  4  1  0
  5  4  1  0
  6  5  2  0
  7  2  1  0
  7 10  1  0
  8  7  2  0
  9  5  1  0
 11 10  1  0
 11 12  1  1
 13 12  1  0
 13 14  1  0
 15 14  1  0
 16 15  1  0
 17 11  1  0
 18 17  2  0
 19 17  1  0
 20 19  1  0
 20 21  1  6
 22 21  1  0
 23 24  2  0
 23 22  1  0
 25 20  1  0
 25 26  1  0
 27 23  1  0
 28 25  2  0
M  END
$$$$
