EKE.pdb
     RDKit          3D

 28 27  0  0  1  0  0  0  0  0999 V2000
   28.3426  -19.4572  -18.0816 N   0  0  0  0  0  0  0  0  0  0  0  0
   27.4801  -20.0904  -17.1056 C   0  0  1  0  0  0  0  0  0  0  0  0
   28.2542  -20.5355  -15.8860 C   0  0  0  0  0  0  0  0  0  0  0  0
   28.1859  -22.0590  -15.8460 C   0  0  0  0  0  0  0  0  0  0  0  0
   29.2996  -22.6654  -16.6045 C   0  0  0  0  0  0  0  0  0  0  0  0
   29.3861  -23.9053  -16.6799 O   0  0  0  0  0  0  0  0  0  0  0  0
   26.3651  -19.1808  -16.7659 C   0  0  0  0  0  0  0  0  0  0  0  0
   26.5455  -18.1636  -16.0365 O   0  0  0  0  0  0  0  0  0  0  0  0
   30.2504  -21.8877  -17.2343 O   0  0  0  0  0  0  0  0  0  0  0  0
   25.0509  -19.4216  -17.2507 N   0  0  0  0  0  0  0  0  0  0  0  0
   23.9049  -18.6208  -16.9981 C   0  0  1  0  0  0  0  0  0  0  0  0
   23.2958  -18.0344  -18.2798 C   0  0  0  0  0  0  0  0  0  0  0  0
   22.1113  -17.1846  -17.9830 C   0  0  0  0  0  0  0  0  0  0  0  0
   21.5235  -16.5862  -19.2145 C   0  0  0  0  0  0  0  0  0  0  0  0
   20.3715  -15.6681  -18.9058 C   0  0  0  0  0  0  0  0  0  0  0  0
   19.7392  -15.2099  -20.1398 N   0  0  0  0  0  0  0  0  0  0  0  0
   22.8186  -19.3323  -16.2936 C   0  0  0  0  0  0  0  0  0  0  0  0
   22.5454  -20.5016  -16.6692 O   0  0  0  0  0  0  0  0  0  0  0  0
   22.0737  -18.7965  -15.2396 N   0  0  0  0  0  0  0  0  0  0  0  0
   20.8949  -19.4911  -14.6287 C   0  0  1  0  0  0  0  0  0  0  0  0
   20.2915  -18.5579  -13.6392 C   0  0  0  0  0  0  0  0  0  0  0  0
   19.1178  -19.0228  -12.8869 C   0  0  0  0  0  0  0  0  0  0  0  0
   18.4092  -18.1230  -11.9875 C   0  0  0  0  0  0  0  0  0  0  0  0
   18.8597  -16.9350  -11.8245 O   0  0  0  0  0  0  0  0  0  0  0  0
   20.0043  -19.7386  -15.7707 C   0  0  0  0  0  0  0  0  0  0  0  0
   19.2505  -20.9400  -15.7795 O   0  0  0  0  0  0  0  0  0  0  0  0
   17.2640  -18.4462  -11.2800 O   0  0  0  0  0  0  0  0  0  0  0  0
   19.8214  -19.0077  -16.7620 O   0  0  0  0  0  0  0  0  0  0  0  0
  2  1  1  6
  2  3  1  0
  3  4  1  0
  5  4  1  0
  6  5  2  0
  7  2  1  0
  7 10  1  0
  8  7  2  0
  9  5  1  0
 11 10  1  0
 11 12  1  6
 13 12  1  0
 13 14  1  0
 15 14  1  0
 16 15  1  0
 17 11  1  0
 18 17  2  0
 19 17  1  0
 20 19  1  0
 20 21  1  1
 22 21  1  0
 23 24  2  0
 23 22  1  0
 25 20  1  0
 25 26  1  0
 27 23  1  0
 28 25  2  0
M  END
$$$$
