EKE.pdb
     RDKit          3D

 28 27  0  0  1  0  0  0  0  0999 V2000
   17.5963  -12.7334  -16.4938 N   0  0  0  0  0  0  0  0  0  0  0  0
   18.2059  -11.6268  -17.2017 C   0  0  1  0  0  0  0  0  0  0  0  0
   17.1936  -10.5544  -17.5333 C   0  0  0  0  0  0  0  0  0  0  0  0
   16.3325  -11.0909  -18.6727 C   0  0  0  0  0  0  0  0  0  0  0  0
   16.9328  -10.7853  -19.9877 C   0  0  0  0  0  0  0  0  0  0  0  0
   16.8295   -9.6363  -20.4564 O   0  0  0  0  0  0  0  0  0  0  0  0
   19.3455  -11.1047  -16.4177 C   0  0  0  0  0  0  0  0  0  0  0  0
   19.1997  -10.7217  -15.2213 O   0  0  0  0  0  0  0  0  0  0  0  0
   17.6084  -11.7464  -20.7125 O   0  0  0  0  0  0  0  0  0  0  0  0
   20.6454  -11.0171  -16.9858 N   0  0  0  0  0  0  0  0  0  0  0  0
   21.8130  -10.5348  -16.3359 C   0  0  1  0  0  0  0  0  0  0  0  0
   23.1067  -11.0838  -16.9544 C   0  0  0  0  0  0  0  0  0  0  0  0
   24.3097  -10.6001  -16.2248 C   0  0  0  0  0  0  0  0  0  0  0  0
   25.5719  -11.1613  -16.7835 C   0  0  0  0  0  0  0  0  0  0  0  0
   26.7722  -10.7985  -15.9511 C   0  0  0  0  0  0  0  0  0  0  0  0
   27.9860  -11.3661  -16.5313 N   0  0  0  0  0  0  0  0  0  0  0  0
   21.9319   -9.0623  -16.3297 C   0  0  0  0  0  0  0  0  0  0  0  0
   22.0159   -8.4775  -17.4406 O   0  0  0  0  0  0  0  0  0  0  0  0
   21.9578   -8.2743  -15.1758 N   0  0  0  0  0  0  0  0  0  0  0  0
   21.9420   -6.7762  -15.2020 C   0  0  1  0  0  0  0  0  0  0  0  0
   20.5787   -6.3523  -15.6211 C   0  0  0  0  0  0  0  0  0  0  0  0
   20.2643   -4.9174  -15.5777 C   0  0  0  0  0  0  0  0  0  0  0  0
   18.9611   -4.4303  -16.0079 C   0  0  0  0  0  0  0  0  0  0  0  0
   18.1333   -5.2606  -16.5241 O   0  0  0  0  0  0  0  0  0  0  0  0
   22.2364   -6.3990  -13.8128 C   0  0  0  0  0  0  0  0  0  0  0  0
   22.5847   -5.0497  -13.5485 O   0  0  0  0  0  0  0  0  0  0  0  0
   18.5283   -3.1195  -15.9023 O   0  0  0  0  0  0  0  0  0  0  0  0
   22.2197   -7.1338  -12.8078 O   0  0  0  0  0  0  0  0  0  0  0  0
  2  1  1  1
  2  3  1  0
  3  4  1  0
  5  4  1  0
  6  5  2  0
  7  2  1  0
  7 10  1  0
  8  7  2  0
  9  5  1  0
 11 10  1  0
 11 12  1  6
 13 12  1  0
 13 14  1  0
 15 14  1  0
 16 15  1  0
 17 11  1  0
 18 17  2  0
 19 17  1  0
 20 19  1  0
 20 21  1  1
 22 21  1  0
 23 24  2  0
 23 22  1  0
 25 20  1  0
 25 26  1  0
 27 23  1  0
 28 25  2  0
M  END
$$$$
