EKE.pdb
     RDKit          3D

 28 27  0  0  1  0  0  0  0  0999 V2000
   24.5433  -12.1433  -16.8200 N   0  0  0  0  0  0  0  0  0  0  0  0
   24.2336  -11.0741  -15.8935 C   0  0  1  0  0  0  0  0  0  0  0  0
   25.3949  -10.1189  -15.7394 C   0  0  0  0  0  0  0  0  0  0  0  0
   25.6750   -9.5311  -17.1191 C   0  0  0  0  0  0  0  0  0  0  0  0
   26.8977   -8.7014  -17.1098 C   0  0  0  0  0  0  0  0  0  0  0  0
   28.0115   -9.2503  -17.2037 O   0  0  0  0  0  0  0  0  0  0  0  0
   22.9939  -10.3915  -16.3214 C   0  0  0  0  0  0  0  0  0  0  0  0
   22.9051   -9.8401  -17.4559 O   0  0  0  0  0  0  0  0  0  0  0  0
   26.8352   -7.3269  -16.9993 O   0  0  0  0  0  0  0  0  0  0  0  0
   21.8586  -10.3340  -15.4681 N   0  0  0  0  0  0  0  0  0  0  0  0
   20.5956   -9.7692  -15.7910 C   0  0  1  0  0  0  0  0  0  0  0  0
   19.4296  -10.4834  -15.0925 C   0  0  0  0  0  0  0  0  0  0  0  0
   18.8062  -11.5051  -15.9762 C   0  0  0  0  0  0  0  0  0  0  0  0
   18.6476  -12.8202  -15.2937 C   0  0  0  0  0  0  0  0  0  0  0  0
   17.9639  -13.8357  -16.1692 C   0  0  0  0  0  0  0  0  0  0  0  0
   18.0306  -15.1615  -15.5608 N   0  0  0  0  0  0  0  0  0  0  0  0
   20.4781   -8.3337  -15.4622 C   0  0  0  0  0  0  0  0  0  0  0  0
   20.9969   -7.9354  -14.3875 O   0  0  0  0  0  0  0  0  0  0  0  0
   19.8304   -7.3882  -16.2620 N   0  0  0  0  0  0  0  0  0  0  0  0
   19.7973   -5.9246  -15.9425 C   0  0  1  0  0  0  0  0  0  0  0  0
   19.2304   -5.2230  -17.1260 C   0  0  0  0  0  0  0  0  0  0  0  0
   19.0520   -3.7670  -17.0382 C   0  0  0  0  0  0  0  0  0  0  0  0
   18.4061   -3.0324  -18.1170 C   0  0  0  0  0  0  0  0  0  0  0  0
   17.3900   -2.3023  -17.8424 O   0  0  0  0  0  0  0  0  0  0  0  0
   18.9116   -5.8417  -14.7732 C   0  0  0  0  0  0  0  0  0  0  0  0
   19.1942   -4.8574  -13.7919 O   0  0  0  0  0  0  0  0  0  0  0  0
   18.8055   -3.0527  -19.4425 O   0  0  0  0  0  0  0  0  0  0  0  0
   17.9154   -6.5462  -14.5252 O   0  0  0  0  0  0  0  0  0  0  0  0
  2  1  1  6
  2  3  1  0
  3  4  1  0
  5  4  1  0
  6  5  2  0
  7  2  1  0
  7 10  1  0
  8  7  2  0
  9  5  1  0
 11 10  1  0
 11 12  1  1
 13 12  1  0
 13 14  1  0
 15 14  1  0
 16 15  1  0
 17 11  1  0
 18 17  2  0
 19 17  1  0
 20 19  1  0
 20 21  1  6
 22 21  1  0
 23 24  2  0
 23 22  1  0
 25 20  1  0
 25 26  1  0
 27 23  1  0
 28 25  2  0
M  END
$$$$
