EKE.pdb
     RDKit          3D

 28 27  0  0  1  0  0  0  0  0999 V2000
   17.8923  -12.3149  -15.7213 N   0  0  0  0  0  0  0  0  0  0  0  0
   18.4718  -11.2157  -16.4652 C   0  0  1  0  0  0  0  0  0  0  0  0
   17.4129  -10.2475  -16.9408 C   0  0  0  0  0  0  0  0  0  0  0  0
   16.5089  -11.0125  -17.9026 C   0  0  0  0  0  0  0  0  0  0  0  0
   17.0477  -10.9883  -19.2782 C   0  0  0  0  0  0  0  0  0  0  0  0
   18.1666  -10.4841  -19.4893 O   0  0  0  0  0  0  0  0  0  0  0  0
   19.5121  -10.5574  -15.6464 C   0  0  0  0  0  0  0  0  0  0  0  0
   19.2477  -10.0846  -14.5037 O   0  0  0  0  0  0  0  0  0  0  0  0
   16.3382  -11.5133  -20.3395 O   0  0  0  0  0  0  0  0  0  0  0  0
   20.8469  -10.4355  -16.1193 N   0  0  0  0  0  0  0  0  0  0  0  0
   21.8921   -9.7010  -15.4977 C   0  0  1  0  0  0  0  0  0  0  0  0
   23.2880  -10.1763  -15.9258 C   0  0  0  0  0  0  0  0  0  0  0  0
   23.5845  -11.5387  -15.4069 C   0  0  0  0  0  0  0  0  0  0  0  0
   24.9474  -12.0038  -15.7895 C   0  0  0  0  0  0  0  0  0  0  0  0
   25.1962  -13.4308  -15.3807 C   0  0  0  0  0  0  0  0  0  0  0  0
   26.5731  -13.8146  -15.6795 N   0  0  0  0  0  0  0  0  0  0  0  0
   21.8375   -8.2467  -15.7519 C   0  0  0  0  0  0  0  0  0  0  0  0
   21.9566   -7.8561  -16.9419 O   0  0  0  0  0  0  0  0  0  0  0  0
   21.6631   -7.2754  -14.7624 N   0  0  0  0  0  0  0  0  0  0  0  0
   21.5547   -5.8104  -15.0575 C   0  0  1  0  0  0  0  0  0  0  0  0
   20.1132   -5.5023  -15.2609 C   0  0  0  0  0  0  0  0  0  0  0  0
   19.7265   -4.0906  -15.3911 C   0  0  0  0  0  0  0  0  0  0  0  0
   18.3228   -3.7093  -15.4600 C   0  0  0  0  0  0  0  0  0  0  0  0
   17.4328   -4.6303  -15.4322 O   0  0  0  0  0  0  0  0  0  0  0  0
   22.0927   -5.1695  -13.8499 C   0  0  0  0  0  0  0  0  0  0  0  0
   22.4849   -3.8092  -13.9361 O   0  0  0  0  0  0  0  0  0  0  0  0
   17.8561   -2.4092  -15.5517 O   0  0  0  0  0  0  0  0  0  0  0  0
   22.2543   -5.6827  -12.7271 O   0  0  0  0  0  0  0  0  0  0  0  0
  2  1  1  1
  2  3  1  0
  3  4  1  0
  5  4  1  0
  6  5  2  0
  7  2  1  0
  7 10  1  0
  8  7  2  0
  9  5  1  0
 11 10  1  0
 11 12  1  6
 13 12  1  0
 13 14  1  0
 15 14  1  0
 16 15  1  0
 17 11  1  0
 18 17  2  0
 19 17  1  0
 20 19  1  0
 20 21  1  1
 22 21  1  0
 23 24  2  0
 23 22  1  0
 25 20  1  0
 25 26  1  0
 27 23  1  0
 28 25  2  0
M  END
$$$$
