EKE.pdb
     RDKit          3D

 28 27  0  0  1  0  0  0  0  0999 V2000
   18.9051  -13.8809  -16.3254 N   0  0  0  0  0  0  0  0  0  0  0  0
   20.1089  -13.1136  -16.0810 C   0  0  1  0  0  0  0  0  0  0  0  0
   21.2308  -13.5313  -17.0038 C   0  0  0  0  0  0  0  0  0  0  0  0
   20.5961  -13.8882  -18.3444 C   0  0  0  0  0  0  0  0  0  0  0  0
   21.6092  -14.3715  -19.3052 C   0  0  0  0  0  0  0  0  0  0  0  0
   21.2683  -14.6390  -20.4726 O   0  0  0  0  0  0  0  0  0  0  0  0
   19.8047  -11.6701  -16.1792 C   0  0  0  0  0  0  0  0  0  0  0  0
   20.2471  -10.9686  -17.1338 O   0  0  0  0  0  0  0  0  0  0  0  0
   22.9301  -14.5344  -18.9388 O   0  0  0  0  0  0  0  0  0  0  0  0
   19.0020  -11.0234  -15.2006 N   0  0  0  0  0  0  0  0  0  0  0  0
   18.6136   -9.6568  -15.2054 C   0  0  1  0  0  0  0  0  0  0  0  0
   17.2546   -9.4232  -14.5300 C   0  0  0  0  0  0  0  0  0  0  0  0
   16.1299   -9.8674  -15.3967 C   0  0  0  0  0  0  0  0  0  0  0  0
   14.8007   -9.5511  -14.8023 C   0  0  0  0  0  0  0  0  0  0  0  0
   13.6644   -9.9790  -15.6916 C   0  0  0  0  0  0  0  0  0  0  0  0
   12.3879   -9.8206  -15.0005 N   0  0  0  0  0  0  0  0  0  0  0  0
   19.5808   -8.7554  -14.5463 C   0  0  0  0  0  0  0  0  0  0  0  0
   20.0571   -9.1172  -13.4394 O   0  0  0  0  0  0  0  0  0  0  0  0
   20.0027   -7.5289  -15.0668 N   0  0  0  0  0  0  0  0  0  0  0  0
   21.0676   -6.6880  -14.4312 C   0  0  1  0  0  0  0  0  0  0  0  0
   22.1498   -6.5051  -15.4360 C   0  0  0  0  0  0  0  0  0  0  0  0
   23.2550   -5.5988  -15.0947 C   0  0  0  0  0  0  0  0  0  0  0  0
   24.2930   -5.2947  -16.0698 C   0  0  0  0  0  0  0  0  0  0  0  0
   24.2837   -5.9130  -17.1917 O   0  0  0  0  0  0  0  0  0  0  0  0
   20.3799   -5.4269  -14.1227 C   0  0  0  0  0  0  0  0  0  0  0  0
   20.9502   -4.5808  -13.1375 O   0  0  0  0  0  0  0  0  0  0  0  0
   25.3096   -4.3730  -15.8867 O   0  0  0  0  0  0  0  0  0  0  0  0
   19.3287   -4.9928  -14.6295 O   0  0  0  0  0  0  0  0  0  0  0  0
  2  1  1  6
  2  3  1  0
  3  4  1  0
  5  4  1  0
  6  5  2  0
  7  2  1  0
  7 10  1  0
  8  7  2  0
  9  5  1  0
 11 10  1  0
 11 12  1  1
 13 12  1  0
 13 14  1  0
 15 14  1  0
 16 15  1  0
 17 11  1  0
 18 17  2  0
 19 17  1  0
 20 19  1  0
 20 21  1  6
 22 21  1  0
 23 24  2  0
 23 22  1  0
 25 20  1  0
 25 26  1  0
 27 23  1  0
 28 25  2  0
M  END
$$$$
