GVV.pdb
     RDKit          3D

 19 18  0  0  1  0  0  0  0  0999 V2000
   21.8039  -21.1962  -10.5230 N   0  0  0  0  0  0  0  0  0  0  0  0
   22.7389  -20.1241  -10.2621 C   0  0  0  0  0  0  0  0  0  0  0  0
   23.9793  -20.6748   -9.5825 C   0  0  0  0  0  0  0  0  0  0  0  0
   23.7724  -21.5177   -8.7110 O   0  0  0  0  0  0  0  0  0  0  0  0
   27.3018  -21.6401  -11.4402 C   0  0  0  0  0  0  0  0  0  0  0  0
   27.6776  -20.7235  -10.3191 C   0  0  2  0  0  0  0  0  0  0  0  0
   28.8383  -21.3020   -9.5793 C   0  0  0  0  0  0  0  0  0  0  0  0
   26.5121  -20.5255   -9.3946 C   0  0  2  0  0  0  0  0  0  0  0  0
   25.2520  -20.2189   -9.9609 N   0  0  0  0  0  0  0  0  0  0  0  0
   26.8187  -19.8072   -8.1475 C   0  0  0  0  0  0  0  0  0  0  0  0
   26.5559  -18.5818   -7.9448 O   0  0  0  0  0  0  0  0  0  0  0  0
   29.6656  -21.2534   -5.1340 C   0  0  0  0  0  0  0  0  0  0  0  0
   28.2763  -20.8099   -4.7965 C   0  0  1  0  0  0  0  0  0  0  0  0
   28.2813  -20.1542   -3.4339 C   0  0  0  0  0  0  0  0  0  0  0  0
   27.7280  -19.8177   -5.8000 C   0  0  2  0  0  0  0  0  0  0  0  0
   27.4462  -20.4724   -7.0667 N   0  0  0  0  0  0  0  0  0  0  0  0
   28.7040  -18.7185   -5.9628 C   0  0  0  0  0  0  0  0  0  0  0  0
   28.7601  -17.7022   -5.0462 O   0  0  0  0  0  0  0  0  0  0  0  0
   29.4839  -18.7134   -6.9416 O   0  0  0  0  0  0  0  0  0  0  0  0
  1  2  1  0
  3  2  1  0
  3  4  2  0
  6  5  1  6
  6  8  1  0
  7  6  1  0
  8  9  1  6
  9  3  1  0
 10  8  1  0
 11 10  2  0
 13 12  1  6
 13 14  1  0
 15 16  1  6
 15 13  1  0
 16 10  1  0
 17 15  1  0
 18 17  1  0
 19 17  2  0
M  END
$$$$
