GVV.pdb
     RDKit          3D

 19 18  0  0  1  0  0  0  0  0999 V2000
   32.3955  -11.6559  -18.1269 N   0  0  0  0  0  0  0  0  0  0  0  0
   33.7351  -11.1114  -18.1033 C   0  0  0  0  0  0  0  0  0  0  0  0
   33.8338  -10.0287  -17.0442 C   0  0  0  0  0  0  0  0  0  0  0  0
   32.7636   -9.6715  -16.5545 O   0  0  0  0  0  0  0  0  0  0  0  0
   36.2197  -10.2956  -14.0823 C   0  0  0  0  0  0  0  0  0  0  0  0
   36.4944   -8.9563  -14.6900 C   0  0  2  0  0  0  0  0  0  0  0  0
   36.5960   -7.9358  -13.6049 C   0  0  0  0  0  0  0  0  0  0  0  0
   35.4058   -8.5888  -15.6555 C   0  0  2  0  0  0  0  0  0  0  0  0
   35.0859   -9.5051  -16.6854 N   0  0  0  0  0  0  0  0  0  0  0  0
   35.3797   -7.1741  -16.0591 C   0  0  0  0  0  0  0  0  0  0  0  0
   36.2246   -6.6374  -16.8400 O   0  0  0  0  0  0  0  0  0  0  0  0
   32.2345   -5.5112  -17.4381 C   0  0  0  0  0  0  0  0  0  0  0  0
   32.7828   -4.6253  -16.3631 C   0  0  1  0  0  0  0  0  0  0  0  0
   31.9674   -4.8104  -15.1030 C   0  0  0  0  0  0  0  0  0  0  0  0
   34.2299   -4.9346  -16.0432 C   0  0  2  0  0  0  0  0  0  0  0  0
   34.3707   -6.3047  -15.5790 N   0  0  0  0  0  0  0  0  0  0  0  0
   34.7100   -3.9673  -15.0326 C   0  0  0  0  0  0  0  0  0  0  0  0
   35.1850   -2.7421  -15.4190 O   0  0  0  0  0  0  0  0  0  0  0  0
   34.6836   -4.2663  -13.8176 O   0  0  0  0  0  0  0  0  0  0  0  0
  1  2  1  0
  3  2  1  0
  3  4  2  0
  6  5  1  1
  6  8  1  0
  7  6  1  0
  8  9  1  6
  9  3  1  0
 10  8  1  0
 11 10  2  0
 13 12  1  6
 13 14  1  0
 15 16  1  1
 15 13  1  0
 16 10  1  0
 17 15  1  0
 18 17  1  0
 19 17  2  0
M  END
$$$$
