GVV.pdb
     RDKit          3D

 19 18  0  0  1  0  0  0  0  0999 V2000
   25.2412  -16.3107  -17.7301 N   0  0  0  0  0  0  0  0  0  0  0  0
   25.5758  -16.2354  -16.3251 C   0  0  0  0  0  0  0  0  0  0  0  0
   25.5896  -17.6283  -15.7223 C   0  0  0  0  0  0  0  0  0  0  0  0
   24.5234  -18.2385  -15.7814 O   0  0  0  0  0  0  0  0  0  0  0  0
   28.4404  -20.3079  -16.2352 C   0  0  0  0  0  0  0  0  0  0  0  0
   28.2519  -20.1143  -14.7638 C   0  0  2  0  0  0  0  0  0  0  0  0
   28.2349  -21.4470  -14.0908 C   0  0  0  0  0  0  0  0  0  0  0  0
   26.9741  -19.3745  -14.4948 C   0  0  2  0  0  0  0  0  0  0  0  0
   26.7657  -18.1371  -15.1490 N   0  0  0  0  0  0  0  0  0  0  0  0
   26.5066  -19.4210  -13.1004 C   0  0  0  0  0  0  0  0  0  0  0  0
   27.0341  -18.7692  -12.1471 O   0  0  0  0  0  0  0  0  0  0  0  0
   23.1545  -22.0116  -11.9004 C   0  0  0  0  0  0  0  0  0  0  0  0
   23.4054  -20.6273  -11.3888 C   0  0  1  0  0  0  0  0  0  0  0  0
   22.8828  -20.5182   -9.9740 C   0  0  0  0  0  0  0  0  0  0  0  0
   24.8774  -20.2734  -11.3809 C   0  0  2  0  0  0  0  0  0  0  0  0
   25.4004  -20.2260  -12.7362 N   0  0  0  0  0  0  0  0  0  0  0  0
   25.5998  -21.2652  -10.5551 C   0  0  0  0  0  0  0  0  0  0  0  0
   25.8035  -21.0363   -9.2201 O   0  0  0  0  0  0  0  0  0  0  0  0
   26.0284  -22.3198  -11.0752 O   0  0  0  0  0  0  0  0  0  0  0  0
  1  2  1  0
  3  2  1  0
  3  4  2  0
  6  5  1  6
  6  8  1  0
  7  6  1  0
  8  9  1  1
  9  3  1  0
 10  8  1  0
 11 10  2  0
 13 12  1  1
 13 14  1  0
 15 16  1  6
 15 13  1  0
 16 10  1  0
 17 15  1  0
 18 17  1  0
 19 17  2  0
M  END
$$$$
