GVV.pdb
     RDKit          3D

 19 18  0  0  1  0  0  0  0  0999 V2000
   19.4623  -15.4442  -17.4898 N   0  0  0  0  0  0  0  0  0  0  0  0
   19.2795  -14.7033  -16.2613 C   0  0  0  0  0  0  0  0  0  0  0  0
   19.2991  -13.2132  -16.5492 C   0  0  0  0  0  0  0  0  0  0  0  0
   20.1307  -12.8477  -17.3783 O   0  0  0  0  0  0  0  0  0  0  0  0
   16.3981  -10.9000  -17.5375 C   0  0  0  0  0  0  0  0  0  0  0  0
   16.9454  -10.3569  -16.2554 C   0  0  2  0  0  0  0  0  0  0  0  0
   17.0350   -8.8695  -16.3501 C   0  0  0  0  0  0  0  0  0  0  0  0
   18.2962  -10.9470  -15.9737 C   0  0  2  0  0  0  0  0  0  0  0  0
   18.4075  -12.3551  -15.8864 N   0  0  0  0  0  0  0  0  0  0  0  0
   19.1131  -10.2027  -15.0023 C   0  0  0  0  0  0  0  0  0  0  0  0
   18.8469  -10.1125  -13.7642 O   0  0  0  0  0  0  0  0  0  0  0  0
   22.9430  -10.5259  -14.5560 C   0  0  0  0  0  0  0  0  0  0  0  0
   22.5965   -9.0848  -14.7667 C   0  0  1  0  0  0  0  0  0  0  0  0
   22.8903   -8.7079  -16.2014 C   0  0  0  0  0  0  0  0  0  0  0  0
   21.1367   -8.7961  -14.4882 C   0  0  2  0  0  0  0  0  0  0  0  0
   20.2846   -9.5230  -15.4146 N   0  0  0  0  0  0  0  0  0  0  0  0
   20.9156   -7.3366  -14.5790 C   0  0  0  0  0  0  0  0  0  0  0  0
   21.3098   -6.5127  -13.5582 O   0  0  0  0  0  0  0  0  0  0  0  0
   20.3661   -6.8483  -15.5919 O   0  0  0  0  0  0  0  0  0  0  0  0
  1  2  1  0
  3  2  1  0
  3  4  2  0
  6  5  1  6
  6  8  1  0
  7  6  1  0
  8  9  1  1
  9  3  1  0
 10  8  1  0
 11 10  2  0
 13 12  1  6
 13 14  1  0
 15 16  1  6
 15 13  1  0
 16 10  1  0
 17 15  1  0
 18 17  1  0
 19 17  2  0
M  END
$$$$
