GVV.pdb
     RDKit          3D

 19 18  0  0  1  0  0  0  0  0999 V2000
   21.6590  -20.5463  -16.9106 N   0  0  0  0  0  0  0  0  0  0  0  0
   22.6782  -19.5744  -16.5816 C   0  0  0  0  0  0  0  0  0  0  0  0
   23.7259  -20.2083  -15.6848 C   0  0  0  0  0  0  0  0  0  0  0  0
   23.3256  -21.1320  -14.9782 O   0  0  0  0  0  0  0  0  0  0  0  0
   27.5816  -20.7960  -16.7512 C   0  0  0  0  0  0  0  0  0  0  0  0
   27.5201  -20.0412  -15.4610 C   0  0  2  0  0  0  0  0  0  0  0  0
   28.5161  -20.6148  -14.5079 C   0  0  0  0  0  0  0  0  0  0  0  0
   26.1378  -20.1121  -14.8809 C   0  0  2  0  0  0  0  0  0  0  0  0
   25.0472  -19.7344  -15.6998 N   0  0  0  0  0  0  0  0  0  0  0  0
   26.0276  -19.6919  -13.4751 C   0  0  0  0  0  0  0  0  0  0  0  0
   26.1286  -18.4904  -13.0777 O   0  0  0  0  0  0  0  0  0  0  0  0
   23.2741  -20.2034  -11.0528 C   0  0  0  0  0  0  0  0  0  0  0  0
   24.4932  -20.7667  -10.3914 C   0  0  1  0  0  0  0  0  0  0  0  0
   24.4499  -22.2761  -10.4727 C   0  0  0  0  0  0  0  0  0  0  0  0
   25.7744  -20.2916  -11.0432 C   0  0  2  0  0  0  0  0  0  0  0  0
   25.7931  -20.6434  -12.4533 N   0  0  0  0  0  0  0  0  0  0  0  0
   26.9219  -20.8826  -10.3213 C   0  0  0  0  0  0  0  0  0  0  0  0
   27.1981  -20.5044   -9.0341 O   0  0  0  0  0  0  0  0  0  0  0  0
   27.6463  -21.7327  -10.8860 O   0  0  0  0  0  0  0  0  0  0  0  0
  1  2  1  0
  3  2  1  0
  3  4  2  0
  6  5  1  6
  6  8  1  0
  7  6  1  0
  8  9  1  6
  9  3  1  0
 10  8  1  0
 11 10  2  0
 13 12  1  6
 13 14  1  0
 15 16  1  6
 15 13  1  0
 16 10  1  0
 17 15  1  0
 18 17  1  0
 19 17  2  0
M  END
$$$$
