GVV.pdb
     RDKit          3D

 19 18  0  0  1  0  0  0  0  0999 V2000
   16.3502  -14.2293  -16.5588 N   0  0  0  0  0  0  0  0  0  0  0  0
   16.2829  -12.9057  -15.9799 C   0  0  0  0  0  0  0  0  0  0  0  0
   17.4739  -12.0821  -16.4350 C   0  0  0  0  0  0  0  0  0  0  0  0
   18.4771  -12.7273  -16.7347 O   0  0  0  0  0  0  0  0  0  0  0  0
   17.6324   -9.6454  -19.2874 C   0  0  0  0  0  0  0  0  0  0  0  0
   17.9832   -8.8399  -18.0765 C   0  0  2  0  0  0  0  0  0  0  0  0
   19.1215   -7.9308  -18.4036 C   0  0  0  0  0  0  0  0  0  0  0  0
   18.3457   -9.7449  -16.9355 C   0  0  2  0  0  0  0  0  0  0  0  0
   17.3830  -10.6823  -16.4915 N   0  0  0  0  0  0  0  0  0  0  0  0
   19.1326   -9.1148  -15.8636 C   0  0  0  0  0  0  0  0  0  0  0  0
   18.6474   -8.3457  -14.9777 O   0  0  0  0  0  0  0  0  0  0  0  0
   22.2512  -11.0097  -14.0900 C   0  0  0  0  0  0  0  0  0  0  0  0
   22.5796   -9.5986  -14.4668 C   0  0  1  0  0  0  0  0  0  0  0  0
   23.4033   -9.6020  -15.7350 C   0  0  0  0  0  0  0  0  0  0  0  0
   21.3404   -8.7625  -14.7064 C   0  0  2  0  0  0  0  0  0  0  0  0
   20.5259   -9.3437  -15.7607 N   0  0  0  0  0  0  0  0  0  0  0  0
   21.7557   -7.3828  -15.0400 C   0  0  0  0  0  0  0  0  0  0  0  0
   22.1130   -6.5092  -14.0473 O   0  0  0  0  0  0  0  0  0  0  0  0
   21.7821   -7.0081  -16.2338 O   0  0  0  0  0  0  0  0  0  0  0  0
  1  2  1  0
  3  2  1  0
  3  4  2  0
  6  5  1  6
  6  8  1  0
  7  6  1  0
  8  9  1  1
  9  3  1  0
 10  8  1  0
 11 10  2  0
 13 12  1  6
 13 14  1  0
 15 16  1  6
 15 13  1  0
 16 10  1  0
 17 15  1  0
 18 17  1  0
 19 17  2  0
M  END
$$$$
