GVV.pdb
     RDKit          3D

 19 18  0  0  1  0  0  0  0  0999 V2000
   14.9925  -14.3986  -14.8864 N   0  0  0  0  0  0  0  0  0  0  0  0
   15.4351  -13.1765  -14.2522 C   0  0  0  0  0  0  0  0  0  0  0  0
   16.6419  -12.6215  -14.9865 C   0  0  0  0  0  0  0  0  0  0  0  0
   17.2764  -13.4392  -15.6509 O   0  0  0  0  0  0  0  0  0  0  0  0
   16.7303   -8.6529  -16.5538 C   0  0  0  0  0  0  0  0  0  0  0  0
   17.6033   -9.8343  -16.8373 C   0  0  2  0  0  0  0  0  0  0  0  0
   16.8830  -10.7697  -17.7512 C   0  0  0  0  0  0  0  0  0  0  0  0
   17.9713  -10.5292  -15.5590 C   0  0  2  0  0  0  0  0  0  0  0  0
   16.9673  -11.2600  -14.8804 N   0  0  0  0  0  0  0  0  0  0  0  0
   18.8885   -9.7827  -14.6835 C   0  0  0  0  0  0  0  0  0  0  0  0
   18.5421   -9.2163  -13.6015 O   0  0  0  0  0  0  0  0  0  0  0  0
   22.4319  -11.0211  -13.5609 C   0  0  0  0  0  0  0  0  0  0  0  0
   22.5378   -9.6458  -14.1424 C   0  0  1  0  0  0  0  0  0  0  0  0
   23.0647   -9.7436  -15.5564 C   0  0  0  0  0  0  0  0  0  0  0  0
   21.2036   -8.9313  -14.1800 C   0  0  2  0  0  0  0  0  0  0  0  0
   20.2588   -9.6537  -15.0156 N   0  0  0  0  0  0  0  0  0  0  0  0
   21.4171   -7.5523  -14.6700 C   0  0  0  0  0  0  0  0  0  0  0  0
   21.9464   -6.5984  -13.8417 O   0  0  0  0  0  0  0  0  0  0  0  0
   21.1139   -7.2518  -15.8465 O   0  0  0  0  0  0  0  0  0  0  0  0
  1  2  1  0
  3  2  1  0
  3  4  2  0
  6  5  1  1
  6  8  1  0
  7  6  1  0
  8  9  1  1
  9  3  1  0
 10  8  1  0
 11 10  2  0
 13 12  1  6
 13 14  1  0
 15 16  1  6
 15 13  1  0
 16 10  1  0
 17 15  1  0
 18 17  1  0
 19 17  2  0
M  END
$$$$
