QWE.pdb
     RDKit          3D

 33 34  0  0  1  0  0  0  0  0999 V2000
   25.9947  -21.5455  -19.5949 N   0  0  0  0  0  0  0  0  0  0  0  0
   27.2741  -22.2207  -19.6303 C   0  0  0  0  0  0  0  0  0  0  0  0
   27.8628  -22.2599  -20.7375 O   0  0  0  0  0  0  0  0  0  0  0  0
   27.8456  -22.8239  -18.4248 C   0  0  0  0  0  0  0  0  0  0  0  0
   26.9750  -22.6895  -17.2359 C   0  0  0  0  0  0  0  0  0  0  0  0
   27.5301  -21.7172  -16.2314 C   0  0  2  0  0  0  0  0  0  0  0  0
   28.8925  -22.0807  -15.8905 N   0  0  0  0  0  0  0  0  0  0  0  0
   26.6489  -21.8091  -15.0080 C   0  0  0  0  0  0  0  0  0  0  0  0
   25.9583  -22.8367  -14.8014 O   0  0  0  0  0  0  0  0  0  0  0  0
   26.5640  -20.7577  -14.0549 N   0  0  0  0  0  0  0  0  0  0  0  0
   25.7178  -20.8607  -12.8702 C   0  0  1  0  0  0  0  0  0  0  0  0
   26.1271  -19.8282  -11.8352 C   0  0  0  0  0  0  0  0  0  0  0  0
   27.2749  -20.3488  -11.0654 C   0  0  0  0  0  0  0  0  0  0  0  0
   28.4298  -20.9027  -11.6194 C   0  0  0  0  0  0  0  0  0  0  0  0
   29.2580  -21.2678  -10.6368 N   0  0  0  0  0  0  0  0  0  0  0  0
   28.7017  -20.9792   -9.4328 C   0  0  0  0  0  0  0  0  0  0  0  0
   29.1123  -21.1410   -8.1270 C   0  0  0  0  0  0  0  0  0  0  0  0
   28.2935  -20.7334   -7.0996 C   0  0  0  0  0  0  0  0  0  0  0  0
   27.0615  -20.1620   -7.3457 C   0  0  0  0  0  0  0  0  0  0  0  0
   26.6555  -20.0025   -8.6502 C   0  0  0  0  0  0  0  0  0  0  0  0
   27.4674  -20.4074   -9.7025 C   0  0  0  0  0  0  0  0  0  0  0  0
   24.3168  -20.7239  -13.2764 C   0  0  0  0  0  0  0  0  0  0  0  0
   23.9997  -19.6964  -13.9358 O   0  0  0  0  0  0  0  0  0  0  0  0
   23.2908  -21.6537  -12.9871 N   0  0  0  0  0  0  0  0  0  0  0  0
   21.9346  -21.3432  -13.2980 C   0  0  1  0  0  0  0  0  0  0  0  0
   20.9982  -22.5150  -13.0972 C   0  0  0  0  0  0  0  0  0  0  0  0
   19.5779  -22.2173  -13.4535 C   0  0  0  0  0  0  0  0  0  0  0  0
   18.7967  -23.4585  -13.3224 C   0  0  0  0  0  0  0  0  0  0  0  0
   19.3829  -24.5451  -13.1735 O   0  0  0  0  0  0  0  0  0  0  0  0
   21.4351  -20.1447  -12.5628 C   0  0  0  0  0  0  0  0  0  0  0  0
   20.6579  -19.2361  -13.2733 O   0  0  0  0  0  0  0  0  0  0  0  0
   17.4232  -23.4196  -13.3639 O   0  0  0  0  0  0  0  0  0  0  0  0
   21.6775  -19.9214  -11.3585 O   0  0  0  0  0  0  0  0  0  0  0  0
  1  2  1  0
  2  3  2  0
  4  5  1  0
  4  2  1  0
  5  6  1  0
  6  7  1  1
  8  9  2  0
  8  6  1  0
 10  8  1  0
 11 10  1  0
 11 12  1  1
 12 13  1  0
 13 14  2  0
 13 21  1  0
 14 15  1  0
 15 16  1  0
 16 17  2  0
 18 17  1  0
 19 18  2  0
 20 21  2  0
 20 19  1  0
 21 16  1  0
 22 11  1  0
 23 22  2  0
 24 22  1  0
 25 24  1  0
 25 26  1  1
 26 27  1  0
 28 32  1  0
 28 27  1  0
 29 28  2  0
 30 31  1  0
 30 25  1  0
 33 30  2  0
M  END
$$$$
