QWE.pdb
     RDKit          3D

 33 34  0  0  1  0  0  0  0  0999 V2000
   27.2601  -19.1337  -17.3744 N   0  0  0  0  0  0  0  0  0  0  0  0
   27.7665  -20.1922  -18.2212 C   0  0  0  0  0  0  0  0  0  0  0  0
   28.4331  -19.8436  -19.2252 O   0  0  0  0  0  0  0  0  0  0  0  0
   27.5088  -21.5995  -17.9102 C   0  0  0  0  0  0  0  0  0  0  0  0
   26.7732  -21.7916  -16.6407 C   0  0  0  0  0  0  0  0  0  0  0  0
   27.6298  -21.5050  -15.4379 C   0  0  2  0  0  0  0  0  0  0  0  0
   28.7285  -22.4503  -15.3757 N   0  0  0  0  0  0  0  0  0  0  0  0
   26.7415  -21.6642  -14.2267 C   0  0  0  0  0  0  0  0  0  0  0  0
   25.9355  -22.6238  -14.1549 O   0  0  0  0  0  0  0  0  0  0  0  0
   26.7777  -20.7533  -13.1358 N   0  0  0  0  0  0  0  0  0  0  0  0
   25.8354  -20.8465  -12.0252 C   0  0  1  0  0  0  0  0  0  0  0  0
   26.2432  -19.9073  -10.9041 C   0  0  0  0  0  0  0  0  0  0  0  0
   27.4298  -20.4614  -10.2213 C   0  0  0  0  0  0  0  0  0  0  0  0
   28.4771  -21.1362  -10.8498 C   0  0  0  0  0  0  0  0  0  0  0  0
   29.3804  -21.4974   -9.9342 N   0  0  0  0  0  0  0  0  0  0  0  0
   28.9793  -21.0891   -8.7035 C   0  0  0  0  0  0  0  0  0  0  0  0
   29.5174  -21.1951   -7.4390 C   0  0  0  0  0  0  0  0  0  0  0  0
   28.8448  -20.6602   -6.3650 C   0  0  0  0  0  0  0  0  0  0  0  0
   27.6352  -20.0148   -6.5233 C   0  0  0  0  0  0  0  0  0  0  0  0
   27.1016  -19.9112   -7.7868 C   0  0  0  0  0  0  0  0  0  0  0  0
   27.7648  -20.4446   -8.8850 C   0  0  0  0  0  0  0  0  0  0  0  0
   24.4861  -20.5713  -12.5253 C   0  0  0  0  0  0  0  0  0  0  0  0
   24.3718  -19.7313  -13.4594 O   0  0  0  0  0  0  0  0  0  0  0  0
   23.3006  -21.1736  -12.0430 N   0  0  0  0  0  0  0  0  0  0  0  0
   22.0578  -20.9347  -12.6995 C   0  0  1  0  0  0  0  0  0  0  0  0
   21.8082  -21.8790  -13.8554 C   0  0  0  0  0  0  0  0  0  0  0  0
   20.5101  -21.6410  -14.5563 C   0  0  0  0  0  0  0  0  0  0  0  0
   20.5628  -22.3059  -15.8690 C   0  0  0  0  0  0  0  0  0  0  0  0
   21.1225  -23.4109  -15.9803 O   0  0  0  0  0  0  0  0  0  0  0  0
   20.8990  -20.9433  -11.7597 C   0  0  0  0  0  0  0  0  0  0  0  0
   21.1490  -21.2997  -10.4387 O   0  0  0  0  0  0  0  0  0  0  0  0
   19.9959  -21.7098  -16.9703 O   0  0  0  0  0  0  0  0  0  0  0  0
   19.7330  -20.6504  -12.0968 O   0  0  0  0  0  0  0  0  0  0  0  0
  1  2  1  0
  2  3  2  0
  4  5  1  0
  4  2  1  0
  5  6  1  0
  6  7  1  1
  8  9  2  0
  8  6  1  0
 10  8  1  0
 11 10  1  0
 11 12  1  1
 12 13  1  0
 13 14  2  0
 13 21  1  0
 14 15  1  0
 15 16  1  0
 16 17  2  0
 18 17  1  0
 19 18  2  0
 20 21  2  0
 20 19  1  0
 21 16  1  0
 22 11  1  0
 23 22  2  0
 24 22  1  0
 25 24  1  0
 25 26  1  6
 26 27  1  0
 28 32  1  0
 28 27  1  0
 29 28  2  0
 30 31  1  0
 30 25  1  0
 33 30  2  0
M  END
$$$$
