QWE.pdb
     RDKit          3D

 33 34  0  0  1  0  0  0  0  0999 V2000
   25.9092  -17.0019  -14.2237 N   0  0  0  0  0  0  0  0  0  0  0  0
   26.3870  -17.2087  -15.5739 C   0  0  0  0  0  0  0  0  0  0  0  0
   25.7232  -16.6776  -16.4965 O   0  0  0  0  0  0  0  0  0  0  0  0
   27.5901  -17.9999  -15.8386 C   0  0  0  0  0  0  0  0  0  0  0  0
   28.2485  -18.4907  -14.6076 C   0  0  0  0  0  0  0  0  0  0  0  0
   28.4962  -19.9739  -14.6476 C   0  0  2  0  0  0  0  0  0  0  0  0
   28.5711  -20.4267  -16.0238 N   0  0  0  0  0  0  0  0  0  0  0  0
   27.3254  -20.6267  -13.9515 C   0  0  0  0  0  0  0  0  0  0  0  0
   26.3247  -20.9993  -14.6112 O   0  0  0  0  0  0  0  0  0  0  0  0
   27.3048  -20.8443  -12.5467 N   0  0  0  0  0  0  0  0  0  0  0  0
   26.2660  -21.6466  -11.9085 C   0  0  1  0  0  0  0  0  0  0  0  0
   26.7653  -22.2076  -10.5891 C   0  0  0  0  0  0  0  0  0  0  0  0
   26.7092  -21.1459   -9.5640 C   0  0  0  0  0  0  0  0  0  0  0  0
   25.6815  -20.2115   -9.4295 C   0  0  0  0  0  0  0  0  0  0  0  0
   25.9532  -19.4032   -8.4011 N   0  0  0  0  0  0  0  0  0  0  0  0
   27.1333  -19.7593   -7.8330 C   0  0  0  0  0  0  0  0  0  0  0  0
   27.8664  -19.2768   -6.7701 C   0  0  0  0  0  0  0  0  0  0  0  0
   29.0589  -19.8758   -6.4369 C   0  0  0  0  0  0  0  0  0  0  0  0
   29.5434  -20.9564   -7.1457 C   0  0  0  0  0  0  0  0  0  0  0  0
   28.8088  -21.4348   -8.2056 C   0  0  0  0  0  0  0  0  0  0  0  0
   27.6018  -20.8443   -8.5588 C   0  0  0  0  0  0  0  0  0  0  0  0
   25.0638  -20.8243  -11.7500 C   0  0  0  0  0  0  0  0  0  0  0  0
   25.2232  -19.6192  -11.4134 O   0  0  0  0  0  0  0  0  0  0  0  0
   23.7374  -21.2756  -11.9447 N   0  0  0  0  0  0  0  0  0  0  0  0
   22.7334  -20.3720  -12.4009 C   0  0  1  0  0  0  0  0  0  0  0  0
   23.0808  -19.7188  -13.7210 C   0  0  0  0  0  0  0  0  0  0  0  0
   22.4422  -20.3743  -14.9023 C   0  0  0  0  0  0  0  0  0  0  0  0
   22.0926  -19.3301  -15.8798 C   0  0  0  0  0  0  0  0  0  0  0  0
   21.0111  -19.3923  -16.4907 O   0  0  0  0  0  0  0  0  0  0  0  0
   21.3817  -21.0000  -12.4697 C   0  0  0  0  0  0  0  0  0  0  0  0
   21.3230  -22.3667  -12.7213 O   0  0  0  0  0  0  0  0  0  0  0  0
   22.9568  -18.2881  -16.1186 O   0  0  0  0  0  0  0  0  0  0  0  0
   20.3164  -20.3673  -12.3146 O   0  0  0  0  0  0  0  0  0  0  0  0
  1  2  1  0
  2  3  2  0
  4  5  1  0
  4  2  1  0
  5  6  1  0
  6  7  1  6
  8  9  2  0
  8  6  1  0
 10  8  1  0
 11 10  1  0
 11 12  1  1
 12 13  1  0
 13 14  2  0
 13 21  1  0
 14 15  1  0
 15 16  1  0
 16 17  2  0
 18 17  1  0
 19 18  2  0
 20 21  2  0
 20 19  1  0
 21 16  1  0
 22 11  1  0
 23 22  2  0
 24 22  1  0
 25 24  1  0
 25 26  1  6
 26 27  1  0
 28 32  1  0
 28 27  1  0
 29 28  2  0
 30 31  1  0
 30 25  1  0
 33 30  2  0
M  END
$$$$
