QWE.pdb
     RDKit          3D

 33 34  0  0  1  0  0  0  0  0999 V2000
   19.5665  -19.6490  -13.2249 N   0  0  0  0  0  0  0  0  0  0  0  0
   20.4938  -19.6224  -14.3355 C   0  0  0  0  0  0  0  0  0  0  0  0
   20.1887  -18.8934  -15.3099 O   0  0  0  0  0  0  0  0  0  0  0  0
   21.7271  -20.4110  -14.3113 C   0  0  0  0  0  0  0  0  0  0  0  0
   21.9308  -21.1373  -13.0384 C   0  0  0  0  0  0  0  0  0  0  0  0
   22.4232  -20.2344  -11.9407 C   0  0  2  0  0  0  0  0  0  0  0  0
   23.7228  -19.6929  -12.2902 N   0  0  0  0  0  0  0  0  0  0  0  0
   22.5350  -21.0858  -10.6980 C   0  0  0  0  0  0  0  0  0  0  0  0
   22.3787  -22.3294  -10.7669 O   0  0  0  0  0  0  0  0  0  0  0  0
   22.8169  -20.5286   -9.4209 N   0  0  0  0  0  0  0  0  0  0  0  0
   22.9306  -21.3609   -8.2274 C   0  0  1  0  0  0  0  0  0  0  0  0
   23.5584  -20.5744   -7.0906 C   0  0  0  0  0  0  0  0  0  0  0  0
   24.9944  -20.3808   -7.3765 C   0  0  0  0  0  0  0  0  0  0  0  0
   25.5670  -20.3728   -8.6490 C   0  0  0  0  0  0  0  0  0  0  0  0
   26.8832  -20.1724   -8.5383 N   0  0  0  0  0  0  0  0  0  0  0  0
   27.2224  -20.0441   -7.2304 C   0  0  0  0  0  0  0  0  0  0  0  0
   28.4120  -19.8290   -6.5683 C   0  0  0  0  0  0  0  0  0  0  0  0
   28.4225  -19.7451   -5.1954 C   0  0  0  0  0  0  0  0  0  0  0  0
   27.2623  -19.8718   -4.4586 C   0  0  0  0  0  0  0  0  0  0  0  0
   26.0773  -20.0863   -5.1231 C   0  0  0  0  0  0  0  0  0  0  0  0
   26.0449  -20.1743   -6.5093 C   0  0  0  0  0  0  0  0  0  0  0  0
   21.6042  -21.8806   -7.8851 C   0  0  0  0  0  0  0  0  0  0  0  0
   20.6443  -21.0624   -7.8714 O   0  0  0  0  0  0  0  0  0  0  0  0
   21.3149  -23.2285   -7.5684 N   0  0  0  0  0  0  0  0  0  0  0  0
   19.9920  -23.6087   -7.1970 C   0  0  1  0  0  0  0  0  0  0  0  0
   19.8053  -25.1087   -7.1260 C   0  0  0  0  0  0  0  0  0  0  0  0
   18.4108  -25.5255   -6.7875 C   0  0  0  0  0  0  0  0  0  0  0  0
   18.3280  -26.9923   -6.8858 C   0  0  0  0  0  0  0  0  0  0  0  0
   19.3357  -27.6485   -7.2032 O   0  0  0  0  0  0  0  0  0  0  0  0
   19.5434  -22.9667   -5.9270 C   0  0  0  0  0  0  0  0  0  0  0  0
   18.1914  -22.6638   -5.8058 O   0  0  0  0  0  0  0  0  0  0  0  0
   17.1419  -27.6376   -6.6282 O   0  0  0  0  0  0  0  0  0  0  0  0
   20.3117  -22.6924   -4.9818 O   0  0  0  0  0  0  0  0  0  0  0  0
  1  2  1  0
  2  3  2  0
  4  5  1  0
  4  2  1  0
  5  6  1  0
  6  7  1  6
  8  9  2  0
  8  6  1  0
 10  8  1  0
 11 10  1  0
 11 12  1  1
 12 13  1  0
 13 14  2  0
 13 21  1  0
 14 15  1  0
 15 16  1  0
 16 17  2  0
 18 17  1  0
 19 18  2  0
 20 21  2  0
 20 19  1  0
 21 16  1  0
 22 11  1  0
 23 22  2  0
 24 22  1  0
 25 24  1  0
 25 26  1  1
 26 27  1  0
 28 32  1  0
 28 27  1  0
 29 28  2  0
 30 31  1  0
 30 25  1  0
 33 30  2  0
M  END
$$$$
