PAW.pdb
     RDKit          3D

 27 29  0  0  1  0  0  0  0  0999 V2000
   27.7604  -20.4992  -18.9596 N   0  0  0  0  0  0  0  0  0  0  0  0
   28.5568  -19.3044  -19.0444 C   0  0  0  0  0  0  0  0  0  0  0  0
   29.9962  -19.7325  -18.7912 C   0  0  0  0  0  0  0  0  0  0  0  0
   29.9132  -21.2495  -18.6321 C   0  0  0  0  0  0  0  0  0  0  0  0
   28.5030  -21.4073  -18.1080 C   0  0  1  0  0  0  0  0  0  0  0  0
   28.4212  -20.8995  -16.7172 C   0  0  0  0  0  0  0  0  0  0  0  0
   29.0234  -21.4708  -15.7791 O   0  0  0  0  0  0  0  0  0  0  0  0
   26.9278  -17.8715  -14.9565 C   0  0  0  0  0  0  0  0  0  0  0  0
   27.4900  -19.2921  -15.0292 C   0  0  2  0  0  0  0  0  0  0  0  0
   27.6456  -19.7275  -16.3864 N   0  0  0  0  0  0  0  0  0  0  0  0
   26.6546  -20.2276  -14.2286 C   0  0  0  0  0  0  0  0  0  0  0  0
   25.7457  -20.8570  -14.8183 O   0  0  0  0  0  0  0  0  0  0  0  0
   26.8526  -20.4262  -12.8383 N   0  0  0  0  0  0  0  0  0  0  0  0
   26.1247  -21.3282  -11.9970 C   0  0  1  0  0  0  0  0  0  0  0  0
   26.9099  -21.8631  -10.8070 C   0  0  0  0  0  0  0  0  0  0  0  0
   26.7067  -20.9922   -9.6333 C   0  0  0  0  0  0  0  0  0  0  0  0
   25.5995  -20.2937   -9.2463 C   0  0  0  0  0  0  0  0  0  0  0  0
   25.8683  -19.6294   -8.0843 N   0  0  0  0  0  0  0  0  0  0  0  0
   27.1247  -19.8719   -7.6940 C   0  0  0  0  0  0  0  0  0  0  0  0
   27.8644  -19.4417   -6.5969 C   0  0  0  0  0  0  0  0  0  0  0  0
   29.1550  -19.8565   -6.4409 C   0  0  0  0  0  0  0  0  0  0  0  0
   29.6988  -20.6950   -7.3763 C   0  0  0  0  0  0  0  0  0  0  0  0
   28.9662  -21.1200   -8.4614 C   0  0  0  0  0  0  0  0  0  0  0  0
   27.6633  -20.7193   -8.6464 C   0  0  0  0  0  0  0  0  0  0  0  0
   24.7878  -20.8901  -11.6010 C   0  0  0  0  0  0  0  0  0  0  0  0
   23.8169  -21.8654  -11.3215 O   0  0  0  0  0  0  0  0  0  0  0  0
   24.4338  -19.6928  -11.4893 O   0  0  0  0  0  0  0  0  0  0  0  0
  1  2  1  0
  3  2  1  0
  4  5  1  0
  4  3  1  0
  5  6  1  1
  5  1  1  0
  6  7  2  0
  9  8  1  6
  9 11  1  0
 10  9  1  0
 10  6  1  0
 11 13  1  0
 11 12  2  0
 13 14  1  0
 14 25  1  0
 14 15  1  1
 16 15  1  0
 16 17  2  0
 18 17  1  0
 19 18  1  0
 20 19  2  0
 21 20  1  0
 22 21  2  0
 22 23  1  0
 23 24  2  0
 24 19  1  0
 24 16  1  0
 25 27  2  0
 25 26  1  0
M  END
$$$$
