PAW.pdb
     RDKit          3D

 27 29  0  0  1  0  0  0  0  0999 V2000
   27.0170  -18.6419  -15.7716 N   0  0  0  0  0  0  0  0  0  0  0  0
   25.6388  -18.6178  -15.3608 C   0  0  0  0  0  0  0  0  0  0  0  0
   25.5711  -17.6991  -14.1481 C   0  0  0  0  0  0  0  0  0  0  0  0
   27.0009  -17.1862  -13.9868 C   0  0  0  0  0  0  0  0  0  0  0  0
   27.7871  -18.3328  -14.5831 C   0  0  1  0  0  0  0  0  0  0  0  0
   27.7279  -19.5085  -13.6814 C   0  0  0  0  0  0  0  0  0  0  0  0
   26.9427  -20.4592  -13.9019 O   0  0  0  0  0  0  0  0  0  0  0  0
   30.3386  -20.8170  -11.3233 C   0  0  0  0  0  0  0  0  0  0  0  0
   28.9552  -20.8781  -11.9730 C   0  0  2  0  0  0  0  0  0  0  0  0
   28.5712  -19.6068  -12.5136 N   0  0  0  0  0  0  0  0  0  0  0  0
   27.9494  -21.4108  -11.0144 C   0  0  0  0  0  0  0  0  0  0  0  0
   28.1285  -22.5615  -10.5520 O   0  0  0  0  0  0  0  0  0  0  0  0
   26.8105  -20.6666  -10.6136 N   0  0  0  0  0  0  0  0  0  0  0  0
   25.7918  -21.0971   -9.7036 C   0  0  1  0  0  0  0  0  0  0  0  0
   26.2981  -21.5009   -8.3254 C   0  0  0  0  0  0  0  0  0  0  0  0
   26.8772  -20.3319   -7.6360 C   0  0  0  0  0  0  0  0  0  0  0  0
   26.7943  -19.0055   -7.9479 C   0  0  0  0  0  0  0  0  0  0  0  0
   27.4816  -18.2794   -7.0182 N   0  0  0  0  0  0  0  0  0  0  0  0
   28.0157  -19.0927   -6.1001 C   0  0  0  0  0  0  0  0  0  0  0  0
   28.7885  -18.8492   -4.9690 C   0  0  0  0  0  0  0  0  0  0  0  0
   29.2045  -19.8907   -4.1915 C   0  0  0  0  0  0  0  0  0  0  0  0
   28.8488  -21.1644   -4.5449 C   0  0  0  0  0  0  0  0  0  0  0  0
   28.0843  -21.4042   -5.6641 C   0  0  0  0  0  0  0  0  0  0  0  0
   27.6499  -20.3758   -6.4678 C   0  0  0  0  0  0  0  0  0  0  0  0
   24.6171  -20.2325   -9.6085 C   0  0  0  0  0  0  0  0  0  0  0  0
   23.5580  -20.6280   -8.7755 O   0  0  0  0  0  0  0  0  0  0  0  0
   24.4783  -19.1482  -10.2219 O   0  0  0  0  0  0  0  0  0  0  0  0
  1  2  1  0
  3  2  1  0
  4  5  1  0
  4  3  1  0
  5  6  1  1
  5  1  1  0
  6  7  2  0
  9  8  1  1
  9 11  1  0
 10  9  1  0
 10  6  1  0
 11 13  1  0
 11 12  2  0
 13 14  1  0
 14 25  1  0
 14 15  1  1
 16 15  1  0
 16 17  2  0
 18 17  1  0
 19 18  1  0
 20 19  2  0
 21 20  1  0
 22 21  2  0
 22 23  1  0
 23 24  2  0
 24 19  1  0
 24 16  1  0
 25 27  2  0
 25 26  1  0
M  END
$$$$
