PAW.pdb
     RDKit          3D

 27 29  0  0  1  0  0  0  0  0999 V2000
   26.8753  -17.9238  -16.5751 N   0  0  0  0  0  0  0  0  0  0  0  0
   27.1914  -16.8002  -15.7346 C   0  0  0  0  0  0  0  0  0  0  0  0
   28.4455  -17.1855  -14.9612 C   0  0  0  0  0  0  0  0  0  0  0  0
   28.8087  -18.5675  -15.5014 C   0  0  0  0  0  0  0  0  0  0  0  0
   27.4477  -19.0812  -15.9163 C   0  0  1  0  0  0  0  0  0  0  0  0
   26.6303  -19.3736  -14.7142 C   0  0  0  0  0  0  0  0  0  0  0  0
   25.9280  -18.4885  -14.1734 O   0  0  0  0  0  0  0  0  0  0  0  0
   24.7336  -22.1903  -13.6389 C   0  0  0  0  0  0  0  0  0  0  0  0
   25.6243  -21.0510  -13.1409 C   0  0  2  0  0  0  0  0  0  0  0  0
   26.6095  -20.6882  -14.1175 N   0  0  0  0  0  0  0  0  0  0  0  0
   26.2323  -21.3972  -11.8277 C   0  0  0  0  0  0  0  0  0  0  0  0
   27.3272  -22.0063  -11.8280 O   0  0  0  0  0  0  0  0  0  0  0  0
   25.6193  -21.0634  -10.5930 N   0  0  0  0  0  0  0  0  0  0  0  0
   26.1245  -21.3606   -9.2861 C   0  0  1  0  0  0  0  0  0  0  0  0
   27.5522  -20.8950   -9.0341 C   0  0  0  0  0  0  0  0  0  0  0  0
   27.5846  -19.9517   -7.9000 C   0  0  0  0  0  0  0  0  0  0  0  0
   26.9597  -18.7474   -7.7485 C   0  0  0  0  0  0  0  0  0  0  0  0
   27.2726  -18.2273   -6.5256 N   0  0  0  0  0  0  0  0  0  0  0  0
   28.0878  -19.0578   -5.8656 C   0  0  0  0  0  0  0  0  0  0  0  0
   28.6775  -18.9880   -4.6074 C   0  0  0  0  0  0  0  0  0  0  0  0
   29.4818  -20.0021   -4.1753 C   0  0  0  0  0  0  0  0  0  0  0  0
   29.6928  -21.0762   -4.9972 C   0  0  0  0  0  0  0  0  0  0  0  0
   29.1089  -21.1443   -6.2419 C   0  0  0  0  0  0  0  0  0  0  0  0
   28.2936  -20.1381   -6.7057 C   0  0  0  0  0  0  0  0  0  0  0  0
   25.2455  -21.0150   -8.1706 C   0  0  0  0  0  0  0  0  0  0  0  0
   24.1384  -20.1878   -8.4195 O   0  0  0  0  0  0  0  0  0  0  0  0
   25.4048  -21.4052   -6.9901 O   0  0  0  0  0  0  0  0  0  0  0  0
  1  2  1  0
  3  2  1  0
  4  5  1  0
  4  3  1  0
  5  6  1  1
  5  1  1  0
  6  7  2  0
  9  8  1  6
  9 11  1  0
 10  9  1  0
 10  6  1  0
 11 13  1  0
 11 12  2  0
 13 14  1  0
 14 25  1  0
 14 15  1  1
 16 15  1  0
 16 17  2  0
 18 17  1  0
 19 18  1  0
 20 19  2  0
 21 20  1  0
 22 21  2  0
 22 23  1  0
 23 24  2  0
 24 19  1  0
 24 16  1  0
 25 27  2  0
 25 26  1  0
M  END
$$$$
