PAW.pdb
     RDKit          3D

 27 29  0  0  1  0  0  0  0  0999 V2000
   23.8634  -17.2603  -18.4176 N   0  0  0  0  0  0  0  0  0  0  0  0
   24.3544  -16.2161  -19.2764 C   0  0  0  0  0  0  0  0  0  0  0  0
   24.3340  -16.7817  -20.6903 C   0  0  0  0  0  0  0  0  0  0  0  0
   23.7344  -18.1771  -20.5266 C   0  0  0  0  0  0  0  0  0  0  0  0
   24.1465  -18.5030  -19.1080 C   0  0  1  0  0  0  0  0  0  0  0  0
   25.6097  -18.7361  -19.0481 C   0  0  0  0  0  0  0  0  0  0  0  0
   26.1308  -19.7437  -19.5794 O   0  0  0  0  0  0  0  0  0  0  0  0
   28.7328  -16.8308  -18.2158 C   0  0  0  0  0  0  0  0  0  0  0  0
   27.8867  -18.1048  -18.2010 C   0  0  2  0  0  0  0  0  0  0  0  0
   26.4937  -17.8133  -18.3762 N   0  0  0  0  0  0  0  0  0  0  0  0
   28.1473  -18.8925  -16.9657 C   0  0  0  0  0  0  0  0  0  0  0  0
   29.3045  -19.3373  -16.7843 O   0  0  0  0  0  0  0  0  0  0  0  0
   27.1405  -19.1514  -16.0009 N   0  0  0  0  0  0  0  0  0  0  0  0
   27.3123  -19.8432  -14.7587 C   0  0  1  0  0  0  0  0  0  0  0  0
   27.4239  -18.9408  -13.5372 C   0  0  0  0  0  0  0  0  0  0  0  0
   27.4718  -19.7557  -12.3080 C   0  0  0  0  0  0  0  0  0  0  0  0
   28.5318  -20.3785  -11.7148 C   0  0  0  0  0  0  0  0  0  0  0  0
   28.1068  -21.0133  -10.5833 N   0  0  0  0  0  0  0  0  0  0  0  0
   26.7931  -20.8251  -10.4142 C   0  0  0  0  0  0  0  0  0  0  0  0
   25.9038  -21.2543   -9.4340 C   0  0  0  0  0  0  0  0  0  0  0  0
   24.5869  -20.9045   -9.5092 C   0  0  0  0  0  0  0  0  0  0  0  0
   24.1658  -20.1316  -10.5576 C   0  0  0  0  0  0  0  0  0  0  0  0
   25.0464  -19.7076  -11.5268 C   0  0  0  0  0  0  0  0  0  0  0  0
   26.3795  -20.0437  -11.4788 C   0  0  0  0  0  0  0  0  0  0  0  0
   26.3958  -20.9561  -14.5182 C   0  0  0  0  0  0  0  0  0  0  0  0
   26.9271  -22.1821  -14.0863 O   0  0  0  0  0  0  0  0  0  0  0  0
   25.1527  -20.9014  -14.6697 O   0  0  0  0  0  0  0  0  0  0  0  0
  1  2  1  0
  3  2  1  0
  4  5  1  0
  4  3  1  0
  5  6  1  6
  5  1  1  0
  6  7  2  0
  9  8  1  1
  9 11  1  0
 10  9  1  0
 10  6  1  0
 11 13  1  0
 11 12  2  0
 13 14  1  0
 14 25  1  0
 14 15  1  1
 16 15  1  0
 16 17  2  0
 18 17  1  0
 19 18  1  0
 20 19  2  0
 21 20  1  0
 22 21  2  0
 22 23  1  0
 23 24  2  0
 24 19  1  0
 24 16  1  0
 25 27  2  0
 25 26  1  0
M  END
$$$$
