PAW.pdb
     RDKit          3D

 27 29  0  0  1  0  0  0  0  0999 V2000
   28.8078  -18.9182  -14.5151 N   0  0  0  0  0  0  0  0  0  0  0  0
   29.4347  -19.2688  -15.7613 C   0  0  0  0  0  0  0  0  0  0  0  0
   29.1412  -18.1250  -16.7230 C   0  0  0  0  0  0  0  0  0  0  0  0
   28.3705  -17.1131  -15.8772 C   0  0  0  0  0  0  0  0  0  0  0  0
   27.7200  -18.0242  -14.8598 C   0  0  1  0  0  0  0  0  0  0  0  0
   26.6562  -18.8279  -15.5088 C   0  0  0  0  0  0  0  0  0  0  0  0
   25.6422  -18.2856  -16.0057 O   0  0  0  0  0  0  0  0  0  0  0  0
   26.0430  -22.3032  -16.7633 C   0  0  0  0  0  0  0  0  0  0  0  0
   25.6147  -21.0633  -15.9768 C   0  0  2  0  0  0  0  0  0  0  0  0
   26.7440  -20.2664  -15.5951 N   0  0  0  0  0  0  0  0  0  0  0  0
   24.7747  -21.4472  -14.8102 C   0  0  0  0  0  0  0  0  0  0  0  0
   23.5786  -21.7545  -15.0216 O   0  0  0  0  0  0  0  0  0  0  0  0
   25.2792  -21.4759  -13.4850 N   0  0  0  0  0  0  0  0  0  0  0  0
   24.5408  -21.8019  -12.3019 C   0  0  1  0  0  0  0  0  0  0  0  0
   25.3747  -22.3937  -11.1735 C   0  0  0  0  0  0  0  0  0  0  0  0
   25.9184  -21.3149  -10.3261 C   0  0  0  0  0  0  0  0  0  0  0  0
   25.2758  -20.2757   -9.7173 C   0  0  0  0  0  0  0  0  0  0  0  0
   26.1834  -19.5280   -9.0238 N   0  0  0  0  0  0  0  0  0  0  0  0
   27.4088  -20.0474   -9.1588 C   0  0  0  0  0  0  0  0  0  0  0  0
   28.6488  -19.6652   -8.6565 C   0  0  0  0  0  0  0  0  0  0  0  0
   29.7605  -20.3968   -8.9584 C   0  0  0  0  0  0  0  0  0  0  0  0
   29.6300  -21.5012   -9.7566 C   0  0  0  0  0  0  0  0  0  0  0  0
   28.4028  -21.8784  -10.2530 C   0  0  0  0  0  0  0  0  0  0  0  0
   27.2642  -21.1616   -9.9667 C   0  0  0  0  0  0  0  0  0  0  0  0
   23.6368  -20.7641  -11.8099 C   0  0  0  0  0  0  0  0  0  0  0  0
   22.5311  -21.1490  -11.0347 O   0  0  0  0  0  0  0  0  0  0  0  0
   23.7730  -19.5374  -12.0292 O   0  0  0  0  0  0  0  0  0  0  0  0
  1  2  1  0
  3  2  1  0
  4  5  1  0
  4  3  1  0
  5  6  1  6
  5  1  1  0
  6  7  2  0
  9  8  1  1
  9 11  1  0
 10  9  1  0
 10  6  1  0
 11 13  1  0
 11 12  2  0
 13 14  1  0
 14 25  1  0
 14 15  1  1
 16 15  1  0
 16 17  2  0
 18 17  1  0
 19 18  1  0
 20 19  2  0
 21 20  1  0
 22 21  2  0
 22 23  1  0
 23 24  2  0
 24 19  1  0
 24 16  1  0
 25 27  2  0
 25 26  1  0
M  END
$$$$
