PAW.pdb
     RDKit          3D

 27 29  0  0  1  0  0  0  0  0999 V2000
   26.9715  -21.8124  -17.4473 N   0  0  0  0  0  0  0  0  0  0  0  0
   28.1818  -22.5886  -17.4853 C   0  0  0  0  0  0  0  0  0  0  0  0
   27.9096  -23.8436  -16.6667 C   0  0  0  0  0  0  0  0  0  0  0  0
   26.4468  -23.7075  -16.2481 C   0  0  0  0  0  0  0  0  0  0  0  0
   26.2919  -22.2029  -16.2280 C   0  0  1  0  0  0  0  0  0  0  0  0
   27.0431  -21.6331  -15.0834 C   0  0  0  0  0  0  0  0  0  0  0  0
   27.7870  -22.3475  -14.3726 O   0  0  0  0  0  0  0  0  0  0  0  0
   27.1866  -18.2345  -13.3440 C   0  0  0  0  0  0  0  0  0  0  0  0
   27.3197  -19.7551  -13.4411 C   0  0  2  0  0  0  0  0  0  0  0  0
   26.9488  -20.2337  -14.7408 N   0  0  0  0  0  0  0  0  0  0  0  0
   26.5499  -20.4189  -12.3545 C   0  0  0  0  0  0  0  0  0  0  0  0
   25.4153  -20.8737  -12.6298 O   0  0  0  0  0  0  0  0  0  0  0  0
   27.0536  -20.5509  -11.0353 N   0  0  0  0  0  0  0  0  0  0  0  0
   26.4309  -21.2552   -9.9547 C   0  0  1  0  0  0  0  0  0  0  0  0
   27.3455  -21.5448   -8.7722 C   0  0  0  0  0  0  0  0  0  0  0  0
   27.4155  -20.3671   -7.8858 C   0  0  0  0  0  0  0  0  0  0  0  0
   26.8203  -19.1449   -8.0100 C   0  0  0  0  0  0  0  0  0  0  0  0
   27.1624  -18.3658   -6.9424 N   0  0  0  0  0  0  0  0  0  0  0  0
   27.9680  -19.0427   -6.1162 C   0  0  0  0  0  0  0  0  0  0  0  0
   28.5772  -18.7006   -4.9131 C   0  0  0  0  0  0  0  0  0  0  0  0
   29.3645  -19.6083   -4.2663 C   0  0  0  0  0  0  0  0  0  0  0  0
   29.5393  -20.8475   -4.8209 C   0  0  0  0  0  0  0  0  0  0  0  0
   28.9362  -21.1850   -6.0113 C   0  0  0  0  0  0  0  0  0  0  0  0
   28.1372  -20.2920   -6.6870 C   0  0  0  0  0  0  0  0  0  0  0  0
   25.1391  -20.7317   -9.5149 C   0  0  0  0  0  0  0  0  0  0  0  0
   24.2856  -21.5756   -8.7859 O   0  0  0  0  0  0  0  0  0  0  0  0
   24.7262  -19.5699   -9.7408 O   0  0  0  0  0  0  0  0  0  0  0  0
  1  2  1  0
  3  2  1  0
  4  5  1  0
  4  3  1  0
  5  6  1  1
  5  1  1  0
  6  7  2  0
  9  8  1  6
  9 11  1  0
 10  9  1  0
 10  6  1  0
 11 13  1  0
 11 12  2  0
 13 14  1  0
 14 25  1  0
 14 15  1  1
 16 15  1  0
 16 17  2  0
 18 17  1  0
 19 18  1  0
 20 19  2  0
 21 20  1  0
 22 21  2  0
 22 23  1  0
 23 24  2  0
 24 19  1  0
 24 16  1  0
 25 27  2  0
 25 26  1  0
M  END
$$$$
