PAW.pdb
     RDKit          3D

 27 29  0  0  1  0  0  0  0  0999 V2000
   28.6358  -19.8032  -16.6347 N   0  0  0  0  0  0  0  0  0  0  0  0
   27.8059  -18.8875  -17.3706 C   0  0  0  0  0  0  0  0  0  0  0  0
   28.2922  -17.4893  -17.0128 C   0  0  0  0  0  0  0  0  0  0  0  0
   29.4820  -17.7325  -16.0862 C   0  0  0  0  0  0  0  0  0  0  0  0
   29.1061  -19.0659  -15.4787 C   0  0  1  0  0  0  0  0  0  0  0  0
   27.9627  -18.8934  -14.5504 C   0  0  0  0  0  0  0  0  0  0  0  0
   28.0079  -18.0698  -13.6077 O   0  0  0  0  0  0  0  0  0  0  0  0
   24.3174  -19.8169  -14.4547 C   0  0  0  0  0  0  0  0  0  0  0  0
   25.6568  -19.5176  -13.7796 C   0  0  2  0  0  0  0  0  0  0  0  0
   26.7514  -19.6661  -14.6937 N   0  0  0  0  0  0  0  0  0  0  0  0
   25.8251  -20.3499  -12.5577 C   0  0  0  0  0  0  0  0  0  0  0  0
   26.8480  -21.0684  -12.4710 O   0  0  0  0  0  0  0  0  0  0  0  0
   24.8770  -20.3547  -11.5029 N   0  0  0  0  0  0  0  0  0  0  0  0
   25.1153  -20.7546  -10.1484 C   0  0  1  0  0  0  0  0  0  0  0  0
   26.3737  -20.1679   -9.5232 C   0  0  0  0  0  0  0  0  0  0  0  0
   26.3898  -20.4343   -8.0719 C   0  0  0  0  0  0  0  0  0  0  0  0
   25.5168  -21.1528   -7.3069 C   0  0  0  0  0  0  0  0  0  0  0  0
   25.9364  -21.1371   -6.0079 N   0  0  0  0  0  0  0  0  0  0  0  0
   27.0645  -20.4268   -5.8958 C   0  0  0  0  0  0  0  0  0  0  0  0
   27.8737  -20.1195   -4.8065 C   0  0  0  0  0  0  0  0  0  0  0  0
   28.9938  -19.3604   -4.9830 C   0  0  0  0  0  0  0  0  0  0  0  0
   29.2997  -18.9136   -6.2403 C   0  0  0  0  0  0  0  0  0  0  0  0
   28.4985  -19.2181   -7.3173 C   0  0  0  0  0  0  0  0  0  0  0  0
   27.3630  -19.9809   -7.1714 C   0  0  0  0  0  0  0  0  0  0  0  0
   23.9718  -20.6512   -9.2440 C   0  0  0  0  0  0  0  0  0  0  0  0
   23.5837  -21.7897   -8.5194 O   0  0  0  0  0  0  0  0  0  0  0  0
   23.2992  -19.6093   -9.0613 O   0  0  0  0  0  0  0  0  0  0  0  0
  1  2  1  0
  3  2  1  0
  4  5  1  0
  4  3  1  0
  5  6  1  1
  5  1  1  0
  6  7  2  0
  9  8  1  6
  9 11  1  0
 10  9  1  0
 10  6  1  0
 11 13  1  0
 11 12  2  0
 13 14  1  0
 14 25  1  0
 14 15  1  1
 16 15  1  0
 16 17  2  0
 18 17  1  0
 19 18  1  0
 20 19  2  0
 21 20  1  0
 22 21  2  0
 22 23  1  0
 23 24  2  0
 24 19  1  0
 24 16  1  0
 25 27  2  0
 25 26  1  0
M  END
$$$$
