PAW.pdb
     RDKit          3D

 27 29  0  0  1  0  0  0  0  0999 V2000
   26.2054  -17.3701  -13.8307 N   0  0  0  0  0  0  0  0  0  0  0  0
   27.0994  -16.9910  -14.8918 C   0  0  0  0  0  0  0  0  0  0  0  0
   26.5290  -17.5974  -16.1671 C   0  0  0  0  0  0  0  0  0  0  0  0
   25.2333  -18.2688  -15.7155 C   0  0  0  0  0  0  0  0  0  0  0  0
   25.5632  -18.5914  -14.2748 C   0  0  1  0  0  0  0  0  0  0  0  0
   26.5664  -19.6820  -14.2185 C   0  0  0  0  0  0  0  0  0  0  0  0
   26.3671  -20.7800  -14.7873 O   0  0  0  0  0  0  0  0  0  0  0  0
   29.7724  -20.2199  -12.2104 C   0  0  0  0  0  0  0  0  0  0  0  0
   28.4692  -20.6408  -12.8914 C   0  0  2  0  0  0  0  0  0  0  0  0
   27.8128  -19.5244  -13.5069 N   0  0  0  0  0  0  0  0  0  0  0  0
   27.5847  -21.3571  -11.9329 C   0  0  0  0  0  0  0  0  0  0  0  0
   27.5483  -22.6083  -11.9875 O   0  0  0  0  0  0  0  0  0  0  0  0
   26.7930  -20.6768  -10.9727 N   0  0  0  0  0  0  0  0  0  0  0  0
   26.0146  -21.2798   -9.9327 C   0  0  1  0  0  0  0  0  0  0  0  0
   26.7830  -21.5747   -8.6515 C   0  0  0  0  0  0  0  0  0  0  0  0
   27.0384  -20.3222   -7.9144 C   0  0  0  0  0  0  0  0  0  0  0  0
   26.6358  -19.0480   -8.1933 C   0  0  0  0  0  0  0  0  0  0  0  0
   27.1006  -18.2056   -7.2248 N   0  0  0  0  0  0  0  0  0  0  0  0
   27.7996  -18.8914   -6.3132 C   0  0  0  0  0  0  0  0  0  0  0  0
   28.4627  -18.5018   -5.1537 C   0  0  0  0  0  0  0  0  0  0  0  0
   29.1070  -19.4330   -4.3922 C   0  0  0  0  0  0  0  0  0  0  0  0
   29.0865  -20.7427   -4.7897 C   0  0  0  0  0  0  0  0  0  0  0  0
   28.4302  -21.1271   -5.9370 C   0  0  0  0  0  0  0  0  0  0  0  0
   27.7719  -20.2121   -6.7255 C   0  0  0  0  0  0  0  0  0  0  0  0
   24.7293  -20.6439   -9.6499 C   0  0  0  0  0  0  0  0  0  0  0  0
   23.8730  -21.2472   -8.7147 O   0  0  0  0  0  0  0  0  0  0  0  0
   24.3245  -19.5852  -10.1853 O   0  0  0  0  0  0  0  0  0  0  0  0
  1  2  1  0
  3  2  1  0
  4  5  1  0
  4  3  1  0
  5  6  1  6
  5  1  1  0
  6  7  2  0
  9  8  1  1
  9 11  1  0
 10  9  1  0
 10  6  1  0
 11 13  1  0
 11 12  2  0
 13 14  1  0
 14 25  1  0
 14 15  1  1
 16 15  1  0
 16 17  2  0
 18 17  1  0
 19 18  1  0
 20 19  2  0
 21 20  1  0
 22 21  2  0
 22 23  1  0
 23 24  2  0
 24 19  1  0
 24 16  1  0
 25 27  2  0
 25 26  1  0
M  END
$$$$
