PAW.pdb
     RDKit          3D

 27 29  0  0  1  0  0  0  0  0999 V2000
   27.6101  -19.7516  -16.1001 N   0  0  0  0  0  0  0  0  0  0  0  0
   28.7713  -19.1068  -15.5480 C   0  0  0  0  0  0  0  0  0  0  0  0
   29.5426  -20.1854  -14.7990 C   0  0  0  0  0  0  0  0  0  0  0  0
   28.7411  -21.4614  -15.0500 C   0  0  0  0  0  0  0  0  0  0  0  0
   27.3523  -20.8949  -15.2471 C   0  0  1  0  0  0  0  0  0  0  0  0
   26.8240  -20.3921  -13.9560 C   0  0  0  0  0  0  0  0  0  0  0  0
   27.5915  -20.0650  -13.0217 O   0  0  0  0  0  0  0  0  0  0  0  0
   23.4249  -19.3807  -12.5771 C   0  0  0  0  0  0  0  0  0  0  0  0
   24.8954  -19.7868  -12.4678 C   0  0  2  0  0  0  0  0  0  0  0  0
   25.4055  -20.2587  -13.7220 N   0  0  0  0  0  0  0  0  0  0  0  0
   25.0857  -20.7762  -11.3729 C   0  0  0  0  0  0  0  0  0  0  0  0
   25.2234  -21.9816  -11.6860 O   0  0  0  0  0  0  0  0  0  0  0  0
   25.1157  -20.4023  -10.0051 N   0  0  0  0  0  0  0  0  0  0  0  0
   25.0950  -21.2899   -8.8812 C   0  0  1  0  0  0  0  0  0  0  0  0
   26.4544  -21.5403   -8.2423 C   0  0  0  0  0  0  0  0  0  0  0  0
   26.9094  -20.3311   -7.5295 C   0  0  0  0  0  0  0  0  0  0  0  0
   26.5833  -19.0217   -7.7361 C   0  0  0  0  0  0  0  0  0  0  0  0
   27.2407  -18.2440   -6.8269 N   0  0  0  0  0  0  0  0  0  0  0  0
   27.9922  -19.0066   -6.0249 C   0  0  0  0  0  0  0  0  0  0  0  0
   28.8321  -18.7008   -4.9586 C   0  0  0  0  0  0  0  0  0  0  0  0
   29.4892  -19.6999   -4.3012 C   0  0  0  0  0  0  0  0  0  0  0  0
   29.3059  -20.9936   -4.7093 C   0  0  0  0  0  0  0  0  0  0  0  0
   28.4748  -21.2951   -5.7644 C   0  0  0  0  0  0  0  0  0  0  0  0
   27.7989  -20.3103   -6.4469 C   0  0  0  0  0  0  0  0  0  0  0  0
   24.0735  -21.0154   -7.8725 C   0  0  0  0  0  0  0  0  0  0  0  0
   23.8719  -21.9545   -6.8482 O   0  0  0  0  0  0  0  0  0  0  0  0
   23.3513  -19.9910   -7.8495 O   0  0  0  0  0  0  0  0  0  0  0  0
  1  2  1  0
  3  2  1  0
  4  5  1  0
  4  3  1  0
  5  6  1  1
  5  1  1  0
  6  7  2  0
  9  8  1  6
  9 11  1  0
 10  9  1  0
 10  6  1  0
 11 13  1  0
 11 12  2  0
 13 14  1  0
 14 25  1  0
 14 15  1  1
 16 15  1  0
 16 17  2  0
 18 17  1  0
 19 18  1  0
 20 19  2  0
 21 20  1  0
 22 21  2  0
 22 23  1  0
 23 24  2  0
 24 19  1  0
 24 16  1  0
 25 27  2  0
 25 26  1  0
M  END
$$$$
