PAW.pdb
     RDKit          3D

 27 29  0  0  1  0  0  0  0  0999 V2000
   28.0254  -19.8499  -16.8619 N   0  0  0  0  0  0  0  0  0  0  0  0
   28.0620  -18.4537  -17.2055 C   0  0  0  0  0  0  0  0  0  0  0  0
   29.0347  -17.8004  -16.2327 C   0  0  0  0  0  0  0  0  0  0  0  0
   29.5608  -18.9624  -15.3922 C   0  0  0  0  0  0  0  0  0  0  0  0
   28.3917  -19.9200  -15.4611 C   0  0  1  0  0  0  0  0  0  0  0  0
   27.2580  -19.3909  -14.6651 C   0  0  0  0  0  0  0  0  0  0  0  0
   27.4455  -18.8105  -13.5711 O   0  0  0  0  0  0  0  0  0  0  0  0
   23.5253  -18.8912  -15.0904 C   0  0  0  0  0  0  0  0  0  0  0  0
   24.7887  -19.1675  -14.2737 C   0  0  2  0  0  0  0  0  0  0  0  0
   25.8929  -19.5223  -15.1167 N   0  0  0  0  0  0  0  0  0  0  0  0
   24.5234  -20.1937  -13.2295 C   0  0  0  0  0  0  0  0  0  0  0  0
   24.4956  -21.3965  -13.5795 O   0  0  0  0  0  0  0  0  0  0  0  0
   24.3042  -19.8572  -11.8692 N   0  0  0  0  0  0  0  0  0  0  0  0
   24.0039  -20.7691  -10.8064 C   0  0  1  0  0  0  0  0  0  0  0  0
   24.6163  -20.4032   -9.4611 C   0  0  0  0  0  0  0  0  0  0  0  0
   26.0651  -20.6832   -9.4712 C   0  0  0  0  0  0  0  0  0  0  0  0
   26.8133  -21.3777  -10.3775 C   0  0  0  0  0  0  0  0  0  0  0  0
   28.1201  -21.3724   -9.9826 N   0  0  0  0  0  0  0  0  0  0  0  0
   28.2538  -20.6916   -8.8387 C   0  0  0  0  0  0  0  0  0  0  0  0
   29.3592  -20.4011   -8.0452 C   0  0  0  0  0  0  0  0  0  0  0  0
   29.2049  -19.6673   -6.9052 C   0  0  0  0  0  0  0  0  0  0  0  0
   27.9539  -19.2288   -6.5640 C   0  0  0  0  0  0  0  0  0  0  0  0
   26.8610  -19.5167   -7.3497 C   0  0  0  0  0  0  0  0  0  0  0  0
   26.9842  -20.2542   -8.5043 C   0  0  0  0  0  0  0  0  0  0  0  0
   22.5980  -21.1446  -10.6685 C   0  0  0  0  0  0  0  0  0  0  0  0
   21.6595  -20.5631  -11.5363 O   0  0  0  0  0  0  0  0  0  0  0  0
   22.1569  -21.9579   -9.8228 O   0  0  0  0  0  0  0  0  0  0  0  0
  1  2  1  0
  3  2  1  0
  4  5  1  0
  4  3  1  0
  5  6  1  1
  5  1  1  0
  6  7  2  0
  9  8  1  6
  9 11  1  0
 10  9  1  0
 10  6  1  0
 11 13  1  0
 11 12  2  0
 13 14  1  0
 14 25  1  0
 14 15  1  1
 16 15  1  0
 16 17  2  0
 18 17  1  0
 19 18  1  0
 20 19  2  0
 21 20  1  0
 22 21  2  0
 22 23  1  0
 23 24  2  0
 24 19  1  0
 24 16  1  0
 25 27  2  0
 25 26  1  0
M  END
$$$$
