PAW.pdb
     RDKit          3D

 27 29  0  0  1  0  0  0  0  0999 V2000
   27.4349  -18.4742  -16.2240 N   0  0  0  0  0  0  0  0  0  0  0  0
   28.5689  -17.8835  -15.5652 C   0  0  0  0  0  0  0  0  0  0  0  0
   29.4321  -19.0413  -15.0816 C   0  0  0  0  0  0  0  0  0  0  0  0
   28.7073  -20.2863  -15.5896 C   0  0  0  0  0  0  0  0  0  0  0  0
   27.2791  -19.7896  -15.6352 C   0  0  1  0  0  0  0  0  0  0  0  0
   26.7610  -19.6149  -14.2568 C   0  0  0  0  0  0  0  0  0  0  0  0
   27.4743  -19.1270  -13.3501 O   0  0  0  0  0  0  0  0  0  0  0  0
   23.3767  -19.8821  -12.5476 C   0  0  0  0  0  0  0  0  0  0  0  0
   24.9035  -19.7972  -12.5784 C   0  0  2  0  0  0  0  0  0  0  0  0
   25.4151  -19.9992  -13.9025 N   0  0  0  0  0  0  0  0  0  0  0  0
   25.5005  -20.7388  -11.5930 C   0  0  0  0  0  0  0  0  0  0  0  0
   25.8322  -21.8786  -11.9941 O   0  0  0  0  0  0  0  0  0  0  0  0
   25.7028  -20.3909  -10.2330 N   0  0  0  0  0  0  0  0  0  0  0  0
   25.9517  -21.2973   -9.1523 C   0  0  1  0  0  0  0  0  0  0  0  0
   27.3839  -21.2938   -8.6351 C   0  0  0  0  0  0  0  0  0  0  0  0
   27.5839  -20.1655   -7.7054 C   0  0  0  0  0  0  0  0  0  0  0  0
   27.0251  -18.9200   -7.7118 C   0  0  0  0  0  0  0  0  0  0  0  0
   27.4987  -18.2074   -6.6480 N   0  0  0  0  0  0  0  0  0  0  0  0
   28.3556  -18.9510   -5.9390 C   0  0  0  0  0  0  0  0  0  0  0  0
   29.0918  -18.6902   -4.7876 C   0  0  0  0  0  0  0  0  0  0  0  0
   29.9044  -19.6544   -4.2660 C   0  0  0  0  0  0  0  0  0  0  0  0
   29.9780  -20.8689   -4.8932 C   0  0  0  0  0  0  0  0  0  0  0  0
   29.2493  -21.1260   -6.0323 C   0  0  0  0  0  0  0  0  0  0  0  0
   28.4217  -20.1746   -6.5821 C   0  0  0  0  0  0  0  0  0  0  0  0
   24.9875  -21.2583   -8.0545 C   0  0  0  0  0  0  0  0  0  0  0  0
   25.1495  -22.1556   -6.9865 O   0  0  0  0  0  0  0  0  0  0  0  0
   24.0116  -20.4743   -7.9902 O   0  0  0  0  0  0  0  0  0  0  0  0
  1  2  1  0
  3  2  1  0
  4  5  1  0
  4  3  1  0
  5  6  1  1
  5  1  1  0
  6  7  2  0
  9  8  1  6
  9 11  1  0
 10  9  1  0
 10  6  1  0
 11 13  1  0
 11 12  2  0
 13 14  1  0
 14 25  1  0
 14 15  1  1
 16 15  1  0
 16 17  2  0
 18 17  1  0
 19 18  1  0
 20 19  2  0
 21 20  1  0
 22 21  2  0
 22 23  1  0
 23 24  2  0
 24 19  1  0
 24 16  1  0
 25 27  2  0
 25 26  1  0
M  END
$$$$
