PAW.pdb
     RDKit          3D

 27 29  0  0  1  0  0  0  0  0999 V2000
   31.2809  -23.5848  -17.2683 N   0  0  0  0  0  0  0  0  0  0  0  0
   31.6226  -23.8063  -15.8887 C   0  0  0  0  0  0  0  0  0  0  0  0
   30.7474  -24.9580  -15.4122 C   0  0  0  0  0  0  0  0  0  0  0  0
   29.9655  -25.3739  -16.6568 C   0  0  0  0  0  0  0  0  0  0  0  0
   29.9227  -24.0683  -17.4196 C   0  0  1  0  0  0  0  0  0  0  0  0
   29.0185  -23.1129  -16.7352 C   0  0  0  0  0  0  0  0  0  0  0  0
   29.4677  -22.2061  -15.9970 O   0  0  0  0  0  0  0  0  0  0  0  0
   25.4747  -21.9935  -17.2444 C   0  0  0  0  0  0  0  0  0  0  0  0
   26.7225  -22.1639  -16.3765 C   0  0  2  0  0  0  0  0  0  0  0  0
   27.5850  -23.1876  -16.8904 N   0  0  0  0  0  0  0  0  0  0  0  0
   26.3448  -22.4041  -14.9575 C   0  0  0  0  0  0  0  0  0  0  0  0
   26.7733  -23.4421  -14.4017 O   0  0  0  0  0  0  0  0  0  0  0  0
   25.5264  -21.5069  -14.2248 N   0  0  0  0  0  0  0  0  0  0  0  0
   25.4506  -21.3978  -12.7987 C   0  0  1  0  0  0  0  0  0  0  0  0
   26.7933  -21.2293  -12.1006 C   0  0  0  0  0  0  0  0  0  0  0  0
   26.5880  -20.7890  -10.7073 C   0  0  0  0  0  0  0  0  0  0  0  0
   25.4496  -20.3640  -10.0852 C   0  0  0  0  0  0  0  0  0  0  0  0
   25.7312  -20.0660   -8.7831 N   0  0  0  0  0  0  0  0  0  0  0  0
   27.0266  -20.2839   -8.5294 C   0  0  0  0  0  0  0  0  0  0  0  0
   27.7931  -20.1377   -7.3774 C   0  0  0  0  0  0  0  0  0  0  0  0
   29.1229  -20.4427   -7.4013 C   0  0  0  0  0  0  0  0  0  0  0  0
   29.6790  -20.8900   -8.5694 C   0  0  0  0  0  0  0  0  0  0  0  0
   28.9198  -21.0342   -9.7085 C   0  0  0  0  0  0  0  0  0  0  0  0
   27.5772  -20.7349   -9.7162 C   0  0  0  0  0  0  0  0  0  0  0  0
   24.4595  -20.4545  -12.2847 C   0  0  0  0  0  0  0  0  0  0  0  0
   24.4034  -19.1680  -12.8446 O   0  0  0  0  0  0  0  0  0  0  0  0
   23.6424  -20.7076  -11.3684 O   0  0  0  0  0  0  0  0  0  0  0  0
  1  2  1  0
  3  2  1  0
  4  5  1  0
  4  3  1  0
  5  6  1  1
  5  1  1  0
  6  7  2  0
  9  8  1  6
  9 11  1  0
 10  9  1  0
 10  6  1  0
 11 13  1  0
 11 12  2  0
 13 14  1  0
 14 25  1  0
 14 15  1  6
 16 15  1  0
 16 17  2  0
 18 17  1  0
 19 18  1  0
 20 19  2  0
 21 20  1  0
 22 21  2  0
 22 23  1  0
 23 24  2  0
 24 19  1  0
 24 16  1  0
 25 27  2  0
 25 26  1  0
M  END
$$$$
