PAW.pdb
     RDKit          3D

 27 29  0  0  1  0  0  0  0  0999 V2000
   25.3693  -18.3511  -14.3642 N   0  0  0  0  0  0  0  0  0  0  0  0
   26.1706  -17.8337  -15.4409 C   0  0  0  0  0  0  0  0  0  0  0  0
   25.8813  -18.7144  -16.6492 C   0  0  0  0  0  0  0  0  0  0  0  0
   24.8196  -19.6941  -16.1528 C   0  0  0  0  0  0  0  0  0  0  0  0
   25.1459  -19.7488  -14.6767 C   0  0  1  0  0  0  0  0  0  0  0  0
   26.4227  -20.4735  -14.4683 C   0  0  0  0  0  0  0  0  0  0  0  0
   26.6311  -21.5902  -14.9962 O   0  0  0  0  0  0  0  0  0  0  0  0
   29.4983  -19.9810  -12.2652 C   0  0  0  0  0  0  0  0  0  0  0  0
   28.3293  -20.7661  -12.8621 C   0  0  2  0  0  0  0  0  0  0  0  0
   27.4773  -19.9237  -13.6497 N   0  0  0  0  0  0  0  0  0  0  0  0
   27.5818  -21.4849  -11.7950 C   0  0  0  0  0  0  0  0  0  0  0  0
   27.6747  -22.7337  -11.7500 O   0  0  0  0  0  0  0  0  0  0  0  0
   26.7789  -20.8097  -10.8406 N   0  0  0  0  0  0  0  0  0  0  0  0
   26.0860  -21.4071   -9.7386 C   0  0  1  0  0  0  0  0  0  0  0  0
   26.9412  -21.6433   -8.5010 C   0  0  0  0  0  0  0  0  0  0  0  0
   27.1937  -20.3650   -7.8084 C   0  0  0  0  0  0  0  0  0  0  0  0
   26.7914  -19.1018   -8.1341 C   0  0  0  0  0  0  0  0  0  0  0  0
   27.2527  -18.2250   -7.1948 N   0  0  0  0  0  0  0  0  0  0  0  0
   27.9490  -18.8773   -6.2570 C   0  0  0  0  0  0  0  0  0  0  0  0
   28.6082  -18.4461   -5.1101 C   0  0  0  0  0  0  0  0  0  0  0  0
   29.2505  -19.3491   -4.3137 C   0  0  0  0  0  0  0  0  0  0  0  0
   29.2319  -20.6722   -4.6642 C   0  0  0  0  0  0  0  0  0  0  0  0
   28.5795  -21.0978   -5.7990 C   0  0  0  0  0  0  0  0  0  0  0  0
   27.9233  -20.2120   -6.6219 C   0  0  0  0  0  0  0  0  0  0  0  0
   24.8010  -20.8028   -9.3922 C   0  0  0  0  0  0  0  0  0  0  0  0
   24.0905  -21.3181   -8.2960 O   0  0  0  0  0  0  0  0  0  0  0  0
   24.2747  -19.8453  -10.0065 O   0  0  0  0  0  0  0  0  0  0  0  0
  1  2  1  0
  3  2  1  0
  4  5  1  0
  4  3  1  0
  5  6  1  6
  5  1  1  0
  6  7  2  0
  9  8  1  1
  9 11  1  0
 10  9  1  0
 10  6  1  0
 11 13  1  0
 11 12  2  0
 13 14  1  0
 14 25  1  0
 14 15  1  1
 16 15  1  0
 16 17  2  0
 18 17  1  0
 19 18  1  0
 20 19  2  0
 21 20  1  0
 22 21  2  0
 22 23  1  0
 23 24  2  0
 24 19  1  0
 24 16  1  0
 25 27  2  0
 25 26  1  0
M  END
$$$$
