PAW.pdb
     RDKit          3D

 27 29  0  0  1  0  0  0  0  0999 V2000
   27.3715  -19.7732  -15.6828 N   0  0  0  0  0  0  0  0  0  0  0  0
   27.7342  -18.3815  -15.6610 C   0  0  0  0  0  0  0  0  0  0  0  0
   28.9723  -18.2773  -14.7803 C   0  0  0  0  0  0  0  0  0  0  0  0
   29.2780  -19.7225  -14.3915 C   0  0  0  0  0  0  0  0  0  0  0  0
   27.8966  -20.3359  -14.4545 C   0  0  1  0  0  0  0  0  0  0  0  0
   27.0692  -19.8335  -13.3312 C   0  0  0  0  0  0  0  0  0  0  0  0
   27.5738  -19.1676  -12.3979 O   0  0  0  0  0  0  0  0  0  0  0  0
   23.3998  -19.9759  -12.3023 C   0  0  0  0  0  0  0  0  0  0  0  0
   24.9067  -19.8818  -12.0577 C   0  0  2  0  0  0  0  0  0  0  0  0
   25.6499  -20.0903  -13.2660 N   0  0  0  0  0  0  0  0  0  0  0  0
   25.3204  -20.8126  -10.9730 C   0  0  0  0  0  0  0  0  0  0  0  0
   25.9777  -21.8311  -11.2900 O   0  0  0  0  0  0  0  0  0  0  0  0
   24.9984  -20.5855   -9.6105 N   0  0  0  0  0  0  0  0  0  0  0  0
   25.4365  -21.3664   -8.4927 C   0  0  1  0  0  0  0  0  0  0  0  0
   26.9372  -21.3272   -8.2375 C   0  0  0  0  0  0  0  0  0  0  0  0
   27.2713  -20.1933   -7.3542 C   0  0  0  0  0  0  0  0  0  0  0  0
   26.8811  -18.8871   -7.4257 C   0  0  0  0  0  0  0  0  0  0  0  0
   27.4300  -18.1946   -6.3850 N   0  0  0  0  0  0  0  0  0  0  0  0
   28.1723  -19.0105   -5.6280 C   0  0  0  0  0  0  0  0  0  0  0  0
   28.9210  -18.7956   -4.4751 C   0  0  0  0  0  0  0  0  0  0  0  0
   29.5929  -19.8329   -3.8965 C   0  0  0  0  0  0  0  0  0  0  0  0
   29.5147  -21.0740   -4.4686 C   0  0  0  0  0  0  0  0  0  0  0  0
   28.7737  -21.2855   -5.6091 C   0  0  0  0  0  0  0  0  0  0  0  0
   28.0856  -20.2604   -6.2157 C   0  0  0  0  0  0  0  0  0  0  0  0
   24.6797  -21.1864   -7.2552 C   0  0  0  0  0  0  0  0  0  0  0  0
   24.9569  -22.0328   -6.1695 O   0  0  0  0  0  0  0  0  0  0  0  0
   23.7882  -20.3220   -7.0841 O   0  0  0  0  0  0  0  0  0  0  0  0
  1  2  1  0
  3  2  1  0
  4  5  1  0
  4  3  1  0
  5  6  1  1
  5  1  1  0
  6  7  2  0
  9  8  1  6
  9 11  1  0
 10  9  1  0
 10  6  1  0
 11 13  1  0
 11 12  2  0
 13 14  1  0
 14 25  1  0
 14 15  1  1
 16 15  1  0
 16 17  2  0
 18 17  1  0
 19 18  1  0
 20 19  2  0
 21 20  1  0
 22 21  2  0
 22 23  1  0
 23 24  2  0
 24 19  1  0
 24 16  1  0
 25 27  2  0
 25 26  1  0
M  END
$$$$
