EYC.pdb
     RDKit          3D

 28 28  0  0  1  0  0  0  0  0999 V2000
   11.1136  -17.2807   18.7287 N   0  0  0  0  0  0  0  0  0  0  0  0
   10.8840  -18.0877   19.8840 C   0  0  1  0  0  0  0  0  0  0  0  0
   11.8525  -19.2010   20.0776 C   0  0  0  0  0  0  0  0  0  0  0  0
   13.2880  -18.7356   19.9922 C   0  0  0  0  0  0  0  0  0  0  0  0
   14.1625  -19.9494   20.1129 C   0  0  0  0  0  0  0  0  0  0  0  0
   13.7236  -21.1121   20.2321 O   0  0  0  0  0  0  0  0  0  0  0  0
   10.9150  -17.2206   21.1180 C   0  0  0  0  0  0  0  0  0  0  0  0
   11.8213  -16.3548   21.2278 O   0  0  0  0  0  0  0  0  0  0  0  0
   15.5545  -19.7479   20.0870 O   0  0  0  0  0  0  0  0  0  0  0  0
    6.6896  -12.6435   19.0094 O   0  0  0  0  0  0  0  0  0  0  0  0
    7.1626  -13.3961   20.0870 C   0  0  0  0  0  0  0  0  0  0  0  0
    8.1811  -12.9155   20.8837 C   0  0  0  0  0  0  0  0  0  0  0  0
    8.6395  -13.6594   21.9411 C   0  0  0  0  0  0  0  0  0  0  0  0
    8.1226  -14.8862   22.2528 C   0  0  0  0  0  0  0  0  0  0  0  0
    8.5470  -15.7392   23.3596 C   0  0  0  0  0  0  0  0  0  0  0  0
    9.8557  -16.4112   23.2419 C   0  0  2  0  0  0  0  0  0  0  0  0
    9.9672  -17.3487   22.1454 N   0  0  0  0  0  0  0  0  0  0  0  0
   10.0054  -17.2452   24.5018 C   0  0  0  0  0  0  0  0  0  0  0  0
    9.4773  -18.3805   24.6060 O   0  0  0  0  0  0  0  0  0  0  0  0
    7.0954  -15.3707   21.4469 C   0  0  0  0  0  0  0  0  0  0  0  0
    6.6324  -14.6311   20.3879 C   0  0  0  0  0  0  0  0  0  0  0  0
   10.7484  -16.7775   25.6189 N   0  0  0  0  0  0  0  0  0  0  0  0
   10.9667  -17.5975   26.7982 C   0  0  1  0  0  0  0  0  0  0  0  0
   12.1205  -17.1583   27.6373 C   0  0  0  0  0  0  0  0  0  0  0  0
   13.5729  -17.0127   26.5548 S   0  0  0  0  0  0  0  0  0  0  0  0
    9.7273  -17.4903   27.6452 C   0  0  0  0  0  0  0  0  0  0  0  0
    8.7615  -16.7377   27.2935 O   0  0  0  0  0  0  0  0  0  0  0  0
    9.5516  -18.1799   28.8294 O   0  0  0  0  0  0  0  0  0  0  0  0
  2  1  1  6
  2  3  1  0
  2  7  1  0
  3  4  1  0
  5  6  2  0
  5  4  1  0
  7  8  2  0
  9  5  1  0
 11 12  2  0
 11 10  1  0
 13 12  1  0
 14 13  2  0
 15 14  1  0
 16 15  1  1
 17  7  1  0
 17 16  1  0
 18 22  1  0
 18 16  1  0
 19 18  2  0
 20 14  1  0
 20 21  2  0
 21 11  1  0
 23 22  1  0
 23 24  1  1
 24 25  1  0
 26 23  1  0
 26 28  1  0
 27 26  2  0
M  END
$$$$
