EYC.pdb
     RDKit          3D

 28 28  0  0  1  0  0  0  0  0999 V2000
    9.5620  -17.0681   17.2885 N   0  0  0  0  0  0  0  0  0  0  0  0
   10.5766  -17.6194   18.1283 C   0  0  1  0  0  0  0  0  0  0  0  0
   11.9073  -17.7855   17.4828 C   0  0  0  0  0  0  0  0  0  0  0  0
   12.0491  -19.1235   16.7940 C   0  0  0  0  0  0  0  0  0  0  0  0
   13.4644  -19.2307   16.3062 C   0  0  0  0  0  0  0  0  0  0  0  0
   14.2860  -20.0657   16.7379 O   0  0  0  0  0  0  0  0  0  0  0  0
   10.7526  -16.7454   19.3451 C   0  0  0  0  0  0  0  0  0  0  0  0
   11.4871  -15.7273   19.2591 O   0  0  0  0  0  0  0  0  0  0  0  0
   13.8720  -18.3321   15.3035 O   0  0  0  0  0  0  0  0  0  0  0  0
    6.4702  -12.0318   18.2645 O   0  0  0  0  0  0  0  0  0  0  0  0
    7.0794  -12.8771   19.1949 C   0  0  0  0  0  0  0  0  0  0  0  0
    8.3172  -12.5662   19.7186 C   0  0  0  0  0  0  0  0  0  0  0  0
    8.9087  -13.4003   20.6331 C   0  0  0  0  0  0  0  0  0  0  0  0
    8.3159  -14.5550   21.0627 C   0  0  0  0  0  0  0  0  0  0  0  0
    8.8714  -15.4941   22.0334 C   0  0  0  0  0  0  0  0  0  0  0  0
   10.1589  -16.1360   21.7040 C   0  0  2  0  0  0  0  0  0  0  0  0
   10.1249  -17.0310   20.5676 N   0  0  0  0  0  0  0  0  0  0  0  0
   10.4995  -17.0119   22.8966 C   0  0  0  0  0  0  0  0  0  0  0  0
    9.9651  -18.1371   23.0606 O   0  0  0  0  0  0  0  0  0  0  0  0
    7.0670  -14.8682   20.5321 C   0  0  0  0  0  0  0  0  0  0  0  0
    6.4700  -14.0378   19.6173 C   0  0  0  0  0  0  0  0  0  0  0  0
   11.4368  -16.5965   23.8802 N   0  0  0  0  0  0  0  0  0  0  0  0
   11.8565  -17.4695   24.9631 C   0  0  1  0  0  0  0  0  0  0  0  0
   13.1284  -17.0498   25.6223 C   0  0  0  0  0  0  0  0  0  0  0  0
   14.3556  -16.7397   24.3183 S   0  0  0  0  0  0  0  0  0  0  0  0
   10.7734  -17.4285   26.0073 C   0  0  0  0  0  0  0  0  0  0  0  0
    9.7649  -16.6626   25.8694 O   0  0  0  0  0  0  0  0  0  0  0  0
   10.7930  -18.1958   27.1560 O   0  0  0  0  0  0  0  0  0  0  0  0
  2  1  1  6
  2  3  1  0
  2  7  1  0
  3  4  1  0
  5  6  2  0
  5  4  1  0
  7  8  2  0
  9  5  1  0
 11 12  2  0
 11 10  1  0
 13 12  1  0
 14 13  2  0
 15 14  1  0
 16 15  1  1
 17  7  1  0
 17 16  1  0
 18 22  1  0
 18 16  1  0
 19 18  2  0
 20 14  1  0
 20 21  2  0
 21 11  1  0
 23 22  1  0
 23 24  1  1
 24 25  1  0
 26 23  1  0
 26 28  1  0
 27 26  2  0
M  END
$$$$
