EYC.pdb
     RDKit          3D

 28 28  0  0  1  0  0  0  0  0999 V2000
    9.3625  -19.7217   22.0802 N   0  0  0  0  0  0  0  0  0  0  0  0
    9.6881  -18.7128   23.0365 C   0  0  1  0  0  0  0  0  0  0  0  0
   10.4246  -17.5407   22.4900 C   0  0  0  0  0  0  0  0  0  0  0  0
   11.1439  -17.8639   21.2005 C   0  0  0  0  0  0  0  0  0  0  0  0
   11.8654  -16.6222   20.7642 C   0  0  0  0  0  0  0  0  0  0  0  0
   13.0000  -16.6254   20.2436 O   0  0  0  0  0  0  0  0  0  0  0  0
    8.4238  -18.2092   23.6872 C   0  0  0  0  0  0  0  0  0  0  0  0
    7.3143  -18.5721   23.2175 O   0  0  0  0  0  0  0  0  0  0  0  0
   11.2106  -15.3924   20.9589 O   0  0  0  0  0  0  0  0  0  0  0  0
   11.9763  -16.2825   29.8741 O   0  0  0  0  0  0  0  0  0  0  0  0
   10.8144  -16.5681   29.1532 C   0  0  0  0  0  0  0  0  0  0  0  0
   10.4400  -17.8745   28.9169 C   0  0  0  0  0  0  0  0  0  0  0  0
    9.2968  -18.1474   28.2095 C   0  0  0  0  0  0  0  0  0  0  0  0
    8.4887  -17.1621   27.7142 C   0  0  0  0  0  0  0  0  0  0  0  0
    7.2560  -17.3638   26.9576 C   0  0  0  0  0  0  0  0  0  0  0  0
    7.2571  -16.9768   25.5333 C   0  0  2  0  0  0  0  0  0  0  0  0
    8.4455  -17.3504   24.7973 N   0  0  0  0  0  0  0  0  0  0  0  0
    7.2350  -15.4586   25.5190 C   0  0  0  0  0  0  0  0  0  0  0  0
    6.4678  -14.8046   26.2689 O   0  0  0  0  0  0  0  0  0  0  0  0
    8.8687  -15.8436   27.9524 C   0  0  0  0  0  0  0  0  0  0  0  0
   10.0109  -15.5642   28.6596 C   0  0  0  0  0  0  0  0  0  0  0  0
    8.0805  -14.7111   24.6559 N   0  0  0  0  0  0  0  0  0  0  0  0
    7.8732  -13.2942   24.4102 C   0  0  1  0  0  0  0  0  0  0  0  0
    6.9319  -13.0045   23.2884 C   0  0  0  0  0  0  0  0  0  0  0  0
    7.5215  -13.9002   21.8213 S   0  0  0  0  0  0  0  0  0  0  0  0
    7.2739  -12.7128   25.6624 C   0  0  0  0  0  0  0  0  0  0  0  0
    6.8145  -13.4712   26.5771 O   0  0  0  0  0  0  0  0  0  0  0  0
    7.1818  -11.3557   25.9041 O   0  0  0  0  0  0  0  0  0  0  0  0
  2  1  1  6
  2  3  1  0
  2  7  1  0
  3  4  1  0
  5  6  2  0
  5  4  1  0
  7  8  2  0
  9  5  1  0
 11 12  2  0
 11 10  1  0
 13 12  1  0
 14 13  2  0
 15 14  1  0
 16 15  1  1
 17  7  1  0
 17 16  1  0
 18 22  1  0
 18 16  1  0
 19 18  2  0
 20 14  1  0
 20 21  2  0
 21 11  1  0
 23 22  1  0
 23 24  1  6
 24 25  1  0
 26 23  1  0
 26 28  1  0
 27 26  2  0
M  END
$$$$
