EYC.pdb
     RDKit          3D

 28 28  0  0  1  0  0  0  0  0999 V2000
    8.3082  -18.3951   19.3341 N   0  0  0  0  0  0  0  0  0  0  0  0
    9.5558  -17.7008   19.3397 C   0  0  1  0  0  0  0  0  0  0  0  0
    9.8654  -16.9513   18.0918 C   0  0  0  0  0  0  0  0  0  0  0  0
    9.3146  -17.6326   16.8602 C   0  0  0  0  0  0  0  0  0  0  0  0
    9.5997  -16.7409   15.6871 C   0  0  0  0  0  0  0  0  0  0  0  0
    8.7270  -16.3489   14.8850 O   0  0  0  0  0  0  0  0  0  0  0  0
    9.5843  -16.7260   20.4905 C   0  0  0  0  0  0  0  0  0  0  0  0
   10.6318  -16.0593   20.6943 O   0  0  0  0  0  0  0  0  0  0  0  0
   10.9318  -16.3311   15.4956 O   0  0  0  0  0  0  0  0  0  0  0  0
    6.7807  -11.9710   27.5396 O   0  0  0  0  0  0  0  0  0  0  0  0
    6.8824  -12.7276   26.3698 C   0  0  0  0  0  0  0  0  0  0  0  0
    7.4767  -12.1987   25.2429 C   0  0  0  0  0  0  0  0  0  0  0  0
    7.5744  -12.9481   24.0981 C   0  0  0  0  0  0  0  0  0  0  0  0
    7.0993  -14.2276   24.0170 C   0  0  0  0  0  0  0  0  0  0  0  0
    7.1664  -15.0941   22.8434 C   0  0  0  0  0  0  0  0  0  0  0  0
    8.4899  -15.6213   22.4577 C   0  0  2  0  0  0  0  0  0  0  0  0
    8.4821  -16.5393   21.3393 N   0  0  0  0  0  0  0  0  0  0  0  0
    8.9704  -16.4368   23.6450 C   0  0  0  0  0  0  0  0  0  0  0  0
    8.4703  -17.5561   23.9200 O   0  0  0  0  0  0  0  0  0  0  0  0
    6.4984  -14.7597   25.1549 C   0  0  0  0  0  0  0  0  0  0  0  0
    6.3979  -14.0152   26.3032 C   0  0  0  0  0  0  0  0  0  0  0  0
   10.0060  -15.9689   24.4977 N   0  0  0  0  0  0  0  0  0  0  0  0
   10.6092  -16.8140   25.5140 C   0  0  1  0  0  0  0  0  0  0  0  0
   12.0783  -16.6080   25.6805 C   0  0  0  0  0  0  0  0  0  0  0  0
   12.8764  -16.9786   24.0906 S   0  0  0  0  0  0  0  0  0  0  0  0
    9.9543  -16.4647   26.8233 C   0  0  0  0  0  0  0  0  0  0  0  0
    9.1216  -15.5036   26.8986 O   0  0  0  0  0  0  0  0  0  0  0  0
   10.2002  -17.1409   28.0026 O   0  0  0  0  0  0  0  0  0  0  0  0
  2  1  1  6
  2  3  1  0
  2  7  1  0
  3  4  1  0
  5  6  2  0
  5  4  1  0
  7  8  2  0
  9  5  1  0
 11 12  2  0
 11 10  1  0
 13 12  1  0
 14 13  2  0
 15 14  1  0
 16 15  1  1
 17  7  1  0
 17 16  1  0
 18 22  1  0
 18 16  1  0
 19 18  2  0
 20 14  1  0
 20 21  2  0
 21 11  1  0
 23 22  1  0
 23 24  1  1
 24 25  1  0
 26 23  1  0
 26 28  1  0
 27 26  2  0
M  END
$$$$
