EYC.pdb
     RDKit          3D

 28 28  0  0  1  0  0  0  0  0999 V2000
    9.4996  -19.1099   20.0041 N   0  0  0  0  0  0  0  0  0  0  0  0
   10.6477  -18.2612   19.9941 C   0  0  1  0  0  0  0  0  0  0  0  0
   10.8946  -17.5501   18.7103 C   0  0  0  0  0  0  0  0  0  0  0  0
   10.9937  -18.4985   17.5376 C   0  0  0  0  0  0  0  0  0  0  0  0
   11.4329  -17.6974   16.3467 C   0  0  0  0  0  0  0  0  0  0  0  0
   12.6229  -17.5846   15.9867 O   0  0  0  0  0  0  0  0  0  0  0  0
   10.5185  -17.2269   21.0846 C   0  0  0  0  0  0  0  0  0  0  0  0
   11.4844  -16.4499   21.3005 O   0  0  0  0  0  0  0  0  0  0  0  0
   10.4332  -17.0435   15.6037 O   0  0  0  0  0  0  0  0  0  0  0  0
    7.4436  -12.2547   18.1139 O   0  0  0  0  0  0  0  0  0  0  0  0
    7.6133  -12.9821   19.2944 C   0  0  0  0  0  0  0  0  0  0  0  0
    8.3797  -12.4772   20.3242 C   0  0  0  0  0  0  0  0  0  0  0  0
    8.5406  -13.1965   21.4812 C   0  0  0  0  0  0  0  0  0  0  0  0
    7.9632  -14.4215   21.6689 C   0  0  0  0  0  0  0  0  0  0  0  0
    8.0784  -15.2491   22.8666 C   0  0  0  0  0  0  0  0  0  0  0  0
    9.2334  -16.1635   22.9570 C   0  0  2  0  0  0  0  0  0  0  0  0
    9.3580  -17.1040   21.8645 N   0  0  0  0  0  0  0  0  0  0  0  0
    8.9915  -17.0116   24.1930 C   0  0  0  0  0  0  0  0  0  0  0  0
    8.3129  -18.0678   24.1438 O   0  0  0  0  0  0  0  0  0  0  0  0
    7.1908  -14.9304   20.6278 C   0  0  0  0  0  0  0  0  0  0  0  0
    7.0258  -14.2156   19.4682 C   0  0  0  0  0  0  0  0  0  0  0  0
    9.5213  -16.6470   25.4599 N   0  0  0  0  0  0  0  0  0  0  0  0
   10.1421  -17.6178   26.3448 C   0  0  1  0  0  0  0  0  0  0  0  0
   11.3607  -18.2653   25.7755 C   0  0  0  0  0  0  0  0  0  0  0  0
   12.0000  -19.4334   27.0122 S   0  0  0  0  0  0  0  0  0  0  0  0
   10.5635  -16.8772   27.5853 C   0  0  0  0  0  0  0  0  0  0  0  0
   11.2005  -15.7772   27.5020 O   0  0  0  0  0  0  0  0  0  0  0  0
   10.2977  -17.3224   28.8659 O   0  0  0  0  0  0  0  0  0  0  0  0
  2  1  1  6
  2  3  1  0
  2  7  1  0
  3  4  1  0
  5  6  2  0
  5  4  1  0
  7  8  2  0
  9  5  1  0
 11 12  2  0
 11 10  1  0
 13 12  1  0
 14 13  2  0
 15 14  1  0
 16 15  1  6
 17  7  1  0
 17 16  1  0
 18 22  1  0
 18 16  1  0
 19 18  2  0
 20 14  1  0
 20 21  2  0
 21 11  1  0
 23 22  1  0
 23 24  1  6
 24 25  1  0
 26 23  1  0
 26 28  1  0
 27 26  2  0
M  END
$$$$
