EYC.pdb
     RDKit          3D

 28 28  0  0  1  0  0  0  0  0999 V2000
   11.4538  -16.5535   19.3911 N   0  0  0  0  0  0  0  0  0  0  0  0
   10.9102  -17.2559   20.5090 C   0  0  1  0  0  0  0  0  0  0  0  0
   11.7727  -18.3404   21.0519 C   0  0  0  0  0  0  0  0  0  0  0  0
   12.0218  -19.4369   20.0418 C   0  0  0  0  0  0  0  0  0  0  0  0
   12.8258  -20.5042   20.7252 C   0  0  0  0  0  0  0  0  0  0  0  0
   12.3348  -21.3609   21.4892 O   0  0  0  0  0  0  0  0  0  0  0  0
   10.6250  -16.2819   21.6251 C   0  0  0  0  0  0  0  0  0  0  0  0
   11.3916  -15.2962   21.7801 O   0  0  0  0  0  0  0  0  0  0  0  0
   14.2106  -20.5274   20.4788 O   0  0  0  0  0  0  0  0  0  0  0  0
    5.9378  -11.6316   27.6093 O   0  0  0  0  0  0  0  0  0  0  0  0
    6.3820  -12.4890   26.5999 C   0  0  0  0  0  0  0  0  0  0  0  0
    6.9923  -11.9844   25.4704 C   0  0  0  0  0  0  0  0  0  0  0  0
    7.4274  -12.8326   24.4840 C   0  0  0  0  0  0  0  0  0  0  0  0
    7.2824  -14.1896   24.5676 C   0  0  0  0  0  0  0  0  0  0  0  0
    7.7196  -15.1617   23.5694 C   0  0  0  0  0  0  0  0  0  0  0  0
    9.1637  -15.4551   23.4877 C   0  0  2  0  0  0  0  0  0  0  0  0
    9.5343  -16.4397   22.4944 N   0  0  0  0  0  0  0  0  0  0  0  0
    9.5349  -16.0722   24.8245 C   0  0  0  0  0  0  0  0  0  0  0  0
    9.3843  -17.2995   25.0472 O   0  0  0  0  0  0  0  0  0  0  0  0
    6.6649  -14.6974   25.7079 C   0  0  0  0  0  0  0  0  0  0  0  0
    6.2278  -13.8542   26.6982 C   0  0  0  0  0  0  0  0  0  0  0  0
   10.0677  -15.2881   25.8828 N   0  0  0  0  0  0  0  0  0  0  0  0
   10.7848  -15.8825   26.9978 C   0  0  1  0  0  0  0  0  0  0  0  0
   11.4006  -14.8861   27.9232 C   0  0  0  0  0  0  0  0  0  0  0  0
   10.1512  -13.6179   28.2876 S   0  0  0  0  0  0  0  0  0  0  0  0
    9.7836  -16.6766   27.7927 C   0  0  0  0  0  0  0  0  0  0  0  0
   10.1531  -17.3778   28.7900 O   0  0  0  0  0  0  0  0  0  0  0  0
    8.4319  -16.7016   27.5081 O   0  0  0  0  0  0  0  0  0  0  0  0
  2  1  1  6
  2  3  1  0
  2  7  1  0
  3  4  1  0
  5  6  2  0
  5  4  1  0
  7  8  2  0
  9  5  1  0
 11 12  2  0
 11 10  1  0
 13 12  1  0
 14 13  2  0
 15 14  1  0
 16 15  1  1
 17  7  1  0
 17 16  1  0
 18 22  1  0
 18 16  1  0
 19 18  2  0
 20 14  1  0
 20 21  2  0
 21 11  1  0
 23 22  1  0
 23 24  1  1
 24 25  1  0
 26 23  1  0
 26 28  1  0
 27 26  2  0
M  END
$$$$
