EYC.pdb
     RDKit          3D

 28 28  0  0  1  0  0  0  0  0999 V2000
   10.7560  -16.8151   19.0186 N   0  0  0  0  0  0  0  0  0  0  0  0
    9.4424  -16.6514   19.5538 C   0  0  1  0  0  0  0  0  0  0  0  0
    8.6321  -17.8974   19.6272 C   0  0  0  0  0  0  0  0  0  0  0  0
    9.4838  -19.1244   19.8588 C   0  0  0  0  0  0  0  0  0  0  0  0
    8.5638  -20.3096   19.9008 C   0  0  0  0  0  0  0  0  0  0  0  0
    8.5476  -21.2067   19.0327 O   0  0  0  0  0  0  0  0  0  0  0  0
    9.5337  -16.0699   20.9427 C   0  0  0  0  0  0  0  0  0  0  0  0
   10.5983  -16.2239   21.5955 O   0  0  0  0  0  0  0  0  0  0  0  0
    7.6762  -20.4002   20.9884 O   0  0  0  0  0  0  0  0  0  0  0  0
    6.9841  -12.0425   28.5402 O   0  0  0  0  0  0  0  0  0  0  0  0
    7.1019  -12.5014   27.2261 C   0  0  0  0  0  0  0  0  0  0  0  0
    8.2364  -12.2320   26.4891 C   0  0  0  0  0  0  0  0  0  0  0  0
    8.3458  -12.6871   25.1997 C   0  0  0  0  0  0  0  0  0  0  0  0
    7.3596  -13.4142   24.5931 C   0  0  0  0  0  0  0  0  0  0  0  0
    7.3964  -13.9398   23.2310 C   0  0  0  0  0  0  0  0  0  0  0  0
    8.5265  -14.8164   22.8669 C   0  0  2  0  0  0  0  0  0  0  0  0
    8.4712  -15.3645   21.5289 N   0  0  0  0  0  0  0  0  0  0  0  0
    8.4354  -16.0135   23.7966 C   0  0  0  0  0  0  0  0  0  0  0  0
    7.5009  -16.8483   23.7048 O   0  0  0  0  0  0  0  0  0  0  0  0
    6.2143  -13.6843   25.3378 C   0  0  0  0  0  0  0  0  0  0  0  0
    6.0991  -13.2320   26.6282 C   0  0  0  0  0  0  0  0  0  0  0  0
    9.4026  -16.2412   24.8121 N   0  0  0  0  0  0  0  0  0  0  0  0
    9.3139  -17.3697   25.7228 C   0  0  1  0  0  0  0  0  0  0  0  0
   10.2659  -18.4767   25.4115 C   0  0  0  0  0  0  0  0  0  0  0  0
    9.9295  -19.0404   23.7170 S   0  0  0  0  0  0  0  0  0  0  0  0
    9.6544  -16.8559   27.0958 C   0  0  0  0  0  0  0  0  0  0  0  0
    9.9688  -15.6344   27.2743 O   0  0  0  0  0  0  0  0  0  0  0  0
    9.6500  -17.6472   28.2283 O   0  0  0  0  0  0  0  0  0  0  0  0
  2  1  1  1
  2  3  1  0
  2  7  1  0
  3  4  1  0
  5  6  2  0
  5  4  1  0
  7  8  2  0
  9  5  1  0
 11 12  2  0
 11 10  1  0
 13 12  1  0
 14 13  2  0
 15 14  1  0
 16 15  1  1
 17  7  1  0
 17 16  1  0
 18 22  1  0
 18 16  1  0
 19 18  2  0
 20 14  1  0
 20 21  2  0
 21 11  1  0
 23 22  1  0
 23 24  1  6
 24 25  1  0
 26 23  1  0
 26 28  1  0
 27 26  2  0
M  END
$$$$
