EYC.pdb
     RDKit          3D

 28 28  0  0  1  0  0  0  0  0999 V2000
    9.5817  -18.8199   19.7675 N   0  0  0  0  0  0  0  0  0  0  0  0
    8.8194  -18.7226   20.9708 C   0  0  1  0  0  0  0  0  0  0  0  0
    8.8884  -19.9149   21.8587 C   0  0  0  0  0  0  0  0  0  0  0  0
    8.6990  -21.2085   21.1001 C   0  0  0  0  0  0  0  0  0  0  0  0
    8.7916  -22.3302   22.0930 C   0  0  0  0  0  0  0  0  0  0  0  0
    9.8387  -22.9708   22.3209 O   0  0  0  0  0  0  0  0  0  0  0  0
    9.2783  -17.5229   21.7618 C   0  0  0  0  0  0  0  0  0  0  0  0
   10.4547  -17.1058   21.6026 O   0  0  0  0  0  0  0  0  0  0  0  0
    7.6226  -22.6652   22.8002 O   0  0  0  0  0  0  0  0  0  0  0  0
    7.4640  -12.3680   18.0693 O   0  0  0  0  0  0  0  0  0  0  0  0
    7.5710  -12.9033   19.3551 C   0  0  0  0  0  0  0  0  0  0  0  0
    6.5271  -13.6177   19.9056 C   0  0  0  0  0  0  0  0  0  0  0  0
    6.6399  -14.1417   21.1683 C   0  0  0  0  0  0  0  0  0  0  0  0
    7.7660  -13.9870   21.9281 C   0  0  0  0  0  0  0  0  0  0  0  0
    7.9708  -14.5141   23.2746 C   0  0  0  0  0  0  0  0  0  0  0  0
    8.8463  -15.6932   23.4212 C   0  0  2  0  0  0  0  0  0  0  0  0
    8.4368  -16.8586   22.6677 N   0  0  0  0  0  0  0  0  0  0  0  0
    8.7467  -16.1013   24.8803 C   0  0  0  0  0  0  0  0  0  0  0  0
    8.9347  -15.2760   25.8088 O   0  0  0  0  0  0  0  0  0  0  0  0
    8.8184  -13.2644   21.3716 C   0  0  0  0  0  0  0  0  0  0  0  0
    8.7118  -12.7380   20.1089 C   0  0  0  0  0  0  0  0  0  0  0  0
    8.4375  -17.4352   25.2595 N   0  0  0  0  0  0  0  0  0  0  0  0
    8.3769  -17.8471   26.6515 C   0  0  1  0  0  0  0  0  0  0  0  0
    7.2374  -18.7590   26.9651 C   0  0  0  0  0  0  0  0  0  0  0  0
    7.4106  -19.2926   28.6936 S   0  0  0  0  0  0  0  0  0  0  0  0
    9.6480  -18.5976   26.9449 C   0  0  0  0  0  0  0  0  0  0  0  0
   10.4114  -18.9798   25.9993 O   0  0  0  0  0  0  0  0  0  0  0  0
   10.0674  -18.9162   28.2221 O   0  0  0  0  0  0  0  0  0  0  0  0
  2  1  1  6
  2  3  1  0
  2  7  1  0
  3  4  1  0
  5  6  2  0
  5  4  1  0
  7  8  2  0
  9  5  1  0
 11 12  2  0
 11 10  1  0
 13 12  1  0
 14 13  2  0
 15 14  1  0
 16 15  1  1
 17  7  1  0
 17 16  1  0
 18 22  1  0
 18 16  1  0
 19 18  2  0
 20 14  1  0
 20 21  2  0
 21 11  1  0
 23 22  1  0
 23 24  1  6
 24 25  1  0
 26 23  1  0
 26 28  1  0
 27 26  2  0
M  END
$$$$
