EYC.pdb
     RDKit          3D

 28 28  0  0  1  0  0  0  0  0999 V2000
   11.2108  -16.8730   19.2443 N   0  0  0  0  0  0  0  0  0  0  0  0
    9.8852  -16.9186   19.7729 C   0  0  1  0  0  0  0  0  0  0  0  0
    9.3169  -18.2848   19.9319 C   0  0  0  0  0  0  0  0  0  0  0  0
   10.2919  -19.2414   20.5792 C   0  0  0  0  0  0  0  0  0  0  0  0
    9.6239  -20.5833   20.6534 C   0  0  0  0  0  0  0  0  0  0  0  0
    8.5389  -20.7873   21.2363 O   0  0  0  0  0  0  0  0  0  0  0  0
    9.8569  -16.2402   21.1199 C   0  0  0  0  0  0  0  0  0  0  0  0
   10.9169  -16.1908   21.7961 O   0  0  0  0  0  0  0  0  0  0  0  0
   10.2700  -21.6624   20.0233 O   0  0  0  0  0  0  0  0  0  0  0  0
    6.7867  -11.6715   28.1748 O   0  0  0  0  0  0  0  0  0  0  0  0
    6.9570  -12.2728   26.9256 C   0  0  0  0  0  0  0  0  0  0  0  0
    7.8565  -11.7562   26.0162 C   0  0  0  0  0  0  0  0  0  0  0  0
    8.0196  -12.3529   24.7918 C   0  0  0  0  0  0  0  0  0  0  0  0
    7.3160  -13.4642   24.4187 C   0  0  0  0  0  0  0  0  0  0  0  0
    7.4311  -14.1630   23.1415 C   0  0  0  0  0  0  0  0  0  0  0  0
    8.6465  -14.9675   22.9097 C   0  0  2  0  0  0  0  0  0  0  0  0
    8.6884  -15.6639   21.6421 N   0  0  0  0  0  0  0  0  0  0  0  0
    8.6274  -16.0568   23.9673 C   0  0  0  0  0  0  0  0  0  0  0  0
    7.8417  -17.0343   23.8911 O   0  0  0  0  0  0  0  0  0  0  0  0
    6.4073  -13.9838   25.3372 C   0  0  0  0  0  0  0  0  0  0  0  0
    6.2399  -13.3916   26.5637 C   0  0  0  0  0  0  0  0  0  0  0  0
    9.4966  -16.0176   25.0905 N   0  0  0  0  0  0  0  0  0  0  0  0
    9.5961  -17.1231   26.0279 C   0  0  1  0  0  0  0  0  0  0  0  0
   10.7065  -18.0747   25.7281 C   0  0  0  0  0  0  0  0  0  0  0  0
   12.2224  -17.1026   25.4844 S   0  0  0  0  0  0  0  0  0  0  0  0
    9.8666  -16.5283   27.3837 C   0  0  0  0  0  0  0  0  0  0  0  0
   10.0255  -15.2722   27.5236 O   0  0  0  0  0  0  0  0  0  0  0  0
    9.9586  -17.2784   28.5403 O   0  0  0  0  0  0  0  0  0  0  0  0
  2  1  1  1
  2  3  1  0
  2  7  1  0
  3  4  1  0
  5  6  2  0
  5  4  1  0
  7  8  2  0
  9  5  1  0
 11 12  2  0
 11 10  1  0
 13 12  1  0
 14 13  2  0
 15 14  1  0
 16 15  1  6
 17  7  1  0
 17 16  1  0
 18 22  1  0
 18 16  1  0
 19 18  2  0
 20 14  1  0
 20 21  2  0
 21 11  1  0
 23 22  1  0
 23 24  1  6
 24 25  1  0
 26 23  1  0
 26 28  1  0
 27 26  2  0
M  END
$$$$
