PIT.pdb
     RDKit          3D

 23 23  0  0  1  0  0  0  0  0999 V2000
    8.0077  -14.5720   19.9542 N   0  0  0  0  0  0  0  0  0  0  0  0
    8.0540  -15.7949   19.1758 C   0  0  0  0  0  0  0  0  0  0  0  0
    6.7302  -16.4861   19.5210 C   0  0  0  0  0  0  0  0  0  0  0  0
    6.6537  -16.2153   21.0110 C   0  0  0  0  0  0  0  0  0  0  0  0
    7.2194  -14.8317   21.1178 C   0  0  1  0  0  0  0  0  0  0  0  0
    8.0306  -14.6642   22.3850 C   0  0  0  0  0  0  0  0  0  0  0  0
    9.2498  -14.8322   22.2519 O   0  0  0  0  0  0  0  0  0  0  0  0
    5.7656  -11.5060   26.3400 C   0  0  0  0  0  0  0  0  0  0  0  0
    6.7666  -12.0960   25.3717 C   0  0  0  0  0  0  0  0  0  0  0  0
    7.0587  -13.5052   25.8497 C   0  0  2  0  0  0  0  0  0  0  0  0
    7.8060  -13.3091   27.1744 C   0  0  0  0  0  0  0  0  0  0  0  0
    7.9904  -14.2264   24.8887 C   0  0  2  0  0  0  0  0  0  0  0  0
    7.3727  -14.3434   23.5740 N   0  0  0  0  0  0  0  0  0  0  0  0
    8.2964  -15.5557   25.4333 C   0  0  0  0  0  0  0  0  0  0  0  0
    7.2917  -16.3144   25.7553 O   0  0  0  0  0  0  0  0  0  0  0  0
    9.9728  -18.5528   23.8262 C   0  0  0  0  0  0  0  0  0  0  0  0
   10.5620  -18.3288   25.1944 C   0  0  1  0  0  0  0  0  0  0  0  0
   11.7779  -17.6413   25.1011 O   0  0  0  0  0  0  0  0  0  0  0  0
    9.6350  -17.5557   26.1013 C   0  0  2  0  0  0  0  0  0  0  0  0
    9.5482  -16.1456   25.6585 N   0  0  0  0  0  0  0  0  0  0  0  0
   10.2251  -17.5945   27.4649 C   0  0  0  0  0  0  0  0  0  0  0  0
   10.2311  -18.7587   28.2041 O   0  0  0  0  0  0  0  0  0  0  0  0
   10.7403  -16.5631   27.9914 O   0  0  0  0  0  0  0  0  0  0  0  0
  1  5  1  0
  2  3  1  0
  2  1  1  0
  3  4  1  0
  5  4  1  0
  5  6  1  1
  6 13  1  0
  6  7  2  0
  8  9  1  0
  9 10  1  0
 10 12  1  0
 10 11  1  1
 12 14  1  0
 12 13  1  6
 14 15  2  0
 17 16  1  6
 17 18  1  0
 17 19  1  0
 19 21  1  0
 20 14  1  0
 19 20  1  6
 21 22  1  0
 23 21  2  0
M  END
$$$$
