PIT.pdb
     RDKit          3D

 23 23  0  0  1  0  0  0  0  0999 V2000
    6.8500  -15.4797   21.4633 N   0  0  0  0  0  0  0  0  0  0  0  0
    6.2012  -14.4434   20.6831 C   0  0  0  0  0  0  0  0  0  0  0  0
    7.1945  -14.1805   19.5458 C   0  0  0  0  0  0  0  0  0  0  0  0
    8.5069  -14.2304   20.3037 C   0  0  0  0  0  0  0  0  0  0  0  0
    8.2612  -15.3184   21.3046 C   0  0  1  0  0  0  0  0  0  0  0  0
    8.9360  -15.0149   22.6254 C   0  0  0  0  0  0  0  0  0  0  0  0
   10.1661  -14.8889   22.5677 O   0  0  0  0  0  0  0  0  0  0  0  0
    5.9912  -12.0827   26.1499 C   0  0  0  0  0  0  0  0  0  0  0  0
    7.1317  -12.6175   25.3125 C   0  0  0  0  0  0  0  0  0  0  0  0
    7.5557  -13.9314   25.9398 C   0  0  2  0  0  0  0  0  0  0  0  0
    8.1653  -13.5286   27.2881 C   0  0  0  0  0  0  0  0  0  0  0  0
    8.6424  -14.6047   25.1168 C   0  0  2  0  0  0  0  0  0  0  0  0
    8.1539  -14.9019   23.7764 N   0  0  0  0  0  0  0  0  0  0  0  0
    9.0574  -15.8379   25.7981 C   0  0  0  0  0  0  0  0  0  0  0  0
    8.1219  -16.6662   26.1548 O   0  0  0  0  0  0  0  0  0  0  0  0
   12.1969  -19.5256   26.7961 C   0  0  0  0  0  0  0  0  0  0  0  0
   11.9077  -18.1586   26.2329 C   0  0  1  0  0  0  0  0  0  0  0  0
   11.9457  -18.1838   24.8337 O   0  0  0  0  0  0  0  0  0  0  0  0
   10.5651  -17.6265   26.6731 C   0  0  2  0  0  0  0  0  0  0  0  0
   10.3512  -16.2679   26.1250 N   0  0  0  0  0  0  0  0  0  0  0  0
   10.5922  -17.5461   28.1569 C   0  0  0  0  0  0  0  0  0  0  0  0
   10.9801  -16.3890   28.7993 O   0  0  0  0  0  0  0  0  0  0  0  0
   10.2611  -18.5342   28.8782 O   0  0  0  0  0  0  0  0  0  0  0  0
  1  5  1  0
  2  3  1  0
  2  1  1  0
  3  4  1  0
  5  4  1  0
  5  6  1  1
  6 13  1  0
  6  7  2  0
  8  9  1  0
  9 10  1  0
 10 12  1  0
 10 11  1  1
 12 14  1  0
 12 13  1  6
 14 15  2  0
 17 16  1  1
 17 18  1  0
 17 19  1  0
 19 21  1  0
 20 14  1  0
 19 20  1  6
 21 22  1  0
 23 21  2  0
M  END
$$$$
