PIT.pdb
     RDKit          3D

 23 23  0  0  1  0  0  0  0  0999 V2000
    7.8375  -14.6184   19.8827 N   0  0  0  0  0  0  0  0  0  0  0  0
    7.7317  -15.8536   19.1300 C   0  0  0  0  0  0  0  0  0  0  0  0
    6.4307  -16.4758   19.6495 C   0  0  0  0  0  0  0  0  0  0  0  0
    6.5513  -16.1793   21.1316 C   0  0  0  0  0  0  0  0  0  0  0  0
    7.1881  -14.8228   21.1394 C   0  0  1  0  0  0  0  0  0  0  0  0
    8.1564  -14.6750   22.2937 C   0  0  0  0  0  0  0  0  0  0  0  0
    9.3358  -14.9376   22.0242 O   0  0  0  0  0  0  0  0  0  0  0  0
    5.6722  -12.7986   26.9727 C   0  0  0  0  0  0  0  0  0  0  0  0
    6.2534  -13.5889   25.8214 C   0  0  0  0  0  0  0  0  0  0  0  0
    7.7307  -13.2516   25.7614 C   0  0  2  0  0  0  0  0  0  0  0  0
    7.7699  -11.8127   25.2324 C   0  0  0  0  0  0  0  0  0  0  0  0
    8.4539  -14.1386   24.7605 C   0  0  2  0  0  0  0  0  0  0  0  0
    7.6714  -14.2677   23.5379 N   0  0  0  0  0  0  0  0  0  0  0  0
    8.6772  -15.4562   25.3698 C   0  0  0  0  0  0  0  0  0  0  0  0
    7.6462  -16.2368   25.4980 O   0  0  0  0  0  0  0  0  0  0  0  0
   10.4186  -18.3368   23.9253 C   0  0  0  0  0  0  0  0  0  0  0  0
   10.9159  -18.1748   25.3380 C   0  0  1  0  0  0  0  0  0  0  0  0
   12.1321  -17.4818   25.3560 O   0  0  0  0  0  0  0  0  0  0  0  0
    9.9280  -17.4454   26.2164 C   0  0  2  0  0  0  0  0  0  0  0  0
    9.8736  -16.0140   25.8421 N   0  0  0  0  0  0  0  0  0  0  0  0
   10.4207  -17.5571   27.6142 C   0  0  0  0  0  0  0  0  0  0  0  0
   10.4672  -18.7767   28.2563 O   0  0  0  0  0  0  0  0  0  0  0  0
   10.8128  -16.5394   28.2597 O   0  0  0  0  0  0  0  0  0  0  0  0
  1  5  1  0
  2  3  1  0
  2  1  1  0
  3  4  1  0
  5  4  1  0
  5  6  1  1
  6 13  1  0
  6  7  2  0
  8  9  1  0
  9 10  1  0
 10 12  1  0
 10 11  1  6
 12 14  1  0
 12 13  1  6
 14 15  2  0
 17 16  1  6
 17 18  1  0
 17 19  1  0
 19 21  1  0
 20 14  1  0
 19 20  1  6
 21 22  1  0
 23 21  2  0
M  END
$$$$
