PIT.pdb
     RDKit          3D

 23 23  0  0  1  0  0  0  0  0999 V2000
    8.1476  -14.5124   20.0835 N   0  0  0  0  0  0  0  0  0  0  0  0
    8.1040  -15.7456   19.3215 C   0  0  0  0  0  0  0  0  0  0  0  0
    6.7253  -16.3238   19.6599 C   0  0  0  0  0  0  0  0  0  0  0  0
    6.6548  -16.0272   21.1453 C   0  0  0  0  0  0  0  0  0  0  0  0
    7.3285  -14.6920   21.2409 C   0  0  1  0  0  0  0  0  0  0  0  0
    8.1367  -14.5724   22.5154 C   0  0  0  0  0  0  0  0  0  0  0  0
    9.3589  -14.7104   22.3747 O   0  0  0  0  0  0  0  0  0  0  0  0
    5.9163  -11.5695   26.6418 C   0  0  0  0  0  0  0  0  0  0  0  0
    6.9487  -12.1078   25.6763 C   0  0  0  0  0  0  0  0  0  0  0  0
    7.1500  -13.5705   26.0223 C   0  0  2  0  0  0  0  0  0  0  0  0
    7.8403  -13.5447   27.3915 C   0  0  0  0  0  0  0  0  0  0  0  0
    8.0920  -14.2413   25.0353 C   0  0  2  0  0  0  0  0  0  0  0  0
    7.4733  -14.3239   23.7184 N   0  0  0  0  0  0  0  0  0  0  0  0
    8.4231  -15.5829   25.5330 C   0  0  0  0  0  0  0  0  0  0  0  0
    7.4329  -16.3742   25.8193 O   0  0  0  0  0  0  0  0  0  0  0  0
   10.0571  -18.3633   23.7037 C   0  0  0  0  0  0  0  0  0  0  0  0
   10.6899  -18.2850   25.0686 C   0  0  1  0  0  0  0  0  0  0  0  0
   11.9145  -17.6096   25.0062 O   0  0  0  0  0  0  0  0  0  0  0  0
    9.8036  -17.5922   26.0756 C   0  0  2  0  0  0  0  0  0  0  0  0
    9.6858  -16.1537   25.7459 N   0  0  0  0  0  0  0  0  0  0  0  0
   10.4605  -17.7279   27.4020 C   0  0  0  0  0  0  0  0  0  0  0  0
   11.0099  -16.6347   28.0384 O   0  0  0  0  0  0  0  0  0  0  0  0
   10.5372  -18.8481   27.9897 O   0  0  0  0  0  0  0  0  0  0  0  0
  1  5  1  0
  2  3  1  0
  2  1  1  0
  3  4  1  0
  5  4  1  0
  5  6  1  1
  6 13  1  0
  6  7  2  0
  8  9  1  0
  9 10  1  0
 10 12  1  0
 10 11  1  1
 12 14  1  0
 12 13  1  6
 14 15  2  0
 17 16  1  6
 17 18  1  0
 17 19  1  0
 19 21  1  0
 20 14  1  0
 19 20  1  6
 21 22  1  0
 23 21  2  0
M  END
$$$$
