PIT.pdb
     RDKit          3D

 23 23  0  0  1  0  0  0  0  0999 V2000
    7.0178  -14.7806   20.5564 N   0  0  0  0  0  0  0  0  0  0  0  0
    6.4057  -13.6847   19.8298 C   0  0  0  0  0  0  0  0  0  0  0  0
    7.4935  -13.2674   18.8338 C   0  0  0  0  0  0  0  0  0  0  0  0
    8.7266  -13.3606   19.7114 C   0  0  0  0  0  0  0  0  0  0  0  0
    8.4299  -14.5596   20.5600 C   0  0  1  0  0  0  0  0  0  0  0  0
    8.9594  -14.3836   21.9672 C   0  0  0  0  0  0  0  0  0  0  0  0
   10.1922  -14.3181   22.0580 O   0  0  0  0  0  0  0  0  0  0  0  0
    6.6744  -11.9142   27.0226 C   0  0  0  0  0  0  0  0  0  0  0  0
    7.7235  -12.8783   26.5151 C   0  0  0  0  0  0  0  0  0  0  0  0
    7.2995  -13.2902   25.1186 C   0  0  2  0  0  0  0  0  0  0  0  0
    6.1049  -14.2247   25.3452 C   0  0  0  0  0  0  0  0  0  0  0  0
    8.3940  -14.0881   24.4279 C   0  0  2  0  0  0  0  0  0  0  0  0
    8.0547  -14.3098   23.0280 N   0  0  0  0  0  0  0  0  0  0  0  0
    8.5586  -15.3697   25.1262 C   0  0  0  0  0  0  0  0  0  0  0  0
    7.4899  -16.0806   25.3287 O   0  0  0  0  0  0  0  0  0  0  0  0
   10.3220  -18.5141   24.0638 C   0  0  0  0  0  0  0  0  0  0  0  0
   10.7111  -18.2025   25.4854 C   0  0  1  0  0  0  0  0  0  0  0  0
   11.9587  -17.5687   25.5273 O   0  0  0  0  0  0  0  0  0  0  0  0
    9.6974  -17.3263   26.1812 C   0  0  2  0  0  0  0  0  0  0  0  0
    9.7331  -15.9584   25.6159 N   0  0  0  0  0  0  0  0  0  0  0  0
   10.0854  -17.2630   27.6146 C   0  0  0  0  0  0  0  0  0  0  0  0
   10.0250  -18.3826   28.4176 O   0  0  0  0  0  0  0  0  0  0  0  0
   10.4829  -16.1825   28.1443 O   0  0  0  0  0  0  0  0  0  0  0  0
  1  5  1  0
  2  3  1  0
  2  1  1  0
  3  4  1  0
  5  4  1  0
  5  6  1  1
  6 13  1  0
  6  7  2  0
  8  9  1  0
  9 10  1  0
 10 12  1  0
 10 11  1  1
 12 14  1  0
 12 13  1  6
 14 15  2  0
 17 16  1  6
 17 18  1  0
 17 19  1  0
 19 21  1  0
 20 14  1  0
 19 20  1  6
 21 22  1  0
 23 21  2  0
M  END
$$$$
