PIT.pdb
     RDKit          3D

 23 23  0  0  1  0  0  0  0  0999 V2000
    7.9477  -14.9185   20.0163 N   0  0  0  0  0  0  0  0  0  0  0  0
    7.9201  -16.1553   19.2593 C   0  0  0  0  0  0  0  0  0  0  0  0
    6.5705  -16.7745   19.6394 C   0  0  0  0  0  0  0  0  0  0  0  0
    6.5342  -16.4749   21.1254 C   0  0  0  0  0  0  0  0  0  0  0  0
    7.1687  -15.1192   21.1977 C   0  0  1  0  0  0  0  0  0  0  0  0
    8.0097  -14.9702   22.4477 C   0  0  0  0  0  0  0  0  0  0  0  0
    9.2098  -15.2387   22.3059 O   0  0  0  0  0  0  0  0  0  0  0  0
    5.8251  -11.5621   26.2543 C   0  0  0  0  0  0  0  0  0  0  0  0
    6.8121  -12.1888   25.2947 C   0  0  0  0  0  0  0  0  0  0  0  0
    7.1536  -13.5576   25.8510 C   0  0  2  0  0  0  0  0  0  0  0  0
    7.9428  -13.2602   27.1318 C   0  0  0  0  0  0  0  0  0  0  0  0
    8.0669  -14.3201   24.9044 C   0  0  2  0  0  0  0  0  0  0  0  0
    7.3971  -14.5555   23.6317 N   0  0  0  0  0  0  0  0  0  0  0  0
    8.4419  -15.5942   25.5316 C   0  0  0  0  0  0  0  0  0  0  0  0
    7.4782  -16.3784   25.9121 O   0  0  0  0  0  0  0  0  0  0  0  0
   10.2717  -18.3301   23.7871 C   0  0  0  0  0  0  0  0  0  0  0  0
   10.8520  -18.1941   25.1706 C   0  0  1  0  0  0  0  0  0  0  0  0
   12.0397  -17.4538   25.1364 O   0  0  0  0  0  0  0  0  0  0  0  0
    9.8955  -17.5338   26.1342 C   0  0  2  0  0  0  0  0  0  0  0  0
    9.7228  -16.1061   25.7826 N   0  0  0  0  0  0  0  0  0  0  0  0
   10.5058  -17.6241   27.4864 C   0  0  0  0  0  0  0  0  0  0  0  0
   10.5649  -18.8255   28.1610 O   0  0  0  0  0  0  0  0  0  0  0  0
   10.9901  -16.6042   28.0621 O   0  0  0  0  0  0  0  0  0  0  0  0
  1  5  1  0
  2  3  1  0
  2  1  1  0
  3  4  1  0
  5  4  1  0
  5  6  1  1
  6 13  1  0
  6  7  2  0
  8  9  1  0
  9 10  1  0
 10 12  1  0
 10 11  1  1
 12 14  1  0
 12 13  1  6
 14 15  2  0
 17 16  1  6
 17 18  1  0
 17 19  1  0
 19 21  1  0
 20 14  1  0
 19 20  1  6
 21 22  1  0
 23 21  2  0
M  END
$$$$
