PIT.pdb
     RDKit          3D

 23 23  0  0  1  0  0  0  0  0999 V2000
    7.1297  -14.8484   20.7722 N   0  0  0  0  0  0  0  0  0  0  0  0
    6.2483  -13.8336   20.2274 C   0  0  0  0  0  0  0  0  0  0  0  0
    7.1649  -13.0278   19.2999 C   0  0  0  0  0  0  0  0  0  0  0  0
    8.4225  -12.9552   20.1438 C   0  0  0  0  0  0  0  0  0  0  0  0
    8.4502  -14.3024   20.7997 C   0  0  1  0  0  0  0  0  0  0  0  0
    8.9846  -14.2162   22.2136 C   0  0  0  0  0  0  0  0  0  0  0  0
   10.2119  -14.0803   22.3016 O   0  0  0  0  0  0  0  0  0  0  0  0
    5.8184  -11.7924   25.9008 C   0  0  0  0  0  0  0  0  0  0  0  0
    6.9808  -12.2672   25.0574 C   0  0  0  0  0  0  0  0  0  0  0  0
    7.3064  -13.6757   25.5154 C   0  0  2  0  0  0  0  0  0  0  0  0
    7.8035  -13.5008   26.9555 C   0  0  0  0  0  0  0  0  0  0  0  0
    8.4422  -14.2681   24.6964 C   0  0  2  0  0  0  0  0  0  0  0  0
    8.0899  -14.2930   23.2826 N   0  0  0  0  0  0  0  0  0  0  0  0
    8.7179  -15.6267   25.1818 C   0  0  0  0  0  0  0  0  0  0  0  0
    7.6963  -16.3890   25.4339 O   0  0  0  0  0  0  0  0  0  0  0  0
   10.6556  -18.5630   23.5795 C   0  0  0  0  0  0  0  0  0  0  0  0
   11.0564  -18.3968   25.0221 C   0  0  1  0  0  0  0  0  0  0  0  0
   12.2703  -17.7065   25.1200 O   0  0  0  0  0  0  0  0  0  0  0  0
   10.0130  -17.6618   25.8288 C   0  0  2  0  0  0  0  0  0  0  0  0
    9.9562  -16.2416   25.4148 N   0  0  0  0  0  0  0  0  0  0  0  0
   10.4340  -17.7297   27.2526 C   0  0  0  0  0  0  0  0  0  0  0  0
   10.3690  -18.9131   27.9577 O   0  0  0  0  0  0  0  0  0  0  0  0
   10.8650  -16.7063   27.8636 O   0  0  0  0  0  0  0  0  0  0  0  0
  1  5  1  0
  2  3  1  0
  2  1  1  0
  3  4  1  0
  5  4  1  0
  5  6  1  1
  6 13  1  0
  6  7  2  0
  8  9  1  0
  9 10  1  0
 10 12  1  0
 10 11  1  1
 12 14  1  0
 12 13  1  6
 14 15  2  0
 17 16  1  6
 17 18  1  0
 17 19  1  0
 19 21  1  0
 20 14  1  0
 19 20  1  6
 21 22  1  0
 23 21  2  0
M  END
$$$$
