PIT.pdb
     RDKit          3D

 23 23  0  0  1  0  0  0  0  0999 V2000
    6.8675  -14.7369   20.7733 N   0  0  0  0  0  0  0  0  0  0  0  0
    6.1720  -13.6341   20.1380 C   0  0  0  0  0  0  0  0  0  0  0  0
    7.2063  -13.0841   19.1494 C   0  0  0  0  0  0  0  0  0  0  0  0
    8.4654  -13.1605   19.9908 C   0  0  0  0  0  0  0  0  0  0  0  0
    8.2635  -14.4302   20.7608 C   0  0  1  0  0  0  0  0  0  0  0  0
    8.8184  -14.3176   22.1648 C   0  0  0  0  0  0  0  0  0  0  0  0
   10.0369  -14.1092   22.2306 O   0  0  0  0  0  0  0  0  0  0  0  0
    5.6580  -11.9143   25.8370 C   0  0  0  0  0  0  0  0  0  0  0  0
    6.8244  -12.3815   24.9949 C   0  0  0  0  0  0  0  0  0  0  0  0
    7.1737  -13.7789   25.4691 C   0  0  2  0  0  0  0  0  0  0  0  0
    7.6678  -13.5789   26.9071 C   0  0  0  0  0  0  0  0  0  0  0  0
    8.3193  -14.3615   24.6569 C   0  0  2  0  0  0  0  0  0  0  0  0
    7.9503  -14.4515   23.2500 N   0  0  0  0  0  0  0  0  0  0  0  0
    8.6490  -15.6906   25.1881 C   0  0  0  0  0  0  0  0  0  0  0  0
    7.6645  -16.5157   25.3845 O   0  0  0  0  0  0  0  0  0  0  0  0
   10.6446  -18.4705   23.6375 C   0  0  0  0  0  0  0  0  0  0  0  0
   11.0756  -18.3247   25.0736 C   0  0  1  0  0  0  0  0  0  0  0  0
   12.2726  -17.6036   25.1582 O   0  0  0  0  0  0  0  0  0  0  0  0
   10.0327  -17.6364   25.9209 C   0  0  2  0  0  0  0  0  0  0  0  0
    9.9055  -16.2171   25.5191 N   0  0  0  0  0  0  0  0  0  0  0  0
   10.5053  -17.6955   27.3289 C   0  0  0  0  0  0  0  0  0  0  0  0
   10.5306  -18.8881   28.0209 O   0  0  0  0  0  0  0  0  0  0  0  0
   10.8990  -16.6560   27.9378 O   0  0  0  0  0  0  0  0  0  0  0  0
  1  5  1  0
  2  3  1  0
  2  1  1  0
  3  4  1  0
  5  4  1  0
  5  6  1  1
  6 13  1  0
  6  7  2  0
  8  9  1  0
  9 10  1  0
 10 12  1  0
 10 11  1  1
 12 14  1  0
 12 13  1  6
 14 15  2  0
 17 16  1  6
 17 18  1  0
 17 19  1  0
 19 21  1  0
 20 14  1  0
 19 20  1  6
 21 22  1  0
 23 21  2  0
M  END
$$$$
