CSQ.pdb
     RDKit          3D

 22 21  0  0  1  0  0  0  0  0999 V2000
   18.2840  -13.6258  -16.3785 N   0  0  0  0  0  0  0  0  0  0  0  0
   18.0446  -12.1947  -16.3089 C   0  0  1  0  0  0  0  0  0  0  0  0
   16.7179  -11.9030  -15.6112 C   0  0  0  0  0  0  0  0  0  0  0  0
   15.3966  -12.3534  -16.7470 S   0  0  0  0  0  0  0  0  0  0  0  0
   19.1459  -11.5414  -15.5600 C   0  0  0  0  0  0  0  0  0  0  0  0
   19.6820  -12.0674  -14.5496 O   0  0  0  0  0  0  0  0  0  0  0  0
   22.9133   -8.7857  -15.8791 O   0  0  0  0  0  0  0  0  0  0  0  0
   21.7860   -9.3728  -16.4049 C   0  0  0  0  0  0  0  0  0  0  0  0
   20.7213   -9.6015  -15.3232 C   0  0  2  0  0  0  0  0  0  0  0  0
   19.6263  -10.2791  -15.9809 N   0  0  0  0  0  0  0  0  0  0  0  0
   20.2513   -8.2467  -14.9279 C   0  0  0  0  0  0  0  0  0  0  0  0
   19.5352   -7.6069  -15.7354 O   0  0  0  0  0  0  0  0  0  0  0  0
   18.2947   -6.2121   -9.6753 N   0  0  0  0  0  0  0  0  0  0  0  0
   18.2550   -4.9706  -10.3576 C   0  0  0  0  0  0  0  0  0  0  0  0
   17.8140   -3.9256   -9.8607 O   0  0  0  0  0  0  0  0  0  0  0  0
   18.7847   -4.9511  -11.7619 C   0  0  0  0  0  0  0  0  0  0  0  0
   19.3249   -6.3107  -12.0876 C   0  0  0  0  0  0  0  0  0  0  0  0
   20.0020   -6.3101  -13.4155 C   0  0  2  0  0  0  0  0  0  0  0  0
   20.5622   -7.6434  -13.7053 N   0  0  0  0  0  0  0  0  0  0  0  0
   21.0988   -5.3567  -13.5828 C   0  0  0  0  0  0  0  0  0  0  0  0
   22.2846   -5.6958  -13.3699 O   0  0  0  0  0  0  0  0  0  0  0  0
   20.8646   -4.0619  -13.9806 O   0  0  0  0  0  0  0  0  0  0  0  0
  2  1  1  1
  2  3  1  0
  3  4  1  0
  5  2  1  0
  5 10  1  0
  6  5  2  0
  8  7  1  0
  9  8  1  6
  9 10  1  0
  9 11  1  0
 11 19  1  0
 12 11  2  0
 13 14  1  0
 14 15  2  0
 16 17  1  0
 16 14  1  0
 18 17  1  1
 18 20  1  0
 19 18  1  0
 20 22  1  0
 21 20  2  0
M  END
$$$$
