CSQ.pdb
     RDKit          3D

 22 21  0  0  1  0  0  0  0  0999 V2000
   13.6629  -10.0361   -9.8463 N   0  0  0  0  0  0  0  0  0  0  0  0
   15.1035   -9.8490   -9.8623 C   0  0  1  0  0  0  0  0  0  0  0  0
   15.7874  -10.9908  -10.6110 C   0  0  0  0  0  0  0  0  0  0  0  0
   15.6323  -12.4722   -9.6010 S   0  0  0  0  0  0  0  0  0  0  0  0
   15.4313   -8.5630  -10.5250 C   0  0  0  0  0  0  0  0  0  0  0  0
   14.9214   -8.2188  -11.6234 O   0  0  0  0  0  0  0  0  0  0  0  0
   17.3393   -5.8626   -8.2593 O   0  0  0  0  0  0  0  0  0  0  0  0
   16.7166   -5.3838   -9.3884 C   0  0  0  0  0  0  0  0  0  0  0  0
   16.7405   -6.4212  -10.5195 C   0  0  2  0  0  0  0  0  0  0  0  0
   16.3494   -7.6756   -9.9159 N   0  0  0  0  0  0  0  0  0  0  0  0
   18.1652   -6.5350  -10.9316 C   0  0  0  0  0  0  0  0  0  0  0  0
   18.9010   -7.3400  -10.3113 O   0  0  0  0  0  0  0  0  0  0  0  0
   20.0971   -9.3201  -14.9954 N   0  0  0  0  0  0  0  0  0  0  0  0
   21.3720   -8.7261  -14.8224 C   0  0  0  0  0  0  0  0  0  0  0  0
   22.3978   -9.1181  -15.3949 O   0  0  0  0  0  0  0  0  0  0  0  0
   21.4540   -7.5562  -13.8856 C   0  0  0  0  0  0  0  0  0  0  0  0
   20.0908   -7.3040  -13.3160 C   0  0  0  0  0  0  0  0  0  0  0  0
   20.1046   -6.1246  -12.4048 C   0  0  2  0  0  0  0  0  0  0  0  0
   18.7335   -5.7947  -11.9730 N   0  0  0  0  0  0  0  0  0  0  0  0
   20.6732   -4.8918  -12.9498 C   0  0  0  0  0  0  0  0  0  0  0  0
   19.9345   -3.9734  -13.3709 O   0  0  0  0  0  0  0  0  0  0  0  0
   22.0329   -4.7005  -13.0146 O   0  0  0  0  0  0  0  0  0  0  0  0
  2  1  1  6
  2  3  1  0
  3  4  1  0
  5  2  1  0
  5 10  1  0
  6  5  2  0
  8  7  1  0
  9  8  1  1
  9 10  1  0
  9 11  1  0
 11 19  1  0
 12 11  2  0
 13 14  1  0
 14 15  2  0
 16 17  1  0
 16 14  1  0
 18 17  1  6
 18 20  1  0
 19 18  1  0
 20 22  1  0
 21 20  2  0
M  END
$$$$
