CSQ.pdb
     RDKit          3D

 22 21  0  0  1  0  0  0  0  0999 V2000
   23.6963  -20.2430  -14.7793 N   0  0  0  0  0  0  0  0  0  0  0  0
   23.8180  -19.3149  -15.8902 C   0  0  1  0  0  0  0  0  0  0  0  0
   22.6484  -19.4767  -16.8587 C   0  0  0  0  0  0  0  0  0  0  0  0
   22.9215  -20.9913  -17.7917 S   0  0  0  0  0  0  0  0  0  0  0  0
   23.8399  -17.9234  -15.3768 C   0  0  0  0  0  0  0  0  0  0  0  0
   22.9121  -17.4483  -14.6707 O   0  0  0  0  0  0  0  0  0  0  0  0
   26.5831  -13.8894  -15.3041 O   0  0  0  0  0  0  0  0  0  0  0  0
   26.3964  -15.2028  -15.6677 C   0  0  0  0  0  0  0  0  0  0  0  0
   25.0146  -15.7097  -15.2322 C   0  0  2  0  0  0  0  0  0  0  0  0
   24.9358  -17.0821  -15.6808 N   0  0  0  0  0  0  0  0  0  0  0  0
   24.0294  -14.9147  -16.0132 C   0  0  0  0  0  0  0  0  0  0  0  0
   23.6992  -15.3288  -17.1506 O   0  0  0  0  0  0  0  0  0  0  0  0
   18.7674  -14.9538  -15.7937 N   0  0  0  0  0  0  0  0  0  0  0  0
   18.6946  -13.7825  -16.5881 C   0  0  0  0  0  0  0  0  0  0  0  0
   17.6367  -13.3157  -17.0314 O   0  0  0  0  0  0  0  0  0  0  0  0
   19.9900  -13.0886  -16.8940 C   0  0  0  0  0  0  0  0  0  0  0  0
   21.0923  -13.7894  -16.1591 C   0  0  0  0  0  0  0  0  0  0  0  0
   22.3955  -13.0969  -16.3684 C   0  0  2  0  0  0  0  0  0  0  0  0
   23.4485  -13.7292  -15.5519 N   0  0  0  0  0  0  0  0  0  0  0  0
   22.4287  -11.6693  -16.0506 C   0  0  0  0  0  0  0  0  0  0  0  0
   22.9229  -11.2604  -14.9758 O   0  0  0  0  0  0  0  0  0  0  0  0
   21.9226  -10.7325  -16.9200 O   0  0  0  0  0  0  0  0  0  0  0  0
  2  1  1  1
  2  3  1  0
  3  4  1  0
  5  2  1  0
  5 10  1  0
  6  5  2  0
  8  7  1  0
  9  8  1  6
  9 10  1  0
  9 11  1  0
 11 19  1  0
 12 11  2  0
 13 14  1  0
 14 15  2  0
 16 17  1  0
 16 14  1  0
 18 17  1  1
 18 20  1  0
 19 18  1  0
 20 22  1  0
 21 20  2  0
M  END
$$$$
