CSQ.pdb
     RDKit          3D

 22 21  0  0  1  0  0  0  0  0999 V2000
   25.6730  -15.7881  -17.2875 N   0  0  0  0  0  0  0  0  0  0  0  0
   25.0484  -14.9801  -16.2544 C   0  0  1  0  0  0  0  0  0  0  0  0
   26.1061  -14.3230  -15.3704 C   0  0  0  0  0  0  0  0  0  0  0  0
   26.9984  -15.6366  -14.5236 S   0  0  0  0  0  0  0  0  0  0  0  0
   24.2124  -13.9279  -16.8824 C   0  0  0  0  0  0  0  0  0  0  0  0
   24.5664  -13.3141  -17.9231 O   0  0  0  0  0  0  0  0  0  0  0  0
   20.3879  -13.9292  -15.7993 O   0  0  0  0  0  0  0  0  0  0  0  0
   20.7022  -13.2934  -16.9778 C   0  0  0  0  0  0  0  0  0  0  0  0
   22.0749  -12.6118  -16.8936 C   0  0  2  0  0  0  0  0  0  0  0  0
   22.9666  -13.5864  -16.3056 N   0  0  0  0  0  0  0  0  0  0  0  0
   21.9115  -11.4957  -15.9238 C   0  0  0  0  0  0  0  0  0  0  0  0
   22.1135  -11.7303  -14.7079 O   0  0  0  0  0  0  0  0  0  0  0  0
   23.0063   -5.5802  -16.3823 N   0  0  0  0  0  0  0  0  0  0  0  0
   22.4134   -5.5568  -15.0953 C   0  0  0  0  0  0  0  0  0  0  0  0
   22.3661   -4.5490  -14.3772 O   0  0  0  0  0  0  0  0  0  0  0  0
   21.8163   -6.8418  -14.5999 C   0  0  0  0  0  0  0  0  0  0  0  0
   21.9697   -7.8825  -15.6675 C   0  0  0  0  0  0  0  0  0  0  0  0
   21.3896   -9.1837  -15.2293 C   0  0  2  0  0  0  0  0  0  0  0  0
   21.5449  -10.1968  -16.2899 N   0  0  0  0  0  0  0  0  0  0  0  0
   19.9706   -9.1732  -14.8736 C   0  0  0  0  0  0  0  0  0  0  0  0
   19.0943   -9.4804  -15.7128 O   0  0  0  0  0  0  0  0  0  0  0  0
   19.5542   -8.8295  -13.6095 O   0  0  0  0  0  0  0  0  0  0  0  0
  2  1  1  6
  2  3  1  0
  3  4  1  0
  5  2  1  0
  5 10  1  0
  6  5  2  0
  8  7  1  0
  9  8  1  1
  9 10  1  0
  9 11  1  0
 11 19  1  0
 12 11  2  0
 13 14  1  0
 14 15  2  0
 16 17  1  0
 16 14  1  0
 18 17  1  6
 18 20  1  0
 19 18  1  0
 20 22  1  0
 21 20  2  0
M  END
$$$$
