CSQ.pdb
     RDKit          3D

 22 21  0  0  1  0  0  0  0  0999 V2000
   17.8461  -12.3909  -17.0199 N   0  0  0  0  0  0  0  0  0  0  0  0
   18.3620  -11.2973  -17.8251 C   0  0  1  0  0  0  0  0  0  0  0  0
   17.2244  -10.5677  -18.5361 C   0  0  0  0  0  0  0  0  0  0  0  0
   16.6718  -11.6141  -19.8920 S   0  0  0  0  0  0  0  0  0  0  0  0
   19.0907  -10.3404  -16.9570 C   0  0  0  0  0  0  0  0  0  0  0  0
   18.5824   -9.8504  -15.9146 O   0  0  0  0  0  0  0  0  0  0  0  0
   23.3850   -8.0853  -16.4636 O   0  0  0  0  0  0  0  0  0  0  0  0
   22.5985   -9.0563  -17.0385 C   0  0  0  0  0  0  0  0  0  0  0  0
   21.1495   -8.9660  -16.5402 C   0  0  2  0  0  0  0  0  0  0  0  0
   20.4078   -9.9508  -17.2958 N   0  0  0  0  0  0  0  0  0  0  0  0
   20.6674   -7.6185  -16.9456 C   0  0  0  0  0  0  0  0  0  0  0  0
   20.2546   -7.4633  -18.1202 O   0  0  0  0  0  0  0  0  0  0  0  0
   16.0248   -5.2540  -16.8096 N   0  0  0  0  0  0  0  0  0  0  0  0
   16.6031   -3.9839  -17.0561 C   0  0  0  0  0  0  0  0  0  0  0  0
   15.9454   -2.9636  -17.3006 O   0  0  0  0  0  0  0  0  0  0  0  0
   18.1012   -3.9004  -17.0119 C   0  0  0  0  0  0  0  0  0  0  0  0
   18.6449   -5.2533  -16.6649 C   0  0  0  0  0  0  0  0  0  0  0  0
   20.1342   -5.2303  -16.6104 C   0  0  2  0  0  0  0  0  0  0  0  0
   20.6476   -6.5117  -16.0911 N   0  0  0  0  0  0  0  0  0  0  0  0
   20.7361   -4.1810  -15.7876 C   0  0  0  0  0  0  0  0  0  0  0  0
   21.2115   -4.4410  -14.6594 O   0  0  0  0  0  0  0  0  0  0  0  0
   20.8017   -2.8799  -16.2259 O   0  0  0  0  0  0  0  0  0  0  0  0
  2  1  1  1
  2  3  1  0
  3  4  1  0
  5  2  1  0
  5 10  1  0
  6  5  2  0
  8  7  1  0
  9  8  1  6
  9 10  1  0
  9 11  1  0
 11 19  1  0
 12 11  2  0
 13 14  1  0
 14 15  2  0
 16 17  1  0
 16 14  1  0
 18 17  1  1
 18 20  1  0
 19 18  1  0
 20 22  1  0
 21 20  2  0
M  END
$$$$
