CSQ.pdb
     RDKit          3D

 22 21  0  0  1  0  0  0  0  0999 V2000
   17.1819  -15.2895  -15.1361 N   0  0  0  0  0  0  0  0  0  0  0  0
   16.7712  -14.1292  -15.9077 C   0  0  1  0  0  0  0  0  0  0  0  0
   15.2501  -13.9935  -15.9094 C   0  0  0  0  0  0  0  0  0  0  0  0
   14.5861  -15.3390  -16.9032 S   0  0  0  0  0  0  0  0  0  0  0  0
   17.3714  -12.9048  -15.3238 C   0  0  0  0  0  0  0  0  0  0  0  0
   17.2822  -12.6254  -14.0994 O   0  0  0  0  0  0  0  0  0  0  0  0
   19.5070  -10.4985  -17.9021 O   0  0  0  0  0  0  0  0  0  0  0  0
   19.9197  -10.5638  -16.5916 C   0  0  0  0  0  0  0  0  0  0  0  0
   18.7372  -10.8237  -15.6481 C   0  0  2  0  0  0  0  0  0  0  0  0
   18.0751  -12.0040  -16.1573 N   0  0  0  0  0  0  0  0  0  0  0  0
   17.8175   -9.6685  -15.8273 C   0  0  0  0  0  0  0  0  0  0  0  0
   16.7558   -9.8482  -16.4713 O   0  0  0  0  0  0  0  0  0  0  0  0
   13.4920   -8.3198  -13.7571 N   0  0  0  0  0  0  0  0  0  0  0  0
   13.4816   -7.0564  -14.3991 C   0  0  0  0  0  0  0  0  0  0  0  0
   12.4912   -6.3143  -14.4427 O   0  0  0  0  0  0  0  0  0  0  0  0
   14.7585   -6.6185  -15.0555 C   0  0  0  0  0  0  0  0  0  0  0  0
   15.7491   -7.7398  -14.9687 C   0  0  0  0  0  0  0  0  0  0  0  0
   17.0639   -7.3338  -15.5418 C   0  0  2  0  0  0  0  0  0  0  0  0
   18.0683   -8.3904  -15.3181 N   0  0  0  0  0  0  0  0  0  0  0  0
   17.6437   -6.0964  -15.0195 C   0  0  0  0  0  0  0  0  0  0  0  0
   17.1444   -4.9833  -15.2992 O   0  0  0  0  0  0  0  0  0  0  0  0
   18.7506   -6.1152  -14.2048 O   0  0  0  0  0  0  0  0  0  0  0  0
  2  1  1  1
  2  3  1  0
  3  4  1  0
  5  2  1  0
  5 10  1  0
  6  5  2  0
  8  7  1  0
  9  8  1  6
  9 10  1  0
  9 11  1  0
 11 19  1  0
 12 11  2  0
 13 14  1  0
 14 15  2  0
 16 17  1  0
 16 14  1  0
 18 17  1  1
 18 20  1  0
 19 18  1  0
 20 22  1  0
 21 20  2  0
M  END
$$$$
