VKD.pdb
     RDKit          3D

 25 24  0  0  1  0  0  0  0  0999 V2000
   23.2525  -13.5003  -17.9234 C   0  0  0  0  0  0  0  0  0  0  0  0
   23.9671  -12.8762  -16.7493 C   0  0  2  0  0  0  0  0  0  0  0  0
   23.8764  -11.3762  -16.8412 C   0  0  0  0  0  0  0  0  0  0  0  0
   25.4274  -13.3264  -16.7306 C   0  0  2  0  0  0  0  0  0  0  0  0
   25.9738  -12.9743  -18.0193 N   0  0  0  0  0  0  0  0  0  0  0  0
   25.4275  -14.7813  -16.5776 C   0  0  0  0  0  0  0  0  0  0  0  0
   25.2083  -15.5044  -17.6027 O   0  0  0  0  0  0  0  0  0  0  0  0
   25.6615  -15.4424  -15.3325 N   0  0  0  0  0  0  0  0  0  0  0  0
   25.5831  -16.8692  -15.1799 C   0  0  1  0  0  0  0  0  0  0  0  0
   26.6698  -17.4506  -14.3521 C   0  0  0  0  0  0  0  0  0  0  0  0
   26.6713  -18.9180  -14.1424 C   0  0  0  0  0  0  0  0  0  0  0  0
   27.4451  -19.6232  -15.1928 C   0  0  0  0  0  0  0  0  0  0  0  0
   27.4448  -21.1264  -15.0371 C   0  0  0  0  0  0  0  0  0  0  0  0
   28.1741  -21.8125  -16.0442 N   0  0  0  0  0  0  0  0  0  0  0  0
   24.2187  -17.3667  -14.9018 C   0  0  0  0  0  0  0  0  0  0  0  0
   23.5668  -17.0203  -13.8613 O   0  0  0  0  0  0  0  0  0  0  0  0
   23.5165  -18.2655  -15.7625 N   0  0  0  0  0  0  0  0  0  0  0  0
   22.1722  -18.7053  -15.4776 C   0  0  1  0  0  0  0  0  0  0  0  0
   21.3620  -18.6697  -16.7608 C   0  0  0  0  0  0  0  0  0  0  0  0
   20.1431  -17.8419  -16.6573 C   0  0  0  0  0  0  0  0  0  0  0  0
   19.3744  -17.7081  -17.6310 O   0  0  0  0  0  0  0  0  0  0  0  0
   22.2145  -20.0789  -14.9458 C   0  0  0  0  0  0  0  0  0  0  0  0
   23.0459  -20.8866  -15.4035 O   0  0  0  0  0  0  0  0  0  0  0  0
   19.8084  -17.1870  -15.4841 O   0  0  0  0  0  0  0  0  0  0  0  0
   21.3464  -20.4664  -13.9542 O   0  0  0  0  0  0  0  0  0  0  0  0
  2  1  1  6
  3  2  1  0
  4  2  1  0
  4  5  1  6
  6  7  2  0
  6  4  1  0
  8  6  1  0
  9  8  1  0
  9 10  1  1
 11 10  1  0
 11 12  1  0
 13 12  1  0
 13 14  1  0
 15  9  1  0
 16 15  2  0
 17 15  1  0
 18 22  1  0
 18 17  1  0
 18 19  1  6
 20 21  2  0
 20 19  1  0
 22 25  1  0
 23 22  2  0
 24 20  1  0
M  END
$$$$
