VKD.pdb
     RDKit          3D

 25 24  0  0  1  0  0  0  0  0999 V2000
   16.1651  -13.7878    6.5117 C   0  0  0  0  0  0  0  0  0  0  0  0
   16.2002  -12.6133    5.5641 C   0  0  2  0  0  0  0  0  0  0  0  0
   14.9724  -12.6294    4.6929 C   0  0  0  0  0  0  0  0  0  0  0  0
   17.4662  -12.6722    4.7101 C   0  0  2  0  0  0  0  0  0  0  0  0
   17.3806  -13.8943    3.9471 N   0  0  0  0  0  0  0  0  0  0  0  0
   18.6024  -12.7450    5.6289 C   0  0  0  0  0  0  0  0  0  0  0  0
   19.1649  -13.8717    5.8183 O   0  0  0  0  0  0  0  0  0  0  0  0
   19.1208  -11.6140    6.3316 N   0  0  0  0  0  0  0  0  0  0  0  0
   20.2105  -11.7069    7.2639 C   0  0  1  0  0  0  0  0  0  0  0  0
   20.9348  -10.4289    7.4787 C   0  0  0  0  0  0  0  0  0  0  0  0
   22.1469  -10.4545    8.3316 C   0  0  0  0  0  0  0  0  0  0  0  0
   22.7928   -9.1218    8.4102 C   0  0  0  0  0  0  0  0  0  0  0  0
   24.0736   -9.1174    9.2123 C   0  0  0  0  0  0  0  0  0  0  0  0
   24.6606   -7.8325    9.3576 N   0  0  0  0  0  0  0  0  0  0  0  0
   19.8919  -12.4845    8.4806 C   0  0  0  0  0  0  0  0  0  0  0  0
   18.7682  -12.3860    9.0765 O   0  0  0  0  0  0  0  0  0  0  0  0
   20.8001  -13.4051    9.0883 N   0  0  0  0  0  0  0  0  0  0  0  0
   20.4587  -14.1437   10.2798 C   0  0  1  0  0  0  0  0  0  0  0  0
   20.0332  -15.5458    9.8829 C   0  0  0  0  0  0  0  0  0  0  0  0
   19.4510  -16.3162   11.0006 C   0  0  0  0  0  0  0  0  0  0  0  0
   19.1232  -15.7535   12.0649 O   0  0  0  0  0  0  0  0  0  0  0  0
   21.6350  -14.2052   11.1652 C   0  0  0  0  0  0  0  0  0  0  0  0
   21.5409  -14.7777   12.2682 O   0  0  0  0  0  0  0  0  0  0  0  0
   19.2479  -17.6829   10.9113 O   0  0  0  0  0  0  0  0  0  0  0  0
   22.8250  -13.6378   10.7791 O   0  0  0  0  0  0  0  0  0  0  0  0
  2  1  1  1
  3  2  1  0
  4  2  1  0
  4  5  1  6
  6  7  2  0
  6  4  1  0
  8  6  1  0
  9  8  1  0
  9 10  1  1
 11 10  1  0
 11 12  1  0
 13 12  1  0
 13 14  1  0
 15  9  1  0
 16 15  2  0
 17 15  1  0
 18 22  1  0
 18 17  1  0
 18 19  1  6
 20 21  2  0
 20 19  1  0
 22 25  1  0
 23 22  2  0
 24 20  1  0
M  END
$$$$
