VKD.pdb
     RDKit          3D

 25 24  0  0  1  0  0  0  0  0999 V2000
   15.6555  -12.9606  -19.2972 C   0  0  0  0  0  0  0  0  0  0  0  0
   16.5985  -12.1964  -18.3999 C   0  0  2  0  0  0  0  0  0  0  0  0
   16.9720  -10.8920  -19.0525 C   0  0  0  0  0  0  0  0  0  0  0  0
   17.8456  -13.0350  -18.1221 C   0  0  2  0  0  0  0  0  0  0  0  0
   17.3943  -14.2003  -17.3999 N   0  0  0  0  0  0  0  0  0  0  0  0
   18.7207  -12.2344  -17.2656 C   0  0  0  0  0  0  0  0  0  0  0  0
   18.3178  -11.9252  -16.0978 O   0  0  0  0  0  0  0  0  0  0  0  0
   20.0127  -11.7761  -17.6687 N   0  0  0  0  0  0  0  0  0  0  0  0
   20.8245  -10.9148  -16.8535 C   0  0  1  0  0  0  0  0  0  0  0  0
   22.2596  -11.2928  -16.8151 C   0  0  0  0  0  0  0  0  0  0  0  0
   22.6254  -12.5550  -16.1293 C   0  0  0  0  0  0  0  0  0  0  0  0
   24.0791  -12.8324  -16.2256 C   0  0  0  0  0  0  0  0  0  0  0  0
   24.4823  -14.1592  -15.6250 C   0  0  0  0  0  0  0  0  0  0  0  0
   25.8689  -14.4458  -15.7335 N   0  0  0  0  0  0  0  0  0  0  0  0
   20.5373   -9.4755  -17.0340 C   0  0  0  0  0  0  0  0  0  0  0  0
   20.5533   -8.9168  -18.1808 O   0  0  0  0  0  0  0  0  0  0  0  0
   20.2180   -8.5940  -15.9557 N   0  0  0  0  0  0  0  0  0  0  0  0
   19.9189   -7.1989  -16.1702 C   0  0  1  0  0  0  0  0  0  0  0  0
   18.5810   -6.8796  -15.5279 C   0  0  0  0  0  0  0  0  0  0  0  0
   18.2247   -5.4482  -15.6051 C   0  0  0  0  0  0  0  0  0  0  0  0
   17.7171   -4.8604  -14.6285 O   0  0  0  0  0  0  0  0  0  0  0  0
   20.9796   -6.3770  -15.5614 C   0  0  0  0  0  0  0  0  0  0  0  0
   21.8497   -6.9251  -14.8572 O   0  0  0  0  0  0  0  0  0  0  0  0
   18.4386   -4.7084  -16.7559 O   0  0  0  0  0  0  0  0  0  0  0  0
   21.0106   -5.0193  -15.7681 O   0  0  0  0  0  0  0  0  0  0  0  0
  2  1  1  6
  3  2  1  0
  4  2  1  0
  4  5  1  1
  6  7  2  0
  6  4  1  0
  8  6  1  0
  9  8  1  0
  9 10  1  6
 11 10  1  0
 11 12  1  0
 13 12  1  0
 13 14  1  0
 15  9  1  0
 16 15  2  0
 17 15  1  0
 18 22  1  0
 18 17  1  0
 18 19  1  1
 20 21  2  0
 20 19  1  0
 22 25  1  0
 23 22  2  0
 24 20  1  0
M  END
$$$$
