VKD.pdb
     RDKit          3D

 25 24  0  0  1  0  0  0  0  0999 V2000
   22.8924  -24.9299  -18.3963 C   0  0  0  0  0  0  0  0  0  0  0  0
   21.9188  -25.6510  -17.4960 C   0  0  2  0  0  0  0  0  0  0  0  0
   20.5557  -25.6675  -18.1352 C   0  0  0  0  0  0  0  0  0  0  0  0
   21.8648  -24.9635  -16.1322 C   0  0  2  0  0  0  0  0  0  0  0  0
   23.2236  -24.9245  -15.6471 N   0  0  0  0  0  0  0  0  0  0  0  0
   21.0541  -25.8089  -15.2556 C   0  0  0  0  0  0  0  0  0  0  0  0
   19.8192  -25.9633  -15.5255 O   0  0  0  0  0  0  0  0  0  0  0  0
   21.5740  -26.4767  -14.1043 N   0  0  0  0  0  0  0  0  0  0  0  0
   20.7396  -27.1670  -13.1596 C   0  0  1  0  0  0  0  0  0  0  0  0
   21.4543  -28.1877  -12.3524 C   0  0  0  0  0  0  0  0  0  0  0  0
   20.6624  -28.9864  -11.3870 C   0  0  0  0  0  0  0  0  0  0  0  0
   21.5144  -29.9305  -10.6240 C   0  0  0  0  0  0  0  0  0  0  0  0
   20.7382  -30.8120   -9.6732 C   0  0  0  0  0  0  0  0  0  0  0  0
   21.5476  -31.7002   -8.9165 N   0  0  0  0  0  0  0  0  0  0  0  0
   19.8181  -26.2810  -12.4165 C   0  0  0  0  0  0  0  0  0  0  0  0
   20.2376  -25.3471  -11.6553 O   0  0  0  0  0  0  0  0  0  0  0  0
   18.3948  -26.3880  -12.4851 N   0  0  0  0  0  0  0  0  0  0  0  0
   17.5246  -25.5247  -11.7240 C   0  0  1  0  0  0  0  0  0  0  0  0
   16.9063  -24.5024  -12.6604 C   0  0  0  0  0  0  0  0  0  0  0  0
   17.3536  -23.1206  -12.3916 C   0  0  0  0  0  0  0  0  0  0  0  0
   17.9343  -22.8307  -11.3260 O   0  0  0  0  0  0  0  0  0  0  0  0
   16.4679  -26.3358  -11.0941 C   0  0  0  0  0  0  0  0  0  0  0  0
   15.7327  -25.8186  -10.2309 O   0  0  0  0  0  0  0  0  0  0  0  0
   17.1474  -22.1007  -13.3052 O   0  0  0  0  0  0  0  0  0  0  0  0
   16.2933  -27.6497  -11.4549 O   0  0  0  0  0  0  0  0  0  0  0  0
  2  1  1  6
  3  2  1  0
  4  2  1  0
  4  5  1  1
  6  7  2  0
  6  4  1  0
  8  6  1  0
  9  8  1  0
  9 10  1  1
 11 10  1  0
 11 12  1  0
 13 12  1  0
 13 14  1  0
 15  9  1  0
 16 15  2  0
 17 15  1  0
 18 22  1  0
 18 17  1  0
 18 19  1  6
 20 21  2  0
 20 19  1  0
 22 25  1  0
 23 22  2  0
 24 20  1  0
M  END
$$$$
