VKD.pdb
     RDKit          3D

 25 24  0  0  1  0  0  0  0  0999 V2000
   14.8929  -15.7131  -16.0451 C   0  0  0  0  0  0  0  0  0  0  0  0
   15.6432  -14.8566  -15.0543 C   0  0  2  0  0  0  0  0  0  0  0  0
   15.2775  -15.2664  -13.6525 C   0  0  0  0  0  0  0  0  0  0  0  0
   15.3134  -13.3826  -15.2869 C   0  0  2  0  0  0  0  0  0  0  0  0
   14.4538  -13.3404  -16.4456 N   0  0  0  0  0  0  0  0  0  0  0  0
   16.5734  -12.7013  -15.5846 C   0  0  0  0  0  0  0  0  0  0  0  0
   17.4256  -12.5549  -14.6498 O   0  0  0  0  0  0  0  0  0  0  0  0
   16.9044  -12.1866  -16.8759 N   0  0  0  0  0  0  0  0  0  0  0  0
   18.1677  -11.5669  -17.1684 C   0  0  1  0  0  0  0  0  0  0  0  0
   18.9346  -12.2356  -18.2495 C   0  0  0  0  0  0  0  0  0  0  0  0
   20.2844  -11.7118  -18.5671 C   0  0  0  0  0  0  0  0  0  0  0  0
   20.9433  -12.5006  -19.6364 C   0  0  0  0  0  0  0  0  0  0  0  0
   22.3643  -12.0696  -19.9169 C   0  0  0  0  0  0  0  0  0  0  0  0
   23.3404  -12.7614  -19.1518 N   0  0  0  0  0  0  0  0  0  0  0  0
   18.1091  -10.0907  -17.2321 C   0  0  0  0  0  0  0  0  0  0  0  0
   17.3305   -9.4743  -18.0329 O   0  0  0  0  0  0  0  0  0  0  0  0
   18.9062   -9.2340  -16.4121 N   0  0  0  0  0  0  0  0  0  0  0  0
   18.8681   -7.7975  -16.5418 C   0  0  1  0  0  0  0  0  0  0  0  0
   17.9065   -7.2370  -15.5096 C   0  0  0  0  0  0  0  0  0  0  0  0
   17.8704   -5.7606  -15.4883 C   0  0  0  0  0  0  0  0  0  0  0  0
   18.6029   -5.0904  -16.2441 O   0  0  0  0  0  0  0  0  0  0  0  0
   20.2199   -7.2551  -16.3188 C   0  0  0  0  0  0  0  0  0  0  0  0
   21.1106   -7.9997  -15.8657 O   0  0  0  0  0  0  0  0  0  0  0  0
   17.0284   -5.0678  -14.6349 O   0  0  0  0  0  0  0  0  0  0  0  0
   20.4970   -5.9410  -16.6080 O   0  0  0  0  0  0  0  0  0  0  0  0
  2  1  1  6
  3  2  1  0
  4  2  1  0
  4  5  1  6
  6  7  2  0
  6  4  1  0
  8  6  1  0
  9  8  1  0
  9 10  1  6
 11 10  1  0
 11 12  1  0
 13 12  1  0
 13 14  1  0
 15  9  1  0
 16 15  2  0
 17 15  1  0
 18 22  1  0
 18 17  1  0
 18 19  1  1
 20 21  2  0
 20 19  1  0
 22 25  1  0
 23 22  2  0
 24 20  1  0
M  END
$$$$
