VKD.pdb
     RDKit          3D

 25 24  0  0  1  0  0  0  0  0999 V2000
   17.5718  -15.2049  -15.5456 C   0  0  0  0  0  0  0  0  0  0  0  0
   16.4836  -14.7389  -14.6090 C   0  0  2  0  0  0  0  0  0  0  0  0
   15.3987  -15.7803  -14.5362 C   0  0  0  0  0  0  0  0  0  0  0  0
   15.9167  -13.4050  -15.0937 C   0  0  2  0  0  0  0  0  0  0  0  0
   15.2139  -13.6887  -16.3220 N   0  0  0  0  0  0  0  0  0  0  0  0
   17.0550  -12.5284  -15.3699 C   0  0  0  0  0  0  0  0  0  0  0  0
   17.8044  -12.1756  -14.4027 O   0  0  0  0  0  0  0  0  0  0  0  0
   17.3759  -12.0418  -16.6745 N   0  0  0  0  0  0  0  0  0  0  0  0
   18.4377  -11.1046  -16.9183 C   0  0  1  0  0  0  0  0  0  0  0  0
   19.3435  -11.4907  -18.0294 C   0  0  0  0  0  0  0  0  0  0  0  0
   20.0221  -12.8059  -17.9447 C   0  0  0  0  0  0  0  0  0  0  0  0
   20.8754  -13.0622  -19.1303 C   0  0  0  0  0  0  0  0  0  0  0  0
   21.6657  -14.3471  -19.0396 C   0  0  0  0  0  0  0  0  0  0  0  0
   22.3285  -14.7048  -20.2436 N   0  0  0  0  0  0  0  0  0  0  0  0
   18.0045   -9.6910  -16.8960 C   0  0  0  0  0  0  0  0  0  0  0  0
   17.1458   -9.2291  -17.7188 O   0  0  0  0  0  0  0  0  0  0  0  0
   18.4997   -8.7292  -15.9624 N   0  0  0  0  0  0  0  0  0  0  0  0
   18.0747   -7.3506  -15.9854 C   0  0  1  0  0  0  0  0  0  0  0  0
   17.1118   -7.1147  -14.8358 C   0  0  0  0  0  0  0  0  0  0  0  0
   16.7781   -5.6895  -14.6385 C   0  0  0  0  0  0  0  0  0  0  0  0
   16.6821   -4.9130  -15.6104 O   0  0  0  0  0  0  0  0  0  0  0  0
   19.2535   -6.4780  -15.8431 C   0  0  0  0  0  0  0  0  0  0  0  0
   19.1255   -5.2476  -15.9949 O   0  0  0  0  0  0  0  0  0  0  0  0
   16.5606   -5.1634  -13.3762 O   0  0  0  0  0  0  0  0  0  0  0  0
   20.4825   -7.0145  -15.5450 O   0  0  0  0  0  0  0  0  0  0  0  0
  2  1  1  6
  3  2  1  0
  4  2  1  0
  4  5  1  6
  6  7  2  0
  6  4  1  0
  8  6  1  0
  9  8  1  0
  9 10  1  6
 11 10  1  0
 11 12  1  0
 13 12  1  0
 13 14  1  0
 15  9  1  0
 16 15  2  0
 17 15  1  0
 18 22  1  0
 18 17  1  0
 18 19  1  1
 20 21  2  0
 20 19  1  0
 22 25  1  0
 23 22  2  0
 24 20  1  0
M  END
$$$$
