VKD.pdb
     RDKit          3D

 25 24  0  0  1  0  0  0  0  0999 V2000
   13.5326  -14.8266  -15.4051 C   0  0  0  0  0  0  0  0  0  0  0  0
   14.6785  -13.8483  -15.3148 C   0  0  2  0  0  0  0  0  0  0  0  0
   14.4320  -12.6929  -16.2481 C   0  0  0  0  0  0  0  0  0  0  0  0
   15.9903  -14.5506  -15.6633 C   0  0  2  0  0  0  0  0  0  0  0  0
   16.1688  -15.5848  -14.6725 N   0  0  0  0  0  0  0  0  0  0  0  0
   17.0574  -13.5580  -15.5354 C   0  0  0  0  0  0  0  0  0  0  0  0
   17.2454  -13.0040  -14.4044 O   0  0  0  0  0  0  0  0  0  0  0  0
   17.9076  -13.1719  -16.6170 N   0  0  0  0  0  0  0  0  0  0  0  0
   18.9611  -12.2049  -16.4744 C   0  0  1  0  0  0  0  0  0  0  0  0
   20.2038  -12.5498  -17.2099 C   0  0  0  0  0  0  0  0  0  0  0  0
   21.0672  -13.6163  -16.6493 C   0  0  0  0  0  0  0  0  0  0  0  0
   22.2584  -13.8628  -17.4977 C   0  0  0  0  0  0  0  0  0  0  0  0
   21.9787  -14.7493  -18.6892 C   0  0  0  0  0  0  0  0  0  0  0  0
   23.1011  -14.9523  -19.5353 N   0  0  0  0  0  0  0  0  0  0  0  0
   18.5059  -10.8029  -16.5915 C   0  0  0  0  0  0  0  0  0  0  0  0
   17.7040  -10.4219  -17.5077 O   0  0  0  0  0  0  0  0  0  0  0  0
   18.9153   -9.7640  -15.7000 N   0  0  0  0  0  0  0  0  0  0  0  0
   18.4786   -8.3986  -15.8636 C   0  0  1  0  0  0  0  0  0  0  0  0
   17.2751   -8.1580  -14.9703 C   0  0  0  0  0  0  0  0  0  0  0  0
   16.8236   -6.7517  -14.9673 C   0  0  0  0  0  0  0  0  0  0  0  0
   17.0446   -6.0095  -13.9890 O   0  0  0  0  0  0  0  0  0  0  0  0
   19.5761   -7.4906  -15.4865 C   0  0  0  0  0  0  0  0  0  0  0  0
   20.6089   -7.9605  -14.9709 O   0  0  0  0  0  0  0  0  0  0  0  0
   16.1426   -6.2062  -16.0425 O   0  0  0  0  0  0  0  0  0  0  0  0
   19.4634   -6.1385  -15.7015 O   0  0  0  0  0  0  0  0  0  0  0  0
  2  1  1  6
  3  2  1  0
  4  2  1  0
  4  5  1  1
  6  7  2  0
  6  4  1  0
  8  6  1  0
  9  8  1  0
  9 10  1  6
 11 10  1  0
 11 12  1  0
 13 12  1  0
 13 14  1  0
 15  9  1  0
 16 15  2  0
 17 15  1  0
 18 22  1  0
 18 17  1  0
 18 19  1  1
 20 21  2  0
 20 19  1  0
 22 25  1  0
 23 22  2  0
 24 20  1  0
M  END
$$$$
