VKD.pdb
     RDKit          3D

 25 24  0  0  1  0  0  0  0  0999 V2000
   20.1400  -13.2439  -19.8932 C   0  0  0  0  0  0  0  0  0  0  0  0
   21.4914  -12.7056  -20.2961 C   0  0  2  0  0  0  0  0  0  0  0  0
   22.3275  -13.8172  -20.8722 C   0  0  0  0  0  0  0  0  0  0  0  0
   22.1852  -12.0834  -19.0847 C   0  0  2  0  0  0  0  0  0  0  0  0
   22.4522  -13.1692  -18.1721 N   0  0  0  0  0  0  0  0  0  0  0  0
   21.2353  -11.1520  -18.4760 C   0  0  0  0  0  0  0  0  0  0  0  0
   20.9048  -10.1057  -19.1222 O   0  0  0  0  0  0  0  0  0  0  0  0
   20.6528  -11.3517  -17.1866 N   0  0  0  0  0  0  0  0  0  0  0  0
   19.7501  -10.4097  -16.5839 C   0  0  1  0  0  0  0  0  0  0  0  0
   18.4902  -11.0138  -16.0821 C   0  0  0  0  0  0  0  0  0  0  0  0
   17.4857  -10.1123  -15.4694 C   0  0  0  0  0  0  0  0  0  0  0  0
   16.2774  -10.8518  -15.0307 C   0  0  0  0  0  0  0  0  0  0  0  0
   15.2303   -9.9718  -14.3881 C   0  0  0  0  0  0  0  0  0  0  0  0
   14.1632  -10.6886  -13.7848 N   0  0  0  0  0  0  0  0  0  0  0  0
   20.4103   -9.4424  -15.6811 C   0  0  0  0  0  0  0  0  0  0  0  0
   21.1199   -9.8131  -14.6878 O   0  0  0  0  0  0  0  0  0  0  0  0
   20.3162   -8.0254  -15.8393 N   0  0  0  0  0  0  0  0  0  0  0  0
   20.9491   -7.1090  -14.9220 C   0  0  1  0  0  0  0  0  0  0  0  0
   21.4487   -5.9041  -15.6987 C   0  0  0  0  0  0  0  0  0  0  0  0
   22.0207   -4.8509  -14.8355 C   0  0  0  0  0  0  0  0  0  0  0  0
   22.7560   -5.1422  -13.8705 O   0  0  0  0  0  0  0  0  0  0  0  0
   19.9681   -6.6839  -13.9080 C   0  0  0  0  0  0  0  0  0  0  0  0
   18.7508   -6.7672  -14.1620 O   0  0  0  0  0  0  0  0  0  0  0  0
   21.7651   -3.5091  -15.0621 O   0  0  0  0  0  0  0  0  0  0  0  0
   20.3903   -6.2009  -12.6932 O   0  0  0  0  0  0  0  0  0  0  0  0
  2  1  1  1
  3  2  1  0
  4  2  1  0
  4  5  1  1
  6  7  2  0
  6  4  1  0
  8  6  1  0
  9  8  1  0
  9 10  1  1
 11 10  1  0
 11 12  1  0
 13 12  1  0
 13 14  1  0
 15  9  1  0
 16 15  2  0
 17 15  1  0
 18 22  1  0
 18 17  1  0
 18 19  1  6
 20 21  2  0
 20 19  1  0
 22 25  1  0
 23 22  2  0
 24 20  1  0
M  END
$$$$
