VKD.pdb
     RDKit          3D

 25 24  0  0  1  0  0  0  0  0999 V2000
   24.3625  -20.5641   -7.6543 C   0  0  0  0  0  0  0  0  0  0  0  0
   24.3769  -20.2188   -9.1237 C   0  0  2  0  0  0  0  0  0  0  0  0
   23.2856  -20.9764   -9.8321 C   0  0  0  0  0  0  0  0  0  0  0  0
   25.7417  -20.5556   -9.7234 C   0  0  2  0  0  0  0  0  0  0  0  0
   26.6898  -19.6723   -9.0876 N   0  0  0  0  0  0  0  0  0  0  0  0
   25.6703  -20.2532  -11.1530 C   0  0  0  0  0  0  0  0  0  0  0  0
   25.5755  -19.0366  -11.5170 O   0  0  0  0  0  0  0  0  0  0  0  0
   25.7013  -21.2541  -12.1723 N   0  0  0  0  0  0  0  0  0  0  0  0
   25.6120  -20.9445  -13.5728 C   0  0  1  0  0  0  0  0  0  0  0  0
   26.7577  -21.4393  -14.3769 C   0  0  0  0  0  0  0  0  0  0  0  0
   26.7778  -21.1192  -15.8241 C   0  0  0  0  0  0  0  0  0  0  0  0
   27.8968  -21.7973  -16.5223 C   0  0  0  0  0  0  0  0  0  0  0  0
   27.9917  -21.4511  -17.9902 C   0  0  0  0  0  0  0  0  0  0  0  0
   29.1373  -21.9850  -18.6376 N   0  0  0  0  0  0  0  0  0  0  0  0
   24.2693  -21.1685  -14.1503 C   0  0  0  0  0  0  0  0  0  0  0  0
   23.5111  -22.1183  -13.7621 O   0  0  0  0  0  0  0  0  0  0  0  0
   23.7070  -20.3512  -15.1787 N   0  0  0  0  0  0  0  0  0  0  0  0
   22.2900  -20.3280  -15.4493 C   0  0  1  0  0  0  0  0  0  0  0  0
   21.5728  -19.7198  -14.2576 C   0  0  0  0  0  0  0  0  0  0  0  0
   20.1154  -19.5892  -14.4593 C   0  0  0  0  0  0  0  0  0  0  0  0
   19.5670  -20.0420  -15.4845 O   0  0  0  0  0  0  0  0  0  0  0  0
   22.0403  -19.5187  -16.6551 C   0  0  0  0  0  0  0  0  0  0  0  0
   21.1490  -19.8686  -17.4528 O   0  0  0  0  0  0  0  0  0  0  0  0
   19.3070  -18.9636  -13.5252 O   0  0  0  0  0  0  0  0  0  0  0  0
   22.7821  -18.3883  -16.8984 O   0  0  0  0  0  0  0  0  0  0  0  0
  2  1  1  1
  3  2  1  0
  4  2  1  0
  4  5  1  1
  6  7  2  0
  6  4  1  0
  8  6  1  0
  9  8  1  0
  9 10  1  6
 11 10  1  0
 11 12  1  0
 13 12  1  0
 13 14  1  0
 15  9  1  0
 16 15  2  0
 17 15  1  0
 18 22  1  0
 18 17  1  0
 18 19  1  1
 20 21  2  0
 20 19  1  0
 22 25  1  0
 23 22  2  0
 24 20  1  0
M  END
$$$$
