VKD.pdb
     RDKit          3D

 25 24  0  0  1  0  0  0  0  0999 V2000
   28.5193  -27.0586  -17.3159 C   0  0  0  0  0  0  0  0  0  0  0  0
   28.0619  -28.1961  -16.4354 C   0  0  2  0  0  0  0  0  0  0  0  0
   28.6154  -29.4948  -16.9584 C   0  0  0  0  0  0  0  0  0  0  0  0
   26.5348  -28.2400  -16.3945 C   0  0  2  0  0  0  0  0  0  0  0  0
   26.1014  -28.4454  -17.7558 N   0  0  0  0  0  0  0  0  0  0  0  0
   26.0788  -26.9314  -15.9256 C   0  0  0  0  0  0  0  0  0  0  0  0
   26.4482  -26.5310  -14.7746 O   0  0  0  0  0  0  0  0  0  0  0  0
   25.2354  -26.0700  -16.6927 N   0  0  0  0  0  0  0  0  0  0  0  0
   24.7461  -24.8130  -16.1966 C   0  0  1  0  0  0  0  0  0  0  0  0
   25.2560  -23.6304  -16.9350 C   0  0  0  0  0  0  0  0  0  0  0  0
   26.6902  -23.2864  -16.7863 C   0  0  0  0  0  0  0  0  0  0  0  0
   27.0333  -22.0348  -17.5042 C   0  0  0  0  0  0  0  0  0  0  0  0
   26.4114  -20.7992  -16.8957 C   0  0  0  0  0  0  0  0  0  0  0  0
   26.8195  -19.5847  -17.5082 N   0  0  0  0  0  0  0  0  0  0  0  0
   23.2993  -24.8130  -15.8914 C   0  0  0  0  0  0  0  0  0  0  0  0
   22.4520  -25.4405  -16.6098 O   0  0  0  0  0  0  0  0  0  0  0  0
   22.7282  -24.1220  -14.7786 N   0  0  0  0  0  0  0  0  0  0  0  0
   21.3115  -24.1479  -14.5065 C   0  0  1  0  0  0  0  0  0  0  0  0
   21.0836  -23.7640  -13.0556 C   0  0  0  0  0  0  0  0  0  0  0  0
   19.6617  -23.8076  -12.6580 C   0  0  0  0  0  0  0  0  0  0  0  0
   18.7820  -24.1757  -13.4626 O   0  0  0  0  0  0  0  0  0  0  0  0
   20.6301  -23.1898  -15.3947 C   0  0  0  0  0  0  0  0  0  0  0  0
   21.1792  -22.1023  -15.6575 O   0  0  0  0  0  0  0  0  0  0  0  0
   19.2528  -23.4442  -11.3860 O   0  0  0  0  0  0  0  0  0  0  0  0
   19.4013  -23.4918  -15.9294 O   0  0  0  0  0  0  0  0  0  0  0  0
  2  1  1  6
  3  2  1  0
  4  2  1  0
  4  5  1  6
  6  7  2  0
  6  4  1  0
  8  6  1  0
  9  8  1  0
  9 10  1  6
 11 10  1  0
 11 12  1  0
 13 12  1  0
 13 14  1  0
 15  9  1  0
 16 15  2  0
 17 15  1  0
 18 22  1  0
 18 17  1  0
 18 19  1  1
 20 21  2  0
 20 19  1  0
 22 25  1  0
 23 22  2  0
 24 20  1  0
M  END
$$$$
