MQT.pdb
     RDKit          3D

 25 24  0  0  1  0  0  0  0  0999 V2000
    6.8762  -11.1357   26.4203 C   0  0  0  0  0  0  0  0  0  0  0  0
    6.4074  -12.1289   27.8663 S   0  0  0  0  0  0  0  0  0  0  0  0
    5.7662  -13.7194   27.2052 C   0  0  0  0  0  0  0  0  0  0  0  0
    6.6606  -14.1759   26.1092 C   0  0  0  0  0  0  0  0  0  0  0  0
    6.2530  -15.4407   25.4432 C   0  0  2  0  0  0  0  0  0  0  0  0
    6.2988  -16.5699   26.3898 N   0  0  0  0  0  0  0  0  0  0  0  0
    7.1280  -15.7150   24.2765 C   0  0  0  0  0  0  0  0  0  0  0  0
    7.9161  -16.6950   24.2344 O   0  0  0  0  0  0  0  0  0  0  0  0
    8.8459  -12.4474   18.3105 N   0  0  0  0  0  0  0  0  0  0  0  0
    8.3181  -13.7484   18.5150 C   0  0  0  0  0  0  0  0  0  0  0  0
    7.4936  -14.2228   17.6716 O   0  0  0  0  0  0  0  0  0  0  0  0
    8.7205  -14.5635   19.7076 C   0  0  0  0  0  0  0  0  0  0  0  0
    7.8629  -14.1362   20.9061 C   0  0  0  0  0  0  0  0  0  0  0  0
    7.9930  -15.1395   22.0248 C   0  0  2  0  0  0  0  0  0  0  0  0
    7.1272  -14.8776   23.1258 N   0  0  0  0  0  0  0  0  0  0  0  0
    9.4302  -15.1820   22.4073 C   0  0  0  0  0  0  0  0  0  0  0  0
   10.0185  -14.2602   22.9921 O   0  0  0  0  0  0  0  0  0  0  0  0
   11.3410  -17.5600   24.6374 C   0  0  0  0  0  0  0  0  0  0  0  0
   11.8564  -17.7174   23.2201 C   0  0  1  0  0  0  0  0  0  0  0  0
   11.1032  -18.7167   22.6058 O   0  0  0  0  0  0  0  0  0  0  0  0
   11.5751  -16.4333   22.4899 C   0  0  2  0  0  0  0  0  0  0  0  0
   10.1681  -16.3507   22.0809 N   0  0  0  0  0  0  0  0  0  0  0  0
   12.4209  -16.4213   21.2578 C   0  0  0  0  0  0  0  0  0  0  0  0
   13.7835  -16.3135   21.2825 O   0  0  0  0  0  0  0  0  0  0  0  0
   11.8784  -16.5145   20.1035 O   0  0  0  0  0  0  0  0  0  0  0  0
  2  1  1  0
  3  2  1  0
  4  5  1  0
  4  3  1  0
  5  7  1  0
  5  6  1  1
  7  8  2  0
 10  9  1  0
 10 12  1  0
 11 10  2  0
 13 12  1  0
 14 13  1  6
 14 15  1  0
 15  7  1  0
 16 14  1  0
 17 16  2  0
 19 18  1  1
 19 21  1  0
 20 19  1  0
 21 22  1  6
 21 23  1  0
 22 16  1  0
 23 24  1  0
 25 23  2  0
M  END
$$$$
