MQT.pdb
     RDKit          3D

 25 24  0  0  1  0  0  0  0  0999 V2000
    7.4079  -11.0240   26.7073 C   0  0  0  0  0  0  0  0  0  0  0  0
    7.3577  -12.3313   27.9664 S   0  0  0  0  0  0  0  0  0  0  0  0
    6.3366  -13.6840   27.2554 C   0  0  0  0  0  0  0  0  0  0  0  0
    7.0821  -14.3026   26.1280 C   0  0  0  0  0  0  0  0  0  0  0  0
    6.3602  -15.3839   25.4077 C   0  0  2  0  0  0  0  0  0  0  0  0
    6.1779  -16.5613   26.2760 N   0  0  0  0  0  0  0  0  0  0  0  0
    7.0960  -15.7648   24.1766 C   0  0  0  0  0  0  0  0  0  0  0  0
    7.6087  -16.9027   24.0167 O   0  0  0  0  0  0  0  0  0  0  0  0
    7.6325  -12.6254   18.6278 N   0  0  0  0  0  0  0  0  0  0  0  0
    8.4490  -13.7730   18.4567 C   0  0  0  0  0  0  0  0  0  0  0  0
    8.9556  -14.0092   17.3149 O   0  0  0  0  0  0  0  0  0  0  0  0
    8.7183  -14.7035   19.6014 C   0  0  0  0  0  0  0  0  0  0  0  0
    7.9570  -14.1984   20.8341 C   0  0  0  0  0  0  0  0  0  0  0  0
    8.0257  -15.2178   21.9437 C   0  0  2  0  0  0  0  0  0  0  0  0
    7.2669  -14.8566   23.0943 N   0  0  0  0  0  0  0  0  0  0  0  0
    9.4662  -15.4436   22.2395 C   0  0  0  0  0  0  0  0  0  0  0  0
   10.1855  -14.6309   22.8396 O   0  0  0  0  0  0  0  0  0  0  0  0
   11.4868  -18.2734   24.0044 C   0  0  0  0  0  0  0  0  0  0  0  0
   11.7709  -18.2602   22.5149 C   0  0  1  0  0  0  0  0  0  0  0  0
   10.8579  -19.1181   21.9037 O   0  0  0  0  0  0  0  0  0  0  0  0
   11.4861  -16.8723   22.0110 C   0  0  2  0  0  0  0  0  0  0  0  0
   10.0478  -16.6648   21.8068 N   0  0  0  0  0  0  0  0  0  0  0  0
   12.1714  -16.7229   20.6913 C   0  0  0  0  0  0  0  0  0  0  0  0
   13.5293  -16.6421   20.5544 O   0  0  0  0  0  0  0  0  0  0  0  0
   11.4863  -16.6638   19.6132 O   0  0  0  0  0  0  0  0  0  0  0  0
  2  1  1  0
  3  2  1  0
  4  5  1  0
  4  3  1  0
  5  7  1  0
  5  6  1  1
  7  8  2  0
 10  9  1  0
 10 12  1  0
 11 10  2  0
 13 12  1  0
 14 13  1  6
 14 15  1  0
 15  7  1  0
 16 14  1  0
 17 16  2  0
 19 18  1  1
 19 21  1  0
 20 19  1  0
 21 22  1  6
 21 23  1  0
 22 16  1  0
 23 24  1  0
 25 23  2  0
M  END
$$$$
