MQT.pdb
     RDKit          3D

 25 24  0  0  1  0  0  0  0  0999 V2000
    7.6247  -11.6862   21.3892 C   0  0  0  0  0  0  0  0  0  0  0  0
    8.1265  -12.3233   19.7646 S   0  0  0  0  0  0  0  0  0  0  0  0
    7.4007  -14.0065   19.6315 C   0  0  0  0  0  0  0  0  0  0  0  0
    7.4441  -14.6521   20.9697 C   0  0  0  0  0  0  0  0  0  0  0  0
    6.8553  -16.0153   21.0356 C   0  0  2  0  0  0  0  0  0  0  0  0
    5.5037  -16.0316   20.4469 N   0  0  0  0  0  0  0  0  0  0  0  0
    6.8072  -16.4896   22.4408 C   0  0  0  0  0  0  0  0  0  0  0  0
    6.2349  -15.8434   23.3563 O   0  0  0  0  0  0  0  0  0  0  0  0
    3.9471  -21.1481   22.9813 N   0  0  0  0  0  0  0  0  0  0  0  0
    5.2817  -21.2913   23.4410 C   0  0  0  0  0  0  0  0  0  0  0  0
    5.6111  -22.3457   24.0703 O   0  0  0  0  0  0  0  0  0  0  0  0
    6.3001  -20.2188   23.1938 C   0  0  0  0  0  0  0  0  0  0  0  0
    6.3011  -19.2577   24.3899 C   0  0  0  0  0  0  0  0  0  0  0  0
    7.3284  -18.1723   24.1862 C   0  0  2  0  0  0  0  0  0  0  0  0
    7.4117  -17.7149   22.8394 N   0  0  0  0  0  0  0  0  0  0  0  0
    8.6209  -18.6918   24.7090 C   0  0  0  0  0  0  0  0  0  0  0  0
    8.7648  -19.1772   25.8412 O   0  0  0  0  0  0  0  0  0  0  0  0
   11.0351  -20.9523   22.6551 C   0  0  0  0  0  0  0  0  0  0  0  0
   11.8197  -19.7735   23.1972 C   0  0  1  0  0  0  0  0  0  0  0  0
   11.8836  -18.8107   22.1912 O   0  0  0  0  0  0  0  0  0  0  0  0
   11.0268  -19.1834   24.3305 C   0  0  2  0  0  0  0  0  0  0  0  0
    9.7547  -18.6258   23.8565 N   0  0  0  0  0  0  0  0  0  0  0  0
   11.8356  -18.0706   24.9145 C   0  0  0  0  0  0  0  0  0  0  0  0
   13.0416  -18.2605   25.5297 O   0  0  0  0  0  0  0  0  0  0  0  0
   11.4106  -16.8660   24.8553 O   0  0  0  0  0  0  0  0  0  0  0  0
  2  1  1  0
  3  2  1  0
  4  5  1  0
  4  3  1  0
  5  7  1  0
  5  6  1  1
  7  8  2  0
 10  9  1  0
 10 12  1  0
 11 10  2  0
 13 12  1  0
 14 13  1  6
 14 15  1  0
 15  7  1  0
 16 14  1  0
 17 16  2  0
 19 18  1  6
 19 21  1  0
 20 19  1  0
 21 22  1  6
 21 23  1  0
 22 16  1  0
 23 24  1  0
 25 23  2  0
M  END
$$$$
