MQT.pdb
     RDKit          3D

 25 24  0  0  1  0  0  0  0  0999 V2000
    6.0616  -12.3506   27.0344 C   0  0  0  0  0  0  0  0  0  0  0  0
    6.2364  -11.1592   25.6754 S   0  0  0  0  0  0  0  0  0  0  0  0
    6.3892  -12.1574   24.1397 C   0  0  0  0  0  0  0  0  0  0  0  0
    6.9297  -13.4963   24.4927 C   0  0  0  0  0  0  0  0  0  0  0  0
    8.2303  -13.8418   23.8615 C   0  0  2  0  0  0  0  0  0  0  0  0
    8.1138  -13.8509   22.3919 N   0  0  0  0  0  0  0  0  0  0  0  0
    8.7047  -15.1619   24.3455 C   0  0  0  0  0  0  0  0  0  0  0  0
    8.3596  -15.6418   25.4563 O   0  0  0  0  0  0  0  0  0  0  0  0
   11.0996  -20.3407   21.5939 N   0  0  0  0  0  0  0  0  0  0  0  0
   10.1900  -19.3927   21.0584 C   0  0  0  0  0  0  0  0  0  0  0  0
    9.5578  -19.6736   19.9918 O   0  0  0  0  0  0  0  0  0  0  0  0
    9.9687  -18.0720   21.7334 C   0  0  0  0  0  0  0  0  0  0  0  0
   10.7815  -18.0434   23.0344 C   0  0  0  0  0  0  0  0  0  0  0  0
   10.0721  -17.2129   24.0746 C   0  0  2  0  0  0  0  0  0  0  0  0
    9.5866  -15.9701   23.5745 N   0  0  0  0  0  0  0  0  0  0  0  0
   11.0080  -17.0573   25.2207 C   0  0  0  0  0  0  0  0  0  0  0  0
   12.1100  -16.4939   25.1431 O   0  0  0  0  0  0  0  0  0  0  0  0
   11.0476  -15.1531   28.1502 C   0  0  0  0  0  0  0  0  0  0  0  0
   10.9843  -16.5729   28.6787 C   0  0  1  0  0  0  0  0  0  0  0  0
    9.6400  -16.9007   28.8474 O   0  0  0  0  0  0  0  0  0  0  0  0
   11.5345  -17.4789   27.6120 C   0  0  2  0  0  0  0  0  0  0  0  0
   10.6106  -17.5872   26.4770 N   0  0  0  0  0  0  0  0  0  0  0  0
   11.6956  -18.8373   28.2141 C   0  0  0  0  0  0  0  0  0  0  0  0
   12.5485  -19.1047   29.2485 O   0  0  0  0  0  0  0  0  0  0  0  0
   11.0183  -19.8249   27.7654 O   0  0  0  0  0  0  0  0  0  0  0  0
  2  1  1  0
  3  2  1  0
  4  5  1  0
  4  3  1  0
  5  7  1  0
  5  6  1  6
  7  8  2  0
 10  9  1  0
 10 12  1  0
 11 10  2  0
 13 12  1  0
 14 13  1  6
 14 15  1  0
 15  7  1  0
 16 14  1  0
 17 16  2  0
 19 18  1  6
 19 21  1  0
 20 19  1  0
 21 22  1  6
 21 23  1  0
 22 16  1  0
 23 24  1  0
 25 23  2  0
M  END
$$$$
