FIA.pdb
     RDKit          3D

 25 25  0  0  1  0  0  0  0  0999 V2000
   27.5950  -19.3758  -17.9321 N   0  0  0  0  0  0  0  0  0  0  0  0
   27.2376  -18.7573  -16.6575 C   0  0  1  0  0  0  0  0  0  0  0  0
   25.8622  -18.1027  -16.7868 C   0  0  0  0  0  0  0  0  0  0  0  0
   25.9807  -16.8708  -17.5992 C   0  0  0  0  0  0  0  0  0  0  0  0
   26.5492  -15.7288  -17.0766 C   0  0  0  0  0  0  0  0  0  0  0  0
   26.6658  -14.5662  -17.8297 C   0  0  0  0  0  0  0  0  0  0  0  0
   26.1901  -14.5927  -19.1278 C   0  0  0  0  0  0  0  0  0  0  0  0
   25.6195  -15.7145  -19.6748 C   0  0  0  0  0  0  0  0  0  0  0  0
   25.5230  -16.8475  -18.8932 C   0  0  0  0  0  0  0  0  0  0  0  0
   27.1810  -19.8382  -15.6410 C   0  0  0  0  0  0  0  0  0  0  0  0
   26.7424  -20.9987  -15.9110 O   0  0  0  0  0  0  0  0  0  0  0  0
   30.6187  -21.2823  -10.9899 C   0  0  0  0  0  0  0  0  0  0  0  0
   29.1613  -21.4169  -11.4386 C   0  0  0  0  0  0  0  0  0  0  0  0
   28.9420  -20.5625  -12.6537 C   0  0  2  0  0  0  0  0  0  0  0  0
   29.4295  -19.1328  -12.4205 C   0  0  0  0  0  0  0  0  0  0  0  0
   27.5762  -20.5871  -13.2463 C   0  0  2  0  0  0  0  0  0  0  0  0
   27.6208  -19.5848  -14.3421 N   0  0  0  0  0  0  0  0  0  0  0  0
   26.4714  -20.1912  -12.3829 C   0  0  0  0  0  0  0  0  0  0  0  0
   26.2949  -18.9728  -12.0311 O   0  0  0  0  0  0  0  0  0  0  0  0
   23.1445  -21.3020  -11.3813 C   0  0  0  0  0  0  0  0  0  0  0  0
   24.4570  -20.6463  -10.9533 C   0  0  2  0  0  0  0  0  0  0  0  0
   25.5094  -21.0905  -11.8663 N   0  0  0  0  0  0  0  0  0  0  0  0
   24.7486  -21.1431   -9.5890 C   0  0  0  0  0  0  0  0  0  0  0  0
   25.6600  -21.9921   -9.4429 O   0  0  0  0  0  0  0  0  0  0  0  0
   24.0576  -20.7100   -8.4678 O   0  0  0  0  0  0  0  0  0  0  0  0
  2  1  1  6
  2  3  1  0
  4  3  1  0
  5  4  2  0
  6  5  1  0
  7  6  2  0
  7  8  1  0
  8  9  2  0
  9  4  1  0
 10  2  1  0
 10 17  1  0
 11 10  2  0
 13 12  1  0
 14 16  1  0
 14 13  1  0
 14 15  1  1
 16 17  1  6
 18 16  1  0
 19 18  2  0
 21 20  1  6
 21 23  1  0
 21 22  1  0
 22 18  1  0
 23 25  1  0
 24 23  2  0
M  END
$$$$
