FIA.pdb
     RDKit          3D

 25 25  0  0  1  0  0  0  0  0999 V2000
   26.3823  -12.1757  -18.2301 N   0  0  0  0  0  0  0  0  0  0  0  0
   26.1057  -10.8991  -17.5754 C   0  0  1  0  0  0  0  0  0  0  0  0
   26.5221   -9.7591  -18.5048 C   0  0  0  0  0  0  0  0  0  0  0  0
   27.9897   -9.7950  -18.6966 C   0  0  0  0  0  0  0  0  0  0  0  0
   28.8414   -9.2643  -17.7515 C   0  0  0  0  0  0  0  0  0  0  0  0
   30.2209   -9.2921  -17.9205 C   0  0  0  0  0  0  0  0  0  0  0  0
   30.7139   -9.8730  -19.0746 C   0  0  0  0  0  0  0  0  0  0  0  0
   29.8906  -10.4092  -20.0326 C   0  0  0  0  0  0  0  0  0  0  0  0
   28.5272  -10.3611  -19.8259 C   0  0  0  0  0  0  0  0  0  0  0  0
   24.6423  -10.8338  -17.3322 C   0  0  0  0  0  0  0  0  0  0  0  0
   23.8158  -11.5451  -17.9829 O   0  0  0  0  0  0  0  0  0  0  0  0
   20.1900  -11.3620  -14.8206 C   0  0  0  0  0  0  0  0  0  0  0  0
   21.1819  -10.4494  -14.0947 C   0  0  0  0  0  0  0  0  0  0  0  0
   22.5257  -10.5633  -14.7547 C   0  0  2  0  0  0  0  0  0  0  0  0
   23.6538  -10.2534  -13.7709 C   0  0  0  0  0  0  0  0  0  0  0  0
   22.7003   -9.8301  -16.0389 C   0  0  2  0  0  0  0  0  0  0  0  0
   24.1444   -9.9670  -16.3599 N   0  0  0  0  0  0  0  0  0  0  0  0
   22.4237   -8.3997  -16.0288 C   0  0  0  0  0  0  0  0  0  0  0  0
   23.0955   -7.5891  -15.3001 O   0  0  0  0  0  0  0  0  0  0  0  0
   20.4082   -5.9321  -18.0025 C   0  0  0  0  0  0  0  0  0  0  0  0
   21.1731   -6.3424  -16.7446 C   0  0  2  0  0  0  0  0  0  0  0  0
   21.4150   -7.7833  -16.8058 N   0  0  0  0  0  0  0  0  0  0  0  0
   20.2859   -6.0417  -15.5976 C   0  0  0  0  0  0  0  0  0  0  0  0
   19.5003   -6.9340  -15.1981 O   0  0  0  0  0  0  0  0  0  0  0  0
   20.2869   -4.8173  -14.9474 O   0  0  0  0  0  0  0  0  0  0  0  0
  2  1  1  6
  2  3  1  0
  4  3  1  0
  5  4  2  0
  6  5  1  0
  7  6  2  0
  7  8  1  0
  8  9  2  0
  9  4  1  0
 10  2  1  0
 10 17  1  0
 11 10  2  0
 13 12  1  0
 14 16  1  0
 14 13  1  0
 14 15  1  1
 16 17  1  1
 18 16  1  0
 19 18  2  0
 21 20  1  6
 21 23  1  0
 21 22  1  0
 22 18  1  0
 23 25  1  0
 24 23  2  0
M  END
$$$$
