FIA.pdb
     RDKit          3D

 25 25  0  0  1  0  0  0  0  0999 V2000
   17.4654  -10.9629  -15.1077 N   0  0  0  0  0  0  0  0  0  0  0  0
   17.8991   -9.9051  -16.0176 C   0  0  1  0  0  0  0  0  0  0  0  0
   16.7113   -9.4603  -16.8708 C   0  0  0  0  0  0  0  0  0  0  0  0
   16.3870  -10.5222  -17.8500 C   0  0  0  0  0  0  0  0  0  0  0  0
   17.1523  -10.6999  -18.9828 C   0  0  0  0  0  0  0  0  0  0  0  0
   16.8576  -11.6934  -19.9093 C   0  0  0  0  0  0  0  0  0  0  0  0
   15.7650  -12.5025  -19.6562 C   0  0  0  0  0  0  0  0  0  0  0  0
   14.9850  -12.3491  -18.5375 C   0  0  0  0  0  0  0  0  0  0  0  0
   15.3122  -11.3508  -17.6430 C   0  0  0  0  0  0  0  0  0  0  0  0
   18.3671   -8.7685  -15.1846 C   0  0  0  0  0  0  0  0  0  0  0  0
   17.8469   -8.4952  -14.0590 O   0  0  0  0  0  0  0  0  0  0  0  0
   21.9309   -5.7999  -12.7728 C   0  0  0  0  0  0  0  0  0  0  0  0
   22.3780   -6.1808  -14.1865 C   0  0  0  0  0  0  0  0  0  0  0  0
   21.4569   -7.2381  -14.7233 C   0  0  2  0  0  0  0  0  0  0  0  0
   21.9955   -7.8331  -16.0242 C   0  0  0  0  0  0  0  0  0  0  0  0
   20.0190   -6.8697  -14.8420 C   0  0  2  0  0  0  0  0  0  0  0  0
   19.4120   -7.9655  -15.6408 N   0  0  0  0  0  0  0  0  0  0  0  0
   19.7070   -5.6350  -15.5497 C   0  0  0  0  0  0  0  0  0  0  0  0
   20.0463   -5.4546  -16.7711 O   0  0  0  0  0  0  0  0  0  0  0  0
   17.3589   -2.7963  -15.2466 C   0  0  0  0  0  0  0  0  0  0  0  0
   18.6973   -3.3432  -15.7421 C   0  0  2  0  0  0  0  0  0  0  0  0
   19.0136   -4.5456  -14.9722 N   0  0  0  0  0  0  0  0  0  0  0  0
   19.7080   -2.2986  -15.4584 C   0  0  0  0  0  0  0  0  0  0  0  0
   19.6979   -1.2521  -16.1495 O   0  0  0  0  0  0  0  0  0  0  0  0
   20.6636   -2.4281  -14.4624 O   0  0  0  0  0  0  0  0  0  0  0  0
  2  1  1  1
  2  3  1  0
  4  3  1  0
  5  4  2  0
  6  5  1  0
  7  6  2  0
  7  8  1  0
  8  9  2  0
  9  4  1  0
 10  2  1  0
 10 17  1  0
 11 10  2  0
 13 12  1  0
 14 16  1  0
 14 13  1  0
 14 15  1  6
 16 17  1  6
 18 16  1  0
 19 18  2  0
 21 20  1  1
 21 23  1  0
 21 22  1  0
 22 18  1  0
 23 25  1  0
 24 23  2  0
M  END
$$$$
