FIA.pdb
     RDKit          3D

 25 25  0  0  1  0  0  0  0  0999 V2000
   20.8186  -12.3473  -19.6424 N   0  0  0  0  0  0  0  0  0  0  0  0
   21.6284  -11.1312  -19.6547 C   0  0  1  0  0  0  0  0  0  0  0  0
   20.9432  -10.0821  -20.5303 C   0  0  0  0  0  0  0  0  0  0  0  0
   21.0756  -10.4697  -21.9530 C   0  0  0  0  0  0  0  0  0  0  0  0
   22.1277  -11.2516  -22.3798 C   0  0  0  0  0  0  0  0  0  0  0  0
   22.2626  -11.6217  -23.7130 C   0  0  0  0  0  0  0  0  0  0  0  0
   21.3013  -11.1774  -24.6023 C   0  0  0  0  0  0  0  0  0  0  0  0
   20.2434  -10.3982  -24.2064 C   0  0  0  0  0  0  0  0  0  0  0  0
   20.1466  -10.0532  -22.8739 C   0  0  0  0  0  0  0  0  0  0  0  0
   21.7079  -10.6377  -18.2565 C   0  0  0  0  0  0  0  0  0  0  0  0
   20.7690  -10.8180  -17.4208 O   0  0  0  0  0  0  0  0  0  0  0  0
   26.1145  -10.5717  -14.3634 C   0  0  0  0  0  0  0  0  0  0  0  0
   24.7952   -9.8369  -14.6145 C   0  0  0  0  0  0  0  0  0  0  0  0
   24.3153  -10.1521  -16.0019 C   0  0  2  0  0  0  0  0  0  0  0  0
   25.4328   -9.9706  -17.0288 C   0  0  0  0  0  0  0  0  0  0  0  0
   23.0562   -9.4870  -16.4372 C   0  0  2  0  0  0  0  0  0  0  0  0
   22.8455   -9.9515  -17.8327 N   0  0  0  0  0  0  0  0  0  0  0  0
   23.0604   -8.0312  -16.4936 C   0  0  0  0  0  0  0  0  0  0  0  0
   23.8319   -7.3903  -17.2895 O   0  0  0  0  0  0  0  0  0  0  0  0
   20.9565   -5.2073  -16.2002 C   0  0  0  0  0  0  0  0  0  0  0  0
   22.3163   -5.7475  -15.7587 C   0  0  2  0  0  0  0  0  0  0  0  0
   22.2313   -7.2062  -15.6979 N   0  0  0  0  0  0  0  0  0  0  0  0
   22.5586   -5.2127  -14.3992 C   0  0  0  0  0  0  0  0  0  0  0  0
   22.3776   -5.9706  -13.4165 O   0  0  0  0  0  0  0  0  0  0  0  0
   22.9765   -3.9114  -14.1669 O   0  0  0  0  0  0  0  0  0  0  0  0
  2  1  1  1
  2  3  1  0
  4  3  1  0
  5  4  2  0
  6  5  1  0
  7  6  2  0
  7  8  1  0
  8  9  2  0
  9  4  1  0
 10  2  1  0
 10 17  1  0
 11 10  2  0
 13 12  1  0
 14 16  1  0
 14 13  1  0
 14 15  1  6
 16 17  1  6
 18 16  1  0
 19 18  2  0
 21 20  1  1
 21 23  1  0
 21 22  1  0
 22 18  1  0
 23 25  1  0
 24 23  2  0
M  END
$$$$
