FIA.pdb
     RDKit          3D

 25 25  0  0  1  0  0  0  0  0999 V2000
   27.2847  -20.1453  -11.3609 N   0  0  0  0  0  0  0  0  0  0  0  0
   26.1385  -20.8941  -10.8508 C   0  0  1  0  0  0  0  0  0  0  0  0
   25.8475  -20.4494   -9.4175 C   0  0  0  0  0  0  0  0  0  0  0  0
   27.1173  -20.3769   -8.6599 C   0  0  0  0  0  0  0  0  0  0  0  0
   28.1918  -21.1711   -8.9995 C   0  0  0  0  0  0  0  0  0  0  0  0
   29.3891  -21.1119   -8.2956 C   0  0  0  0  0  0  0  0  0  0  0  0
   29.4676  -20.2252   -7.2374 C   0  0  0  0  0  0  0  0  0  0  0  0
   28.4148  -19.4224   -6.8764 C   0  0  0  0  0  0  0  0  0  0  0  0
   27.2442  -19.5122   -7.6013 C   0  0  0  0  0  0  0  0  0  0  0  0
   24.9770  -20.5712  -11.7178 C   0  0  0  0  0  0  0  0  0  0  0  0
   24.5302  -19.3888  -11.8376 O   0  0  0  0  0  0  0  0  0  0  0  0
   24.6884  -19.7727  -15.6000 C   0  0  0  0  0  0  0  0  0  0  0  0
   25.0069  -21.2235  -15.2292 C   0  0  0  0  0  0  0  0  0  0  0  0
   23.7647  -21.8767  -14.6957 C   0  0  2  0  0  0  0  0  0  0  0  0
   22.6691  -21.9351  -15.7600 C   0  0  0  0  0  0  0  0  0  0  0  0
   23.2447  -21.3585  -13.4002 C   0  0  2  0  0  0  0  0  0  0  0  0
   24.3459  -21.5904  -12.4302 N   0  0  0  0  0  0  0  0  0  0  0  0
   22.0719  -22.0203  -12.8440 C   0  0  0  0  0  0  0  0  0  0  0  0
   22.0115  -23.2934  -12.7220 O   0  0  0  0  0  0  0  0  0  0  0  0
   18.7208  -21.0478  -11.4120 C   0  0  0  0  0  0  0  0  0  0  0  0
   19.7058  -22.0566  -12.0020 C   0  0  2  0  0  0  0  0  0  0  0  0
   20.9178  -21.3378  -12.3929 N   0  0  0  0  0  0  0  0  0  0  0  0
   19.0575  -22.6189  -13.2089 C   0  0  0  0  0  0  0  0  0  0  0  0
   19.2035  -22.0202  -14.3011 O   0  0  0  0  0  0  0  0  0  0  0  0
   18.2970  -23.7777  -13.1826 O   0  0  0  0  0  0  0  0  0  0  0  0
  2  1  1  6
  2  3  1  0
  4  3  1  0
  5  4  2  0
  6  5  1  0
  7  6  2  0
  7  8  1  0
  8  9  2  0
  9  4  1  0
 10  2  1  0
 10 17  1  0
 11 10  2  0
 13 12  1  0
 14 16  1  0
 14 13  1  0
 14 15  1  6
 16 17  1  1
 18 16  1  0
 19 18  2  0
 21 20  1  6
 21 23  1  0
 21 22  1  0
 22 18  1  0
 23 25  1  0
 24 23  2  0
M  END
$$$$
