FIA.pdb
     RDKit          3D

 25 25  0  0  1  0  0  0  0  0999 V2000
   29.4405  -19.6250  -12.3985 N   0  0  0  0  0  0  0  0  0  0  0  0
   28.4050  -20.6170  -12.1183 C   0  0  1  0  0  0  0  0  0  0  0  0
   28.3963  -20.9224  -10.6205 C   0  0  0  0  0  0  0  0  0  0  0  0
   29.7013  -21.5035  -10.2318 C   0  0  0  0  0  0  0  0  0  0  0  0
   30.2228  -21.2965   -8.9726 C   0  0  0  0  0  0  0  0  0  0  0  0
   31.4470  -21.8369   -8.5963 C   0  0  0  0  0  0  0  0  0  0  0  0
   32.1288  -22.5934   -9.5318 C   0  0  0  0  0  0  0  0  0  0  0  0
   31.6347  -22.8163  -10.7925 C   0  0  0  0  0  0  0  0  0  0  0  0
   30.4158  -22.2619  -11.1257 C   0  0  0  0  0  0  0  0  0  0  0  0
   27.1029  -20.0217  -12.5125 C   0  0  0  0  0  0  0  0  0  0  0  0
   26.7462  -18.8634  -12.1340 O   0  0  0  0  0  0  0  0  0  0  0  0
   25.8929  -18.0908  -15.9244 C   0  0  0  0  0  0  0  0  0  0  0  0
   26.2096  -19.5843  -16.0364 C   0  0  0  0  0  0  0  0  0  0  0  0
   25.1181  -20.3681  -15.3665 C   0  0  2  0  0  0  0  0  0  0  0  0
   23.7822  -20.1830  -16.0857 C   0  0  0  0  0  0  0  0  0  0  0  0
   24.9786  -20.1899  -13.8947 C   0  0  2  0  0  0  0  0  0  0  0  0
   26.2325  -20.7473  -13.3253 N   0  0  0  0  0  0  0  0  0  0  0  0
   23.8882  -20.9015  -13.2410 C   0  0  0  0  0  0  0  0  0  0  0  0
   23.8135  -22.1796  -13.2558 O   0  0  0  0  0  0  0  0  0  0  0  0
   20.9647  -20.1106  -11.0089 C   0  0  0  0  0  0  0  0  0  0  0  0
   21.7299  -21.0278  -11.9624 C   0  0  2  0  0  0  0  0  0  0  0  0
   22.8357  -20.2659  -12.5413 N   0  0  0  0  0  0  0  0  0  0  0  0
   20.7798  -21.4054  -13.0337 C   0  0  0  0  0  0  0  0  0  0  0  0
   20.8093  -20.7669  -14.1127 O   0  0  0  0  0  0  0  0  0  0  0  0
   19.8603  -22.4336  -12.8948 O   0  0  0  0  0  0  0  0  0  0  0  0
  2  1  1  1
  2  3  1  0
  4  3  1  0
  5  4  2  0
  6  5  1  0
  7  6  2  0
  7  8  1  0
  8  9  2  0
  9  4  1  0
 10  2  1  0
 10 17  1  0
 11 10  2  0
 13 12  1  0
 14 16  1  0
 14 13  1  0
 14 15  1  6
 16 17  1  1
 18 16  1  0
 19 18  2  0
 21 20  1  1
 21 23  1  0
 21 22  1  0
 22 18  1  0
 23 25  1  0
 24 23  2  0
M  END
$$$$
