FIA.pdb
     RDKit          3D

 25 25  0  0  1  0  0  0  0  0999 V2000
   28.9216  -15.9058  -19.1511 N   0  0  0  0  0  0  0  0  0  0  0  0
   28.3367  -14.8362  -18.3458 C   0  0  1  0  0  0  0  0  0  0  0  0
   28.7152  -13.4863  -18.9552 C   0  0  0  0  0  0  0  0  0  0  0  0
   30.1781  -13.2902  -18.8403 C   0  0  0  0  0  0  0  0  0  0  0  0
   31.0051  -13.4684  -19.9288 C   0  0  0  0  0  0  0  0  0  0  0  0
   32.3800  -13.2872  -19.8330 C   0  0  0  0  0  0  0  0  0  0  0  0
   32.8942  -12.9202  -18.6028 C   0  0  0  0  0  0  0  0  0  0  0  0
   32.0958  -12.7356  -17.5021 C   0  0  0  0  0  0  0  0  0  0  0  0
   30.7361  -12.9257  -17.6401 C   0  0  0  0  0  0  0  0  0  0  0  0
   26.8621  -15.0055  -18.3880 C   0  0  0  0  0  0  0  0  0  0  0  0
   26.2745  -15.5809  -19.3554 O   0  0  0  0  0  0  0  0  0  0  0  0
   24.5232  -17.4536  -14.5748 C   0  0  0  0  0  0  0  0  0  0  0  0
   24.9220  -16.8299  -15.9148 C   0  0  0  0  0  0  0  0  0  0  0  0
   24.3822  -15.4305  -15.9837 C   0  0  2  0  0  0  0  0  0  0  0  0
   22.9149  -15.3814  -15.5582 C   0  0  0  0  0  0  0  0  0  0  0  0
   24.6099  -14.6917  -17.2563 C   0  0  2  0  0  0  0  0  0  0  0  0
   26.0836  -14.5216  -17.3370 N   0  0  0  0  0  0  0  0  0  0  0  0
   24.0438  -13.3529  -17.3564 C   0  0  0  0  0  0  0  0  0  0  0  0
   24.3428  -12.4311  -16.5197 O   0  0  0  0  0  0  0  0  0  0  0  0
   21.8826  -11.4101  -19.7523 C   0  0  0  0  0  0  0  0  0  0  0  0
   22.5989  -11.5919  -18.4145 C   0  0  2  0  0  0  0  0  0  0  0  0
   23.1355  -12.9512  -18.3638 N   0  0  0  0  0  0  0  0  0  0  0  0
   21.5693  -11.4307  -17.3624 C   0  0  0  0  0  0  0  0  0  0  0  0
   20.9363  -12.4450  -16.9837 O   0  0  0  0  0  0  0  0  0  0  0  0
   21.2758  -10.2079  -16.7789 O   0  0  0  0  0  0  0  0  0  0  0  0
  2  1  1  6
  2  3  1  0
  4  3  1  0
  5  4  2  0
  6  5  1  0
  7  6  2  0
  7  8  1  0
  8  9  2  0
  9  4  1  0
 10  2  1  0
 10 17  1  0
 11 10  2  0
 13 12  1  0
 14 16  1  0
 14 13  1  0
 14 15  1  6
 16 17  1  1
 18 16  1  0
 19 18  2  0
 21 20  1  6
 21 23  1  0
 21 22  1  0
 22 18  1  0
 23 25  1  0
 24 23  2  0
M  END
$$$$
