FIA.pdb
     RDKit          3D

 25 25  0  0  1  0  0  0  0  0999 V2000
   28.2488  -20.7154   -8.8571 N   0  0  0  0  0  0  0  0  0  0  0  0
   26.7949  -20.7376   -8.7143 C   0  0  1  0  0  0  0  0  0  0  0  0
   26.3886  -19.7958   -7.5809 C   0  0  0  0  0  0  0  0  0  0  0  0
   27.4237  -19.8278   -6.5229 C   0  0  0  0  0  0  0  0  0  0  0  0
   27.6589  -20.9751   -5.7956 C   0  0  0  0  0  0  0  0  0  0  0  0
   28.6279  -21.0171   -4.7998 C   0  0  0  0  0  0  0  0  0  0  0  0
   29.3525  -19.8638   -4.5612 C   0  0  0  0  0  0  0  0  0  0  0  0
   29.1406  -18.7074   -5.2689 C   0  0  0  0  0  0  0  0  0  0  0  0
   28.1691  -18.7081   -6.2488 C   0  0  0  0  0  0  0  0  0  0  0  0
   26.2166  -20.2551   -9.9940 C   0  0  0  0  0  0  0  0  0  0  0  0
   26.4804  -19.1059  -10.4650 O   0  0  0  0  0  0  0  0  0  0  0  0
   27.9406  -21.7153  -14.0806 C   0  0  0  0  0  0  0  0  0  0  0  0
   27.1700  -20.9744  -12.9848 C   0  0  0  0  0  0  0  0  0  0  0  0
   25.7336  -21.4107  -13.0156 C   0  0  2  0  0  0  0  0  0  0  0  0
   25.1778  -21.3859  -14.4392 C   0  0  0  0  0  0  0  0  0  0  0  0
   24.8141  -20.7400  -12.0554 C   0  0  2  0  0  0  0  0  0  0  0  0
   25.3534  -21.0808  -10.7136 N   0  0  0  0  0  0  0  0  0  0  0  0
   23.4240  -21.1763  -12.0534 C   0  0  0  0  0  0  0  0  0  0  0  0
   23.0949  -22.3753  -11.7475 O   0  0  0  0  0  0  0  0  0  0  0  0
   20.0101  -19.6870  -12.6246 C   0  0  0  0  0  0  0  0  0  0  0  0
   20.9755  -20.8673  -12.5204 C   0  0  2  0  0  0  0  0  0  0  0  0
   22.3312  -20.3383  -12.3771 N   0  0  0  0  0  0  0  0  0  0  0  0
   20.8702  -21.6091  -13.7977 C   0  0  0  0  0  0  0  0  0  0  0  0
   21.6795  -21.3375  -14.7164 O   0  0  0  0  0  0  0  0  0  0  0  0
   19.9161  -22.5899  -14.0209 O   0  0  0  0  0  0  0  0  0  0  0  0
  2  1  1  6
  2  3  1  0
  4  3  1  0
  5  4  2  0
  6  5  1  0
  7  6  2  0
  7  8  1  0
  8  9  2  0
  9  4  1  0
 10  2  1  0
 10 17  1  0
 11 10  2  0
 13 12  1  0
 14 16  1  0
 14 13  1  0
 14 15  1  6
 16 17  1  1
 18 16  1  0
 19 18  2  0
 21 20  1  6
 21 23  1  0
 21 22  1  0
 22 18  1  0
 23 25  1  0
 24 23  2  0
M  END
$$$$
