FIA.pdb
     RDKit          3D

 25 25  0  0  1  0  0  0  0  0999 V2000
   23.6404  -24.8694  -15.9339 N   0  0  0  0  0  0  0  0  0  0  0  0
   22.4504  -25.6901  -15.7213 C   0  0  1  0  0  0  0  0  0  0  0  0
   22.7946  -27.1530  -16.0007 C   0  0  0  0  0  0  0  0  0  0  0  0
   22.5858  -27.4392  -17.4382 C   0  0  0  0  0  0  0  0  0  0  0  0
   22.5152  -26.4178  -18.3614 C   0  0  0  0  0  0  0  0  0  0  0  0
   22.3194  -26.6742  -19.7136 C   0  0  0  0  0  0  0  0  0  0  0  0
   22.1972  -27.9949  -20.1047 C   0  0  0  0  0  0  0  0  0  0  0  0
   22.2634  -29.0321  -19.2086 C   0  0  0  0  0  0  0  0  0  0  0  0
   22.4587  -28.7342  -17.8755 C   0  0  0  0  0  0  0  0  0  0  0  0
   22.0536  -25.5349  -14.2988 C   0  0  0  0  0  0  0  0  0  0  0  0
   22.9068  -25.3807  -13.3713 O   0  0  0  0  0  0  0  0  0  0  0  0
   19.0548  -21.6744  -13.3029 C   0  0  0  0  0  0  0  0  0  0  0  0
   20.0613  -22.8255  -13.2299 C   0  0  0  0  0  0  0  0  0  0  0  0
   19.3623  -24.0563  -12.7288 C   0  0  2  0  0  0  0  0  0  0  0  0
   18.5686  -23.7627  -11.4559 C   0  0  0  0  0  0  0  0  0  0  0  0
   20.1951  -25.2825  -12.5860 C   0  0  2  0  0  0  0  0  0  0  0  0
   20.7022  -25.5573  -13.9552 N   0  0  0  0  0  0  0  0  0  0  0  0
   19.5170  -26.4983  -12.1561 C   0  0  0  0  0  0  0  0  0  0  0  0
   18.5308  -26.9867  -12.8105 O   0  0  0  0  0  0  0  0  0  0  0  0
   19.9086  -29.1061   -9.4605 C   0  0  0  0  0  0  0  0  0  0  0  0
   19.1614  -28.4577  -10.6254 C   0  0  2  0  0  0  0  0  0  0  0  0
   19.8757  -27.2397  -11.0060 N   0  0  0  0  0  0  0  0  0  0  0  0
   17.8181  -28.1000  -10.1148 C   0  0  0  0  0  0  0  0  0  0  0  0
   17.6605  -26.9768   -9.5795 O   0  0  0  0  0  0  0  0  0  0  0  0
   16.7287  -28.9529  -10.2032 O   0  0  0  0  0  0  0  0  0  0  0  0
  2  1  1  1
  2  3  1  0
  4  3  1  0
  5  4  2  0
  6  5  1  0
  7  6  2  0
  7  8  1  0
  8  9  2  0
  9  4  1  0
 10  2  1  0
 10 17  1  0
 11 10  2  0
 13 12  1  0
 14 16  1  0
 14 13  1  0
 14 15  1  1
 16 17  1  6
 18 16  1  0
 19 18  2  0
 21 20  1  1
 21 23  1  0
 21 22  1  0
 22 18  1  0
 23 25  1  0
 24 23  2  0
M  END
$$$$
