FIA.pdb
     RDKit          3D

 25 25  0  0  1  0  0  0  0  0999 V2000
   17.1471  -17.1496    2.2309 N   0  0  0  0  0  0  0  0  0  0  0  0
   17.6247  -17.7412    3.4786 C   0  0  1  0  0  0  0  0  0  0  0  0
   18.1747  -19.1384    3.1920 C   0  0  0  0  0  0  0  0  0  0  0  0
   17.0722  -20.0141    2.7343 C   0  0  0  0  0  0  0  0  0  0  0  0
   16.1488  -20.5164    3.6262 C   0  0  0  0  0  0  0  0  0  0  0  0
   15.1095  -21.3396    3.2083 C   0  0  0  0  0  0  0  0  0  0  0  0
   15.0316  -21.6399    1.8607 C   0  0  0  0  0  0  0  0  0  0  0  0
   15.9361  -21.1546    0.9499 C   0  0  0  0  0  0  0  0  0  0  0  0
   16.9526  -20.3408    1.4063 C   0  0  0  0  0  0  0  0  0  0  0  0
   18.7145  -16.8729    3.9919 C   0  0  0  0  0  0  0  0  0  0  0  0
   19.7859  -16.6751    3.3400 O   0  0  0  0  0  0  0  0  0  0  0  0
   18.1303  -12.0684    4.4472 C   0  0  0  0  0  0  0  0  0  0  0  0
   18.8046  -13.4391    4.3473 C   0  0  0  0  0  0  0  0  0  0  0  0
   19.0083  -13.9868    5.7304 C   0  0  2  0  0  0  0  0  0  0  0  0
   19.7544  -12.9894    6.6165 C   0  0  0  0  0  0  0  0  0  0  0  0
   19.5955  -15.3519    5.8254 C   0  0  2  0  0  0  0  0  0  0  0  0
   18.5704  -16.2473    5.2299 N   0  0  0  0  0  0  0  0  0  0  0  0
   19.8557  -15.8704    7.1619 C   0  0  0  0  0  0  0  0  0  0  0  0
   18.9078  -16.1008    7.9912 O   0  0  0  0  0  0  0  0  0  0  0  0
   22.7888  -17.2120    9.1016 C   0  0  0  0  0  0  0  0  0  0  0  0
   21.3454  -16.7205    8.9968 C   0  0  2  0  0  0  0  0  0  0  0  0
   21.1470  -16.1655    7.6585 N   0  0  0  0  0  0  0  0  0  0  0  0
   21.1950  -15.6438   10.0023 C   0  0  0  0  0  0  0  0  0  0  0  0
   21.3038  -14.4527    9.6250 O   0  0  0  0  0  0  0  0  0  0  0  0
   20.9395  -15.8961   11.3413 O   0  0  0  0  0  0  0  0  0  0  0  0
  2  1  1  6
  2  3  1  0
  4  3  1  0
  5  4  2  0
  6  5  1  0
  7  6  2  0
  7  8  1  0
  8  9  2  0
  9  4  1  0
 10  2  1  0
 10 17  1  0
 11 10  2  0
 13 12  1  0
 14 16  1  0
 14 13  1  0
 14 15  1  1
 16 17  1  1
 18 16  1  0
 19 18  2  0
 21 20  1  6
 21 23  1  0
 21 22  1  0
 22 18  1  0
 23 25  1  0
 24 23  2  0
M  END
$$$$
