SWY.pdb
     RDKit          3D

 33 35  0  0  1  0  0  0  0  0999 V2000
    9.4843  -21.3589   24.7095 O   0  0  0  0  0  0  0  0  0  0  0  0
    8.2243  -21.5528   25.2503 C   0  0  0  0  0  0  0  0  0  0  0  0
    7.2190  -21.1237   24.1804 C   0  0  2  0  0  0  0  0  0  0  0  0
    7.4626  -21.9806   23.0392 N   0  0  0  0  0  0  0  0  0  0  0  0
    7.5328  -19.7342   23.8157 C   0  0  0  0  0  0  0  0  0  0  0  0
    8.2724  -19.5085   22.8229 O   0  0  0  0  0  0  0  0  0  0  0  0
    7.0150  -18.6217   24.5659 N   0  0  0  0  0  0  0  0  0  0  0  0
    7.3850  -17.2923   24.2246 C   0  0  1  0  0  0  0  0  0  0  0  0
    6.3602  -16.2365   24.6237 C   0  0  0  0  0  0  0  0  0  0  0  0
    6.7100  -14.8824   24.1464 C   0  0  0  0  0  0  0  0  0  0  0  0
    7.0697  -14.5391   22.8589 C   0  0  0  0  0  0  0  0  0  0  0  0
    7.2937  -13.2187   22.7879 N   0  0  0  0  0  0  0  0  0  0  0  0
    7.0866  -12.6915   24.0092 C   0  0  0  0  0  0  0  0  0  0  0  0
    7.1726  -11.4142   24.5109 C   0  0  0  0  0  0  0  0  0  0  0  0
    6.9104  -11.1247   25.8316 C   0  0  0  0  0  0  0  0  0  0  0  0
    6.5467  -12.1247   26.7085 C   0  0  0  0  0  0  0  0  0  0  0  0
    6.4634  -13.4069   26.1905 C   0  0  0  0  0  0  0  0  0  0  0  0
    6.7224  -13.7114   24.8703 C   0  0  0  0  0  0  0  0  0  0  0  0
    8.6749  -16.8740   24.8315 C   0  0  0  0  0  0  0  0  0  0  0  0
    8.7519  -16.8756   26.0832 O   0  0  0  0  0  0  0  0  0  0  0  0
    9.8631  -17.6981   30.7502 O   0  0  0  0  0  0  0  0  0  0  0  0
   10.2685  -17.6489   29.4190 C   0  0  0  0  0  0  0  0  0  0  0  0
   10.9500  -16.5162   29.0127 C   0  0  0  0  0  0  0  0  0  0  0  0
   11.3715  -16.4208   27.7057 C   0  0  0  0  0  0  0  0  0  0  0  0
   11.1130  -17.4564   26.8045 C   0  0  0  0  0  0  0  0  0  0  0  0
   11.5357  -17.3823   25.3921 C   0  0  0  0  0  0  0  0  0  0  0  0
   11.0812  -16.1388   24.6703 C   0  0  2  0  0  0  0  0  0  0  0  0
    9.7904  -16.4837   24.0550 N   0  0  0  0  0  0  0  0  0  0  0  0
   12.0788  -15.7827   23.6527 C   0  0  0  0  0  0  0  0  0  0  0  0
   13.2808  -15.2323   24.0438 O   0  0  0  0  0  0  0  0  0  0  0  0
   10.4305  -18.5748   27.2387 C   0  0  0  0  0  0  0  0  0  0  0  0
   10.0005  -18.6841   28.5498 C   0  0  0  0  0  0  0  0  0  0  0  0
   11.8441  -15.9751   22.4465 O   0  0  0  0  0  0  0  0  0  0  0  0
  2  1  1  0
  3  2  1  0
  3  4  1  6
  5  6  2  0
  5  3  1  0
  7  5  1  0
  8  9  1  1
  8  7  1  0
 10  9  1  0
 10 18  1  0
 11 12  1  0
 11 10  2  0
 12 13  1  0
 13 18  2  0
 13 14  1  0
 14 15  2  0
 15 16  1  0
 17 16  2  0
 18 17  1  0
 19  8  1  0
 20 19  2  0
 22 21  1  0
 22 23  2  0
 24 23  1  0
 25 24  2  0
 26 25  1  0
 27 26  1  6
 27 28  1  0
 28 19  1  0
 29 27  1  0
 29 30  1  0
 31 32  2  0
 31 25  1  0
 32 22  1  0
 33 29  2  0
M  END
$$$$
