SWY.pdb
     RDKit          3D

 33 35  0  0  1  0  0  0  0  0999 V2000
   10.9975  -19.0429   19.7111 O   0  0  0  0  0  0  0  0  0  0  0  0
    9.8746  -18.8478   18.9245 C   0  0  0  0  0  0  0  0  0  0  0  0
    9.8300  -17.3563   18.5891 C   0  0  2  0  0  0  0  0  0  0  0  0
   11.0583  -17.0717   17.8775 N   0  0  0  0  0  0  0  0  0  0  0  0
    9.8287  -16.6203   19.8622 C   0  0  0  0  0  0  0  0  0  0  0  0
   10.8993  -16.1073   20.2798 O   0  0  0  0  0  0  0  0  0  0  0  0
    8.6321  -16.4700   20.6458 N   0  0  0  0  0  0  0  0  0  0  0  0
    8.6399  -15.6689   21.8199 C   0  0  1  0  0  0  0  0  0  0  0  0
    7.2709  -15.1270   22.2156 C   0  0  0  0  0  0  0  0  0  0  0  0
    7.1204  -14.9473   23.6748 C   0  0  0  0  0  0  0  0  0  0  0  0
    6.9139  -15.9479   24.6027 C   0  0  0  0  0  0  0  0  0  0  0  0
    6.8492  -15.4184   25.8331 N   0  0  0  0  0  0  0  0  0  0  0  0
    7.0098  -14.0860   25.7258 C   0  0  0  0  0  0  0  0  0  0  0  0
    7.0277  -13.0623   26.6434 C   0  0  0  0  0  0  0  0  0  0  0  0
    7.2072  -11.7477   26.2738 C   0  0  0  0  0  0  0  0  0  0  0  0
    7.3778  -11.4105   24.9478 C   0  0  0  0  0  0  0  0  0  0  0  0
    7.3580  -12.4511   24.0334 C   0  0  0  0  0  0  0  0  0  0  0  0
    7.1799  -13.7718   24.3890 C   0  0  0  0  0  0  0  0  0  0  0  0
    9.1659  -16.3863   23.0098 C   0  0  0  0  0  0  0  0  0  0  0  0
    8.9593  -17.6213   23.0777 O   0  0  0  0  0  0  0  0  0  0  0  0
    9.1668  -15.4054   30.7110 O   0  0  0  0  0  0  0  0  0  0  0  0
    9.7820  -15.4034   29.4618 C   0  0  0  0  0  0  0  0  0  0  0  0
    9.5061  -14.3344   28.6290 C   0  0  0  0  0  0  0  0  0  0  0  0
   10.0906  -14.2875   27.3835 C   0  0  0  0  0  0  0  0  0  0  0  0
   10.9508  -15.3074   26.9697 C   0  0  0  0  0  0  0  0  0  0  0  0
   11.5829  -15.2988   25.6358 C   0  0  0  0  0  0  0  0  0  0  0  0
   11.0484  -16.3412   24.6863 C   0  0  2  0  0  0  0  0  0  0  0  0
    9.8757  -15.7303   24.0420 N   0  0  0  0  0  0  0  0  0  0  0  0
   10.6741  -17.5390   25.4496 C   0  0  0  0  0  0  0  0  0  0  0  0
   11.6609  -18.3335   25.9932 O   0  0  0  0  0  0  0  0  0  0  0  0
   11.2072  -16.3619   27.8226 C   0  0  0  0  0  0  0  0  0  0  0  0
   10.6264  -16.4224   29.0775 C   0  0  0  0  0  0  0  0  0  0  0  0
    9.4766  -17.8369   25.6063 O   0  0  0  0  0  0  0  0  0  0  0  0
  2  1  1  0
  3  2  1  0
  3  4  1  6
  5  6  2  0
  5  3  1  0
  7  5  1  0
  8  9  1  1
  8  7  1  0
 10  9  1  0
 10 18  1  0
 11 12  1  0
 11 10  2  0
 12 13  1  0
 13 18  2  0
 13 14  1  0
 14 15  2  0
 15 16  1  0
 17 16  2  0
 18 17  1  0
 19  8  1  0
 20 19  2  0
 22 21  1  0
 22 23  2  0
 24 23  1  0
 25 24  2  0
 26 25  1  0
 27 26  1  1
 27 28  1  0
 28 19  1  0
 29 27  1  0
 29 30  1  0
 31 32  2  0
 31 25  1  0
 32 22  1  0
 33 29  2  0
M  END
$$$$
