SWY.pdb
     RDKit          3D

 33 35  0  0  1  0  0  0  0  0999 V2000
    8.4984  -21.2238   22.1117 O   0  0  0  0  0  0  0  0  0  0  0  0
    9.7907  -20.7641   21.9217 C   0  0  0  0  0  0  0  0  0  0  0  0
    9.7068  -19.6392   20.8889 C   0  0  2  0  0  0  0  0  0  0  0  0
   10.3045  -20.1644   19.6793 N   0  0  0  0  0  0  0  0  0  0  0  0
   10.5263  -18.5244   21.3869 C   0  0  0  0  0  0  0  0  0  0  0  0
   11.7282  -18.4322   21.0255 O   0  0  0  0  0  0  0  0  0  0  0  0
    9.9891  -17.5326   22.2792 N   0  0  0  0  0  0  0  0  0  0  0  0
   10.8241  -16.5041   22.7945 C   0  0  1  0  0  0  0  0  0  0  0  0
   10.5622  -15.1273   22.1944 C   0  0  0  0  0  0  0  0  0  0  0  0
    9.1235  -14.8352   22.0247 C   0  0  0  0  0  0  0  0  0  0  0  0
    8.0807  -15.4727   22.6659 C   0  0  0  0  0  0  0  0  0  0  0  0
    6.9151  -14.9295   22.2855 N   0  0  0  0  0  0  0  0  0  0  0  0
    7.1779  -13.9461   21.4044 C   0  0  0  0  0  0  0  0  0  0  0  0
    6.3813  -13.0740   20.7007 C   0  0  0  0  0  0  0  0  0  0  0  0
    6.9028  -12.1392   19.8339 C   0  0  0  0  0  0  0  0  0  0  0  0
    8.2649  -12.0465   19.6411 C   0  0  0  0  0  0  0  0  0  0  0  0
    9.0563  -12.9306   20.3563 C   0  0  0  0  0  0  0  0  0  0  0  0
    8.5482  -13.8711   21.2279 C   0  0  0  0  0  0  0  0  0  0  0  0
   10.7113  -16.3470   24.2675 C   0  0  0  0  0  0  0  0  0  0  0  0
   11.5131  -15.5623   24.8278 O   0  0  0  0  0  0  0  0  0  0  0  0
    6.3402  -11.5257   26.0138 O   0  0  0  0  0  0  0  0  0  0  0  0
    6.7871  -12.8286   26.2174 C   0  0  0  0  0  0  0  0  0  0  0  0
    8.0726  -12.9815   26.7037 C   0  0  0  0  0  0  0  0  0  0  0  0
    8.5598  -14.2505   26.9215 C   0  0  0  0  0  0  0  0  0  0  0  0
    7.7636  -15.3667   26.6542 C   0  0  0  0  0  0  0  0  0  0  0  0
    8.2577  -16.7422   26.8604 C   0  0  0  0  0  0  0  0  0  0  0  0
    9.7087  -16.9432   26.5026 C   0  0  2  0  0  0  0  0  0  0  0  0
    9.7482  -17.0413   25.0355 N   0  0  0  0  0  0  0  0  0  0  0  0
   10.1919  -18.1788   27.1330 C   0  0  0  0  0  0  0  0  0  0  0  0
   10.3577  -18.2232   28.5009 O   0  0  0  0  0  0  0  0  0  0  0  0
    6.4844  -15.1830   26.1692 C   0  0  0  0  0  0  0  0  0  0  0  0
    5.9815  -13.9131   25.9453 C   0  0  0  0  0  0  0  0  0  0  0  0
   10.4503  -19.1794   26.4407 O   0  0  0  0  0  0  0  0  0  0  0  0
  2  1  1  0
  3  2  1  0
  3  4  1  6
  5  6  2  0
  5  3  1  0
  7  5  1  0
  8  9  1  6
  8  7  1  0
 10  9  1  0
 10 18  1  0
 11 12  1  0
 11 10  2  0
 12 13  1  0
 13 18  2  0
 13 14  1  0
 14 15  2  0
 15 16  1  0
 17 16  2  0
 18 17  1  0
 19  8  1  0
 20 19  2  0
 22 21  1  0
 22 23  2  0
 24 23  1  0
 25 24  2  0
 26 25  1  0
 27 26  1  6
 27 28  1  0
 28 19  1  0
 29 27  1  0
 29 30  1  0
 31 32  2  0
 31 25  1  0
 32 22  1  0
 33 29  2  0
M  END
$$$$
