SWY.pdb
     RDKit          3D

 33 35  0  0  1  0  0  0  0  0999 V2000
    9.1710  -14.5042   17.7902 O   0  0  0  0  0  0  0  0  0  0  0  0
    7.8752  -14.8149   18.1670 C   0  0  0  0  0  0  0  0  0  0  0  0
    7.4273  -13.7192   19.1355 C   0  0  2  0  0  0  0  0  0  0  0  0
    7.8553  -12.4680   18.5460 N   0  0  0  0  0  0  0  0  0  0  0  0
    8.1496  -13.9287   20.3992 C   0  0  0  0  0  0  0  0  0  0  0  0
    9.2525  -13.3512   20.5830 O   0  0  0  0  0  0  0  0  0  0  0  0
    7.6272  -14.7789   21.4350 N   0  0  0  0  0  0  0  0  0  0  0  0
    8.4082  -15.0684   22.5868 C   0  0  1  0  0  0  0  0  0  0  0  0
    7.6905  -15.9156   23.6315 C   0  0  0  0  0  0  0  0  0  0  0  0
    6.8414  -15.1163   24.5395 C   0  0  0  0  0  0  0  0  0  0  0  0
    5.8714  -15.6058   25.3906 C   0  0  0  0  0  0  0  0  0  0  0  0
    5.3206  -14.5950   26.0787 N   0  0  0  0  0  0  0  0  0  0  0  0
    5.9145  -13.4506   25.6912 C   0  0  0  0  0  0  0  0  0  0  0  0
    5.7491  -12.1343   26.0524 C   0  0  0  0  0  0  0  0  0  0  0  0
    6.4937  -11.1200   25.4923 C   0  0  0  0  0  0  0  0  0  0  0  0
    7.4459  -11.3974   24.5344 C   0  0  0  0  0  0  0  0  0  0  0  0
    7.6029  -12.7275   24.1798 C   0  0  0  0  0  0  0  0  0  0  0  0
    6.8650  -13.7534   24.7325 C   0  0  0  0  0  0  0  0  0  0  0  0
    9.6728  -15.7799   22.2679 C   0  0  0  0  0  0  0  0  0  0  0  0
   10.3507  -15.3495   21.3047 O   0  0  0  0  0  0  0  0  0  0  0  0
   11.7483  -15.1066   30.3935 O   0  0  0  0  0  0  0  0  0  0  0  0
   11.2990  -15.3472   29.0978 C   0  0  0  0  0  0  0  0  0  0  0  0
   10.1479  -14.6913   28.7016 C   0  0  0  0  0  0  0  0  0  0  0  0
    9.6640  -14.8969   27.4292 C   0  0  0  0  0  0  0  0  0  0  0  0
   10.3296  -15.7570   26.5525 C   0  0  0  0  0  0  0  0  0  0  0  0
    9.8316  -16.0140   25.1869 C   0  0  0  0  0  0  0  0  0  0  0  0
   10.7988  -16.7578   24.3008 C   0  0  2  0  0  0  0  0  0  0  0  0
   10.1215  -16.9014   23.0030 N   0  0  0  0  0  0  0  0  0  0  0  0
   11.0883  -18.0676   24.8992 C   0  0  0  0  0  0  0  0  0  0  0  0
   12.3182  -18.2915   25.4804 O   0  0  0  0  0  0  0  0  0  0  0  0
   11.4763  -16.3980   26.9761 C   0  0  0  0  0  0  0  0  0  0  0  0
   11.9740  -16.2010   28.2525 C   0  0  0  0  0  0  0  0  0  0  0  0
   10.2324  -18.9700   24.8834 O   0  0  0  0  0  0  0  0  0  0  0  0
  2  1  1  0
  3  2  1  0
  3  4  1  6
  5  6  2  0
  5  3  1  0
  7  5  1  0
  8  9  1  1
  8  7  1  0
 10  9  1  0
 10 18  1  0
 11 12  1  0
 11 10  2  0
 12 13  1  0
 13 18  2  0
 13 14  1  0
 14 15  2  0
 15 16  1  0
 17 16  2  0
 18 17  1  0
 19  8  1  0
 20 19  2  0
 22 21  1  0
 22 23  2  0
 24 23  1  0
 25 24  2  0
 26 25  1  0
 27 26  1  1
 27 28  1  0
 28 19  1  0
 29 27  1  0
 29 30  1  0
 31 32  2  0
 31 25  1  0
 32 22  1  0
 33 29  2  0
M  END
$$$$
