SWY.pdb
     RDKit          3D

 33 35  0  0  1  0  0  0  0  0999 V2000
    8.2727  -16.6936   17.8100 O   0  0  0  0  0  0  0  0  0  0  0  0
    8.9170  -15.8798   18.7266 C   0  0  0  0  0  0  0  0  0  0  0  0
    7.8252  -15.2374   19.5837 C   0  0  2  0  0  0  0  0  0  0  0  0
    7.5228  -13.9679   18.9569 N   0  0  0  0  0  0  0  0  0  0  0  0
    8.3998  -14.9930   20.9151 C   0  0  0  0  0  0  0  0  0  0  0  0
    9.0758  -13.9503   21.1138 O   0  0  0  0  0  0  0  0  0  0  0  0
    8.2089  -15.9170   22.0006 N   0  0  0  0  0  0  0  0  0  0  0  0
    8.7157  -15.6177   23.2945 C   0  0  1  0  0  0  0  0  0  0  0  0
    7.8976  -16.2074   24.4378 C   0  0  0  0  0  0  0  0  0  0  0  0
    6.9882  -15.2253   25.0641 C   0  0  0  0  0  0  0  0  0  0  0  0
    5.8107  -15.5101   25.7255 C   0  0  0  0  0  0  0  0  0  0  0  0
    5.2624  -14.3752   26.1836 N   0  0  0  0  0  0  0  0  0  0  0  0
    6.0623  -13.3509   25.8323 C   0  0  0  0  0  0  0  0  0  0  0  0
    5.9936  -11.9918   26.0286 C   0  0  0  0  0  0  0  0  0  0  0  0
    6.9587  -11.1315   25.5538 C   0  0  0  0  0  0  0  0  0  0  0  0
    8.0442  -11.6146   24.8542 C   0  0  0  0  0  0  0  0  0  0  0  0
    8.1017  -12.9857   24.6636 C   0  0  0  0  0  0  0  0  0  0  0  0
    7.1431  -13.8590   25.1337 C   0  0  0  0  0  0  0  0  0  0  0  0
   10.1118  -16.0848   23.4944 C   0  0  0  0  0  0  0  0  0  0  0  0
   10.5085  -17.0399   22.7852 O   0  0  0  0  0  0  0  0  0  0  0  0
    9.9144  -16.7654   30.4952 O   0  0  0  0  0  0  0  0  0  0  0  0
   10.6213  -16.3893   29.3560 C   0  0  0  0  0  0  0  0  0  0  0  0
   11.5776  -17.2736   28.8913 C   0  0  0  0  0  0  0  0  0  0  0  0
   12.3029  -16.9464   27.7679 C   0  0  0  0  0  0  0  0  0  0  0  0
   12.0731  -15.7366   27.1083 C   0  0  0  0  0  0  0  0  0  0  0  0
   12.8420  -15.3452   25.9106 C   0  0  0  0  0  0  0  0  0  0  0  0
   12.3612  -15.9757   24.6280 C   0  0  2  0  0  0  0  0  0  0  0  0
   10.9835  -15.4961   24.4394 N   0  0  0  0  0  0  0  0  0  0  0  0
   12.4027  -17.4374   24.7665 C   0  0  0  0  0  0  0  0  0  0  0  0
   13.6205  -18.0833   24.7845 O   0  0  0  0  0  0  0  0  0  0  0  0
   11.1121  -14.8739   27.5955 C   0  0  0  0  0  0  0  0  0  0  0  0
   10.3756  -15.1896   28.7240 C   0  0  0  0  0  0  0  0  0  0  0  0
   11.3489  -18.0905   24.8672 O   0  0  0  0  0  0  0  0  0  0  0  0
  2  1  1  0
  3  2  1  0
  3  4  1  6
  5  6  2  0
  5  3  1  0
  7  5  1  0
  8  9  1  1
  8  7  1  0
 10  9  1  0
 10 18  1  0
 11 12  1  0
 11 10  2  0
 12 13  1  0
 13 18  2  0
 13 14  1  0
 14 15  2  0
 15 16  1  0
 17 16  2  0
 18 17  1  0
 19  8  1  0
 20 19  2  0
 22 21  1  0
 22 23  2  0
 24 23  1  0
 25 24  2  0
 26 25  1  0
 27 26  1  1
 27 28  1  0
 28 19  1  0
 29 27  1  0
 29 30  1  0
 31 32  2  0
 31 25  1  0
 32 22  1  0
 33 29  2  0
M  END
$$$$
