SWY.pdb
     RDKit          3D

 33 35  0  0  1  0  0  0  0  0999 V2000
    8.9480  -14.7669   19.6734 O   0  0  0  0  0  0  0  0  0  0  0  0
    8.2042  -15.4161   20.6445 C   0  0  0  0  0  0  0  0  0  0  0  0
    9.0787  -16.5518   21.1780 C   0  0  2  0  0  0  0  0  0  0  0  0
    8.1948  -17.6846   21.3555 N   0  0  0  0  0  0  0  0  0  0  0  0
    9.5923  -16.1308   22.4900 C   0  0  0  0  0  0  0  0  0  0  0  0
   10.3806  -15.1523   22.5593 O   0  0  0  0  0  0  0  0  0  0  0  0
    9.2162  -16.8097   23.7008 N   0  0  0  0  0  0  0  0  0  0  0  0
    9.7303  -16.3783   24.9539 C   0  0  1  0  0  0  0  0  0  0  0  0
    8.7197  -16.4280   26.0943 C   0  0  0  0  0  0  0  0  0  0  0  0
    7.5181  -15.6070   25.8376 C   0  0  0  0  0  0  0  0  0  0  0  0
    6.3399  -16.0423   25.2655 C   0  0  0  0  0  0  0  0  0  0  0  0
    5.4616  -15.0303   25.2112 N   0  0  0  0  0  0  0  0  0  0  0  0
    6.0462  -13.9383   25.7387 C   0  0  0  0  0  0  0  0  0  0  0  0
    5.6238  -12.6443   25.9325 C   0  0  0  0  0  0  0  0  0  0  0  0
    6.4319  -11.6855   26.5023 C   0  0  0  0  0  0  0  0  0  0  0  0
    7.7132  -11.9986   26.9039 C   0  0  0  0  0  0  0  0  0  0  0  0
    8.1265  -13.3057   26.7035 C   0  0  0  0  0  0  0  0  0  0  0  0
    7.3282  -14.2762   26.1349 C   0  0  0  0  0  0  0  0  0  0  0  0
   10.9066  -17.1673   25.4024 C   0  0  0  0  0  0  0  0  0  0  0  0
   11.6595  -17.6364   24.5161 O   0  0  0  0  0  0  0  0  0  0  0  0
   14.2715  -17.0736   21.2093 O   0  0  0  0  0  0  0  0  0  0  0  0
   14.0887  -17.1311   22.5885 C   0  0  0  0  0  0  0  0  0  0  0  0
   14.4944  -18.2889   23.2268 C   0  0  0  0  0  0  0  0  0  0  0  0
   14.3343  -18.3934   24.5901 C   0  0  0  0  0  0  0  0  0  0  0  0
   13.7696  -17.3420   25.3161 C   0  0  0  0  0  0  0  0  0  0  0  0
   13.5679  -17.4247   26.7760 C   0  0  0  0  0  0  0  0  0  0  0  0
   12.3466  -18.2049   27.1930 C   0  0  2  0  0  0  0  0  0  0  0  0
   11.1929  -17.3976   26.7679 N   0  0  0  0  0  0  0  0  0  0  0  0
   12.3652  -18.3825   28.6509 C   0  0  0  0  0  0  0  0  0  0  0  0
   13.2819  -19.2416   29.2186 O   0  0  0  0  0  0  0  0  0  0  0  0
   13.3738  -16.1987   24.6517 C   0  0  0  0  0  0  0  0  0  0  0  0
   13.5285  -16.0799   23.2814 C   0  0  0  0  0  0  0  0  0  0  0  0
   11.5613  -17.7639   29.3708 O   0  0  0  0  0  0  0  0  0  0  0  0
  2  1  1  0
  3  2  1  0
  3  4  1  1
  5  6  2  0
  5  3  1  0
  7  5  1  0
  8  9  1  1
  8  7  1  0
 10  9  1  0
 10 18  1  0
 11 12  1  0
 11 10  2  0
 12 13  1  0
 13 18  2  0
 13 14  1  0
 14 15  2  0
 15 16  1  0
 17 16  2  0
 18 17  1  0
 19  8  1  0
 20 19  2  0
 22 21  1  0
 22 23  2  0
 24 23  1  0
 25 24  2  0
 26 25  1  0
 27 26  1  1
 27 28  1  0
 28 19  1  0
 29 27  1  0
 29 30  1  0
 31 32  2  0
 31 25  1  0
 32 22  1  0
 33 29  2  0
M  END
$$$$
