AIT.pdb
     RDKit          3D

 21 20  0  0  1  0  0  0  0  0999 V2000
   27.8611  -19.2120  -15.3470 C   0  0  0  0  0  0  0  0  0  0  0  0
   28.1878  -20.4164  -14.5113 C   0  0  2  0  0  0  0  0  0  0  0  0
   28.8415  -21.4273  -15.2807 N   0  0  0  0  0  0  0  0  0  0  0  0
   26.9338  -20.9999  -13.9001 C   0  0  0  0  0  0  0  0  0  0  0  0
   26.3395  -21.9345  -14.5348 O   0  0  0  0  0  0  0  0  0  0  0  0
   26.5829  -20.4293   -8.3773 C   0  0  0  0  0  0  0  0  0  0  0  0
   26.5017  -21.0094   -9.7810 C   0  0  0  0  0  0  0  0  0  0  0  0
   25.2933  -20.5092  -10.5172 C   0  0  2  0  0  0  0  0  0  0  0  0
   24.0684  -21.0081   -9.7805 C   0  0  0  0  0  0  0  0  0  0  0  0
   25.2589  -20.9076  -11.9793 C   0  0  2  0  0  0  0  0  0  0  0  0
   26.4573  -20.5093  -12.6679 N   0  0  0  0  0  0  0  0  0  0  0  0
   24.0343  -20.5128  -12.6571 C   0  0  0  0  0  0  0  0  0  0  0  0
   23.7504  -19.2922  -12.7794 O   0  0  0  0  0  0  0  0  0  0  0  0
   22.8224  -21.7941  -16.1416 C   0  0  0  0  0  0  0  0  0  0  0  0
   21.6813  -21.8696  -15.1535 C   0  0  1  0  0  0  0  0  0  0  0  0
   21.5155  -23.2136  -14.8344 O   0  0  0  0  0  0  0  0  0  0  0  0
   21.9173  -21.0276  -13.9321 C   0  0  2  0  0  0  0  0  0  0  0  0
   23.1068  -21.4520  -13.2083 N   0  0  0  0  0  0  0  0  0  0  0  0
   20.7257  -21.0494  -13.0153 C   0  0  0  0  0  0  0  0  0  0  0  0
   20.7828  -21.6513  -11.9014 O   0  0  0  0  0  0  0  0  0  0  0  0
   19.5277  -20.4311  -13.3230 O   0  0  0  0  0  0  0  0  0  0  0  0
  2  1  1  6
  3  2  1  0
  4  2  1  0
  5  4  2  0
  7  8  1  0
  7  6  1  0
  8 10  1  0
  8  9  1  1
 10 12  1  0
 10 11  1  6
 11  4  1  0
 12 13  2  0
 15 14  1  6
 15 16  1  0
 17 15  1  0
 17 18  1  1
 18 12  1  0
 19 21  1  0
 19 17  1  0
 20 19  2  0
M  END
$$$$
