AIT.pdb
     RDKit          3D

 21 20  0  0  1  0  0  0  0  0999 V2000
   27.2073  -18.4860  -16.6572 C   0  0  0  0  0  0  0  0  0  0  0  0
   28.0613  -19.5799  -16.0829 C   0  0  2  0  0  0  0  0  0  0  0  0
   28.5849  -20.4287  -17.1060 N   0  0  0  0  0  0  0  0  0  0  0  0
   27.2695  -20.4204  -15.1067 C   0  0  0  0  0  0  0  0  0  0  0  0
   26.6449  -21.4359  -15.5628 O   0  0  0  0  0  0  0  0  0  0  0  0
   29.3568  -21.1288  -10.1841 C   0  0  0  0  0  0  0  0  0  0  0  0
   28.5645  -21.3415  -11.4650 C   0  0  0  0  0  0  0  0  0  0  0  0
   27.2024  -20.7167  -11.3829 C   0  0  2  0  0  0  0  0  0  0  0  0
   26.4191  -21.4619  -10.3230 C   0  0  0  0  0  0  0  0  0  0  0  0
   26.4594  -20.6926  -12.7040 C   0  0  2  0  0  0  0  0  0  0  0  0
   27.2384  -20.0716  -13.7415 N   0  0  0  0  0  0  0  0  0  0  0  0
   25.1056  -20.1726  -12.5961 C   0  0  0  0  0  0  0  0  0  0  0  0
   24.9029  -19.0610  -12.0405 O   0  0  0  0  0  0  0  0  0  0  0  0
   22.9921  -18.8932  -15.0699 C   0  0  0  0  0  0  0  0  0  0  0  0
   22.1094  -19.9098  -14.3832 C   0  0  1  0  0  0  0  0  0  0  0  0
   22.0211  -21.0053  -15.2361 O   0  0  0  0  0  0  0  0  0  0  0  0
   22.6209  -20.2959  -13.0246 C   0  0  2  0  0  0  0  0  0  0  0  0
   23.9584  -20.8658  -13.0959 N   0  0  0  0  0  0  0  0  0  0  0  0
   21.6895  -21.2605  -12.3443 C   0  0  0  0  0  0  0  0  0  0  0  0
   22.0489  -22.4562  -12.1272 O   0  0  0  0  0  0  0  0  0  0  0  0
   20.4187  -20.9114  -11.9255 O   0  0  0  0  0  0  0  0  0  0  0  0
  2  1  1  6
  3  2  1  0
  4  2  1  0
  5  4  2  0
  7  8  1  0
  7  6  1  0
  8 10  1  0
  8  9  1  1
 10 12  1  0
 10 11  1  6
 11  4  1  0
 12 13  2  0
 15 14  1  6
 15 16  1  0
 17 15  1  0
 17 18  1  6
 18 12  1  0
 19 21  1  0
 19 17  1  0
 20 19  2  0
M  END
$$$$
