AIT.pdb
     RDKit          3D

 21 20  0  0  1  0  0  0  0  0999 V2000
   34.6447  -24.0044  -19.4253 C   0  0  0  0  0  0  0  0  0  0  0  0
   34.2626  -24.1899  -17.9848 C   0  0  2  0  0  0  0  0  0  0  0  0
   35.2802  -24.8792  -17.2565 N   0  0  0  0  0  0  0  0  0  0  0  0
   32.9684  -24.9634  -17.8697 C   0  0  0  0  0  0  0  0  0  0  0  0
   33.0386  -26.2054  -17.5832 O   0  0  0  0  0  0  0  0  0  0  0  0
   28.9750  -22.3595  -15.3614 C   0  0  0  0  0  0  0  0  0  0  0  0
   29.9086  -23.4223  -15.9205 C   0  0  0  0  0  0  0  0  0  0  0  0
   29.4651  -23.8905  -17.2757 C   0  0  2  0  0  0  0  0  0  0  0  0
   28.0816  -24.4867  -17.1250 C   0  0  0  0  0  0  0  0  0  0  0  0
   30.4206  -24.8700  -17.9278 C   0  0  2  0  0  0  0  0  0  0  0  0
   31.7370  -24.3100  -18.0774 N   0  0  0  0  0  0  0  0  0  0  0  0
   29.8950  -25.4660  -19.1458 C   0  0  0  0  0  0  0  0  0  0  0  0
   29.7329  -24.7556  -20.1726 O   0  0  0  0  0  0  0  0  0  0  0  0
   31.0979  -28.9357  -20.6554 C   0  0  0  0  0  0  0  0  0  0  0  0
   29.5893  -28.8449  -20.6656 C   0  0  1  0  0  0  0  0  0  0  0  0
   29.1308  -29.6759  -19.6484 O   0  0  0  0  0  0  0  0  0  0  0  0
   29.0936  -27.4360  -20.5058 C   0  0  2  0  0  0  0  0  0  0  0  0
   29.5407  -26.8479  -19.2515 N   0  0  0  0  0  0  0  0  0  0  0  0
   27.5941  -27.3712  -20.5953 C   0  0  0  0  0  0  0  0  0  0  0  0
   26.8943  -27.2098  -19.5511 O   0  0  0  0  0  0  0  0  0  0  0  0
   26.9058  -27.4809  -21.7897 O   0  0  0  0  0  0  0  0  0  0  0  0
  2  1  1  6
  3  2  1  0
  4  2  1  0
  5  4  2  0
  7  8  1  0
  7  6  1  0
  8 10  1  0
  8  9  1  1
 10 12  1  0
 10 11  1  6
 11  4  1  0
 12 13  2  0
 15 14  1  1
 15 16  1  0
 17 15  1  0
 17 18  1  1
 18 12  1  0
 19 21  1  0
 19 17  1  0
 20 19  2  0
M  END
$$$$
