AIT.pdb
     RDKit          3D

 21 20  0  0  1  0  0  0  0  0999 V2000
   27.8077  -19.2610  -15.6308 C   0  0  0  0  0  0  0  0  0  0  0  0
   28.1660  -20.4122  -14.7352 C   0  0  2  0  0  0  0  0  0  0  0  0
   28.8525  -21.4403  -15.4515 N   0  0  0  0  0  0  0  0  0  0  0  0
   26.9271  -21.0015  -14.0995 C   0  0  0  0  0  0  0  0  0  0  0  0
   26.3547  -21.9740  -14.6962 O   0  0  0  0  0  0  0  0  0  0  0  0
   26.6180  -20.6317   -8.5938 C   0  0  0  0  0  0  0  0  0  0  0  0
   26.4998  -21.1216  -10.0290 C   0  0  0  0  0  0  0  0  0  0  0  0
   25.3072  -20.5275  -10.7197 C   0  0  2  0  0  0  0  0  0  0  0  0
   24.0697  -21.0038   -9.9891 C   0  0  0  0  0  0  0  0  0  0  0  0
   25.2333  -20.8494  -12.1991 C   0  0  2  0  0  0  0  0  0  0  0  0
   26.4402  -20.4750  -12.8862 N   0  0  0  0  0  0  0  0  0  0  0  0
   24.0203  -20.3622  -12.8366 C   0  0  0  0  0  0  0  0  0  0  0  0
   23.7696  -19.1284  -12.8479 O   0  0  0  0  0  0  0  0  0  0  0  0
   22.9360  -20.6221  -16.3573 C   0  0  0  0  0  0  0  0  0  0  0  0
   21.7652  -21.1134  -15.5375 C   0  0  1  0  0  0  0  0  0  0  0  0
   21.7230  -22.4959  -15.6872 O   0  0  0  0  0  0  0  0  0  0  0  0
   21.8590  -20.7077  -14.0942 C   0  0  2  0  0  0  0  0  0  0  0  0
   23.0682  -21.2227  -13.4686 N   0  0  0  0  0  0  0  0  0  0  0  0
   20.6510  -21.1586  -13.3207 C   0  0  0  0  0  0  0  0  0  0  0  0
   19.5218  -20.6192  -13.5205 O   0  0  0  0  0  0  0  0  0  0  0  0
   20.6972  -22.1618  -12.3701 O   0  0  0  0  0  0  0  0  0  0  0  0
  2  1  1  6
  3  2  1  0
  4  2  1  0
  5  4  2  0
  7  8  1  0
  7  6  1  0
  8 10  1  0
  8  9  1  1
 10 12  1  0
 10 11  1  6
 11  4  1  0
 12 13  2  0
 15 14  1  6
 15 16  1  0
 17 15  1  0
 17 18  1  1
 18 12  1  0
 19 21  1  0
 19 17  1  0
 20 19  2  0
M  END
$$$$
