AIT.pdb
     RDKit          3D

 21 20  0  0  1  0  0  0  0  0999 V2000
   28.0707  -19.2280  -15.8294 C   0  0  0  0  0  0  0  0  0  0  0  0
   28.3403  -20.5273  -15.1260 C   0  0  2  0  0  0  0  0  0  0  0  0
   28.8130  -21.5260  -16.0317 N   0  0  0  0  0  0  0  0  0  0  0  0
   27.0903  -21.0362  -14.4442 C   0  0  0  0  0  0  0  0  0  0  0  0
   26.3605  -21.8688  -15.0797 O   0  0  0  0  0  0  0  0  0  0  0  0
   25.1484  -21.2068   -8.5199 C   0  0  0  0  0  0  0  0  0  0  0  0
   24.8097  -21.3612   -9.9947 C   0  0  0  0  0  0  0  0  0  0  0  0
   25.8981  -20.8154  -10.8721 C   0  0  2  0  0  0  0  0  0  0  0  0
   26.0962  -19.3599  -10.5055 C   0  0  0  0  0  0  0  0  0  0  0  0
   25.6292  -20.9798  -12.3548 C   0  0  2  0  0  0  0  0  0  0  0  0
   26.7640  -20.5896  -13.1480 N   0  0  0  0  0  0  0  0  0  0  0  0
   24.3776  -20.3773  -12.7854 C   0  0  0  0  0  0  0  0  0  0  0  0
   24.2908  -19.1266  -12.9019 O   0  0  0  0  0  0  0  0  0  0  0  0
   22.6546  -20.3317  -15.9317 C   0  0  0  0  0  0  0  0  0  0  0  0
   21.6357  -20.8604  -14.9486 C   0  0  1  0  0  0  0  0  0  0  0  0
   21.5678  -22.2364  -15.1426 O   0  0  0  0  0  0  0  0  0  0  0  0
   21.9681  -20.5097  -13.5263 C   0  0  2  0  0  0  0  0  0  0  0  0
   23.2068  -21.1394  -13.0929 N   0  0  0  0  0  0  0  0  0  0  0  0
   20.8494  -20.8869  -12.5951 C   0  0  0  0  0  0  0  0  0  0  0  0
   21.0059  -21.8134  -11.7448 O   0  0  0  0  0  0  0  0  0  0  0  0
   19.6153  -20.2630  -12.6094 O   0  0  0  0  0  0  0  0  0  0  0  0
  2  1  1  6
  3  2  1  0
  4  2  1  0
  5  4  2  0
  7  8  1  0
  7  6  1  0
  8 10  1  0
  8  9  1  6
 10 12  1  0
 10 11  1  6
 11  4  1  0
 12 13  2  0
 15 14  1  6
 15 16  1  0
 17 15  1  0
 17 18  1  1
 18 12  1  0
 19 21  1  0
 19 17  1  0
 20 19  2  0
M  END
$$$$
