YKY.pdb
     RDKit          3D

 34 35  0  0  1  0  0  0  0  0999 V2000
   19.8579  -22.5688  -24.0608 O   0  0  0  0  0  0  0  0  0  0  0  0
   20.9306  -23.3591  -23.7102 C   0  0  0  0  0  0  0  0  0  0  0  0
   22.1944  -22.8231  -23.7481 C   0  0  0  0  0  0  0  0  0  0  0  0
   23.3145  -23.5600  -23.4092 C   0  0  0  0  0  0  0  0  0  0  0  0
   23.1549  -24.8717  -23.0221 C   0  0  0  0  0  0  0  0  0  0  0  0
   24.3256  -25.7087  -22.6474 C   0  0  0  0  0  0  0  0  0  0  0  0
   24.5491  -25.7272  -21.1413 C   0  0  2  0  0  0  0  0  0  0  0  0
   24.9249  -24.4265  -20.6806 N   0  0  0  0  0  0  0  0  0  0  0  0
   25.5900  -26.7565  -20.8844 C   0  0  0  0  0  0  0  0  0  0  0  0
   25.3492  -27.9236  -21.2849 O   0  0  0  0  0  0  0  0  0  0  0  0
   21.9099  -25.4312  -22.9751 C   0  0  0  0  0  0  0  0  0  0  0  0
   20.7926  -24.6687  -23.3216 C   0  0  0  0  0  0  0  0  0  0  0  0
   26.8040  -26.4626  -20.2220 N   0  0  0  0  0  0  0  0  0  0  0  0
   27.8128  -27.4614  -20.0527 C   0  0  1  0  0  0  0  0  0  0  0  0
   29.2071  -26.9628  -20.2486 C   0  0  0  0  0  0  0  0  0  0  0  0
   30.1923  -28.0815  -20.0775 C   0  0  0  0  0  0  0  0  0  0  0  0
   31.6075  -27.6507  -20.3293 C   0  0  0  0  0  0  0  0  0  0  0  0
   32.5691  -28.8130  -20.3536 C   0  0  0  0  0  0  0  0  0  0  0  0
   33.9074  -28.2691  -20.5558 N   0  0  0  0  0  0  0  0  0  0  0  0
   27.7088  -28.1275  -18.7049 C   0  0  0  0  0  0  0  0  0  0  0  0
   27.8510  -27.3690  -17.7107 O   0  0  0  0  0  0  0  0  0  0  0  0
   26.1241  -33.9042  -12.3204 O   0  0  0  0  0  0  0  0  0  0  0  0
   26.4260  -33.3397  -13.5444 C   0  0  0  0  0  0  0  0  0  0  0  0
   25.3830  -32.9266  -14.3642 C   0  0  0  0  0  0  0  0  0  0  0  0
   25.6802  -32.3556  -15.6013 C   0  0  0  0  0  0  0  0  0  0  0  0
   26.9727  -32.1847  -16.0436 C   0  0  0  0  0  0  0  0  0  0  0  0
   27.2143  -31.6094  -17.3708 C   0  0  0  0  0  0  0  0  0  0  0  0
   27.3925  -30.1151  -17.2617 C   0  0  2  0  0  0  0  0  0  0  0  0
   27.4656  -29.5216  -18.5995 N   0  0  0  0  0  0  0  0  0  0  0  0
   28.6026  -29.8195  -16.4859 C   0  0  0  0  0  0  0  0  0  0  0  0
   28.5382  -29.3042  -15.3612 O   0  0  0  0  0  0  0  0  0  0  0  0
   27.9914  -32.5995  -15.2194 C   0  0  0  0  0  0  0  0  0  0  0  0
   27.7248  -33.1675  -13.9903 C   0  0  0  0  0  0  0  0  0  0  0  0
   29.8404  -30.1223  -17.0214 O   0  0  0  0  0  0  0  0  0  0  0  0
  2 12  2  0
  2  1  1  0
  3  2  1  0
  4  5  1  0
  4  3  2  0
  5 11  2  0
  6  5  1  0
  7  9  1  0
  7  6  1  0
  7  8  1  6
  9 13  1  0
 10  9  2  0
 11 12  1  0
 13 14  1  0
 14 20  1  0
 14 15  1  1
 16 17  1  0
 16 15  1  0
 18 17  1  0
 19 18  1  0
 20 21  2  0
 20 29  1  0
 23 22  1  0
 23 24  2  0
 24 25  1  0
 26 25  2  0
 27 26  1  0
 28 27  1  6
 28 30  1  0
 29 28  1  0
 30 31  2  0
 30 34  1  0
 32 26  1  0
 33 32  2  0
 33 23  1  0
M  END
$$$$
