YKY.pdb
     RDKit          3D

 34 35  0  0  1  0  0  0  0  0999 V2000
   24.2627  -12.4686  -25.0981 O   0  0  0  0  0  0  0  0  0  0  0  0
   23.6906  -13.4478  -24.3158 C   0  0  0  0  0  0  0  0  0  0  0  0
   24.3525  -13.8736  -23.1905 C   0  0  0  0  0  0  0  0  0  0  0  0
   23.8355  -14.8523  -22.3613 C   0  0  0  0  0  0  0  0  0  0  0  0
   22.6191  -15.4155  -22.6761 C   0  0  0  0  0  0  0  0  0  0  0  0
   22.0181  -16.4715  -21.8186 C   0  0  0  0  0  0  0  0  0  0  0  0
   22.6679  -17.8286  -22.0528 C   0  0  2  0  0  0  0  0  0  0  0  0
   22.4012  -18.2822  -23.3826 N   0  0  0  0  0  0  0  0  0  0  0  0
   22.1261  -18.7385  -21.0101 C   0  0  0  0  0  0  0  0  0  0  0  0
   20.9992  -19.2509  -21.2297 O   0  0  0  0  0  0  0  0  0  0  0  0
   21.9384  -15.0116  -23.7891 C   0  0  0  0  0  0  0  0  0  0  0  0
   22.4791  -14.0218  -24.6123 C   0  0  0  0  0  0  0  0  0  0  0  0
   22.8258  -19.0310  -19.8169 N   0  0  0  0  0  0  0  0  0  0  0  0
   22.3242  -19.9910  -18.8837 C   0  0  1  0  0  0  0  0  0  0  0  0
   23.3716  -20.6029  -18.0121 C   0  0  0  0  0  0  0  0  0  0  0  0
   24.3172  -21.4306  -18.8318 C   0  0  0  0  0  0  0  0  0  0  0  0
   25.3744  -22.0964  -18.0006 C   0  0  0  0  0  0  0  0  0  0  0  0
   26.4449  -22.7471  -18.8411 C   0  0  0  0  0  0  0  0  0  0  0  0
   27.5075  -23.1777  -17.9392 N   0  0  0  0  0  0  0  0  0  0  0  0
   21.2391  -19.4042  -18.0181 C   0  0  0  0  0  0  0  0  0  0  0  0
   21.5177  -18.3089  -17.4643 O   0  0  0  0  0  0  0  0  0  0  0  0
   15.5913  -23.6730  -20.3377 O   0  0  0  0  0  0  0  0  0  0  0  0
   16.1501  -22.5515  -19.7565 C   0  0  0  0  0  0  0  0  0  0  0  0
   15.7256  -22.1752  -18.4881 C   0  0  0  0  0  0  0  0  0  0  0  0
   16.2854  -21.0441  -17.8951 C   0  0  0  0  0  0  0  0  0  0  0  0
   17.2467  -20.2824  -18.5205 C   0  0  0  0  0  0  0  0  0  0  0  0
   17.7684  -19.0844  -17.8548 C   0  0  0  0  0  0  0  0  0  0  0  0
   18.9732  -19.4406  -17.0193 C   0  0  2  0  0  0  0  0  0  0  0  0
   19.9957  -20.0696  -17.8596 N   0  0  0  0  0  0  0  0  0  0  0  0
   18.5673  -20.3310  -15.9257 C   0  0  0  0  0  0  0  0  0  0  0  0
   17.7198  -19.9836  -15.0916 O   0  0  0  0  0  0  0  0  0  0  0  0
   17.6541  -20.6696  -19.7748 C   0  0  0  0  0  0  0  0  0  0  0  0
   17.1164  -21.7848  -20.3841 C   0  0  0  0  0  0  0  0  0  0  0  0
   19.1427  -21.5837  -15.8240 O   0  0  0  0  0  0  0  0  0  0  0  0
  2 12  2  0
  2  1  1  0
  3  2  1  0
  4  5  1  0
  4  3  2  0
  5 11  2  0
  6  5  1  0
  7  9  1  0
  7  6  1  0
  7  8  1  6
  9 13  1  0
 10  9  2  0
 11 12  1  0
 13 14  1  0
 14 20  1  0
 14 15  1  1
 16 17  1  0
 16 15  1  0
 18 17  1  0
 19 18  1  0
 20 21  2  0
 20 29  1  0
 23 22  1  0
 23 24  2  0
 24 25  1  0
 26 25  2  0
 27 26  1  0
 28 27  1  6
 28 30  1  0
 29 28  1  0
 30 31  2  0
 30 34  1  0
 32 26  1  0
 33 32  2  0
 33 23  1  0
M  END
$$$$
