YKY.pdb
     RDKit          3D

 34 35  0  0  1  0  0  0  0  0999 V2000
   27.9345  -17.7303  -15.0758 O   0  0  0  0  0  0  0  0  0  0  0  0
   27.2768  -16.5583  -15.3792 C   0  0  0  0  0  0  0  0  0  0  0  0
   27.5675  -15.9164  -16.5579 C   0  0  0  0  0  0  0  0  0  0  0  0
   26.9449  -14.7371  -16.9242 C   0  0  0  0  0  0  0  0  0  0  0  0
   26.0047  -14.1917  -16.0789 C   0  0  0  0  0  0  0  0  0  0  0  0
   25.3055  -12.9254  -16.4245 C   0  0  0  0  0  0  0  0  0  0  0  0
   23.9256  -13.1837  -17.0142 C   0  0  2  0  0  0  0  0  0  0  0  0
   24.0377  -13.9375  -18.2244 N   0  0  0  0  0  0  0  0  0  0  0  0
   23.3001  -11.8509  -17.2170 C   0  0  0  0  0  0  0  0  0  0  0  0
   23.6264  -11.2194  -18.2540 O   0  0  0  0  0  0  0  0  0  0  0  0
   25.6955  -14.8082  -14.9001 C   0  0  0  0  0  0  0  0  0  0  0  0
   26.3365  -15.9983  -14.5502 C   0  0  0  0  0  0  0  0  0  0  0  0
   22.3774  -11.2958  -16.3009 N   0  0  0  0  0  0  0  0  0  0  0  0
   21.7554  -10.0336  -16.5533 C   0  0  1  0  0  0  0  0  0  0  0  0
   20.2624  -10.0703  -16.5261 C   0  0  0  0  0  0  0  0  0  0  0  0
   19.7414  -10.9840  -17.5962 C   0  0  0  0  0  0  0  0  0  0  0  0
   18.2546  -11.1734  -17.5229 C   0  0  0  0  0  0  0  0  0  0  0  0
   17.7354  -12.0895  -18.6033 C   0  0  0  0  0  0  0  0  0  0  0  0
   18.4936  -13.3331  -18.5236 N   0  0  0  0  0  0  0  0  0  0  0  0
   22.2432   -8.9769  -15.5958 C   0  0  0  0  0  0  0  0  0  0  0  0
   22.2784   -9.3152  -14.3841 O   0  0  0  0  0  0  0  0  0  0  0  0
   24.3849   -3.8570  -20.6092 O   0  0  0  0  0  0  0  0  0  0  0  0
   24.3930   -4.4544  -19.3638 C   0  0  0  0  0  0  0  0  0  0  0  0
   24.1484   -3.6679  -18.2448 C   0  0  0  0  0  0  0  0  0  0  0  0
   24.1548   -4.2640  -16.9841 C   0  0  0  0  0  0  0  0  0  0  0  0
   24.3951   -5.6077  -16.8048 C   0  0  0  0  0  0  0  0  0  0  0  0
   24.4222   -6.1643  -15.4482 C   0  0  0  0  0  0  0  0  0  0  0  0
   23.0589   -6.6961  -15.0804 C   0  0  2  0  0  0  0  0  0  0  0  0
   22.6300   -7.6942  -16.0638 N   0  0  0  0  0  0  0  0  0  0  0  0
   22.1025   -5.5858  -15.0031 C   0  0  0  0  0  0  0  0  0  0  0  0
   21.1585   -5.4908  -15.7996 O   0  0  0  0  0  0  0  0  0  0  0  0
   24.6353   -6.3699  -17.9231 C   0  0  0  0  0  0  0  0  0  0  0  0
   24.6346   -5.8049  -19.1820 C   0  0  0  0  0  0  0  0  0  0  0  0
   22.2581   -4.6257  -14.0209 O   0  0  0  0  0  0  0  0  0  0  0  0
  2 12  2  0
  2  1  1  0
  3  2  1  0
  4  5  1  0
  4  3  2  0
  5 11  2  0
  6  5  1  0
  7  9  1  0
  7  6  1  0
  7  8  1  6
  9 13  1  0
 10  9  2  0
 11 12  1  0
 13 14  1  0
 14 20  1  0
 14 15  1  1
 16 17  1  0
 16 15  1  0
 18 17  1  0
 19 18  1  0
 20 21  2  0
 20 29  1  0
 23 22  1  0
 23 24  2  0
 24 25  1  0
 26 25  2  0
 27 26  1  0
 28 27  1  6
 28 30  1  0
 29 28  1  0
 30 31  2  0
 30 34  1  0
 32 26  1  0
 33 32  2  0
 33 23  1  0
M  END
$$$$
