YKY.pdb
     RDKit          3D

 34 35  0  0  1  0  0  0  0  0999 V2000
   27.0663  -19.2574   -5.6623 O   0  0  0  0  0  0  0  0  0  0  0  0
   26.5688  -19.6147   -6.8964 C   0  0  0  0  0  0  0  0  0  0  0  0
   26.6495  -18.7177   -7.9330 C   0  0  0  0  0  0  0  0  0  0  0  0
   26.1701  -19.0113   -9.1966 C   0  0  0  0  0  0  0  0  0  0  0  0
   25.5945  -20.2421   -9.4195 C   0  0  0  0  0  0  0  0  0  0  0  0
   25.0632  -20.6090  -10.7591 C   0  0  0  0  0  0  0  0  0  0  0  0
   26.0428  -21.4760  -11.5384 C   0  0  2  0  0  0  0  0  0  0  0  0
   27.2914  -20.7960  -11.6927 N   0  0  0  0  0  0  0  0  0  0  0  0
   25.3877  -21.7868  -12.8357 C   0  0  0  0  0  0  0  0  0  0  0  0
   25.5038  -20.9342  -13.7522 O   0  0  0  0  0  0  0  0  0  0  0  0
   25.5007  -21.1541   -8.4071 C   0  0  0  0  0  0  0  0  0  0  0  0
   25.9913  -20.8365   -7.1390 C   0  0  0  0  0  0  0  0  0  0  0  0
   24.6610  -22.9796  -13.0549 N   0  0  0  0  0  0  0  0  0  0  0  0
   24.3742  -23.4362  -14.3790 C   0  0  1  0  0  0  0  0  0  0  0  0
   25.1148  -24.6716  -14.7745 C   0  0  0  0  0  0  0  0  0  0  0  0
   24.8385  -25.0110  -16.2097 C   0  0  0  0  0  0  0  0  0  0  0  0
   25.4956  -26.2899  -16.6395 C   0  0  0  0  0  0  0  0  0  0  0  0
   25.2815  -26.5853  -18.1033 C   0  0  0  0  0  0  0  0  0  0  0  0
   25.9622  -27.8409  -18.4001 N   0  0  0  0  0  0  0  0  0  0  0  0
   22.8969  -23.6582  -14.5781 C   0  0  0  0  0  0  0  0  0  0  0  0
   22.2905  -24.1850  -13.6092 O   0  0  0  0  0  0  0  0  0  0  0  0
   17.6436  -19.0614  -12.8230 O   0  0  0  0  0  0  0  0  0  0  0  0
   18.2892  -19.8505  -13.7549 C   0  0  0  0  0  0  0  0  0  0  0  0
   17.5538  -20.8078  -14.4429 C   0  0  0  0  0  0  0  0  0  0  0  0
   18.1989  -21.6080  -15.3854 C   0  0  0  0  0  0  0  0  0  0  0  0
   19.5420  -21.4856  -15.6616 C   0  0  0  0  0  0  0  0  0  0  0  0
   20.1655  -22.3831  -16.6396 C   0  0  0  0  0  0  0  0  0  0  0  0
   20.8263  -23.5401  -15.9315 C   0  0  2  0  0  0  0  0  0  0  0  0
   22.2627  -23.2857  -15.7917 N   0  0  0  0  0  0  0  0  0  0  0  0
   20.5796  -24.7792  -16.6782 C   0  0  0  0  0  0  0  0  0  0  0  0
   21.3123  -25.1243  -17.6156 O   0  0  0  0  0  0  0  0  0  0  0  0
   20.2534  -20.5335  -14.9712 C   0  0  0  0  0  0  0  0  0  0  0  0
   19.6393  -19.7286  -14.0335 C   0  0  0  0  0  0  0  0  0  0  0  0
   19.5073  -25.5780  -16.3282 O   0  0  0  0  0  0  0  0  0  0  0  0
  2 12  2  0
  2  1  1  0
  3  2  1  0
  4  5  1  0
  4  3  2  0
  5 11  2  0
  6  5  1  0
  7  9  1  0
  7  6  1  0
  7  8  1  6
  9 13  1  0
 10  9  2  0
 11 12  1  0
 13 14  1  0
 14 20  1  0
 14 15  1  1
 16 17  1  0
 16 15  1  0
 18 17  1  0
 19 18  1  0
 20 21  2  0
 20 29  1  0
 23 22  1  0
 23 24  2  0
 24 25  1  0
 26 25  2  0
 27 26  1  0
 28 27  1  6
 28 30  1  0
 29 28  1  0
 30 31  2  0
 30 34  1  0
 32 26  1  0
 33 32  2  0
 33 23  1  0
M  END
$$$$
