YKY.pdb
     RDKit          3D

 34 35  0  0  1  0  0  0  0  0999 V2000
   31.0689  -33.3933    9.8288 O   0  0  0  0  0  0  0  0  0  0  0  0
   30.3124  -32.2423    9.7961 C   0  0  0  0  0  0  0  0  0  0  0  0
   30.7647  -31.1675    9.0709 C   0  0  0  0  0  0  0  0  0  0  0  0
   30.0557  -29.9825    8.9954 C   0  0  0  0  0  0  0  0  0  0  0  0
   28.8594  -29.8798    9.6693 C   0  0  0  0  0  0  0  0  0  0  0  0
   28.0573  -28.6284    9.6216 C   0  0  0  0  0  0  0  0  0  0  0  0
   26.7177  -28.8410    8.9296 C   0  0  2  0  0  0  0  0  0  0  0  0
   26.9174  -29.1366    7.5447 N   0  0  0  0  0  0  0  0  0  0  0  0
   25.9302  -27.6000    9.1500 C   0  0  0  0  0  0  0  0  0  0  0  0
   26.0871  -26.6697    8.3191 O   0  0  0  0  0  0  0  0  0  0  0  0
   28.3851  -30.9327   10.3985 C   0  0  0  0  0  0  0  0  0  0  0  0
   29.1174  -32.1199   10.4609 C   0  0  0  0  0  0  0  0  0  0  0  0
   25.0387  -27.4471   10.2366 N   0  0  0  0  0  0  0  0  0  0  0  0
   24.2579  -26.2593   10.3890 C   0  0  1  0  0  0  0  0  0  0  0  0
   22.9158  -26.4836   11.0053 C   0  0  0  0  0  0  0  0  0  0  0  0
   22.1090  -25.2188   10.9781 C   0  0  0  0  0  0  0  0  0  0  0  0
   20.7402  -25.3920   11.5683 C   0  0  0  0  0  0  0  0  0  0  0  0
   19.9108  -24.1348   11.4813 C   0  0  0  0  0  0  0  0  0  0  0  0
   18.5998  -24.4360   12.0455 N   0  0  0  0  0  0  0  0  0  0  0  0
   24.9976  -25.2105   11.1789 C   0  0  0  0  0  0  0  0  0  0  0  0
   25.5711  -25.6189   12.2221 O   0  0  0  0  0  0  0  0  0  0  0  0
   31.1774  -25.7615   10.1577 O   0  0  0  0  0  0  0  0  0  0  0  0
   30.1221  -24.8765   10.2622 C   0  0  0  0  0  0  0  0  0  0  0  0
   29.4323  -24.7996   11.4659 C   0  0  0  0  0  0  0  0  0  0  0  0
   28.3657  -23.9083   11.5788 C   0  0  0  0  0  0  0  0  0  0  0  0
   27.9682  -23.0981   10.5391 C   0  0  0  0  0  0  0  0  0  0  0  0
   26.8157  -22.2082   10.7138 C   0  0  0  0  0  0  0  0  0  0  0  0
   25.7626  -22.8854   11.5558 C   0  0  2  0  0  0  0  0  0  0  0  0
   25.0255  -23.8593   10.7461 N   0  0  0  0  0  0  0  0  0  0  0  0
   24.8592  -21.8755   12.1194 C   0  0  0  0  0  0  0  0  0  0  0  0
   25.2819  -20.9651   12.8455 O   0  0  0  0  0  0  0  0  0  0  0  0
   28.6620  -23.1880    9.3561 C   0  0  0  0  0  0  0  0  0  0  0  0
   29.7213  -24.0616    9.2179 C   0  0  0  0  0  0  0  0  0  0  0  0
   23.5084  -21.9414   11.8341 O   0  0  0  0  0  0  0  0  0  0  0  0
  2 12  2  0
  2  1  1  0
  3  2  1  0
  4  5  1  0
  4  3  2  0
  5 11  2  0
  6  5  1  0
  7  9  1  0
  7  6  1  0
  7  8  1  6
  9 13  1  0
 10  9  2  0
 11 12  1  0
 13 14  1  0
 14 20  1  0
 14 15  1  1
 16 17  1  0
 16 15  1  0
 18 17  1  0
 19 18  1  0
 20 21  2  0
 20 29  1  0
 23 22  1  0
 23 24  2  0
 24 25  1  0
 26 25  2  0
 27 26  1  0
 28 27  1  6
 28 30  1  0
 29 28  1  0
 30 31  2  0
 30 34  1  0
 32 26  1  0
 33 32  2  0
 33 23  1  0
M  END
$$$$
