YKY.pdb
     RDKit          3D

 34 35  0  0  1  0  0  0  0  0999 V2000
   29.4858  -20.2354   -3.3221 O   0  0  0  0  0  0  0  0  0  0  0  0
   28.8616  -20.1477   -4.5472 C   0  0  0  0  0  0  0  0  0  0  0  0
   27.7679  -20.9398   -4.7966 C   0  0  0  0  0  0  0  0  0  0  0  0
   27.0945  -20.9022   -6.0040 C   0  0  0  0  0  0  0  0  0  0  0  0
   27.5366  -20.0429   -6.9849 C   0  0  0  0  0  0  0  0  0  0  0  0
   26.8490  -19.9629   -8.3011 C   0  0  0  0  0  0  0  0  0  0  0  0
   27.1946  -21.1477   -9.1931 C   0  0  2  0  0  0  0  0  0  0  0  0
   28.6082  -21.2168   -9.3987 N   0  0  0  0  0  0  0  0  0  0  0  0
   26.4336  -20.9584  -10.4554 C   0  0  0  0  0  0  0  0  0  0  0  0
   26.8922  -20.1263  -11.2788 O   0  0  0  0  0  0  0  0  0  0  0  0
   28.6218  -19.2434   -6.7648 C   0  0  0  0  0  0  0  0  0  0  0  0
   29.2867  -19.2977   -5.5382 C   0  0  0  0  0  0  0  0  0  0  0  0
   25.2452  -21.6688  -10.7417 N   0  0  0  0  0  0  0  0  0  0  0  0
   24.6779  -21.6598  -12.0539 C   0  0  1  0  0  0  0  0  0  0  0  0
   24.5768  -23.0091  -12.6867 C   0  0  0  0  0  0  0  0  0  0  0  0
   24.0795  -22.8902  -14.0973 C   0  0  0  0  0  0  0  0  0  0  0  0
   24.0454  -24.2088  -14.8127 C   0  0  0  0  0  0  0  0  0  0  0  0
   23.7219  -24.0619  -16.2789 C   0  0  0  0  0  0  0  0  0  0  0  0
   23.7332  -25.3976  -16.8651 N   0  0  0  0  0  0  0  0  0  0  0  0
   23.3209  -21.0043  -12.0637 C   0  0  0  0  0  0  0  0  0  0  0  0
   22.5699  -21.2937  -11.0961 O   0  0  0  0  0  0  0  0  0  0  0  0
   16.3179  -16.1657  -13.8522 O   0  0  0  0  0  0  0  0  0  0  0  0
   17.6108  -16.6479  -13.7889 C   0  0  0  0  0  0  0  0  0  0  0  0
   18.2164  -17.0896  -14.9588 C   0  0  0  0  0  0  0  0  0  0  0  0
   19.5215  -17.5776  -14.9026 C   0  0  0  0  0  0  0  0  0  0  0  0
   20.2362  -17.6390  -13.7275 C   0  0  0  0  0  0  0  0  0  0  0  0
   21.5927  -18.1963  -13.7327 C   0  0  0  0  0  0  0  0  0  0  0  0
   21.5913  -19.5657  -13.0992 C   0  0  2  0  0  0  0  0  0  0  0  0
   22.9465  -20.1231  -13.1112 N   0  0  0  0  0  0  0  0  0  0  0  0
   20.6548  -20.4385  -13.8167 C   0  0  0  0  0  0  0  0  0  0  0  0
   20.9723  -20.9902  -14.8795 O   0  0  0  0  0  0  0  0  0  0  0  0
   19.6209  -17.1980  -12.5803 C   0  0  0  0  0  0  0  0  0  0  0  0
   18.3303  -16.7103  -12.6083 C   0  0  0  0  0  0  0  0  0  0  0  0
   19.3920  -20.6494  -13.2960 O   0  0  0  0  0  0  0  0  0  0  0  0
  2 12  2  0
  2  1  1  0
  3  2  1  0
  4  5  1  0
  4  3  2  0
  5 11  2  0
  6  5  1  0
  7  9  1  0
  7  6  1  0
  7  8  1  6
  9 13  1  0
 10  9  2  0
 11 12  1  0
 13 14  1  0
 14 20  1  0
 14 15  1  1
 16 17  1  0
 16 15  1  0
 18 17  1  0
 19 18  1  0
 20 21  2  0
 20 29  1  0
 23 22  1  0
 23 24  2  0
 24 25  1  0
 26 25  2  0
 27 26  1  0
 28 27  1  6
 28 30  1  0
 29 28  1  0
 30 31  2  0
 30 34  1  0
 32 26  1  0
 33 32  2  0
 33 23  1  0
M  END
$$$$
