YKY.pdb
     RDKit          3D

 34 35  0  0  1  0  0  0  0  0999 V2000
   22.2630  -10.0628  -25.7288 O   0  0  0  0  0  0  0  0  0  0  0  0
   21.3753   -9.9569  -24.6805 C   0  0  0  0  0  0  0  0  0  0  0  0
   21.8511  -10.0268  -23.3942 C   0  0  0  0  0  0  0  0  0  0  0  0
   21.0157   -9.9279  -22.2964 C   0  0  0  0  0  0  0  0  0  0  0  0
   19.6655   -9.7540  -22.5024 C   0  0  0  0  0  0  0  0  0  0  0  0
   18.7232   -9.6417  -21.3574 C   0  0  0  0  0  0  0  0  0  0  0  0
   17.9767  -10.9454  -21.1089 C   0  0  2  0  0  0  0  0  0  0  0  0
   17.0705  -11.2094  -22.1833 N   0  0  0  0  0  0  0  0  0  0  0  0
   17.2934  -10.7941  -19.7978 C   0  0  0  0  0  0  0  0  0  0  0  0
   16.1367  -10.3017  -19.8108 O   0  0  0  0  0  0  0  0  0  0  0  0
   19.1642   -9.6809  -23.7708 C   0  0  0  0  0  0  0  0  0  0  0  0
   20.0259   -9.7832  -24.8647 C   0  0  0  0  0  0  0  0  0  0  0  0
   17.8946  -11.1784  -18.5773 N   0  0  0  0  0  0  0  0  0  0  0  0
   17.2240  -10.9815  -17.3301 C   0  0  1  0  0  0  0  0  0  0  0  0
   17.7140  -11.8602  -16.2260 C   0  0  0  0  0  0  0  0  0  0  0  0
   17.2854  -13.2795  -16.4567 C   0  0  0  0  0  0  0  0  0  0  0  0
   17.8242  -14.2229  -15.4216 C   0  0  0  0  0  0  0  0  0  0  0  0
   17.4699  -15.6606  -15.7107 C   0  0  0  0  0  0  0  0  0  0  0  0
   18.2339  -16.4932  -14.7882 N   0  0  0  0  0  0  0  0  0  0  0  0
   17.2939   -9.5427  -16.8873 C   0  0  0  0  0  0  0  0  0  0  0  0
   18.4114   -8.9823  -17.0332 O   0  0  0  0  0  0  0  0  0  0  0  0
   16.0046   -1.1553  -15.8936 O   0  0  0  0  0  0  0  0  0  0  0  0
   16.0383   -2.4935  -16.2341 C   0  0  0  0  0  0  0  0  0  0  0  0
   14.8375   -3.1552  -16.4600 C   0  0  0  0  0  0  0  0  0  0  0  0
   14.8637   -4.5062  -16.8043 C   0  0  0  0  0  0  0  0  0  0  0  0
   16.0386   -5.2129  -16.9297 C   0  0  0  0  0  0  0  0  0  0  0  0
   15.9935   -6.6410  -17.2603 C   0  0  0  0  0  0  0  0  0  0  0  0
   16.2561   -7.4662  -16.0246 C   0  0  2  0  0  0  0  0  0  0  0  0
   16.1549   -8.8924  -16.3455 N   0  0  0  0  0  0  0  0  0  0  0  0
   15.3039   -7.0926  -14.9723 C   0  0  0  0  0  0  0  0  0  0  0  0
   14.2939   -7.7730  -14.7451 O   0  0  0  0  0  0  0  0  0  0  0  0
   17.2165   -4.5421  -16.7022 C   0  0  0  0  0  0  0  0  0  0  0  0
   17.2185   -3.2052  -16.3603 C   0  0  0  0  0  0  0  0  0  0  0  0
   15.5388   -5.9579  -14.2189 O   0  0  0  0  0  0  0  0  0  0  0  0
  2 12  2  0
  2  1  1  0
  3  2  1  0
  4  5  1  0
  4  3  2  0
  5 11  2  0
  6  5  1  0
  7  9  1  0
  7  6  1  0
  7  8  1  6
  9 13  1  0
 10  9  2  0
 11 12  1  0
 13 14  1  0
 14 20  1  0
 14 15  1  1
 16 17  1  0
 16 15  1  0
 18 17  1  0
 19 18  1  0
 20 21  2  0
 20 29  1  0
 23 22  1  0
 23 24  2  0
 24 25  1  0
 26 25  2  0
 27 26  1  0
 28 27  1  6
 28 30  1  0
 29 28  1  0
 30 31  2  0
 30 34  1  0
 32 26  1  0
 33 32  2  0
 33 23  1  0
M  END
$$$$
