FWI.pdb
     RDKit          3D

 34 36  0  0  1  0  0  0  0  0999 V2000
   30.6472  -19.5732  -10.7317 N   0  0  0  0  0  0  0  0  0  0  0  0
   30.0918  -20.4275  -11.7514 C   0  0  1  0  0  0  0  0  0  0  0  0
   29.7074  -21.7357  -11.0505 C   0  0  0  0  0  0  0  0  0  0  0  0
   30.9203  -22.4023  -10.5617 C   0  0  0  0  0  0  0  0  0  0  0  0
   31.1470  -22.4729   -9.2041 C   0  0  0  0  0  0  0  0  0  0  0  0
   32.3101  -23.1135   -8.7698 C   0  0  0  0  0  0  0  0  0  0  0  0
   33.1796  -23.6464   -9.7093 C   0  0  0  0  0  0  0  0  0  0  0  0
   32.9547  -23.5767  -11.0655 C   0  0  0  0  0  0  0  0  0  0  0  0
   31.7902  -22.9349  -11.4899 C   0  0  0  0  0  0  0  0  0  0  0  0
   28.8264  -19.8331  -12.2350 C   0  0  0  0  0  0  0  0  0  0  0  0
   28.0399  -19.3270  -11.4069 O   0  0  0  0  0  0  0  0  0  0  0  0
   28.5286  -19.8466  -13.6157 N   0  0  0  0  0  0  0  0  0  0  0  0
   27.3673  -19.1248  -14.1962 C   0  0  1  0  0  0  0  0  0  0  0  0
   27.6335  -18.8427  -15.6362 C   0  0  0  0  0  0  0  0  0  0  0  0
   26.5527  -18.0934  -16.2807 C   0  0  0  0  0  0  0  0  0  0  0  0
   26.3151  -16.7421  -16.1485 C   0  0  0  0  0  0  0  0  0  0  0  0
   25.2212  -16.4780  -16.8722 N   0  0  0  0  0  0  0  0  0  0  0  0
   24.7495  -17.6181  -17.4645 C   0  0  0  0  0  0  0  0  0  0  0  0
   23.6693  -17.8505  -18.2874 C   0  0  0  0  0  0  0  0  0  0  0  0
   23.4134  -19.1121  -18.7503 C   0  0  0  0  0  0  0  0  0  0  0  0
   24.2423  -20.1518  -18.3892 C   0  0  0  0  0  0  0  0  0  0  0  0
   25.3264  -19.9213  -17.5639 C   0  0  0  0  0  0  0  0  0  0  0  0
   25.5797  -18.6529  -17.1017 C   0  0  0  0  0  0  0  0  0  0  0  0
   26.1777  -19.9452  -13.9924 C   0  0  0  0  0  0  0  0  0  0  0  0
   26.2961  -21.2106  -14.1809 O   0  0  0  0  0  0  0  0  0  0  0  0
   24.4628  -20.6427   -9.5328 C   0  0  0  0  0  0  0  0  0  0  0  0
   24.6904  -20.8319  -11.0295 C   0  0  0  0  0  0  0  0  0  0  0  0
   23.4999  -20.4438  -11.8290 C   0  0  2  0  0  0  0  0  0  0  0  0
   22.2743  -21.2668  -11.5160 C   0  0  0  0  0  0  0  0  0  0  0  0
   23.8504  -20.5121  -13.3091 C   0  0  2  0  0  0  0  0  0  0  0  0
   24.8853  -19.5191  -13.5982 N   0  0  0  0  0  0  0  0  0  0  0  0
   22.7156  -20.3792  -14.2092 C   0  0  0  0  0  0  0  0  0  0  0  0
   21.9801  -21.4797  -14.6933 O   0  0  0  0  0  0  0  0  0  0  0  0
   22.2674  -19.2675  -14.6552 O   0  0  0  0  0  0  0  0  0  0  0  0
  2  1  1  1
  3  2  1  0
  4  3  1  0
  4  5  2  0
  6  5  1  0
  7  6  2  0
  8  9  2  0
  8  7  1  0
  9  4  1  0
 10  2  1  0
 11 10  2  0
 12 10  1  0
 13 12  1  0
 13 14  1  6
 15 23  1  0
 15 14  1  0
 16 15  2  0
 17 16  1  0
 17 18  1  0
 18 23  2  0
 19 18  1  0
 19 20  2  0
 20 21  1  0
 21 22  2  0
 23 22  1  0
 24 25  2  0
 24 13  1  0
 26 27  1  0
 27 28  1  0
 28 30  1  0
 28 29  1  6
 30 31  1  6
 31 24  1  0
 32 30  1  0
 33 32  1  0
 34 32  2  0
M  END
$$$$
