FWI.pdb
     RDKit          3D

 34 36  0  0  1  0  0  0  0  0999 V2000
   27.8644  -22.0942  -15.2006 N   0  0  0  0  0  0  0  0  0  0  0  0
   27.9294  -20.9860  -14.2811 C   0  0  1  0  0  0  0  0  0  0  0  0
   27.1304  -19.8476  -14.9263 C   0  0  0  0  0  0  0  0  0  0  0  0
   28.0108  -19.0721  -15.8083 C   0  0  0  0  0  0  0  0  0  0  0  0
   28.7998  -18.0806  -15.2663 C   0  0  0  0  0  0  0  0  0  0  0  0
   29.6270  -17.3599  -16.1312 C   0  0  0  0  0  0  0  0  0  0  0  0
   29.6220  -17.6663  -17.4835 C   0  0  0  0  0  0  0  0  0  0  0  0
   28.8346  -18.6562  -18.0264 C   0  0  0  0  0  0  0  0  0  0  0  0
   28.0115  -19.3708  -17.1546 C   0  0  0  0  0  0  0  0  0  0  0  0
   27.2030  -21.3485  -13.0445 C   0  0  0  0  0  0  0  0  0  0  0  0
   26.2762  -22.1836  -13.1095 O   0  0  0  0  0  0  0  0  0  0  0  0
   27.5655  -20.7494  -11.8178 N   0  0  0  0  0  0  0  0  0  0  0  0
   26.8096  -20.9718  -10.5584 C   0  0  1  0  0  0  0  0  0  0  0  0
   27.6087  -20.4592   -9.4083 C   0  0  0  0  0  0  0  0  0  0  0  0
   26.8713  -20.4869   -8.1432 C   0  0  0  0  0  0  0  0  0  0  0  0
   25.5399  -20.8093   -7.9903 C   0  0  0  0  0  0  0  0  0  0  0  0
   25.2664  -20.6781   -6.6872 N   0  0  0  0  0  0  0  0  0  0  0  0
   26.3811  -20.2815   -5.9993 C   0  0  0  0  0  0  0  0  0  0  0  0
   26.5952  -20.0171   -4.6642 C   0  0  0  0  0  0  0  0  0  0  0  0
   27.8314  -19.6262   -4.2279 C   0  0  0  0  0  0  0  0  0  0  0  0
   28.8638  -19.4975   -5.1312 C   0  0  0  0  0  0  0  0  0  0  0  0
   28.6517  -19.7621   -6.4708 C   0  0  0  0  0  0  0  0  0  0  0  0
   27.4089  -20.1546   -6.9044 C   0  0  0  0  0  0  0  0  0  0  0  0
   25.5151  -20.3104  -10.6857 C   0  0  0  0  0  0  0  0  0  0  0  0
   25.5135  -19.0957  -11.1045 O   0  0  0  0  0  0  0  0  0  0  0  0
   22.1960  -19.4007  -14.6467 C   0  0  0  0  0  0  0  0  0  0  0  0
   22.0590  -19.5160  -13.1316 C   0  0  0  0  0  0  0  0  0  0  0  0
   23.1888  -20.2653  -12.5240 C   0  0  2  0  0  0  0  0  0  0  0  0
   23.3160  -21.6780  -13.0389 C   0  0  0  0  0  0  0  0  0  0  0  0
   23.0462  -20.2384  -11.0085 C   0  0  2  0  0  0  0  0  0  0  0  0
   24.2337  -20.8476  -10.4090 N   0  0  0  0  0  0  0  0  0  0  0  0
   21.8229  -20.8408  -10.5023 C   0  0  0  0  0  0  0  0  0  0  0  0
   21.8018  -22.0335   -9.7518 O   0  0  0  0  0  0  0  0  0  0  0  0
   20.6496  -20.3638  -10.6802 O   0  0  0  0  0  0  0  0  0  0  0  0
  2  1  1  6
  3  2  1  0
  4  3  1  0
  4  5  2  0
  6  5  1  0
  7  6  2  0
  8  9  2  0
  8  7  1  0
  9  4  1  0
 10  2  1  0
 11 10  2  0
 12 10  1  0
 13 12  1  0
 13 14  1  1
 15 23  1  0
 15 14  1  0
 16 15  2  0
 17 16  1  0
 17 18  1  0
 18 23  2  0
 19 18  1  0
 19 20  2  0
 20 21  1  0
 21 22  2  0
 23 22  1  0
 24 25  2  0
 24 13  1  0
 26 27  1  0
 27 28  1  0
 28 30  1  0
 28 29  1  6
 30 31  1  1
 31 24  1  0
 32 30  1  0
 33 32  1  0
 34 32  2  0
M  END
$$$$
