FWI.pdb
     RDKit          3D

 34 36  0  0  1  0  0  0  0  0999 V2000
   26.5701  -18.3305   -8.1038 N   0  0  0  0  0  0  0  0  0  0  0  0
   26.8273  -19.6672   -8.5780 C   0  0  1  0  0  0  0  0  0  0  0  0
   26.6162  -20.5953   -7.3761 C   0  0  0  0  0  0  0  0  0  0  0  0
   27.6375  -20.3171   -6.3592 C   0  0  0  0  0  0  0  0  0  0  0  0
   28.9521  -20.6359   -6.6231 C   0  0  0  0  0  0  0  0  0  0  0  0
   29.9009  -20.3591   -5.6358 C   0  0  0  0  0  0  0  0  0  0  0  0
   29.4884  -19.7821   -4.4443 C   0  0  0  0  0  0  0  0  0  0  0  0
   28.1759  -19.4632   -4.1792 C   0  0  0  0  0  0  0  0  0  0  0  0
   27.2352  -19.7433   -5.1715 C   0  0  0  0  0  0  0  0  0  0  0  0
   25.7882  -20.0315   -9.5659 C   0  0  0  0  0  0  0  0  0  0  0  0
   24.6051  -19.6915   -9.3535 O   0  0  0  0  0  0  0  0  0  0  0  0
   26.1468  -20.7529  -10.7261 N   0  0  0  0  0  0  0  0  0  0  0  0
   25.4592  -20.5737  -12.0307 C   0  0  1  0  0  0  0  0  0  0  0  0
   26.3716  -21.0010  -13.1303 C   0  0  0  0  0  0  0  0  0  0  0  0
   25.7239  -20.9969  -14.4438 C   0  0  0  0  0  0  0  0  0  0  0  0
   25.3870  -19.8785  -15.1757 C   0  0  0  0  0  0  0  0  0  0  0  0
   24.7911  -20.3205  -16.2890 N   0  0  0  0  0  0  0  0  0  0  0  0
   24.7351  -21.6880  -16.2941 C   0  0  0  0  0  0  0  0  0  0  0  0
   24.2248  -22.5866  -17.2053 C   0  0  0  0  0  0  0  0  0  0  0  0
   24.2965  -23.9310  -16.9629 C   0  0  0  0  0  0  0  0  0  0  0  0
   24.8824  -24.3838  -15.8009 C   0  0  0  0  0  0  0  0  0  0  0  0
   25.3949  -23.4846  -14.8854 C   0  0  0  0  0  0  0  0  0  0  0  0
   25.3210  -22.1356  -15.1331 C   0  0  0  0  0  0  0  0  0  0  0  0
   24.2185  -21.3412  -11.9965 C   0  0  0  0  0  0  0  0  0  0  0  0
   24.2556  -22.4952  -11.4329 O   0  0  0  0  0  0  0  0  0  0  0  0
   19.9982  -20.8732   -9.3646 C   0  0  0  0  0  0  0  0  0  0  0  0
   21.1391  -21.3017  -10.2824 C   0  0  0  0  0  0  0  0  0  0  0  0
   20.7042  -21.4155  -11.6984 C   0  0  2  0  0  0  0  0  0  0  0  0
   19.4663  -22.2595  -11.8785 C   0  0  0  0  0  0  0  0  0  0  0  0
   21.8620  -21.9443  -12.5337 C   0  0  2  0  0  0  0  0  0  0  0  0
   22.9511  -20.9676  -12.5079 N   0  0  0  0  0  0  0  0  0  0  0  0
   21.5094  -22.3160  -13.8950 C   0  0  0  0  0  0  0  0  0  0  0  0
   21.2418  -23.6424  -14.2893 O   0  0  0  0  0  0  0  0  0  0  0  0
   21.4062  -21.4944  -14.8697 O   0  0  0  0  0  0  0  0  0  0  0  0
  2  1  1  1
  3  2  1  0
  4  3  1  0
  4  5  2  0
  6  5  1  0
  7  6  2  0
  8  9  2  0
  8  7  1  0
  9  4  1  0
 10  2  1  0
 11 10  2  0
 12 10  1  0
 13 12  1  0
 13 14  1  6
 15 23  1  0
 15 14  1  0
 16 15  2  0
 17 16  1  0
 17 18  1  0
 18 23  2  0
 19 18  1  0
 19 20  2  0
 20 21  1  0
 21 22  2  0
 23 22  1  0
 24 25  2  0
 24 13  1  0
 26 27  1  0
 27 28  1  0
 28 30  1  0
 28 29  1  1
 30 31  1  6
 31 24  1  0
 32 30  1  0
 33 32  1  0
 34 32  2  0
M  END
$$$$
