FWI.pdb
     RDKit          3D

 34 36  0  0  1  0  0  0  0  0999 V2000
   28.1774  -21.4017  -15.2035 N   0  0  0  0  0  0  0  0  0  0  0  0
   27.8624  -20.2649  -14.3751 C   0  0  1  0  0  0  0  0  0  0  0  0
   26.9002  -19.3943  -15.1916 C   0  0  0  0  0  0  0  0  0  0  0  0
   27.6668  -18.3970  -15.9482 C   0  0  0  0  0  0  0  0  0  0  0  0
   28.0962  -17.2539  -15.3091 C   0  0  0  0  0  0  0  0  0  0  0  0
   28.8234  -16.3237  -16.0558 C   0  0  0  0  0  0  0  0  0  0  0  0
   29.0814  -16.5833  -17.3932 C   0  0  0  0  0  0  0  0  0  0  0  0
   28.6532  -17.7244  -18.0329 C   0  0  0  0  0  0  0  0  0  0  0  0
   27.9275  -18.6480  -17.2789 C   0  0  0  0  0  0  0  0  0  0  0  0
   27.0973  -20.7297  -13.1974 C   0  0  0  0  0  0  0  0  0  0  0  0
   26.3107  -21.6914  -13.3276 O   0  0  0  0  0  0  0  0  0  0  0  0
   27.2663  -20.0839  -11.9526 N   0  0  0  0  0  0  0  0  0  0  0  0
   26.6031  -20.5490  -10.7074 C   0  0  1  0  0  0  0  0  0  0  0  0
   27.1980  -19.8388   -9.5387 C   0  0  0  0  0  0  0  0  0  0  0  0
   26.6876  -20.3248   -8.2548 C   0  0  0  0  0  0  0  0  0  0  0  0
   25.5502  -21.0816   -8.0711 C   0  0  0  0  0  0  0  0  0  0  0  0
   25.4349  -21.2767   -6.7526 N   0  0  0  0  0  0  0  0  0  0  0  0
   26.4630  -20.6685   -6.0845 C   0  0  0  0  0  0  0  0  0  0  0  0
   26.7718  -20.5879   -4.7443 C   0  0  0  0  0  0  0  0  0  0  0  0
   27.8811  -19.9016   -4.3320 C   0  0  0  0  0  0  0  0  0  0  0  0
   28.6899  -19.2899   -5.2648 C   0  0  0  0  0  0  0  0  0  0  0  0
   28.3823  -19.3693   -6.6096 C   0  0  0  0  0  0  0  0  0  0  0  0
   27.2677  -20.0597   -7.0191 C   0  0  0  0  0  0  0  0  0  0  0  0
   25.1698  -20.3105  -10.8428 C   0  0  0  0  0  0  0  0  0  0  0  0
   24.7810  -19.0882  -10.9182 O   0  0  0  0  0  0  0  0  0  0  0  0
   22.9040  -21.4160  -14.9871 C   0  0  0  0  0  0  0  0  0  0  0  0
   23.2238  -20.8447  -13.6091 C   0  0  0  0  0  0  0  0  0  0  0  0
   22.3451  -21.4093  -12.5526 C   0  0  2  0  0  0  0  0  0  0  0  0
   20.8758  -21.1832  -12.8120 C   0  0  0  0  0  0  0  0  0  0  0  0
   22.7632  -20.8434  -11.2024 C   0  0  2  0  0  0  0  0  0  0  0  0
   24.1315  -21.2720  -10.9111 N   0  0  0  0  0  0  0  0  0  0  0  0
   21.8601  -21.1565  -10.1061 C   0  0  0  0  0  0  0  0  0  0  0  0
   20.8674  -20.2686   -9.6449 O   0  0  0  0  0  0  0  0  0  0  0  0
   21.8670  -22.2535   -9.4488 O   0  0  0  0  0  0  0  0  0  0  0  0
  2  1  1  6
  3  2  1  0
  4  3  1  0
  4  5  2  0
  6  5  1  0
  7  6  2  0
  8  9  2  0
  8  7  1  0
  9  4  1  0
 10  2  1  0
 11 10  2  0
 12 10  1  0
 13 12  1  0
 13 14  1  1
 15 23  1  0
 15 14  1  0
 16 15  2  0
 17 16  1  0
 17 18  1  0
 18 23  2  0
 19 18  1  0
 19 20  2  0
 20 21  1  0
 21 22  2  0
 23 22  1  0
 24 25  2  0
 24 13  1  0
 26 27  1  0
 27 28  1  0
 28 30  1  0
 28 29  1  6
 30 31  1  1
 31 24  1  0
 32 30  1  0
 33 32  1  0
 34 32  2  0
M  END
$$$$
