FWI.pdb
     RDKit          3D

 34 36  0  0  1  0  0  0  0  0999 V2000
   28.2337  -23.5828  -17.1308 N   0  0  0  0  0  0  0  0  0  0  0  0
   27.9933  -22.2287  -16.6988 C   0  0  1  0  0  0  0  0  0  0  0  0
   27.0550  -21.6077  -17.7402 C   0  0  0  0  0  0  0  0  0  0  0  0
   27.8450  -20.8533  -18.7207 C   0  0  0  0  0  0  0  0  0  0  0  0
   28.1594  -19.5371  -18.4598 C   0  0  0  0  0  0  0  0  0  0  0  0
   28.9122  -18.8456  -19.4120 C   0  0  0  0  0  0  0  0  0  0  0  0
   29.3085  -19.5019  -20.5674 C   0  0  0  0  0  0  0  0  0  0  0  0
   28.9954  -20.8164  -20.8294 C   0  0  0  0  0  0  0  0  0  0  0  0
   28.2430  -21.4991  -19.8724 C   0  0  0  0  0  0  0  0  0  0  0  0
   27.2348  -22.2602  -15.4291 C   0  0  0  0  0  0  0  0  0  0  0  0
   26.3891  -23.1622  -15.2514 O   0  0  0  0  0  0  0  0  0  0  0  0
   27.4764  -21.2771  -14.4441 N   0  0  0  0  0  0  0  0  0  0  0  0
   26.8336  -21.3036  -13.1051 C   0  0  1  0  0  0  0  0  0  0  0  0
   27.5375  -20.3475  -12.2027 C   0  0  0  0  0  0  0  0  0  0  0  0
   26.9381  -20.2747  -10.8684 C   0  0  0  0  0  0  0  0  0  0  0  0
   25.6322  -19.9357  -10.5861 C   0  0  0  0  0  0  0  0  0  0  0  0
   25.5147  -19.9604   -9.2536 N   0  0  0  0  0  0  0  0  0  0  0  0
   26.7049  -20.3046   -8.6721 C   0  0  0  0  0  0  0  0  0  0  0  0
   27.0769  -20.4587   -7.3546 C   0  0  0  0  0  0  0  0  0  0  0  0
   28.3590  -20.8147   -7.0368 C   0  0  0  0  0  0  0  0  0  0  0  0
   29.2788  -21.0190   -8.0421 C   0  0  0  0  0  0  0  0  0  0  0  0
   28.9081  -20.8652   -9.3644 C   0  0  0  0  0  0  0  0  0  0  0  0
   27.6197  -20.5078   -9.6789 C   0  0  0  0  0  0  0  0  0  0  0  0
   25.4204  -20.9821  -13.2760 C   0  0  0  0  0  0  0  0  0  0  0  0
   25.1334  -19.9460  -13.9795 O   0  0  0  0  0  0  0  0  0  0  0  0
   22.4308  -22.7599  -16.4663 C   0  0  0  0  0  0  0  0  0  0  0  0
   22.9899  -21.8572  -15.3708 C   0  0  0  0  0  0  0  0  0  0  0  0
   22.2898  -22.0519  -14.0750 C   0  0  2  0  0  0  0  0  0  0  0  0
   20.8053  -21.7923  -14.1518 C   0  0  0  0  0  0  0  0  0  0  0  0
   22.9510  -21.1804  -13.0161 C   0  0  2  0  0  0  0  0  0  0  0  0
   24.3014  -21.6833  -12.7627 N   0  0  0  0  0  0  0  0  0  0  0  0
   22.1922  -21.0412  -11.7830 C   0  0  0  0  0  0  0  0  0  0  0  0
   21.2992  -19.9781  -11.5409 O   0  0  0  0  0  0  0  0  0  0  0  0
   22.2511  -21.8537  -10.7971 O   0  0  0  0  0  0  0  0  0  0  0  0
  2  1  1  6
  3  2  1  0
  4  3  1  0
  4  5  2  0
  6  5  1  0
  7  6  2  0
  8  9  2  0
  8  7  1  0
  9  4  1  0
 10  2  1  0
 11 10  2  0
 12 10  1  0
 13 12  1  0
 13 14  1  1
 15 23  1  0
 15 14  1  0
 16 15  2  0
 17 16  1  0
 17 18  1  0
 18 23  2  0
 19 18  1  0
 19 20  2  0
 20 21  1  0
 21 22  2  0
 23 22  1  0
 24 25  2  0
 24 13  1  0
 26 27  1  0
 27 28  1  0
 28 30  1  0
 28 29  1  6
 30 31  1  1
 31 24  1  0
 32 30  1  0
 33 32  1  0
 34 32  2  0
M  END
$$$$
