KSH.pdb
     RDKit          3D

 26 26  0  0  1  0  0  0  0  0999 V2000
   25.2618  -22.9131  -19.2173 N   0  0  0  0  0  0  0  0  0  0  0  0
   25.0822  -23.8496  -18.1632 C   0  0  1  0  0  0  0  0  0  0  0  0
   26.1794  -23.8496  -17.1878 C   0  0  0  0  0  0  0  0  0  0  0  0
   27.5249  -24.2576  -17.5263 C   0  0  0  0  0  0  0  0  0  0  0  0
   28.6891  -24.3341  -16.6744 C   0  0  0  0  0  0  0  0  0  0  0  0
   30.0324  -24.7390  -17.1062 C   0  0  0  0  0  0  0  0  0  0  0  0
   30.8914  -24.5144  -15.8765 N   0  0  0  0  0  0  0  0  0  0  0  0
   23.7489  -23.5526  -17.5095 C   0  0  0  0  0  0  0  0  0  0  0  0
   23.1879  -22.4704  -17.7697 O   0  0  0  0  0  0  0  0  0  0  0  0
   22.6384  -25.3653  -14.0692 O   0  0  0  0  0  0  0  0  0  0  0  0
   21.6612  -25.4168  -15.0383 C   0  0  0  0  0  0  0  0  0  0  0  0
   21.8387  -24.2405  -15.9963 C   0  0  2  0  0  0  0  0  0  0  0  0
   23.1286  -24.4538  -16.6249 N   0  0  0  0  0  0  0  0  0  0  0  0
   21.7498  -22.9464  -15.3114 C   0  0  0  0  0  0  0  0  0  0  0  0
   22.8273  -22.3699  -14.9620 O   0  0  0  0  0  0  0  0  0  0  0  0
   20.5461  -22.2691  -14.9986 N   0  0  0  0  0  0  0  0  0  0  0  0
   20.5014  -20.9944  -14.2890 C   0  0  1  0  0  0  0  0  0  0  0  0
   20.6549  -19.8400  -15.2160 C   0  0  0  0  0  0  0  0  0  0  0  0
   20.5163  -18.5420  -14.5341 C   0  0  0  0  0  0  0  0  0  0  0  0
   20.6995  -18.3843  -13.1700 C   0  0  0  0  0  0  0  0  0  0  0  0
   20.5115  -17.0768  -12.8240 N   0  0  0  0  0  0  0  0  0  0  0  0
   20.2122  -16.4304  -13.9792 C   0  0  0  0  0  0  0  0  0  0  0  0
   20.2200  -17.3126  -14.9758 N   0  0  0  0  0  0  0  0  0  0  0  0
   19.2811  -20.8537  -13.4934 C   0  0  0  0  0  0  0  0  0  0  0  0
   19.3462  -20.4603  -12.3109 O   0  0  0  0  0  0  0  0  0  0  0  0
   18.0390  -21.1493  -14.0250 O   0  0  0  0  0  0  0  0  0  0  0  0
  2  8  1  0
  2  1  1  6
  3  2  1  0
  4  3  1  0
  5  6  1  0
  5  4  1  0
  7  6  1  0
  8  9  2  0
 10 11  1  0
 12 11  1  1
 13 12  1  0
 13  8  1  0
 14 15  2  0
 14 12  1  0
 16 14  1  0
 17 24  1  0
 17 16  1  0
 17 18  1  6
 19 18  1  0
 20 19  2  0
 21 20  1  0
 22 21  1  0
 22 23  2  0
 23 19  1  0
 24 26  1  0
 25 24  2  0
M  END
$$$$
