KSH.pdb
     RDKit          3D

 26 26  0  0  1  0  0  0  0  0999 V2000
   28.8339  -14.2597  -17.7800 N   0  0  0  0  0  0  0  0  0  0  0  0
   27.8729  -13.4830  -18.4825 C   0  0  1  0  0  0  0  0  0  0  0  0
   26.7744  -14.2794  -19.0433 C   0  0  0  0  0  0  0  0  0  0  0  0
   26.9978  -15.4564  -19.8533 C   0  0  0  0  0  0  0  0  0  0  0  0
   26.0291  -16.2850  -20.5330 C   0  0  0  0  0  0  0  0  0  0  0  0
   26.3429  -17.4673  -21.3444 C   0  0  0  0  0  0  0  0  0  0  0  0
   24.9842  -17.9694  -21.7939 N   0  0  0  0  0  0  0  0  0  0  0  0
   27.3666  -12.4154  -17.5353 C   0  0  0  0  0  0  0  0  0  0  0  0
   27.1265  -12.7344  -16.3547 O   0  0  0  0  0  0  0  0  0  0  0  0
   27.5144   -8.4374  -18.6068 O   0  0  0  0  0  0  0  0  0  0  0  0
   27.5586   -8.8454  -17.2922 C   0  0  0  0  0  0  0  0  0  0  0  0
   26.6198  -10.0350  -17.1017 C   0  0  2  0  0  0  0  0  0  0  0  0
   27.1612  -11.0848  -17.9439 N   0  0  0  0  0  0  0  0  0  0  0  0
   25.2291   -9.7053  -17.4314 C   0  0  0  0  0  0  0  0  0  0  0  0
   24.8352   -9.8669  -18.6290 O   0  0  0  0  0  0  0  0  0  0  0  0
   24.2675   -9.2127  -16.5159 N   0  0  0  0  0  0  0  0  0  0  0  0
   22.9332   -8.7721  -16.9103 C   0  0  1  0  0  0  0  0  0  0  0  0
   21.9733   -9.9078  -16.9773 C   0  0  0  0  0  0  0  0  0  0  0  0
   20.6235   -9.4868  -17.3895 C   0  0  0  0  0  0  0  0  0  0  0  0
   20.2600   -9.3147  -18.7152 C   0  0  0  0  0  0  0  0  0  0  0  0
   18.9529   -8.9274  -18.7921 N   0  0  0  0  0  0  0  0  0  0  0  0
   18.5131   -8.8618  -17.5099 C   0  0  0  0  0  0  0  0  0  0  0  0
   19.5138   -9.1953  -16.6982 N   0  0  0  0  0  0  0  0  0  0  0  0
   22.4218   -7.7207  -16.0300 C   0  0  0  0  0  0  0  0  0  0  0  0
   23.0136   -7.4533  -14.9642 O   0  0  0  0  0  0  0  0  0  0  0  0
   21.2834   -7.0047  -16.3523 O   0  0  0  0  0  0  0  0  0  0  0  0
  2  8  1  0
  2  1  1  1
  3  2  1  0
  4  3  1  0
  5  6  1  0
  5  4  1  0
  7  6  1  0
  8  9  2  0
 10 11  1  0
 12 11  1  6
 13 12  1  0
 13  8  1  0
 14 15  2  0
 14 12  1  0
 16 14  1  0
 17 24  1  0
 17 16  1  0
 17 18  1  1
 19 18  1  0
 20 19  2  0
 21 20  1  0
 22 21  1  0
 22 23  2  0
 23 19  1  0
 24 26  1  0
 25 24  2  0
M  END
$$$$
