KSH.pdb
     RDKit          3D

 26 26  0  0  1  0  0  0  0  0999 V2000
   28.2672  -19.9781  -17.7742 N   0  0  0  0  0  0  0  0  0  0  0  0
   27.3984  -20.9252  -17.1671 C   0  0  1  0  0  0  0  0  0  0  0  0
   28.0066  -21.6345  -16.0347 C   0  0  0  0  0  0  0  0  0  0  0  0
   29.0246  -22.6476  -16.2038 C   0  0  0  0  0  0  0  0  0  0  0  0
   29.1241  -23.6706  -17.2190 C   0  0  0  0  0  0  0  0  0  0  0  0
   30.1483  -24.7211  -17.2689 C   0  0  0  0  0  0  0  0  0  0  0  0
   29.7405  -25.5686  -18.4587 N   0  0  0  0  0  0  0  0  0  0  0  0
   26.1366  -20.1934  -16.7599 C   0  0  0  0  0  0  0  0  0  0  0  0
   26.2464  -19.1468  -16.0923 O   0  0  0  0  0  0  0  0  0  0  0  0
   22.5601  -21.4214  -18.3001 O   0  0  0  0  0  0  0  0  0  0  0  0
   22.6916  -20.1104  -17.8992 C   0  0  0  0  0  0  0  0  0  0  0  0
   23.6101  -20.0455  -16.6807 C   0  0  2  0  0  0  0  0  0  0  0  0
   24.8545  -20.6550  -17.1100 N   0  0  0  0  0  0  0  0  0  0  0  0
   23.0288  -20.7098  -15.5092 C   0  0  0  0  0  0  0  0  0  0  0  0
   23.1972  -21.9627  -15.3769 O   0  0  0  0  0  0  0  0  0  0  0  0
   22.2815  -20.0666  -14.4927 N   0  0  0  0  0  0  0  0  0  0  0  0
   21.7264  -20.7656  -13.3379 C   0  0  1  0  0  0  0  0  0  0  0  0
   22.1602  -20.1463  -12.0557 C   0  0  0  0  0  0  0  0  0  0  0  0
   23.5181  -20.5555  -11.6585 C   0  0  0  0  0  0  0  0  0  0  0  0
   24.3114  -21.3862  -12.4329 C   0  0  0  0  0  0  0  0  0  0  0  0
   25.5134  -21.5872  -11.8171 N   0  0  0  0  0  0  0  0  0  0  0  0
   25.4574  -20.8778  -10.6615 C   0  0  0  0  0  0  0  0  0  0  0  0
   24.2722  -20.2769  -10.5870 N   0  0  0  0  0  0  0  0  0  0  0  0
   20.2664  -20.8483  -13.3985 C   0  0  0  0  0  0  0  0  0  0  0  0
   19.6365  -20.1896  -14.2509 O   0  0  0  0  0  0  0  0  0  0  0  0
   19.5555  -21.6491  -12.5233 O   0  0  0  0  0  0  0  0  0  0  0  0
  2  8  1  0
  2  1  1  1
  3  2  1  0
  4  3  1  0
  5  6  1  0
  5  4  1  0
  7  6  1  0
  8  9  2  0
 10 11  1  0
 12 11  1  6
 13 12  1  0
 13  8  1  0
 14 15  2  0
 14 12  1  0
 16 14  1  0
 17 24  1  0
 17 16  1  0
 17 18  1  1
 19 18  1  0
 20 19  2  0
 21 20  1  0
 22 21  1  0
 22 23  2  0
 23 19  1  0
 24 26  1  0
 25 24  2  0
M  END
$$$$
