KSH.pdb
     RDKit          3D

 26 26  0  0  1  0  0  0  0  0999 V2000
   26.7562  -21.5825  -11.1779 N   0  0  0  0  0  0  0  0  0  0  0  0
   26.8666  -20.4371  -12.0123 C   0  0  1  0  0  0  0  0  0  0  0  0
   28.2083  -20.2543  -12.5797 C   0  0  0  0  0  0  0  0  0  0  0  0
   29.3759  -20.9278  -12.0559 C   0  0  0  0  0  0  0  0  0  0  0  0
   29.7537  -21.1458  -10.6788 C   0  0  0  0  0  0  0  0  0  0  0  0
   31.0547  -21.6523  -10.2248 C   0  0  0  0  0  0  0  0  0  0  0  0
   30.6949  -22.8105   -9.3141 N   0  0  0  0  0  0  0  0  0  0  0  0
   25.8109  -20.5538  -13.0917 C   0  0  0  0  0  0  0  0  0  0  0  0
   25.7734  -19.6827  -13.9824 O   0  0  0  0  0  0  0  0  0  0  0  0
   22.7011  -23.4112  -12.9469 O   0  0  0  0  0  0  0  0  0  0  0  0
   23.5595  -23.3519  -14.0222 C   0  0  0  0  0  0  0  0  0  0  0  0
   24.0009  -21.9054  -14.2358 C   0  0  2  0  0  0  0  0  0  0  0  0
   24.8789  -21.6074  -13.1201 N   0  0  0  0  0  0  0  0  0  0  0  0
   22.8634  -20.9833  -14.3232 C   0  0  0  0  0  0  0  0  0  0  0  0
   22.1282  -20.8286  -13.2980 O   0  0  0  0  0  0  0  0  0  0  0  0
   22.5046  -20.2357  -15.4711 N   0  0  0  0  0  0  0  0  0  0  0  0
   21.2826  -19.4432  -15.5652 C   0  0  1  0  0  0  0  0  0  0  0  0
   21.1489  -18.7892  -16.8957 C   0  0  0  0  0  0  0  0  0  0  0  0
   19.9848  -17.8903  -16.9720 C   0  0  0  0  0  0  0  0  0  0  0  0
   19.1459  -17.6509  -15.8958 C   0  0  0  0  0  0  0  0  0  0  0  0
   18.1617  -16.7769  -16.2592 N   0  0  0  0  0  0  0  0  0  0  0  0
   18.3975  -16.4792  -17.5621 C   0  0  0  0  0  0  0  0  0  0  0  0
   19.4770  -17.1463  -17.9635 N   0  0  0  0  0  0  0  0  0  0  0  0
   20.0910  -20.2372  -15.2628 C   0  0  0  0  0  0  0  0  0  0  0  0
   19.9355  -21.3584  -15.7882 O   0  0  0  0  0  0  0  0  0  0  0  0
   19.1180  -19.7713  -14.3974 O   0  0  0  0  0  0  0  0  0  0  0  0
  2  8  1  0
  2  1  1  6
  3  2  1  0
  4  3  1  0
  5  6  1  0
  5  4  1  0
  7  6  1  0
  8  9  2  0
 10 11  1  0
 12 11  1  1
 13 12  1  0
 13  8  1  0
 14 15  2  0
 14 12  1  0
 16 14  1  0
 17 24  1  0
 17 16  1  0
 17 18  1  6
 19 18  1  0
 20 19  2  0
 21 20  1  0
 22 21  1  0
 22 23  2  0
 23 19  1  0
 24 26  1  0
 25 24  2  0
M  END
$$$$
