KSH.pdb
     RDKit          3D

 26 26  0  0  1  0  0  0  0  0999 V2000
   15.9623  -14.1698  -15.8171 N   0  0  0  0  0  0  0  0  0  0  0  0
   17.2591  -13.5989  -15.9300 C   0  0  1  0  0  0  0  0  0  0  0  0
   18.0768  -14.2095  -16.9854 C   0  0  0  0  0  0  0  0  0  0  0  0
   18.6266  -15.5424  -16.8743 C   0  0  0  0  0  0  0  0  0  0  0  0
   19.6402  -16.0310  -15.9683 C   0  0  0  0  0  0  0  0  0  0  0  0
   20.2096  -17.3840  -15.9806 C   0  0  0  0  0  0  0  0  0  0  0  0
   20.0142  -17.8724  -14.5581 N   0  0  0  0  0  0  0  0  0  0  0  0
   17.0864  -12.1096  -16.1434 C   0  0  0  0  0  0  0  0  0  0  0  0
   16.9751  -11.6859  -17.3102 O   0  0  0  0  0  0  0  0  0  0  0  0
   15.8600   -7.9239  -14.2112 O   0  0  0  0  0  0  0  0  0  0  0  0
   16.0254   -9.2881  -14.1196 C   0  0  0  0  0  0  0  0  0  0  0  0
   16.9787   -9.7552  -15.2178 C   0  0  2  0  0  0  0  0  0  0  0  0
   17.0474  -11.1970  -15.0733 N   0  0  0  0  0  0  0  0  0  0  0  0
   18.2942   -9.1133  -15.1232 C   0  0  0  0  0  0  0  0  0  0  0  0
   19.1569   -9.6121  -14.3343 O   0  0  0  0  0  0  0  0  0  0  0  0
   18.6962   -7.9644  -15.8469 N   0  0  0  0  0  0  0  0  0  0  0  0
   20.0117   -7.3472  -15.7103 C   0  0  1  0  0  0  0  0  0  0  0  0
   20.8396   -7.5338  -16.9333 C   0  0  0  0  0  0  0  0  0  0  0  0
   22.1161   -6.8017  -16.8719 C   0  0  0  0  0  0  0  0  0  0  0  0
   23.3337   -7.4271  -16.6585 C   0  0  0  0  0  0  0  0  0  0  0  0
   24.3374   -6.5013  -16.6560 N   0  0  0  0  0  0  0  0  0  0  0  0
   23.7338   -5.3044  -16.8685 C   0  0  0  0  0  0  0  0  0  0  0  0
   22.4237   -5.5036  -16.9930 N   0  0  0  0  0  0  0  0  0  0  0  0
   19.9170   -5.9275  -15.3677 C   0  0  0  0  0  0  0  0  0  0  0  0
   18.8234   -5.3330  -15.4576 O   0  0  0  0  0  0  0  0  0  0  0  0
   21.0235   -5.2163  -14.9405 O   0  0  0  0  0  0  0  0  0  0  0  0
  2  8  1  0
  2  1  1  6
  3  2  1  0
  4  3  1  0
  5  6  1  0
  5  4  1  0
  7  6  1  0
  8  9  2  0
 10 11  1  0
 12 11  1  1
 13 12  1  0
 13  8  1  0
 14 15  2  0
 14 12  1  0
 16 14  1  0
 17 24  1  0
 17 16  1  0
 17 18  1  6
 19 18  1  0
 20 19  2  0
 21 20  1  0
 22 21  1  0
 22 23  2  0
 23 19  1  0
 24 26  1  0
 25 24  2  0
M  END
$$$$
