KSH.pdb
     RDKit          3D

 26 26  0  0  1  0  0  0  0  0999 V2000
   22.8290  -20.7347  -20.7398 N   0  0  0  0  0  0  0  0  0  0  0  0
   22.3815  -19.5771  -20.0469 C   0  0  1  0  0  0  0  0  0  0  0  0
   21.6236  -18.6463  -20.8923 C   0  0  0  0  0  0  0  0  0  0  0  0
   21.0715  -19.0278  -22.1733 C   0  0  0  0  0  0  0  0  0  0  0  0
   21.3688  -18.4943  -23.4824 C   0  0  0  0  0  0  0  0  0  0  0  0
   20.6681  -18.8478  -24.7230 C   0  0  0  0  0  0  0  0  0  0  0  0
   21.4847  -18.1696  -25.8063 N   0  0  0  0  0  0  0  0  0  0  0  0
   21.5706  -20.0419  -18.8554 C   0  0  0  0  0  0  0  0  0  0  0  0
   20.9403  -21.1132  -18.9475 O   0  0  0  0  0  0  0  0  0  0  0  0
   21.9932  -18.1610  -15.2002 O   0  0  0  0  0  0  0  0  0  0  0  0
   21.6508  -19.4910  -15.3024 C   0  0  0  0  0  0  0  0  0  0  0  0
   20.7195  -19.6814  -16.4980 C   0  0  2  0  0  0  0  0  0  0  0  0
   21.5080  -19.3076  -17.6569 N   0  0  0  0  0  0  0  0  0  0  0  0
   19.4869  -18.8959  -16.3743 C   0  0  0  0  0  0  0  0  0  0  0  0
   19.4821  -17.7025  -16.8118 O   0  0  0  0  0  0  0  0  0  0  0  0
   18.2782  -19.3581  -15.7992 N   0  0  0  0  0  0  0  0  0  0  0  0
   17.0897  -18.5247  -15.6468 C   0  0  1  0  0  0  0  0  0  0  0  0
   17.4332  -17.0776  -15.5868 C   0  0  0  0  0  0  0  0  0  0  0  0
   18.2318  -16.7324  -14.3984 C   0  0  0  0  0  0  0  0  0  0  0  0
   18.2848  -17.5318  -13.2682 C   0  0  0  0  0  0  0  0  0  0  0  0
   19.1040  -16.9636  -12.3352 N   0  0  0  0  0  0  0  0  0  0  0  0
   19.5550  -15.8123  -12.8946 C   0  0  0  0  0  0  0  0  0  0  0  0
   19.0286  -15.6946  -14.1114 N   0  0  0  0  0  0  0  0  0  0  0  0
   16.1074  -18.7746  -16.7024 C   0  0  0  0  0  0  0  0  0  0  0  0
   16.3487  -19.6098  -17.5977 O   0  0  0  0  0  0  0  0  0  0  0  0
   14.9006  -18.0999  -16.7349 O   0  0  0  0  0  0  0  0  0  0  0  0
  2  8  1  0
  2  1  1  6
  3  2  1  0
  4  3  1  0
  5  6  1  0
  5  4  1  0
  7  6  1  0
  8  9  2  0
 10 11  1  0
 12 11  1  1
 13 12  1  0
 13  8  1  0
 14 15  2  0
 14 12  1  0
 16 14  1  0
 17 24  1  0
 17 16  1  0
 17 18  1  6
 19 18  1  0
 20 19  2  0
 21 20  1  0
 22 21  1  0
 22 23  2  0
 23 19  1  0
 24 26  1  0
 25 24  2  0
M  END
$$$$
