KSH.pdb
     RDKit          3D

 26 26  0  0  1  0  0  0  0  0999 V2000
   13.0135  -12.7511  -12.3150 N   0  0  0  0  0  0  0  0  0  0  0  0
   14.3195  -12.3894  -11.8859 C   0  0  1  0  0  0  0  0  0  0  0  0
   15.3845  -13.1553  -12.5452 C   0  0  0  0  0  0  0  0  0  0  0  0
   15.2993  -14.5822  -12.7638 C   0  0  0  0  0  0  0  0  0  0  0  0
   16.2643  -15.4629  -13.3803 C   0  0  0  0  0  0  0  0  0  0  0  0
   16.0987  -16.9101  -13.5627 C   0  0  0  0  0  0  0  0  0  0  0  0
   17.3669  -17.3326  -14.2792 N   0  0  0  0  0  0  0  0  0  0  0  0
   14.4780  -10.8999  -12.1082 C   0  0  0  0  0  0  0  0  0  0  0  0
   14.2184  -10.4369  -13.2359 O   0  0  0  0  0  0  0  0  0  0  0  0
   15.1826   -8.6985   -8.8637 O   0  0  0  0  0  0  0  0  0  0  0  0
   14.5601   -8.0203   -9.8881 C   0  0  0  0  0  0  0  0  0  0  0  0
   15.0260   -8.5904  -11.2263 C   0  0  2  0  0  0  0  0  0  0  0  0
   14.9053  -10.0295  -11.0887 N   0  0  0  0  0  0  0  0  0  0  0  0
   16.3879   -8.1666  -11.5683 C   0  0  0  0  0  0  0  0  0  0  0  0
   17.3639   -8.7292  -10.9797 O   0  0  0  0  0  0  0  0  0  0  0  0
   16.7184   -7.1661  -12.5145 N   0  0  0  0  0  0  0  0  0  0  0  0
   18.0847   -6.7214  -12.7710 C   0  0  1  0  0  0  0  0  0  0  0  0
   18.7959   -7.6329  -13.7086 C   0  0  0  0  0  0  0  0  0  0  0  0
   20.1612   -7.1759  -14.0186 C   0  0  0  0  0  0  0  0  0  0  0  0
   21.0417   -6.7218  -13.0502 C   0  0  0  0  0  0  0  0  0  0  0  0
   22.2282   -6.3719  -13.6284 N   0  0  0  0  0  0  0  0  0  0  0  0
   22.0752   -6.6121  -14.9553 C   0  0  0  0  0  0  0  0  0  0  0  0
   20.8491   -7.0857  -15.1644 N   0  0  0  0  0  0  0  0  0  0  0  0
   18.1283   -5.3441  -13.2638 C   0  0  0  0  0  0  0  0  0  0  0  0
   17.0770   -4.7712  -13.6159 O   0  0  0  0  0  0  0  0  0  0  0  0
   19.3212   -4.6498  -13.3510 O   0  0  0  0  0  0  0  0  0  0  0  0
  2  8  1  0
  2  1  1  6
  3  2  1  0
  4  3  1  0
  5  6  1  0
  5  4  1  0
  7  6  1  0
  8  9  2  0
 10 11  1  0
 12 11  1  1
 13 12  1  0
 13  8  1  0
 14 15  2  0
 14 12  1  0
 16 14  1  0
 17 24  1  0
 17 16  1  0
 17 18  1  6
 19 18  1  0
 20 19  2  0
 21 20  1  0
 22 21  1  0
 22 23  2  0
 23 19  1  0
 24 26  1  0
 25 24  2  0
M  END
$$$$
