ACE.pdb
     RDKit          3D

 21 20  0  0  1  0  0  0  0  0999 V2000
    7.3950  -12.6535   19.8076 C   0  0  0  0  0  0  0  0  0  0  0  0
    7.5152  -13.9759   20.5696 C   0  0  2  0  0  0  0  0  0  0  0  0
    6.1606  -14.4365   20.7992 N   0  0  0  0  0  0  0  0  0  0  0  0
    8.1535  -13.7710   21.8897 C   0  0  0  0  0  0  0  0  0  0  0  0
    9.3585  -13.4456   21.9739 O   0  0  0  0  0  0  0  0  0  0  0  0
    7.4374  -13.9316   23.1193 N   0  0  0  0  0  0  0  0  0  0  0  0
    8.0661  -13.9915   24.3983 C   0  0  1  0  0  0  0  0  0  0  0  0
    7.2924  -13.2202   25.4616 C   0  0  0  0  0  0  0  0  0  0  0  0
    5.6474  -13.9195   25.6183 S   0  0  0  0  0  0  0  0  0  0  0  0
    8.2345  -15.3683   24.9097 C   0  0  0  0  0  0  0  0  0  0  0  0
    7.2742  -16.1706   24.7811 O   0  0  0  0  0  0  0  0  0  0  0  0
    9.4132  -15.8429   25.5376 N   0  0  0  0  0  0  0  0  0  0  0  0
    9.6214  -17.2553   25.8789 C   0  0  1  0  0  0  0  0  0  0  0  0
   10.3391  -17.9574   24.7709 C   0  0  0  0  0  0  0  0  0  0  0  0
   11.6565  -17.2982   24.4931 C   0  0  0  0  0  0  0  0  0  0  0  0
   12.4101  -18.0172   23.4224 C   0  0  0  0  0  0  0  0  0  0  0  0
   13.2888  -18.8254   23.7454 O   0  0  0  0  0  0  0  0  0  0  0  0
   10.4237  -17.2761   27.1100 C   0  0  0  0  0  0  0  0  0  0  0  0
   10.7597  -18.3974   27.8273 O   0  0  0  0  0  0  0  0  0  0  0  0
   12.1008  -17.7558   22.1094 O   0  0  0  0  0  0  0  0  0  0  0  0
   10.8598  -16.1679   27.5817 O   0  0  0  0  0  0  0  0  0  0  0  0
  2  1  1  1
  3  2  1  0
  4  6  1  0
  4  2  1  0
  5  4  2  0
  7  8  1  1
  7  6  1  0
  9  8  1  0
 10  7  1  0
 10 12  1  0
 11 10  2  0
 13 12  1  0
 13 14  1  6
 14 15  1  0
 16 20  1  0
 16 15  1  0
 17 16  2  0
 18 13  1  0
 19 18  1  0
 21 18  2  0
M  END
$$$$
