ACE.pdb
     RDKit          3D

 21 20  0  0  1  0  0  0  0  0999 V2000
   10.2927  -16.2364   19.4580 C   0  0  0  0  0  0  0  0  0  0  0  0
    9.9760  -17.1871   20.6154 C   0  0  2  0  0  0  0  0  0  0  0  0
    8.5460  -17.4172   20.5721 N   0  0  0  0  0  0  0  0  0  0  0  0
   10.2945  -16.5604   21.9185 C   0  0  0  0  0  0  0  0  0  0  0  0
   11.4736  -16.2671   22.2160 O   0  0  0  0  0  0  0  0  0  0  0  0
    9.2865  -16.2619   22.8908 N   0  0  0  0  0  0  0  0  0  0  0  0
    9.5709  -15.7660   24.1976 C   0  0  1  0  0  0  0  0  0  0  0  0
    8.4407  -14.9048   24.7499 C   0  0  0  0  0  0  0  0  0  0  0  0
    6.9312  -15.8735   24.8009 S   0  0  0  0  0  0  0  0  0  0  0  0
    9.8190  -16.8312   25.1924 C   0  0  0  0  0  0  0  0  0  0  0  0
    8.9646  -17.7473   25.3064 O   0  0  0  0  0  0  0  0  0  0  0  0
   10.9623  -16.8855   26.0283 N   0  0  0  0  0  0  0  0  0  0  0  0
   11.2468  -18.0182   26.9174 C   0  0  1  0  0  0  0  0  0  0  0  0
   12.6618  -18.4703   26.7468 C   0  0  0  0  0  0  0  0  0  0  0  0
   12.9258  -18.8546   25.3221 C   0  0  0  0  0  0  0  0  0  0  0  0
   14.3405  -19.2940   25.1299 C   0  0  0  0  0  0  0  0  0  0  0  0
   15.1111  -19.2785   26.0971 O   0  0  0  0  0  0  0  0  0  0  0  0
   11.0171  -17.5435   28.2892 C   0  0  0  0  0  0  0  0  0  0  0  0
   10.6682  -16.2644   28.6454 O   0  0  0  0  0  0  0  0  0  0  0  0
   14.7400  -19.7023   23.8802 O   0  0  0  0  0  0  0  0  0  0  0  0
   11.1489  -18.3701   29.2588 O   0  0  0  0  0  0  0  0  0  0  0  0
  2  1  1  6
  3  2  1  0
  4  6  1  0
  4  2  1  0
  5  4  2  0
  7  8  1  1
  7  6  1  0
  9  8  1  0
 10  7  1  0
 10 12  1  0
 11 10  2  0
 13 12  1  0
 13 14  1  1
 14 15  1  0
 16 20  1  0
 16 15  1  0
 17 16  2  0
 18 13  1  0
 19 18  1  0
 21 18  2  0
M  END
$$$$
