ACE.pdb
     RDKit          3D

 21 20  0  0  1  0  0  0  0  0999 V2000
    7.6039  -12.4912   19.6557 C   0  0  0  0  0  0  0  0  0  0  0  0
    7.6321  -13.9462   20.1313 C   0  0  2  0  0  0  0  0  0  0  0  0
    6.2490  -14.3646   20.2396 N   0  0  0  0  0  0  0  0  0  0  0  0
    8.2440  -14.0528   21.4752 C   0  0  0  0  0  0  0  0  0  0  0  0
    9.4845  -13.9836   21.6205 O   0  0  0  0  0  0  0  0  0  0  0  0
    7.4613  -14.2378   22.6600 N   0  0  0  0  0  0  0  0  0  0  0  0
    8.0145  -14.2822   23.9740 C   0  0  1  0  0  0  0  0  0  0  0  0
    6.9426  -14.2280   25.0567 C   0  0  0  0  0  0  0  0  0  0  0  0
    6.1762  -12.6057   25.0479 S   0  0  0  0  0  0  0  0  0  0  0  0
    8.8212  -15.4934   24.2344 C   0  0  0  0  0  0  0  0  0  0  0  0
    8.2948  -16.6150   24.0170 O   0  0  0  0  0  0  0  0  0  0  0  0
   10.1543  -15.4706   24.7151 N   0  0  0  0  0  0  0  0  0  0  0  0
   11.0348  -16.6445   24.6797 C   0  0  1  0  0  0  0  0  0  0  0  0
   12.4047  -16.2532   24.2260 C   0  0  0  0  0  0  0  0  0  0  0  0
   13.3330  -17.4294   24.2722 C   0  0  0  0  0  0  0  0  0  0  0  0
   14.7019  -17.0616   23.8008 C   0  0  0  0  0  0  0  0  0  0  0  0
   15.5580  -17.9474   23.6917 O   0  0  0  0  0  0  0  0  0  0  0  0
   11.0761  -17.1801   26.0476 C   0  0  0  0  0  0  0  0  0  0  0  0
   11.4024  -18.4680   26.3933 O   0  0  0  0  0  0  0  0  0  0  0  0
   14.9652  -15.7463   23.5029 O   0  0  0  0  0  0  0  0  0  0  0  0
   10.7848  -16.4035   27.0238 O   0  0  0  0  0  0  0  0  0  0  0  0
  2  1  1  1
  3  2  1  0
  4  6  1  0
  4  2  1  0
  5  4  2  0
  7  8  1  1
  7  6  1  0
  9  8  1  0
 10  7  1  0
 10 12  1  0
 11 10  2  0
 13 12  1  0
 13 14  1  1
 14 15  1  0
 16 20  1  0
 16 15  1  0
 17 16  2  0
 18 13  1  0
 19 18  1  0
 21 18  2  0
M  END
$$$$
