ACE.pdb
     RDKit          3D

 21 20  0  0  1  0  0  0  0  0999 V2000
    6.4536  -14.7048   20.5673 C   0  0  0  0  0  0  0  0  0  0  0  0
    7.0468  -13.3664   21.0153 C   0  0  2  0  0  0  0  0  0  0  0  0
    7.9559  -12.9536   19.9650 N   0  0  0  0  0  0  0  0  0  0  0  0
    7.8342  -13.5252   22.2590 C   0  0  0  0  0  0  0  0  0  0  0  0
    9.0342  -13.8759   22.2159 O   0  0  0  0  0  0  0  0  0  0  0  0
    7.2732  -13.2897   23.5552 N   0  0  0  0  0  0  0  0  0  0  0  0
    7.9857  -13.4940   24.7740 C   0  0  1  0  0  0  0  0  0  0  0  0
    7.2561  -12.9081   25.9775 C   0  0  0  0  0  0  0  0  0  0  0  0
    5.4936  -13.1894   25.7939 S   0  0  0  0  0  0  0  0  0  0  0  0
    8.2357  -14.9185   25.0803 C   0  0  0  0  0  0  0  0  0  0  0  0
    7.3724  -15.7620   24.7258 O   0  0  0  0  0  0  0  0  0  0  0  0
    9.3901  -15.3953   25.7501 N   0  0  0  0  0  0  0  0  0  0  0  0
    9.7832  -16.8096   25.7528 C   0  0  1  0  0  0  0  0  0  0  0  0
   10.9042  -17.0393   24.7903 C   0  0  0  0  0  0  0  0  0  0  0  0
   11.7156  -18.2318   25.1987 C   0  0  0  0  0  0  0  0  0  0  0  0
   12.8958  -18.4201   24.3025 C   0  0  0  0  0  0  0  0  0  0  0  0
   13.0354  -17.6719   23.3278 O   0  0  0  0  0  0  0  0  0  0  0  0
   10.2060  -17.1255   27.1243 C   0  0  0  0  0  0  0  0  0  0  0  0
   10.4295  -18.3850   27.6228 O   0  0  0  0  0  0  0  0  0  0  0  0
   13.7903  -19.4220   24.5922 O   0  0  0  0  0  0  0  0  0  0  0  0
   10.3875  -16.1642   27.9514 O   0  0  0  0  0  0  0  0  0  0  0  0
  2  1  1  6
  3  2  1  0
  4  6  1  0
  4  2  1  0
  5  4  2  0
  7  8  1  1
  7  6  1  0
  9  8  1  0
 10  7  1  0
 10 12  1  0
 11 10  2  0
 13 12  1  0
 13 14  1  6
 14 15  1  0
 16 20  1  0
 16 15  1  0
 17 16  2  0
 18 13  1  0
 19 18  1  0
 21 18  2  0
M  END
$$$$
