ACE.pdb
     RDKit          3D

 21 20  0  0  1  0  0  0  0  0999 V2000
    6.8727  -16.3092   21.0065 C   0  0  0  0  0  0  0  0  0  0  0  0
    7.1946  -14.8155   21.1021 C   0  0  2  0  0  0  0  0  0  0  0  0
    8.1359  -14.5342   20.0369 N   0  0  0  0  0  0  0  0  0  0  0  0
    7.8570  -14.4973   22.3874 C   0  0  0  0  0  0  0  0  0  0  0  0
    9.0933  -14.6338   22.5209 O   0  0  0  0  0  0  0  0  0  0  0  0
    7.1297  -14.0242   23.5266 N   0  0  0  0  0  0  0  0  0  0  0  0
    7.7321  -13.7458   24.7893 C   0  0  1  0  0  0  0  0  0  0  0  0
    6.7736  -13.0488   25.7482 C   0  0  0  0  0  0  0  0  0  0  0  0
    7.6355  -12.6755   27.2770 S   0  0  0  0  0  0  0  0  0  0  0  0
    8.2282  -14.9519   25.4857 C   0  0  0  0  0  0  0  0  0  0  0  0
    7.4109  -15.8783   25.7231 O   0  0  0  0  0  0  0  0  0  0  0  0
    9.5705  -15.1309   25.9039 N   0  0  0  0  0  0  0  0  0  0  0  0
   10.0441  -16.3545   26.5621 C   0  0  1  0  0  0  0  0  0  0  0  0
   11.3694  -16.7648   26.0047 C   0  0  0  0  0  0  0  0  0  0  0  0
   11.1968  -17.4594   24.6875 C   0  0  0  0  0  0  0  0  0  0  0  0
   12.5157  -17.8073   24.0784 C   0  0  0  0  0  0  0  0  0  0  0  0
   13.5535  -17.5019   24.6778 O   0  0  0  0  0  0  0  0  0  0  0  0
   10.1587  -16.0440   27.9939 C   0  0  0  0  0  0  0  0  0  0  0  0
   10.4361  -16.9480   28.9891 O   0  0  0  0  0  0  0  0  0  0  0  0
   12.5319  -18.4576   22.8682 O   0  0  0  0  0  0  0  0  0  0  0  0
    9.9874  -14.8343   28.3790 O   0  0  0  0  0  0  0  0  0  0  0  0
  2  1  1  1
  3  2  1  0
  4  6  1  0
  4  2  1  0
  5  4  2  0
  7  8  1  1
  7  6  1  0
  9  8  1  0
 10  7  1  0
 10 12  1  0
 11 10  2  0
 13 12  1  0
 13 14  1  6
 14 15  1  0
 16 20  1  0
 16 15  1  0
 17 16  2  0
 18 13  1  0
 19 18  1  0
 21 18  2  0
M  END
$$$$
