RTP.pdb
     RDKit          3D

 26 26  0  0  1  0  0  0  0  0999 V2000
   11.3631  -23.2983   20.6086 N   0  0  0  0  0  0  0  0  0  0  0  0
   11.2859  -21.9583   20.1789 C   0  0  0  0  0  0  0  0  0  0  0  0
   10.2421  -21.4582   19.6081 N   0  0  0  0  0  0  0  0  0  0  0  0
   12.4322  -21.1040   20.3881 N   0  0  0  0  0  0  0  0  0  0  0  0
   12.1750  -19.6721   20.4493 C   0  0  0  0  0  0  0  0  0  0  0  0
   11.7562  -19.3019   21.8440 C   0  0  0  0  0  0  0  0  0  0  0  0
   11.5539  -17.8391   21.9811 C   0  0  0  0  0  0  0  0  0  0  0  0
   10.6495  -17.1979   21.0007 C   0  0  2  0  0  0  0  0  0  0  0  0
   11.2213  -16.8361   19.7358 N   0  0  0  0  0  0  0  0  0  0  0  0
   10.1711  -15.9121   21.6325 C   0  0  0  0  0  0  0  0  0  0  0  0
   10.8797  -14.8733   21.6514 O   0  0  0  0  0  0  0  0  0  0  0  0
   10.2211  -20.4734   19.2725 C   0  0  0  0  0  0  0  0  0  0  0  0
    7.0824  -14.1958   20.8566 C   0  0  2  0  0  0  0  0  0  0  0  0
    6.9762  -14.4856   22.3659 O   0  0  0  0  0  0  0  0  0  0  0  0
    6.3581  -15.7425   22.4304 C   0  0  2  0  0  0  0  0  0  0  0  0
    8.4222  -14.5689   22.8307 N   0  0  0  0  0  0  0  0  0  0  0  0
    8.8982  -15.8316   22.2300 C   0  0  0  0  0  0  0  0  0  0  0  0
    8.5836  -14.6653   24.2778 O   0  0  0  0  0  0  0  0  0  0  0  0
    9.5027  -15.4439   24.7173 N   0  0  0  0  0  0  0  0  0  0  0  0
    7.8368  -13.9908   25.2689 C   0  0  0  0  0  0  0  0  0  0  0  0
    6.7331  -13.0474   25.0425 C   0  0  0  0  0  0  0  0  0  0  0  0
    7.0818  -11.9346   25.9777 C   0  0  0  0  0  0  0  0  0  0  0  0
    7.6252  -12.6500   27.1935 C   0  0  1  0  0  0  0  0  0  0  0  0
    7.9450  -14.0638   26.7042 C   0  0  0  0  0  0  0  0  0  0  0  0
    6.9117  -15.0102   27.2095 O   0  0  0  0  0  0  0  0  0  0  0  0
    6.9904  -15.5107   28.4783 O   0  0  0  0  0  0  0  0  0  0  0  0
  2  1  1  0
  3  2  2  0
  4  2  1  0
  5  6  1  0
  5  4  1  0
  7  6  1  0
  8  7  1  0
  8  9  1  6
 10  8  1  0
 11 10  2  0
 13 12  1  1
 13 15  1  0
 14 13  1  0
 15 17  1  0
 15 16  1  1
 16 10  1  0
 17 18  2  0
 19 20  1  0
 19 17  1  0
 21 20  1  0
 22 21  1  0
 22 23  1  0
 23 19  1  0
 23 24  1  1
 24 25  1  0
 26 24  2  0
M  END
$$$$
