RTP.pdb
     RDKit          3D

 26 26  0  0  1  0  0  0  0  0999 V2000
    8.7504  -15.9736   16.6322 N   0  0  0  0  0  0  0  0  0  0  0  0
    8.5920  -14.6948   16.0613 C   0  0  0  0  0  0  0  0  0  0  0  0
    8.2037  -14.5071   14.8450 N   0  0  0  0  0  0  0  0  0  0  0  0
    8.8788  -13.5385   16.8788 N   0  0  0  0  0  0  0  0  0  0  0  0
    8.9524  -13.7591   18.3162 C   0  0  0  0  0  0  0  0  0  0  0  0
    7.6468  -13.3648   18.9468 C   0  0  0  0  0  0  0  0  0  0  0  0
    7.6308  -13.6666   20.3987 C   0  0  0  0  0  0  0  0  0  0  0  0
    8.0670  -15.0223   20.8012 C   0  0  2  0  0  0  0  0  0  0  0  0
    7.4721  -16.1253   20.1030 N   0  0  0  0  0  0  0  0  0  0  0  0
    7.6847  -15.1846   22.2533 C   0  0  0  0  0  0  0  0  0  0  0  0
    6.5573  -14.8384   22.6899 O   0  0  0  0  0  0  0  0  0  0  0  0
    8.1157  -13.5526   14.4399 C   0  0  0  0  0  0  0  0  0  0  0  0
    6.3938  -17.1664   23.8260 C   0  0  2  0  0  0  0  0  0  0  0  0
    7.6359  -17.2183   24.7356 O   0  0  0  0  0  0  0  0  0  0  0  0
    8.4610  -18.1790   24.1337 C   0  0  2  0  0  0  0  0  0  0  0  0
    8.2440  -15.8293   24.6135 N   0  0  0  0  0  0  0  0  0  0  0  0
    8.5900  -15.7366   23.1805 C   0  0  0  0  0  0  0  0  0  0  0  0
    9.4653  -15.6377   25.3889 O   0  0  0  0  0  0  0  0  0  0  0  0
   10.5688  -16.0073   24.8504 N   0  0  0  0  0  0  0  0  0  0  0  0
    9.5792  -15.0830   26.6828 C   0  0  0  0  0  0  0  0  0  0  0  0
    8.4906  -14.5167   27.4912 C   0  0  0  0  0  0  0  0  0  0  0  0
    9.1036  -13.2472   27.9881 C   0  0  0  0  0  0  0  0  0  0  0  0
   10.5374  -13.6329   28.2720 C   0  0  1  0  0  0  0  0  0  0  0  0
   10.7430  -14.9506   27.5225 C   0  0  0  0  0  0  0  0  0  0  0  0
   10.7560  -16.0788   28.4951 O   0  0  0  0  0  0  0  0  0  0  0  0
   11.8585  -16.3175   29.2659 O   0  0  0  0  0  0  0  0  0  0  0  0
  2  1  1  0
  3  2  2  0
  4  2  1  0
  5  6  1  0
  5  4  1  0
  7  6  1  0
  8  7  1  0
  8  9  1  6
 10  8  1  0
 11 10  2  0
 13 12  1  1
 13 15  1  0
 14 13  1  0
 15 17  1  0
 15 16  1  1
 16 10  1  0
 17 18  2  0
 19 20  1  0
 19 17  1  0
 21 20  1  0
 22 21  1  0
 22 23  1  0
 23 19  1  0
 23 24  1  1
 24 25  1  0
 26 24  2  0
M  END
$$$$
