RTP.pdb
     RDKit          3D

 26 26  0  0  1  0  0  0  0  0999 V2000
    7.3543  -13.5631   16.0055 N   0  0  0  0  0  0  0  0  0  0  0  0
    8.5617  -14.2643   16.1977 C   0  0  0  0  0  0  0  0  0  0  0  0
    8.8735  -15.3287   15.5380 N   0  0  0  0  0  0  0  0  0  0  0  0
    9.4948  -13.7660   17.1819 N   0  0  0  0  0  0  0  0  0  0  0  0
   10.7352  -14.5121   17.3399 C   0  0  0  0  0  0  0  0  0  0  0  0
   10.5093  -15.6564   18.2871 C   0  0  0  0  0  0  0  0  0  0  0  0
   10.4714  -15.1966   19.6966 C   0  0  0  0  0  0  0  0  0  0  0  0
   10.2319  -16.2310   20.7275 C   0  0  2  0  0  0  0  0  0  0  0  0
    9.4572  -17.3711   20.3299 N   0  0  0  0  0  0  0  0  0  0  0  0
    9.4593  -15.5609   21.8389 C   0  0  0  0  0  0  0  0  0  0  0  0
    9.0963  -14.3588   21.7694 O   0  0  0  0  0  0  0  0  0  0  0  0
    9.7559  -15.8482   15.7231 C   0  0  0  0  0  0  0  0  0  0  0  0
    6.3904  -16.3029   23.1252 C   0  0  2  0  0  0  0  0  0  0  0  0
    7.2344  -16.4463   24.4059 O   0  0  0  0  0  0  0  0  0  0  0  0
    7.5769  -17.8055   24.4397 C   0  0  2  0  0  0  0  0  0  0  0  0
    8.4603  -15.5855   24.1411 N   0  0  0  0  0  0  0  0  0  0  0  0
    9.1146  -16.2688   23.0067 C   0  0  0  0  0  0  0  0  0  0  0  0
    9.4090  -15.5340   25.2487 O   0  0  0  0  0  0  0  0  0  0  0  0
   10.5567  -16.0762   25.0667 N   0  0  0  0  0  0  0  0  0  0  0  0
    9.2114  -14.9471   26.5181 C   0  0  0  0  0  0  0  0  0  0  0  0
    7.9792  -14.3133   27.0070 C   0  0  0  0  0  0  0  0  0  0  0  0
    8.5025  -13.0561   27.6234 C   0  0  0  0  0  0  0  0  0  0  0  0
    9.7947  -13.4919   28.2755 C   0  0  1  0  0  0  0  0  0  0  0  0
   10.1243  -14.8382   27.6280 C   0  0  0  0  0  0  0  0  0  0  0  0
    9.8329  -15.9371   28.5904 O   0  0  0  0  0  0  0  0  0  0  0  0
   10.6818  -16.1921   29.6301 O   0  0  0  0  0  0  0  0  0  0  0  0
  2  1  1  0
  3  2  2  0
  4  2  1  0
  5  6  1  0
  5  4  1  0
  7  6  1  0
  8  7  1  0
  8  9  1  6
 10  8  1  0
 11 10  2  0
 13 12  1  1
 13 15  1  0
 14 13  1  0
 15 17  1  0
 15 16  1  1
 16 10  1  0
 17 18  2  0
 19 20  1  0
 19 17  1  0
 21 20  1  0
 22 21  1  0
 22 23  1  0
 23 19  1  0
 23 24  1  1
 24 25  1  0
 26 24  2  0
M  END
$$$$
