RTP.pdb
     RDKit          3D

 26 26  0  0  1  0  0  0  0  0999 V2000
   11.9368  -20.9201   17.1404 N   0  0  0  0  0  0  0  0  0  0  0  0
   13.2889  -21.1613   17.4562 C   0  0  0  0  0  0  0  0  0  0  0  0
   14.0659  -21.8894   16.7270 N   0  0  0  0  0  0  0  0  0  0  0  0
   13.8302  -20.5638   18.6551 N   0  0  0  0  0  0  0  0  0  0  0  0
   12.9345  -19.7044   19.4162 C   0  0  0  0  0  0  0  0  0  0  0  0
   12.5270  -18.5345   18.5660 C   0  0  0  0  0  0  0  0  0  0  0  0
   11.7282  -17.5524   19.3386 C   0  0  0  0  0  0  0  0  0  0  0  0
   11.2356  -16.3679   18.6007 C   0  0  2  0  0  0  0  0  0  0  0  0
   12.2132  -15.6036   17.8810 N   0  0  0  0  0  0  0  0  0  0  0  0
   10.6425  -15.4351   19.6299 C   0  0  0  0  0  0  0  0  0  0  0  0
   11.3457  -14.6104   20.2677 O   0  0  0  0  0  0  0  0  0  0  0  0
   15.0599  -22.0571   16.9854 C   0  0  0  0  0  0  0  0  0  0  0  0
    7.6054  -13.3612   19.1613 C   0  0  2  0  0  0  0  0  0  0  0  0
    7.3121  -14.2377   20.3937 O   0  0  0  0  0  0  0  0  0  0  0  0
    6.6969  -15.3802   19.8625 C   0  0  2  0  0  0  0  0  0  0  0  0
    8.6887  -14.5722   20.9477 N   0  0  0  0  0  0  0  0  0  0  0  0
    9.2632  -15.4573   19.9141 C   0  0  0  0  0  0  0  0  0  0  0  0
    8.6669  -15.3032   22.2105 O   0  0  0  0  0  0  0  0  0  0  0  0
    9.3719  -16.3717   22.2847 N   0  0  0  0  0  0  0  0  0  0  0  0
    7.9511  -14.9680   23.3810 C   0  0  0  0  0  0  0  0  0  0  0  0
    6.9904  -13.8666   23.5342 C   0  0  0  0  0  0  0  0  0  0  0  0
    7.4178  -13.2629   24.8332 C   0  0  0  0  0  0  0  0  0  0  0  0
    7.7915  -14.4612   25.6754 C   0  0  1  0  0  0  0  0  0  0  0  0
    7.9610  -15.6050   24.6738 C   0  0  0  0  0  0  0  0  0  0  0  0
    6.7881  -16.5192   24.7602 O   0  0  0  0  0  0  0  0  0  0  0  0
    6.6634  -17.3909   25.8048 O   0  0  0  0  0  0  0  0  0  0  0  0
  2  1  1  0
  3  2  2  0
  4  2  1  0
  5  6  1  0
  5  4  1  0
  7  6  1  0
  8  7  1  0
  8  9  1  1
 10  8  1  0
 11 10  2  0
 13 12  1  1
 13 15  1  0
 14 13  1  0
 15 17  1  0
 15 16  1  1
 16 10  1  0
 17 18  2  0
 19 20  1  0
 19 17  1  0
 21 20  1  0
 22 21  1  0
 22 23  1  0
 23 19  1  0
 23 24  1  6
 24 25  1  0
 26 24  2  0
M  END
$$$$
