RTP.pdb
     RDKit          3D

 26 26  0  0  1  0  0  0  0  0999 V2000
   15.7419  -17.3285   18.0496 N   0  0  0  0  0  0  0  0  0  0  0  0
   15.8503  -18.3962   17.1362 C   0  0  0  0  0  0  0  0  0  0  0  0
   16.8745  -19.1795   17.0831 N   0  0  0  0  0  0  0  0  0  0  0  0
   14.7609  -18.6237   16.2148 N   0  0  0  0  0  0  0  0  0  0  0  0
   13.7767  -17.5574   16.0937 C   0  0  0  0  0  0  0  0  0  0  0  0
   12.5500  -17.9217   16.8811 C   0  0  0  0  0  0  0  0  0  0  0  0
   12.0107  -16.7540   17.6193 C   0  0  0  0  0  0  0  0  0  0  0  0
   10.6879  -16.2484   17.1893 C   0  0  2  0  0  0  0  0  0  0  0  0
   10.6448  -15.5258   15.9508 N   0  0  0  0  0  0  0  0  0  0  0  0
   10.2266  -15.2856   18.2577 C   0  0  0  0  0  0  0  0  0  0  0  0
   10.7456  -14.1492   18.4019 O   0  0  0  0  0  0  0  0  0  0  0  0
   16.9443  -19.9419   16.3782 C   0  0  0  0  0  0  0  0  0  0  0  0
    7.3280  -13.6040   18.5755 C   0  0  2  0  0  0  0  0  0  0  0  0
    7.2819  -14.4553   19.8586 O   0  0  0  0  0  0  0  0  0  0  0  0
    6.6587  -15.6455   19.4575 C   0  0  2  0  0  0  0  0  0  0  0  0
    8.7452  -14.6976   20.1963 N   0  0  0  0  0  0  0  0  0  0  0  0
    9.1855  -15.6322   19.1407 C   0  0  0  0  0  0  0  0  0  0  0  0
    8.9656  -15.3366   21.4896 O   0  0  0  0  0  0  0  0  0  0  0  0
    9.6855  -16.3976   21.5071 N   0  0  0  0  0  0  0  0  0  0  0  0
    8.4736  -14.9182   22.7457 C   0  0  0  0  0  0  0  0  0  0  0  0
    7.5483  -13.8046   22.9965 C   0  0  0  0  0  0  0  0  0  0  0  0
    8.2014  -13.1147   24.1506 C   0  0  0  0  0  0  0  0  0  0  0  0
    8.7329  -14.2539   24.9902 C   0  0  1  0  0  0  0  0  0  0  0  0
    8.7254  -15.4648   24.0553 C   0  0  0  0  0  0  0  0  0  0  0  0
    7.5957  -16.3655   24.4177 O   0  0  0  0  0  0  0  0  0  0  0  0
    7.6650  -17.1507   25.5337 O   0  0  0  0  0  0  0  0  0  0  0  0
  2  1  1  0
  3  2  2  0
  4  2  1  0
  5  6  1  0
  5  4  1  0
  7  6  1  0
  8  7  1  0
  8  9  1  6
 10  8  1  0
 11 10  2  0
 13 12  1  1
 13 15  1  0
 14 13  1  0
 15 17  1  0
 15 16  1  1
 16 10  1  0
 17 18  2  0
 19 20  1  0
 19 17  1  0
 21 20  1  0
 22 21  1  0
 22 23  1  0
 23 19  1  0
 23 24  1  1
 24 25  1  0
 26 24  2  0
M  END
$$$$
