RTP.pdb
     RDKit          3D

 26 26  0  0  1  0  0  0  0  0999 V2000
    9.3344  -14.2785   15.5702 N   0  0  0  0  0  0  0  0  0  0  0  0
    8.4934  -13.6740   16.5260 C   0  0  0  0  0  0  0  0  0  0  0  0
    8.5312  -12.4145   16.8045 N   0  0  0  0  0  0  0  0  0  0  0  0
    7.5433  -14.5063   17.2275 N   0  0  0  0  0  0  0  0  0  0  0  0
    8.0795  -15.6786   17.9045 C   0  0  0  0  0  0  0  0  0  0  0  0
    9.1396  -15.2483   18.8784 C   0  0  0  0  0  0  0  0  0  0  0  0
    8.6123  -15.1835   20.2631 C   0  0  0  0  0  0  0  0  0  0  0  0
    8.0713  -16.4398   20.8283 C   0  0  2  0  0  0  0  0  0  0  0  0
    6.9702  -17.0394   20.1312 N   0  0  0  0  0  0  0  0  0  0  0  0
    7.5658  -16.1071   22.2121 C   0  0  0  0  0  0  0  0  0  0  0  0
    6.4481  -15.5628   22.4019 O   0  0  0  0  0  0  0  0  0  0  0  0
    7.8875  -11.9891   17.5028 C   0  0  0  0  0  0  0  0  0  0  0  0
    6.0557  -17.4838   24.1172 C   0  0  2  0  0  0  0  0  0  0  0  0
    7.1395  -17.2482   25.1863 O   0  0  0  0  0  0  0  0  0  0  0  0
    7.9581  -18.3833   25.0996 C   0  0  2  0  0  0  0  0  0  0  0  0
    7.8775  -16.0100   24.7005 N   0  0  0  0  0  0  0  0  0  0  0  0
    8.3393  -16.3989   23.3525 C   0  0  0  0  0  0  0  0  0  0  0  0
    9.0479  -15.6568   25.4973 O   0  0  0  0  0  0  0  0  0  0  0  0
   10.2001  -15.9206   25.0001 N   0  0  0  0  0  0  0  0  0  0  0  0
    9.0636  -15.0476   26.7714 C   0  0  0  0  0  0  0  0  0  0  0  0
    7.8959  -14.7387   27.6083 C   0  0  0  0  0  0  0  0  0  0  0  0
    8.1928  -13.3414   28.0486 C   0  0  0  0  0  0  0  0  0  0  0  0
    9.6859  -13.3535   28.2845 C   0  0  1  0  0  0  0  0  0  0  0  0
   10.1855  -14.6051   27.5605 C   0  0  0  0  0  0  0  0  0  0  0  0
   10.5080  -15.6619   28.5595 O   0  0  0  0  0  0  0  0  0  0  0  0
   11.6624  -15.5993   29.2876 O   0  0  0  0  0  0  0  0  0  0  0  0
  2  1  1  0
  3  2  2  0
  4  2  1  0
  5  6  1  0
  5  4  1  0
  7  6  1  0
  8  7  1  0
  8  9  1  6
 10  8  1  0
 11 10  2  0
 13 12  1  1
 13 15  1  0
 14 13  1  0
 15 17  1  0
 15 16  1  1
 16 10  1  0
 17 18  2  0
 19 20  1  0
 19 17  1  0
 21 20  1  0
 22 21  1  0
 22 23  1  0
 23 19  1  0
 23 24  1  1
 24 25  1  0
 26 24  2  0
M  END
$$$$
