RTP.pdb
     RDKit          3D

 26 26  0  0  1  0  0  0  0  0999 V2000
    8.8618  -11.9313   19.0620 N   0  0  0  0  0  0  0  0  0  0  0  0
    8.8430  -13.0905   18.2607 C   0  0  0  0  0  0  0  0  0  0  0  0
    8.9638  -13.0636   16.9761 N   0  0  0  0  0  0  0  0  0  0  0  0
    8.6802  -14.3707   18.9103 N   0  0  0  0  0  0  0  0  0  0  0  0
    8.7216  -14.3725   20.3658 C   0  0  0  0  0  0  0  0  0  0  0  0
    7.3295  -14.1950   20.9026 C   0  0  0  0  0  0  0  0  0  0  0  0
    6.5221  -15.4282   20.7396 C   0  0  0  0  0  0  0  0  0  0  0  0
    7.0427  -16.6543   21.3845 C   0  0  2  0  0  0  0  0  0  0  0  0
    6.3682  -17.8821   21.0756 N   0  0  0  0  0  0  0  0  0  0  0  0
    6.8953  -16.4533   22.8742 C   0  0  0  0  0  0  0  0  0  0  0  0
    5.8401  -15.9987   23.3856 O   0  0  0  0  0  0  0  0  0  0  0  0
    8.9984  -13.9369   16.4114 C   0  0  0  0  0  0  0  0  0  0  0  0
    6.0054  -18.0833   24.8847 C   0  0  2  0  0  0  0  0  0  0  0  0
    7.2684  -17.8411   25.7328 O   0  0  0  0  0  0  0  0  0  0  0  0
    8.1133  -18.9099   25.4014 C   0  0  2  0  0  0  0  0  0  0  0  0
    7.8243  -16.5275   25.2045 N   0  0  0  0  0  0  0  0  0  0  0  0
    7.9486  -16.7724   23.7531 C   0  0  0  0  0  0  0  0  0  0  0  0
    9.1445  -16.1824   25.7215 O   0  0  0  0  0  0  0  0  0  0  0  0
   10.1626  -16.6158   25.0734 N   0  0  0  0  0  0  0  0  0  0  0  0
    9.4400  -15.4138   26.8691 C   0  0  0  0  0  0  0  0  0  0  0  0
    8.4709  -14.7429   27.7465 C   0  0  0  0  0  0  0  0  0  0  0  0
    9.0920  -13.3941   27.9180 C   0  0  0  0  0  0  0  0  0  0  0  0
   10.5705  -13.6941   28.0141 C   0  0  1  0  0  0  0  0  0  0  0  0
   10.7171  -15.1150   27.4665 C   0  0  0  0  0  0  0  0  0  0  0  0
   10.9456  -16.0612   28.5940 O   0  0  0  0  0  0  0  0  0  0  0  0
    9.9926  -16.9797   28.9328 O   0  0  0  0  0  0  0  0  0  0  0  0
  2  1  1  0
  3  2  2  0
  4  2  1  0
  5  6  1  0
  5  4  1  0
  7  6  1  0
  8  7  1  0
  8  9  1  6
 10  8  1  0
 11 10  2  0
 13 12  1  1
 13 15  1  0
 14 13  1  0
 15 17  1  0
 15 16  1  1
 16 10  1  0
 17 18  2  0
 19 20  1  0
 19 17  1  0
 21 20  1  0
 22 21  1  0
 22 23  1  0
 23 19  1  0
 23 24  1  1
 24 25  1  0
 26 24  2  0
M  END
$$$$
