RTP.pdb
     RDKit          3D

 26 26  0  0  1  0  0  0  0  0999 V2000
    8.8000  -10.9647   19.0750 N   0  0  0  0  0  0  0  0  0  0  0  0
    8.6746  -12.2080   18.4233 C   0  0  0  0  0  0  0  0  0  0  0  0
    9.4124  -12.5600   17.4247 N   0  0  0  0  0  0  0  0  0  0  0  0
    7.6704  -13.1325   18.8971 N   0  0  0  0  0  0  0  0  0  0  0  0
    7.5641  -14.3991   18.1869 C   0  0  0  0  0  0  0  0  0  0  0  0
    7.5490  -15.5261   19.1805 C   0  0  0  0  0  0  0  0  0  0  0  0
    8.7572  -15.5095   20.0404 C   0  0  0  0  0  0  0  0  0  0  0  0
    8.8832  -16.6012   21.0316 C   0  0  2  0  0  0  0  0  0  0  0  0
    8.4551  -17.9049   20.6135 N   0  0  0  0  0  0  0  0  0  0  0  0
    8.0075  -16.2232   22.2027 C   0  0  0  0  0  0  0  0  0  0  0  0
    7.0351  -15.4347   22.0824 O   0  0  0  0  0  0  0  0  0  0  0  0
    9.2834  -13.4742   16.9445 C   0  0  0  0  0  0  0  0  0  0  0  0
    6.1341  -18.1789   24.2729 C   0  0  2  0  0  0  0  0  0  0  0  0
    7.0237  -17.5109   25.3385 O   0  0  0  0  0  0  0  0  0  0  0  0
    8.0745  -18.4201   25.5260 C   0  0  2  0  0  0  0  0  0  0  0  0
    7.5204  -16.2409   24.6646 N   0  0  0  0  0  0  0  0  0  0  0  0
    8.2532  -16.7477   23.4865 C   0  0  0  0  0  0  0  0  0  0  0  0
    8.4473  -15.4550   25.4725 O   0  0  0  0  0  0  0  0  0  0  0  0
    9.6796  -15.4505   25.1179 N   0  0  0  0  0  0  0  0  0  0  0  0
    8.1440  -14.6846   26.6167 C   0  0  0  0  0  0  0  0  0  0  0  0
    6.8402  -14.5903   27.2879 C   0  0  0  0  0  0  0  0  0  0  0  0
    6.7075  -13.1164   27.4986 C   0  0  0  0  0  0  0  0  0  0  0  0
    8.1108  -12.6811   27.8543 C   0  0  1  0  0  0  0  0  0  0  0  0
    9.0044  -13.8386   27.4048 C   0  0  0  0  0  0  0  0  0  0  0  0
    9.4606  -14.6063   28.5969 O   0  0  0  0  0  0  0  0  0  0  0  0
   10.4203  -14.0965   29.4249 O   0  0  0  0  0  0  0  0  0  0  0  0
  2  1  1  0
  3  2  2  0
  4  2  1  0
  5  6  1  0
  5  4  1  0
  7  6  1  0
  8  7  1  0
  8  9  1  6
 10  8  1  0
 11 10  2  0
 13 12  1  1
 13 15  1  0
 14 13  1  0
 15 17  1  0
 15 16  1  1
 16 10  1  0
 17 18  2  0
 19 20  1  0
 19 17  1  0
 21 20  1  0
 22 21  1  0
 22 23  1  0
 23 19  1  0
 23 24  1  1
 24 25  1  0
 26 24  2  0
M  END
$$$$
