RTP.pdb
     RDKit          3D

 26 26  0  0  1  0  0  0  0  0999 V2000
    8.6455  -12.8136   17.7068 N   0  0  0  0  0  0  0  0  0  0  0  0
    8.5534  -13.6281   16.5603 C   0  0  0  0  0  0  0  0  0  0  0  0
    7.9929  -13.2433   15.4634 N   0  0  0  0  0  0  0  0  0  0  0  0
    9.1141  -14.9584   16.6173 N   0  0  0  0  0  0  0  0  0  0  0  0
    9.5636  -15.4205   17.9229 C   0  0  0  0  0  0  0  0  0  0  0  0
    8.3793  -15.5514   18.8383 C   0  0  0  0  0  0  0  0  0  0  0  0
    8.7798  -16.0426   20.1791 C   0  0  0  0  0  0  0  0  0  0  0  0
    7.9566  -17.1241   20.7646 C   0  0  2  0  0  0  0  0  0  0  0  0
    6.8825  -17.6265   19.9572 N   0  0  0  0  0  0  0  0  0  0  0  0
    7.3196  -16.5547   22.0101 C   0  0  0  0  0  0  0  0  0  0  0  0
    6.1802  -16.0226   21.9941 O   0  0  0  0  0  0  0  0  0  0  0  0
    7.9551  -13.8570   14.6238 C   0  0  0  0  0  0  0  0  0  0  0  0
    6.1237  -18.2123   24.1556 C   0  0  2  0  0  0  0  0  0  0  0  0
    6.9671  -17.4434   25.1902 O   0  0  0  0  0  0  0  0  0  0  0  0
    8.1046  -18.2439   25.3675 C   0  0  2  0  0  0  0  0  0  0  0  0
    7.3244  -16.1434   24.4859 N   0  0  0  0  0  0  0  0  0  0  0  0
    7.9889  -16.6008   23.2485 C   0  0  0  0  0  0  0  0  0  0  0  0
    8.2623  -15.3002   25.2200 O   0  0  0  0  0  0  0  0  0  0  0  0
    9.4907  -15.3281   24.8532 N   0  0  0  0  0  0  0  0  0  0  0  0
    7.9736  -14.4415   26.3036 C   0  0  0  0  0  0  0  0  0  0  0  0
    6.6518  -14.1939   26.8960 C   0  0  0  0  0  0  0  0  0  0  0  0
    6.6439  -12.7044   27.0211 C   0  0  0  0  0  0  0  0  0  0  0  0
    8.0614  -12.3753   27.4302 C   0  0  1  0  0  0  0  0  0  0  0  0
    8.8671  -13.6311   27.0923 C   0  0  0  0  0  0  0  0  0  0  0  0
    9.1908  -14.3665   28.3465 O   0  0  0  0  0  0  0  0  0  0  0  0
    8.5734  -15.5505   28.6356 O   0  0  0  0  0  0  0  0  0  0  0  0
  2  1  1  0
  3  2  2  0
  4  2  1  0
  5  6  1  0
  5  4  1  0
  7  6  1  0
  8  7  1  0
  8  9  1  6
 10  8  1  0
 11 10  2  0
 13 12  1  1
 13 15  1  0
 14 13  1  0
 15 17  1  0
 15 16  1  1
 16 10  1  0
 17 18  2  0
 19 20  1  0
 19 17  1  0
 21 20  1  0
 22 21  1  0
 22 23  1  0
 23 19  1  0
 23 24  1  1
 24 25  1  0
 26 24  2  0
M  END
$$$$
