RTP.pdb
     RDKit          3D

 26 26  0  0  1  0  0  0  0  0999 V2000
    8.1189  -11.2577   18.9278 N   0  0  0  0  0  0  0  0  0  0  0  0
    7.6888  -12.3574   18.1584 C   0  0  0  0  0  0  0  0  0  0  0  0
    6.6590  -13.0732   18.4627 N   0  0  0  0  0  0  0  0  0  0  0  0
    8.4385  -12.6991   16.9715 N   0  0  0  0  0  0  0  0  0  0  0  0
    7.8377  -13.6834   16.0824 C   0  0  0  0  0  0  0  0  0  0  0  0
    8.5802  -14.9837   16.2069 C   0  0  0  0  0  0  0  0  0  0  0  0
    8.1265  -15.7585   17.3873 C   0  0  0  0  0  0  0  0  0  0  0  0
    8.7045  -17.1101   17.5581 C   0  0  2  0  0  0  0  0  0  0  0  0
    8.2351  -18.1302   16.6654 N   0  0  0  0  0  0  0  0  0  0  0  0
    8.3357  -17.5636   18.9507 C   0  0  0  0  0  0  0  0  0  0  0  0
    7.1396  -17.6611   19.3266 O   0  0  0  0  0  0  0  0  0  0  0  0
    6.4020  -13.9216   17.9177 C   0  0  0  0  0  0  0  0  0  0  0  0
    8.5607  -20.3761   20.3171 C   0  0  2  0  0  0  0  0  0  0  0  0
    9.3613  -19.6721   21.4291 O   0  0  0  0  0  0  0  0  0  0  0  0
   10.7007  -19.8764   21.0683 C   0  0  2  0  0  0  0  0  0  0  0  0
    8.9806  -18.2060   21.2896 N   0  0  0  0  0  0  0  0  0  0  0  0
    9.3322  -17.8973   19.8886 C   0  0  0  0  0  0  0  0  0  0  0  0
    9.7332  -17.3046   22.1559 O   0  0  0  0  0  0  0  0  0  0  0  0
   10.8419  -16.8440   21.7055 N   0  0  0  0  0  0  0  0  0  0  0  0
    9.3797  -16.8704   23.4526 C   0  0  0  0  0  0  0  0  0  0  0  0
    8.1526  -17.2114   24.1856 C   0  0  0  0  0  0  0  0  0  0  0  0
    7.7306  -15.8796   24.7173 C   0  0  0  0  0  0  0  0  0  0  0  0
    9.0364  -15.2190   25.0962 C   0  0  1  0  0  0  0  0  0  0  0  0
   10.1099  -16.0286   24.3666 C   0  0  0  0  0  0  0  0  0  0  0  0
   10.8256  -16.8978   25.3419 O   0  0  0  0  0  0  0  0  0  0  0  0
   11.8748  -16.4087   26.0674 O   0  0  0  0  0  0  0  0  0  0  0  0
  2  1  1  0
  3  2  2  0
  4  2  1  0
  5  6  1  0
  5  4  1  0
  7  6  1  0
  8  7  1  0
  8  9  1  6
 10  8  1  0
 11 10  2  0
 13 12  1  1
 13 15  1  0
 14 13  1  0
 15 17  1  0
 15 16  1  1
 16 10  1  0
 17 18  2  0
 19 20  1  0
 19 17  1  0
 21 20  1  0
 22 21  1  0
 22 23  1  0
 23 19  1  0
 23 24  1  1
 24 25  1  0
 26 24  2  0
M  END
$$$$
