EPM.pdb
     RDKit          3D

 25 25  0  0  1  0  0  0  0  0999 V2000
    9.5979  -14.1526   17.7581 N   0  0  0  0  0  0  0  0  0  0  0  0
   10.0304  -15.0967   18.7339 C   0  0  1  0  0  0  0  0  0  0  0  0
   11.4597  -14.7648   19.0638 C   0  0  0  0  0  0  0  0  0  0  0  0
   12.4312  -14.8802   17.9350 C   0  0  0  0  0  0  0  0  0  0  0  0
   13.8306  -14.6449   18.3490 C   0  0  0  0  0  0  0  0  0  0  0  0
   14.1645  -14.2935   19.4977 O   0  0  0  0  0  0  0  0  0  0  0  0
    9.2376  -15.2104   19.9591 C   0  0  0  0  0  0  0  0  0  0  0  0
    9.0780  -14.0907   20.5856 O   0  0  0  0  0  0  0  0  0  0  0  0
   14.8914  -14.8109   17.4382 O   0  0  0  0  0  0  0  0  0  0  0  0
    8.6537  -16.3622   20.5066 N   0  0  0  0  0  0  0  0  0  0  0  0
    7.9814  -17.4384   19.7316 C   0  0  0  0  0  0  0  0  0  0  0  0
    8.8655  -18.6017   20.1886 C   0  0  0  0  0  0  0  0  0  0  0  0
    9.1530  -18.2582   21.6581 C   0  0  0  0  0  0  0  0  0  0  0  0
    8.4702  -16.8894   21.8272 C   0  0  1  0  0  0  0  0  0  0  0  0
    8.9419  -16.1783   22.9829 C   0  0  0  0  0  0  0  0  0  0  0  0
   10.1129  -15.9761   23.3884 O   0  0  0  0  0  0  0  0  0  0  0  0
    5.6436  -11.6690   28.3586 C   0  0  0  0  0  0  0  0  0  0  0  0
    6.2480  -11.6349   26.6721 S   0  0  0  0  0  0  0  0  0  0  0  0
    7.5273  -12.9429   26.4805 C   0  0  0  0  0  0  0  0  0  0  0  0
    7.2805  -13.6967   25.2088 C   0  0  0  0  0  0  0  0  0  0  0  0
    8.2828  -14.7631   24.9910 C   0  0  2  0  0  0  0  0  0  0  0  0
    7.9437  -15.5904   23.8356 N   0  0  0  0  0  0  0  0  0  0  0  0
    8.4683  -15.6035   26.1839 C   0  0  0  0  0  0  0  0  0  0  0  0
    9.4142  -15.2240   27.1713 O   0  0  0  0  0  0  0  0  0  0  0  0
    7.8622  -16.6639   26.4439 O   0  0  0  0  0  0  0  0  0  0  0  0
  2  1  1  6
  2  7  1  0
  3  2  1  0
  4  3  1  0
  5  4  1  0
  6  5  2  0
  7  8  2  0
  7 10  1  0
  9  5  1  0
 10 14  1  0
 11 10  1  0
 11 12  1  0
 12 13  1  0
 14 15  1  1
 14 13  1  0
 15 16  2  0
 18 17  1  0
 19 18  1  0
 20 19  1  0
 21 20  1  1
 22 21  1  0
 22 15  1  0
 23 24  1  0
 23 21  1  0
 25 23  2  0
M  END
$$$$
