EPM.pdb
     RDKit          3D

 25 25  0  0  1  0  0  0  0  0999 V2000
   11.3262  -16.8418   18.8630 N   0  0  0  0  0  0  0  0  0  0  0  0
   10.0486  -16.9445   19.4856 C   0  0  1  0  0  0  0  0  0  0  0  0
    9.8308  -18.3978   19.8054 C   0  0  0  0  0  0  0  0  0  0  0  0
   11.0614  -19.1888   20.1072 C   0  0  0  0  0  0  0  0  0  0  0  0
   10.9645  -19.9516   21.3696 C   0  0  0  0  0  0  0  0  0  0  0  0
    9.9913  -19.8868   22.1464 O   0  0  0  0  0  0  0  0  0  0  0  0
    9.8086  -16.1201   20.6710 C   0  0  0  0  0  0  0  0  0  0  0  0
   10.8249  -16.0373   21.4660 O   0  0  0  0  0  0  0  0  0  0  0  0
   11.9990  -20.8178   21.7720 O   0  0  0  0  0  0  0  0  0  0  0  0
    8.6367  -15.4351   21.0243 N   0  0  0  0  0  0  0  0  0  0  0  0
    7.7985  -14.6283   20.0982 C   0  0  0  0  0  0  0  0  0  0  0  0
    6.4886  -15.3982   20.2856 C   0  0  0  0  0  0  0  0  0  0  0  0
    6.5169  -15.7669   21.7767 C   0  0  0  0  0  0  0  0  0  0  0  0
    7.8888  -15.2387   22.2316 C   0  0  1  0  0  0  0  0  0  0  0  0
    8.3177  -15.8195   23.4736 C   0  0  0  0  0  0  0  0  0  0  0  0
    8.5301  -17.0192   23.7770 O   0  0  0  0  0  0  0  0  0  0  0  0
   10.3651  -14.2173   30.8718 C   0  0  0  0  0  0  0  0  0  0  0  0
   10.2547  -13.6847   29.1644 S   0  0  0  0  0  0  0  0  0  0  0  0
    9.0223  -14.7409   28.2986 C   0  0  0  0  0  0  0  0  0  0  0  0
    8.8594  -14.2601   26.8884 C   0  0  0  0  0  0  0  0  0  0  0  0
    8.8730  -15.3750   25.9157 C   0  0  2  0  0  0  0  0  0  0  0  0
    8.5510  -14.9146   24.5671 N   0  0  0  0  0  0  0  0  0  0  0  0
    7.9716  -16.4683   26.3107 C   0  0  0  0  0  0  0  0  0  0  0  0
    6.6532  -16.5162   25.7881 O   0  0  0  0  0  0  0  0  0  0  0  0
    8.2422  -17.4057   27.0901 O   0  0  0  0  0  0  0  0  0  0  0  0
  2  1  1  1
  2  7  1  0
  3  2  1  0
  4  3  1  0
  5  4  1  0
  6  5  2  0
  7  8  2  0
  7 10  1  0
  9  5  1  0
 10 14  1  0
 11 10  1  0
 11 12  1  0
 12 13  1  0
 14 15  1  1
 14 13  1  0
 15 16  2  0
 18 17  1  0
 19 18  1  0
 20 19  1  0
 21 20  1  1
 22 21  1  0
 22 15  1  0
 23 24  1  0
 23 21  1  0
 25 23  2  0
M  END
$$$$
