EPM.pdb
     RDKit          3D

 25 25  0  0  1  0  0  0  0  0999 V2000
   10.7737  -16.7178   18.2654 N   0  0  0  0  0  0  0  0  0  0  0  0
    9.7366  -17.0243   19.1933 C   0  0  1  0  0  0  0  0  0  0  0  0
    9.8207  -18.4991   19.4756 C   0  0  0  0  0  0  0  0  0  0  0  0
   11.0584  -18.9577   20.1749 C   0  0  0  0  0  0  0  0  0  0  0  0
   10.7818  -19.8778   21.2982 C   0  0  0  0  0  0  0  0  0  0  0  0
    9.6344  -20.1964   21.6676 O   0  0  0  0  0  0  0  0  0  0  0  0
    9.7069  -16.2664   20.4451 C   0  0  0  0  0  0  0  0  0  0  0  0
   10.8245  -16.2843   21.0950 O   0  0  0  0  0  0  0  0  0  0  0  0
   11.8334  -20.4596   22.0317 O   0  0  0  0  0  0  0  0  0  0  0  0
    8.6347  -15.5489   20.9956 N   0  0  0  0  0  0  0  0  0  0  0  0
    7.6590  -14.7329   20.2256 C   0  0  0  0  0  0  0  0  0  0  0  0
    6.3890  -15.4683   20.6614 C   0  0  0  0  0  0  0  0  0  0  0  0
    6.6817  -15.8201   22.1280 C   0  0  0  0  0  0  0  0  0  0  0  0
    8.1249  -15.3202   22.3160 C   0  0  1  0  0  0  0  0  0  0  0  0
    8.7611  -15.8967   23.4678 C   0  0  0  0  0  0  0  0  0  0  0  0
    9.0663  -17.0896   23.7135 O   0  0  0  0  0  0  0  0  0  0  0  0
   11.2468  -13.8678   30.6844 C   0  0  0  0  0  0  0  0  0  0  0  0
   10.1009  -13.4921   29.3589 S   0  0  0  0  0  0  0  0  0  0  0  0
   10.1018  -14.8936   28.1674 C   0  0  0  0  0  0  0  0  0  0  0  0
    9.5314  -14.4343   26.8597 C   0  0  0  0  0  0  0  0  0  0  0  0
    9.6760  -15.4568   25.8001 C   0  0  2  0  0  0  0  0  0  0  0  0
    9.1207  -14.9956   24.5299 N   0  0  0  0  0  0  0  0  0  0  0  0
    9.0745  -16.7433   26.1833 C   0  0  0  0  0  0  0  0  0  0  0  0
    7.7135  -17.0023   25.8763 O   0  0  0  0  0  0  0  0  0  0  0  0
    9.6477  -17.6811   26.7760 O   0  0  0  0  0  0  0  0  0  0  0  0
  2  1  1  6
  2  7  1  0
  3  2  1  0
  4  3  1  0
  5  4  1  0
  6  5  2  0
  7  8  2  0
  7 10  1  0
  9  5  1  0
 10 14  1  0
 11 10  1  0
 11 12  1  0
 12 13  1  0
 14 15  1  1
 14 13  1  0
 15 16  2  0
 18 17  1  0
 19 18  1  0
 20 19  1  0
 21 20  1  1
 22 21  1  0
 22 15  1  0
 23 24  1  0
 23 21  1  0
 25 23  2  0
M  END
$$$$
