EPM.pdb
     RDKit          3D

 25 25  0  0  1  0  0  0  0  0999 V2000
   10.8267  -16.2815   17.9960 N   0  0  0  0  0  0  0  0  0  0  0  0
    9.8282  -16.8095   18.8647 C   0  0  1  0  0  0  0  0  0  0  0  0
   10.1680  -18.2559   19.0975 C   0  0  0  0  0  0  0  0  0  0  0  0
   11.6093  -18.6178   18.9462 C   0  0  0  0  0  0  0  0  0  0  0  0
   12.1427  -19.3676   20.1030 C   0  0  0  0  0  0  0  0  0  0  0  0
   11.8700  -20.5605   20.3421 O   0  0  0  0  0  0  0  0  0  0  0  0
    9.6142  -16.1244   20.1403 C   0  0  0  0  0  0  0  0  0  0  0  0
   10.6965  -15.9374   20.8226 O   0  0  0  0  0  0  0  0  0  0  0  0
   13.0136  -18.7534   21.0231 O   0  0  0  0  0  0  0  0  0  0  0  0
    8.4046  -15.6656   20.6825 N   0  0  0  0  0  0  0  0  0  0  0  0
    7.2979  -15.0399   19.9115 C   0  0  0  0  0  0  0  0  0  0  0  0
    6.1990  -16.0381   20.2853 C   0  0  0  0  0  0  0  0  0  0  0  0
    6.5262  -16.3778   21.7474 C   0  0  0  0  0  0  0  0  0  0  0  0
    7.8297  -15.5981   21.9942 C   0  0  1  0  0  0  0  0  0  0  0  0
    8.5464  -16.0743   23.1445 C   0  0  0  0  0  0  0  0  0  0  0  0
    9.0703  -17.1934   23.3673 O   0  0  0  0  0  0  0  0  0  0  0  0
   11.4518  -13.5016   30.0486 C   0  0  0  0  0  0  0  0  0  0  0  0
   10.2361  -13.2239   28.7618 S   0  0  0  0  0  0  0  0  0  0  0  0
   10.1832  -14.7069   27.6745 C   0  0  0  0  0  0  0  0  0  0  0  0
    9.3876  -14.3924   26.4439 C   0  0  0  0  0  0  0  0  0  0  0  0
    9.4062  -15.5061   25.4700 C   0  0  2  0  0  0  0  0  0  0  0  0
    8.7103  -15.1512   24.2354 N   0  0  0  0  0  0  0  0  0  0  0  0
    8.8484  -16.7456   26.0323 C   0  0  0  0  0  0  0  0  0  0  0  0
    7.4640  -17.0221   25.8888 O   0  0  0  0  0  0  0  0  0  0  0  0
    9.4797  -17.6272   26.6516 O   0  0  0  0  0  0  0  0  0  0  0  0
  2  1  1  1
  2  7  1  0
  3  2  1  0
  4  3  1  0
  5  4  1  0
  6  5  2  0
  7  8  2  0
  7 10  1  0
  9  5  1  0
 10 14  1  0
 11 10  1  0
 11 12  1  0
 12 13  1  0
 14 15  1  1
 14 13  1  0
 15 16  2  0
 18 17  1  0
 19 18  1  0
 20 19  1  0
 21 20  1  1
 22 21  1  0
 22 15  1  0
 23 24  1  0
 23 21  1  0
 25 23  2  0
M  END
$$$$
