EPM.pdb
     RDKit          3D

 25 25  0  0  1  0  0  0  0  0999 V2000
   12.9940  -14.2249   18.6072 N   0  0  0  0  0  0  0  0  0  0  0  0
   11.5747  -14.3509   18.6252 C   0  0  1  0  0  0  0  0  0  0  0  0
   11.2321  -15.5798   17.8288 C   0  0  0  0  0  0  0  0  0  0  0  0
   11.2924  -16.8740   18.5722 C   0  0  0  0  0  0  0  0  0  0  0  0
   10.7984  -18.0203   17.7804 C   0  0  0  0  0  0  0  0  0  0  0  0
   10.3748  -17.9249   16.6115 O   0  0  0  0  0  0  0  0  0  0  0  0
   10.9185  -14.3913   19.9329 C   0  0  0  0  0  0  0  0  0  0  0  0
   11.5646  -15.0718   20.8224 O   0  0  0  0  0  0  0  0  0  0  0  0
   10.7802  -19.3194   18.3229 O   0  0  0  0  0  0  0  0  0  0  0  0
    9.7075  -13.7929   20.3108 N   0  0  0  0  0  0  0  0  0  0  0  0
    9.1485  -12.5416   19.7342 C   0  0  0  0  0  0  0  0  0  0  0  0
    7.8208  -13.1207   19.2385 C   0  0  0  0  0  0  0  0  0  0  0  0
    7.4602  -14.1381   20.3316 C   0  0  0  0  0  0  0  0  0  0  0  0
    8.6792  -14.0767   21.2689 C   0  0  1  0  0  0  0  0  0  0  0  0
    8.7658  -15.2198   22.1345 C   0  0  0  0  0  0  0  0  0  0  0  0
    8.7832  -16.4450   21.8604 O   0  0  0  0  0  0  0  0  0  0  0  0
    8.7501  -13.3204   29.2231 C   0  0  0  0  0  0  0  0  0  0  0  0
    9.8039  -14.3027   28.1575 S   0  0  0  0  0  0  0  0  0  0  0  0
    8.8730  -14.7079   26.6234 C   0  0  0  0  0  0  0  0  0  0  0  0
    9.7285  -15.5571   25.7329 C   0  0  0  0  0  0  0  0  0  0  0  0
    8.9937  -16.0245   24.5367 C   0  0  2  0  0  0  0  0  0  0  0  0
    8.8470  -14.9599   23.5470 N   0  0  0  0  0  0  0  0  0  0  0  0
    7.6790  -16.5894   24.8776 C   0  0  0  0  0  0  0  0  0  0  0  0
    7.6033  -17.8146   25.5896 O   0  0  0  0  0  0  0  0  0  0  0  0
    6.5664  -16.0944   24.6012 O   0  0  0  0  0  0  0  0  0  0  0  0
  2  1  1  1
  2  7  1  0
  3  2  1  0
  4  3  1  0
  5  4  1  0
  6  5  2  0
  7  8  2  0
  7 10  1  0
  9  5  1  0
 10 14  1  0
 11 10  1  0
 11 12  1  0
 12 13  1  0
 14 15  1  6
 14 13  1  0
 15 16  2  0
 18 17  1  0
 19 18  1  0
 20 19  1  0
 21 20  1  1
 22 21  1  0
 22 15  1  0
 23 24  1  0
 23 21  1  0
 25 23  2  0
M  END
$$$$
