EPM.pdb
     RDKit          3D

 25 25  0  0  1  0  0  0  0  0999 V2000
   10.5652  -16.8951   17.6098 N   0  0  0  0  0  0  0  0  0  0  0  0
    9.4118  -16.3744   18.2648 C   0  0  1  0  0  0  0  0  0  0  0  0
    8.4159  -17.4972   18.3608 C   0  0  0  0  0  0  0  0  0  0  0  0
    8.8257  -18.6595   19.2049 C   0  0  0  0  0  0  0  0  0  0  0  0
    7.7740  -19.6918   19.3190 C   0  0  0  0  0  0  0  0  0  0  0  0
    6.6705  -19.6247   18.7424 O   0  0  0  0  0  0  0  0  0  0  0  0
    9.6049  -15.7508   19.5749 C   0  0  0  0  0  0  0  0  0  0  0  0
   10.5995  -16.2354   20.2441 O   0  0  0  0  0  0  0  0  0  0  0  0
    7.9708  -20.8399   20.1098 O   0  0  0  0  0  0  0  0  0  0  0  0
    8.8539  -14.7214   20.1610 N   0  0  0  0  0  0  0  0  0  0  0  0
    8.3421  -13.5183   19.4528 C   0  0  0  0  0  0  0  0  0  0  0  0
    6.8539  -13.7272   19.7451 C   0  0  0  0  0  0  0  0  0  0  0  0
    6.8608  -14.2997   21.1707 C   0  0  0  0  0  0  0  0  0  0  0  0
    8.3631  -14.4322   21.4767 C   0  0  1  0  0  0  0  0  0  0  0  0
    8.6243  -15.3170   22.5778 C   0  0  0  0  0  0  0  0  0  0  0  0
    8.2005  -16.4771   22.8040 O   0  0  0  0  0  0  0  0  0  0  0  0
   10.7470  -13.6106   29.4834 C   0  0  0  0  0  0  0  0  0  0  0  0
    9.1809  -13.9196   28.6693 S   0  0  0  0  0  0  0  0  0  0  0  0
    9.4406  -15.1819   27.3566 C   0  0  0  0  0  0  0  0  0  0  0  0
    9.3650  -14.5234   26.0123 C   0  0  0  0  0  0  0  0  0  0  0  0
    9.6251  -15.4764   24.9109 C   0  0  2  0  0  0  0  0  0  0  0  0
    9.5072  -14.8324   23.6048 N   0  0  0  0  0  0  0  0  0  0  0  0
    8.7501  -16.6568   24.9789 C   0  0  0  0  0  0  0  0  0  0  0  0
    7.5481  -16.6855   24.2251 O   0  0  0  0  0  0  0  0  0  0  0  0
    8.9491  -17.6879   25.6547 O   0  0  0  0  0  0  0  0  0  0  0  0
  2  1  1  1
  2  7  1  0
  3  2  1  0
  4  3  1  0
  5  4  1  0
  6  5  2  0
  7  8  2  0
  7 10  1  0
  9  5  1  0
 10 14  1  0
 11 10  1  0
 11 12  1  0
 12 13  1  0
 14 15  1  1
 14 13  1  0
 15 16  2  0
 18 17  1  0
 19 18  1  0
 20 19  1  0
 21 20  1  1
 22 21  1  0
 22 15  1  0
 23 24  1  0
 23 21  1  0
 25 23  2  0
M  END
$$$$
