ALG.pdb
     RDKit          3D

 18 17  0  0  1  0  0  0  0  0999 V2000
    9.3884  -19.4106   18.6700 C   0  0  0  0  0  0  0  0  0  0  0  0
    9.3254  -18.1373   17.8529 C   0  0  2  0  0  0  0  0  0  0  0  0
   10.0147  -18.2788   16.5869 N   0  0  0  0  0  0  0  0  0  0  0  0
   10.0090  -17.0722   18.6405 C   0  0  0  0  0  0  0  0  0  0  0  0
   11.2217  -16.8347   18.4996 O   0  0  0  0  0  0  0  0  0  0  0  0
    8.9156  -12.4658   19.1023 C   0  0  0  0  0  0  0  0  0  0  0  0
    7.9935  -13.5294   19.7472 C   0  0  2  0  0  0  0  0  0  0  0  0
    6.8304  -12.7451   20.3184 C   0  0  0  0  0  0  0  0  0  0  0  0
    8.7552  -14.2533   20.8381 C   0  0  0  0  0  0  0  0  0  0  0  0
    9.7830  -15.2206   20.3081 C   0  0  2  0  0  0  0  0  0  0  0  0
    9.2849  -16.3108   19.5656 N   0  0  0  0  0  0  0  0  0  0  0  0
   10.4968  -15.7642   21.4796 C   0  0  0  0  0  0  0  0  0  0  0  0
    9.8557  -16.3983   22.3495 O   0  0  0  0  0  0  0  0  0  0  0  0
   11.9041  -15.5961   21.6657 N   0  0  0  0  0  0  0  0  0  0  0  0
   12.5657  -16.2003   22.7787 C   0  0  0  0  0  0  0  0  0  0  0  0
   14.0360  -15.9485   22.7294 C   0  0  0  0  0  0  0  0  0  0  0  0
   14.6135  -15.3344   21.6316 O   0  0  0  0  0  0  0  0  0  0  0  0
   14.7429  -16.3024   23.6997 O   0  0  0  0  0  0  0  0  0  0  0  0
  2  3  1  0
  2  1  1  1
  4  2  1  0
  5  4  2  0
  7  6  1  1
  7  8  1  0
  9  7  1  0
 10  9  1  1
 10 12  1  0
 10 11  1  0
 11  4  1  0
 12 14  1  0
 13 12  2  0
 14 15  1  0
 15 16  1  0
 16 18  2  0
 16 17  1  0
M  END
$$$$
