ALG.pdb
     RDKit          3D

 18 17  0  0  1  0  0  0  0  0999 V2000
    7.0304  -19.4779   24.0373 C   0  0  0  0  0  0  0  0  0  0  0  0
    6.0874  -18.2974   24.1393 C   0  0  2  0  0  0  0  0  0  0  0  0
    5.1411  -18.2718   23.0430 N   0  0  0  0  0  0  0  0  0  0  0  0
    6.9174  -17.0612   24.0691 C   0  0  0  0  0  0  0  0  0  0  0  0
    7.5281  -16.7447   23.0329 O   0  0  0  0  0  0  0  0  0  0  0  0
    6.9086  -12.1107   24.8397 C   0  0  0  0  0  0  0  0  0  0  0  0
    6.2922  -13.0025   25.9453 C   0  0  2  0  0  0  0  0  0  0  0  0
    5.9939  -12.0570   27.0904 C   0  0  0  0  0  0  0  0  0  0  0  0
    7.2996  -14.0575   26.3533 C   0  0  0  0  0  0  0  0  0  0  0  0
    7.6874  -14.9808   25.2264 C   0  0  2  0  0  0  0  0  0  0  0  0
    7.0238  -16.2243   25.1862 N   0  0  0  0  0  0  0  0  0  0  0  0
    9.1311  -15.2471   25.3748 C   0  0  0  0  0  0  0  0  0  0  0  0
    9.9318  -14.2845   25.4198 O   0  0  0  0  0  0  0  0  0  0  0  0
    9.6603  -16.5716   25.4706 N   0  0  0  0  0  0  0  0  0  0  0  0
   11.0665  -16.7823   25.6103 C   0  0  0  0  0  0  0  0  0  0  0  0
   11.3713  -18.2235   25.8505 C   0  0  0  0  0  0  0  0  0  0  0  0
   12.6202  -18.6190   26.2972 O   0  0  0  0  0  0  0  0  0  0  0  0
   10.4769  -19.0737   25.6411 O   0  0  0  0  0  0  0  0  0  0  0  0
  2  3  1  0
  2  1  1  6
  4  2  1  0
  5  4  2  0
  7  6  1  6
  7  8  1  0
  9  7  1  0
 10  9  1  1
 10 12  1  0
 10 11  1  0
 11  4  1  0
 12 14  1  0
 13 12  2  0
 14 15  1  0
 15 16  1  0
 16 18  2  0
 16 17  1  0
M  END
$$$$
