ALG.pdb
     RDKit          3D

 18 17  0  0  1  0  0  0  0  0999 V2000
    7.3038  -16.5270   21.2619 C   0  0  0  0  0  0  0  0  0  0  0  0
    7.0822  -15.0387   21.4320 C   0  0  2  0  0  0  0  0  0  0  0  0
    7.5126  -14.2965   20.2649 N   0  0  0  0  0  0  0  0  0  0  0  0
    7.9050  -14.5993   22.5948 C   0  0  0  0  0  0  0  0  0  0  0  0
    9.1128  -14.3287   22.4729 O   0  0  0  0  0  0  0  0  0  0  0  0
    7.5724  -11.0373   25.7145 C   0  0  0  0  0  0  0  0  0  0  0  0
    6.4439  -12.0967   25.7571 C   0  0  2  0  0  0  0  0  0  0  0  0
    5.5046  -11.6250   26.8478 C   0  0  0  0  0  0  0  0  0  0  0  0
    7.0413  -13.4473   26.0941 C   0  0  0  0  0  0  0  0  0  0  0  0
    7.9528  -13.9823   25.0191 C   0  0  2  0  0  0  0  0  0  0  0  0
    7.3214  -14.4825   23.8619 N   0  0  0  0  0  0  0  0  0  0  0  0
    8.7194  -15.0878   25.6254 C   0  0  0  0  0  0  0  0  0  0  0  0
    9.3068  -14.9019   26.7163 O   0  0  0  0  0  0  0  0  0  0  0  0
    8.8210  -16.3759   25.0138 N   0  0  0  0  0  0  0  0  0  0  0  0
    9.5488  -17.4265   25.6526 C   0  0  0  0  0  0  0  0  0  0  0  0
   10.9456  -17.5040   25.1325 C   0  0  0  0  0  0  0  0  0  0  0  0
   11.8241  -18.4654   25.6011 O   0  0  0  0  0  0  0  0  0  0  0  0
   11.3131  -16.6830   24.2621 O   0  0  0  0  0  0  0  0  0  0  0  0
  2  3  1  0
  2  1  1  6
  4  2  1  0
  5  4  2  0
  7  6  1  1
  7  8  1  0
  9  7  1  0
 10  9  1  1
 10 12  1  0
 10 11  1  0
 11  4  1  0
 12 14  1  0
 13 12  2  0
 14 15  1  0
 15 16  1  0
 16 18  2  0
 16 17  1  0
M  END
$$$$
