ALG.pdb
     RDKit          3D

 18 17  0  0  1  0  0  0  0  0999 V2000
   10.0176  -19.4321   19.0360 C   0  0  0  0  0  0  0  0  0  0  0  0
    9.8639  -18.1700   18.2136 C   0  0  2  0  0  0  0  0  0  0  0  0
   10.7260  -18.1810   17.0496 N   0  0  0  0  0  0  0  0  0  0  0  0
   10.2646  -17.0257   19.0808 C   0  0  0  0  0  0  0  0  0  0  0  0
   11.4339  -16.6022   19.1015 O   0  0  0  0  0  0  0  0  0  0  0  0
    8.4694  -12.7626   19.2018 C   0  0  0  0  0  0  0  0  0  0  0  0
    7.6051  -13.8850   19.8269 C   0  0  2  0  0  0  0  0  0  0  0  0
    6.3062  -13.2092   20.2151 C   0  0  0  0  0  0  0  0  0  0  0  0
    8.3170  -14.4436   21.0416 C   0  0  0  0  0  0  0  0  0  0  0  0
    9.5371  -15.2591   20.6964 C   0  0  2  0  0  0  0  0  0  0  0  0
    9.3158  -16.4002   19.8983 N   0  0  0  0  0  0  0  0  0  0  0  0
   10.1196  -15.7115   21.9745 C   0  0  0  0  0  0  0  0  0  0  0  0
   10.4278  -14.8631   22.8433 O   0  0  0  0  0  0  0  0  0  0  0  0
   10.3493  -17.0919   22.2661 N   0  0  0  0  0  0  0  0  0  0  0  0
   10.9287  -17.4832   23.5121 C   0  0  0  0  0  0  0  0  0  0  0  0
   12.4164  -17.5517   23.4133 C   0  0  0  0  0  0  0  0  0  0  0  0
   13.2076  -16.5302   23.9096 O   0  0  0  0  0  0  0  0  0  0  0  0
   12.9410  -18.5512   22.8725 O   0  0  0  0  0  0  0  0  0  0  0  0
  2  3  1  0
  2  1  1  1
  4  2  1  0
  5  4  2  0
  7  6  1  1
  7  8  1  0
  9  7  1  0
 10  9  1  1
 10 12  1  0
 10 11  1  0
 11  4  1  0
 12 14  1  0
 13 12  2  0
 14 15  1  0
 15 16  1  0
 16 18  2  0
 16 17  1  0
M  END
$$$$
