EFS.pdb
     RDKit          3D

 27 27  0  0  1  0  0  0  0  0999 V2000
   27.1460  -20.7504  -13.3840 N   0  0  0  0  0  0  0  0  0  0  0  0
   27.5409  -20.3797  -14.6923 C   0  0  1  0  0  0  0  0  0  0  0  0
   27.5923  -18.9311  -14.9931 C   0  0  0  0  0  0  0  0  0  0  0  0
   26.3935  -18.1107  -14.7392 C   0  0  0  0  0  0  0  0  0  0  0  0
   25.1516  -18.4747  -15.4074 C   0  0  0  0  0  0  0  0  0  0  0  0
   24.9239  -18.1588  -16.5881 O   0  0  0  0  0  0  0  0  0  0  0  0
   28.8723  -20.9860  -15.0747 C   0  0  0  0  0  0  0  0  0  0  0  0
   29.6474  -20.3021  -15.8004 O   0  0  0  0  0  0  0  0  0  0  0  0
   24.1734  -19.2053  -14.7065 O   0  0  0  0  0  0  0  0  0  0  0  0
   29.3002  -22.2561  -14.6760 N   0  0  0  0  0  0  0  0  0  0  0  0
   30.5131  -22.8876  -15.1378 C   0  0  1  0  0  0  0  0  0  0  0  0
   31.1011  -23.8118  -14.0977 C   0  0  0  0  0  0  0  0  0  0  0  0
   31.4501  -23.1251  -12.8484 C   0  0  0  0  0  0  0  0  0  0  0  0
   30.5111  -22.3276  -12.2325 C   0  0  0  0  0  0  0  0  0  0  0  0
   30.7995  -21.6554  -11.0410 C   0  0  0  0  0  0  0  0  0  0  0  0
   32.0308  -21.7777  -10.4585 C   0  0  0  0  0  0  0  0  0  0  0  0
   32.9790  -22.5703  -11.0613 C   0  0  0  0  0  0  0  0  0  0  0  0
   32.6814  -23.2371  -12.2504 C   0  0  0  0  0  0  0  0  0  0  0  0
   30.4152  -23.5276  -16.4451 C   0  0  0  0  0  0  0  0  0  0  0  0
   29.2966  -23.8394  -16.9071 O   0  0  0  0  0  0  0  0  0  0  0  0
   31.4266  -22.0721  -20.4041 O   0  0  0  0  0  0  0  0  0  0  0  0
   31.3490  -22.1536  -18.9964 C   0  0  0  0  0  0  0  0  0  0  0  0
   31.5821  -23.6190  -18.6570 C   0  0  2  0  0  0  0  0  0  0  0  0
   31.5820  -23.7963  -17.1974 N   0  0  0  0  0  0  0  0  0  0  0  0
   32.8992  -23.9905  -19.1968 C   0  0  0  0  0  0  0  0  0  0  0  0
   33.0247  -24.6516  -20.3986 O   0  0  0  0  0  0  0  0  0  0  0  0
   33.9324  -23.7044  -18.5572 O   0  0  0  0  0  0  0  0  0  0  0  0
  2  1  1  1
  2  3  1  0
  4  5  1  0
  4  3  1  0
  5  6  2  0
  7  2  1  0
  7 10  1  0
  8  7  2  0
  9  5  1  0
 11 10  1  0
 11 12  1  1
 12 13  1  0
 13 18  2  0
 13 14  1  0
 14 15  2  0
 15 16  1  0
 17 16  2  0
 18 17  1  0
 19 11  1  0
 20 19  2  0
 21 22  1  0
 23 22  1  1
 23 24  1  0
 24 19  1  0
 25 23  1  0
 26 25  1  0
 27 25  2  0
M  END
$$$$
