EFS.pdb
     RDKit          3D

 27 27  0  0  1  0  0  0  0  0999 V2000
   28.2610  -21.1427  -14.6468 N   0  0  0  0  0  0  0  0  0  0  0  0
   27.6139  -20.1777  -13.8374 C   0  0  1  0  0  0  0  0  0  0  0  0
   27.1421  -18.9455  -14.5087 C   0  0  0  0  0  0  0  0  0  0  0  0
   28.0243  -18.2915  -15.4928 C   0  0  0  0  0  0  0  0  0  0  0  0
   28.2013  -18.9252  -16.7922 C   0  0  0  0  0  0  0  0  0  0  0  0
   27.2600  -19.0534  -17.5942 O   0  0  0  0  0  0  0  0  0  0  0  0
   26.4522  -20.7691  -13.0712 C   0  0  0  0  0  0  0  0  0  0  0  0
   26.0147  -21.8961  -13.4367 O   0  0  0  0  0  0  0  0  0  0  0  0
   29.4701  -19.4104  -17.1619 O   0  0  0  0  0  0  0  0  0  0  0  0
   25.8310  -20.1477  -11.9835 N   0  0  0  0  0  0  0  0  0  0  0  0
   24.6301  -20.6330  -11.3466 C   0  0  1  0  0  0  0  0  0  0  0  0
   24.4156  -20.0044   -9.9900 C   0  0  0  0  0  0  0  0  0  0  0  0
   25.5666  -20.1630   -9.0933 C   0  0  0  0  0  0  0  0  0  0  0  0
   25.9792  -21.4296   -8.7435 C   0  0  0  0  0  0  0  0  0  0  0  0
   27.0710  -21.6279   -7.8929 C   0  0  0  0  0  0  0  0  0  0  0  0
   27.7568  -20.5583   -7.3870 C   0  0  0  0  0  0  0  0  0  0  0  0
   27.3570  -19.2874   -7.7270 C   0  0  0  0  0  0  0  0  0  0  0  0
   26.2662  -19.0999   -8.5766 C   0  0  0  0  0  0  0  0  0  0  0  0
   23.4287  -20.5752  -12.1720 C   0  0  0  0  0  0  0  0  0  0  0  0
   23.1607  -19.5379  -12.8156 O   0  0  0  0  0  0  0  0  0  0  0  0
   19.7837  -23.2674  -13.6897 O   0  0  0  0  0  0  0  0  0  0  0  0
   21.1772  -23.0452  -13.7460 C   0  0  0  0  0  0  0  0  0  0  0  0
   21.3966  -21.6634  -13.1464 C   0  0  2  0  0  0  0  0  0  0  0  0
   22.5629  -21.6905  -12.2514 N   0  0  0  0  0  0  0  0  0  0  0  0
   20.1920  -21.3240  -12.3733 C   0  0  0  0  0  0  0  0  0  0  0  0
   18.9647  -21.1751  -12.9804 O   0  0  0  0  0  0  0  0  0  0  0  0
   20.2749  -21.1647  -11.1379 O   0  0  0  0  0  0  0  0  0  0  0  0
  2  1  1  6
  2  3  1  0
  4  5  1  0
  4  3  1  0
  5  6  2  0
  7  2  1  0
  7 10  1  0
  8  7  2  0
  9  5  1  0
 11 10  1  0
 11 12  1  1
 12 13  1  0
 13 18  2  0
 13 14  1  0
 14 15  2  0
 15 16  1  0
 17 16  2  0
 18 17  1  0
 19 11  1  0
 20 19  2  0
 21 22  1  0
 23 22  1  1
 23 24  1  0
 24 19  1  0
 25 23  1  0
 26 25  1  0
 27 25  2  0
M  END
$$$$
