EFS.pdb
     RDKit          3D

 27 27  0  0  1  0  0  0  0  0999 V2000
   28.7449  -21.1445  -14.8562 N   0  0  0  0  0  0  0  0  0  0  0  0
   27.6842  -20.2436  -14.5942 C   0  0  1  0  0  0  0  0  0  0  0  0
   27.0501  -19.5946  -15.7639 C   0  0  0  0  0  0  0  0  0  0  0  0
   27.9008  -18.8471  -16.7084 C   0  0  0  0  0  0  0  0  0  0  0  0
   28.7326  -17.7707  -16.1877 C   0  0  0  0  0  0  0  0  0  0  0  0
   28.3082  -16.9619  -15.3443 O   0  0  0  0  0  0  0  0  0  0  0  0
   26.5939  -20.8799  -13.7620 C   0  0  0  0  0  0  0  0  0  0  0  0
   26.1118  -21.9781  -14.1580 O   0  0  0  0  0  0  0  0  0  0  0  0
   30.0567  -17.6320  -16.6452 O   0  0  0  0  0  0  0  0  0  0  0  0
   26.0850  -20.3300  -12.5814 N   0  0  0  0  0  0  0  0  0  0  0  0
   25.0018  -20.9025  -11.8185 C   0  0  1  0  0  0  0  0  0  0  0  0
   25.0995  -20.5582  -10.3511 C   0  0  0  0  0  0  0  0  0  0  0  0
   26.4364  -20.7923   -9.7924 C   0  0  0  0  0  0  0  0  0  0  0  0
   26.7897  -20.1801   -8.6103 C   0  0  0  0  0  0  0  0  0  0  0  0
   28.0519  -20.3751   -8.0414 C   0  0  0  0  0  0  0  0  0  0  0  0
   28.9687  -21.1849   -8.6531 C   0  0  0  0  0  0  0  0  0  0  0  0
   28.6308  -21.8032   -9.8339 C   0  0  0  0  0  0  0  0  0  0  0  0
   27.3686  -21.6022  -10.3937 C   0  0  0  0  0  0  0  0  0  0  0  0
   23.6689  -20.6454  -12.3527 C   0  0  0  0  0  0  0  0  0  0  0  0
   23.3803  -19.5134  -12.7969 O   0  0  0  0  0  0  0  0  0  0  0  0
   21.6174  -23.1765  -14.5091 O   0  0  0  0  0  0  0  0  0  0  0  0
   20.7829  -22.7495  -13.4528 C   0  0  0  0  0  0  0  0  0  0  0  0
   21.3749  -21.4332  -12.9690 C   0  0  2  0  0  0  0  0  0  0  0  0
   22.6979  -21.6732  -12.3740 N   0  0  0  0  0  0  0  0  0  0  0  0
   20.4667  -20.8933  -11.9455 C   0  0  0  0  0  0  0  0  0  0  0  0
   19.1679  -20.5468  -12.2456 O   0  0  0  0  0  0  0  0  0  0  0  0
   20.8743  -20.7416  -10.7754 O   0  0  0  0  0  0  0  0  0  0  0  0
  2  1  1  6
  2  3  1  0
  4  5  1  0
  4  3  1  0
  5  6  2  0
  7  2  1  0
  7 10  1  0
  8  7  2  0
  9  5  1  0
 11 10  1  0
 11 12  1  1
 12 13  1  0
 13 18  2  0
 13 14  1  0
 14 15  2  0
 15 16  1  0
 17 16  2  0
 18 17  1  0
 19 11  1  0
 20 19  2  0
 21 22  1  0
 23 22  1  1
 23 24  1  0
 24 19  1  0
 25 23  1  0
 26 25  1  0
 27 25  2  0
M  END
$$$$
