EFS.pdb
     RDKit          3D

 27 27  0  0  1  0  0  0  0  0999 V2000
   23.3523  -12.3779  -18.4549 N   0  0  0  0  0  0  0  0  0  0  0  0
   22.9707  -11.0797  -18.8725 C   0  0  1  0  0  0  0  0  0  0  0  0
   21.8370  -10.9851  -19.8196 C   0  0  0  0  0  0  0  0  0  0  0  0
   20.6348  -11.8021  -19.5712 C   0  0  0  0  0  0  0  0  0  0  0  0
   19.3296  -11.2092  -19.8291 C   0  0  0  0  0  0  0  0  0  0  0  0
   19.0221  -10.7585  -20.9463 O   0  0  0  0  0  0  0  0  0  0  0  0
   22.6797  -10.1708  -17.6996 C   0  0  0  0  0  0  0  0  0  0  0  0
   22.1083  -10.6713  -16.6906 O   0  0  0  0  0  0  0  0  0  0  0  0
   18.3808  -11.1387  -18.7915 O   0  0  0  0  0  0  0  0  0  0  0  0
   23.0030   -8.8109  -17.6608 N   0  0  0  0  0  0  0  0  0  0  0  0
   22.7778   -7.9538  -16.5216 C   0  0  1  0  0  0  0  0  0  0  0  0
   24.0693   -7.4060  -15.9617 C   0  0  0  0  0  0  0  0  0  0  0  0
   25.0947   -8.4374  -15.7642 C   0  0  0  0  0  0  0  0  0  0  0  0
   24.9864   -9.2999  -14.6959 C   0  0  0  0  0  0  0  0  0  0  0  0
   25.9392  -10.2977  -14.4696 C   0  0  0  0  0  0  0  0  0  0  0  0
   27.0072  -10.4381  -15.3122 C   0  0  0  0  0  0  0  0  0  0  0  0
   27.1293   -9.5846  -16.3834 C   0  0  0  0  0  0  0  0  0  0  0  0
   26.1731   -8.5920  -16.6007 C   0  0  0  0  0  0  0  0  0  0  0  0
   21.7828   -6.9067  -16.7255 C   0  0  0  0  0  0  0  0  0  0  0  0
   22.0513   -5.9194  -17.4432 O   0  0  0  0  0  0  0  0  0  0  0  0
   18.0547   -7.5281  -15.3592 O   0  0  0  0  0  0  0  0  0  0  0  0
   18.1141   -6.6342  -16.4508 C   0  0  0  0  0  0  0  0  0  0  0  0
   19.4858   -5.9791  -16.3702 C   0  0  2  0  0  0  0  0  0  0  0  0
   20.5103   -7.0029  -16.1163 N   0  0  0  0  0  0  0  0  0  0  0  0
   19.4529   -5.0283  -15.2482 C   0  0  0  0  0  0  0  0  0  0  0  0
   18.5664   -3.9746  -15.2228 O   0  0  0  0  0  0  0  0  0  0  0  0
   20.2438   -5.1718  -14.2930 O   0  0  0  0  0  0  0  0  0  0  0  0
  2  1  1  1
  2  3  1  0
  4  5  1  0
  4  3  1  0
  5  6  2  0
  7  2  1  0
  7 10  1  0
  8  7  2  0
  9  5  1  0
 11 10  1  0
 11 12  1  6
 12 13  1  0
 13 18  2  0
 13 14  1  0
 14 15  2  0
 15 16  1  0
 17 16  2  0
 18 17  1  0
 19 11  1  0
 20 19  2  0
 21 22  1  0
 23 22  1  1
 23 24  1  0
 24 19  1  0
 25 23  1  0
 26 25  1  0
 27 25  2  0
M  END
$$$$
