EFS.pdb
     RDKit          3D

 27 27  0  0  1  0  0  0  0  0999 V2000
   23.3922  -11.5384  -18.8375 N   0  0  0  0  0  0  0  0  0  0  0  0
   23.2087  -10.2088  -19.2887 C   0  0  1  0  0  0  0  0  0  0  0  0
   22.2720  -10.0057  -20.4169 C   0  0  0  0  0  0  0  0  0  0  0  0
   22.5330  -10.7024  -21.6901 C   0  0  0  0  0  0  0  0  0  0  0  0
   22.1040  -10.0657  -22.9279 C   0  0  0  0  0  0  0  0  0  0  0  0
   22.1004   -8.8300  -23.0640 O   0  0  0  0  0  0  0  0  0  0  0  0
   22.7999   -9.2817  -18.1664 C   0  0  0  0  0  0  0  0  0  0  0  0
   21.9085   -9.6797  -17.3650 O   0  0  0  0  0  0  0  0  0  0  0  0
   21.6790  -10.8621  -24.0082 O   0  0  0  0  0  0  0  0  0  0  0  0
   23.3459   -8.0112  -17.9589 N   0  0  0  0  0  0  0  0  0  0  0  0
   22.9948   -7.1449  -16.8592 C   0  0  1  0  0  0  0  0  0  0  0  0
   24.1715   -6.8795  -15.9501 C   0  0  0  0  0  0  0  0  0  0  0  0
   24.7707   -8.1059  -15.4109 C   0  0  0  0  0  0  0  0  0  0  0  0
   25.9713   -8.5497  -15.9195 C   0  0  0  0  0  0  0  0  0  0  0  0
   26.5789   -9.7122  -15.4356 C   0  0  0  0  0  0  0  0  0  0  0  0
   25.9877  -10.4380  -14.4386 C   0  0  0  0  0  0  0  0  0  0  0  0
   24.7888  -10.0079  -13.9204 C   0  0  0  0  0  0  0  0  0  0  0  0
   24.1904   -8.8464  -14.4101 C   0  0  0  0  0  0  0  0  0  0  0  0
   22.3089   -5.9146  -17.2389 C   0  0  0  0  0  0  0  0  0  0  0  0
   22.7647   -5.2025  -18.1593 O   0  0  0  0  0  0  0  0  0  0  0  0
   18.4852   -3.5384  -18.1137 O   0  0  0  0  0  0  0  0  0  0  0  0
   19.1202   -4.7426  -17.7379 C   0  0  0  0  0  0  0  0  0  0  0  0
   20.3889   -4.3263  -17.0071 C   0  0  2  0  0  0  0  0  0  0  0  0
   21.1256   -5.5220  -16.5716 N   0  0  0  0  0  0  0  0  0  0  0  0
   19.9809   -3.5448  -15.8295 C   0  0  0  0  0  0  0  0  0  0  0  0
   19.8234   -2.1779  -15.8914 O   0  0  0  0  0  0  0  0  0  0  0  0
   19.7710   -4.1257  -14.7446 O   0  0  0  0  0  0  0  0  0  0  0  0
  2  1  1  1
  2  3  1  0
  4  5  1  0
  4  3  1  0
  5  6  2  0
  7  2  1  0
  7 10  1  0
  8  7  2  0
  9  5  1  0
 11 10  1  0
 11 12  1  6
 12 13  1  0
 13 18  2  0
 13 14  1  0
 14 15  2  0
 15 16  1  0
 17 16  2  0
 18 17  1  0
 19 11  1  0
 20 19  2  0
 21 22  1  0
 23 22  1  1
 23 24  1  0
 24 19  1  0
 25 23  1  0
 26 25  1  0
 27 25  2  0
M  END
$$$$
