ADY.pdb
     RDKit          3D

 26 26  0  0  1  0  0  0  0  0999 V2000
    7.5066  -12.4986   20.0367 C   0  0  0  0  0  0  0  0  0  0  0  0
    8.2274  -13.5346   19.2345 C   0  0  2  0  0  0  0  0  0  0  0  0
    7.5813  -13.9423   18.0332 N   0  0  0  0  0  0  0  0  0  0  0  0
    8.5684  -14.7019   20.1431 C   0  0  0  0  0  0  0  0  0  0  0  0
    7.6020  -15.3312   20.5767 O   0  0  0  0  0  0  0  0  0  0  0  0
    9.8785  -15.0238   20.4530 N   0  0  0  0  0  0  0  0  0  0  0  0
   10.3672  -16.0495   21.2993 C   0  0  1  0  0  0  0  0  0  0  0  0
   11.8240  -16.3891   21.2400 C   0  0  0  0  0  0  0  0  0  0  0  0
   12.0672  -17.6535   21.9612 C   0  0  0  0  0  0  0  0  0  0  0  0
   11.4152  -18.6996   21.6269 O   0  0  0  0  0  0  0  0  0  0  0  0
    9.7444  -16.1043   22.6225 C   0  0  0  0  0  0  0  0  0  0  0  0
    8.7054  -16.8431   22.7904 O   0  0  0  0  0  0  0  0  0  0  0  0
   12.9757  -17.7886   23.0001 O   0  0  0  0  0  0  0  0  0  0  0  0
    5.9615  -10.5827   27.0940 O   0  0  0  0  0  0  0  0  0  0  0  0
    6.4775  -11.7207   26.5108 C   0  0  0  0  0  0  0  0  0  0  0  0
    7.4877  -11.6481   25.5590 C   0  0  0  0  0  0  0  0  0  0  0  0
    7.9873  -12.8003   24.9900 C   0  0  0  0  0  0  0  0  0  0  0  0
    7.5059  -14.0406   25.3443 C   0  0  0  0  0  0  0  0  0  0  0  0
    8.0276  -15.2751   24.7458 C   0  0  0  0  0  0  0  0  0  0  0  0
    9.4763  -15.5285   25.0097 C   0  0  2  0  0  0  0  0  0  0  0  0
   10.2020  -15.3948   23.7590 N   0  0  0  0  0  0  0  0  0  0  0  0
    9.7599  -16.8315   25.6620 C   0  0  0  0  0  0  0  0  0  0  0  0
    9.4538  -17.0282   26.9882 O   0  0  0  0  0  0  0  0  0  0  0  0
    6.5054  -14.1010   26.2878 C   0  0  0  0  0  0  0  0  0  0  0  0
    5.9881  -12.9692   26.8718 C   0  0  0  0  0  0  0  0  0  0  0  0
   10.2799  -17.7605   25.0068 O   0  0  0  0  0  0  0  0  0  0  0  0
  2  3  1  0
  2  1  1  1
  4  2  1  0
  5  4  2  0
  6  4  1  0
  7  6  1  0
  7  8  1  1
  9  8  1  0
  9 10  2  0
 11  7  1  0
 11 21  1  0
 12 11  2  0
 13  9  1  0
 15 14  1  0
 16 15  2  0
 17 16  1  0
 18 24  1  0
 18 17  2  0
 19 18  1  0
 20 19  1  6
 20 21  1  0
 20 22  1  0
 22 26  2  0
 22 23  1  0
 24 25  2  0
 25 15  1  0
M  END
$$$$
