ADY.pdb
     RDKit          3D

 26 26  0  0  1  0  0  0  0  0999 V2000
    6.7417  -13.4126   19.6193 C   0  0  0  0  0  0  0  0  0  0  0  0
    8.1007  -13.3191   20.2366 C   0  0  2  0  0  0  0  0  0  0  0  0
    9.1727  -13.0784   19.3311 N   0  0  0  0  0  0  0  0  0  0  0  0
    8.3268  -14.5460   21.1014 C   0  0  0  0  0  0  0  0  0  0  0  0
    7.3573  -14.9026   21.7728 O   0  0  0  0  0  0  0  0  0  0  0  0
    9.5431  -15.2065   21.1228 N   0  0  0  0  0  0  0  0  0  0  0  0
    9.9265  -16.3421   21.8782 C   0  0  1  0  0  0  0  0  0  0  0  0
   10.9982  -17.2332   21.3316 C   0  0  0  0  0  0  0  0  0  0  0  0
   10.9171  -18.5579   21.9769 C   0  0  0  0  0  0  0  0  0  0  0  0
   11.9126  -18.9865   22.6527 O   0  0  0  0  0  0  0  0  0  0  0  0
    9.9274  -16.1449   23.3283 C   0  0  0  0  0  0  0  0  0  0  0  0
   10.8704  -15.4515   23.8607 O   0  0  0  0  0  0  0  0  0  0  0  0
    9.8098  -19.3890   21.8998 O   0  0  0  0  0  0  0  0  0  0  0  0
    6.4648  -10.5636   26.1636 O   0  0  0  0  0  0  0  0  0  0  0  0
    6.7585  -11.9108   26.1519 C   0  0  0  0  0  0  0  0  0  0  0  0
    6.0930  -12.7862   25.3020 C   0  0  0  0  0  0  0  0  0  0  0  0
    6.4044  -14.1292   25.3090 C   0  0  0  0  0  0  0  0  0  0  0  0
    7.3720  -14.6356   26.1475 C   0  0  0  0  0  0  0  0  0  0  0  0
    7.7127  -16.0631   26.1662 C   0  0  0  0  0  0  0  0  0  0  0  0
    9.0711  -16.3838   25.6330 C   0  0  2  0  0  0  0  0  0  0  0  0
    8.9533  -16.6662   24.2135 N   0  0  0  0  0  0  0  0  0  0  0  0
    9.7635  -17.4856   26.3472 C   0  0  0  0  0  0  0  0  0  0  0  0
   10.1676  -17.3251   27.6519 O   0  0  0  0  0  0  0  0  0  0  0  0
    8.0248  -13.7598   26.9851 C   0  0  0  0  0  0  0  0  0  0  0  0
    7.7353  -12.4161   27.0001 C   0  0  0  0  0  0  0  0  0  0  0  0
    9.9835  -18.5696   25.7647 O   0  0  0  0  0  0  0  0  0  0  0  0
  2  3  1  0
  2  1  1  6
  4  2  1  0
  5  4  2  0
  6  4  1  0
  7  6  1  0
  7  8  1  6
  9  8  1  0
  9 10  2  0
 11  7  1  0
 11 21  1  0
 12 11  2  0
 13  9  1  0
 15 14  1  0
 16 15  2  0
 17 16  1  0
 18 24  1  0
 18 17  2  0
 19 18  1  0
 20 19  1  1
 20 21  1  0
 20 22  1  0
 22 26  2  0
 22 23  1  0
 24 25  2  0
 25 15  1  0
M  END
$$$$
