ADY.pdb
     RDKit          3D

 26 26  0  0  1  0  0  0  0  0999 V2000
    8.6124  -15.2459   18.2756 C   0  0  0  0  0  0  0  0  0  0  0  0
    9.4745  -16.4654   18.1970 C   0  0  2  0  0  0  0  0  0  0  0  0
    9.0522  -17.4589   17.2688 N   0  0  0  0  0  0  0  0  0  0  0  0
    9.6667  -17.0154   19.5988 C   0  0  0  0  0  0  0  0  0  0  0  0
    8.6820  -17.5742   20.0846 O   0  0  0  0  0  0  0  0  0  0  0  0
   10.8704  -16.8896   20.2706 N   0  0  0  0  0  0  0  0  0  0  0  0
   11.1963  -17.2768   21.5939 C   0  0  1  0  0  0  0  0  0  0  0  0
   12.5817  -17.7717   21.8712 C   0  0  0  0  0  0  0  0  0  0  0  0
   12.7913  -19.0637   21.1893 C   0  0  0  0  0  0  0  0  0  0  0  0
   11.8520  -19.9292   21.1866 O   0  0  0  0  0  0  0  0  0  0  0  0
   10.5787  -16.4640   22.6425 C   0  0  0  0  0  0  0  0  0  0  0  0
   11.1408  -15.3592   22.9848 O   0  0  0  0  0  0  0  0  0  0  0  0
   13.9637  -19.4117   20.5356 O   0  0  0  0  0  0  0  0  0  0  0  0
    7.1629  -12.5636   19.3485 O   0  0  0  0  0  0  0  0  0  0  0  0
    7.2592  -13.2848   20.5198 C   0  0  0  0  0  0  0  0  0  0  0  0
    6.6686  -14.5365   20.6462 C   0  0  0  0  0  0  0  0  0  0  0  0
    6.7789  -15.2382   21.8278 C   0  0  0  0  0  0  0  0  0  0  0  0
    7.4691  -14.7256   22.9032 C   0  0  0  0  0  0  0  0  0  0  0  0
    7.5933  -15.4612   24.1672 C   0  0  0  0  0  0  0  0  0  0  0  0
    8.9648  -15.9824   24.4496 C   0  0  2  0  0  0  0  0  0  0  0  0
    9.3860  -16.8012   23.3267 N   0  0  0  0  0  0  0  0  0  0  0  0
    9.0861  -16.7206   25.7318 C   0  0  0  0  0  0  0  0  0  0  0  0
    8.8182  -16.0928   26.9256 O   0  0  0  0  0  0  0  0  0  0  0  0
    8.0500  -13.4852   22.7672 C   0  0  0  0  0  0  0  0  0  0  0  0
    7.9565  -12.7627   21.6015 C   0  0  0  0  0  0  0  0  0  0  0  0
    9.4332  -17.9216   25.7333 O   0  0  0  0  0  0  0  0  0  0  0  0
  2  3  1  0
  2  1  1  1
  4  2  1  0
  5  4  2  0
  6  4  1  0
  7  6  1  0
  7  8  1  6
  9  8  1  0
  9 10  2  0
 11  7  1  0
 11 21  1  0
 12 11  2  0
 13  9  1  0
 15 14  1  0
 16 15  2  0
 17 16  1  0
 18 24  1  0
 18 17  2  0
 19 18  1  0
 20 19  1  6
 20 21  1  0
 20 22  1  0
 22 26  2  0
 22 23  1  0
 24 25  2  0
 25 15  1  0
M  END
$$$$
