ADY.pdb
     RDKit          3D

 26 26  0  0  1  0  0  0  0  0999 V2000
    6.8498  -13.1956   20.4053 C   0  0  0  0  0  0  0  0  0  0  0  0
    8.2180  -13.7346   20.6774 C   0  0  2  0  0  0  0  0  0  0  0  0
    8.8540  -14.3817   19.5803 N   0  0  0  0  0  0  0  0  0  0  0  0
    8.1585  -14.6062   21.9189 C   0  0  0  0  0  0  0  0  0  0  0  0
    7.5800  -14.1070   22.8853 O   0  0  0  0  0  0  0  0  0  0  0  0
    8.7198  -15.8712   21.9469 N   0  0  0  0  0  0  0  0  0  0  0  0
    8.7352  -16.8154   23.0030 C   0  0  1  0  0  0  0  0  0  0  0  0
    8.8925  -18.2645   22.6615 C   0  0  0  0  0  0  0  0  0  0  0  0
   10.1760  -18.4720   21.9634 C   0  0  0  0  0  0  0  0  0  0  0  0
   10.8939  -17.4600   21.6602 O   0  0  0  0  0  0  0  0  0  0  0  0
    9.4046  -16.3629   24.2232 C   0  0  0  0  0  0  0  0  0  0  0  0
   10.6021  -15.9018   24.1407 O   0  0  0  0  0  0  0  0  0  0  0  0
   10.6693  -19.7177   21.6059 O   0  0  0  0  0  0  0  0  0  0  0  0
    6.1498  -10.9334   24.7029 O   0  0  0  0  0  0  0  0  0  0  0  0
    6.7734  -11.9490   25.3966 C   0  0  0  0  0  0  0  0  0  0  0  0
    6.0759  -12.7340   26.3071 C   0  0  0  0  0  0  0  0  0  0  0  0
    6.7217  -13.7435   26.9885 C   0  0  0  0  0  0  0  0  0  0  0  0
    8.0596  -14.0002   26.7888 C   0  0  0  0  0  0  0  0  0  0  0  0
    8.7599  -15.0709   27.5083 C   0  0  0  0  0  0  0  0  0  0  0  0
    9.6195  -15.9379   26.6470 C   0  0  2  0  0  0  0  0  0  0  0  0
    8.8292  -16.3912   25.5164 N   0  0  0  0  0  0  0  0  0  0  0  0
   10.2455  -17.0793   27.3606 C   0  0  0  0  0  0  0  0  0  0  0  0
   10.0333  -18.3692   26.9337 O   0  0  0  0  0  0  0  0  0  0  0  0
    8.7407  -13.2168   25.8849 C   0  0  0  0  0  0  0  0  0  0  0  0
    8.1232  -12.2034   25.1913 C   0  0  0  0  0  0  0  0  0  0  0  0
   10.9720  -16.8733   28.3569 O   0  0  0  0  0  0  0  0  0  0  0  0
  2  3  1  0
  2  1  1  6
  4  2  1  0
  5  4  2  0
  6  4  1  0
  7  6  1  0
  7  8  1  6
  9  8  1  0
  9 10  2  0
 11  7  1  0
 11 21  1  0
 12 11  2  0
 13  9  1  0
 15 14  1  0
 16 15  2  0
 17 16  1  0
 18 24  1  0
 18 17  2  0
 19 18  1  0
 20 19  1  1
 20 21  1  0
 20 22  1  0
 22 26  2  0
 22 23  1  0
 24 25  2  0
 25 15  1  0
M  END
$$$$
