ADY.pdb
     RDKit          3D

 26 26  0  0  1  0  0  0  0  0999 V2000
    8.5038  -12.6152   18.6643 C   0  0  0  0  0  0  0  0  0  0  0  0
    8.4085  -14.0285   18.1845 C   0  0  2  0  0  0  0  0  0  0  0  0
    7.2217  -14.3571   17.4701 N   0  0  0  0  0  0  0  0  0  0  0  0
    8.6642  -14.9577   19.3573 C   0  0  0  0  0  0  0  0  0  0  0  0
    7.6695  -15.2529   20.0216 O   0  0  0  0  0  0  0  0  0  0  0  0
    9.9322  -15.4315   19.6467 N   0  0  0  0  0  0  0  0  0  0  0  0
   10.3359  -16.3317   20.6634 C   0  0  1  0  0  0  0  0  0  0  0  0
   11.5336  -17.1954   20.4166 C   0  0  0  0  0  0  0  0  0  0  0  0
   11.7096  -18.1313   21.5440 C   0  0  0  0  0  0  0  0  0  0  0  0
   10.7904  -18.9797   21.8020 O   0  0  0  0  0  0  0  0  0  0  0  0
   10.1699  -15.8322   22.0289 C   0  0  0  0  0  0  0  0  0  0  0  0
   10.9984  -14.9559   22.4752 O   0  0  0  0  0  0  0  0  0  0  0  0
   12.8295  -18.1551   22.3615 O   0  0  0  0  0  0  0  0  0  0  0  0
    6.0190  -11.3217   28.0998 O   0  0  0  0  0  0  0  0  0  0  0  0
    6.4104  -12.1414   27.0622 C   0  0  0  0  0  0  0  0  0  0  0  0
    7.3826  -11.7398   26.1538 C   0  0  0  0  0  0  0  0  0  0  0  0
    7.7569  -12.5773   25.1246 C   0  0  0  0  0  0  0  0  0  0  0  0
    7.1857  -13.8203   24.9692 C   0  0  0  0  0  0  0  0  0  0  0  0
    7.5738  -14.7214   23.8776 C   0  0  0  0  0  0  0  0  0  0  0  0
    8.8704  -15.4325   24.0913 C   0  0  2  0  0  0  0  0  0  0  0  0
    9.1490  -16.2434   22.9194 N   0  0  0  0  0  0  0  0  0  0  0  0
    8.9256  -16.2425   25.3341 C   0  0  0  0  0  0  0  0  0  0  0  0
    8.7895  -17.6099   25.2814 O   0  0  0  0  0  0  0  0  0  0  0  0
    6.2239  -14.2080   25.8745 C   0  0  0  0  0  0  0  0  0  0  0  0
    5.8307  -13.3942   26.9102 C   0  0  0  0  0  0  0  0  0  0  0  0
    9.0971  -15.6840   26.4393 O   0  0  0  0  0  0  0  0  0  0  0  0
  2  3  1  0
  2  1  1  1
  4  2  1  0
  5  4  2  0
  6  4  1  0
  7  6  1  0
  7  8  1  6
  9  8  1  0
  9 10  2  0
 11  7  1  0
 11 21  1  0
 12 11  2  0
 13  9  1  0
 15 14  1  0
 16 15  2  0
 17 16  1  0
 18 24  1  0
 18 17  2  0
 19 18  1  0
 20 19  1  6
 20 21  1  0
 20 22  1  0
 22 26  2  0
 22 23  1  0
 24 25  2  0
 25 15  1  0
M  END
$$$$
