ADY.pdb
     RDKit          3D

 26 26  0  0  1  0  0  0  0  0999 V2000
   12.3161  -18.7819   17.8507 C   0  0  0  0  0  0  0  0  0  0  0  0
   13.3251  -17.9969   17.0746 C   0  0  2  0  0  0  0  0  0  0  0  0
   13.6884  -18.5414   15.8103 N   0  0  0  0  0  0  0  0  0  0  0  0
   14.5246  -17.7318   17.9664 C   0  0  0  0  0  0  0  0  0  0  0  0
   14.5267  -18.3370   19.0395 O   0  0  0  0  0  0  0  0  0  0  0  0
   15.5368  -16.8677   17.5859 N   0  0  0  0  0  0  0  0  0  0  0  0
   16.6860  -16.4678   18.3116 C   0  0  1  0  0  0  0  0  0  0  0  0
   17.7201  -15.6424   17.6111 C   0  0  0  0  0  0  0  0  0  0  0  0
   18.2397  -16.3846   16.4462 C   0  0  0  0  0  0  0  0  0  0  0  0
   18.3632  -17.6539   16.5174 O   0  0  0  0  0  0  0  0  0  0  0  0
   16.4433  -16.1423   19.7176 C   0  0  0  0  0  0  0  0  0  0  0  0
   15.7119  -15.1237   20.0025 O   0  0  0  0  0  0  0  0  0  0  0  0
   18.6113  -15.7867   15.2515 O   0  0  0  0  0  0  0  0  0  0  0  0
   10.3385  -16.3185   23.7268 O   0  0  0  0  0  0  0  0  0  0  0  0
   11.6536  -16.6408   23.4661 C   0  0  0  0  0  0  0  0  0  0  0  0
   12.0519  -17.0834   22.2102 C   0  0  0  0  0  0  0  0  0  0  0  0
   13.3728  -17.3997   21.9742 C   0  0  0  0  0  0  0  0  0  0  0  0
   14.3238  -17.2872   22.9635 C   0  0  0  0  0  0  0  0  0  0  0  0
   15.7332  -17.6216   22.7264 C   0  0  0  0  0  0  0  0  0  0  0  0
   16.5486  -16.5057   22.1586 C   0  0  2  0  0  0  0  0  0  0  0  0
   16.9589  -16.8731   20.8150 N   0  0  0  0  0  0  0  0  0  0  0  0
   17.7139  -16.1153   22.9914 C   0  0  0  0  0  0  0  0  0  0  0  0
   17.5360  -15.3707   24.1337 O   0  0  0  0  0  0  0  0  0  0  0  0
   13.9185  -16.8479   24.2035 C   0  0  0  0  0  0  0  0  0  0  0  0
   12.6087  -16.5256   24.4678 C   0  0  0  0  0  0  0  0  0  0  0  0
   18.8674  -16.4630   22.6577 O   0  0  0  0  0  0  0  0  0  0  0  0
  2  3  1  0
  2  1  1  1
  4  2  1  0
  5  4  2  0
  6  4  1  0
  7  6  1  0
  7  8  1  6
  9  8  1  0
  9 10  2  0
 11  7  1  0
 11 21  1  0
 12 11  2  0
 13  9  1  0
 15 14  1  0
 16 15  2  0
 17 16  1  0
 18 24  1  0
 18 17  2  0
 19 18  1  0
 20 19  1  1
 20 21  1  0
 20 22  1  0
 22 26  2  0
 22 23  1  0
 24 25  2  0
 25 15  1  0
M  END
$$$$
