ADY.pdb
     RDKit          3D

 26 26  0  0  1  0  0  0  0  0999 V2000
    7.6280  -18.8337   19.9035 C   0  0  0  0  0  0  0  0  0  0  0  0
    8.2612  -17.5065   20.1758 C   0  0  2  0  0  0  0  0  0  0  0  0
    8.8716  -16.8744   19.0556 N   0  0  0  0  0  0  0  0  0  0  0  0
    9.2063  -17.6521   21.3548 C   0  0  0  0  0  0  0  0  0  0  0  0
    8.6903  -18.0630   22.3953 O   0  0  0  0  0  0  0  0  0  0  0  0
   10.5511  -17.3406   21.2516 N   0  0  0  0  0  0  0  0  0  0  0  0
   11.5264  -17.2553   22.2756 C   0  0  1  0  0  0  0  0  0  0  0  0
   12.9717  -17.2539   21.8852 C   0  0  0  0  0  0  0  0  0  0  0  0
   13.1836  -18.1952   20.7686 C   0  0  0  0  0  0  0  0  0  0  0  0
   13.6966  -17.7685   19.6795 O   0  0  0  0  0  0  0  0  0  0  0  0
   11.1610  -16.3972   23.4034 C   0  0  0  0  0  0  0  0  0  0  0  0
   11.4900  -15.1545   23.3710 O   0  0  0  0  0  0  0  0  0  0  0  0
   12.8578  -19.5421   20.8203 O   0  0  0  0  0  0  0  0  0  0  0  0
    5.9715  -11.1133   27.3890 O   0  0  0  0  0  0  0  0  0  0  0  0
    6.6919  -12.0682   26.7029 C   0  0  0  0  0  0  0  0  0  0  0  0
    8.0561  -11.9208   26.4816 C   0  0  0  0  0  0  0  0  0  0  0  0
    8.7547  -12.8894   25.7928 C   0  0  0  0  0  0  0  0  0  0  0  0
    8.1287  -14.0169   25.3105 C   0  0  0  0  0  0  0  0  0  0  0  0
    8.8598  -15.0552   24.5745 C   0  0  0  0  0  0  0  0  0  0  0  0
    9.8217  -15.8426   25.4035 C   0  0  2  0  0  0  0  0  0  0  0  0
   10.4590  -16.8322   24.5533 N   0  0  0  0  0  0  0  0  0  0  0  0
    9.2200  -16.4711   26.6063 C   0  0  0  0  0  0  0  0  0  0  0  0
    8.5462  -17.6656   26.5053 O   0  0  0  0  0  0  0  0  0  0  0  0
    6.7774  -14.1528   25.5352 C   0  0  0  0  0  0  0  0  0  0  0  0
    6.0553  -13.2035   26.2185 C   0  0  0  0  0  0  0  0  0  0  0  0
    9.3231  -15.9160   27.7217 O   0  0  0  0  0  0  0  0  0  0  0  0
  2  3  1  0
  2  1  1  6
  4  2  1  0
  5  4  2  0
  6  4  1  0
  7  6  1  0
  7  8  1  6
  9  8  1  0
  9 10  2  0
 11  7  1  0
 11 21  1  0
 12 11  2  0
 13  9  1  0
 15 14  1  0
 16 15  2  0
 17 16  1  0
 18 24  1  0
 18 17  2  0
 19 18  1  0
 20 19  1  6
 20 21  1  0
 20 22  1  0
 22 26  2  0
 22 23  1  0
 24 25  2  0
 25 15  1  0
M  END
$$$$
