ADY.pdb
     RDKit          3D

 26 26  0  0  1  0  0  0  0  0999 V2000
    7.2557  -18.3730   19.2417 C   0  0  0  0  0  0  0  0  0  0  0  0
    8.1087  -17.2024   19.6141 C   0  0  2  0  0  0  0  0  0  0  0  0
    8.6043  -16.4309   18.5250 N   0  0  0  0  0  0  0  0  0  0  0  0
    9.2092  -17.6799   20.5442 C   0  0  0  0  0  0  0  0  0  0  0  0
    8.8325  -18.3604   21.4996 O   0  0  0  0  0  0  0  0  0  0  0  0
   10.5383  -17.3642   20.3206 N   0  0  0  0  0  0  0  0  0  0  0  0
   11.6745  -17.6895   21.1018 C   0  0  1  0  0  0  0  0  0  0  0  0
   12.9700  -17.9548   20.4000 C   0  0  0  0  0  0  0  0  0  0  0  0
   12.7885  -19.0440   19.4210 C   0  0  0  0  0  0  0  0  0  0  0  0
   12.7624  -18.7668   18.1745 O   0  0  0  0  0  0  0  0  0  0  0  0
   11.7650  -16.9827   22.3801 C   0  0  0  0  0  0  0  0  0  0  0  0
   12.5534  -15.9715   22.4768 O   0  0  0  0  0  0  0  0  0  0  0  0
   12.6415  -20.3786   19.7677 O   0  0  0  0  0  0  0  0  0  0  0  0
   10.5243  -14.2130   30.6510 O   0  0  0  0  0  0  0  0  0  0  0  0
   10.4192  -14.6490   29.3470 C   0  0  0  0  0  0  0  0  0  0  0  0
   10.3161  -13.7496   28.2924 C   0  0  0  0  0  0  0  0  0  0  0  0
   10.2120  -14.2102   26.9972 C   0  0  0  0  0  0  0  0  0  0  0  0
   10.2076  -15.5577   26.7145 C   0  0  0  0  0  0  0  0  0  0  0  0
   10.0962  -16.0618   25.3406 C   0  0  0  0  0  0  0  0  0  0  0  0
   11.3534  -16.6557   24.7937 C   0  0  2  0  0  0  0  0  0  0  0  0
   11.0396  -17.3283   23.5457 N   0  0  0  0  0  0  0  0  0  0  0  0
   12.0599  -17.5625   25.7331 C   0  0  0  0  0  0  0  0  0  0  0  0
   11.7548  -18.9029   25.7701 O   0  0  0  0  0  0  0  0  0  0  0  0
   10.3102  -16.4396   27.7665 C   0  0  0  0  0  0  0  0  0  0  0  0
   10.4152  -16.0095   29.0678 C   0  0  0  0  0  0  0  0  0  0  0  0
   12.9396  -17.1110   26.4980 O   0  0  0  0  0  0  0  0  0  0  0  0
  2  3  1  0
  2  1  1  6
  4  2  1  0
  5  4  2  0
  6  4  1  0
  7  6  1  0
  7  8  1  6
  9  8  1  0
  9 10  2  0
 11  7  1  0
 11 21  1  0
 12 11  2  0
 13  9  1  0
 15 14  1  0
 16 15  2  0
 17 16  1  0
 18 24  1  0
 18 17  2  0
 19 18  1  0
 20 19  1  1
 20 21  1  0
 20 22  1  0
 22 26  2  0
 22 23  1  0
 24 25  2  0
 25 15  1  0
M  END
$$$$
