ADY.pdb
     RDKit          3D

 26 26  0  0  1  0  0  0  0  0999 V2000
    6.6382  -20.3269   22.3320 C   0  0  0  0  0  0  0  0  0  0  0  0
    6.7853  -19.0742   21.5286 C   0  0  2  0  0  0  0  0  0  0  0  0
    6.2712  -19.1298   20.2021 N   0  0  0  0  0  0  0  0  0  0  0  0
    8.2371  -18.6335   21.5777 C   0  0  0  0  0  0  0  0  0  0  0  0
    8.9653  -19.3013   22.3137 O   0  0  0  0  0  0  0  0  0  0  0  0
    8.6950  -17.5548   20.8409 N   0  0  0  0  0  0  0  0  0  0  0  0
    9.9487  -16.8985   20.9080 C   0  0  1  0  0  0  0  0  0  0  0  0
   10.3935  -16.0887   19.7300 C   0  0  0  0  0  0  0  0  0  0  0  0
   10.3338  -16.9164   18.5097 C   0  0  0  0  0  0  0  0  0  0  0  0
   11.0352  -17.9816   18.4414 O   0  0  0  0  0  0  0  0  0  0  0  0
   10.2941  -16.3649   22.2262 C   0  0  0  0  0  0  0  0  0  0  0  0
    9.9012  -15.1814   22.5402 O   0  0  0  0  0  0  0  0  0  0  0  0
    9.5507  -16.6120   17.4065 O   0  0  0  0  0  0  0  0  0  0  0  0
   10.2944  -14.3782   30.4725 O   0  0  0  0  0  0  0  0  0  0  0  0
   10.2142  -14.7761   29.1547 C   0  0  0  0  0  0  0  0  0  0  0  0
   10.0379  -13.8515   28.1321 C   0  0  0  0  0  0  0  0  0  0  0  0
    9.9606  -14.2741   26.8220 C   0  0  0  0  0  0  0  0  0  0  0  0
   10.0549  -15.6078   26.4932 C   0  0  0  0  0  0  0  0  0  0  0  0
    9.9729  -16.0716   25.1031 C   0  0  0  0  0  0  0  0  0  0  0  0
   11.2887  -16.4200   24.4867 C   0  0  2  0  0  0  0  0  0  0  0  0
   11.0421  -17.0601   23.2068 N   0  0  0  0  0  0  0  0  0  0  0  0
   12.1652  -17.2536   25.3474 C   0  0  0  0  0  0  0  0  0  0  0  0
   13.0834  -16.6647   26.1848 O   0  0  0  0  0  0  0  0  0  0  0  0
   10.2292  -16.5149   27.5137 C   0  0  0  0  0  0  0  0  0  0  0  0
   10.3097  -16.1228   28.8287 C   0  0  0  0  0  0  0  0  0  0  0  0
   12.0726  -18.4998   25.3158 O   0  0  0  0  0  0  0  0  0  0  0  0
  2  3  1  0
  2  1  1  6
  4  2  1  0
  5  4  2  0
  6  4  1  0
  7  6  1  0
  7  8  1  6
  9  8  1  0
  9 10  2  0
 11  7  1  0
 11 21  1  0
 12 11  2  0
 13  9  1  0
 15 14  1  0
 16 15  2  0
 17 16  1  0
 18 24  1  0
 18 17  2  0
 19 18  1  0
 20 19  1  1
 20 21  1  0
 20 22  1  0
 22 26  2  0
 22 23  1  0
 24 25  2  0
 25 15  1  0
M  END
$$$$
