ADY.pdb
     RDKit          3D

 26 26  0  0  1  0  0  0  0  0999 V2000
    7.0205  -18.7219   20.1115 C   0  0  0  0  0  0  0  0  0  0  0  0
    7.6469  -17.3652   20.0518 C   0  0  2  0  0  0  0  0  0  0  0  0
    8.1736  -16.9858   18.7847 N   0  0  0  0  0  0  0  0  0  0  0  0
    8.6676  -17.2519   21.1697 C   0  0  0  0  0  0  0  0  0  0  0  0
    8.4824  -18.0018   22.1295 O   0  0  0  0  0  0  0  0  0  0  0  0
    9.7266  -16.3632   21.1003 N   0  0  0  0  0  0  0  0  0  0  0  0
   10.7335  -16.1010   22.0618 C   0  0  1  0  0  0  0  0  0  0  0  0
   11.9809  -15.4037   21.6157 C   0  0  0  0  0  0  0  0  0  0  0  0
   12.9088  -16.3834   21.0183 C   0  0  0  0  0  0  0  0  0  0  0  0
   12.4735  -17.2024   20.1401 O   0  0  0  0  0  0  0  0  0  0  0  0
   10.2367  -15.7481   23.3924 C   0  0  0  0  0  0  0  0  0  0  0  0
    9.7228  -14.5837   23.5754 O   0  0  0  0  0  0  0  0  0  0  0  0
   14.2517  -16.4790   21.3507 O   0  0  0  0  0  0  0  0  0  0  0  0
    6.2161  -10.8689   26.9473 O   0  0  0  0  0  0  0  0  0  0  0  0
    6.7010  -12.1081   26.5856 C   0  0  0  0  0  0  0  0  0  0  0  0
    7.6358  -12.7733   27.3700 C   0  0  0  0  0  0  0  0  0  0  0  0
    8.1056  -14.0116   26.9870 C   0  0  0  0  0  0  0  0  0  0  0  0
    7.6673  -14.6175   25.8309 C   0  0  0  0  0  0  0  0  0  0  0  0
    8.1599  -15.9347   25.4107 C   0  0  0  0  0  0  0  0  0  0  0  0
    9.5952  -16.1931   25.7359 C   0  0  2  0  0  0  0  0  0  0  0  0
   10.2758  -16.6027   24.5204 N   0  0  0  0  0  0  0  0  0  0  0  0
    9.8069  -17.1738   26.8301 C   0  0  0  0  0  0  0  0  0  0  0  0
   10.5270  -18.3237   26.6058 O   0  0  0  0  0  0  0  0  0  0  0  0
    6.7415  -13.9499   25.0616 C   0  0  0  0  0  0  0  0  0  0  0  0
    6.2555  -12.7145   25.4183 C   0  0  0  0  0  0  0  0  0  0  0  0
    9.3303  -16.9587   27.9656 O   0  0  0  0  0  0  0  0  0  0  0  0
  2  3  1  0
  2  1  1  6
  4  2  1  0
  5  4  2  0
  6  4  1  0
  7  6  1  0
  7  8  1  6
  9  8  1  0
  9 10  2  0
 11  7  1  0
 11 21  1  0
 12 11  2  0
 13  9  1  0
 15 14  1  0
 16 15  2  0
 17 16  1  0
 18 24  1  0
 18 17  2  0
 19 18  1  0
 20 19  1  6
 20 21  1  0
 20 22  1  0
 22 26  2  0
 22 23  1  0
 24 25  2  0
 25 15  1  0
M  END
$$$$
