FRK.pdb
     RDKit          3D

 32 32  0  0  1  0  0  0  0  0999 V2000
    6.4634  -16.0040   25.9113 N   0  0  0  0  0  0  0  0  0  0  0  0
    7.1698  -15.3116   24.8662 C   0  0  1  0  0  0  0  0  0  0  0  0
    8.0942  -14.2904   25.5184 C   0  0  0  0  0  0  0  0  0  0  0  0
    7.3555  -13.2004   26.1927 C   0  0  0  0  0  0  0  0  0  0  0  0
    6.5099  -12.3335   25.5195 C   0  0  0  0  0  0  0  0  0  0  0  0
    5.8485  -11.3302   26.1821 C   0  0  0  0  0  0  0  0  0  0  0  0
    5.9943  -11.1355   27.5583 C   0  0  0  0  0  0  0  0  0  0  0  0
    6.8341  -11.9999   28.2181 C   0  0  0  0  0  0  0  0  0  0  0  0
    7.4894  -12.9929   27.5652 C   0  0  0  0  0  0  0  0  0  0  0  0
    7.9567  -16.2830   24.0688 C   0  0  0  0  0  0  0  0  0  0  0  0
    8.3207  -17.3589   24.6019 O   0  0  0  0  0  0  0  0  0  0  0  0
    8.1617  -12.5987   18.0428 N   0  0  0  0  0  0  0  0  0  0  0  0
    8.3856  -13.8133   17.3486 C   0  0  0  0  0  0  0  0  0  0  0  0
    8.6482  -13.7846   16.0703 N   0  0  0  0  0  0  0  0  0  0  0  0
    8.3215  -15.0630   18.0311 N   0  0  0  0  0  0  0  0  0  0  0  0
    7.6977  -15.1512   19.3165 C   0  0  0  0  0  0  0  0  0  0  0  0
    7.7490  -16.5765   19.8851 C   0  0  0  0  0  0  0  0  0  0  0  0
    9.1236  -16.7161   20.4779 C   0  0  0  0  0  0  0  0  0  0  0  0
    9.1681  -16.8910   21.9567 C   0  0  2  0  0  0  0  0  0  0  0  0
    8.3159  -16.0388   22.7163 N   0  0  0  0  0  0  0  0  0  0  0  0
   10.5714  -16.8949   22.4869 C   0  0  0  0  0  0  0  0  0  0  0  0
   11.1312  -15.8254   22.8588 O   0  0  0  0  0  0  0  0  0  0  0  0
    8.8324  -14.6750   15.5741 N   0  0  0  0  0  0  0  0  0  0  0  0
   11.3454  -18.0783   22.6013 C   0  0  2  0  0  0  0  0  0  0  0  0
   12.7113  -18.0920   23.1305 C   0  0  0  0  0  0  0  0  0  0  0  0
   13.0138  -19.3475   23.8619 C   0  0  0  0  0  0  0  0  0  0  0  0
   13.6269  -19.2024   25.2123 C   0  0  0  0  0  0  0  0  0  0  0  0
   13.9453  -20.5977   25.7749 C   0  0  0  0  0  0  0  0  0  0  0  0
   14.7331  -20.4652   27.0695 N   0  0  0  0  0  0  0  0  0  0  0  0
   15.0248  -21.7345   27.6835 C   0  0  0  0  0  0  0  0  0  0  0  0
   13.6841  -17.6986   22.0943 O   0  0  0  0  0  0  0  0  0  0  0  0
   13.5442  -17.9837   20.9081 O   0  0  0  0  0  0  0  0  0  0  0  0
  2  1  1  1
  2  3  1  0
  3  4  1  0
  4  5  2  0
  5  6  1  0
  7  6  2  0
  8  7  1  0
  9  4  1  0
  9  8  2  0
 10  2  1  0
 11 10  2  0
 13 15  1  0
 13 12  1  0
 14 13  2  0
 16 17  1  0
 16 15  1  0
 17 18  1  0
 19 18  1  6
 19 21  1  0
 19 20  1  0
 20 10  1  0
 21 23  1  0
 22 21  2  0
 23 24  1  0
 24 25  1  6
 24 30  1  0
 25 26  1  0
 27 26  1  0
 28 27  1  0
 29 28  1  0
 30 31  2  0
 30 32  1  0
M  END
$$$$
