FRK.pdb
     RDKit          3D

 32 32  0  0  1  0  0  0  0  0999 V2000
    8.9308  -16.9498   18.5897 N   0  0  0  0  0  0  0  0  0  0  0  0
    9.0248  -16.2404   19.8381 C   0  0  1  0  0  0  0  0  0  0  0  0
    7.6864  -15.5583   20.0949 C   0  0  0  0  0  0  0  0  0  0  0  0
    7.7443  -14.0937   19.8952 C   0  0  0  0  0  0  0  0  0  0  0  0
    6.6428  -13.2675   20.0490 C   0  0  0  0  0  0  0  0  0  0  0  0
    6.7378  -11.9135   19.8470 C   0  0  0  0  0  0  0  0  0  0  0  0
    7.9416  -11.3063   19.4794 C   0  0  0  0  0  0  0  0  0  0  0  0
    9.0289  -12.1328   19.3298 C   0  0  0  0  0  0  0  0  0  0  0  0
    8.9377  -13.4721   19.5288 C   0  0  0  0  0  0  0  0  0  0  0  0
    9.3348  -17.1938   20.9307 C   0  0  0  0  0  0  0  0  0  0  0  0
    8.9377  -16.9409   22.0937 O   0  0  0  0  0  0  0  0  0  0  0  0
   13.4191  -23.2732   22.4292 N   0  0  0  0  0  0  0  0  0  0  0  0
   12.7195  -23.5453   23.6308 C   0  0  0  0  0  0  0  0  0  0  0  0
   13.3020  -24.2379   24.5714 N   0  0  0  0  0  0  0  0  0  0  0  0
   11.3871  -23.0751   23.8185 N   0  0  0  0  0  0  0  0  0  0  0  0
   10.9104  -21.9455   23.0796 C   0  0  0  0  0  0  0  0  0  0  0  0
   12.0577  -21.1453   22.4469 C   0  0  0  0  0  0  0  0  0  0  0  0
   11.4249  -20.3632   21.3296 C   0  0  0  0  0  0  0  0  0  0  0  0
   10.5805  -19.2112   21.7530 C   0  0  2  0  0  0  0  0  0  0  0  0
   10.0691  -18.3893   20.7079 N   0  0  0  0  0  0  0  0  0  0  0  0
   11.2272  -18.4001   22.8365 C   0  0  0  0  0  0  0  0  0  0  0  0
   12.2762  -17.7325   22.6139 O   0  0  0  0  0  0  0  0  0  0  0  0
   12.7883  -24.4233   25.4517 N   0  0  0  0  0  0  0  0  0  0  0  0
   10.7119  -18.3329   24.1566 C   0  0  2  0  0  0  0  0  0  0  0  0
   11.3882  -17.6209   25.2435 C   0  0  0  0  0  0  0  0  0  0  0  0
   10.4695  -16.7094   25.9702 C   0  0  0  0  0  0  0  0  0  0  0  0
   11.0370  -15.9841   27.1417 C   0  0  0  0  0  0  0  0  0  0  0  0
    9.9619  -15.0547   27.7293 C   0  0  0  0  0  0  0  0  0  0  0  0
   10.5608  -14.2139   28.8468 N   0  0  0  0  0  0  0  0  0  0  0  0
    9.5962  -13.3563   29.4850 C   0  0  0  0  0  0  0  0  0  0  0  0
   12.1691  -18.5511   26.0800 O   0  0  0  0  0  0  0  0  0  0  0  0
   11.7043  -19.5982   26.5222 O   0  0  0  0  0  0  0  0  0  0  0  0
  2  1  1  6
  2  3  1  0
  3  4  1  0
  4  5  2  0
  5  6  1  0
  7  6  2  0
  8  7  1  0
  9  4  1  0
  9  8  2  0
 10  2  1  0
 11 10  2  0
 13 15  1  0
 13 12  1  0
 14 13  2  0
 16 17  1  0
 16 15  1  0
 17 18  1  0
 19 18  1  6
 19 21  1  0
 19 20  1  0
 20 10  1  0
 21 23  1  0
 22 21  2  0
 23 24  1  0
 24 25  1  1
 24 30  1  0
 25 26  1  0
 27 26  1  0
 28 27  1  0
 29 28  1  0
 30 31  2  0
 30 32  1  0
M  END
$$$$
