FRK.pdb
     RDKit          3D

 32 32  0  0  1  0  0  0  0  0999 V2000
    6.0528  -16.8594   25.7807 N   0  0  0  0  0  0  0  0  0  0  0  0
    6.9350  -15.8835   25.1978 C   0  0  1  0  0  0  0  0  0  0  0  0
    7.5784  -15.0930   26.3309 C   0  0  0  0  0  0  0  0  0  0  0  0
    7.1719  -13.6706   26.3374 C   0  0  0  0  0  0  0  0  0  0  0  0
    8.0334  -12.6386   26.0021 C   0  0  0  0  0  0  0  0  0  0  0  0
    7.6180  -11.3310   26.0280 C   0  0  0  0  0  0  0  0  0  0  0  0
    6.3150  -10.9791   26.3908 C   0  0  0  0  0  0  0  0  0  0  0  0
    5.4673  -12.0086   26.7211 C   0  0  0  0  0  0  0  0  0  0  0  0
    5.8756  -13.3026   26.6964 C   0  0  0  0  0  0  0  0  0  0  0  0
    7.9748  -16.5694   24.3935 C   0  0  0  0  0  0  0  0  0  0  0  0
    8.5291  -17.5950   24.8577 O   0  0  0  0  0  0  0  0  0  0  0  0
    8.4594  -13.5687   17.1477 N   0  0  0  0  0  0  0  0  0  0  0  0
    7.8605  -13.0369   18.3164 C   0  0  0  0  0  0  0  0  0  0  0  0
    7.9398  -11.7558   18.5539 N   0  0  0  0  0  0  0  0  0  0  0  0
    7.1787  -13.8872   19.2351 N   0  0  0  0  0  0  0  0  0  0  0  0
    7.7607  -15.1333   19.6322 C   0  0  0  0  0  0  0  0  0  0  0  0
    8.9514  -14.9364   20.5812 C   0  0  0  0  0  0  0  0  0  0  0  0
    9.4428  -16.3230   20.8916 C   0  0  0  0  0  0  0  0  0  0  0  0
    9.3941  -16.7125   22.3288 C   0  0  2  0  0  0  0  0  0  0  0  0
    8.3690  -16.1057   23.1099 N   0  0  0  0  0  0  0  0  0  0  0  0
   10.7361  -16.6109   22.9912 C   0  0  0  0  0  0  0  0  0  0  0  0
   11.1903  -15.4973   23.3774 O   0  0  0  0  0  0  0  0  0  0  0  0
    7.5976  -11.3898   19.4605 N   0  0  0  0  0  0  0  0  0  0  0  0
   11.5660  -17.7382   23.2213 C   0  0  1  0  0  0  0  0  0  0  0  0
   12.8922  -17.6426   23.8360 C   0  0  0  0  0  0  0  0  0  0  0  0
   13.4722  -18.9783   24.1224 C   0  0  0  0  0  0  0  0  0  0  0  0
   14.8154  -18.9987   24.7673 C   0  0  0  0  0  0  0  0  0  0  0  0
   14.7229  -19.7555   26.1028 C   0  0  0  0  0  0  0  0  0  0  0  0
   16.1025  -19.8564   26.7359 N   0  0  0  0  0  0  0  0  0  0  0  0
   16.0820  -20.4781   28.0344 C   0  0  0  0  0  0  0  0  0  0  0  0
   13.7563  -16.7109   23.0875 O   0  0  0  0  0  0  0  0  0  0  0  0
   13.7939  -16.6788   21.8606 O   0  0  0  0  0  0  0  0  0  0  0  0
  2  1  1  1
  2  3  1  0
  3  4  1  0
  4  5  2  0
  5  6  1  0
  7  6  2  0
  8  7  1  0
  9  4  1  0
  9  8  2  0
 10  2  1  0
 11 10  2  0
 13 15  1  0
 13 12  1  0
 14 13  2  0
 16 17  1  0
 16 15  1  0
 17 18  1  0
 19 18  1  6
 19 21  1  0
 19 20  1  0
 20 10  1  0
 21 23  1  0
 22 21  2  0
 23 24  1  0
 24 25  1  6
 24 30  1  0
 25 26  1  0
 27 26  1  0
 28 27  1  0
 29 28  1  0
 30 31  2  0
 30 32  1  0
M  END
$$$$
