FRK.pdb
     RDKit          3D

 32 32  0  0  1  0  0  0  0  0999 V2000
    5.8984  -17.8060   25.8048 N   0  0  0  0  0  0  0  0  0  0  0  0
    6.1866  -16.4295   25.5002 C   0  0  1  0  0  0  0  0  0  0  0  0
    6.8983  -15.8196   26.7019 C   0  0  0  0  0  0  0  0  0  0  0  0
    6.9114  -14.3407   26.6677 C   0  0  0  0  0  0  0  0  0  0  0  0
    8.0804  -13.5972   26.6465 C   0  0  0  0  0  0  0  0  0  0  0  0
    8.0484  -12.2255   26.6224 C   0  0  0  0  0  0  0  0  0  0  0  0
    6.8440  -11.5168   26.6174 C   0  0  0  0  0  0  0  0  0  0  0  0
    5.6897  -12.2619   26.6377 C   0  0  0  0  0  0  0  0  0  0  0  0
    5.7185  -13.6184   26.6619 C   0  0  0  0  0  0  0  0  0  0  0  0
    7.0512  -16.3559   24.2978 C   0  0  0  0  0  0  0  0  0  0  0  0
    7.9777  -17.1907   24.1592 O   0  0  0  0  0  0  0  0  0  0  0  0
    8.2021  -13.1765   16.6684 N   0  0  0  0  0  0  0  0  0  0  0  0
    8.9210  -14.2498   17.2503 C   0  0  0  0  0  0  0  0  0  0  0  0
   10.2260  -14.2366   17.2284 N   0  0  0  0  0  0  0  0  0  0  0  0
    8.2331  -15.3432   17.8529 N   0  0  0  0  0  0  0  0  0  0  0  0
    7.5451  -15.1654   19.0956 C   0  0  0  0  0  0  0  0  0  0  0  0
    8.1862  -14.0682   19.9570 C   0  0  0  0  0  0  0  0  0  0  0  0
    7.4214  -14.0846   21.2513 C   0  0  0  0  0  0  0  0  0  0  0  0
    7.7125  -15.2348   22.1522 C   0  0  2  0  0  0  0  0  0  0  0  0
    6.8685  -15.3697   23.2918 N   0  0  0  0  0  0  0  0  0  0  0  0
    9.1647  -15.3164   22.5191 C   0  0  0  0  0  0  0  0  0  0  0  0
    9.7195  -14.4037   23.1934 O   0  0  0  0  0  0  0  0  0  0  0  0
   10.7446  -15.0274   17.6514 N   0  0  0  0  0  0  0  0  0  0  0  0
    9.9928  -16.4035   22.1383 C   0  0  2  0  0  0  0  0  0  0  0  0
   11.3780  -16.5504   22.5916 C   0  0  0  0  0  0  0  0  0  0  0  0
   11.5783  -17.7911   23.3810 C   0  0  0  0  0  0  0  0  0  0  0  0
   12.9773  -18.1064   23.7858 C   0  0  0  0  0  0  0  0  0  0  0  0
   12.9983  -19.4579   24.5193 C   0  0  0  0  0  0  0  0  0  0  0  0
   14.4120  -19.7700   24.9865 N   0  0  0  0  0  0  0  0  0  0  0  0
   14.5119  -21.0304   25.6756 C   0  0  0  0  0  0  0  0  0  0  0  0
   12.3239  -16.3324   21.4813 O   0  0  0  0  0  0  0  0  0  0  0  0
   13.4829  -15.9667   21.6571 O   0  0  0  0  0  0  0  0  0  0  0  0
  2  1  1  1
  2  3  1  0
  3  4  1  0
  4  5  2  0
  5  6  1  0
  7  6  2  0
  8  7  1  0
  9  4  1  0
  9  8  2  0
 10  2  1  0
 11 10  2  0
 13 15  1  0
 13 12  1  0
 14 13  2  0
 16 17  1  0
 16 15  1  0
 17 18  1  0
 19 18  1  1
 19 21  1  0
 19 20  1  0
 20 10  1  0
 21 23  1  0
 22 21  2  0
 23 24  1  0
 24 25  1  6
 24 30  1  0
 25 26  1  0
 27 26  1  0
 28 27  1  0
 29 28  1  0
 30 31  2  0
 30 32  1  0
M  END
$$$$
