FRK.pdb
     RDKit          3D

 32 32  0  0  1  0  0  0  0  0999 V2000
    5.7799  -17.6021   25.0798 N   0  0  0  0  0  0  0  0  0  0  0  0
    6.1079  -16.2071   24.9482 C   0  0  1  0  0  0  0  0  0  0  0  0
    6.3648  -15.6495   26.3430 C   0  0  0  0  0  0  0  0  0  0  0  0
    6.4731  -14.1742   26.3571 C   0  0  0  0  0  0  0  0  0  0  0  0
    7.6830  -13.5078   26.4648 C   0  0  0  0  0  0  0  0  0  0  0  0
    7.7389  -12.1368   26.4814 C   0  0  0  0  0  0  0  0  0  0  0  0
    6.5864  -11.3515   26.3907 C   0  0  0  0  0  0  0  0  0  0  0  0
    5.3911  -12.0204   26.2834 C   0  0  0  0  0  0  0  0  0  0  0  0
    5.3330  -13.3761   26.2669 C   0  0  0  0  0  0  0  0  0  0  0  0
    7.3170  -16.0574   24.1030 C   0  0  0  0  0  0  0  0  0  0  0  0
    8.3305  -16.7522   24.3573 O   0  0  0  0  0  0  0  0  0  0  0  0
    7.8323  -12.7219   18.0011 N   0  0  0  0  0  0  0  0  0  0  0  0
    8.3732  -13.9786   17.6332 C   0  0  0  0  0  0  0  0  0  0  0  0
    9.1277  -14.0683   16.5718 N   0  0  0  0  0  0  0  0  0  0  0  0
    8.0966  -15.1434   18.4068 N   0  0  0  0  0  0  0  0  0  0  0  0
    7.3924  -15.0339   19.6483 C   0  0  0  0  0  0  0  0  0  0  0  0
    7.5229  -13.6330   20.2629 C   0  0  0  0  0  0  0  0  0  0  0  0
    8.5629  -13.7693   21.3399 C   0  0  0  0  0  0  0  0  0  0  0  0
    8.4929  -15.0227   22.1423 C   0  0  2  0  0  0  0  0  0  0  0  0
    7.3707  -15.1513   23.0103 N   0  0  0  0  0  0  0  0  0  0  0  0
    9.7828  -15.3186   22.8484 C   0  0  0  0  0  0  0  0  0  0  0  0
   10.2203  -14.5555   23.7549 O   0  0  0  0  0  0  0  0  0  0  0  0
    9.4228  -15.0048   16.2417 N   0  0  0  0  0  0  0  0  0  0  0  0
   10.5797  -16.4533   22.5479 C   0  0  2  0  0  0  0  0  0  0  0  0
   11.8051  -16.7856   23.2784 C   0  0  0  0  0  0  0  0  0  0  0  0
   11.7668  -18.1604   23.8364 C   0  0  0  0  0  0  0  0  0  0  0  0
   13.0167  -18.6552   24.4793 C   0  0  0  0  0  0  0  0  0  0  0  0
   12.8104  -20.1108   24.9304 C   0  0  0  0  0  0  0  0  0  0  0  0
   14.0433  -20.6003   25.6752 N   0  0  0  0  0  0  0  0  0  0  0  0
   13.8955  -21.9361   26.1918 C   0  0  0  0  0  0  0  0  0  0  0  0
   13.0018  -16.4436   22.4873 O   0  0  0  0  0  0  0  0  0  0  0  0
   14.0524  -16.0670   22.9995 O   0  0  0  0  0  0  0  0  0  0  0  0
  2  1  1  1
  2  3  1  0
  3  4  1  0
  4  5  2  0
  5  6  1  0
  7  6  2  0
  8  7  1  0
  9  4  1  0
  9  8  2  0
 10  2  1  0
 11 10  2  0
 13 15  1  0
 13 12  1  0
 14 13  2  0
 16 17  1  0
 16 15  1  0
 17 18  1  0
 19 18  1  1
 19 21  1  0
 19 20  1  0
 20 10  1  0
 21 23  1  0
 22 21  2  0
 23 24  1  0
 24 25  1  1
 24 30  1  0
 25 26  1  0
 27 26  1  0
 28 27  1  0
 29 28  1  0
 30 31  2  0
 30 32  1  0
M  END
$$$$
