FRK.pdb
     RDKit          3D

 32 32  0  0  1  0  0  0  0  0999 V2000
    5.8929  -18.0905   25.5677 N   0  0  0  0  0  0  0  0  0  0  0  0
    6.0299  -16.6797   25.3197 C   0  0  1  0  0  0  0  0  0  0  0  0
    6.4652  -16.0126   26.6190 C   0  0  0  0  0  0  0  0  0  0  0  0
    6.4806  -14.5363   26.5256 C   0  0  0  0  0  0  0  0  0  0  0  0
    5.3367  -13.7619   26.6331 C   0  0  0  0  0  0  0  0  0  0  0  0
    5.3938  -12.3945   26.5333 C   0  0  0  0  0  0  0  0  0  0  0  0
    6.5998  -11.7212   26.3203 C   0  0  0  0  0  0  0  0  0  0  0  0
    7.7291  -12.4967   26.2156 C   0  0  0  0  0  0  0  0  0  0  0  0
    7.6754  -13.8491   26.3138 C   0  0  0  0  0  0  0  0  0  0  0  0
    7.0441  -16.4562   24.2613 C   0  0  0  0  0  0  0  0  0  0  0  0
    8.0683  -17.1805   24.2334 O   0  0  0  0  0  0  0  0  0  0  0  0
    7.4994  -15.2604   17.2101 N   0  0  0  0  0  0  0  0  0  0  0  0
    8.2198  -14.0867   16.8775 C   0  0  0  0  0  0  0  0  0  0  0  0
    8.8005  -13.9971   15.7119 N   0  0  0  0  0  0  0  0  0  0  0  0
    8.3202  -13.0084   17.8042 N   0  0  0  0  0  0  0  0  0  0  0  0
    7.6652  -13.0864   19.0747 C   0  0  0  0  0  0  0  0  0  0  0  0
    8.3596  -14.0763   20.0208 C   0  0  0  0  0  0  0  0  0  0  0  0
    7.4411  -14.2021   21.2044 C   0  0  0  0  0  0  0  0  0  0  0  0
    7.7785  -15.2911   22.1635 C   0  0  2  0  0  0  0  0  0  0  0  0
    6.8982  -15.4467   23.2726 N   0  0  0  0  0  0  0  0  0  0  0  0
    9.2153  -15.2465   22.5920 C   0  0  0  0  0  0  0  0  0  0  0  0
    9.6374  -14.3423   23.3664 O   0  0  0  0  0  0  0  0  0  0  0  0
    9.2716  -13.1122   15.4509 N   0  0  0  0  0  0  0  0  0  0  0  0
   10.1745  -16.1992   22.1619 C   0  0  2  0  0  0  0  0  0  0  0  0
   11.4830  -16.3603   22.8004 C   0  0  0  0  0  0  0  0  0  0  0  0
   11.5185  -17.5305   23.7126 C   0  0  0  0  0  0  0  0  0  0  0  0
   12.6128  -17.5559   24.7238 C   0  0  0  0  0  0  0  0  0  0  0  0
   12.4733  -18.8209   25.5870 C   0  0  0  0  0  0  0  0  0  0  0  0
   13.6343  -18.9085   26.5662 N   0  0  0  0  0  0  0  0  0  0  0  0
   13.4851  -19.9748   27.5223 C   0  0  0  0  0  0  0  0  0  0  0  0
   12.5697  -16.2841   21.8063 O   0  0  0  0  0  0  0  0  0  0  0  0
   12.4271  -16.6312   20.6371 O   0  0  0  0  0  0  0  0  0  0  0  0
  2  1  1  1
  2  3  1  0
  3  4  1  0
  4  5  2  0
  5  6  1  0
  7  6  2  0
  8  7  1  0
  9  4  1  0
  9  8  2  0
 10  2  1  0
 11 10  2  0
 13 15  1  0
 13 12  1  0
 14 13  2  0
 16 17  1  0
 16 15  1  0
 17 18  1  0
 19 18  1  1
 19 21  1  0
 19 20  1  0
 20 10  1  0
 21 23  1  0
 22 21  2  0
 23 24  1  0
 24 25  1  6
 24 30  1  0
 25 26  1  0
 27 26  1  0
 28 27  1  0
 29 28  1  0
 30 31  2  0
 30 32  1  0
M  END
$$$$
