KTL.pdb
     RDKit          3D

 25 24  0  0  1  0  0  0  0  0999 V2000
   28.5872  -20.4489  -15.5782 N   0  0  0  0  0  0  0  0  0  0  0  0
   27.8373  -19.6902  -14.6391 C   0  0  1  0  0  0  0  0  0  0  0  0
   27.1716  -18.4545  -15.1555 C   0  0  0  0  0  0  0  0  0  0  0  0
   28.0247  -17.6850  -16.0947 C   0  0  0  0  0  0  0  0  0  0  0  0
   28.2152  -18.3538  -17.4079 C   0  0  0  0  0  0  0  0  0  0  0  0
   28.9670  -17.3441  -18.2929 C   0  0  0  0  0  0  0  0  0  0  0  0
   29.1404  -17.9484  -19.5823 N   0  0  0  0  0  0  0  0  0  0  0  0
   26.7278  -20.5677  -14.1195 C   0  0  0  0  0  0  0  0  0  0  0  0
   26.5590  -21.7007  -14.6248 O   0  0  0  0  0  0  0  0  0  0  0  0
   26.4330  -21.5722  -10.6854 C   0  0  0  0  0  0  0  0  0  0  0  0
   25.0700  -20.9815  -10.9921 C   0  0  1  0  0  0  0  0  0  0  0  0
   25.0627  -19.6814  -10.5070 O   0  0  0  0  0  0  0  0  0  0  0  0
   24.9024  -20.9185  -12.5073 C   0  0  2  0  0  0  0  0  0  0  0  0
   25.9316  -20.0465  -13.0731 N   0  0  0  0  0  0  0  0  0  0  0  0
   23.5715  -20.2948  -12.7882 C   0  0  0  0  0  0  0  0  0  0  0  0
   23.4791  -19.0436  -13.0233 O   0  0  0  0  0  0  0  0  0  0  0  0
   21.0852  -19.3655  -17.0343 C   0  0  0  0  0  0  0  0  0  0  0  0
   20.4235  -19.4522  -15.6132 C   0  0  1  0  0  0  0  0  0  0  0  0
   19.1150  -20.1202  -15.8658 C   0  0  0  0  0  0  0  0  0  0  0  0
   21.3943  -20.1257  -14.7379 C   0  0  0  0  0  0  0  0  0  0  0  0
   21.1055  -20.4069  -13.3205 C   0  0  2  0  0  0  0  0  0  0  0  0
   22.3664  -21.0358  -12.8104 N   0  0  0  0  0  0  0  0  0  0  0  0
   19.9936  -21.3267  -13.0766 C   0  0  0  0  0  0  0  0  0  0  0  0
   20.1074  -22.5446  -13.1959 O   0  0  0  0  0  0  0  0  0  0  0  0
   18.7326  -20.8339  -12.6895 O   0  0  0  0  0  0  0  0  0  0  0  0
  2  1  1  6
  2  3  1  0
  3  4  1  0
  5  6  1  0
  5  4  1  0
  6  7  1  0
  8  2  1  0
  9  8  2  0
 11 10  1  6
 11 12  1  0
 11 13  1  0
 13 14  1  6
 14  8  1  0
 15 13  1  0
 15 22  1  0
 16 15  2  0
 18 17  1  6
 18 20  1  0
 19 18  1  0
 21 20  1  6
 21 22  1  0
 21 23  1  0
 23 25  1  0
 24 23  2  0
M  END
$$$$
