KTL.pdb
     RDKit          3D

 25 24  0  0  1  0  0  0  0  0999 V2000
   17.1457  -14.6074  -15.1427 N   0  0  0  0  0  0  0  0  0  0  0  0
   16.5441  -13.4703  -15.7468 C   0  0  1  0  0  0  0  0  0  0  0  0
   15.1454  -13.1495  -15.3254 C   0  0  0  0  0  0  0  0  0  0  0  0
   14.1899  -14.2518  -15.5978 C   0  0  0  0  0  0  0  0  0  0  0  0
   12.7937  -13.9404  -15.1958 C   0  0  0  0  0  0  0  0  0  0  0  0
   11.9641  -15.1891  -15.5427 C   0  0  0  0  0  0  0  0  0  0  0  0
   10.5916  -14.8866  -15.2555 N   0  0  0  0  0  0  0  0  0  0  0  0
   17.3698  -12.2639  -15.3814 C   0  0  0  0  0  0  0  0  0  0  0  0
   17.7369  -12.1132  -14.1939 O   0  0  0  0  0  0  0  0  0  0  0  0
   20.6274  -11.4185  -16.6796 C   0  0  0  0  0  0  0  0  0  0  0  0
   19.7572  -10.2254  -17.0260 C   0  0  1  0  0  0  0  0  0  0  0  0
   19.2989  -10.4090  -18.3228 O   0  0  0  0  0  0  0  0  0  0  0  0
   18.5477  -10.2253  -16.0960 C   0  0  2  0  0  0  0  0  0  0  0  0
   17.6847  -11.3602  -16.4228 N   0  0  0  0  0  0  0  0  0  0  0  0
   17.7741   -8.9724  -16.3625 C   0  0  0  0  0  0  0  0  0  0  0  0
   16.6761   -9.0149  -17.0119 O   0  0  0  0  0  0  0  0  0  0  0  0
   14.1623   -5.9698  -16.8556 C   0  0  0  0  0  0  0  0  0  0  0  0
   15.0291   -5.7121  -15.5722 C   0  0  1  0  0  0  0  0  0  0  0  0
   14.0393   -5.7405  -14.4579 C   0  0  0  0  0  0  0  0  0  0  0  0
   16.1013   -6.7184  -15.5801 C   0  0  0  0  0  0  0  0  0  0  0  0
   17.3938   -6.4786  -16.2460 C   0  0  2  0  0  0  0  0  0  0  0  0
   18.2018   -7.6980  -15.9210 N   0  0  0  0  0  0  0  0  0  0  0  0
   18.1266   -5.2976  -15.7879 C   0  0  0  0  0  0  0  0  0  0  0  0
   18.9141   -5.3352  -14.8451 O   0  0  0  0  0  0  0  0  0  0  0  0
   17.9481   -4.0556  -16.4270 O   0  0  0  0  0  0  0  0  0  0  0  0
  2  1  1  1
  2  3  1  0
  3  4  1  0
  5  6  1  0
  5  4  1  0
  6  7  1  0
  8  2  1  0
  9  8  2  0
 11 10  1  1
 11 12  1  0
 11 13  1  0
 13 14  1  6
 14  8  1  0
 15 13  1  0
 15 22  1  0
 16 15  2  0
 18 17  1  6
 18 20  1  0
 19 18  1  0
 21 20  1  1
 21 22  1  0
 21 23  1  0
 23 25  1  0
 24 23  2  0
M  END
$$$$
