KTL.pdb
     RDKit          3D

 25 24  0  0  1  0  0  0  0  0999 V2000
   30.2753  -26.4243  -16.7639 N   0  0  0  0  0  0  0  0  0  0  0  0
   29.0024  -26.3001  -17.3838 C   0  0  1  0  0  0  0  0  0  0  0  0
   28.1637  -27.5369  -17.4449 C   0  0  0  0  0  0  0  0  0  0  0  0
   28.9329  -28.7403  -17.8479 C   0  0  0  0  0  0  0  0  0  0  0  0
   29.1579  -28.8381  -19.3134 C   0  0  0  0  0  0  0  0  0  0  0  0
   29.8578  -30.1887  -19.5458 C   0  0  0  0  0  0  0  0  0  0  0  0
   31.2563  -29.9975  -19.2902 N   0  0  0  0  0  0  0  0  0  0  0  0
   28.2006  -25.2992  -16.5924 C   0  0  0  0  0  0  0  0  0  0  0  0
   28.4187  -25.1764  -15.3657 O   0  0  0  0  0  0  0  0  0  0  0  0
   25.8818  -21.1310  -16.4923 C   0  0  0  0  0  0  0  0  0  0  0  0
   26.6841  -22.1710  -17.2508 C   0  0  1  0  0  0  0  0  0  0  0  0
   28.0218  -21.8159  -17.1521 O   0  0  0  0  0  0  0  0  0  0  0  0
   26.5033  -23.5182  -16.5578 C   0  0  2  0  0  0  0  0  0  0  0  0
   27.2337  -24.5464  -17.2986 N   0  0  0  0  0  0  0  0  0  0  0  0
   25.0481  -23.8625  -16.6140 C   0  0  0  0  0  0  0  0  0  0  0  0
   24.5417  -24.3642  -17.6729 O   0  0  0  0  0  0  0  0  0  0  0  0
   20.8911  -25.6979  -12.9192 C   0  0  0  0  0  0  0  0  0  0  0  0
   21.0987  -25.5566  -14.4690 C   0  0  1  0  0  0  0  0  0  0  0  0
   19.9176  -24.7666  -14.9197 C   0  0  0  0  0  0  0  0  0  0  0  0
   22.4385  -24.9826  -14.6630 C   0  0  0  0  0  0  0  0  0  0  0  0
   22.7056  -23.9448  -15.6746 C   0  0  2  0  0  0  0  0  0  0  0  0
   24.1688  -23.6589  -15.5245 N   0  0  0  0  0  0  0  0  0  0  0  0
   21.9656  -22.6941  -15.5016 C   0  0  0  0  0  0  0  0  0  0  0  0
   21.0831  -22.3375  -16.2789 O   0  0  0  0  0  0  0  0  0  0  0  0
   22.2484  -21.8429  -14.4161 O   0  0  0  0  0  0  0  0  0  0  0  0
  2  1  1  1
  2  3  1  0
  3  4  1  0
  5  6  1  0
  5  4  1  0
  6  7  1  0
  8  2  1  0
  9  8  2  0
 11 10  1  1
 11 12  1  0
 11 13  1  0
 13 14  1  6
 14  8  1  0
 15 13  1  0
 15 22  1  0
 16 15  2  0
 18 17  1  1
 18 20  1  0
 19 18  1  0
 21 20  1  1
 21 22  1  0
 21 23  1  0
 23 25  1  0
 24 23  2  0
M  END
$$$$
