KTL.pdb
     RDKit          3D

 25 24  0  0  1  0  0  0  0  0999 V2000
   17.7845  -28.0399   -7.4465 N   0  0  0  0  0  0  0  0  0  0  0  0
   17.4116  -28.4825   -6.1484 C   0  0  1  0  0  0  0  0  0  0  0  0
   18.1345  -29.6783   -5.6152 C   0  0  0  0  0  0  0  0  0  0  0  0
   17.8423  -30.9194   -6.3745 C   0  0  0  0  0  0  0  0  0  0  0  0
   18.5091  -32.1258   -5.8198 C   0  0  0  0  0  0  0  0  0  0  0  0
   18.2012  -33.2698   -6.8019 C   0  0  0  0  0  0  0  0  0  0  0  0
   18.7981  -34.4623   -6.2733 N   0  0  0  0  0  0  0  0  0  0  0  0
   17.6990  -27.3638   -5.1804 C   0  0  0  0  0  0  0  0  0  0  0  0
   18.6207  -26.5565   -5.4378 O   0  0  0  0  0  0  0  0  0  0  0  0
   15.6456  -24.6075   -4.2611 C   0  0  0  0  0  0  0  0  0  0  0  0
   15.8674  -25.3532   -2.9590 C   0  0  1  0  0  0  0  0  0  0  0  0
   14.7989  -26.2226   -2.7917 O   0  0  0  0  0  0  0  0  0  0  0  0
   17.1367  -26.1891   -3.0929 C   0  0  2  0  0  0  0  0  0  0  0  0
   16.8939  -27.2944   -4.0197 N   0  0  0  0  0  0  0  0  0  0  0  0
   17.4330  -26.7774   -1.7492 C   0  0  0  0  0  0  0  0  0  0  0  0
   17.2138  -28.0140   -1.5209 O   0  0  0  0  0  0  0  0  0  0  0  0
   21.7689  -25.3224    1.1336 C   0  0  0  0  0  0  0  0  0  0  0  0
   20.6977  -26.1816    0.3725 C   0  0  1  0  0  0  0  0  0  0  0  0
   21.3309  -27.5263    0.2572 C   0  0  0  0  0  0  0  0  0  0  0  0
   19.4452  -26.0621    1.1336 C   0  0  0  0  0  0  0  0  0  0  0  0
   18.1824  -26.6555    0.6592 C   0  0  2  0  0  0  0  0  0  0  0  0
   17.9614  -26.0179   -0.6788 N   0  0  0  0  0  0  0  0  0  0  0  0
   17.0122  -26.3959    1.4988 C   0  0  0  0  0  0  0  0  0  0  0  0
   16.1650  -25.5549    1.2067 O   0  0  0  0  0  0  0  0  0  0  0  0
   16.8171  -27.1171    2.6924 O   0  0  0  0  0  0  0  0  0  0  0  0
  2  1  1  6
  2  3  1  0
  3  4  1  0
  5  6  1  0
  5  4  1  0
  6  7  1  0
  8  2  1  0
  9  8  2  0
 11 10  1  6
 11 12  1  0
 11 13  1  0
 13 14  1  6
 14  8  1  0
 15 13  1  0
 15 22  1  0
 16 15  2  0
 18 17  1  1
 18 20  1  0
 19 18  1  0
 21 20  1  1
 21 22  1  0
 21 23  1  0
 23 25  1  0
 24 23  2  0
M  END
$$$$
