KTL.pdb
     RDKit          3D

 25 24  0  0  1  0  0  0  0  0999 V2000
   23.7278  -19.1790  -16.8675 N   0  0  0  0  0  0  0  0  0  0  0  0
   24.2026  -18.7289  -15.6057 C   0  0  1  0  0  0  0  0  0  0  0  0
   23.1840  -18.1559  -14.6725 C   0  0  0  0  0  0  0  0  0  0  0  0
   21.9552  -17.6961  -15.3659 C   0  0  0  0  0  0  0  0  0  0  0  0
   22.0991  -16.3640  -16.0083 C   0  0  0  0  0  0  0  0  0  0  0  0
   20.7222  -16.0326  -16.6102 C   0  0  0  0  0  0  0  0  0  0  0  0
   20.8412  -14.7739  -17.2880 N   0  0  0  0  0  0  0  0  0  0  0  0
   24.7964  -19.9135  -14.8881 C   0  0  0  0  0  0  0  0  0  0  0  0
   24.2093  -21.0179  -14.9449 O   0  0  0  0  0  0  0  0  0  0  0  0
   28.8399  -19.7196  -13.5950 C   0  0  0  0  0  0  0  0  0  0  0  0
   28.0956  -20.9482  -14.0821 C   0  0  1  0  0  0  0  0  0  0  0  0
   28.6884  -22.0543  -13.4899 O   0  0  0  0  0  0  0  0  0  0  0  0
   26.6547  -20.8661  -13.5869 C   0  0  2  0  0  0  0  0  0  0  0  0
   26.0032  -19.6996  -14.1822 N   0  0  0  0  0  0  0  0  0  0  0  0
   26.6982  -20.6578  -12.1057 C   0  0  0  0  0  0  0  0  0  0  0  0
   27.7973  -20.3692  -11.5242 O   0  0  0  0  0  0  0  0  0  0  0  0
   27.9987  -20.6989   -7.5177 C   0  0  0  0  0  0  0  0  0  0  0  0
   26.7545  -19.8025   -7.8546 C   0  0  1  0  0  0  0  0  0  0  0  0
   27.1363  -18.4528   -7.3499 C   0  0  0  0  0  0  0  0  0  0  0  0
   26.4979  -19.9635   -9.2936 C   0  0  0  0  0  0  0  0  0  0  0  0
   25.7006  -21.0829   -9.8251 C   0  0  2  0  0  0  0  0  0  0  0  0
   25.5529  -20.7644  -11.2819 N   0  0  0  0  0  0  0  0  0  0  0  0
   24.3664  -21.2356   -9.2433 C   0  0  0  0  0  0  0  0  0  0  0  0
   24.1915  -21.5839   -8.0778 O   0  0  0  0  0  0  0  0  0  0  0  0
   23.2178  -20.9827  -10.0178 O   0  0  0  0  0  0  0  0  0  0  0  0
  2  1  1  6
  2  3  1  0
  3  4  1  0
  5  6  1  0
  5  4  1  0
  6  7  1  0
  8  2  1  0
  9  8  2  0
 11 10  1  1
 11 12  1  0
 11 13  1  0
 13 14  1  6
 14  8  1  0
 15 13  1  0
 15 22  1  0
 16 15  2  0
 18 17  1  6
 18 20  1  0
 19 18  1  0
 21 20  1  1
 21 22  1  0
 21 23  1  0
 23 25  1  0
 24 23  2  0
M  END
$$$$
