VIV.pdb
     RDKit          3D

 23 22  0  0  1  0  0  0  0  0999 V2000
   27.9576  -17.0086  -16.1445 C   0  0  0  0  0  0  0  0  0  0  0  0
   26.9968  -18.0162  -15.5541 C   0  0  2  0  0  0  0  0  0  0  0  0
   25.9124  -17.2774  -14.8360 C   0  0  0  0  0  0  0  0  0  0  0  0
   27.7214  -18.9810  -14.6293 C   0  0  2  0  0  0  0  0  0  0  0  0
   28.6809  -19.7793  -15.3605 N   0  0  0  0  0  0  0  0  0  0  0  0
   26.7771  -19.8978  -13.9591 C   0  0  0  0  0  0  0  0  0  0  0  0
   26.4046  -20.9320  -14.5588 O   0  0  0  0  0  0  0  0  0  0  0  0
   26.6400  -20.5107   -8.5254 C   0  0  0  0  0  0  0  0  0  0  0  0
   26.5687  -20.9687   -9.9686 C   0  0  0  0  0  0  0  0  0  0  0  0
   25.2779  -20.4380  -10.5478 C   0  0  2  0  0  0  0  0  0  0  0  0
   24.1359  -21.2973  -10.0310 C   0  0  0  0  0  0  0  0  0  0  0  0
   25.2573  -20.5541  -12.0608 C   0  0  2  0  0  0  0  0  0  0  0  0
   26.2498  -19.6834  -12.6516 N   0  0  0  0  0  0  0  0  0  0  0  0
   23.8871  -20.2287  -12.5883 C   0  0  0  0  0  0  0  0  0  0  0  0
   23.4245  -19.0632  -12.4952 O   0  0  0  0  0  0  0  0  0  0  0  0
   20.2322  -21.2906  -15.6346 C   0  0  0  0  0  0  0  0  0  0  0  0
   21.5825  -21.6563  -15.0883 C   0  0  2  0  0  0  0  0  0  0  0  0
   21.6272  -23.1536  -14.8731 C   0  0  0  0  0  0  0  0  0  0  0  0
   21.7858  -20.9092  -13.7882 C   0  0  2  0  0  0  0  0  0  0  0  0
   23.0771  -21.2128  -13.2025 N   0  0  0  0  0  0  0  0  0  0  0  0
   20.7393  -21.2295  -12.7957 C   0  0  0  0  0  0  0  0  0  0  0  0
   20.9070  -22.1983  -12.0197 O   0  0  0  0  0  0  0  0  0  0  0  0
   19.5683  -20.4974  -12.6850 O   0  0  0  0  0  0  0  0  0  0  0  0
  2  1  1  1
  2  3  1  0
  4  2  1  0
  4  5  1  6
  6 13  1  0
  6  4  1  0
  7  6  2  0
  8  9  1  0
  9 10  1  0
 10 12  1  0
 10 11  1  1
 12 13  1  6
 12 14  1  0
 14 20  1  0
 15 14  2  0
 17 18  1  1
 17 16  1  0
 19 21  1  0
 19 17  1  0
 19 20  1  1
 21 23  1  0
 22 21  2  0
M  END
$$$$
