VIV.pdb
     RDKit          3D

 23 22  0  0  1  0  0  0  0  0999 V2000
   22.6383  -18.8477  -17.4702 C   0  0  0  0  0  0  0  0  0  0  0  0
   24.1047  -18.5133  -17.6286 C   0  0  2  0  0  0  0  0  0  0  0  0
   24.4777  -18.6733  -19.0683 C   0  0  0  0  0  0  0  0  0  0  0  0
   24.9620  -19.3896  -16.7295 C   0  0  2  0  0  0  0  0  0  0  0  0
   24.8589  -20.7815  -17.1102 N   0  0  0  0  0  0  0  0  0  0  0  0
   24.5571  -19.2696  -15.3142 C   0  0  0  0  0  0  0  0  0  0  0  0
   24.6199  -18.1502  -14.7567 O   0  0  0  0  0  0  0  0  0  0  0  0
   19.9262  -20.3815  -13.3763 C   0  0  0  0  0  0  0  0  0  0  0  0
   21.3059  -19.8090  -13.6339 C   0  0  0  0  0  0  0  0  0  0  0  0
   22.3002  -20.6789  -12.9004 C   0  0  2  0  0  0  0  0  0  0  0  0
   22.0370  -20.5485  -11.4093 C   0  0  0  0  0  0  0  0  0  0  0  0
   23.7255  -20.2118  -13.1313 C   0  0  2  0  0  0  0  0  0  0  0  0
   24.0905  -20.3605  -14.5231 N   0  0  0  0  0  0  0  0  0  0  0  0
   24.6729  -20.9793  -12.2512 C   0  0  0  0  0  0  0  0  0  0  0  0
   24.7879  -22.2261  -12.3669 O   0  0  0  0  0  0  0  0  0  0  0  0
   27.5584  -19.0377   -9.7400 C   0  0  0  0  0  0  0  0  0  0  0  0
   27.7048  -20.4244  -10.2980 C   0  0  2  0  0  0  0  0  0  0  0  0
   28.3306  -20.3282  -11.6726 C   0  0  0  0  0  0  0  0  0  0  0  0
   26.3314  -21.0561  -10.3638 C   0  0  2  0  0  0  0  0  0  0  0  0
   25.4616  -20.3323  -11.2706 N   0  0  0  0  0  0  0  0  0  0  0  0
   25.6808  -21.1067   -9.0383 C   0  0  0  0  0  0  0  0  0  0  0  0
   24.7533  -20.3054   -8.7802 O   0  0  0  0  0  0  0  0  0  0  0  0
   26.0560  -22.0112   -8.0582 O   0  0  0  0  0  0  0  0  0  0  0  0
  2  1  1  6
  2  3  1  0
  4  2  1  0
  4  5  1  6
  6 13  1  0
  6  4  1  0
  7  6  2  0
  8  9  1  0
  9 10  1  0
 10 12  1  0
 10 11  1  1
 12 13  1  6
 12 14  1  0
 14 20  1  0
 15 14  2  0
 17 18  1  6
 17 16  1  0
 19 21  1  0
 19 17  1  0
 19 20  1  6
 21 23  1  0
 22 21  2  0
M  END
$$$$
