VIV.pdb
     RDKit          3D

 23 22  0  0  1  0  0  0  0  0999 V2000
   28.9227  -19.2857  -13.3175 C   0  0  0  0  0  0  0  0  0  0  0  0
   28.5339  -20.7460  -13.3755 C   0  0  2  0  0  0  0  0  0  0  0  0
   29.0415  -21.3242  -14.6583 C   0  0  0  0  0  0  0  0  0  0  0  0
   27.0285  -20.9131  -13.2454 C   0  0  2  0  0  0  0  0  0  0  0  0
   26.3383  -20.2721  -14.3433 N   0  0  0  0  0  0  0  0  0  0  0  0
   26.5279  -20.3289  -11.9846 C   0  0  0  0  0  0  0  0  0  0  0  0
   26.4059  -19.0858  -11.8967 O   0  0  0  0  0  0  0  0  0  0  0  0
   21.9124  -20.5309  -10.4359 C   0  0  0  0  0  0  0  0  0  0  0  0
   23.3708  -20.1762  -10.6478 C   0  0  0  0  0  0  0  0  0  0  0  0
   24.1529  -20.7776   -9.5032 C   0  0  2  0  0  0  0  0  0  0  0  0
   23.6964  -20.1138   -8.2146 C   0  0  0  0  0  0  0  0  0  0  0  0
   25.6380  -20.4943   -9.6341 C   0  0  2  0  0  0  0  0  0  0  0  0
   26.1668  -21.0965  -10.8383 N   0  0  0  0  0  0  0  0  0  0  0  0
   26.3723  -21.0005   -8.4232 C   0  0  0  0  0  0  0  0  0  0  0  0
   26.4496  -22.2336   -8.1895 O   0  0  0  0  0  0  0  0  0  0  0  0
   28.7879  -18.3938   -6.0757 C   0  0  0  0  0  0  0  0  0  0  0  0
   29.0580  -19.8642   -6.2187 C   0  0  2  0  0  0  0  0  0  0  0  0
   29.9214  -20.0798   -7.4428 C   0  0  0  0  0  0  0  0  0  0  0  0
   27.7309  -20.5791   -6.3509 C   0  0  2  0  0  0  0  0  0  0  0  0
   26.9965  -20.1160   -7.5123 N   0  0  0  0  0  0  0  0  0  0  0  0
   26.8794  -20.3914   -5.1583 C   0  0  0  0  0  0  0  0  0  0  0  0
   27.2492  -20.8677   -4.0604 O   0  0  0  0  0  0  0  0  0  0  0  0
   25.6771  -19.7043   -5.2018 O   0  0  0  0  0  0  0  0  0  0  0  0
  2  1  1  6
  2  3  1  0
  4  2  1  0
  4  5  1  6
  6 13  1  0
  6  4  1  0
  7  6  2  0
  8  9  1  0
  9 10  1  0
 10 12  1  0
 10 11  1  1
 12 13  1  6
 12 14  1  0
 14 20  1  0
 15 14  2  0
 17 18  1  6
 17 16  1  0
 19 21  1  0
 19 17  1  0
 19 20  1  6
 21 23  1  0
 22 21  2  0
M  END
$$$$
