VIV.pdb
     RDKit          3D

 23 22  0  0  1  0  0  0  0  0999 V2000
   17.8099  -24.4739  -11.9921 C   0  0  0  0  0  0  0  0  0  0  0  0
   18.7611  -25.0212  -10.9515 C   0  0  2  0  0  0  0  0  0  0  0  0
   18.2441  -26.3437  -10.4813 C   0  0  0  0  0  0  0  0  0  0  0  0
   18.9253  -24.0445   -9.7982 C   0  0  2  0  0  0  0  0  0  0  0  0
   17.6578  -23.7899   -9.1490 N   0  0  0  0  0  0  0  0  0  0  0  0
   19.4726  -22.7524  -10.2593 C   0  0  0  0  0  0  0  0  0  0  0  0
   18.7196  -21.7528  -10.2996 O   0  0  0  0  0  0  0  0  0  0  0  0
   24.2563  -20.9544   -8.7489 C   0  0  0  0  0  0  0  0  0  0  0  0
   22.7944  -21.0366   -9.1412 C   0  0  0  0  0  0  0  0  0  0  0  0
   22.7314  -21.0423  -10.6509 C   0  0  2  0  0  0  0  0  0  0  0  0
   23.1335  -19.6640  -11.1490 C   0  0  0  0  0  0  0  0  0  0  0  0
   21.3189  -21.2878  -11.1483 C   0  0  2  0  0  0  0  0  0  0  0  0
   20.8247  -22.5602  -10.6697 N   0  0  0  0  0  0  0  0  0  0  0  0
   21.2808  -21.2369  -12.6508 C   0  0  0  0  0  0  0  0  0  0  0  0
   21.9617  -22.0411  -13.3369 O   0  0  0  0  0  0  0  0  0  0  0  0
   18.2291  -21.4019  -14.8148 C   0  0  0  0  0  0  0  0  0  0  0  0
   18.9466  -20.1520  -15.2372 C   0  0  2  0  0  0  0  0  0  0  0  0
   18.8511  -20.0255  -16.7423 C   0  0  0  0  0  0  0  0  0  0  0  0
   20.3872  -20.2572  -14.7861 C   0  0  2  0  0  0  0  0  0  0  0  0
   20.4851  -20.2914  -13.3398 N   0  0  0  0  0  0  0  0  0  0  0  0
   21.2059  -19.1309  -15.2801 C   0  0  0  0  0  0  0  0  0  0  0  0
   21.1953  -18.0455  -14.6550 O   0  0  0  0  0  0  0  0  0  0  0  0
   21.9929  -19.2241  -16.4164 O   0  0  0  0  0  0  0  0  0  0  0  0
  2  1  1  6
  2  3  1  0
  4  2  1  0
  4  5  1  6
  6 13  1  0
  6  4  1  0
  7  6  2  0
  8  9  1  0
  9 10  1  0
 10 12  1  0
 10 11  1  1
 12 13  1  6
 12 14  1  0
 14 20  1  0
 15 14  2  0
 17 18  1  6
 17 16  1  0
 19 21  1  0
 19 17  1  0
 19 20  1  1
 21 23  1  0
 22 21  2  0
M  END
$$$$
