VIV.pdb
     RDKit          3D

 23 22  0  0  1  0  0  0  0  0999 V2000
   22.1379  -18.8605  -15.1117 C   0  0  0  0  0  0  0  0  0  0  0  0
   23.0148  -18.0385  -16.0295 C   0  0  2  0  0  0  0  0  0  0  0  0
   22.1384  -17.2957  -16.9875 C   0  0  0  0  0  0  0  0  0  0  0  0
   24.0159  -18.9204  -16.7583 C   0  0  2  0  0  0  0  0  0  0  0  0
   23.3450  -19.8336  -17.6576 N   0  0  0  0  0  0  0  0  0  0  0  0
   24.8219  -19.7176  -15.8115 C   0  0  0  0  0  0  0  0  0  0  0  0
   24.3911  -20.8309  -15.4336 O   0  0  0  0  0  0  0  0  0  0  0  0
   28.6843  -21.8998  -15.6634 C   0  0  0  0  0  0  0  0  0  0  0  0
   28.8435  -20.3936  -15.7242 C   0  0  0  0  0  0  0  0  0  0  0  0
   28.3004  -19.8294  -14.4318 C   0  0  2  0  0  0  0  0  0  0  0  0
   28.9602  -20.5652  -13.2773 C   0  0  0  0  0  0  0  0  0  0  0  0
   26.8077  -20.0705  -14.3028 C   0  0  2  0  0  0  0  0  0  0  0  0
   26.0808  -19.2998  -15.2877 N   0  0  0  0  0  0  0  0  0  0  0  0
   26.3439  -19.7261  -12.9144 C   0  0  0  0  0  0  0  0  0  0  0  0
   26.4180  -18.5455  -12.4881 O   0  0  0  0  0  0  0  0  0  0  0  0
   23.0487  -20.8684  -11.3420 C   0  0  0  0  0  0  0  0  0  0  0  0
   24.1228  -21.1977  -10.3453 C   0  0  2  0  0  0  0  0  0  0  0  0
   23.6234  -20.8419   -8.9617 C   0  0  0  0  0  0  0  0  0  0  0  0
   25.3603  -20.4036  -10.7026 C   0  0  2  0  0  0  0  0  0  0  0  0
   25.8124  -20.7088  -12.0461 N   0  0  0  0  0  0  0  0  0  0  0  0
   26.4744  -20.6637   -9.7678 C   0  0  0  0  0  0  0  0  0  0  0  0
   27.2226  -21.6486   -9.9655 O   0  0  0  0  0  0  0  0  0  0  0  0
   26.7303  -19.8572   -8.6707 O   0  0  0  0  0  0  0  0  0  0  0  0
  2  1  1  1
  2  3  1  0
  4  2  1  0
  4  5  1  6
  6 13  1  0
  6  4  1  0
  7  6  2  0
  8  9  1  0
  9 10  1  0
 10 12  1  0
 10 11  1  1
 12 13  1  6
 12 14  1  0
 14 20  1  0
 15 14  2  0
 17 18  1  1
 17 16  1  0
 19 21  1  0
 19 17  1  0
 19 20  1  6
 21 23  1  0
 22 21  2  0
M  END
$$$$
