VIV.pdb
     RDKit          3D

 23 22  0  0  1  0  0  0  0  0999 V2000
   24.5525  -20.2646  -13.5562 C   0  0  0  0  0  0  0  0  0  0  0  0
   23.1511  -20.4294  -14.1004 C   0  0  2  0  0  0  0  0  0  0  0  0
   23.0017  -19.5563  -15.3058 C   0  0  0  0  0  0  0  0  0  0  0  0
   22.1138  -20.0979  -13.0397 C   0  0  2  0  0  0  0  0  0  0  0  0
   22.1902  -18.7052  -12.6562 N   0  0  0  0  0  0  0  0  0  0  0  0
   22.3015  -20.9191  -11.8265 C   0  0  0  0  0  0  0  0  0  0  0  0
   22.2368  -22.1661  -11.9202 O   0  0  0  0  0  0  0  0  0  0  0  0
   25.8824  -19.7483   -7.9435 C   0  0  0  0  0  0  0  0  0  0  0  0
   25.0379  -20.5477   -8.9159 C   0  0  0  0  0  0  0  0  0  0  0  0
   23.6352  -20.6029   -8.3567 C   0  0  2  0  0  0  0  0  0  0  0  0
   23.6427  -21.5171   -7.1427 C   0  0  0  0  0  0  0  0  0  0  0  0
   22.6629  -21.2106   -9.3508 C   0  0  2  0  0  0  0  0  0  0  0  0
   22.5564  -20.3807  -10.5308 N   0  0  0  0  0  0  0  0  0  0  0  0
   21.3145  -21.3966   -8.7116 C   0  0  0  0  0  0  0  0  0  0  0  0
   20.5664  -20.4096   -8.4943 O   0  0  0  0  0  0  0  0  0  0  0  0
   18.4484  -23.0275   -9.9283 C   0  0  0  0  0  0  0  0  0  0  0  0
   18.6657  -23.7518   -8.6307 C   0  0  2  0  0  0  0  0  0  0  0  0
   17.3190  -24.0112   -7.9910 C   0  0  0  0  0  0  0  0  0  0  0  0
   19.5359  -22.8868   -7.7451 C   0  0  2  0  0  0  0  0  0  0  0  0
   20.8436  -22.6767   -8.3353 N   0  0  0  0  0  0  0  0  0  0  0  0
   19.7216  -23.4778   -6.4039 C   0  0  0  0  0  0  0  0  0  0  0  0
   20.6899  -24.2463   -6.2019 O   0  0  0  0  0  0  0  0  0  0  0  0
   18.8625  -23.2164   -5.3490 O   0  0  0  0  0  0  0  0  0  0  0  0
  2  1  1  1
  2  3  1  0
  4  2  1  0
  4  5  1  1
  6 13  1  0
  6  4  1  0
  7  6  2  0
  8  9  1  0
  9 10  1  0
 10 12  1  0
 10 11  1  1
 12 13  1  6
 12 14  1  0
 14 20  1  0
 15 14  2  0
 17 18  1  1
 17 16  1  0
 19 21  1  0
 19 17  1  0
 19 20  1  6
 21 23  1  0
 22 21  2  0
M  END
$$$$
