VIV.pdb
     RDKit          3D

 23 22  0  0  1  0  0  0  0  0999 V2000
   18.0236  -24.4678   -9.5018 C   0  0  0  0  0  0  0  0  0  0  0  0
   19.1345  -24.8903   -8.5665 C   0  0  2  0  0  0  0  0  0  0  0  0
   18.6895  -26.1048   -7.8152 C   0  0  0  0  0  0  0  0  0  0  0  0
   19.5114  -23.7584   -7.6242 C   0  0  2  0  0  0  0  0  0  0  0  0
   18.3719  -23.3343   -6.8404 N   0  0  0  0  0  0  0  0  0  0  0  0
   20.0206  -22.5866   -8.3652 C   0  0  0  0  0  0  0  0  0  0  0  0
   19.2664  -21.6025   -8.5392 O   0  0  0  0  0  0  0  0  0  0  0  0
   25.0890  -20.7021   -7.8085 C   0  0  0  0  0  0  0  0  0  0  0  0
   23.5853  -20.8374   -7.9440 C   0  0  0  0  0  0  0  0  0  0  0  0
   23.2862  -21.1184   -9.3983 C   0  0  2  0  0  0  0  0  0  0  0  0
   23.6797  -19.8951  -10.2097 C   0  0  0  0  0  0  0  0  0  0  0  0
   21.8019  -21.3330   -9.6301 C   0  0  2  0  0  0  0  0  0  0  0  0
   21.3368  -22.4961   -8.9066 N   0  0  0  0  0  0  0  0  0  0  0  0
   21.5211  -21.4775  -11.1003 C   0  0  0  0  0  0  0  0  0  0  0  0
   21.9560  -22.4678  -11.7417 O   0  0  0  0  0  0  0  0  0  0  0  0
   18.0815  -21.1248  -12.8141 C   0  0  0  0  0  0  0  0  0  0  0  0
   19.0322  -20.1899  -13.5052 C   0  0  2  0  0  0  0  0  0  0  0  0
   18.7408  -20.2153  -14.9900 C   0  0  0  0  0  0  0  0  0  0  0  0
   20.4442  -20.6504  -13.2156 C   0  0  2  0  0  0  0  0  0  0  0  0
   20.7647  -20.5138  -11.8081 N   0  0  0  0  0  0  0  0  0  0  0  0
   21.4448  -19.8927  -13.9950 C   0  0  0  0  0  0  0  0  0  0  0  0
   21.8138  -18.7670  -13.5880 O   0  0  0  0  0  0  0  0  0  0  0  0
   21.9984  -20.3780  -15.1686 O   0  0  0  0  0  0  0  0  0  0  0  0
  2  1  1  6
  2  3  1  0
  4  2  1  0
  4  5  1  6
  6 13  1  0
  6  4  1  0
  7  6  2  0
  8  9  1  0
  9 10  1  0
 10 12  1  0
 10 11  1  6
 12 13  1  1
 12 14  1  0
 14 20  1  0
 15 14  2  0
 17 18  1  6
 17 16  1  0
 19 21  1  0
 19 17  1  0
 19 20  1  1
 21 23  1  0
 22 21  2  0
M  END
$$$$
