MSI.pdb
     RDKit          3D

 23 22  0  0  1  0  0  0  0  0999 V2000
    8.6427  -11.5053   18.0279 C   0  0  0  0  0  0  0  0  0  0  0  0
    7.9057  -12.2475   19.5107 S   0  0  0  0  0  0  0  0  0  0  0  0
    8.1584  -14.0456   19.4358 C   0  0  0  0  0  0  0  0  0  0  0  0
    7.5709  -14.6441   20.6757 C   0  0  0  0  0  0  0  0  0  0  0  0
    7.6653  -16.1676   20.6248 C   0  0  2  0  0  0  0  0  0  0  0  0
    6.6321  -16.6443   19.7615 N   0  0  0  0  0  0  0  0  0  0  0  0
    7.5110  -16.6345   22.0289 C   0  0  0  0  0  0  0  0  0  0  0  0
    6.3542  -16.6253   22.5166 O   0  0  0  0  0  0  0  0  0  0  0  0
   10.3096  -18.8672   24.3125 O   0  0  0  0  0  0  0  0  0  0  0  0
    9.0288  -18.5977   24.7158 C   0  0  0  0  0  0  0  0  0  0  0  0
    8.5086  -17.2538   24.2672 C   0  0  2  0  0  0  0  0  0  0  0  0
    8.5794  -17.0833   22.8382 N   0  0  0  0  0  0  0  0  0  0  0  0
    9.2454  -16.2137   25.0067 C   0  0  0  0  0  0  0  0  0  0  0  0
   10.3104  -15.7326   24.5540 O   0  0  0  0  0  0  0  0  0  0  0  0
    6.4649  -12.4174   27.3225 C   0  0  0  0  0  0  0  0  0  0  0  0
    7.5378  -13.2412   26.6535 C   0  0  0  0  0  0  0  0  0  0  0  0
    8.4325  -13.8516   27.6809 C   0  0  2  0  0  0  0  0  0  0  0  0
    9.1388  -12.7896   28.5181 C   0  0  0  0  0  0  0  0  0  0  0  0
    9.4564  -14.8170   27.0920 C   0  0  2  0  0  0  0  0  0  0  0  0
    8.7230  -15.7637   26.2494 N   0  0  0  0  0  0  0  0  0  0  0  0
   10.2175  -15.5362   28.1432 C   0  0  0  0  0  0  0  0  0  0  0  0
   11.4185  -15.0573   28.6346 O   0  0  0  0  0  0  0  0  0  0  0  0
    9.7922  -16.6172   28.6285 O   0  0  0  0  0  0  0  0  0  0  0  0
  2  1  1  0
  2  3  1  0
  4  5  1  0
  4  3  1  0
  5  6  1  6
  7  5  1  0
  7  8  2  0
  9 10  1  0
 11 10  1  6
 11 13  1  0
 11 12  1  0
 12  7  1  0
 13 20  1  0
 14 13  2  0
 16 15  1  0
 17 18  1  6
 17 16  1  0
 19 17  1  0
 19 20  1  6
 21 22  1  0
 21 19  1  0
 23 21  2  0
M  END
$$$$
