MSI.pdb
     RDKit          3D

 23 22  0  0  1  0  0  0  0  0999 V2000
    8.8521  -11.7579   20.0438 C   0  0  0  0  0  0  0  0  0  0  0  0
    8.0549  -12.4214   18.5548 S   0  0  0  0  0  0  0  0  0  0  0  0
    8.2792  -14.2248   18.5417 C   0  0  0  0  0  0  0  0  0  0  0  0
    7.8202  -14.7543   19.8643 C   0  0  0  0  0  0  0  0  0  0  0  0
    8.1876  -16.2306   20.0006 C   0  0  2  0  0  0  0  0  0  0  0  0
    7.3652  -16.9739   19.1000 N   0  0  0  0  0  0  0  0  0  0  0  0
    7.9520  -16.5812   21.4270 C   0  0  0  0  0  0  0  0  0  0  0  0
    6.7604  -16.7088   21.8010 O   0  0  0  0  0  0  0  0  0  0  0  0
   10.5609  -18.5972   23.9635 O   0  0  0  0  0  0  0  0  0  0  0  0
    9.2460  -18.3410   24.2486 C   0  0  0  0  0  0  0  0  0  0  0  0
    8.7647  -16.9876   23.7857 C   0  0  2  0  0  0  0  0  0  0  0  0
    8.9804  -16.7771   22.3766 N   0  0  0  0  0  0  0  0  0  0  0  0
    9.4139  -15.9651   24.6249 C   0  0  0  0  0  0  0  0  0  0  0  0
   10.4893  -15.4277   24.2706 O   0  0  0  0  0  0  0  0  0  0  0  0
    6.5273  -12.1762   26.6855 C   0  0  0  0  0  0  0  0  0  0  0  0
    7.6436  -13.0342   26.1426 C   0  0  0  0  0  0  0  0  0  0  0  0
    8.3749  -13.6958   27.2635 C   0  0  2  0  0  0  0  0  0  0  0  0
    8.9925  -12.6760   28.2153 C   0  0  0  0  0  0  0  0  0  0  0  0
    9.4406  -14.6797   26.7908 C   0  0  2  0  0  0  0  0  0  0  0  0
    8.7948  -15.5973   25.8500 N   0  0  0  0  0  0  0  0  0  0  0  0
   10.0489  -15.4304   27.9167 C   0  0  0  0  0  0  0  0  0  0  0  0
   11.2015  -14.9978   28.5472 O   0  0  0  0  0  0  0  0  0  0  0  0
    9.5317  -16.4970   28.3410 O   0  0  0  0  0  0  0  0  0  0  0  0
  2  1  1  0
  2  3  1  0
  4  5  1  0
  4  3  1  0
  5  6  1  6
  7  5  1  0
  7  8  2  0
  9 10  1  0
 11 10  1  1
 11 13  1  0
 11 12  1  0
 12  7  1  0
 13 20  1  0
 14 13  2  0
 16 15  1  0
 17 18  1  6
 17 16  1  0
 19 17  1  0
 19 20  1  6
 21 22  1  0
 21 19  1  0
 23 21  2  0
M  END
$$$$
