MSI.pdb
     RDKit          3D

 23 22  0  0  1  0  0  0  0  0999 V2000
    8.0341  -12.2067   19.6021 C   0  0  0  0  0  0  0  0  0  0  0  0
    7.6747  -13.1774   18.1116 S   0  0  0  0  0  0  0  0  0  0  0  0
    7.8573  -14.9390   18.5190 C   0  0  0  0  0  0  0  0  0  0  0  0
    7.1786  -15.1798   19.8312 C   0  0  0  0  0  0  0  0  0  0  0  0
    7.2255  -16.6642   20.1876 C   0  0  2  0  0  0  0  0  0  0  0  0
    6.3892  -17.3650   19.2659 N   0  0  0  0  0  0  0  0  0  0  0  0
    6.7507  -16.7628   21.5940 C   0  0  0  0  0  0  0  0  0  0  0  0
    5.5750  -16.3936   21.8337 O   0  0  0  0  0  0  0  0  0  0  0  0
    8.6135  -18.8357   24.8404 O   0  0  0  0  0  0  0  0  0  0  0  0
    7.3914  -18.2213   24.9111 C   0  0  0  0  0  0  0  0  0  0  0  0
    7.2714  -16.9824   24.0577 C   0  0  2  0  0  0  0  0  0  0  0  0
    7.5374  -17.2428   22.6657 N   0  0  0  0  0  0  0  0  0  0  0  0
    8.1571  -15.9522   24.6285 C   0  0  0  0  0  0  0  0  0  0  0  0
    9.3209  -15.7891   24.1932 O   0  0  0  0  0  0  0  0  0  0  0  0
    6.1453  -11.3722   27.3118 C   0  0  0  0  0  0  0  0  0  0  0  0
    6.5155  -12.7929   26.9625 C   0  0  0  0  0  0  0  0  0  0  0  0
    7.8635  -12.8300   26.3220 C   0  0  2  0  0  0  0  0  0  0  0  0
    7.8141  -12.3551   24.8730 C   0  0  0  0  0  0  0  0  0  0  0  0
    8.5302  -14.2000   26.3989 C   0  0  2  0  0  0  0  0  0  0  0  0
    7.6644  -15.1425   25.6873 N   0  0  0  0  0  0  0  0  0  0  0  0
    8.7419  -14.6421   27.7993 C   0  0  0  0  0  0  0  0  0  0  0  0
    8.0641  -15.7214   28.3368 O   0  0  0  0  0  0  0  0  0  0  0  0
    9.5538  -14.0444   28.5535 O   0  0  0  0  0  0  0  0  0  0  0  0
  2  1  1  0
  2  3  1  0
  4  5  1  0
  4  3  1  0
  5  6  1  6
  7  5  1  0
  7  8  2  0
  9 10  1  0
 11 10  1  1
 11 13  1  0
 11 12  1  0
 12  7  1  0
 13 20  1  0
 14 13  2  0
 16 15  1  0
 17 18  1  6
 17 16  1  0
 19 17  1  0
 19 20  1  6
 21 22  1  0
 21 19  1  0
 23 21  2  0
M  END
$$$$
