MSI.pdb
     RDKit          3D

 23 22  0  0  1  0  0  0  0  0999 V2000
    8.8609  -11.6927   19.7424 C   0  0  0  0  0  0  0  0  0  0  0  0
    8.0540  -12.5862   18.3847 S   0  0  0  0  0  0  0  0  0  0  0  0
    8.3889  -14.3607   18.5895 C   0  0  0  0  0  0  0  0  0  0  0  0
    7.6191  -14.8389   19.7808 C   0  0  0  0  0  0  0  0  0  0  0  0
    7.8012  -16.3447   19.9599 C   0  0  2  0  0  0  0  0  0  0  0  0
    7.1169  -17.0011   18.8918 N   0  0  0  0  0  0  0  0  0  0  0  0
    7.2373  -16.6691   21.2978 C   0  0  0  0  0  0  0  0  0  0  0  0
    5.9891  -16.6252   21.4243 O   0  0  0  0  0  0  0  0  0  0  0  0
    8.6065  -18.9961   24.4229 O   0  0  0  0  0  0  0  0  0  0  0  0
    7.4686  -18.2363   24.4833 C   0  0  0  0  0  0  0  0  0  0  0  0
    7.5796  -16.8996   23.7915 C   0  0  2  0  0  0  0  0  0  0  0  0
    8.0163  -17.0203   22.4236 N   0  0  0  0  0  0  0  0  0  0  0  0
    8.4622  -16.0423   24.6024 C   0  0  0  0  0  0  0  0  0  0  0  0
    9.6737  -15.9063   24.3119 O   0  0  0  0  0  0  0  0  0  0  0  0
    6.1755  -11.6803   26.5810 C   0  0  0  0  0  0  0  0  0  0  0  0
    7.1387  -12.6883   26.0035 C   0  0  0  0  0  0  0  0  0  0  0  0
    7.8624  -13.3951   27.1014 C   0  0  2  0  0  0  0  0  0  0  0  0
    8.6922  -12.4309   27.9436 C   0  0  0  0  0  0  0  0  0  0  0  0
    8.7388  -14.5412   26.6059 C   0  0  2  0  0  0  0  0  0  0  0  0
    7.9112  -15.3688   25.7260 N   0  0  0  0  0  0  0  0  0  0  0  0
    9.2849  -15.3518   27.7221 C   0  0  0  0  0  0  0  0  0  0  0  0
   10.5270  -15.0953   28.2740 O   0  0  0  0  0  0  0  0  0  0  0  0
    8.6299  -16.3101   28.2101 O   0  0  0  0  0  0  0  0  0  0  0  0
  2  1  1  0
  2  3  1  0
  4  5  1  0
  4  3  1  0
  5  6  1  6
  7  5  1  0
  7  8  2  0
  9 10  1  0
 11 10  1  1
 11 13  1  0
 11 12  1  0
 12  7  1  0
 13 20  1  0
 14 13  2  0
 16 15  1  0
 17 18  1  6
 17 16  1  0
 19 17  1  0
 19 20  1  6
 21 22  1  0
 21 19  1  0
 23 21  2  0
M  END
$$$$
