MSI.pdb
     RDKit          3D

 23 22  0  0  1  0  0  0  0  0999 V2000
    7.5814  -11.8217   20.4030 C   0  0  0  0  0  0  0  0  0  0  0  0
    8.1695  -12.3586   18.7725 S   0  0  0  0  0  0  0  0  0  0  0  0
    8.2856  -14.1723   18.7755 C   0  0  0  0  0  0  0  0  0  0  0  0
    8.0857  -14.6429   20.1823 C   0  0  0  0  0  0  0  0  0  0  0  0
    8.3099  -16.1510   20.2734 C   0  0  2  0  0  0  0  0  0  0  0  0
    7.3280  -16.7922   19.4581 N   0  0  0  0  0  0  0  0  0  0  0  0
    8.1845  -16.4972   21.7148 C   0  0  0  0  0  0  0  0  0  0  0  0
    7.0569  -16.3523   22.2475 O   0  0  0  0  0  0  0  0  0  0  0  0
   11.1751  -18.5813   23.9326 O   0  0  0  0  0  0  0  0  0  0  0  0
    9.8601  -18.5272   24.3116 C   0  0  0  0  0  0  0  0  0  0  0  0
    9.1564  -17.2496   23.9235 C   0  0  2  0  0  0  0  0  0  0  0  0
    9.2494  -16.9748   22.5120 N   0  0  0  0  0  0  0  0  0  0  0  0
    9.6995  -16.1626   24.7570 C   0  0  0  0  0  0  0  0  0  0  0  0
   10.6797  -15.4831   24.3722 O   0  0  0  0  0  0  0  0  0  0  0  0
    6.7429  -12.4582   26.3734 C   0  0  0  0  0  0  0  0  0  0  0  0
    7.9468  -13.2931   26.0122 C   0  0  0  0  0  0  0  0  0  0  0  0
    8.5363  -13.9034   27.2405 C   0  0  2  0  0  0  0  0  0  0  0  0
    9.0468  -12.8417   28.2099 C   0  0  0  0  0  0  0  0  0  0  0  0
    9.6418  -14.9114   26.9422 C   0  0  2  0  0  0  0  0  0  0  0  0
    9.0880  -15.8975   26.0121 N   0  0  0  0  0  0  0  0  0  0  0  0
   10.1400  -15.5766   28.1713 C   0  0  0  0  0  0  0  0  0  0  0  0
   11.2190  -15.0852   28.8836 O   0  0  0  0  0  0  0  0  0  0  0  0
    9.5924  -16.6210   28.6123 O   0  0  0  0  0  0  0  0  0  0  0  0
  2  1  1  0
  2  3  1  0
  4  5  1  0
  4  3  1  0
  5  6  1  6
  7  5  1  0
  7  8  2  0
  9 10  1  0
 11 10  1  6
 11 13  1  0
 11 12  1  0
 12  7  1  0
 13 20  1  0
 14 13  2  0
 16 15  1  0
 17 18  1  1
 17 16  1  0
 19 17  1  0
 19 20  1  6
 21 22  1  0
 21 19  1  0
 23 21  2  0
M  END
$$$$
