MSI.pdb
     RDKit          3D

 23 22  0  0  1  0  0  0  0  0999 V2000
    8.1535  -11.8560   20.3638 C   0  0  0  0  0  0  0  0  0  0  0  0
    7.9992  -12.6532   18.7410 S   0  0  0  0  0  0  0  0  0  0  0  0
    7.3824  -14.3443   18.9913 C   0  0  0  0  0  0  0  0  0  0  0  0
    8.4717  -15.1389   19.6415 C   0  0  0  0  0  0  0  0  0  0  0  0
    7.9838  -16.5529   19.9508 C   0  0  2  0  0  0  0  0  0  0  0  0
    6.7903  -16.7809   19.2002 N   0  0  0  0  0  0  0  0  0  0  0  0
    7.7631  -16.5973   21.4213 C   0  0  0  0  0  0  0  0  0  0  0  0
    6.6601  -16.1806   21.8524 O   0  0  0  0  0  0  0  0  0  0  0  0
    8.5827  -18.7566   25.6220 O   0  0  0  0  0  0  0  0  0  0  0  0
    8.8671  -18.5664   24.2958 C   0  0  0  0  0  0  0  0  0  0  0  0
    8.4772  -17.2073   23.7680 C   0  0  2  0  0  0  0  0  0  0  0  0
    8.7124  -17.0763   22.3524 N   0  0  0  0  0  0  0  0  0  0  0  0
    9.1881  -16.1916   24.5645 C   0  0  0  0  0  0  0  0  0  0  0  0
   10.3593  -15.8505   24.2772 O   0  0  0  0  0  0  0  0  0  0  0  0
    6.2799  -12.1794   26.4929 C   0  0  0  0  0  0  0  0  0  0  0  0
    7.3775  -13.0537   25.9380 C   0  0  0  0  0  0  0  0  0  0  0  0
    8.1601  -13.6656   27.0524 C   0  0  2  0  0  0  0  0  0  0  0  0
    8.8255  -12.6052   27.9244 C   0  0  0  0  0  0  0  0  0  0  0  0
    9.1992  -14.6757   26.5759 C   0  0  2  0  0  0  0  0  0  0  0  0
    8.5174  -15.6026   25.6703 N   0  0  0  0  0  0  0  0  0  0  0  0
    9.8225  -15.4122   27.7031 C   0  0  0  0  0  0  0  0  0  0  0  0
   11.0090  -14.9983   28.2811 O   0  0  0  0  0  0  0  0  0  0  0  0
    9.2876  -16.4489   28.1766 O   0  0  0  0  0  0  0  0  0  0  0  0
  2  1  1  0
  2  3  1  0
  4  5  1  0
  4  3  1  0
  5  6  1  6
  7  5  1  0
  7  8  2  0
  9 10  1  0
 11 10  1  1
 11 13  1  0
 11 12  1  0
 12  7  1  0
 13 20  1  0
 14 13  2  0
 16 15  1  0
 17 18  1  6
 17 16  1  0
 19 17  1  0
 19 20  1  6
 21 22  1  0
 21 19  1  0
 23 21  2  0
M  END
$$$$
