MSI.pdb
     RDKit          3D

 23 22  0  0  1  0  0  0  0  0999 V2000
    7.8293  -11.9184   19.9252 C   0  0  0  0  0  0  0  0  0  0  0  0
    8.3336  -12.5913   18.3172 S   0  0  0  0  0  0  0  0  0  0  0  0
    8.3835  -14.4034   18.4462 C   0  0  0  0  0  0  0  0  0  0  0  0
    8.1607  -14.7680   19.8808 C   0  0  0  0  0  0  0  0  0  0  0  0
    8.1708  -16.2860   20.0495 C   0  0  2  0  0  0  0  0  0  0  0  0
    7.1505  -16.8291   19.2104 N   0  0  0  0  0  0  0  0  0  0  0  0
    7.9298  -16.5389   21.4956 C   0  0  0  0  0  0  0  0  0  0  0  0
    6.7934  -16.2581   21.9493 O   0  0  0  0  0  0  0  0  0  0  0  0
   10.6427  -18.6505   24.0489 O   0  0  0  0  0  0  0  0  0  0  0  0
    9.3131  -18.4919   24.3366 C   0  0  0  0  0  0  0  0  0  0  0  0
    8.7123  -17.2147   23.8021 C   0  0  2  0  0  0  0  0  0  0  0  0
    8.8953  -17.0712   22.3800 N   0  0  0  0  0  0  0  0  0  0  0  0
    9.2791  -16.0920   24.5700 C   0  0  0  0  0  0  0  0  0  0  0  0
   10.3076  -15.4946   24.1750 O   0  0  0  0  0  0  0  0  0  0  0  0
    6.0950  -12.4315   26.4448 C   0  0  0  0  0  0  0  0  0  0  0  0
    7.3038  -13.1803   25.9396 C   0  0  0  0  0  0  0  0  0  0  0  0
    8.0636  -13.7623   27.0853 C   0  0  2  0  0  0  0  0  0  0  0  0
    8.5881  -12.6799   28.0239 C   0  0  0  0  0  0  0  0  0  0  0  0
    9.2072  -14.6734   26.6499 C   0  0  2  0  0  0  0  0  0  0  0  0
    8.6344  -15.6969   25.7732 N   0  0  0  0  0  0  0  0  0  0  0  0
    9.8938  -15.3017   27.8054 C   0  0  0  0  0  0  0  0  0  0  0  0
    9.5475  -16.5583   28.2680 O   0  0  0  0  0  0  0  0  0  0  0  0
   10.8243  -14.7068   28.4100 O   0  0  0  0  0  0  0  0  0  0  0  0
  2  1  1  0
  2  3  1  0
  4  5  1  0
  4  3  1  0
  5  6  1  6
  7  5  1  0
  7  8  2  0
  9 10  1  0
 11 10  1  1
 11 13  1  0
 11 12  1  0
 12  7  1  0
 13 20  1  0
 14 13  2  0
 16 15  1  0
 17 18  1  6
 17 16  1  0
 19 17  1  0
 19 20  1  6
 21 22  1  0
 21 19  1  0
 23 21  2  0
M  END
$$$$
