MSI.pdb
     RDKit          3D

 23 22  0  0  1  0  0  0  0  0999 V2000
    8.5137  -11.5744   20.0350 C   0  0  0  0  0  0  0  0  0  0  0  0
    7.8913  -12.3736   18.5294 S   0  0  0  0  0  0  0  0  0  0  0  0
    8.3189  -14.1385   18.6006 C   0  0  0  0  0  0  0  0  0  0  0  0
    7.8587  -14.6696   19.9222 C   0  0  0  0  0  0  0  0  0  0  0  0
    8.1954  -16.1545   20.0430 C   0  0  2  0  0  0  0  0  0  0  0  0
    7.3190  -16.8766   19.1767 N   0  0  0  0  0  0  0  0  0  0  0  0
    8.0099  -16.5010   21.4778 C   0  0  0  0  0  0  0  0  0  0  0  0
    6.8351  -16.5199   21.9200 O   0  0  0  0  0  0  0  0  0  0  0  0
   10.8410  -18.4892   23.8623 O   0  0  0  0  0  0  0  0  0  0  0  0
    9.5302  -18.3344   24.2278 C   0  0  0  0  0  0  0  0  0  0  0  0
    8.9120  -17.0330   23.7783 C   0  0  2  0  0  0  0  0  0  0  0  0
    9.0678  -16.8072   22.3637 N   0  0  0  0  0  0  0  0  0  0  0  0
    9.4862  -15.9521   24.5989 C   0  0  0  0  0  0  0  0  0  0  0  0
   10.5056  -15.3281   24.2217 O   0  0  0  0  0  0  0  0  0  0  0  0
    6.5251  -12.1781   26.3276 C   0  0  0  0  0  0  0  0  0  0  0  0
    7.6963  -13.0319   25.9073 C   0  0  0  0  0  0  0  0  0  0  0  0
    8.3341  -13.6547   27.1048 C   0  0  2  0  0  0  0  0  0  0  0  0
    8.8683  -12.6027   28.0720 C   0  0  0  0  0  0  0  0  0  0  0  0
    9.4378  -14.6472   26.7526 C   0  0  2  0  0  0  0  0  0  0  0  0
    8.8592  -15.6283   25.8324 N   0  0  0  0  0  0  0  0  0  0  0  0
    9.9893  -15.3212   27.9538 C   0  0  0  0  0  0  0  0  0  0  0  0
    9.6109  -16.6022   28.3131 O   0  0  0  0  0  0  0  0  0  0  0  0
   10.8288  -14.7448   28.6942 O   0  0  0  0  0  0  0  0  0  0  0  0
  2  1  1  0
  2  3  1  0
  4  5  1  0
  4  3  1  0
  5  6  1  6
  7  5  1  0
  7  8  2  0
  9 10  1  0
 11 10  1  1
 11 13  1  0
 11 12  1  0
 12  7  1  0
 13 20  1  0
 14 13  2  0
 16 15  1  0
 17 18  1  1
 17 16  1  0
 19 17  1  0
 19 20  1  6
 21 22  1  0
 21 19  1  0
 23 21  2  0
M  END
$$$$
