MSI.pdb
     RDKit          3D

 23 22  0  0  1  0  0  0  0  0999 V2000
    8.5639  -11.6223   20.0479 C   0  0  0  0  0  0  0  0  0  0  0  0
    8.2064  -12.3509   18.4249 S   0  0  0  0  0  0  0  0  0  0  0  0
    8.7066  -14.0977   18.4599 C   0  0  0  0  0  0  0  0  0  0  0  0
    8.2716  -14.6739   19.7712 C   0  0  0  0  0  0  0  0  0  0  0  0
    8.6599  -16.1485   19.8570 C   0  0  2  0  0  0  0  0  0  0  0  0
    7.9112  -16.8592   18.8699 N   0  0  0  0  0  0  0  0  0  0  0  0
    8.3422  -16.5754   21.2462 C   0  0  0  0  0  0  0  0  0  0  0  0
    7.1342  -16.7672   21.5293 O   0  0  0  0  0  0  0  0  0  0  0  0
   10.8607  -18.5654   23.8816 O   0  0  0  0  0  0  0  0  0  0  0  0
    9.5250  -18.3677   24.1111 C   0  0  0  0  0  0  0  0  0  0  0  0
    9.0080  -17.0296   23.6420 C   0  0  2  0  0  0  0  0  0  0  0  0
    9.3105  -16.7757   22.2562 N   0  0  0  0  0  0  0  0  0  0  0  0
    9.5433  -15.9957   24.5452 C   0  0  0  0  0  0  0  0  0  0  0  0
   10.6338  -15.4282   24.3014 O   0  0  0  0  0  0  0  0  0  0  0  0
    6.3040  -12.3308   26.3384 C   0  0  0  0  0  0  0  0  0  0  0  0
    7.4642  -13.1842   25.8878 C   0  0  0  0  0  0  0  0  0  0  0  0
    8.1554  -13.7778   27.0704 C   0  0  2  0  0  0  0  0  0  0  0  0
    8.6429  -12.7037   28.0380 C   0  0  0  0  0  0  0  0  0  0  0  0
    9.3089  -14.7022   26.6936 C   0  0  2  0  0  0  0  0  0  0  0  0
    8.7961  -15.6519   25.7041 N   0  0  0  0  0  0  0  0  0  0  0  0
    9.8582  -15.4207   27.8698 C   0  0  0  0  0  0  0  0  0  0  0  0
   10.9326  -14.9315   28.5905 O   0  0  0  0  0  0  0  0  0  0  0  0
    9.3601  -16.5107   28.2559 O   0  0  0  0  0  0  0  0  0  0  0  0
  2  1  1  0
  2  3  1  0
  4  5  1  0
  4  3  1  0
  5  6  1  6
  7  5  1  0
  7  8  2  0
  9 10  1  0
 11 10  1  1
 11 13  1  0
 11 12  1  0
 12  7  1  0
 13 20  1  0
 14 13  2  0
 16 15  1  0
 17 18  1  1
 17 16  1  0
 19 17  1  0
 19 20  1  6
 21 22  1  0
 21 19  1  0
 23 21  2  0
M  END
$$$$
