MSI.pdb
     RDKit          3D

 23 22  0  0  1  0  0  0  0  0999 V2000
    8.9887  -11.9596   19.7670 C   0  0  0  0  0  0  0  0  0  0  0  0
    8.2969  -12.7529   18.2888 S   0  0  0  0  0  0  0  0  0  0  0  0
    8.3833  -14.5543   18.5135 C   0  0  0  0  0  0  0  0  0  0  0  0
    7.5792  -14.9049   19.7263 C   0  0  0  0  0  0  0  0  0  0  0  0
    7.6050  -16.4139   19.9611 C   0  0  2  0  0  0  0  0  0  0  0  0
    6.8190  -17.0318   18.9412 N   0  0  0  0  0  0  0  0  0  0  0  0
    7.0548  -16.6251   21.3271 C   0  0  0  0  0  0  0  0  0  0  0  0
    5.8418  -16.3575   21.5087 O   0  0  0  0  0  0  0  0  0  0  0  0
    8.5911  -19.0071   24.4249 O   0  0  0  0  0  0  0  0  0  0  0  0
    7.4120  -18.3163   24.5179 C   0  0  0  0  0  0  0  0  0  0  0  0
    7.4153  -16.9874   23.8025 C   0  0  2  0  0  0  0  0  0  0  0  0
    7.8098  -17.1046   22.4216 N   0  0  0  0  0  0  0  0  0  0  0  0
    8.2714  -16.0637   24.5677 C   0  0  0  0  0  0  0  0  0  0  0  0
    9.4369  -15.8014   24.1889 O   0  0  0  0  0  0  0  0  0  0  0  0
    5.6684  -12.0282   26.8975 C   0  0  0  0  0  0  0  0  0  0  0  0
    6.6691  -12.9116   26.1936 C   0  0  0  0  0  0  0  0  0  0  0  0
    7.5788  -13.5521   27.1890 C   0  0  2  0  0  0  0  0  0  0  0  0
    8.3532  -12.5147   27.9964 C   0  0  0  0  0  0  0  0  0  0  0  0
    8.5450  -14.5545   26.5654 C   0  0  2  0  0  0  0  0  0  0  0  0
    7.7481  -15.4726   25.7493 N   0  0  0  0  0  0  0  0  0  0  0  0
    9.3150  -15.3021   27.5899 C   0  0  0  0  0  0  0  0  0  0  0  0
   10.5552  -14.8757   28.0294 O   0  0  0  0  0  0  0  0  0  0  0  0
    8.8613  -16.3604   28.0993 O   0  0  0  0  0  0  0  0  0  0  0  0
  2  1  1  0
  2  3  1  0
  4  5  1  0
  4  3  1  0
  5  6  1  6
  7  5  1  0
  7  8  2  0
  9 10  1  0
 11 10  1  1
 11 13  1  0
 11 12  1  0
 12  7  1  0
 13 20  1  0
 14 13  2  0
 16 15  1  0
 17 18  1  6
 17 16  1  0
 19 17  1  0
 19 20  1  1
 21 22  1  0
 21 19  1  0
 23 21  2  0
M  END
$$$$
