KCY.pdb
     RDKit          3D

 28 28  0  0  1  0  0  0  0  0999 V2000
   18.2942  -12.8185  -16.5924 N   0  0  0  0  0  0  0  0  0  0  0  0
   18.8025  -11.5606  -17.0934 C   0  0  1  0  0  0  0  0  0  0  0  0
   18.0584  -11.1791  -18.3385 C   0  0  0  0  0  0  0  0  0  0  0  0
   18.6353  -11.9360  -19.5057 C   0  0  0  0  0  0  0  0  0  0  0  0
   17.9288  -11.5548  -20.7712 C   0  0  0  0  0  0  0  0  0  0  0  0
   18.4596  -12.3314  -21.9657 C   0  0  0  0  0  0  0  0  0  0  0  0
   17.5864  -12.0372  -23.0872 N   0  0  0  0  0  0  0  0  0  0  0  0
   18.5396  -10.4776  -16.0760 C   0  0  0  0  0  0  0  0  0  0  0  0
   17.4617  -10.4032  -15.4457 O   0  0  0  0  0  0  0  0  0  0  0  0
   19.5455   -9.5077  -15.8210 N   0  0  0  0  0  0  0  0  0  0  0  0
   19.3312   -8.5478  -14.7547 C   0  0  1  0  0  0  0  0  0  0  0  0
   19.3995   -9.2412  -13.3950 C   0  0  0  0  0  0  0  0  0  0  0  0
   19.1452   -8.0530  -12.0565 S   0  0  0  0  0  0  0  0  0  0  0  0
   20.5053   -7.6021  -14.7774 C   0  0  0  0  0  0  0  0  0  0  0  0
   21.6924   -8.0246  -14.7454 O   0  0  0  0  0  0  0  0  0  0  0  0
   19.6519   -5.5587  -20.9131 O   0  0  0  0  0  0  0  0  0  0  0  0
   20.0540   -5.2171  -19.6090 C   0  0  0  0  0  0  0  0  0  0  0  0
   19.2609   -4.3108  -18.9493 C   0  0  0  0  0  0  0  0  0  0  0  0
   19.6007   -3.9249  -17.6482 C   0  0  0  0  0  0  0  0  0  0  0  0
   20.7138   -4.4615  -17.0696 C   0  0  0  0  0  0  0  0  0  0  0  0
   21.1047   -4.0825  -15.7008 C   0  0  0  0  0  0  0  0  0  0  0  0
   21.4855   -5.3345  -14.9434 C   0  0  2  0  0  0  0  0  0  0  0  0
   20.3271   -6.2016  -14.8354 N   0  0  0  0  0  0  0  0  0  0  0  0
   21.9436   -5.0584  -13.5591 C   0  0  0  0  0  0  0  0  0  0  0  0
   21.3158   -5.5583  -12.5908 O   0  0  0  0  0  0  0  0  0  0  0  0
   21.4920   -5.3697  -17.7557 C   0  0  0  0  0  0  0  0  0  0  0  0
   21.1842   -5.7740  -19.0464 C   0  0  0  0  0  0  0  0  0  0  0  0
   23.0424   -4.2685  -13.2497 O   0  0  0  0  0  0  0  0  0  0  0  0
  2  1  1  1
  3  2  1  0
  4  5  1  0
  4  3  1  0
  5  6  1  0
  7  6  1  0
  8 10  1  0
  8  2  1  0
  9  8  2  0
 11 10  1  0
 11 12  1  1
 13 12  1  0
 14 11  1  0
 15 14  2  0
 16 17  1  0
 17 27  2  0
 17 18  1  0
 18 19  2  0
 19 20  1  0
 20 21  1  0
 22 21  1  1
 22 24  1  0
 22 23  1  0
 23 14  1  0
 24 28  1  0
 25 24  2  0
 26 20  2  0
 27 26  1  0
M  END
$$$$
