KCY.pdb
     RDKit          3D

 28 28  0  0  1  0  0  0  0  0999 V2000
   21.7653  -18.6575  -19.1255 N   0  0  0  0  0  0  0  0  0  0  0  0
   22.2592  -20.0132  -19.2239 C   0  0  1  0  0  0  0  0  0  0  0  0
   22.3020  -20.4282  -20.6646 C   0  0  0  0  0  0  0  0  0  0  0  0
   21.0172  -20.0141  -21.3324 C   0  0  0  0  0  0  0  0  0  0  0  0
   21.1400  -18.6226  -21.8751 C   0  0  0  0  0  0  0  0  0  0  0  0
   21.9284  -18.5949  -23.1748 C   0  0  0  0  0  0  0  0  0  0  0  0
   22.0445  -17.2040  -23.5731 N   0  0  0  0  0  0  0  0  0  0  0  0
   23.6772  -20.0641  -18.7103 C   0  0  0  0  0  0  0  0  0  0  0  0
   24.3414  -21.1239  -18.6921 O   0  0  0  0  0  0  0  0  0  0  0  0
   24.2834  -18.8726  -18.2304 N   0  0  0  0  0  0  0  0  0  0  0  0
   25.6291  -18.9448  -17.6937 C   0  0  1  0  0  0  0  0  0  0  0  0
   26.3561  -17.6177  -17.9040 C   0  0  0  0  0  0  0  0  0  0  0  0
   27.8701  -17.5532  -16.9181 S   0  0  0  0  0  0  0  0  0  0  0  0
   25.4947  -19.0912  -16.1990 C   0  0  0  0  0  0  0  0  0  0  0  0
   24.6243  -18.4512  -15.5499 O   0  0  0  0  0  0  0  0  0  0  0  0
   25.2053  -20.9146   -7.9223 O   0  0  0  0  0  0  0  0  0  0  0  0
   25.2148  -20.9330   -9.3290 C   0  0  0  0  0  0  0  0  0  0  0  0
   26.3416  -21.4500   -9.9195 C   0  0  0  0  0  0  0  0  0  0  0  0
   26.4201  -21.4997  -11.3154 C   0  0  0  0  0  0  0  0  0  0  0  0
   25.3719  -21.0318  -12.0529 C   0  0  0  0  0  0  0  0  0  0  0  0
   25.4148  -21.0680  -13.5250 C   0  0  0  0  0  0  0  0  0  0  0  0
   26.2889  -19.9338  -14.0104 C   0  0  2  0  0  0  0  0  0  0  0  0
   26.3378  -19.9517  -15.4606 N   0  0  0  0  0  0  0  0  0  0  0  0
   27.6906  -20.0366  -13.5340 C   0  0  0  0  0  0  0  0  0  0  0  0
   28.5213  -20.7042  -14.2018 O   0  0  0  0  0  0  0  0  0  0  0  0
   24.2527  -20.5178  -11.4332 C   0  0  0  0  0  0  0  0  0  0  0  0
   24.1418  -20.4536  -10.0519 C   0  0  0  0  0  0  0  0  0  0  0  0
   28.1613  -19.4336  -12.3755 O   0  0  0  0  0  0  0  0  0  0  0  0
  2  1  1  6
  3  2  1  0
  4  5  1  0
  4  3  1  0
  5  6  1  0
  7  6  1  0
  8 10  1  0
  8  2  1  0
  9  8  2  0
 11 10  1  0
 11 12  1  1
 13 12  1  0
 14 11  1  0
 15 14  2  0
 16 17  1  0
 17 27  2  0
 17 18  1  0
 18 19  2  0
 19 20  1  0
 20 21  1  0
 22 21  1  1
 22 24  1  0
 22 23  1  0
 23 14  1  0
 24 28  1  0
 25 24  2  0
 26 20  2  0
 27 26  1  0
M  END
$$$$
