KCY.pdb
     RDKit          3D

 28 28  0  0  1  0  0  0  0  0999 V2000
   21.1753  -13.4380  -16.6236 N   0  0  0  0  0  0  0  0  0  0  0  0
   20.5261  -12.9947  -17.8375 C   0  0  1  0  0  0  0  0  0  0  0  0
   19.5209  -14.0197  -18.2718 C   0  0  0  0  0  0  0  0  0  0  0  0
   20.2208  -15.3377  -18.4741 C   0  0  0  0  0  0  0  0  0  0  0  0
   20.2004  -16.1357  -17.2057 C   0  0  0  0  0  0  0  0  0  0  0  0
   20.7052  -17.5528  -17.4264 C   0  0  0  0  0  0  0  0  0  0  0  0
   20.7450  -18.1981  -16.1268 N   0  0  0  0  0  0  0  0  0  0  0  0
   19.7632  -11.7232  -17.5574 C   0  0  0  0  0  0  0  0  0  0  0  0
   19.0247  -11.1872  -18.4129 O   0  0  0  0  0  0  0  0  0  0  0  0
   19.8834  -11.1100  -16.2818 N   0  0  0  0  0  0  0  0  0  0  0  0
   19.0946   -9.9249  -16.0032 C   0  0  1  0  0  0  0  0  0  0  0  0
   18.4415  -10.0338  -14.6264 C   0  0  0  0  0  0  0  0  0  0  0  0
   17.1240  -11.2718  -14.6383 S   0  0  0  0  0  0  0  0  0  0  0  0
   20.0620   -8.7735  -15.8936 C   0  0  0  0  0  0  0  0  0  0  0  0
   21.2271   -8.9328  -15.4400 O   0  0  0  0  0  0  0  0  0  0  0  0
   23.9903   -1.0970  -16.5549 O   0  0  0  0  0  0  0  0  0  0  0  0
   23.0964   -2.1682  -16.7356 C   0  0  0  0  0  0  0  0  0  0  0  0
   21.9453   -2.1279  -15.9880 C   0  0  0  0  0  0  0  0  0  0  0  0
   21.0104   -3.1608  -16.1166 C   0  0  0  0  0  0  0  0  0  0  0  0
   21.2694   -4.1819  -16.9837 C   0  0  0  0  0  0  0  0  0  0  0  0
   20.3098   -5.2872  -17.1494 C   0  0  0  0  0  0  0  0  0  0  0  0
   20.6753   -6.3924  -16.1845 C   0  0  2  0  0  0  0  0  0  0  0  0
   19.7056   -7.4663  -16.2943 N   0  0  0  0  0  0  0  0  0  0  0  0
   20.6667   -5.9517  -14.7674 C   0  0  0  0  0  0  0  0  0  0  0  0
   19.5868   -5.9689  -14.1230 O   0  0  0  0  0  0  0  0  0  0  0  0
   22.4338   -4.1965  -17.7219 C   0  0  0  0  0  0  0  0  0  0  0  0
   23.3818   -3.1890  -17.6189 C   0  0  0  0  0  0  0  0  0  0  0  0
   21.7933   -5.5113  -14.0861 O   0  0  0  0  0  0  0  0  0  0  0  0
  2  1  1  1
  3  2  1  0
  4  5  1  0
  4  3  1  0
  5  6  1  0
  7  6  1  0
  8 10  1  0
  8  2  1  0
  9  8  2  0
 11 10  1  0
 11 12  1  1
 13 12  1  0
 14 11  1  0
 15 14  2  0
 16 17  1  0
 17 27  2  0
 17 18  1  0
 18 19  2  0
 19 20  1  0
 20 21  1  0
 22 21  1  6
 22 24  1  0
 22 23  1  0
 23 14  1  0
 24 28  1  0
 25 24  2  0
 26 20  2  0
 27 26  1  0
M  END
$$$$
