KCY.pdb
     RDKit          3D

 28 28  0  0  1  0  0  0  0  0999 V2000
   20.0682  -11.8470  -18.4250 N   0  0  0  0  0  0  0  0  0  0  0  0
   21.4193  -11.4055  -18.6920 C   0  0  1  0  0  0  0  0  0  0  0  0
   21.8213  -11.8287  -20.0737 C   0  0  0  0  0  0  0  0  0  0  0  0
   20.9731  -13.0000  -20.4940 C   0  0  0  0  0  0  0  0  0  0  0  0
   21.5676  -14.2789  -19.9873 C   0  0  0  0  0  0  0  0  0  0  0  0
   20.7920  -15.4912  -20.4780 C   0  0  0  0  0  0  0  0  0  0  0  0
   21.3913  -16.6594  -19.8593 N   0  0  0  0  0  0  0  0  0  0  0  0
   21.4641   -9.8975  -18.6645 C   0  0  0  0  0  0  0  0  0  0  0  0
   22.4748   -9.2544  -19.0246 O   0  0  0  0  0  0  0  0  0  0  0  0
   20.3240   -9.1786  -18.2161 N   0  0  0  0  0  0  0  0  0  0  0  0
   20.3897   -7.7302  -18.1692 C   0  0  1  0  0  0  0  0  0  0  0  0
   19.0251   -7.1264  -18.4964 C   0  0  0  0  0  0  0  0  0  0  0  0
   18.6223   -7.3621  -20.2430 S   0  0  0  0  0  0  0  0  0  0  0  0
   20.6572   -7.3525  -16.7342 C   0  0  0  0  0  0  0  0  0  0  0  0
   20.1422   -7.9916  -15.7777 O   0  0  0  0  0  0  0  0  0  0  0  0
   27.0161   -4.6603  -18.2330 O   0  0  0  0  0  0  0  0  0  0  0  0
   26.0472   -5.2019  -17.3687 C   0  0  0  0  0  0  0  0  0  0  0  0
   25.6525   -4.4015  -16.3251 C   0  0  0  0  0  0  0  0  0  0  0  0
   24.6918   -4.8757  -15.4254 C   0  0  0  0  0  0  0  0  0  0  0  0
   24.1725   -6.1237  -15.6108 C   0  0  0  0  0  0  0  0  0  0  0  0
   23.1576   -6.6590  -14.6868 C   0  0  0  0  0  0  0  0  0  0  0  0
   21.8266   -6.0176  -15.0076 C   0  0  2  0  0  0  0  0  0  0  0  0
   21.4962   -6.2663  -16.3985 N   0  0  0  0  0  0  0  0  0  0  0  0
   21.8336   -4.5447  -14.8265 C   0  0  0  0  0  0  0  0  0  0  0  0
   21.6141   -3.8008  -15.8164 O   0  0  0  0  0  0  0  0  0  0  0  0
   24.5874   -6.9059  -16.6677 C   0  0  0  0  0  0  0  0  0  0  0  0
   25.5378   -6.4670  -17.5780 C   0  0  0  0  0  0  0  0  0  0  0  0
   22.0710   -3.9145  -13.6125 O   0  0  0  0  0  0  0  0  0  0  0  0
  2  1  1  6
  3  2  1  0
  4  5  1  0
  4  3  1  0
  5  6  1  0
  7  6  1  0
  8 10  1  0
  8  2  1  0
  9  8  2  0
 11 10  1  0
 11 12  1  1
 13 12  1  0
 14 11  1  0
 15 14  2  0
 16 17  1  0
 17 27  2  0
 17 18  1  0
 18 19  2  0
 19 20  1  0
 20 21  1  0
 22 21  1  6
 22 24  1  0
 22 23  1  0
 23 14  1  0
 24 28  1  0
 25 24  2  0
 26 20  2  0
 27 26  1  0
M  END
$$$$
