KCY.pdb
     RDKit          3D

 28 28  0  0  1  0  0  0  0  0999 V2000
   20.0851  -19.6002  -16.5965 N   0  0  0  0  0  0  0  0  0  0  0  0
   21.2796  -19.0468  -15.9977 C   0  0  1  0  0  0  0  0  0  0  0  0
   20.9020  -17.9502  -15.0465 C   0  0  0  0  0  0  0  0  0  0  0  0
   19.5161  -17.4658  -15.3821 C   0  0  0  0  0  0  0  0  0  0  0  0
   18.4983  -18.1946  -14.5583 C   0  0  0  0  0  0  0  0  0  0  0  0
   18.3867  -17.6104  -13.1590 C   0  0  0  0  0  0  0  0  0  0  0  0
   17.3900  -18.3913  -12.4495 N   0  0  0  0  0  0  0  0  0  0  0  0
   21.9687  -20.1149  -15.1846 C   0  0  0  0  0  0  0  0  0  0  0  0
   21.3311  -20.9644  -14.5238 O   0  0  0  0  0  0  0  0  0  0  0  0
   23.3882  -20.1628  -15.1648 N   0  0  0  0  0  0  0  0  0  0  0  0
   24.0371  -21.2640  -14.4788 C   0  0  1  0  0  0  0  0  0  0  0  0
   25.0530  -21.9379  -15.3996 C   0  0  0  0  0  0  0  0  0  0  0  0
   25.9635  -23.2255  -14.5156 S   0  0  0  0  0  0  0  0  0  0  0  0
   24.8518  -20.6620  -13.3619 C   0  0  0  0  0  0  0  0  0  0  0  0
   25.2579  -19.4698  -13.4113 O   0  0  0  0  0  0  0  0  0  0  0  0
   29.0807  -19.1015   -6.0000 O   0  0  0  0  0  0  0  0  0  0  0  0
   28.2425  -19.6863   -6.9666 C   0  0  0  0  0  0  0  0  0  0  0  0
   28.7814  -20.7243   -7.6861 C   0  0  0  0  0  0  0  0  0  0  0  0
   28.0044  -21.3535   -8.6647 C   0  0  0  0  0  0  0  0  0  0  0  0
   26.7293  -20.9168   -8.8773 C   0  0  0  0  0  0  0  0  0  0  0  0
   25.8783  -21.5538   -9.8971 C   0  0  0  0  0  0  0  0  0  0  0  0
   26.0569  -20.8156  -11.2045 C   0  0  2  0  0  0  0  0  0  0  0  0
   25.1958  -21.4069  -12.2117 N   0  0  0  0  0  0  0  0  0  0  0  0
   27.4431  -20.8915  -11.7289 C   0  0  0  0  0  0  0  0  0  0  0  0
   27.8229  -21.9355  -12.3185 O   0  0  0  0  0  0  0  0  0  0  0  0
   26.2140  -19.8720   -8.1399 C   0  0  0  0  0  0  0  0  0  0  0  0
   26.9566  -19.2260   -7.1623 C   0  0  0  0  0  0  0  0  0  0  0  0
   28.3729  -19.8673  -11.6121 O   0  0  0  0  0  0  0  0  0  0  0  0
  2  1  1  1
  3  2  1  0
  4  5  1  0
  4  3  1  0
  5  6  1  0
  7  6  1  0
  8 10  1  0
  8  2  1  0
  9  8  2  0
 11 10  1  0
 11 12  1  6
 13 12  1  0
 14 11  1  0
 15 14  2  0
 16 17  1  0
 17 27  2  0
 17 18  1  0
 18 19  2  0
 19 20  1  0
 20 21  1  0
 22 21  1  1
 22 24  1  0
 22 23  1  0
 23 14  1  0
 24 28  1  0
 25 24  2  0
 26 20  2  0
 27 26  1  0
M  END
$$$$
