VHE.pdb
     RDKit          3D

 27 27  0  0  1  0  0  0  0  0999 V2000
   12.2677  -19.9951   19.0588 C   0  0  0  0  0  0  0  0  0  0  0  0
   10.8799  -20.0416   18.4902 C   0  0  1  0  0  0  0  0  0  0  0  0
    9.8799  -20.6134   19.4729 C   0  0  0  0  0  0  0  0  0  0  0  0
   10.4502  -18.6038   18.2095 C   0  0  2  0  0  0  0  0  0  0  0  0
   11.3023  -17.9928   17.2135 N   0  0  0  0  0  0  0  0  0  0  0  0
   10.5679  -17.8285   19.4659 C   0  0  0  0  0  0  0  0  0  0  0  0
   11.6833  -17.4954   19.9549 O   0  0  0  0  0  0  0  0  0  0  0  0
    9.3988  -17.4446   20.1463 N   0  0  0  0  0  0  0  0  0  0  0  0
    9.4417  -16.6161   21.3798 C   0  0  1  0  0  0  0  0  0  0  0  0
    8.1465  -15.8862   21.3951 C   0  0  0  0  0  0  0  0  0  0  0  0
    8.0198  -14.7433   20.4833 C   0  0  0  0  0  0  0  0  0  0  0  0
    8.9500  -14.2731   19.5897 C   0  0  0  0  0  0  0  0  0  0  0  0
    8.4916  -13.1855   18.9393 N   0  0  0  0  0  0  0  0  0  0  0  0
    7.2504  -12.9525   19.4203 C   0  0  0  0  0  0  0  0  0  0  0  0
    6.9653  -13.8854   20.3464 N   0  0  0  0  0  0  0  0  0  0  0  0
    9.6935  -17.5516   22.4738 C   0  0  0  0  0  0  0  0  0  0  0  0
    9.5296  -18.7860   22.3393 O   0  0  0  0  0  0  0  0  0  0  0  0
   10.1408  -17.0777   23.7323 N   0  0  0  0  0  0  0  0  0  0  0  0
   10.9285  -17.8954   24.6331 C   0  0  1  0  0  0  0  0  0  0  0  0
   12.1371  -18.3827   23.8533 C   0  0  0  0  0  0  0  0  0  0  0  0
   13.0182  -19.2732   24.6948 C   0  0  0  0  0  0  0  0  0  0  0  0
   14.2109  -19.7279   23.9303 C   0  0  0  0  0  0  0  0  0  0  0  0
   14.0699  -20.5914   23.0312 O   0  0  0  0  0  0  0  0  0  0  0  0
   11.2856  -17.2708   25.8976 C   0  0  0  0  0  0  0  0  0  0  0  0
   11.6787  -17.8054   26.9451 O   0  0  0  0  0  0  0  0  0  0  0  0
   15.4842  -19.2308   24.1739 O   0  0  0  0  0  0  0  0  0  0  0  0
   11.1722  -15.8654   25.9479 O   0  0  0  0  0  0  0  0  0  0  0  0
  2  1  1  1
  2  4  1  0
  2  3  1  0
  4  5  1  6
  6  4  1  0
  6  7  2  0
  8  6  1  0
  9  8  1  0
  9 10  1  1
 11 10  1  0
 11 15  1  0
 12 13  1  0
 12 11  2  0
 13 14  1  0
 14 15  2  0
 16  9  1  0
 17 16  2  0
 18 16  1  0
 19 18  1  0
 19 24  1  0
 19 20  1  6
 21 20  1  0
 22 21  1  0
 22 26  1  0
 23 22  2  0
 24 27  1  0
 25 24  2  0
M  END
$$$$
