VHE.pdb
     RDKit          3D

 27 27  0  0  1  0  0  0  0  0999 V2000
   10.7193  -18.9740   13.0128 C   0  0  0  0  0  0  0  0  0  0  0  0
   10.7745  -18.1378   14.2575 C   0  0  1  0  0  0  0  0  0  0  0  0
   12.1765  -18.0478   14.8224 C   0  0  0  0  0  0  0  0  0  0  0  0
   10.3603  -16.7188   13.8763 C   0  0  2  0  0  0  0  0  0  0  0  0
   11.1811  -16.2104   12.7997 N   0  0  0  0  0  0  0  0  0  0  0  0
   10.5450  -15.8458   15.0584 C   0  0  0  0  0  0  0  0  0  0  0  0
   11.6523  -15.3066   15.3364 O   0  0  0  0  0  0  0  0  0  0  0  0
    9.4516  -15.6031   15.9085 N   0  0  0  0  0  0  0  0  0  0  0  0
    9.5496  -14.6873   17.0753 C   0  0  1  0  0  0  0  0  0  0  0  0
    8.1411  -14.3862   17.4441 C   0  0  0  0  0  0  0  0  0  0  0  0
    7.9250  -13.6811   18.7128 C   0  0  0  0  0  0  0  0  0  0  0  0
    8.1099  -12.3462   18.9754 C   0  0  0  0  0  0  0  0  0  0  0  0
    7.8360  -12.0626   20.2640 N   0  0  0  0  0  0  0  0  0  0  0  0
    7.4701  -13.2298   20.8384 C   0  0  0  0  0  0  0  0  0  0  0  0
    7.5227  -14.2018   19.9102 N   0  0  0  0  0  0  0  0  0  0  0  0
   10.3616  -15.3941   18.0634 C   0  0  0  0  0  0  0  0  0  0  0  0
   10.2868  -16.6351   18.2151 O   0  0  0  0  0  0  0  0  0  0  0  0
   11.2713  -14.6819   18.8841 N   0  0  0  0  0  0  0  0  0  0  0  0
   12.0768  -15.3350   19.8966 C   0  0  1  0  0  0  0  0  0  0  0  0
   13.3883  -14.5744   19.9839 C   0  0  0  0  0  0  0  0  0  0  0  0
   14.3415  -15.2219   20.9584 C   0  0  0  0  0  0  0  0  0  0  0  0
   15.6853  -14.5860   20.9001 C   0  0  0  0  0  0  0  0  0  0  0  0
   15.8864  -13.6514   20.0877 O   0  0  0  0  0  0  0  0  0  0  0  0
   11.4370  -15.5096   21.1915 C   0  0  0  0  0  0  0  0  0  0  0  0
   11.7082  -16.3204   22.0896 O   0  0  0  0  0  0  0  0  0  0  0  0
   16.7344  -14.9887   21.7156 O   0  0  0  0  0  0  0  0  0  0  0  0
   10.3601  -14.6423   21.4721 O   0  0  0  0  0  0  0  0  0  0  0  0
  2  1  1  6
  2  4  1  0
  2  3  1  0
  4  5  1  6
  6  4  1  0
  6  7  2  0
  8  6  1  0
  9  8  1  0
  9 10  1  1
 11 10  1  0
 11 15  1  0
 12 13  1  0
 12 11  2  0
 13 14  1  0
 14 15  2  0
 16  9  1  0
 17 16  2  0
 18 16  1  0
 19 18  1  0
 19 24  1  0
 19 20  1  1
 21 20  1  0
 22 21  1  0
 22 26  1  0
 23 22  2  0
 24 27  1  0
 25 24  2  0
M  END
$$$$
