VHE.pdb
     RDKit          3D

 27 27  0  0  1  0  0  0  0  0999 V2000
    9.7934  -17.4176   14.6723 C   0  0  0  0  0  0  0  0  0  0  0  0
   10.0589  -16.4673   15.8028 C   0  0  1  0  0  0  0  0  0  0  0  0
    8.8645  -15.5849   16.0985 C   0  0  0  0  0  0  0  0  0  0  0  0
   10.3114  -17.3028   17.0553 C   0  0  2  0  0  0  0  0  0  0  0  0
    9.1172  -18.0146   17.4535 N   0  0  0  0  0  0  0  0  0  0  0  0
   10.7005  -16.3893   18.1543 C   0  0  0  0  0  0  0  0  0  0  0  0
   11.7103  -15.6346   18.0829 O   0  0  0  0  0  0  0  0  0  0  0  0
    9.9219  -16.3546   19.3246 N   0  0  0  0  0  0  0  0  0  0  0  0
   10.2886  -15.5068   20.4893 C   0  0  1  0  0  0  0  0  0  0  0  0
    8.9933  -15.1566   21.1299 C   0  0  0  0  0  0  0  0  0  0  0  0
    8.1119  -14.2479   20.3877 C   0  0  0  0  0  0  0  0  0  0  0  0
    8.3672  -12.9542   20.0055 C   0  0  0  0  0  0  0  0  0  0  0  0
    7.3106  -12.4211   19.3611 N   0  0  0  0  0  0  0  0  0  0  0  0
    6.3628  -13.3838   19.3280 C   0  0  0  0  0  0  0  0  0  0  0  0
    6.8411  -14.4803   19.9431 N   0  0  0  0  0  0  0  0  0  0  0  0
   11.2282  -16.3031   21.2756 C   0  0  0  0  0  0  0  0  0  0  0  0
   10.9900  -17.4934   21.5837 O   0  0  0  0  0  0  0  0  0  0  0  0
   12.4535  -15.7403   21.7118 N   0  0  0  0  0  0  0  0  0  0  0  0
   13.4389  -16.5054   22.4494 C   0  0  1  0  0  0  0  0  0  0  0  0
   14.7836  -16.2576   21.7887 C   0  0  0  0  0  0  0  0  0  0  0  0
   15.0548  -14.7829   21.6183 C   0  0  0  0  0  0  0  0  0  0  0  0
   16.3436  -14.5505   20.9122 C   0  0  0  0  0  0  0  0  0  0  0  0
   17.4105  -14.9519   21.4361 O   0  0  0  0  0  0  0  0  0  0  0  0
   13.4640  -16.2770   23.8860 C   0  0  0  0  0  0  0  0  0  0  0  0
   12.8431  -15.4338   24.5501 O   0  0  0  0  0  0  0  0  0  0  0  0
   16.4135  -13.9020   19.6865 O   0  0  0  0  0  0  0  0  0  0  0  0
   14.3070  -17.1263   24.6334 O   0  0  0  0  0  0  0  0  0  0  0  0
  2  1  1  6
  2  4  1  0
  2  3  1  0
  4  5  1  1
  6  4  1  0
  6  7  2  0
  8  6  1  0
  9  8  1  0
  9 10  1  1
 11 10  1  0
 11 15  1  0
 12 13  1  0
 12 11  2  0
 13 14  1  0
 14 15  2  0
 16  9  1  0
 17 16  2  0
 18 16  1  0
 19 18  1  0
 19 24  1  0
 19 20  1  6
 21 20  1  0
 22 21  1  0
 22 26  1  0
 23 22  2  0
 24 27  1  0
 25 24  2  0
M  END
$$$$
