VHE.pdb
     RDKit          3D

 27 27  0  0  1  0  0  0  0  0999 V2000
   15.5223  -16.5727   15.9609 C   0  0  0  0  0  0  0  0  0  0  0  0
   14.5950  -16.2406   17.0929 C   0  0  1  0  0  0  0  0  0  0  0  0
   15.1853  -16.6038   18.4391 C   0  0  0  0  0  0  0  0  0  0  0  0
   14.3938  -14.7273   17.0929 C   0  0  2  0  0  0  0  0  0  0  0  0
   15.6508  -14.0369   17.2787 N   0  0  0  0  0  0  0  0  0  0  0  0
   13.4961  -14.3765   18.2175 C   0  0  0  0  0  0  0  0  0  0  0  0
   13.9325  -14.0126   19.3450 O   0  0  0  0  0  0  0  0  0  0  0  0
   12.1043  -14.4485   18.0314 N   0  0  0  0  0  0  0  0  0  0  0  0
   11.1480  -14.2212   19.1466 C   0  0  1  0  0  0  0  0  0  0  0  0
    9.9223  -13.6872   18.4961 C   0  0  0  0  0  0  0  0  0  0  0  0
    8.7383  -13.5240   19.3475 C   0  0  0  0  0  0  0  0  0  0  0  0
    7.4913  -14.0694   19.1676 C   0  0  0  0  0  0  0  0  0  0  0  0
    6.6449  -13.6763   20.1397 N   0  0  0  0  0  0  0  0  0  0  0  0
    7.3560  -12.8674   20.9559 C   0  0  0  0  0  0  0  0  0  0  0  0
    8.6117  -12.7745   20.4829 N   0  0  0  0  0  0  0  0  0  0  0  0
   11.0330  -15.5052   19.8345 C   0  0  0  0  0  0  0  0  0  0  0  0
   11.3061  -16.5870   19.2655 O   0  0  0  0  0  0  0  0  0  0  0  0
   10.6072  -15.5582   21.1852 N   0  0  0  0  0  0  0  0  0  0  0  0
   10.7073  -16.7641   21.9828 C   0  0  1  0  0  0  0  0  0  0  0  0
   12.1655  -17.1882   21.9711 C   0  0  0  0  0  0  0  0  0  0  0  0
   12.3923  -18.4186   22.8148 C   0  0  0  0  0  0  0  0  0  0  0  0
   13.8205  -18.8348   22.7869 C   0  0  0  0  0  0  0  0  0  0  0  0
   14.1230  -19.9559   22.3121 O   0  0  0  0  0  0  0  0  0  0  0  0
   10.1547  -16.6761   23.3257 C   0  0  0  0  0  0  0  0  0  0  0  0
    9.6972  -17.5813   24.0390 O   0  0  0  0  0  0  0  0  0  0  0  0
   14.8404  -18.0254   23.2692 O   0  0  0  0  0  0  0  0  0  0  0  0
   10.1325  -15.3890   23.9031 O   0  0  0  0  0  0  0  0  0  0  0  0
  2  1  1  6
  2  4  1  0
  2  3  1  0
  4  5  1  1
  6  4  1  0
  6  7  2  0
  8  6  1  0
  9  8  1  0
  9 10  1  6
 11 10  1  0
 11 15  1  0
 12 13  1  0
 12 11  2  0
 13 14  1  0
 14 15  2  0
 16  9  1  0
 17 16  2  0
 18 16  1  0
 19 18  1  0
 19 24  1  0
 19 20  1  1
 21 20  1  0
 22 21  1  0
 22 26  1  0
 23 22  2  0
 24 27  1  0
 25 24  2  0
M  END
$$$$
