VHE.pdb
     RDKit          3D

 27 27  0  0  1  0  0  0  0  0999 V2000
    7.1559  -13.3185   18.7411 C   0  0  0  0  0  0  0  0  0  0  0  0
    8.0714  -13.2905   19.9296 C   0  0  1  0  0  0  0  0  0  0  0  0
    7.4906  -12.4931   21.0783 C   0  0  0  0  0  0  0  0  0  0  0  0
    8.2270  -14.7266   20.4235 C   0  0  2  0  0  0  0  0  0  0  0  0
    6.9424  -15.3049   20.7500 N   0  0  0  0  0  0  0  0  0  0  0  0
    9.0585  -14.7106   21.6490 C   0  0  0  0  0  0  0  0  0  0  0  0
   10.2530  -14.3014   21.6523 O   0  0  0  0  0  0  0  0  0  0  0  0
    8.5051  -15.1663   22.8586 N   0  0  0  0  0  0  0  0  0  0  0  0
    9.2489  -15.0887   24.1433 C   0  0  1  0  0  0  0  0  0  0  0  0
    8.2497  -14.6102   25.1350 C   0  0  0  0  0  0  0  0  0  0  0  0
    8.7152  -14.4445   26.5167 C   0  0  0  0  0  0  0  0  0  0  0  0
    8.7797  -15.3978   27.5026 C   0  0  0  0  0  0  0  0  0  0  0  0
    9.2356  -14.8722   28.6567 N   0  0  0  0  0  0  0  0  0  0  0  0
    9.4675  -13.5638   28.4108 C   0  0  0  0  0  0  0  0  0  0  0  0
    9.1562  -13.3049   27.1281 N   0  0  0  0  0  0  0  0  0  0  0  0
    9.8124  -16.4205   24.3531 C   0  0  0  0  0  0  0  0  0  0  0  0
    9.3882  -17.4231   23.7338 O   0  0  0  0  0  0  0  0  0  0  0  0
   10.8725  -16.6124   25.2738 N   0  0  0  0  0  0  0  0  0  0  0  0
   11.4196  -17.9228   25.5638 C   0  0  1  0  0  0  0  0  0  0  0  0
   12.3235  -18.2972   24.4024 C   0  0  0  0  0  0  0  0  0  0  0  0
   13.4384  -17.2963   24.2219 C   0  0  0  0  0  0  0  0  0  0  0  0
   14.3308  -17.6817   23.0955 C   0  0  0  0  0  0  0  0  0  0  0  0
   14.9869  -18.7483   23.1708 O   0  0  0  0  0  0  0  0  0  0  0  0
   12.0741  -18.0577   26.8561 C   0  0  0  0  0  0  0  0  0  0  0  0
   12.6842  -19.0321   27.3207 O   0  0  0  0  0  0  0  0  0  0  0  0
   14.4676  -16.9019   21.9550 O   0  0  0  0  0  0  0  0  0  0  0  0
   12.0112  -16.9308   27.7028 O   0  0  0  0  0  0  0  0  0  0  0  0
  2  1  1  6
  2  4  1  0
  2  3  1  0
  4  5  1  1
  6  4  1  0
  6  7  2  0
  8  6  1  0
  9  8  1  0
  9 10  1  1
 11 10  1  0
 11 15  1  0
 12 13  1  0
 12 11  2  0
 13 14  1  0
 14 15  2  0
 16  9  1  0
 17 16  2  0
 18 16  1  0
 19 18  1  0
 19 24  1  0
 19 20  1  6
 21 20  1  0
 22 21  1  0
 22 26  1  0
 23 22  2  0
 24 27  1  0
 25 24  2  0
M  END
$$$$
