VHE.pdb
     RDKit          3D

 27 27  0  0  1  0  0  0  0  0999 V2000
    8.0404  -18.2695   18.8253 C   0  0  0  0  0  0  0  0  0  0  0  0
    8.3776  -17.7258   20.1826 C   0  0  1  0  0  0  0  0  0  0  0  0
    9.4035  -18.5780   20.8995 C   0  0  0  0  0  0  0  0  0  0  0  0
    9.0086  -16.3502   19.9824 C   0  0  2  0  0  0  0  0  0  0  0  0
   10.2781  -16.4564   19.2981 N   0  0  0  0  0  0  0  0  0  0  0  0
    9.2436  -15.7469   21.3145 C   0  0  0  0  0  0  0  0  0  0  0  0
   10.3801  -15.7400   21.8645 O   0  0  0  0  0  0  0  0  0  0  0  0
    8.1664  -15.1577   21.9996 N   0  0  0  0  0  0  0  0  0  0  0  0
    8.3096  -14.6192   23.3777 C   0  0  1  0  0  0  0  0  0  0  0  0
    7.1160  -13.7553   23.5764 C   0  0  0  0  0  0  0  0  0  0  0  0
    6.9434  -13.1603   24.9067 C   0  0  0  0  0  0  0  0  0  0  0  0
    7.6776  -12.1507   25.4782 C   0  0  0  0  0  0  0  0  0  0  0  0
    7.2463  -11.8840   26.7267 N   0  0  0  0  0  0  0  0  0  0  0  0
    6.2214  -12.7326   26.9621 C   0  0  0  0  0  0  0  0  0  0  0  0
    6.0378  -13.4990   25.8721 N   0  0  0  0  0  0  0  0  0  0  0  0
    8.4397  -15.7877   24.2455 C   0  0  0  0  0  0  0  0  0  0  0  0
    7.8360  -16.8589   24.0071 O   0  0  0  0  0  0  0  0  0  0  0  0
    9.2688  -15.7381   25.3937 N   0  0  0  0  0  0  0  0  0  0  0  0
    9.4650  -16.8845   26.2583 C   0  0  1  0  0  0  0  0  0  0  0  0
   10.1838  -17.9433   25.4408 C   0  0  0  0  0  0  0  0  0  0  0  0
   11.6432  -17.6062   25.2565 C   0  0  0  0  0  0  0  0  0  0  0  0
   12.3384  -18.6462   24.4510 C   0  0  0  0  0  0  0  0  0  0  0  0
   13.5908  -18.7114   24.4843 O   0  0  0  0  0  0  0  0  0  0  0  0
   10.1203  -16.6086   27.5276 C   0  0  0  0  0  0  0  0  0  0  0  0
   10.4421  -17.4015   28.4249 O   0  0  0  0  0  0  0  0  0  0  0  0
   11.6512  -19.5548   23.6574 O   0  0  0  0  0  0  0  0  0  0  0  0
   10.4365  -15.2570   27.7804 O   0  0  0  0  0  0  0  0  0  0  0  0
  2  1  1  6
  2  4  1  0
  2  3  1  0
  4  5  1  1
  6  4  1  0
  6  7  2  0
  8  6  1  0
  9  8  1  0
  9 10  1  1
 11 10  1  0
 11 15  1  0
 12 13  1  0
 12 11  2  0
 13 14  1  0
 14 15  2  0
 16  9  1  0
 17 16  2  0
 18 16  1  0
 19 18  1  0
 19 24  1  0
 19 20  1  6
 21 20  1  0
 22 21  1  0
 22 26  1  0
 23 22  2  0
 24 27  1  0
 25 24  2  0
M  END
$$$$
