VHE.pdb
     RDKit          3D

 27 27  0  0  1  0  0  0  0  0999 V2000
    8.4304  -12.3810   25.8997 C   0  0  0  0  0  0  0  0  0  0  0  0
    7.1692  -12.9471   26.4831 C   0  0  1  0  0  0  0  0  0  0  0  0
    6.2531  -11.8665   27.0178 C   0  0  0  0  0  0  0  0  0  0  0  0
    6.4151  -13.6468   25.3552 C   0  0  2  0  0  0  0  0  0  0  0  0
    5.2124  -14.2795   25.8497 N   0  0  0  0  0  0  0  0  0  0  0  0
    7.2947  -14.6935   24.7856 C   0  0  0  0  0  0  0  0  0  0  0  0
    7.3866  -15.8484   25.2875 O   0  0  0  0  0  0  0  0  0  0  0  0
    8.0595  -14.3986   23.6432 N   0  0  0  0  0  0  0  0  0  0  0  0
    8.8816  -15.4305   22.9583 C   0  0  1  0  0  0  0  0  0  0  0  0
    8.9817  -14.9660   21.5494 C   0  0  0  0  0  0  0  0  0  0  0  0
    7.8252  -15.2236   20.6837 C   0  0  0  0  0  0  0  0  0  0  0  0
    6.7224  -15.9933   20.9601 C   0  0  0  0  0  0  0  0  0  0  0  0
    5.8746  -16.0202   19.9129 N   0  0  0  0  0  0  0  0  0  0  0  0
    6.4387  -15.2581   18.9500 C   0  0  0  0  0  0  0  0  0  0  0  0
    7.6085  -14.7793   19.4099 N   0  0  0  0  0  0  0  0  0  0  0  0
   10.1240  -15.5153   23.7228 C   0  0  0  0  0  0  0  0  0  0  0  0
   10.3339  -14.7948   24.7256 O   0  0  0  0  0  0  0  0  0  0  0  0
   11.1360  -16.4326   23.3450 N   0  0  0  0  0  0  0  0  0  0  0  0
   11.9310  -17.1541   24.3186 C   0  0  1  0  0  0  0  0  0  0  0  0
   10.9631  -17.8718   25.2428 C   0  0  0  0  0  0  0  0  0  0  0  0
   11.2671  -17.5879   26.6934 C   0  0  0  0  0  0  0  0  0  0  0  0
   10.4780  -18.4730   27.5921 C   0  0  0  0  0  0  0  0  0  0  0  0
    9.3658  -18.0790   28.0181 O   0  0  0  0  0  0  0  0  0  0  0  0
   12.9476  -18.0375   23.7682 C   0  0  0  0  0  0  0  0  0  0  0  0
   12.8084  -18.9944   22.9920 O   0  0  0  0  0  0  0  0  0  0  0  0
   10.9270  -19.7278   27.9814 O   0  0  0  0  0  0  0  0  0  0  0  0
   14.2758  -17.7770   24.1664 O   0  0  0  0  0  0  0  0  0  0  0  0
  2  1  1  6
  2  4  1  0
  2  3  1  0
  4  5  1  1
  6  4  1  0
  6  7  2  0
  8  6  1  0
  9  8  1  0
  9 10  1  6
 11 10  1  0
 11 15  1  0
 12 13  1  0
 12 11  2  0
 13 14  1  0
 14 15  2  0
 16  9  1  0
 17 16  2  0
 18 16  1  0
 19 18  1  0
 19 24  1  0
 19 20  1  6
 21 20  1  0
 22 21  1  0
 22 26  1  0
 23 22  2  0
 24 27  1  0
 25 24  2  0
M  END
$$$$
