VHE.pdb
     RDKit          3D

 27 27  0  0  1  0  0  0  0  0999 V2000
    7.8955  -16.2818   20.0333 C   0  0  0  0  0  0  0  0  0  0  0  0
    8.1290  -14.9118   19.4676 C   0  0  1  0  0  0  0  0  0  0  0  0
    7.3761  -14.6937   18.1721 C   0  0  0  0  0  0  0  0  0  0  0  0
    7.5815  -13.9008   20.4719 C   0  0  2  0  0  0  0  0  0  0  0  0
    7.7787  -12.5465   20.0047 N   0  0  0  0  0  0  0  0  0  0  0  0
    8.3146  -14.0675   21.7479 C   0  0  0  0  0  0  0  0  0  0  0  0
    9.4815  -13.6179   21.9229 O   0  0  0  0  0  0  0  0  0  0  0  0
    7.6958  -14.7507   22.8096 N   0  0  0  0  0  0  0  0  0  0  0  0
    8.3140  -14.8342   24.1589 C   0  0  1  0  0  0  0  0  0  0  0  0
    7.1671  -14.8386   25.1051 C   0  0  0  0  0  0  0  0  0  0  0  0
    6.7391  -13.5379   25.6328 C   0  0  0  0  0  0  0  0  0  0  0  0
    7.3044  -12.3085   25.4001 C   0  0  0  0  0  0  0  0  0  0  0  0
    6.6557  -11.3403   26.0766 N   0  0  0  0  0  0  0  0  0  0  0  0
    5.6601  -11.9540   26.7535 C   0  0  0  0  0  0  0  0  0  0  0  0
    5.7081  -13.2719   26.4890 N   0  0  0  0  0  0  0  0  0  0  0  0
    9.1607  -16.0249   24.1311 C   0  0  0  0  0  0  0  0  0  0  0  0
    8.7590  -17.1109   23.6538 O   0  0  0  0  0  0  0  0  0  0  0  0
   10.4796  -15.9777   24.6475 N   0  0  0  0  0  0  0  0  0  0  0  0
   11.3807  -17.1106   24.5768 C   0  0  1  0  0  0  0  0  0  0  0  0
   12.7344  -16.5788   24.1401 C   0  0  0  0  0  0  0  0  0  0  0  0
   13.7743  -17.6717   24.1028 C   0  0  0  0  0  0  0  0  0  0  0  0
   15.1079  -17.1332   23.7216 C   0  0  0  0  0  0  0  0  0  0  0  0
   16.0833  -17.9173   23.6345 O   0  0  0  0  0  0  0  0  0  0  0  0
   11.4551  -17.9293   25.7772 C   0  0  0  0  0  0  0  0  0  0  0  0
   11.8216  -19.1082   25.8927 O   0  0  0  0  0  0  0  0  0  0  0  0
   15.3179  -15.7867   23.4562 O   0  0  0  0  0  0  0  0  0  0  0  0
   11.0580  -17.3046   26.9783 O   0  0  0  0  0  0  0  0  0  0  0  0
  2  1  1  1
  2  4  1  0
  2  3  1  0
  4  5  1  6
  6  4  1  0
  6  7  2  0
  8  6  1  0
  9  8  1  0
  9 10  1  1
 11 10  1  0
 11 15  1  0
 12 13  1  0
 12 11  2  0
 13 14  1  0
 14 15  2  0
 16  9  1  0
 17 16  2  0
 18 16  1  0
 19 18  1  0
 19 24  1  0
 19 20  1  1
 21 20  1  0
 22 21  1  0
 22 26  1  0
 23 22  2  0
 24 27  1  0
 25 24  2  0
M  END
$$$$
