VHE.pdb
     RDKit          3D

 27 27  0  0  1  0  0  0  0  0999 V2000
    8.4341  -12.2713   26.0653 C   0  0  0  0  0  0  0  0  0  0  0  0
    7.1378  -12.8182   26.5870 C   0  0  1  0  0  0  0  0  0  0  0  0
    6.2491  -11.7328   27.1569 C   0  0  0  0  0  0  0  0  0  0  0  0
    6.3877  -13.4275   25.4052 C   0  0  2  0  0  0  0  0  0  0  0  0
    5.1443  -14.0286   25.8342 N   0  0  0  0  0  0  0  0  0  0  0  0
    7.2372  -14.4838   24.8085 C   0  0  0  0  0  0  0  0  0  0  0  0
    7.2263  -15.6766   25.2223 O   0  0  0  0  0  0  0  0  0  0  0  0
    8.0909  -14.1549   23.7409 N   0  0  0  0  0  0  0  0  0  0  0  0
    8.9497  -15.1709   23.0776 C   0  0  1  0  0  0  0  0  0  0  0  0
    9.3619  -14.5437   21.7941 C   0  0  0  0  0  0  0  0  0  0  0  0
    8.3007  -14.2780   20.8161 C   0  0  0  0  0  0  0  0  0  0  0  0
    7.9847  -13.0811   20.2222 C   0  0  0  0  0  0  0  0  0  0  0  0
    6.9297  -13.2138   19.3943 N   0  0  0  0  0  0  0  0  0  0  0  0
    6.5617  -14.5126   19.4560 C   0  0  0  0  0  0  0  0  0  0  0  0
    7.3824  -15.1528   20.3080 N   0  0  0  0  0  0  0  0  0  0  0  0
   10.0061  -15.4812   24.0383 C   0  0  0  0  0  0  0  0  0  0  0  0
   10.0058  -15.0070   25.1976 O   0  0  0  0  0  0  0  0  0  0  0  0
   11.0711  -16.3437   23.6776 N   0  0  0  0  0  0  0  0  0  0  0  0
   11.7665  -17.1648   24.6485 C   0  0  1  0  0  0  0  0  0  0  0  0
   10.7077  -17.8701   25.4778 C   0  0  0  0  0  0  0  0  0  0  0  0
   10.9842  -17.7422   26.9558 C   0  0  0  0  0  0  0  0  0  0  0  0
   10.4858  -18.9293   27.7015 C   0  0  0  0  0  0  0  0  0  0  0  0
   10.7223  -20.0774   27.2546 O   0  0  0  0  0  0  0  0  0  0  0  0
   12.7584  -18.0784   24.1024 C   0  0  0  0  0  0  0  0  0  0  0  0
   12.8430  -18.5379   22.9539 O   0  0  0  0  0  0  0  0  0  0  0  0
    9.7636  -18.8165   28.8820 O   0  0  0  0  0  0  0  0  0  0  0  0
   13.7651  -18.5047   24.9943 O   0  0  0  0  0  0  0  0  0  0  0  0
  2  1  1  6
  2  4  1  0
  2  3  1  0
  4  5  1  1
  6  4  1  0
  6  7  2  0
  8  6  1  0
  9  8  1  0
  9 10  1  6
 11 10  1  0
 11 15  1  0
 12 13  1  0
 12 11  2  0
 13 14  1  0
 14 15  2  0
 16  9  1  0
 17 16  2  0
 18 16  1  0
 19 18  1  0
 19 24  1  0
 19 20  1  6
 21 20  1  0
 22 21  1  0
 22 26  1  0
 23 22  2  0
 24 27  1  0
 25 24  2  0
M  END
$$$$
