QTV.pdb
     RDKit          3D

 24 23  0  0  1  0  0  0  0  0999 V2000
   13.4741  -11.5018  -16.1610 N   0  0  0  0  0  0  0  0  0  0  0  0
   14.4152  -12.4871  -16.5369 C   0  0  0  0  0  0  0  0  0  0  0  0
   14.0104  -13.4731  -17.1902 O   0  0  0  0  0  0  0  0  0  0  0  0
   15.8284  -12.2901  -16.1322 C   0  0  0  0  0  0  0  0  0  0  0  0
   15.9929  -11.0697  -15.2501 C   0  0  0  0  0  0  0  0  0  0  0  0
   17.4568  -10.8561  -15.0324 C   0  0  2  0  0  0  0  0  0  0  0  0
   18.1123  -12.1400  -15.0351 N   0  0  0  0  0  0  0  0  0  0  0  0
   17.7644  -10.1569  -13.7633 C   0  0  0  0  0  0  0  0  0  0  0  0
   18.0763  -10.8089  -12.7230 O   0  0  0  0  0  0  0  0  0  0  0  0
   20.3489   -7.8258  -13.1162 C   0  0  0  0  0  0  0  0  0  0  0  0
   19.1189   -7.0197  -12.7508 C   0  0  1  0  0  0  0  0  0  0  0  0
   18.6905   -6.3984  -13.9364 O   0  0  0  0  0  0  0  0  0  0  0  0
   18.0284   -8.0409  -12.4060 C   0  0  2  0  0  0  0  0  0  0  0  0
   17.7312   -8.7440  -13.6312 N   0  0  0  0  0  0  0  0  0  0  0  0
   16.8770   -7.2644  -11.9008 C   0  0  0  0  0  0  0  0  0  0  0  0
   16.0432   -6.8556  -12.7501 O   0  0  0  0  0  0  0  0  0  0  0  0
   13.7961   -6.3230   -8.1944 C   0  0  0  0  0  0  0  0  0  0  0  0
   15.0389   -6.9315   -8.7849 C   0  0  2  0  0  0  0  0  0  0  0  0
   16.2228   -6.8239   -7.8464 C   0  0  0  0  0  0  0  0  0  0  0  0
   15.4382   -6.2974  -10.0906 C   0  0  2  0  0  0  0  0  0  0  0  0
   16.6492   -6.9522  -10.5446 N   0  0  0  0  0  0  0  0  0  0  0  0
   15.6257   -4.8491   -9.9967 C   0  0  0  0  0  0  0  0  0  0  0  0
   14.5914   -3.9424  -10.1422 O   0  0  0  0  0  0  0  0  0  0  0  0
   16.7768   -4.3949   -9.7735 O   0  0  0  0  0  0  0  0  0  0  0  0
  2  1  1  0
  2  3  2  0
  4  2  1  0
  5  4  1  0
  6  5  1  0
  6  7  1  1
  8  6  1  0
  8 14  1  0
  9  8  2  0
 11 10  1  6
 12 11  1  0
 13 14  1  6
 13 11  1  0
 15 13  1  0
 16 15  2  0
 18 20  1  0
 18 17  1  1
 19 18  1  0
 20 21  1  1
 21 15  1  0
 22 23  1  0
 22 20  1  0
 24 22  2  0
M  END
$$$$
