QTV.pdb
     RDKit          3D

 24 23  0  0  1  0  0  0  0  0999 V2000
   18.5110  -17.4278  -17.4121 N   0  0  0  0  0  0  0  0  0  0  0  0
   17.1221  -17.1811  -17.3241 C   0  0  0  0  0  0  0  0  0  0  0  0
   16.3640  -18.1455  -17.0834 O   0  0  0  0  0  0  0  0  0  0  0  0
   16.6485  -15.7898  -17.5232 C   0  0  0  0  0  0  0  0  0  0  0  0
   17.7982  -14.8397  -17.7878 C   0  0  0  0  0  0  0  0  0  0  0  0
   17.8049  -13.8145  -16.6993 C   0  0  2  0  0  0  0  0  0  0  0  0
   16.4469  -13.3977  -16.4545 N   0  0  0  0  0  0  0  0  0  0  0  0
   18.6272  -12.6250  -17.0199 C   0  0  0  0  0  0  0  0  0  0  0  0
   19.8060  -12.7528  -17.4657 O   0  0  0  0  0  0  0  0  0  0  0  0
   17.4470   -9.5404  -18.9402 C   0  0  0  0  0  0  0  0  0  0  0  0
   17.9844   -9.0441  -17.6131 C   0  0  1  0  0  0  0  0  0  0  0  0
   16.9032   -9.0749  -16.7157 O   0  0  0  0  0  0  0  0  0  0  0  0
   18.9579  -10.1209  -17.1193 C   0  0  2  0  0  0  0  0  0  0  0  0
   18.1609  -11.2948  -16.8531 N   0  0  0  0  0  0  0  0  0  0  0  0
   19.5960   -9.5774  -15.9023 C   0  0  0  0  0  0  0  0  0  0  0  0
   18.9168   -9.5910  -14.8430 O   0  0  0  0  0  0  0  0  0  0  0  0
   23.7241   -9.0800  -15.6709 C   0  0  0  0  0  0  0  0  0  0  0  0
   22.8383   -9.2812  -14.4716 C   0  0  2  0  0  0  0  0  0  0  0  0
   22.5714  -10.7480  -14.2046 C   0  0  0  0  0  0  0  0  0  0  0  0
   21.5044   -8.5964  -14.6070 C   0  0  2  0  0  0  0  0  0  0  0  0
   20.9022   -9.0489  -15.8456 N   0  0  0  0  0  0  0  0  0  0  0  0
   21.5974   -7.1364  -14.5689 C   0  0  0  0  0  0  0  0  0  0  0  0
   21.3156   -6.3328  -15.6588 O   0  0  0  0  0  0  0  0  0  0  0  0
   21.9490   -6.5738  -13.5007 O   0  0  0  0  0  0  0  0  0  0  0  0
  2  1  1  0
  2  3  2  0
  4  2  1  0
  5  4  1  0
  6  5  1  0
  6  7  1  6
  8  6  1  0
  8 14  1  0
  9  8  2  0
 11 10  1  6
 12 11  1  0
 13 14  1  1
 13 11  1  0
 15 13  1  0
 16 15  2  0
 18 20  1  0
 18 17  1  6
 19 18  1  0
 20 21  1  6
 21 15  1  0
 22 23  1  0
 22 20  1  0
 24 22  2  0
M  END
$$$$
