QTV.pdb
     RDKit          3D

 24 23  0  0  1  0  0  0  0  0999 V2000
   14.6730  -12.3978  -16.3784 N   0  0  0  0  0  0  0  0  0  0  0  0
   14.9636  -12.2184  -17.7499 C   0  0  0  0  0  0  0  0  0  0  0  0
   14.2618  -12.8254  -18.5877 O   0  0  0  0  0  0  0  0  0  0  0  0
   16.0860  -11.3189  -18.1117 C   0  0  0  0  0  0  0  0  0  0  0  0
   16.8342  -10.8369  -16.8859 C   0  0  0  0  0  0  0  0  0  0  0  0
   17.9671   -9.9780  -17.3493 C   0  0  2  0  0  0  0  0  0  0  0  0
   18.9141  -10.8082  -18.0506 N   0  0  0  0  0  0  0  0  0  0  0  0
   18.6611   -9.2773  -16.2442 C   0  0  0  0  0  0  0  0  0  0  0  0
   18.0199   -8.5335  -15.4442 O   0  0  0  0  0  0  0  0  0  0  0  0
   22.7499   -9.0474  -13.5227 C   0  0  0  0  0  0  0  0  0  0  0  0
   21.8946   -9.7678  -14.5453 C   0  0  1  0  0  0  0  0  0  0  0  0
   21.3120  -10.8558  -13.8728 O   0  0  0  0  0  0  0  0  0  0  0  0
   20.7350   -8.8199  -14.8732 C   0  0  2  0  0  0  0  0  0  0  0  0
   20.0572   -9.3898  -16.0132 N   0  0  0  0  0  0  0  0  0  0  0  0
   21.3434   -7.5063  -15.1699 C   0  0  0  0  0  0  0  0  0  0  0  0
   22.1175   -7.4427  -16.1601 O   0  0  0  0  0  0  0  0  0  0  0  0
   19.6552   -3.9164  -14.0047 C   0  0  0  0  0  0  0  0  0  0  0  0
   20.6633   -4.0886  -15.1082 C   0  0  2  0  0  0  0  0  0  0  0  0
   20.0195   -4.5638  -16.3941 C   0  0  0  0  0  0  0  0  0  0  0  0
   21.7523   -5.0678  -14.7593 C   0  0  2  0  0  0  0  0  0  0  0  0
   21.1190   -6.3288  -14.4270 N   0  0  0  0  0  0  0  0  0  0  0  0
   22.6157   -4.6087  -13.6705 C   0  0  0  0  0  0  0  0  0  0  0  0
   23.6247   -3.6793  -13.8471 O   0  0  0  0  0  0  0  0  0  0  0  0
   22.4421   -5.0736  -12.5151 O   0  0  0  0  0  0  0  0  0  0  0  0
  2  1  1  0
  2  3  2  0
  4  2  1  0
  5  4  1  0
  6  5  1  0
  6  7  1  1
  8  6  1  0
  8 14  1  0
  9  8  2  0
 11 10  1  1
 12 11  1  0
 13 14  1  6
 13 11  1  0
 15 13  1  0
 16 15  2  0
 18 20  1  0
 18 17  1  1
 19 18  1  0
 20 21  1  1
 21 15  1  0
 22 23  1  0
 22 20  1  0
 24 22  2  0
M  END
$$$$
