QTV.pdb
     RDKit          3D

 24 23  0  0  1  0  0  0  0  0999 V2000
   28.7454  -22.2691  -16.1177 N   0  0  0  0  0  0  0  0  0  0  0  0
   29.1666  -21.7087  -17.3451 C   0  0  0  0  0  0  0  0  0  0  0  0
   29.8063  -22.4334  -18.1378 O   0  0  0  0  0  0  0  0  0  0  0  0
   28.8227  -20.2920  -17.6176 C   0  0  0  0  0  0  0  0  0  0  0  0
   28.0146  -19.6852  -16.4892 C   0  0  0  0  0  0  0  0  0  0  0  0
   26.6357  -20.2602  -16.5529 C   0  0  2  0  0  0  0  0  0  0  0  0
   26.0342  -19.8702  -17.8034 N   0  0  0  0  0  0  0  0  0  0  0  0
   25.7655  -19.8204  -15.4379 C   0  0  0  0  0  0  0  0  0  0  0  0
   25.3429  -18.6278  -15.3769 O   0  0  0  0  0  0  0  0  0  0  0  0
   22.6779  -19.8971  -14.7533 C   0  0  0  0  0  0  0  0  0  0  0  0
   23.1269  -20.7032  -13.5513 C   0  0  1  0  0  0  0  0  0  0  0  0
   23.2236  -22.0360  -13.9867 O   0  0  0  0  0  0  0  0  0  0  0  0
   24.5657  -20.2626  -13.2573 C   0  0  2  0  0  0  0  0  0  0  0  0
   25.3569  -20.6847  -14.3886 N   0  0  0  0  0  0  0  0  0  0  0  0
   24.9590  -20.9379  -12.0031 C   0  0  0  0  0  0  0  0  0  0  0  0
   25.2688  -22.1552  -12.0794 O   0  0  0  0  0  0  0  0  0  0  0  0
   26.0508  -18.9155   -8.4171 C   0  0  0  0  0  0  0  0  0  0  0  0
   26.4470  -20.3061   -8.8327 C   0  0  2  0  0  0  0  0  0  0  0  0
   27.6422  -20.2999   -9.7630 C   0  0  0  0  0  0  0  0  0  0  0  0
   25.3370  -21.0484   -9.5279 C   0  0  2  0  0  0  0  0  0  0  0  0
   25.0108  -20.3186  -10.7372 N   0  0  0  0  0  0  0  0  0  0  0  0
   24.1523  -21.2350   -8.6892 C   0  0  0  0  0  0  0  0  0  0  0  0
   24.1425  -22.0385   -7.5635 O   0  0  0  0  0  0  0  0  0  0  0  0
   23.0866  -20.6422   -8.9960 O   0  0  0  0  0  0  0  0  0  0  0  0
  2  1  1  0
  2  3  2  0
  4  2  1  0
  5  4  1  0
  6  5  1  0
  6  7  1  6
  8  6  1  0
  8 14  1  0
  9  8  2  0
 11 10  1  6
 12 11  1  0
 13 14  1  6
 13 11  1  0
 15 13  1  0
 16 15  2  0
 18 20  1  0
 18 17  1  6
 19 18  1  0
 20 21  1  6
 21 15  1  0
 22 23  1  0
 22 20  1  0
 24 22  2  0
M  END
$$$$
