QTV.pdb
     RDKit          3D

 24 23  0  0  1  0  0  0  0  0999 V2000
   20.3916  -20.0430  -12.7298 N   0  0  0  0  0  0  0  0  0  0  0  0
   20.2666  -21.0676  -13.6954 C   0  0  0  0  0  0  0  0  0  0  0  0
   19.4334  -21.9765  -13.4891 O   0  0  0  0  0  0  0  0  0  0  0  0
   21.1338  -21.0013  -14.8967 C   0  0  0  0  0  0  0  0  0  0  0  0
   22.0282  -19.7790  -14.8745 C   0  0  0  0  0  0  0  0  0  0  0  0
   23.3830  -20.1942  -15.3519 C   0  0  2  0  0  0  0  0  0  0  0  0
   23.2198  -21.1072  -16.4554 N   0  0  0  0  0  0  0  0  0  0  0  0
   24.2007  -20.8438  -14.3015 C   0  0  0  0  0  0  0  0  0  0  0  0
   23.8245  -21.9277  -13.7648 O   0  0  0  0  0  0  0  0  0  0  0  0
   28.4697  -21.3331  -12.0081 C   0  0  0  0  0  0  0  0  0  0  0  0
   27.6709  -20.7167  -13.1387 C   0  0  1  0  0  0  0  0  0  0  0  0
   27.8548  -21.5551  -14.2516 O   0  0  0  0  0  0  0  0  0  0  0  0
   26.1958  -20.8695  -12.7495 C   0  0  2  0  0  0  0  0  0  0  0  0
   25.4306  -20.3083  -13.8374 N   0  0  0  0  0  0  0  0  0  0  0  0
   26.0203  -20.1246  -11.4854 C   0  0  0  0  0  0  0  0  0  0  0  0
   25.1068  -19.2597  -11.4509 O   0  0  0  0  0  0  0  0  0  0  0  0
   24.4994  -19.5880   -7.4565 C   0  0  0  0  0  0  0  0  0  0  0  0
   25.0542  -20.2282   -8.6999 C   0  0  2  0  0  0  0  0  0  0  0  0
   25.1224  -21.7363   -8.5779 C   0  0  0  0  0  0  0  0  0  0  0  0
   26.4359  -19.7395   -9.0439 C   0  0  2  0  0  0  0  0  0  0  0  0
   26.7985  -20.3136  -10.3247 N   0  0  0  0  0  0  0  0  0  0  0  0
   27.4334  -20.0590   -8.0219 C   0  0  0  0  0  0  0  0  0  0  0  0
   27.6935  -19.2401   -6.9380 O   0  0  0  0  0  0  0  0  0  0  0  0
   28.0918  -21.1257   -8.1225 O   0  0  0  0  0  0  0  0  0  0  0  0
  2  1  1  0
  2  3  2  0
  4  2  1  0
  5  4  1  0
  6  5  1  0
  6  7  1  6
  8  6  1  0
  8 14  1  0
  9  8  2  0
 11 10  1  1
 12 11  1  0
 13 14  1  6
 13 11  1  0
 15 13  1  0
 16 15  2  0
 18 20  1  0
 18 17  1  1
 19 18  1  0
 20 21  1  6
 21 15  1  0
 22 23  1  0
 22 20  1  0
 24 22  2  0
M  END
$$$$
