QTV.pdb
     RDKit          3D

 24 23  0  0  1  0  0  0  0  0999 V2000
   28.8544  -16.2747  -19.0614 N   0  0  0  0  0  0  0  0  0  0  0  0
   29.3920  -17.5772  -18.9502 C   0  0  0  0  0  0  0  0  0  0  0  0
   30.3110  -17.9066  -19.7311 O   0  0  0  0  0  0  0  0  0  0  0  0
   28.8313  -18.4752  -17.9114 C   0  0  0  0  0  0  0  0  0  0  0  0
   27.7957  -17.7689  -17.0609 C   0  0  0  0  0  0  0  0  0  0  0  0
   26.4439  -18.1869  -17.5443 C   0  0  2  0  0  0  0  0  0  0  0  0
   26.1243  -17.4254  -18.7257 N   0  0  0  0  0  0  0  0  0  0  0  0
   25.3754  -17.9916  -16.5373 C   0  0  0  0  0  0  0  0  0  0  0  0
   24.7610  -16.8873  -16.4498 O   0  0  0  0  0  0  0  0  0  0  0  0
   22.7776  -17.4911  -16.3542 C   0  0  0  0  0  0  0  0  0  0  0  0
   22.6140  -18.7363  -15.5063 C   0  0  1  0  0  0  0  0  0  0  0  0
   22.6367  -19.8233  -16.3970 O   0  0  0  0  0  0  0  0  0  0  0  0
   23.8985  -18.8583  -14.6779 C   0  0  2  0  0  0  0  0  0  0  0  0
   24.9780  -19.0040  -15.6252 N   0  0  0  0  0  0  0  0  0  0  0  0
   23.7281  -20.0495  -13.8202 C   0  0  0  0  0  0  0  0  0  0  0  0
   23.7500  -21.1729  -14.3871 O   0  0  0  0  0  0  0  0  0  0  0  0
   24.1480  -20.0639   -9.5423 C   0  0  0  0  0  0  0  0  0  0  0  0
   24.3929  -21.1798  -10.5212 C   0  0  2  0  0  0  0  0  0  0  0  0
   25.7621  -21.0811  -11.1612 C   0  0  0  0  0  0  0  0  0  0  0  0
   23.3768  -21.2188  -11.6313 C   0  0  2  0  0  0  0  0  0  0  0  0
   23.5443  -20.0157  -12.4225 N   0  0  0  0  0  0  0  0  0  0  0  0
   22.0003  -21.3463  -11.1511 C   0  0  0  0  0  0  0  0  0  0  0  0
   21.4816  -22.5260  -10.6487 O   0  0  0  0  0  0  0  0  0  0  0  0
   21.2432  -20.3431  -11.1918 O   0  0  0  0  0  0  0  0  0  0  0  0
  2  1  1  0
  2  3  2  0
  4  2  1  0
  5  4  1  0
  6  5  1  0
  6  7  1  6
  8  6  1  0
  8 14  1  0
  9  8  2  0
 11 10  1  6
 12 11  1  0
 13 14  1  6
 13 11  1  0
 15 13  1  0
 16 15  2  0
 18 20  1  0
 18 17  1  1
 19 18  1  0
 20 21  1  1
 21 15  1  0
 22 23  1  0
 22 20  1  0
 24 22  2  0
M  END
$$$$
