QTV.pdb
     RDKit          3D

 24 23  0  0  1  0  0  0  0  0999 V2000
   18.1615  -15.7322  -15.5502 N   0  0  0  0  0  0  0  0  0  0  0  0
   18.3783  -16.8642  -16.3683 C   0  0  0  0  0  0  0  0  0  0  0  0
   17.6260  -17.8520  -16.2231 O   0  0  0  0  0  0  0  0  0  0  0  0
   19.4878  -16.8103  -17.3511 C   0  0  0  0  0  0  0  0  0  0  0  0
   20.1658  -15.4558  -17.3560 C   0  0  0  0  0  0  0  0  0  0  0  0
   19.4689  -14.5985  -18.3636 C   0  0  2  0  0  0  0  0  0  0  0  0
   19.6843  -15.1630  -19.6724 N   0  0  0  0  0  0  0  0  0  0  0  0
   19.9346  -13.1925  -18.3590 C   0  0  0  0  0  0  0  0  0  0  0  0
   21.0430  -12.8749  -18.8836 O   0  0  0  0  0  0  0  0  0  0  0  0
   18.1809  -10.2592  -19.6557 C   0  0  0  0  0  0  0  0  0  0  0  0
   18.4205   -9.9170  -18.1991 C   0  0  1  0  0  0  0  0  0  0  0  0
   17.3225  -10.4324  -17.4892 O   0  0  0  0  0  0  0  0  0  0  0  0
   19.6250  -10.7568  -17.7577 C   0  0  2  0  0  0  0  0  0  0  0  0
   19.1884  -12.1326  -17.7804 N   0  0  0  0  0  0  0  0  0  0  0  0
   19.9792  -10.2936  -16.3999 C   0  0  0  0  0  0  0  0  0  0  0  0
   19.2736  -10.7156  -15.4471 O   0  0  0  0  0  0  0  0  0  0  0  0
   23.7409   -8.6496  -15.4319 C   0  0  0  0  0  0  0  0  0  0  0  0
   22.8003   -9.3472  -14.4873 C   0  0  2  0  0  0  0  0  0  0  0  0
   22.9365  -10.8537  -14.5625 C   0  0  0  0  0  0  0  0  0  0  0  0
   21.3556   -9.0106  -14.7442 C   0  0  2  0  0  0  0  0  0  0  0  0
   21.0439   -9.4190  -16.0998 N   0  0  0  0  0  0  0  0  0  0  0  0
   21.0456   -7.5956  -14.5357 C   0  0  0  0  0  0  0  0  0  0  0  0
   20.8694   -7.0375  -13.2825 O   0  0  0  0  0  0  0  0  0  0  0  0
   20.9313   -6.8410  -15.5351 O   0  0  0  0  0  0  0  0  0  0  0  0
  2  1  1  0
  2  3  2  0
  4  2  1  0
  5  4  1  0
  6  5  1  0
  6  7  1  6
  8  6  1  0
  8 14  1  0
  9  8  2  0
 11 10  1  6
 12 11  1  0
 13 14  1  1
 13 11  1  0
 15 13  1  0
 16 15  2  0
 18 20  1  0
 18 17  1  6
 19 18  1  0
 20 21  1  6
 21 15  1  0
 22 23  1  0
 22 20  1  0
 24 22  2  0
M  END
$$$$
