QTV.pdb
     RDKit          3D

 24 23  0  0  1  0  0  0  0  0999 V2000
   18.2235  -16.5422  -14.9290 N   0  0  0  0  0  0  0  0  0  0  0  0
   17.3288  -16.7432  -16.0046 C   0  0  0  0  0  0  0  0  0  0  0  0
   16.2995  -17.4223  -15.7989 O   0  0  0  0  0  0  0  0  0  0  0  0
   17.6669  -16.1347  -17.3142 C   0  0  0  0  0  0  0  0  0  0  0  0
   18.9052  -15.2668  -17.2249 C   0  0  0  0  0  0  0  0  0  0  0  0
   19.0787  -14.5797  -18.5416 C   0  0  2  0  0  0  0  0  0  0  0  0
   19.5759  -15.5384  -19.4964 N   0  0  0  0  0  0  0  0  0  0  0  0
   20.0069  -13.4270  -18.4831 C   0  0  0  0  0  0  0  0  0  0  0  0
   21.2478  -13.5829  -18.6846 O   0  0  0  0  0  0  0  0  0  0  0  0
   19.6963  -10.2440  -20.3452 C   0  0  0  0  0  0  0  0  0  0  0  0
   19.7487   -9.8276  -18.8892 C   0  0  1  0  0  0  0  0  0  0  0  0
   18.4220   -9.8529  -18.4259 O   0  0  0  0  0  0  0  0  0  0  0  0
   20.4635  -10.9634  -18.1477 C   0  0  2  0  0  0  0  0  0  0  0  0
   19.5787  -12.1027  -18.2041 N   0  0  0  0  0  0  0  0  0  0  0  0
   20.6869  -10.4831  -16.7682 C   0  0  0  0  0  0  0  0  0  0  0  0
   19.7545  -10.6581  -15.9413 O   0  0  0  0  0  0  0  0  0  0  0  0
   24.4898   -9.0846  -15.3152 C   0  0  0  0  0  0  0  0  0  0  0  0
   23.4210   -9.7760  -14.5131 C   0  0  2  0  0  0  0  0  0  0  0  0
   23.5353  -11.2838  -14.5987 C   0  0  0  0  0  0  0  0  0  0  0  0
   22.0288   -9.4028  -14.9477 C   0  0  2  0  0  0  0  0  0  0  0  0
   21.8623   -9.8475  -16.3173 N   0  0  0  0  0  0  0  0  0  0  0  0
   21.7472   -7.9723  -14.8202 C   0  0  0  0  0  0  0  0  0  0  0  0
   21.4693   -7.3620  -13.6105 O   0  0  0  0  0  0  0  0  0  0  0  0
   21.7552   -7.2533  -15.8518 O   0  0  0  0  0  0  0  0  0  0  0  0
  2  1  1  0
  2  3  2  0
  4  2  1  0
  5  4  1  0
  6  5  1  0
  6  7  1  6
  8  6  1  0
  8 14  1  0
  9  8  2  0
 11 10  1  6
 12 11  1  0
 13 14  1  1
 13 11  1  0
 15 13  1  0
 16 15  2  0
 18 20  1  0
 18 17  1  6
 19 18  1  0
 20 21  1  6
 21 15  1  0
 22 23  1  0
 22 20  1  0
 24 22  2  0
M  END
$$$$
