QTV.pdb
     RDKit          3D

 24 23  0  0  1  0  0  0  0  0999 V2000
   16.4836  -13.1924  -14.9277 N   0  0  0  0  0  0  0  0  0  0  0  0
   16.4898  -14.4577  -15.5576 C   0  0  0  0  0  0  0  0  0  0  0  0
   15.5792  -15.2652  -15.2720 O   0  0  0  0  0  0  0  0  0  0  0  0
   17.5789  -14.7502  -16.5209 C   0  0  0  0  0  0  0  0  0  0  0  0
   18.5810  -13.6166  -16.5937 C   0  0  0  0  0  0  0  0  0  0  0  0
   18.0582  -12.6049  -17.5628 C   0  0  2  0  0  0  0  0  0  0  0  0
   18.0125  -13.2059  -18.8722 N   0  0  0  0  0  0  0  0  0  0  0  0
   18.8782  -11.3728  -17.6228 C   0  0  0  0  0  0  0  0  0  0  0  0
   20.1096  -11.4271  -17.9146 O   0  0  0  0  0  0  0  0  0  0  0  0
   18.9720   -6.4472  -17.5490 C   0  0  0  0  0  0  0  0  0  0  0  0
   18.1652   -7.7247  -17.6643 C   0  0  1  0  0  0  0  0  0  0  0  0
   17.8284   -7.8548  -19.0226 O   0  0  0  0  0  0  0  0  0  0  0  0
   19.1404   -8.8712  -17.3721 C   0  0  2  0  0  0  0  0  0  0  0  0
   18.3518  -10.0803  -17.3637 N   0  0  0  0  0  0  0  0  0  0  0  0
   19.7459   -8.5765  -16.0567 C   0  0  0  0  0  0  0  0  0  0  0  0
   18.9742   -8.5475  -15.0630 O   0  0  0  0  0  0  0  0  0  0  0  0
   23.9261   -8.8560  -15.3444 C   0  0  0  0  0  0  0  0  0  0  0  0
   22.8182   -9.0997  -14.3561 C   0  0  2  0  0  0  0  0  0  0  0  0
   22.2553  -10.5011  -14.4711 C   0  0  0  0  0  0  0  0  0  0  0  0
   21.6711   -8.1375  -14.5130 C   0  0  2  0  0  0  0  0  0  0  0  0
   21.1168   -8.3275  -15.8390 N   0  0  0  0  0  0  0  0  0  0  0  0
   22.0535   -6.7416  -14.2968 C   0  0  0  0  0  0  0  0  0  0  0  0
   22.2423   -6.1960  -13.0399 O   0  0  0  0  0  0  0  0  0  0  0  0
   22.2215   -5.9924  -15.2927 O   0  0  0  0  0  0  0  0  0  0  0  0
  2  1  1  0
  2  3  2  0
  4  2  1  0
  5  4  1  0
  6  5  1  0
  6  7  1  6
  8  6  1  0
  8 14  1  0
  9  8  2  0
 11 10  1  6
 12 11  1  0
 13 14  1  1
 13 11  1  0
 15 13  1  0
 16 15  2  0
 18 20  1  0
 18 17  1  6
 19 18  1  0
 20 21  1  6
 21 15  1  0
 22 23  1  0
 22 20  1  0
 24 22  2  0
M  END
$$$$
