AWM.pdb
     RDKit          3D

 28 29  0  0  1  0  0  0  0  0999 V2000
   12.3431  -18.0779   19.9477 C   0  0  0  0  0  0  0  0  0  0  0  0
   11.3092  -17.0692   19.4941 C   0  0  2  0  0  0  0  0  0  0  0  0
   11.9462  -16.1122   18.6351 N   0  0  0  0  0  0  0  0  0  0  0  0
   10.7331  -16.4525   20.7225 C   0  0  0  0  0  0  0  0  0  0  0  0
   11.3583  -15.4935   21.2211 O   0  0  0  0  0  0  0  0  0  0  0  0
    9.5450  -16.8948   21.3275 N   0  0  0  0  0  0  0  0  0  0  0  0
    9.0074  -16.1923   22.4735 C   0  0  1  0  0  0  0  0  0  0  0  0
    7.5058  -16.3281   22.5638 C   0  0  0  0  0  0  0  0  0  0  0  0
    7.0195  -15.7135   23.8273 C   0  0  0  0  0  0  0  0  0  0  0  0
    6.4504  -16.3703   24.9188 C   0  0  0  0  0  0  0  0  0  0  0  0
    6.1553  -15.4437   25.8414 N   0  0  0  0  0  0  0  0  0  0  0  0
    6.5111  -14.2384   25.3828 C   0  0  0  0  0  0  0  0  0  0  0  0
    6.4061  -12.9933   25.9693 C   0  0  0  0  0  0  0  0  0  0  0  0
    6.8464  -11.8491   25.3041 C   0  0  0  0  0  0  0  0  0  0  0  0
    7.3911  -11.9774   24.0463 C   0  0  0  0  0  0  0  0  0  0  0  0
    7.4917  -13.2166   23.4716 C   0  0  0  0  0  0  0  0  0  0  0  0
    7.0610  -14.3684   24.1131 C   0  0  0  0  0  0  0  0  0  0  0  0
    9.6890  -16.6394   23.7152 C   0  0  0  0  0  0  0  0  0  0  0  0
   10.2139  -17.7877   23.7639 O   0  0  0  0  0  0  0  0  0  0  0  0
   10.3985  -12.9684   29.1115 C   0  0  0  0  0  0  0  0  0  0  0  0
   11.0356  -14.5711   29.6974 S   0  0  0  0  0  0  0  0  0  0  0  0
   11.1425  -15.7647   28.3544 C   0  0  0  0  0  0  0  0  0  0  0  0
   10.3408  -15.3151   27.1545 C   0  0  0  0  0  0  0  0  0  0  0  0
   10.5250  -16.2907   26.0165 C   0  0  2  0  0  0  0  0  0  0  0  0
    9.7860  -15.8369   24.8701 N   0  0  0  0  0  0  0  0  0  0  0  0
   10.1285  -17.6657   26.4219 C   0  0  0  0  0  0  0  0  0  0  0  0
    8.8995  -17.9855   26.3988 O   0  0  0  0  0  0  0  0  0  0  0  0
   11.0147  -18.6287   26.8261 O   0  0  0  0  0  0  0  0  0  0  0  0
  2  1  1  1
  2  3  1  0
  4  2  1  0
  5  4  2  0
  6  4  1  0
  7  6  1  0
  7  8  1  1
  9  8  1  0
  9 17  1  0
 10 11  1  0
 10  9  2  0
 11 12  1  0
 12 17  2  0
 12 13  1  0
 13 14  2  0
 14 15  1  0
 16 15  2  0
 17 16  1  0
 18  7  1  0
 18 19  2  0
 21 20  1  0
 22 21  1  0
 23 22  1  0
 24 23  1  1
 24 25  1  0
 25 18  1  0
 26 24  1  0
 27 26  2  0
 28 26  1  0
M  END
$$$$
