AWM.pdb
     RDKit          3D

 28 29  0  0  1  0  0  0  0  0999 V2000
   12.5149  -18.2413   20.6847 C   0  0  0  0  0  0  0  0  0  0  0  0
   11.4569  -17.1874   20.4354 C   0  0  2  0  0  0  0  0  0  0  0  0
   12.0238  -16.1501   19.6217 N   0  0  0  0  0  0  0  0  0  0  0  0
   11.0065  -16.6973   21.7688 C   0  0  0  0  0  0  0  0  0  0  0  0
   11.6551  -15.7582   22.2755 O   0  0  0  0  0  0  0  0  0  0  0  0
    9.9094  -17.2349   22.4620 N   0  0  0  0  0  0  0  0  0  0  0  0
    9.5254  -16.6926   23.7482 C   0  0  1  0  0  0  0  0  0  0  0  0
    8.0303  -16.7431   23.9570 C   0  0  0  0  0  0  0  0  0  0  0  0
    7.4375  -15.4082   23.6788 C   0  0  0  0  0  0  0  0  0  0  0  0
    7.0482  -14.9014   22.4386 C   0  0  0  0  0  0  0  0  0  0  0  0
    6.5659  -13.6666   22.6379 N   0  0  0  0  0  0  0  0  0  0  0  0
    6.6334  -13.3739   23.9416 C   0  0  0  0  0  0  0  0  0  0  0  0
    6.2589  -12.2321   24.6207 C   0  0  0  0  0  0  0  0  0  0  0  0
    6.4191  -12.1362   26.0030 C   0  0  0  0  0  0  0  0  0  0  0  0
    6.9593  -13.2019   26.6869 C   0  0  0  0  0  0  0  0  0  0  0  0
    7.3283  -14.3312   26.0052 C   0  0  0  0  0  0  0  0  0  0  0  0
    7.1787  -14.4500   24.6315 C   0  0  0  0  0  0  0  0  0  0  0  0
   10.2694  -17.3773   24.8363 C   0  0  0  0  0  0  0  0  0  0  0  0
   10.7697  -18.5194   24.6318 O   0  0  0  0  0  0  0  0  0  0  0  0
    9.8673  -12.9127   28.2309 C   0  0  0  0  0  0  0  0  0  0  0  0
   11.1338  -13.9887   28.9765 S   0  0  0  0  0  0  0  0  0  0  0  0
   11.7054  -15.2343   27.8097 C   0  0  0  0  0  0  0  0  0  0  0  0
   11.4198  -16.6307   28.3129 C   0  0  0  0  0  0  0  0  0  0  0  0
   11.1276  -17.5482   27.1494 C   0  0  2  0  0  0  0  0  0  0  0  0
   10.4537  -16.8125   26.1147 N   0  0  0  0  0  0  0  0  0  0  0  0
   10.3423  -18.7330   27.5874 C   0  0  0  0  0  0  0  0  0  0  0  0
   10.8437  -19.5220   28.4472 O   0  0  0  0  0  0  0  0  0  0  0  0
    9.0919  -19.0371   27.1181 O   0  0  0  0  0  0  0  0  0  0  0  0
  2  1  1  1
  2  3  1  0
  4  2  1  0
  5  4  2  0
  6  4  1  0
  7  6  1  0
  7  8  1  1
  9  8  1  0
  9 17  1  0
 10 11  1  0
 10  9  2  0
 11 12  1  0
 12 17  2  0
 12 13  1  0
 13 14  2  0
 14 15  1  0
 16 15  2  0
 17 16  1  0
 18  7  1  0
 18 19  2  0
 21 20  1  0
 22 21  1  0
 23 22  1  0
 24 23  1  1
 24 25  1  0
 25 18  1  0
 26 24  1  0
 27 26  2  0
 28 26  1  0
M  END
$$$$
