AWM.pdb
     RDKit          3D

 28 29  0  0  1  0  0  0  0  0999 V2000
    7.8356  -13.5153   19.5336 C   0  0  0  0  0  0  0  0  0  0  0  0
    8.7050  -14.7132   19.8518 C   0  0  2  0  0  0  0  0  0  0  0  0
    8.0296  -15.9011   19.4135 N   0  0  0  0  0  0  0  0  0  0  0  0
    8.9517  -14.6952   21.3215 C   0  0  0  0  0  0  0  0  0  0  0  0
    9.5874  -13.7218   21.7769 O   0  0  0  0  0  0  0  0  0  0  0  0
    8.5094  -15.7034   22.1939 N   0  0  0  0  0  0  0  0  0  0  0  0
    8.8148  -15.6277   23.6069 C   0  0  1  0  0  0  0  0  0  0  0  0
    7.7761  -16.3335   24.4462 C   0  0  0  0  0  0  0  0  0  0  0  0
    6.8346  -15.3384   25.0244 C   0  0  0  0  0  0  0  0  0  0  0  0
    5.5353  -15.5717   25.4762 C   0  0  0  0  0  0  0  0  0  0  0  0
    5.0435  -14.4054   25.9176 N   0  0  0  0  0  0  0  0  0  0  0  0
    5.9698  -13.4523   25.7650 C   0  0  0  0  0  0  0  0  0  0  0  0
    5.9257  -12.1073   26.0720 C   0  0  0  0  0  0  0  0  0  0  0  0
    7.0220  -11.2806   25.8265 C   0  0  0  0  0  0  0  0  0  0  0  0
    8.1570  -11.8262   25.2703 C   0  0  0  0  0  0  0  0  0  0  0  0
    8.1924  -13.1619   24.9687 C   0  0  0  0  0  0  0  0  0  0  0  0
    7.1153  -14.0036   25.2035 C   0  0  0  0  0  0  0  0  0  0  0  0
   10.1865  -16.1366   23.8632 C   0  0  0  0  0  0  0  0  0  0  0  0
   10.7359  -16.9077   23.0265 O   0  0  0  0  0  0  0  0  0  0  0  0
    9.9858  -14.1712   29.4604 C   0  0  0  0  0  0  0  0  0  0  0  0
   11.2020  -15.3712   28.8290 S   0  0  0  0  0  0  0  0  0  0  0  0
   11.7938  -14.9063   27.1940 C   0  0  0  0  0  0  0  0  0  0  0  0
   12.7134  -15.9608   26.6221 C   0  0  0  0  0  0  0  0  0  0  0  0
   12.1258  -16.5216   25.3488 C   0  0  2  0  0  0  0  0  0  0  0  0
   10.9283  -15.8006   25.0139 N   0  0  0  0  0  0  0  0  0  0  0  0
   11.8757  -17.9825   25.4739 C   0  0  0  0  0  0  0  0  0  0  0  0
   12.8610  -18.7641   25.6507 O   0  0  0  0  0  0  0  0  0  0  0  0
   10.6321  -18.5531   25.4101 O   0  0  0  0  0  0  0  0  0  0  0  0
  2  1  1  1
  2  3  1  0
  4  2  1  0
  5  4  2  0
  6  4  1  0
  7  6  1  0
  7  8  1  1
  9  8  1  0
  9 17  1  0
 10 11  1  0
 10  9  2  0
 11 12  1  0
 12 17  2  0
 12 13  1  0
 13 14  2  0
 14 15  1  0
 16 15  2  0
 17 16  1  0
 18  7  1  0
 18 19  2  0
 21 20  1  0
 22 21  1  0
 23 22  1  0
 24 23  1  1
 24 25  1  0
 25 18  1  0
 26 24  1  0
 27 26  2  0
 28 26  1  0
M  END
$$$$
