AWM.pdb
     RDKit          3D

 28 29  0  0  1  0  0  0  0  0999 V2000
   11.8728  -19.9005   20.0818 C   0  0  0  0  0  0  0  0  0  0  0  0
   10.9531  -18.8751   19.4535 C   0  0  2  0  0  0  0  0  0  0  0  0
   11.5812  -18.3566   18.2720 N   0  0  0  0  0  0  0  0  0  0  0  0
   10.6997  -17.8275   20.4828 C   0  0  0  0  0  0  0  0  0  0  0  0
   11.6301  -17.0289   20.7187 O   0  0  0  0  0  0  0  0  0  0  0  0
    9.4872  -17.7046   21.1813 N   0  0  0  0  0  0  0  0  0  0  0  0
    9.2447  -16.5492   22.0191 C   0  0  1  0  0  0  0  0  0  0  0  0
    7.8062  -16.0939   21.9479 C   0  0  0  0  0  0  0  0  0  0  0  0
    7.6641  -14.7687   22.6070 C   0  0  0  0  0  0  0  0  0  0  0  0
    8.1995  -13.5534   22.1790 C   0  0  0  0  0  0  0  0  0  0  0  0
    7.8308  -12.6142   23.0616 N   0  0  0  0  0  0  0  0  0  0  0  0
    7.0908  -13.1800   24.0217 C   0  0  0  0  0  0  0  0  0  0  0  0
    6.4927  -12.6219   25.1335 C   0  0  0  0  0  0  0  0  0  0  0  0
    5.7540  -13.4067   26.0189 C   0  0  0  0  0  0  0  0  0  0  0  0
    5.6277  -14.7546   25.7689 C   0  0  0  0  0  0  0  0  0  0  0  0
    6.2243  -15.3003   24.6633 C   0  0  0  0  0  0  0  0  0  0  0  0
    6.9635  -14.5406   23.7688 C   0  0  0  0  0  0  0  0  0  0  0  0
    9.6797  -16.8254   23.4122 C   0  0  0  0  0  0  0  0  0  0  0  0
    9.8512  -18.0186   23.7908 O   0  0  0  0  0  0  0  0  0  0  0  0
   11.5173  -13.7155   30.3442 C   0  0  0  0  0  0  0  0  0  0  0  0
   10.1553  -13.9867   29.1656 S   0  0  0  0  0  0  0  0  0  0  0  0
   10.5403  -15.3143   28.0129 C   0  0  0  0  0  0  0  0  0  0  0  0
   10.0191  -15.0077   26.6276 C   0  0  0  0  0  0  0  0  0  0  0  0
   10.3702  -16.1333   25.6839 C   0  0  2  0  0  0  0  0  0  0  0  0
    9.9176  -15.8083   24.3589 N   0  0  0  0  0  0  0  0  0  0  0  0
    9.8070  -17.4251   26.1599 C   0  0  0  0  0  0  0  0  0  0  0  0
   10.4726  -18.1202   26.9887 O   0  0  0  0  0  0  0  0  0  0  0  0
    8.5970  -17.9256   25.7580 O   0  0  0  0  0  0  0  0  0  0  0  0
  2  1  1  1
  2  3  1  0
  4  2  1  0
  5  4  2  0
  6  4  1  0
  7  6  1  0
  7  8  1  1
  9  8  1  0
  9 17  1  0
 10 11  1  0
 10  9  2  0
 11 12  1  0
 12 17  2  0
 12 13  1  0
 13 14  2  0
 14 15  1  0
 16 15  2  0
 17 16  1  0
 18  7  1  0
 18 19  2  0
 21 20  1  0
 22 21  1  0
 23 22  1  0
 24 23  1  1
 24 25  1  0
 25 18  1  0
 26 24  1  0
 27 26  2  0
 28 26  1  0
M  END
$$$$
