AWM.pdb
     RDKit          3D

 28 29  0  0  1  0  0  0  0  0999 V2000
    7.9050  -13.4069   19.0954 C   0  0  0  0  0  0  0  0  0  0  0  0
    8.9153  -14.4653   19.4843 C   0  0  2  0  0  0  0  0  0  0  0  0
    8.5282  -15.7118   18.8878 N   0  0  0  0  0  0  0  0  0  0  0  0
    8.9403  -14.5183   20.9735 C   0  0  0  0  0  0  0  0  0  0  0  0
    9.3740  -13.5099   21.5686 O   0  0  0  0  0  0  0  0  0  0  0  0
    8.5069  -15.6286   21.7169 N   0  0  0  0  0  0  0  0  0  0  0  0
    8.5582  -15.6001   23.1633 C   0  0  1  0  0  0  0  0  0  0  0  0
    7.4175  -16.3726   23.7826 C   0  0  0  0  0  0  0  0  0  0  0  0
    6.7272  -15.5281   24.7931 C   0  0  0  0  0  0  0  0  0  0  0  0
    5.6698  -15.9024   25.6228 C   0  0  0  0  0  0  0  0  0  0  0  0
    5.3514  -14.8416   26.3781 N   0  0  0  0  0  0  0  0  0  0  0  0
    6.1566  -13.8207   26.0633 C   0  0  0  0  0  0  0  0  0  0  0  0
    6.2091  -12.5368   26.5673 C   0  0  0  0  0  0  0  0  0  0  0  0
    7.1425  -11.6174   26.0888 C   0  0  0  0  0  0  0  0  0  0  0  0
    8.0173  -12.0087   25.1005 C   0  0  0  0  0  0  0  0  0  0  0  0
    7.9585  -13.2846   24.6058 C   0  0  0  0  0  0  0  0  0  0  0  0
    7.0396  -14.2163   25.0656 C   0  0  0  0  0  0  0  0  0  0  0  0
    9.8831  -16.0740   23.6390 C   0  0  0  0  0  0  0  0  0  0  0  0
   10.7276  -16.5130   22.8079 O   0  0  0  0  0  0  0  0  0  0  0  0
    9.7604  -13.3909   29.2034 C   0  0  0  0  0  0  0  0  0  0  0  0
   10.2966  -15.0874   28.8138 S   0  0  0  0  0  0  0  0  0  0  0  0
   11.3425  -15.1245   27.3494 C   0  0  0  0  0  0  0  0  0  0  0  0
   11.6325  -16.5435   26.9170 C   0  0  0  0  0  0  0  0  0  0  0  0
   11.4973  -16.6634   25.4176 C   0  0  2  0  0  0  0  0  0  0  0  0
   10.2614  -16.0620   24.9969 N   0  0  0  0  0  0  0  0  0  0  0  0
   11.5982  -18.0826   24.9838 C   0  0  0  0  0  0  0  0  0  0  0  0
   10.5606  -18.6686   24.5445 O   0  0  0  0  0  0  0  0  0  0  0  0
   12.7553  -18.8142   25.0264 O   0  0  0  0  0  0  0  0  0  0  0  0
  2  1  1  1
  2  3  1  0
  4  2  1  0
  5  4  2  0
  6  4  1  0
  7  6  1  0
  7  8  1  1
  9  8  1  0
  9 17  1  0
 10 11  1  0
 10  9  2  0
 11 12  1  0
 12 17  2  0
 12 13  1  0
 13 14  2  0
 14 15  1  0
 16 15  2  0
 17 16  1  0
 18  7  1  0
 18 19  2  0
 21 20  1  0
 22 21  1  0
 23 22  1  0
 24 23  1  1
 24 25  1  0
 25 18  1  0
 26 24  1  0
 27 26  2  0
 28 26  1  0
M  END
$$$$
