AWM.pdb
     RDKit          3D

 28 29  0  0  1  0  0  0  0  0999 V2000
   12.3855  -18.0438   19.4868 C   0  0  0  0  0  0  0  0  0  0  0  0
   10.8867  -18.0100   19.6973 C   0  0  2  0  0  0  0  0  0  0  0  0
   10.2693  -17.4657   18.5218 N   0  0  0  0  0  0  0  0  0  0  0  0
   10.6357  -17.1901   20.9164 C   0  0  0  0  0  0  0  0  0  0  0  0
   11.3328  -16.1645   21.0622 O   0  0  0  0  0  0  0  0  0  0  0  0
    9.6710  -17.5157   21.8842 N   0  0  0  0  0  0  0  0  0  0  0  0
    9.3349  -16.5660   22.9239 C   0  0  1  0  0  0  0  0  0  0  0  0
    7.8563  -16.5686   23.2322 C   0  0  0  0  0  0  0  0  0  0  0  0
    7.3410  -15.1738   23.2401 C   0  0  0  0  0  0  0  0  0  0  0  0
    6.9657  -14.4083   22.1357 C   0  0  0  0  0  0  0  0  0  0  0  0
    6.5613  -13.2132   22.5888 N   0  0  0  0  0  0  0  0  0  0  0  0
    6.6644  -13.1912   23.9224 C   0  0  0  0  0  0  0  0  0  0  0  0
    6.3687  -12.1890   24.8243 C   0  0  0  0  0  0  0  0  0  0  0  0
    6.5536  -12.3806   26.1934 C   0  0  0  0  0  0  0  0  0  0  0  0
    7.0382  -13.5900   26.6379 C   0  0  0  0  0  0  0  0  0  0  0  0
    7.3291  -14.5792   25.7362 C   0  0  0  0  0  0  0  0  0  0  0  0
    7.1536  -14.4124   24.3705 C   0  0  0  0  0  0  0  0  0  0  0  0
   10.1625  -16.8140   24.1321 C   0  0  0  0  0  0  0  0  0  0  0  0
   10.4078  -18.0002   24.4918 O   0  0  0  0  0  0  0  0  0  0  0  0
   11.2765  -14.6293   31.3974 C   0  0  0  0  0  0  0  0  0  0  0  0
   10.6304  -14.2990   29.7267 S   0  0  0  0  0  0  0  0  0  0  0  0
   11.6611  -15.0603   28.4627 C   0  0  0  0  0  0  0  0  0  0  0  0
   11.1194  -14.7926   27.0773 C   0  0  0  0  0  0  0  0  0  0  0  0
   11.2051  -16.0460   26.2391 C   0  0  2  0  0  0  0  0  0  0  0  0
   10.7028  -15.7770   24.9195 N   0  0  0  0  0  0  0  0  0  0  0  0
   10.4824  -17.1728   26.8875 C   0  0  0  0  0  0  0  0  0  0  0  0
    9.2123  -17.1710   26.8900 O   0  0  0  0  0  0  0  0  0  0  0  0
   11.1045  -18.2320   27.4933 O   0  0  0  0  0  0  0  0  0  0  0  0
  2  1  1  6
  2  3  1  0
  4  2  1  0
  5  4  2  0
  6  4  1  0
  7  6  1  0
  7  8  1  1
  9  8  1  0
  9 17  1  0
 10 11  1  0
 10  9  2  0
 11 12  1  0
 12 17  2  0
 12 13  1  0
 13 14  2  0
 14 15  1  0
 16 15  2  0
 17 16  1  0
 18  7  1  0
 18 19  2  0
 21 20  1  0
 22 21  1  0
 23 22  1  0
 24 23  1  1
 24 25  1  0
 25 18  1  0
 26 24  1  0
 27 26  2  0
 28 26  1  0
M  END
$$$$
