MIE.pdb
     RDKit          3D

 26 25  0  0  1  0  0  0  0  0999 V2000
   22.3148  -19.9789  -15.9634 C   0  0  0  0  0  0  0  0  0  0  0  0
   23.6041  -18.7178  -16.0792 S   0  0  0  0  0  0  0  0  0  0  0  0
   25.0393  -19.2699  -15.1388 C   0  0  0  0  0  0  0  0  0  0  0  0
   24.5712  -19.9606  -13.8958 C   0  0  0  0  0  0  0  0  0  0  0  0
   25.7687  -20.4335  -13.0989 C   0  0  2  0  0  0  0  0  0  0  0  0
   26.5456  -21.3840  -13.8510 N   0  0  0  0  0  0  0  0  0  0  0  0
   25.3504  -21.0584  -11.8280 C   0  0  0  0  0  0  0  0  0  0  0  0
   25.0089  -22.2811  -11.8856 O   0  0  0  0  0  0  0  0  0  0  0  0
   27.3845  -19.2065   -7.1215 C   0  0  0  0  0  0  0  0  0  0  0  0
   26.8699  -20.1798   -8.1830 C   0  0  0  0  0  0  0  0  0  0  0  0
   25.3718  -20.2054   -8.2055 C   0  0  2  0  0  0  0  0  0  0  0  0
   24.9461  -20.9257   -6.9176 C   0  0  0  0  0  0  0  0  0  0  0  0
   24.8093  -20.8988   -9.3918 C   0  0  2  0  0  0  0  0  0  0  0  0
   25.3390  -20.3219  -10.6349 N   0  0  0  0  0  0  0  0  0  0  0  0
   23.3180  -20.8227   -9.4203 C   0  0  0  0  0  0  0  0  0  0  0  0
   22.6852  -19.7644   -9.6286 O   0  0  0  0  0  0  0  0  0  0  0  0
   22.5210  -21.9874   -9.2051 N   0  0  0  0  0  0  0  0  0  0  0  0
   21.0718  -21.9657   -9.2231 C   0  0  1  0  0  0  0  0  0  0  0  0
   20.5254  -22.3670  -10.5409 C   0  0  0  0  0  0  0  0  0  0  0  0
   19.0750  -22.4857  -10.7245 C   0  0  0  0  0  0  0  0  0  0  0  0
   18.5621  -22.8663  -12.0389 C   0  0  0  0  0  0  0  0  0  0  0  0
   17.3903  -23.1722  -12.3049 O   0  0  0  0  0  0  0  0  0  0  0  0
   20.5467  -22.5798   -8.0220 C   0  0  0  0  0  0  0  0  0  0  0  0
   21.2874  -23.4780   -7.2630 O   0  0  0  0  0  0  0  0  0  0  0  0
   19.4514  -22.8995  -13.1252 O   0  0  0  0  0  0  0  0  0  0  0  0
   19.3872  -22.3230   -7.6221 O   0  0  0  0  0  0  0  0  0  0  0  0
  2  1  1  0
  3  2  1  0
  3  4  1  0
  4  5  1  0
  5  6  1  6
  7  5  1  0
  7  8  2  0
 10  9  1  0
 11 10  1  0
 11 13  1  0
 11 12  1  1
 13 14  1  6
 14  7  1  0
 15 13  1  0
 16 15  2  0
 17 15  1  0
 18 19  1  6
 18 17  1  0
 19 20  1  0
 21 20  1  0
 21 22  2  0
 23 18  1  0
 24 23  1  0
 25 21  1  0
 26 23  2  0
M  END
$$$$
