MIE.pdb
     RDKit          3D

 26 25  0  0  1  0  0  0  0  0999 V2000
   17.9228  -15.1538  -19.1039 C   0  0  0  0  0  0  0  0  0  0  0  0
   19.0181  -15.9202  -20.3201 S   0  0  0  0  0  0  0  0  0  0  0  0
   20.5389  -16.4228  -19.4931 C   0  0  0  0  0  0  0  0  0  0  0  0
   20.7850  -15.5126  -18.3304 C   0  0  0  0  0  0  0  0  0  0  0  0
   22.0778  -15.9046  -17.6464 C   0  0  2  0  0  0  0  0  0  0  0  0
   21.9731  -17.2144  -17.0580 N   0  0  0  0  0  0  0  0  0  0  0  0
   22.4385  -14.9354  -16.5923 C   0  0  0  0  0  0  0  0  0  0  0  0
   21.9140  -15.1223  -15.4500 O   0  0  0  0  0  0  0  0  0  0  0  0
   26.9550  -11.5595  -14.4847 C   0  0  0  0  0  0  0  0  0  0  0  0
   25.4366  -11.6862  -14.6154 C   0  0  0  0  0  0  0  0  0  0  0  0
   25.0708  -12.7200  -15.6366 C   0  0  2  0  0  0  0  0  0  0  0  0
   25.7545  -12.2810  -16.9399 C   0  0  0  0  0  0  0  0  0  0  0  0
   23.6070  -12.8547  -15.8447 C   0  0  2  0  0  0  0  0  0  0  0  0
   23.3147  -13.8744  -16.8614 N   0  0  0  0  0  0  0  0  0  0  0  0
   22.9874  -11.5621  -16.2642 C   0  0  0  0  0  0  0  0  0  0  0  0
   23.0449  -11.1163  -17.4312 O   0  0  0  0  0  0  0  0  0  0  0  0
   22.2802  -10.7506  -15.3265 N   0  0  0  0  0  0  0  0  0  0  0  0
   21.6065   -9.5219  -15.6973 C   0  0  1  0  0  0  0  0  0  0  0  0
   20.1322   -9.6499  -15.6187 C   0  0  0  0  0  0  0  0  0  0  0  0
   19.2857   -8.4658  -15.8000 C   0  0  0  0  0  0  0  0  0  0  0  0
   17.8434   -8.5967  -15.6049 C   0  0  0  0  0  0  0  0  0  0  0  0
   17.2420   -9.6295  -15.2747 O   0  0  0  0  0  0  0  0  0  0  0  0
   22.2532   -8.3877  -15.0721 C   0  0  0  0  0  0  0  0  0  0  0  0
   22.0948   -7.0901  -15.5440 O   0  0  0  0  0  0  0  0  0  0  0  0
   17.0320   -7.4675  -15.8010 O   0  0  0  0  0  0  0  0  0  0  0  0
   22.9931   -8.5395  -14.0722 O   0  0  0  0  0  0  0  0  0  0  0  0
  2  1  1  0
  3  2  1  0
  3  4  1  0
  4  5  1  0
  5  6  1  1
  7  5  1  0
  7  8  2  0
 10  9  1  0
 11 10  1  0
 11 13  1  0
 11 12  1  6
 13 14  1  6
 14  7  1  0
 15 13  1  0
 16 15  2  0
 17 15  1  0
 18 19  1  1
 18 17  1  0
 19 20  1  0
 21 20  1  0
 21 22  2  0
 23 18  1  0
 24 23  1  0
 25 21  1  0
 26 23  2  0
M  END
$$$$
