MIE.pdb
     RDKit          3D

 26 25  0  0  1  0  0  0  0  0999 V2000
   26.1830  -17.6447  -17.3934 C   0  0  0  0  0  0  0  0  0  0  0  0
   27.9474  -17.8491  -17.7272 S   0  0  0  0  0  0  0  0  0  0  0  0
   28.5809  -19.1830  -16.6936 C   0  0  0  0  0  0  0  0  0  0  0  0
   27.4754  -19.6900  -15.8206 C   0  0  0  0  0  0  0  0  0  0  0  0
   28.0088  -20.7746  -14.9085 C   0  0  2  0  0  0  0  0  0  0  0  0
   28.4378  -21.9209  -15.6666 N   0  0  0  0  0  0  0  0  0  0  0  0
   26.9853  -21.2029  -13.9340 C   0  0  0  0  0  0  0  0  0  0  0  0
   26.1914  -22.1192  -14.3150 O   0  0  0  0  0  0  0  0  0  0  0  0
   27.7612  -20.6968   -8.5167 C   0  0  0  0  0  0  0  0  0  0  0  0
   27.2564  -21.3049   -9.8260 C   0  0  0  0  0  0  0  0  0  0  0  0
   26.1023  -20.5202  -10.3716 C   0  0  2  0  0  0  0  0  0  0  0  0
   24.9127  -20.8306   -9.4512 C   0  0  0  0  0  0  0  0  0  0  0  0
   25.7668  -20.8607  -11.7773 C   0  0  2  0  0  0  0  0  0  0  0  0
   26.9131  -20.6154  -12.6630 N   0  0  0  0  0  0  0  0  0  0  0  0
   24.5968  -20.0748  -12.2717 C   0  0  0  0  0  0  0  0  0  0  0  0
   24.7031  -18.9796  -12.8660 O   0  0  0  0  0  0  0  0  0  0  0  0
   23.2637  -20.5496  -12.0840 N   0  0  0  0  0  0  0  0  0  0  0  0
   22.1705  -20.2016  -12.9700 C   0  0  1  0  0  0  0  0  0  0  0  0
   22.5369  -20.3643  -14.3967 C   0  0  0  0  0  0  0  0  0  0  0  0
   21.5475  -20.0802  -15.4416 C   0  0  0  0  0  0  0  0  0  0  0  0
   21.9334  -20.2538  -16.8404 C   0  0  0  0  0  0  0  0  0  0  0  0
   23.0421  -20.6275  -17.2510 O   0  0  0  0  0  0  0  0  0  0  0  0
   20.9323  -20.7752  -12.4870 C   0  0  0  0  0  0  0  0  0  0  0  0
   19.6909  -20.2397  -12.8092 O   0  0  0  0  0  0  0  0  0  0  0  0
   20.9851  -19.9810  -17.8396 O   0  0  0  0  0  0  0  0  0  0  0  0
   20.9371  -21.7862  -11.7467 O   0  0  0  0  0  0  0  0  0  0  0  0
  2  1  1  0
  3  2  1  0
  3  4  1  0
  4  5  1  0
  5  6  1  6
  7  5  1  0
  7  8  2  0
 10  9  1  0
 11 10  1  0
 11 13  1  0
 11 12  1  1
 13 14  1  6
 14  7  1  0
 15 13  1  0
 16 15  2  0
 17 15  1  0
 18 19  1  6
 18 17  1  0
 19 20  1  0
 21 20  1  0
 21 22  2  0
 23 18  1  0
 24 23  1  0
 25 21  1  0
 26 23  2  0
M  END
$$$$
