MIE.pdb
     RDKit          3D

 26 25  0  0  1  0  0  0  0  0999 V2000
   25.8148  -16.5106  -16.8915 C   0  0  0  0  0  0  0  0  0  0  0  0
   27.4662  -16.1383  -16.2588 S   0  0  0  0  0  0  0  0  0  0  0  0
   28.1993  -17.6585  -15.6258 C   0  0  0  0  0  0  0  0  0  0  0  0
   27.1154  -18.5256  -15.0650 C   0  0  0  0  0  0  0  0  0  0  0  0
   27.7305  -19.7482  -14.4173 C   0  0  2  0  0  0  0  0  0  0  0  0
   28.3754  -20.5818  -15.3982 N   0  0  0  0  0  0  0  0  0  0  0  0
   26.7100  -20.5468  -13.7092 C   0  0  0  0  0  0  0  0  0  0  0  0
   26.2407  -21.5474  -14.3366 O   0  0  0  0  0  0  0  0  0  0  0  0
   26.5227  -20.6551   -8.2262 C   0  0  0  0  0  0  0  0  0  0  0  0
   26.3171  -21.2712   -9.6107 C   0  0  0  0  0  0  0  0  0  0  0  0
   25.1548  -20.6371  -10.3124 C   0  0  2  0  0  0  0  0  0  0  0  0
   23.8977  -21.2489   -9.6768 C   0  0  0  0  0  0  0  0  0  0  0  0
   25.1522  -20.8661  -11.7793 C   0  0  2  0  0  0  0  0  0  0  0  0
   26.2972  -20.2001  -12.4149 N   0  0  0  0  0  0  0  0  0  0  0  0
   23.8929  -20.3728  -12.4130 C   0  0  0  0  0  0  0  0  0  0  0  0
   23.5624  -19.1670  -12.4432 O   0  0  0  0  0  0  0  0  0  0  0  0
   22.9806  -21.2796  -13.0320 N   0  0  0  0  0  0  0  0  0  0  0  0
   21.7655  -20.8471  -13.6936 C   0  0  1  0  0  0  0  0  0  0  0  0
   21.6425  -21.4134  -15.0575 C   0  0  0  0  0  0  0  0  0  0  0  0
   20.4691  -21.0941  -15.8777 C   0  0  0  0  0  0  0  0  0  0  0  0
   20.3674  -21.6750  -17.2147 C   0  0  0  0  0  0  0  0  0  0  0  0
   21.1506  -22.4951  -17.7161 O   0  0  0  0  0  0  0  0  0  0  0  0
   20.6417  -20.9366  -12.7856 C   0  0  0  0  0  0  0  0  0  0  0  0
   19.5976  -20.0195  -12.8044 O   0  0  0  0  0  0  0  0  0  0  0  0
   19.2949  -21.2913  -18.0360 O   0  0  0  0  0  0  0  0  0  0  0  0
   20.5729  -21.8545  -11.9354 O   0  0  0  0  0  0  0  0  0  0  0  0
  2  1  1  0
  3  2  1  0
  3  4  1  0
  4  5  1  0
  5  6  1  6
  7  5  1  0
  7  8  2  0
 10  9  1  0
 11 10  1  0
 11 13  1  0
 11 12  1  1
 13 14  1  6
 14  7  1  0
 15 13  1  0
 16 15  2  0
 17 15  1  0
 18 19  1  6
 18 17  1  0
 19 20  1  0
 21 20  1  0
 21 22  2  0
 23 18  1  0
 24 23  1  0
 25 21  1  0
 26 23  2  0
M  END
$$$$
