MIE.pdb
     RDKit          3D

 26 25  0  0  1  0  0  0  0  0999 V2000
   25.9051  -17.3079  -17.2493 C   0  0  0  0  0  0  0  0  0  0  0  0
   27.6206  -17.6451  -17.7071 S   0  0  0  0  0  0  0  0  0  0  0  0
   28.3377  -18.7579  -16.4839 C   0  0  0  0  0  0  0  0  0  0  0  0
   27.2352  -19.5003  -15.7950 C   0  0  0  0  0  0  0  0  0  0  0  0
   27.8218  -20.4011  -14.7286 C   0  0  2  0  0  0  0  0  0  0  0  0
   28.6258  -21.4405  -15.3170 N   0  0  0  0  0  0  0  0  0  0  0  0
   26.7599  -21.0235  -13.9129 C   0  0  0  0  0  0  0  0  0  0  0  0
   26.2847  -22.1198  -14.3458 O   0  0  0  0  0  0  0  0  0  0  0  0
   26.7153  -20.6456   -8.4461 C   0  0  0  0  0  0  0  0  0  0  0  0
   26.5085  -21.2455   -9.8375 C   0  0  0  0  0  0  0  0  0  0  0  0
   25.3246  -20.6276  -10.5171 C   0  0  2  0  0  0  0  0  0  0  0  0
   24.0933  -21.1202   -9.7426 C   0  0  0  0  0  0  0  0  0  0  0  0
   25.2086  -20.9919  -11.9517 C   0  0  2  0  0  0  0  0  0  0  0  0
   26.3163  -20.4186  -12.7283 N   0  0  0  0  0  0  0  0  0  0  0  0
   23.9158  -20.5262  -12.5371 C   0  0  0  0  0  0  0  0  0  0  0  0
   23.6173  -19.3200  -12.6781 O   0  0  0  0  0  0  0  0  0  0  0  0
   22.9312  -21.4622  -12.9758 N   0  0  0  0  0  0  0  0  0  0  0  0
   21.6606  -21.0610  -13.5465 C   0  0  1  0  0  0  0  0  0  0  0  0
   21.2234  -21.9740  -14.6288 C   0  0  0  0  0  0  0  0  0  0  0  0
   19.9092  -21.7895  -15.2534 C   0  0  0  0  0  0  0  0  0  0  0  0
   19.4550  -22.7698  -16.2374 C   0  0  0  0  0  0  0  0  0  0  0  0
   20.0548  -23.8030  -16.5692 O   0  0  0  0  0  0  0  0  0  0  0  0
   20.7283  -20.7102  -12.4962 C   0  0  0  0  0  0  0  0  0  0  0  0
   19.7940  -19.6918  -12.6429 O   0  0  0  0  0  0  0  0  0  0  0  0
   18.2293  -22.5535  -16.8876 O   0  0  0  0  0  0  0  0  0  0  0  0
   20.7348  -21.3181  -11.4004 O   0  0  0  0  0  0  0  0  0  0  0  0
  2  1  1  0
  3  2  1  0
  3  4  1  0
  4  5  1  0
  5  6  1  6
  7  5  1  0
  7  8  2  0
 10  9  1  0
 11 10  1  0
 11 13  1  0
 11 12  1  1
 13 14  1  6
 14  7  1  0
 15 13  1  0
 16 15  2  0
 17 15  1  0
 18 19  1  1
 18 17  1  0
 19 20  1  0
 21 20  1  0
 21 22  2  0
 23 18  1  0
 24 23  1  0
 25 21  1  0
 26 23  2  0
M  END
$$$$
