MIE.pdb
     RDKit          3D

 26 25  0  0  1  0  0  0  0  0999 V2000
   26.3797  -16.8703  -16.8762 C   0  0  0  0  0  0  0  0  0  0  0  0
   28.1030  -17.2644  -17.2518 S   0  0  0  0  0  0  0  0  0  0  0  0
   28.5874  -18.7120  -16.2933 C   0  0  0  0  0  0  0  0  0  0  0  0
   27.3626  -19.3363  -15.7007 C   0  0  0  0  0  0  0  0  0  0  0  0
   27.7691  -20.4326  -14.7385 C   0  0  2  0  0  0  0  0  0  0  0  0
   28.4283  -21.5085  -15.4317 N   0  0  0  0  0  0  0  0  0  0  0  0
   26.5974  -20.9741  -14.0214 C   0  0  0  0  0  0  0  0  0  0  0  0
   25.9411  -21.8841  -14.6181 O   0  0  0  0  0  0  0  0  0  0  0  0
   26.4499  -20.6741   -8.5102 C   0  0  0  0  0  0  0  0  0  0  0  0
   26.2602  -21.2892   -9.8974 C   0  0  0  0  0  0  0  0  0  0  0  0
   25.1039  -20.6569  -10.6106 C   0  0  2  0  0  0  0  0  0  0  0  0
   23.8427  -21.1710   -9.9010 C   0  0  0  0  0  0  0  0  0  0  0  0
   25.0493  -20.9857  -12.0574 C   0  0  2  0  0  0  0  0  0  0  0  0
   26.2476  -20.4941  -12.7512 N   0  0  0  0  0  0  0  0  0  0  0  0
   23.8391  -20.4033  -12.7109 C   0  0  0  0  0  0  0  0  0  0  0  0
   23.6504  -19.1740  -12.8422 O   0  0  0  0  0  0  0  0  0  0  0  0
   22.8108  -21.2458  -13.2312 N   0  0  0  0  0  0  0  0  0  0  0  0
   21.6519  -20.7331  -13.9349 C   0  0  1  0  0  0  0  0  0  0  0  0
   21.6610  -21.1069  -15.3689 C   0  0  0  0  0  0  0  0  0  0  0  0
   20.5512  -20.6990  -16.2369 C   0  0  0  0  0  0  0  0  0  0  0  0
   20.5576  -21.1279  -17.6339 C   0  0  0  0  0  0  0  0  0  0  0  0
   20.7308  -22.2861  -18.0413 O   0  0  0  0  0  0  0  0  0  0  0  0
   20.4535  -20.9529  -13.1533 C   0  0  0  0  0  0  0  0  0  0  0  0
   19.3383  -20.1301  -13.2573 O   0  0  0  0  0  0  0  0  0  0  0  0
   20.3516  -20.1650  -18.6350 O   0  0  0  0  0  0  0  0  0  0  0  0
   20.3810  -21.9037  -12.3402 O   0  0  0  0  0  0  0  0  0  0  0  0
  2  1  1  0
  3  2  1  0
  3  4  1  0
  4  5  1  0
  5  6  1  6
  7  5  1  0
  7  8  2  0
 10  9  1  0
 11 10  1  0
 11 13  1  0
 11 12  1  1
 13 14  1  6
 14  7  1  0
 15 13  1  0
 16 15  2  0
 17 15  1  0
 18 19  1  6
 18 17  1  0
 19 20  1  0
 21 20  1  0
 21 22  2  0
 23 18  1  0
 24 23  1  0
 25 21  1  0
 26 23  2  0
M  END
$$$$
