MIE.pdb
     RDKit          3D

 26 25  0  0  1  0  0  0  0  0999 V2000
   26.6832  -15.3034  -14.8542 C   0  0  0  0  0  0  0  0  0  0  0  0
   27.0418  -16.0072  -16.4797 S   0  0  0  0  0  0  0  0  0  0  0  0
   27.5525  -17.7228  -16.2672 C   0  0  0  0  0  0  0  0  0  0  0  0
   27.4933  -18.0723  -14.8128 C   0  0  0  0  0  0  0  0  0  0  0  0
   27.9017  -19.5180  -14.6233 C   0  0  2  0  0  0  0  0  0  0  0  0
   28.2020  -20.1387  -15.8872 N   0  0  0  0  0  0  0  0  0  0  0  0
   26.8356  -20.2900  -13.9540 C   0  0  0  0  0  0  0  0  0  0  0  0
   26.2526  -21.1739  -14.6565 O   0  0  0  0  0  0  0  0  0  0  0  0
   26.8139  -20.4935   -8.4264 C   0  0  0  0  0  0  0  0  0  0  0  0
   26.6193  -21.1138   -9.8106 C   0  0  0  0  0  0  0  0  0  0  0  0
   25.4180  -20.5344  -10.4936 C   0  0  2  0  0  0  0  0  0  0  0  0
   24.2007  -21.2031   -9.8381 C   0  0  0  0  0  0  0  0  0  0  0  0
   25.4025  -20.7643  -11.9603 C   0  0  2  0  0  0  0  0  0  0  0  0
   26.5026  -20.0428  -12.6146 N   0  0  0  0  0  0  0  0  0  0  0  0
   24.1101  -20.3344  -12.5732 C   0  0  0  0  0  0  0  0  0  0  0  0
   23.7315  -19.1434  -12.6200 O   0  0  0  0  0  0  0  0  0  0  0  0
   23.2201  -21.2893  -13.1510 N   0  0  0  0  0  0  0  0  0  0  0  0
   21.9749  -20.9187  -13.7938 C   0  0  1  0  0  0  0  0  0  0  0  0
   21.7887  -21.6143  -15.0891 C   0  0  0  0  0  0  0  0  0  0  0  0
   20.5133  -21.4971  -15.8041 C   0  0  0  0  0  0  0  0  0  0  0  0
   20.4062  -20.5317  -16.8960 C   0  0  0  0  0  0  0  0  0  0  0  0
   21.3519  -19.9890  -17.4862 O   0  0  0  0  0  0  0  0  0  0  0  0
   20.8950  -20.9159  -12.8299 C   0  0  0  0  0  0  0  0  0  0  0  0
   19.8528  -19.9982  -12.8857 O   0  0  0  0  0  0  0  0  0  0  0  0
   19.1281  -20.1608  -17.3441 O   0  0  0  0  0  0  0  0  0  0  0  0
   20.8647  -21.7498  -11.8950 O   0  0  0  0  0  0  0  0  0  0  0  0
  2  1  1  0
  3  2  1  0
  3  4  1  0
  4  5  1  0
  5  6  1  6
  7  5  1  0
  7  8  2  0
 10  9  1  0
 11 10  1  0
 11 13  1  0
 11 12  1  1
 13 14  1  6
 14  7  1  0
 15 13  1  0
 16 15  2  0
 17 15  1  0
 18 19  1  6
 18 17  1  0
 19 20  1  0
 21 20  1  0
 21 22  2  0
 23 18  1  0
 24 23  1  0
 25 21  1  0
 26 23  2  0
M  END
$$$$
