DDR.pdb
     RDKit          3D

 28 27  0  0  1  0  0  0  0  0999 V2000
   26.2374  -17.4292  -19.2117 N   0  0  0  0  0  0  0  0  0  0  0  0
   26.4768  -18.4581  -18.2530 C   0  0  1  0  0  0  0  0  0  0  0  0
   27.8168  -18.3808  -17.5959 C   0  0  0  0  0  0  0  0  0  0  0  0
   28.9341  -18.8242  -18.4607 C   0  0  0  0  0  0  0  0  0  0  0  0
   29.6726  -17.9616  -18.9809 O   0  0  0  0  0  0  0  0  0  0  0  0
   25.4580  -18.4408  -17.1476 C   0  0  0  0  0  0  0  0  0  0  0  0
   25.8122  -17.9990  -16.0321 O   0  0  0  0  0  0  0  0  0  0  0  0
   29.1887  -20.1591  -18.7123 O   0  0  0  0  0  0  0  0  0  0  0  0
   24.1306  -18.8955  -17.3035 N   0  0  0  0  0  0  0  0  0  0  0  0
   23.1150  -18.8410  -16.2927 C   0  0  1  0  0  0  0  0  0  0  0  0
   21.7544  -18.7264  -16.8893 C   0  0  0  0  0  0  0  0  0  0  0  0
   20.6546  -18.6692  -15.9222 C   0  0  0  0  0  0  0  0  0  0  0  0
   19.6071  -19.3151  -16.2001 O   0  0  0  0  0  0  0  0  0  0  0  0
   23.2417  -19.9513  -15.3093 C   0  0  0  0  0  0  0  0  0  0  0  0
   23.2481  -21.1288  -15.7396 O   0  0  0  0  0  0  0  0  0  0  0  0
   20.6584  -17.9681  -14.7259 O   0  0  0  0  0  0  0  0  0  0  0  0
   28.1882  -19.8254   -8.5881 N   0  0  0  0  0  0  0  0  0  0  0  0
   28.3714  -20.8589   -9.5563 C   0  0  0  0  0  0  0  0  0  0  0  0
   29.5528  -21.3007   -9.8403 N   0  0  0  0  0  0  0  0  0  0  0  0
   27.2835  -21.4499  -10.2523 N   0  0  0  0  0  0  0  0  0  0  0  0
   25.9702  -20.9481  -10.0613 C   0  0  0  0  0  0  0  0  0  0  0  0
   24.9321  -21.5506  -10.9928 C   0  0  0  0  0  0  0  0  0  0  0  0
   24.6094  -20.4779  -12.0028 C   0  0  0  0  0  0  0  0  0  0  0  0
   23.5169  -20.8647  -12.9788 C   0  0  2  0  0  0  0  0  0  0  0  0
   23.3562  -19.7505  -13.9127 N   0  0  0  0  0  0  0  0  0  0  0  0
   22.2473  -21.2290  -12.3486 C   0  0  0  0  0  0  0  0  0  0  0  0
   21.4047  -20.3433  -12.0823 O   0  0  0  0  0  0  0  0  0  0  0  0
   21.9197  -22.5469  -12.0210 O   0  0  0  0  0  0  0  0  0  0  0  0
  2  1  1  6
  2  3  1  0
  3  4  1  0
  4  8  1  0
  5  4  2  0
  6  2  1  0
  7  6  2  0
  9  6  1  0
 10 14  1  0
 10  9  1  0
 10 11  1  6
 12 11  1  0
 12 16  1  0
 13 12  2  0
 14 15  2  0
 18 20  1  0
 18 17  1  0
 19 18  2  0
 21 20  1  0
 22 21  1  0
 23 22  1  0
 24 23  1  1
 25 24  1  0
 25 14  1  0
 26 28  1  0
 26 24  1  0
 27 26  2  0
M  END
$$$$
