DDR.pdb
     RDKit          3D

 28 27  0  0  1  0  0  0  0  0999 V2000
   19.7502  -11.4640  -15.7744 N   0  0  0  0  0  0  0  0  0  0  0  0
   19.0069  -10.2522  -15.6551 C   0  0  1  0  0  0  0  0  0  0  0  0
   17.5309  -10.4508  -15.5306 C   0  0  0  0  0  0  0  0  0  0  0  0
   16.8835  -10.9238  -16.7756 C   0  0  0  0  0  0  0  0  0  0  0  0
   17.5151  -10.8468  -17.8502 O   0  0  0  0  0  0  0  0  0  0  0  0
   19.4321   -9.4507  -14.4564 C   0  0  0  0  0  0  0  0  0  0  0  0
   19.3419   -9.9889  -13.3306 O   0  0  0  0  0  0  0  0  0  0  0  0
   15.6047  -11.4480  -16.7901 O   0  0  0  0  0  0  0  0  0  0  0  0
   19.9243   -8.1300  -14.5362 N   0  0  0  0  0  0  0  0  0  0  0  0
   20.2994   -7.3194  -13.4144 C   0  0  1  0  0  0  0  0  0  0  0  0
   21.3348   -6.3146  -13.7867 C   0  0  0  0  0  0  0  0  0  0  0  0
   21.8217   -5.4849  -12.6810 C   0  0  0  0  0  0  0  0  0  0  0  0
   22.2670   -4.3406  -12.9703 O   0  0  0  0  0  0  0  0  0  0  0  0
   19.1175   -6.7293  -12.7282 C   0  0  0  0  0  0  0  0  0  0  0  0
   18.3413   -6.0066  -13.3969 O   0  0  0  0  0  0  0  0  0  0  0  0
   21.8388   -5.8426  -11.3414 O   0  0  0  0  0  0  0  0  0  0  0  0
   12.9561  -10.5186   -8.6769 N   0  0  0  0  0  0  0  0  0  0  0  0
   12.5640   -9.1662   -8.4398 C   0  0  0  0  0  0  0  0  0  0  0  0
   11.4113   -8.8901   -7.9236 N   0  0  0  0  0  0  0  0  0  0  0  0
   13.4042   -8.0650   -8.7538 N   0  0  0  0  0  0  0  0  0  0  0  0
   14.6694   -8.2940   -9.3538 C   0  0  0  0  0  0  0  0  0  0  0  0
   15.4496   -7.0277   -9.6637 C   0  0  0  0  0  0  0  0  0  0  0  0
   16.7052   -7.4767  -10.3684 C   0  0  0  0  0  0  0  0  0  0  0  0
   17.6487   -6.3441  -10.7194 C   0  0  2  0  0  0  0  0  0  0  0  0
   18.8208   -6.9399  -11.3602 N   0  0  0  0  0  0  0  0  0  0  0  0
   18.0240   -5.4993   -9.5849 C   0  0  0  0  0  0  0  0  0  0  0  0
   19.1379   -5.6491   -9.0353 O   0  0  0  0  0  0  0  0  0  0  0  0
   17.1820   -4.5100   -9.0713 O   0  0  0  0  0  0  0  0  0  0  0  0
  2  1  1  1
  2  3  1  0
  3  4  1  0
  4  8  1  0
  5  4  2  0
  6  2  1  0
  7  6  2  0
  9  6  1  0
 10 14  1  0
 10  9  1  0
 10 11  1  6
 12 11  1  0
 12 16  1  0
 13 12  2  0
 14 15  2  0
 18 20  1  0
 18 17  1  0
 19 18  2  0
 21 20  1  0
 22 21  1  0
 23 22  1  0
 24 23  1  1
 25 24  1  0
 25 14  1  0
 26 28  1  0
 26 24  1  0
 27 26  2  0
M  END
$$$$
