DDR.pdb
     RDKit          3D

 28 27  0  0  1  0  0  0  0  0999 V2000
   24.2573  -15.7686  -15.8902 N   0  0  0  0  0  0  0  0  0  0  0  0
   23.7424  -16.2986  -17.1105 C   0  0  1  0  0  0  0  0  0  0  0  0
   24.6652  -16.1530  -18.2770 C   0  0  0  0  0  0  0  0  0  0  0  0
   25.1961  -14.7819  -18.4528 C   0  0  0  0  0  0  0  0  0  0  0  0
   24.3958  -13.8231  -18.4688 O   0  0  0  0  0  0  0  0  0  0  0  0
   23.4282  -17.7643  -16.9954 C   0  0  0  0  0  0  0  0  0  0  0  0
   23.1100  -18.3782  -18.0380 O   0  0  0  0  0  0  0  0  0  0  0  0
   26.5463  -14.5256  -18.5996 O   0  0  0  0  0  0  0  0  0  0  0  0
   23.4732  -18.4780  -15.7783 N   0  0  0  0  0  0  0  0  0  0  0  0
   23.1030  -19.8535  -15.6136 C   0  0  1  0  0  0  0  0  0  0  0  0
   24.1803  -20.6339  -14.9422 C   0  0  0  0  0  0  0  0  0  0  0  0
   25.3728  -20.8769  -15.7589 C   0  0  0  0  0  0  0  0  0  0  0  0
   25.3367  -20.4962  -16.9611 O   0  0  0  0  0  0  0  0  0  0  0  0
   21.7701  -20.0025  -14.9677 C   0  0  0  0  0  0  0  0  0  0  0  0
   21.4979  -19.2672  -13.9894 O   0  0  0  0  0  0  0  0  0  0  0  0
   26.5413  -21.4890  -15.3313 O   0  0  0  0  0  0  0  0  0  0  0  0
   18.0422  -24.6721  -10.8248 N   0  0  0  0  0  0  0  0  0  0  0  0
   17.5219  -23.5441  -10.1207 C   0  0  0  0  0  0  0  0  0  0  0  0
   16.3680  -23.5984   -9.5401 N   0  0  0  0  0  0  0  0  0  0  0  0
   18.2307  -22.3173  -10.0209 N   0  0  0  0  0  0  0  0  0  0  0  0
   19.2237  -21.9982  -10.9827 C   0  0  0  0  0  0  0  0  0  0  0  0
   18.6796  -21.7444  -12.3784 C   0  0  0  0  0  0  0  0  0  0  0  0
   19.8772  -21.4263  -13.2384 C   0  0  0  0  0  0  0  0  0  0  0  0
   19.5304  -21.1172  -14.6807 C   0  0  2  0  0  0  0  0  0  0  0  0
   20.7910  -20.9298  -15.3984 N   0  0  0  0  0  0  0  0  0  0  0  0
   18.6351  -19.9725  -14.8529 C   0  0  0  0  0  0  0  0  0  0  0  0
   19.0508  -18.9318  -15.4092 O   0  0  0  0  0  0  0  0  0  0  0  0
   17.3077  -19.9821  -14.4176 O   0  0  0  0  0  0  0  0  0  0  0  0
  2  1  1  1
  2  3  1  0
  3  4  1  0
  4  8  1  0
  5  4  2  0
  6  2  1  0
  7  6  2  0
  9  6  1  0
 10 14  1  0
 10  9  1  0
 10 11  1  1
 12 11  1  0
 12 16  1  0
 13 12  2  0
 14 15  2  0
 18 20  1  0
 18 17  1  0
 19 18  2  0
 21 20  1  0
 22 21  1  0
 23 22  1  0
 24 23  1  1
 25 24  1  0
 25 14  1  0
 26 28  1  0
 26 24  1  0
 27 26  2  0
M  END
$$$$
