DDR.pdb
     RDKit          3D

 28 27  0  0  1  0  0  0  0  0999 V2000
   18.3365  -11.3666  -15.2620 N   0  0  0  0  0  0  0  0  0  0  0  0
   18.7430  -10.4178  -16.2468 C   0  0  1  0  0  0  0  0  0  0  0  0
   17.8194  -10.3189  -17.4176 C   0  0  0  0  0  0  0  0  0  0  0  0
   17.6293  -11.5977  -18.1397 C   0  0  0  0  0  0  0  0  0  0  0  0
   16.4878  -11.8936  -18.5512 O   0  0  0  0  0  0  0  0  0  0  0  0
   18.8570   -9.0321  -15.6751 C   0  0  0  0  0  0  0  0  0  0  0  0
   17.9352   -8.6279  -14.9321 O   0  0  0  0  0  0  0  0  0  0  0  0
   18.6709  -12.4753  -18.3748 O   0  0  0  0  0  0  0  0  0  0  0  0
   19.9442   -8.1693  -15.9331 N   0  0  0  0  0  0  0  0  0  0  0  0
   20.1114   -6.8609  -15.3705 C   0  0  1  0  0  0  0  0  0  0  0  0
   21.5302   -6.6039  -14.9946 C   0  0  0  0  0  0  0  0  0  0  0  0
   21.9862   -7.2908  -13.7828 C   0  0  0  0  0  0  0  0  0  0  0  0
   22.7720   -8.2662  -13.9330 O   0  0  0  0  0  0  0  0  0  0  0  0
   19.5231   -5.7998  -16.2330 C   0  0  0  0  0  0  0  0  0  0  0  0
   19.7917   -5.8120  -17.4575 O   0  0  0  0  0  0  0  0  0  0  0  0
   21.6324   -6.9670  -12.4817 O   0  0  0  0  0  0  0  0  0  0  0  0
   11.5019   -3.0722  -15.9420 N   0  0  0  0  0  0  0  0  0  0  0  0
   12.0133   -2.1446  -16.8997 C   0  0  0  0  0  0  0  0  0  0  0  0
   11.2311   -1.3019  -17.4910 N   0  0  0  0  0  0  0  0  0  0  0  0
   13.3882   -2.0967  -17.2524 N   0  0  0  0  0  0  0  0  0  0  0  0
   14.3192   -2.9205  -16.5684 C   0  0  0  0  0  0  0  0  0  0  0  0
   15.7460   -2.8022  -17.0769 C   0  0  0  0  0  0  0  0  0  0  0  0
   16.5535   -3.7962  -16.2801 C   0  0  0  0  0  0  0  0  0  0  0  0
   18.0257   -3.8161  -16.6381 C   0  0  2  0  0  0  0  0  0  0  0  0
   18.6752   -4.7762  -15.7459 N   0  0  0  0  0  0  0  0  0  0  0  0
   18.6757   -2.5060  -16.5874 C   0  0  0  0  0  0  0  0  0  0  0  0
   19.1326   -2.0762  -15.5049 O   0  0  0  0  0  0  0  0  0  0  0  0
   18.8158   -1.6905  -17.7129 O   0  0  0  0  0  0  0  0  0  0  0  0
  2  1  1  1
  2  3  1  0
  3  4  1  0
  4  8  1  0
  5  4  2  0
  6  2  1  0
  7  6  2  0
  9  6  1  0
 10 14  1  0
 10  9  1  0
 10 11  1  6
 12 11  1  0
 12 16  1  0
 13 12  2  0
 14 15  2  0
 18 20  1  0
 18 17  1  0
 19 18  2  0
 21 20  1  0
 22 21  1  0
 23 22  1  0
 24 23  1  1
 25 24  1  0
 25 14  1  0
 26 28  1  0
 26 24  1  0
 27 26  2  0
M  END
$$$$
