DDR.pdb
     RDKit          3D

 28 27  0  0  1  0  0  0  0  0999 V2000
   23.9555  -20.9641  -18.5232 N   0  0  0  0  0  0  0  0  0  0  0  0
   25.1155  -20.5631  -17.7959 C   0  0  1  0  0  0  0  0  0  0  0  0
   25.8004  -19.3581  -18.3547 C   0  0  0  0  0  0  0  0  0  0  0  0
   26.3679  -19.5653  -19.7067 C   0  0  0  0  0  0  0  0  0  0  0  0
   27.1005  -18.6795  -20.1951 O   0  0  0  0  0  0  0  0  0  0  0  0
   24.7945  -20.2448  -16.3621 C   0  0  0  0  0  0  0  0  0  0  0  0
   25.6252  -19.5725  -15.7117 O   0  0  0  0  0  0  0  0  0  0  0  0
   26.1157  -20.7048  -20.4472 O   0  0  0  0  0  0  0  0  0  0  0  0
   23.6110  -20.6638  -15.7165 N   0  0  0  0  0  0  0  0  0  0  0  0
   23.2914  -20.4218  -14.3398 C   0  0  1  0  0  0  0  0  0  0  0  0
   21.8445  -20.6490  -14.0655 C   0  0  0  0  0  0  0  0  0  0  0  0
   20.9454  -19.6067  -14.5689 C   0  0  0  0  0  0  0  0  0  0  0  0
   21.4678  -18.5130  -14.9186 O   0  0  0  0  0  0  0  0  0  0  0  0
   24.1950  -21.1604  -13.4156 C   0  0  0  0  0  0  0  0  0  0  0  0
   24.2999  -22.4021  -13.5528 O   0  0  0  0  0  0  0  0  0  0  0  0
   19.5686  -19.7115  -14.6966 O   0  0  0  0  0  0  0  0  0  0  0  0
   30.9172  -21.3063   -8.6665 N   0  0  0  0  0  0  0  0  0  0  0  0
   31.3904  -21.7407   -9.9418 C   0  0  0  0  0  0  0  0  0  0  0  0
   32.4498  -22.4751  -10.0418 N   0  0  0  0  0  0  0  0  0  0  0  0
   30.7355  -21.3950  -11.1537 N   0  0  0  0  0  0  0  0  0  0  0  0
   29.5756  -20.5786  -11.1184 C   0  0  0  0  0  0  0  0  0  0  0  0
   28.2894  -21.3364  -10.8357 C   0  0  0  0  0  0  0  0  0  0  0  0
   27.2417  -20.7226  -11.7304 C   0  0  0  0  0  0  0  0  0  0  0  0
   25.8518  -21.2895  -11.5236 C   0  0  2  0  0  0  0  0  0  0  0  0
   24.9441  -20.5367  -12.3890 N   0  0  0  0  0  0  0  0  0  0  0  0
   25.3999  -21.2840  -10.1317 C   0  0  0  0  0  0  0  0  0  0  0  0
   24.5793  -20.4228   -9.7441 O   0  0  0  0  0  0  0  0  0  0  0  0
   25.8486  -22.2136   -9.1904 O   0  0  0  0  0  0  0  0  0  0  0  0
  2  1  1  6
  2  3  1  0
  3  4  1  0
  4  8  1  0
  5  4  2  0
  6  2  1  0
  7  6  2  0
  9  6  1  0
 10 14  1  0
 10  9  1  0
 10 11  1  6
 12 11  1  0
 12 16  1  0
 13 12  2  0
 14 15  2  0
 18 20  1  0
 18 17  1  0
 19 18  2  0
 21 20  1  0
 22 21  1  0
 23 22  1  0
 24 23  1  1
 25 24  1  0
 25 14  1  0
 26 28  1  0
 26 24  1  0
 27 26  2  0
M  END
$$$$
