DDR.pdb
     RDKit          3D

 28 27  0  0  1  0  0  0  0  0999 V2000
   21.3676  -20.2421  -17.0707 N   0  0  0  0  0  0  0  0  0  0  0  0
   21.9009  -20.1935  -15.7484 C   0  0  1  0  0  0  0  0  0  0  0  0
   22.8396  -19.0553  -15.5099 C   0  0  0  0  0  0  0  0  0  0  0  0
   24.0538  -19.0933  -16.3566 C   0  0  0  0  0  0  0  0  0  0  0  0
   24.2223  -20.0629  -17.1256 O   0  0  0  0  0  0  0  0  0  0  0  0
   20.8178  -20.0775  -14.7122 C   0  0  0  0  0  0  0  0  0  0  0  0
   21.1602  -20.0385  -13.5096 O   0  0  0  0  0  0  0  0  0  0  0  0
   25.0074  -18.0932  -16.3261 O   0  0  0  0  0  0  0  0  0  0  0  0
   19.4429  -20.0114  -15.0257 N   0  0  0  0  0  0  0  0  0  0  0  0
   18.3800  -19.9366  -14.0661 C   0  0  1  0  0  0  0  0  0  0  0  0
   17.2087  -19.1885  -14.6037 C   0  0  0  0  0  0  0  0  0  0  0  0
   16.0994  -19.0111  -13.6624 C   0  0  0  0  0  0  0  0  0  0  0  0
   16.2903  -19.3750  -12.4697 O   0  0  0  0  0  0  0  0  0  0  0  0
   18.0289  -21.2728  -13.5120 C   0  0  0  0  0  0  0  0  0  0  0  0
   18.4592  -22.2925  -14.1010 O   0  0  0  0  0  0  0  0  0  0  0  0
   14.8547  -18.4787  -13.9625 O   0  0  0  0  0  0  0  0  0  0  0  0
   18.4826  -24.5674   -6.4875 N   0  0  0  0  0  0  0  0  0  0  0  0
   18.2188  -25.7675   -7.2150 C   0  0  0  0  0  0  0  0  0  0  0  0
   18.0141  -26.8857   -6.5991 N   0  0  0  0  0  0  0  0  0  0  0  0
   18.1685  -25.8007   -8.6340 N   0  0  0  0  0  0  0  0  0  0  0  0
   18.3264  -24.5992   -9.3719 C   0  0  0  0  0  0  0  0  0  0  0  0
   18.2494  -24.7793  -10.8785 C   0  0  0  0  0  0  0  0  0  0  0  0
   18.3337  -23.3929  -11.4664 C   0  0  0  0  0  0  0  0  0  0  0  0
   16.9851  -22.7805  -11.7861 C   0  0  2  0  0  0  0  0  0  0  0  0
   17.2349  -21.4561  -12.3544 N   0  0  0  0  0  0  0  0  0  0  0  0
   16.0679  -22.7157  -10.6476 C   0  0  0  0  0  0  0  0  0  0  0  0
   16.0819  -21.7208   -9.8892 O   0  0  0  0  0  0  0  0  0  0  0  0
   15.1550  -23.7324  -10.3569 O   0  0  0  0  0  0  0  0  0  0  0  0
  2  1  1  6
  2  3  1  0
  3  4  1  0
  4  8  1  0
  5  4  2  0
  6  2  1  0
  7  6  2  0
  9  6  1  0
 10 14  1  0
 10  9  1  0
 10 11  1  6
 12 11  1  0
 12 16  1  0
 13 12  2  0
 14 15  2  0
 18 20  1  0
 18 17  1  0
 19 18  2  0
 21 20  1  0
 22 21  1  0
 23 22  1  0
 24 23  1  1
 25 24  1  0
 25 14  1  0
 26 28  1  0
 26 24  1  0
 27 26  2  0
M  END
$$$$
