DDR.pdb
     RDKit          3D

 28 27  0  0  1  0  0  0  0  0999 V2000
   26.5373  -15.2177  -19.5087 N   0  0  0  0  0  0  0  0  0  0  0  0
   26.5531  -13.9513  -20.1654 C   0  0  1  0  0  0  0  0  0  0  0  0
   25.3399  -13.6779  -20.9941 C   0  0  0  0  0  0  0  0  0  0  0  0
   25.0736  -14.7084  -22.0236 C   0  0  0  0  0  0  0  0  0  0  0  0
   26.0373  -15.2006  -22.6472 O   0  0  0  0  0  0  0  0  0  0  0  0
   26.6665  -12.8153  -19.1872 C   0  0  0  0  0  0  0  0  0  0  0  0
   25.9140  -12.8262  -18.1879 O   0  0  0  0  0  0  0  0  0  0  0  0
   23.7959  -15.1450  -22.3186 O   0  0  0  0  0  0  0  0  0  0  0  0
   27.5728  -11.7436  -19.3386 N   0  0  0  0  0  0  0  0  0  0  0  0
   27.7988  -10.7102  -18.3705 C   0  0  1  0  0  0  0  0  0  0  0  0
   29.1975  -10.1999  -18.4306 C   0  0  0  0  0  0  0  0  0  0  0  0
   29.5401   -9.2041  -17.4113 C   0  0  0  0  0  0  0  0  0  0  0  0
   28.6328   -8.8728  -16.5998 O   0  0  0  0  0  0  0  0  0  0  0  0
   26.7703   -9.6367  -18.4450 C   0  0  0  0  0  0  0  0  0  0  0  0
   26.6288   -9.0231  -19.5292 O   0  0  0  0  0  0  0  0  0  0  0  0
   30.7735   -8.5898  -17.2558 O   0  0  0  0  0  0  0  0  0  0  0  0
   18.6998   -9.8731  -16.0605 N   0  0  0  0  0  0  0  0  0  0  0  0
   18.7675   -8.5348  -16.5537 C   0  0  0  0  0  0  0  0  0  0  0  0
   17.6971   -7.8227  -16.6905 N   0  0  0  0  0  0  0  0  0  0  0  0
   19.9951   -7.9199  -16.9173 N   0  0  0  0  0  0  0  0  0  0  0  0
   21.2052   -8.6547  -16.8226 C   0  0  0  0  0  0  0  0  0  0  0  0
   22.4502   -7.8484  -17.1514 C   0  0  0  0  0  0  0  0  0  0  0  0
   23.6010   -8.8217  -17.0948 C   0  0  0  0  0  0  0  0  0  0  0  0
   24.9370   -8.2126  -17.4692 C   0  0  2  0  0  0  0  0  0  0  0  0
   25.9414   -9.2701  -17.3576 N   0  0  0  0  0  0  0  0  0  0  0  0
   25.3034   -7.0342  -16.6826 C   0  0  0  0  0  0  0  0  0  0  0  0
   25.9867   -7.1643  -15.6427 O   0  0  0  0  0  0  0  0  0  0  0  0
   24.9200   -5.7398  -17.0418 O   0  0  0  0  0  0  0  0  0  0  0  0
  2  1  1  1
  2  3  1  0
  3  4  1  0
  4  8  1  0
  5  4  2  0
  6  2  1  0
  7  6  2  0
  9  6  1  0
 10 14  1  0
 10  9  1  0
 10 11  1  6
 12 11  1  0
 12 16  1  0
 13 12  2  0
 14 15  2  0
 18 20  1  0
 18 17  1  0
 19 18  2  0
 21 20  1  0
 22 21  1  0
 23 22  1  0
 24 23  1  1
 25 24  1  0
 25 14  1  0
 26 28  1  0
 26 24  1  0
 27 26  2  0
M  END
$$$$
