DDR.pdb
     RDKit          3D

 28 27  0  0  1  0  0  0  0  0999 V2000
   21.2891  -10.7910  -15.1544 N   0  0  0  0  0  0  0  0  0  0  0  0
   20.1638   -9.9374  -15.3551 C   0  0  1  0  0  0  0  0  0  0  0  0
   18.8474  -10.6442  -15.3210 C   0  0  0  0  0  0  0  0  0  0  0  0
   18.6738  -11.6386  -16.4045 C   0  0  0  0  0  0  0  0  0  0  0  0
   19.1822  -11.4078  -17.5217 O   0  0  0  0  0  0  0  0  0  0  0  0
   20.0924   -8.8524  -14.3168 C   0  0  0  0  0  0  0  0  0  0  0  0
   19.6988   -9.1640  -13.1709 O   0  0  0  0  0  0  0  0  0  0  0  0
   17.9690  -12.8136  -16.2228 O   0  0  0  0  0  0  0  0  0  0  0  0
   20.4442   -7.5086  -14.5681 N   0  0  0  0  0  0  0  0  0  0  0  0
   20.5026   -6.4716  -13.5794 C   0  0  1  0  0  0  0  0  0  0  0  0
   21.5453   -5.4593  -13.9086 C   0  0  0  0  0  0  0  0  0  0  0  0
   21.6643   -4.3558  -12.9514 C   0  0  0  0  0  0  0  0  0  0  0  0
   20.8963   -4.3741  -11.9508 O   0  0  0  0  0  0  0  0  0  0  0  0
   19.1641   -5.8798  -13.3071 C   0  0  0  0  0  0  0  0  0  0  0  0
   18.5062   -5.4273  -14.2737 O   0  0  0  0  0  0  0  0  0  0  0  0
   22.5456   -3.2893  -13.0443 O   0  0  0  0  0  0  0  0  0  0  0  0
   13.0251   -7.9943   -7.3148 N   0  0  0  0  0  0  0  0  0  0  0  0
   13.9091   -8.4551   -8.3372 C   0  0  0  0  0  0  0  0  0  0  0  0
   14.2755   -9.6939   -8.3891 N   0  0  0  0  0  0  0  0  0  0  0  0
   14.4288   -7.5922   -9.3384 N   0  0  0  0  0  0  0  0  0  0  0  0
   14.8979   -6.3018   -8.9808 C   0  0  0  0  0  0  0  0  0  0  0  0
   15.3229   -5.4448  -10.1612 C   0  0  0  0  0  0  0  0  0  0  0  0
   16.6871   -5.9448  -10.5662 C   0  0  0  0  0  0  0  0  0  0  0  0
   17.2532   -5.2549  -11.7907 C   0  0  2  0  0  0  0  0  0  0  0  0
   18.5919   -5.8002  -12.0147 N   0  0  0  0  0  0  0  0  0  0  0  0
   17.2723   -3.7941  -11.7044 C   0  0  0  0  0  0  0  0  0  0  0  0
   16.3200   -3.1279  -12.1677 O   0  0  0  0  0  0  0  0  0  0  0  0
   18.3247   -3.0879  -11.1169 O   0  0  0  0  0  0  0  0  0  0  0  0
  2  1  1  1
  2  3  1  0
  3  4  1  0
  4  8  1  0
  5  4  2  0
  6  2  1  0
  7  6  2  0
  9  6  1  0
 10 14  1  0
 10  9  1  0
 10 11  1  6
 12 11  1  0
 12 16  1  0
 13 12  2  0
 14 15  2  0
 18 20  1  0
 18 17  1  0
 19 18  2  0
 21 20  1  0
 22 21  1  0
 23 22  1  0
 24 23  1  1
 25 24  1  0
 25 14  1  0
 26 28  1  0
 26 24  1  0
 27 26  2  0
M  END
$$$$
