DDR.pdb
     RDKit          3D

 28 27  0  0  1  0  0  0  0  0999 V2000
   17.1562  -12.9918  -15.1685 N   0  0  0  0  0  0  0  0  0  0  0  0
   16.3491  -11.8258  -15.0126 C   0  0  1  0  0  0  0  0  0  0  0  0
   15.1757  -12.0120  -14.1060 C   0  0  0  0  0  0  0  0  0  0  0  0
   14.1887  -12.9996  -14.5995 C   0  0  0  0  0  0  0  0  0  0  0  0
   13.8259  -12.9442  -15.7933 O   0  0  0  0  0  0  0  0  0  0  0  0
   17.1363  -10.6705  -14.4597 C   0  0  0  0  0  0  0  0  0  0  0  0
   17.7028  -10.8237  -13.3549 O   0  0  0  0  0  0  0  0  0  0  0  0
   13.6552  -13.9809  -13.7855 O   0  0  0  0  0  0  0  0  0  0  0  0
   17.2670   -9.4293  -15.1195 N   0  0  0  0  0  0  0  0  0  0  0  0
   18.0047   -8.3042  -14.6234 C   0  0  1  0  0  0  0  0  0  0  0  0
   18.9733   -7.7954  -15.6351 C   0  0  0  0  0  0  0  0  0  0  0  0
   20.0852   -8.7000  -15.9408 C   0  0  0  0  0  0  0  0  0  0  0  0
   20.2721   -8.9962  -17.1527 O   0  0  0  0  0  0  0  0  0  0  0  0
   17.1132   -7.2483  -14.0701 C   0  0  0  0  0  0  0  0  0  0  0  0
   16.1715   -6.8307  -14.7846 O   0  0  0  0  0  0  0  0  0  0  0  0
   20.9538   -9.2629  -15.0180 O   0  0  0  0  0  0  0  0  0  0  0  0
   14.2301   -7.2450   -6.3147 N   0  0  0  0  0  0  0  0  0  0  0  0
   13.4053   -7.8137   -7.3323 C   0  0  0  0  0  0  0  0  0  0  0  0
   12.3699   -8.5251   -7.0270 N   0  0  0  0  0  0  0  0  0  0  0  0
   13.6722   -7.6340   -8.7156 N   0  0  0  0  0  0  0  0  0  0  0  0
   14.7697   -6.8319   -9.1221 C   0  0  0  0  0  0  0  0  0  0  0  0
   14.9085   -6.6838  -10.6278 C   0  0  0  0  0  0  0  0  0  0  0  0
   16.1340   -5.8330  -10.8492 C   0  0  0  0  0  0  0  0  0  0  0  0
   16.4452   -5.5761  -12.3097 C   0  0  2  0  0  0  0  0  0  0  0  0
   17.2699   -6.6893  -12.7790 N   0  0  0  0  0  0  0  0  0  0  0  0
   17.0812   -4.2844  -12.5720 C   0  0  0  0  0  0  0  0  0  0  0  0
   18.3095   -4.2278  -12.8032 O   0  0  0  0  0  0  0  0  0  0  0  0
   16.3702   -3.0820  -12.5775 O   0  0  0  0  0  0  0  0  0  0  0  0
  2  1  1  1
  2  3  1  0
  3  4  1  0
  4  8  1  0
  5  4  2  0
  6  2  1  0
  7  6  2  0
  9  6  1  0
 10 14  1  0
 10  9  1  0
 10 11  1  6
 12 11  1  0
 12 16  1  0
 13 12  2  0
 14 15  2  0
 18 20  1  0
 18 17  1  0
 19 18  2  0
 21 20  1  0
 22 21  1  0
 23 22  1  0
 24 23  1  1
 25 24  1  0
 25 14  1  0
 26 28  1  0
 26 24  1  0
 27 26  2  0
M  END
$$$$
