DDR.pdb
     RDKit          3D

 28 27  0  0  1  0  0  0  0  0999 V2000
   23.3562  -23.1509  -17.8845 N   0  0  0  0  0  0  0  0  0  0  0  0
   23.6306  -21.8190  -17.4534 C   0  0  1  0  0  0  0  0  0  0  0  0
   22.4146  -21.0365  -17.0760 C   0  0  0  0  0  0  0  0  0  0  0  0
   21.4216  -20.9100  -18.1672 C   0  0  0  0  0  0  0  0  0  0  0  0
   21.6217  -21.5210  -19.2380 O   0  0  0  0  0  0  0  0  0  0  0  0
   24.5417  -21.7944  -16.2578 C   0  0  0  0  0  0  0  0  0  0  0  0
   24.3714  -22.6637  -15.3743 O   0  0  0  0  0  0  0  0  0  0  0  0
   20.2809  -20.1397  -18.0425 O   0  0  0  0  0  0  0  0  0  0  0  0
   25.5726  -20.8461  -16.0825 N   0  0  0  0  0  0  0  0  0  0  0  0
   26.4933  -20.8209  -14.9834 C   0  0  1  0  0  0  0  0  0  0  0  0
   27.7272  -20.0564  -15.3202 C   0  0  0  0  0  0  0  0  0  0  0  0
   28.5644  -20.6557  -16.3632 C   0  0  0  0  0  0  0  0  0  0  0  0
   28.5990  -21.9153  -16.4230 O   0  0  0  0  0  0  0  0  0  0  0  0
   25.8454  -20.3774  -13.7187 C   0  0  0  0  0  0  0  0  0  0  0  0
   25.1252  -19.3516  -13.7475 O   0  0  0  0  0  0  0  0  0  0  0  0
   29.3251  -19.9640  -17.2936 O   0  0  0  0  0  0  0  0  0  0  0  0
   19.9758  -18.7847  -14.3216 N   0  0  0  0  0  0  0  0  0  0  0  0
   20.6845  -20.0025  -14.5535 C   0  0  0  0  0  0  0  0  0  0  0  0
   20.6473  -20.5825  -15.7084 N   0  0  0  0  0  0  0  0  0  0  0  0
   21.4571  -20.6364  -13.5443 N   0  0  0  0  0  0  0  0  0  0  0  0
   21.5716  -20.0351  -12.2643 C   0  0  0  0  0  0  0  0  0  0  0  0
   22.9868  -19.6247  -11.8938 C   0  0  0  0  0  0  0  0  0  0  0  0
   23.7461  -20.9089  -11.6723 C   0  0  0  0  0  0  0  0  0  0  0  0
   25.2020  -20.7039  -11.3061 C   0  0  2  0  0  0  0  0  0  0  0  0
   25.9976  -21.0516  -12.4832 N   0  0  0  0  0  0  0  0  0  0  0  0
   25.6358  -21.4467  -10.1221 C   0  0  0  0  0  0  0  0  0  0  0  0
   26.0568  -22.6191  -10.2391 O   0  0  0  0  0  0  0  0  0  0  0  0
   25.6031  -20.9010   -8.8366 O   0  0  0  0  0  0  0  0  0  0  0  0
  2  1  1  1
  2  3  1  0
  3  4  1  0
  4  8  1  0
  5  4  2  0
  6  2  1  0
  7  6  2  0
  9  6  1  0
 10 14  1  0
 10  9  1  0
 10 11  1  6
 12 11  1  0
 12 16  1  0
 13 12  2  0
 14 15  2  0
 18 20  1  0
 18 17  1  0
 19 18  2  0
 21 20  1  0
 22 21  1  0
 23 22  1  0
 24 23  1  6
 25 24  1  0
 25 14  1  0
 26 28  1  0
 26 24  1  0
 27 26  2  0
M  END
$$$$
