DDR.pdb
     RDKit          3D

 28 27  0  0  1  0  0  0  0  0999 V2000
   22.9904  -10.4198  -16.1552 N   0  0  0  0  0  0  0  0  0  0  0  0
   22.0332   -9.7326  -16.9594 C   0  0  1  0  0  0  0  0  0  0  0  0
   21.1853  -10.6306  -17.8010 C   0  0  0  0  0  0  0  0  0  0  0  0
   21.9585  -11.4861  -18.7300 C   0  0  0  0  0  0  0  0  0  0  0  0
   21.6428  -12.6889  -18.8459 O   0  0  0  0  0  0  0  0  0  0  0  0
   21.0886   -8.9118  -16.1261 C   0  0  0  0  0  0  0  0  0  0  0  0
   20.3401   -9.5144  -15.3251 O   0  0  0  0  0  0  0  0  0  0  0  0
   23.0172  -11.0002  -19.4740 O   0  0  0  0  0  0  0  0  0  0  0  0
   21.0038   -7.5047  -16.2018 N   0  0  0  0  0  0  0  0  0  0  0  0
   20.2450   -6.6742  -15.3125 C   0  0  1  0  0  0  0  0  0  0  0  0
   21.0529   -5.5262  -14.8125 C   0  0  0  0  0  0  0  0  0  0  0  0
   21.8511   -5.8029  -13.6148 C   0  0  0  0  0  0  0  0  0  0  0  0
   22.8314   -5.0425  -13.3859 O   0  0  0  0  0  0  0  0  0  0  0  0
   18.9379   -6.2707  -15.8995 C   0  0  0  0  0  0  0  0  0  0  0  0
   18.9437   -5.5860  -16.9497 O   0  0  0  0  0  0  0  0  0  0  0  0
   21.6281   -6.8269  -12.7068 O   0  0  0  0  0  0  0  0  0  0  0  0
   11.3651   -9.7248  -14.0178 N   0  0  0  0  0  0  0  0  0  0  0  0
   11.0441   -8.3346  -13.9605 C   0  0  0  0  0  0  0  0  0  0  0  0
    9.9146   -7.9335  -13.4759 N   0  0  0  0  0  0  0  0  0  0  0  0
   11.9328   -7.3295  -14.4266 N   0  0  0  0  0  0  0  0  0  0  0  0
   13.0738   -7.6963  -15.1860 C   0  0  0  0  0  0  0  0  0  0  0  0
   13.9255   -6.5216  -15.6366 C   0  0  0  0  0  0  0  0  0  0  0  0
   15.3073   -6.7774  -15.0886 C   0  0  0  0  0  0  0  0  0  0  0  0
   16.4208   -6.2164  -15.9495 C   0  0  2  0  0  0  0  0  0  0  0  0
   17.6865   -6.6186  -15.3365 N   0  0  0  0  0  0  0  0  0  0  0  0
   16.3545   -4.7685  -16.1519 C   0  0  0  0  0  0  0  0  0  0  0  0
   15.8789   -4.3067  -17.2130 O   0  0  0  0  0  0  0  0  0  0  0  0
   16.8060   -3.8531  -15.1982 O   0  0  0  0  0  0  0  0  0  0  0  0
  2  1  1  1
  2  3  1  0
  3  4  1  0
  4  8  1  0
  5  4  2  0
  6  2  1  0
  7  6  2  0
  9  6  1  0
 10 14  1  0
 10  9  1  0
 10 11  1  6
 12 11  1  0
 12 16  1  0
 13 12  2  0
 14 15  2  0
 18 20  1  0
 18 17  1  0
 19 18  2  0
 21 20  1  0
 22 21  1  0
 23 22  1  0
 24 23  1  1
 25 24  1  0
 25 14  1  0
 26 28  1  0
 26 24  1  0
 27 26  2  0
M  END
$$$$
