DDR.pdb
     RDKit          3D

 28 27  0  0  1  0  0  0  0  0999 V2000
   11.4907   -7.0705   -8.6518 N   0  0  0  0  0  0  0  0  0  0  0  0
   12.8179   -7.5390   -8.4189 C   0  0  1  0  0  0  0  0  0  0  0  0
   13.0986   -8.8895   -8.9940 C   0  0  0  0  0  0  0  0  0  0  0  0
   12.2866   -9.9747   -8.3976 C   0  0  0  0  0  0  0  0  0  0  0  0
   12.5622  -11.1593   -8.6813 O   0  0  0  0  0  0  0  0  0  0  0  0
   13.8488   -6.6078   -8.9938 C   0  0  0  0  0  0  0  0  0  0  0  0
   13.6563   -6.1618  -10.1467 O   0  0  0  0  0  0  0  0  0  0  0  0
   11.2343   -9.7227   -7.5376 O   0  0  0  0  0  0  0  0  0  0  0  0
   15.0155   -6.2143   -8.3033 N   0  0  0  0  0  0  0  0  0  0  0  0
   16.0052   -5.3061   -8.8051 C   0  0  1  0  0  0  0  0  0  0  0  0
   16.3728   -4.2806   -7.7884 C   0  0  0  0  0  0  0  0  0  0  0  0
   17.3295   -3.2683   -8.2445 C   0  0  0  0  0  0  0  0  0  0  0  0
   17.0250   -2.6095   -9.2764 O   0  0  0  0  0  0  0  0  0  0  0  0
   17.1780   -6.0174   -9.3833 C   0  0  0  0  0  0  0  0  0  0  0  0
   17.9160   -6.6732   -8.6104 O   0  0  0  0  0  0  0  0  0  0  0  0
   18.5429   -2.9667   -7.6451 O   0  0  0  0  0  0  0  0  0  0  0  0
   17.3058  -11.3029  -15.8746 N   0  0  0  0  0  0  0  0  0  0  0  0
   18.6853  -11.3494  -15.5086 C   0  0  0  0  0  0  0  0  0  0  0  0
   19.5010  -12.1620  -16.0966 N   0  0  0  0  0  0  0  0  0  0  0  0
   19.2306  -10.5197  -14.4930 N   0  0  0  0  0  0  0  0  0  0  0  0
   18.4008   -9.5756  -13.8348 C   0  0  0  0  0  0  0  0  0  0  0  0
   19.1447   -8.6411  -12.8957 C   0  0  0  0  0  0  0  0  0  0  0  0
   18.0864   -7.8117  -12.2125 C   0  0  0  0  0  0  0  0  0  0  0  0
   18.6442   -6.7390  -11.2992 C   0  0  2  0  0  0  0  0  0  0  0  0
   17.5063   -5.9947  -10.7601 N   0  0  0  0  0  0  0  0  0  0  0  0
   19.6174   -5.8513  -11.9368 C   0  0  0  0  0  0  0  0  0  0  0  0
   20.8083   -6.2146  -12.0600 O   0  0  0  0  0  0  0  0  0  0  0  0
   19.2769   -4.5883  -12.4270 O   0  0  0  0  0  0  0  0  0  0  0  0
  2  1  1  6
  2  3  1  0
  3  4  1  0
  4  8  1  0
  5  4  2  0
  6  2  1  0
  7  6  2  0
  9  6  1  0
 10 14  1  0
 10  9  1  0
 10 11  1  1
 12 11  1  0
 12 16  1  0
 13 12  2  0
 14 15  2  0
 18 20  1  0
 18 17  1  0
 19 18  2  0
 21 20  1  0
 22 21  1  0
 23 22  1  0
 24 23  1  6
 25 24  1  0
 25 14  1  0
 26 28  1  0
 26 24  1  0
 27 26  2  0
M  END
$$$$
