DDR.pdb
     RDKit          3D

 28 27  0  0  1  0  0  0  0  0999 V2000
   27.5681  -21.4029  -15.6225 N   0  0  0  0  0  0  0  0  0  0  0  0
   26.5946  -20.6038  -16.2926 C   0  0  1  0  0  0  0  0  0  0  0  0
   26.7591  -20.5583  -17.7773 C   0  0  0  0  0  0  0  0  0  0  0  0
   27.9278  -19.7674  -18.2261 C   0  0  0  0  0  0  0  0  0  0  0  0
   28.3569  -19.9320  -19.3874 O   0  0  0  0  0  0  0  0  0  0  0  0
   25.1962  -21.0910  -16.0330 C   0  0  0  0  0  0  0  0  0  0  0  0
   24.3065  -20.7816  -16.8563 O   0  0  0  0  0  0  0  0  0  0  0  0
   28.5605  -18.8531  -17.4051 O   0  0  0  0  0  0  0  0  0  0  0  0
   24.8386  -21.8743  -14.9144 N   0  0  0  0  0  0  0  0  0  0  0  0
   23.5255  -22.3869  -14.6511 C   0  0  1  0  0  0  0  0  0  0  0  0
   23.5680  -23.5487  -13.7190 C   0  0  0  0  0  0  0  0  0  0  0  0
   24.2730  -24.7285  -14.2281 C   0  0  0  0  0  0  0  0  0  0  0  0
   24.7588  -24.6541  -15.3899 O   0  0  0  0  0  0  0  0  0  0  0  0
   22.5804  -21.3180  -14.2265 C   0  0  0  0  0  0  0  0  0  0  0  0
   22.9202  -20.5638  -13.2844 O   0  0  0  0  0  0  0  0  0  0  0  0
   24.4558  -25.9234  -13.5488 O   0  0  0  0  0  0  0  0  0  0  0  0
   18.2475  -16.7019  -19.5019 N   0  0  0  0  0  0  0  0  0  0  0  0
   17.7468  -16.7632  -18.1661 C   0  0  0  0  0  0  0  0  0  0  0  0
   16.5802  -16.2899  -17.8720 N   0  0  0  0  0  0  0  0  0  0  0  0
   18.4908  -17.3374  -17.1011 N   0  0  0  0  0  0  0  0  0  0  0  0
   19.8294  -17.7527  -17.3218 C   0  0  0  0  0  0  0  0  0  0  0  0
   20.5501  -18.2216  -16.0692 C   0  0  0  0  0  0  0  0  0  0  0  0
   19.7820  -19.4215  -15.5739 C   0  0  0  0  0  0  0  0  0  0  0  0
   20.3926  -20.0775  -14.3521 C   0  0  2  0  0  0  0  0  0  0  0  0
   21.3173  -21.1055  -14.8293 N   0  0  0  0  0  0  0  0  0  0  0  0
   19.4152  -20.6251  -13.4106 C   0  0  0  0  0  0  0  0  0  0  0  0
   18.6342  -19.8586  -12.8039 O   0  0  0  0  0  0  0  0  0  0  0  0
   19.3065  -21.9928  -13.1478 O   0  0  0  0  0  0  0  0  0  0  0  0
  2  1  1  1
  2  3  1  0
  3  4  1  0
  4  8  1  0
  5  4  2  0
  6  2  1  0
  7  6  2  0
  9  6  1  0
 10 14  1  0
 10  9  1  0
 10 11  1  1
 12 11  1  0
 12 16  1  0
 13 12  2  0
 14 15  2  0
 18 20  1  0
 18 17  1  0
 19 18  2  0
 21 20  1  0
 22 21  1  0
 23 22  1  0
 24 23  1  6
 25 24  1  0
 25 14  1  0
 26 28  1  0
 26 24  1  0
 27 26  2  0
M  END
$$$$
