IHL.pdb
     RDKit          3D

 27 27  0  0  1  0  0  0  0  0999 V2000
   26.1739    0.5835  -19.8443 C   0  0  0  0  0  0  0  0  0  0  0  0
   24.7552    0.0965  -19.8649 C   0  0  0  0  0  0  0  0  0  0  0  0
   24.5881   -1.1814  -19.0904 C   0  0  2  0  0  0  0  0  0  0  0  0
   25.4507   -2.2797  -19.7152 C   0  0  0  0  0  0  0  0  0  0  0  0
   23.1819   -1.6328  -18.8858 C   0  0  2  0  0  0  0  0  0  0  0  0
   22.5936   -0.6818  -17.9131 N   0  0  0  0  0  0  0  0  0  0  0  0
   23.0699   -2.9690  -18.2156 C   0  0  0  0  0  0  0  0  0  0  0  0
   23.5887   -3.9869  -18.7427 O   0  0  0  0  0  0  0  0  0  0  0  0
   22.4019   -3.1543  -16.9978 N   0  0  0  0  0  0  0  0  0  0  0  0
   22.0328   -4.2864  -16.2553 C   0  0  1  0  0  0  0  0  0  0  0  0
   21.5569   -4.1264  -14.8476 C   0  0  0  0  0  0  0  0  0  0  0  0
   21.3814   -5.3810  -14.0928 C   0  0  0  0  0  0  0  0  0  0  0  0
   21.6603   -6.6308  -14.6595 C   0  0  0  0  0  0  0  0  0  0  0  0
   21.4246   -7.6009  -13.7881 N   0  0  0  0  0  0  0  0  0  0  0  0
   20.9960   -6.9955  -12.6621 C   0  0  0  0  0  0  0  0  0  0  0  0
   20.9730   -5.6653  -12.8529 N   0  0  0  0  0  0  0  0  0  0  0  0
   21.1962   -5.2045  -17.0002 C   0  0  0  0  0  0  0  0  0  0  0  0
   20.1180   -4.7641  -17.5102 O   0  0  0  0  0  0  0  0  0  0  0  0
   20.6860   -9.8422  -20.0241 C   0  0  0  0  0  0  0  0  0  0  0  0
   20.5197   -8.3919  -20.3166 C   0  0  1  0  0  0  0  0  0  0  0  0
   19.0295   -8.0815  -20.2741 C   0  0  0  0  0  0  0  0  0  0  0  0
   21.2305   -7.4886  -19.3755 C   0  0  0  0  0  0  0  0  0  0  0  0
   20.6826   -7.4176  -17.9920 C   0  0  2  0  0  0  0  0  0  0  0  0
   21.5159   -6.5534  -17.1884 N   0  0  0  0  0  0  0  0  0  0  0  0
   20.4056   -8.7136  -17.3624 C   0  0  0  0  0  0  0  0  0  0  0  0
   21.3058   -9.2910  -16.7182 O   0  0  0  0  0  0  0  0  0  0  0  0
   19.1577   -9.3568  -17.4457 O   0  0  0  0  0  0  0  0  0  0  0  0
  2  1  1  0
  3  2  1  0
  3  5  1  0
  3  4  1  6
  5  6  1  1
  7  5  1  0
  7  8  2  0
  9  7  1  0
 10  9  1  0
 10 11  1  1
 12 11  1  0
 12 16  1  0
 13 14  1  0
 13 12  2  0
 14 15  1  0
 15 16  2  0
 17 10  1  0
 18 17  2  0
 20 22  1  0
 20 19  1  1
 21 20  1  0
 23 24  1  0
 23 22  1  6
 24 17  1  0
 25 23  1  0
 26 25  2  0
 27 25  1  0
M  END
$$$$
