IHL.pdb
     RDKit          3D

 27 27  0  0  1  0  0  0  0  0999 V2000
   26.0906  -12.7130  -15.8197 C   0  0  0  0  0  0  0  0  0  0  0  0
   24.7182  -13.2302  -16.1350 C   0  0  0  0  0  0  0  0  0  0  0  0
   23.7263  -12.1155  -16.3209 C   0  0  2  0  0  0  0  0  0  0  0  0
   23.7316  -11.2096  -15.0879 C   0  0  0  0  0  0  0  0  0  0  0  0
   22.3446  -12.5362  -16.6912 C   0  0  2  0  0  0  0  0  0  0  0  0
   22.4861  -13.3195  -17.9414 N   0  0  0  0  0  0  0  0  0  0  0  0
   21.4476  -11.3949  -17.0654 C   0  0  0  0  0  0  0  0  0  0  0  0
   21.6148  -10.7898  -18.1556 O   0  0  0  0  0  0  0  0  0  0  0  0
   20.4008  -10.9516  -16.2460 N   0  0  0  0  0  0  0  0  0  0  0  0
   19.4185   -9.9582  -16.3782 C   0  0  1  0  0  0  0  0  0  0  0  0
   17.9853  -10.3503  -16.5396 C   0  0  0  0  0  0  0  0  0  0  0  0
   17.7129  -11.3232  -17.6138 C   0  0  0  0  0  0  0  0  0  0  0  0
   17.3834  -10.9181  -18.9131 C   0  0  0  0  0  0  0  0  0  0  0  0
   17.1846  -11.9706  -19.6932 N   0  0  0  0  0  0  0  0  0  0  0  0
   17.3813  -13.0545  -18.9156 C   0  0  0  0  0  0  0  0  0  0  0  0
   17.6975  -12.6580  -17.6709 N   0  0  0  0  0  0  0  0  0  0  0  0
   19.5722   -8.8790  -15.4246 C   0  0  0  0  0  0  0  0  0  0  0  0
   19.8808   -9.1690  -14.2258 O   0  0  0  0  0  0  0  0  0  0  0  0
   22.1610   -4.2456  -14.8233 C   0  0  0  0  0  0  0  0  0  0  0  0
   22.1193   -5.5405  -14.0897 C   0  0  1  0  0  0  0  0  0  0  0  0
   21.4372   -5.2898  -12.7515 C   0  0  0  0  0  0  0  0  0  0  0  0
   21.4032   -6.6292  -14.8029 C   0  0  0  0  0  0  0  0  0  0  0  0
   19.9258   -6.4777  -14.9203 C   0  0  2  0  0  0  0  0  0  0  0  0
   19.3992   -7.5311  -15.7569 N   0  0  0  0  0  0  0  0  0  0  0  0
   19.4636   -5.1393  -15.3045 C   0  0  0  0  0  0  0  0  0  0  0  0
   19.2346   -4.8874  -16.5057 O   0  0  0  0  0  0  0  0  0  0  0  0
   19.2602   -4.1015  -14.3774 O   0  0  0  0  0  0  0  0  0  0  0  0
  2  1  1  0
  3  2  1  0
  3  5  1  0
  3  4  1  1
  5  6  1  6
  7  5  1  0
  7  8  2  0
  9  7  1  0
 10  9  1  0
 10 11  1  1
 12 11  1  0
 12 16  1  0
 13 14  1  0
 13 12  2  0
 14 15  1  0
 15 16  2  0
 17 10  1  0
 18 17  2  0
 20 22  1  0
 20 19  1  6
 21 20  1  0
 23 24  1  0
 23 22  1  6
 24 17  1  0
 25 23  1  0
 26 25  2  0
 27 25  1  0
M  END
$$$$
