IHL.pdb
     RDKit          3D

 27 27  0  0  1  0  0  0  0  0999 V2000
   25.5218  -14.4708  -16.0463 C   0  0  0  0  0  0  0  0  0  0  0  0
   26.0724  -15.8085  -16.4437 C   0  0  0  0  0  0  0  0  0  0  0  0
   25.8524  -16.8462  -15.3780 C   0  0  2  0  0  0  0  0  0  0  0  0
   26.5367  -16.4073  -14.0819 C   0  0  0  0  0  0  0  0  0  0  0  0
   26.2195  -18.2423  -15.7511 C   0  0  2  0  0  0  0  0  0  0  0  0
   25.4893  -18.5256  -17.0094 N   0  0  0  0  0  0  0  0  0  0  0  0
   25.7171  -19.2749  -14.7876 C   0  0  0  0  0  0  0  0  0  0  0  0
   24.4819  -19.4831  -14.6700 O   0  0  0  0  0  0  0  0  0  0  0  0
   26.5708  -20.0462  -13.9874 N   0  0  0  0  0  0  0  0  0  0  0  0
   26.3669  -21.1082  -13.0933 C   0  0  1  0  0  0  0  0  0  0  0  0
   26.7399  -22.4982  -13.4965 C   0  0  0  0  0  0  0  0  0  0  0  0
   26.1340  -22.9763  -14.7531 C   0  0  0  0  0  0  0  0  0  0  0  0
   25.0402  -23.8508  -14.7615 C   0  0  0  0  0  0  0  0  0  0  0  0
   24.6795  -24.1341  -16.0047 N   0  0  0  0  0  0  0  0  0  0  0  0
   25.5263  -23.4538  -16.8036 C   0  0  0  0  0  0  0  0  0  0  0  0
   26.3948  -22.7625  -16.0459 N   0  0  0  0  0  0  0  0  0  0  0  0
   26.8066  -20.8074  -11.7465 C   0  0  0  0  0  0  0  0  0  0  0  0
   28.0317  -20.9831  -11.4555 O   0  0  0  0  0  0  0  0  0  0  0  0
   28.4708  -20.4509   -6.9129 C   0  0  0  0  0  0  0  0  0  0  0  0
   27.2759  -19.6492   -7.2951 C   0  0  1  0  0  0  0  0  0  0  0  0
   27.4638  -18.2462   -6.7336 C   0  0  0  0  0  0  0  0  0  0  0  0
   27.0380  -19.5582   -8.7586 C   0  0  0  0  0  0  0  0  0  0  0  0
   26.1851  -20.6251   -9.3536 C   0  0  2  0  0  0  0  0  0  0  0  0
   25.9499  -20.3310  -10.7483 N   0  0  0  0  0  0  0  0  0  0  0  0
   24.9610  -20.9355   -8.6067 C   0  0  0  0  0  0  0  0  0  0  0  0
   23.8481  -20.7201   -9.1302 O   0  0  0  0  0  0  0  0  0  0  0  0
   24.9696  -21.4723   -7.3068 O   0  0  0  0  0  0  0  0  0  0  0  0
  2  1  1  0
  3  2  1  0
  3  5  1  0
  3  4  1  1
  5  6  1  6
  7  5  1  0
  7  8  2  0
  9  7  1  0
 10  9  1  0
 10 11  1  6
 12 11  1  0
 12 16  1  0
 13 14  1  0
 13 12  2  0
 14 15  1  0
 15 16  2  0
 17 10  1  0
 18 17  2  0
 20 22  1  0
 20 19  1  6
 21 20  1  0
 23 24  1  0
 23 22  1  1
 24 17  1  0
 25 23  1  0
 26 25  2  0
 27 25  1  0
M  END
$$$$
