IHL.pdb
     RDKit          3D

 27 27  0  0  1  0  0  0  0  0999 V2000
   20.5085  -19.9120  -14.6116 C   0  0  0  0  0  0  0  0  0  0  0  0
   21.7861  -20.1480  -15.3615 C   0  0  0  0  0  0  0  0  0  0  0  0
   22.5456  -18.8713  -15.5942 C   0  0  2  0  0  0  0  0  0  0  0  0
   21.6606  -17.8744  -16.3451 C   0  0  0  0  0  0  0  0  0  0  0  0
   23.8797  -19.0230  -16.2425 C   0  0  2  0  0  0  0  0  0  0  0  0
   23.6270  -19.7373  -17.5163 N   0  0  0  0  0  0  0  0  0  0  0  0
   24.8159  -19.9204  -15.4908 C   0  0  0  0  0  0  0  0  0  0  0  0
   24.7720  -21.1662  -15.6613 O   0  0  0  0  0  0  0  0  0  0  0  0
   25.7672  -19.4361  -14.5829 N   0  0  0  0  0  0  0  0  0  0  0  0
   26.7424  -20.0474  -13.7802 C   0  0  1  0  0  0  0  0  0  0  0  0
   28.1858  -19.7212  -13.9902 C   0  0  0  0  0  0  0  0  0  0  0  0
   29.1343  -20.4850  -13.1585 C   0  0  0  0  0  0  0  0  0  0  0  0
   29.8168  -19.8981  -12.0857 C   0  0  0  0  0  0  0  0  0  0  0  0
   30.6081  -20.7828  -11.4967 N   0  0  0  0  0  0  0  0  0  0  0  0
   30.4474  -21.9373  -12.1744 C   0  0  0  0  0  0  0  0  0  0  0  0
   29.5626  -21.7505  -13.1687 N   0  0  0  0  0  0  0  0  0  0  0  0
   26.3961  -20.0539  -12.3738 C   0  0  0  0  0  0  0  0  0  0  0  0
   25.9296  -18.9887  -11.8598 O   0  0  0  0  0  0  0  0  0  0  0  0
   26.5276  -19.0465   -7.5660 C   0  0  0  0  0  0  0  0  0  0  0  0
   27.3523  -20.2055   -8.0055 C   0  0  1  0  0  0  0  0  0  0  0  0
   26.7420  -21.4615   -7.3980 C   0  0  0  0  0  0  0  0  0  0  0  0
   27.4424  -20.3735   -9.4787 C   0  0  0  0  0  0  0  0  0  0  0  0
   26.3151  -21.0998  -10.1278 C   0  0  2  0  0  0  0  0  0  0  0  0
   26.5479  -21.1754  -11.5515 N   0  0  0  0  0  0  0  0  0  0  0  0
   24.9755  -20.6136   -9.7791 C   0  0  0  0  0  0  0  0  0  0  0  0
   24.2112  -21.3391   -9.1095 O   0  0  0  0  0  0  0  0  0  0  0  0
   24.4924  -19.3504  -10.1650 O   0  0  0  0  0  0  0  0  0  0  0  0
  2  1  1  0
  3  2  1  0
  3  5  1  0
  3  4  1  6
  5  6  1  6
  7  5  1  0
  7  8  2  0
  9  7  1  0
 10  9  1  0
 10 11  1  1
 12 11  1  0
 12 16  1  0
 13 14  1  0
 13 12  2  0
 14 15  1  0
 15 16  2  0
 17 10  1  0
 18 17  2  0
 20 22  1  0
 20 19  1  6
 21 20  1  0
 23 24  1  0
 23 22  1  1
 24 17  1  0
 25 23  1  0
 26 25  2  0
 27 25  1  0
M  END
$$$$
