IHL.pdb
     RDKit          3D

 27 27  0  0  1  0  0  0  0  0999 V2000
   18.6442  -18.0612  -12.0273 C   0  0  0  0  0  0  0  0  0  0  0  0
   19.1907  -18.4682  -13.3638 C   0  0  0  0  0  0  0  0  0  0  0  0
   19.9831  -17.3641  -14.0072 C   0  0  2  0  0  0  0  0  0  0  0  0
   19.1294  -16.0970  -14.0890 C   0  0  0  0  0  0  0  0  0  0  0  0
   20.6050  -17.6970  -15.3208 C   0  0  2  0  0  0  0  0  0  0  0  0
   21.4470  -18.8914  -15.0739 N   0  0  0  0  0  0  0  0  0  0  0  0
   21.5668  -16.6575  -15.8123 C   0  0  0  0  0  0  0  0  0  0  0  0
   22.7003  -16.5415  -15.2789 O   0  0  0  0  0  0  0  0  0  0  0  0
   21.2668  -15.7825  -16.8650 N   0  0  0  0  0  0  0  0  0  0  0  0
   21.9909  -14.7833  -17.5331 C   0  0  1  0  0  0  0  0  0  0  0  0
   21.7373  -14.5291  -18.9839 C   0  0  0  0  0  0  0  0  0  0  0  0
   22.1449  -15.6132  -19.8967 C   0  0  0  0  0  0  0  0  0  0  0  0
   22.8777  -16.7200  -19.4506 C   0  0  0  0  0  0  0  0  0  0  0  0
   23.1221  -17.5518  -20.4526 N   0  0  0  0  0  0  0  0  0  0  0  0
   22.5566  -16.9981  -21.5443 C   0  0  0  0  0  0  0  0  0  0  0  0
   21.9730  -15.8365  -21.2027 N   0  0  0  0  0  0  0  0  0  0  0  0
   22.0771  -13.5479  -16.7821 C   0  0  0  0  0  0  0  0  0  0  0  0
   21.0004  -13.0172  -16.3631 O   0  0  0  0  0  0  0  0  0  0  0  0
   24.4127   -9.8191  -13.4608 C   0  0  0  0  0  0  0  0  0  0  0  0
   24.9497   -9.9665  -14.8415 C   0  0  1  0  0  0  0  0  0  0  0  0
   26.4457   -9.6876  -14.7859 C   0  0  0  0  0  0  0  0  0  0  0  0
   24.7276  -11.3039  -15.4489 C   0  0  0  0  0  0  0  0  0  0  0  0
   23.3204  -11.6385  -15.8056 C   0  0  2  0  0  0  0  0  0  0  0  0
   23.2874  -12.9088  -16.4928 N   0  0  0  0  0  0  0  0  0  0  0  0
   22.5832  -10.5778  -16.5014 C   0  0  0  0  0  0  0  0  0  0  0  0
   21.7329   -9.9078  -15.8792 O   0  0  0  0  0  0  0  0  0  0  0  0
   22.7831  -10.2664  -17.8582 O   0  0  0  0  0  0  0  0  0  0  0  0
  2  1  1  0
  3  2  1  0
  3  5  1  0
  3  4  1  6
  5  6  1  1
  7  5  1  0
  7  8  2  0
  9  7  1  0
 10  9  1  0
 10 11  1  6
 12 11  1  0
 12 16  1  0
 13 14  1  0
 13 12  2  0
 14 15  1  0
 15 16  2  0
 17 10  1  0
 18 17  2  0
 20 22  1  0
 20 19  1  1
 21 20  1  0
 23 24  1  0
 23 22  1  6
 24 17  1  0
 25 23  1  0
 26 25  2  0
 27 25  1  0
M  END
$$$$
