IHL.pdb
     RDKit          3D

 27 27  0  0  1  0  0  0  0  0999 V2000
   17.3642  -15.5933  -16.5988 C   0  0  0  0  0  0  0  0  0  0  0  0
   18.0202  -15.2795  -17.9108 C   0  0  0  0  0  0  0  0  0  0  0  0
   19.0489  -14.1908  -17.7790 C   0  0  2  0  0  0  0  0  0  0  0  0
   18.4199  -12.9651  -17.1135 C   0  0  0  0  0  0  0  0  0  0  0  0
   19.7703  -13.8292  -19.0328 C   0  0  2  0  0  0  0  0  0  0  0  0
   20.5090  -15.0494  -19.4357 N   0  0  0  0  0  0  0  0  0  0  0  0
   20.8373  -12.7948  -18.8366 C   0  0  0  0  0  0  0  0  0  0  0  0
   22.0106  -13.1432  -18.5452 O   0  0  0  0  0  0  0  0  0  0  0  0
   20.5954  -11.4205  -18.9649 N   0  0  0  0  0  0  0  0  0  0  0  0
   21.4106  -10.2805  -18.8937 C   0  0  1  0  0  0  0  0  0  0  0  0
   21.6784   -9.4828  -20.1290 C   0  0  0  0  0  0  0  0  0  0  0  0
   22.2543  -10.2381  -21.2571 C   0  0  0  0  0  0  0  0  0  0  0  0
   23.5853  -10.6731  -21.2538 C   0  0  0  0  0  0  0  0  0  0  0  0
   23.8653  -11.3256  -22.3726 N   0  0  0  0  0  0  0  0  0  0  0  0
   22.7315  -11.3193  -23.1024 C   0  0  0  0  0  0  0  0  0  0  0  0
   21.7708  -10.6657  -22.4269 N   0  0  0  0  0  0  0  0  0  0  0  0
   21.0952   -9.4280  -17.7661 C   0  0  0  0  0  0  0  0  0  0  0  0
   19.8788   -9.1207  -17.5603 O   0  0  0  0  0  0  0  0  0  0  0  0
   23.0518  -10.2080  -12.8093 C   0  0  0  0  0  0  0  0  0  0  0  0
   22.2463   -9.8662  -14.0137 C   0  0  1  0  0  0  0  0  0  0  0  0
   20.7765   -9.9576  -13.6259 C   0  0  0  0  0  0  0  0  0  0  0  0
   22.5175   -8.5170  -14.5732 C   0  0  0  0  0  0  0  0  0  0  0  0
   21.6971   -8.1164  -15.7505 C   0  0  2  0  0  0  0  0  0  0  0  0
   22.0631   -8.9259  -16.8897 N   0  0  0  0  0  0  0  0  0  0  0  0
   21.6770   -6.6777  -16.0374 C   0  0  0  0  0  0  0  0  0  0  0  0
   22.3560   -6.2283  -16.9840 O   0  0  0  0  0  0  0  0  0  0  0  0
   20.9211   -5.7561  -15.2909 O   0  0  0  0  0  0  0  0  0  0  0  0
  2  1  1  0
  3  2  1  0
  3  5  1  0
  3  4  1  6
  5  6  1  1
  7  5  1  0
  7  8  2  0
  9  7  1  0
 10  9  1  0
 10 11  1  6
 12 11  1  0
 12 16  1  0
 13 14  1  0
 13 12  2  0
 14 15  1  0
 15 16  2  0
 17 10  1  0
 18 17  2  0
 20 22  1  0
 20 19  1  1
 21 20  1  0
 23 24  1  0
 23 22  1  1
 24 17  1  0
 25 23  1  0
 26 25  2  0
 27 25  1  0
M  END
$$$$
