IHL.pdb
     RDKit          3D

 27 27  0  0  1  0  0  0  0  0999 V2000
   28.6515  -16.1898  -16.5494 C   0  0  0  0  0  0  0  0  0  0  0  0
   27.9122  -17.4782  -16.7586 C   0  0  0  0  0  0  0  0  0  0  0  0
   27.1786  -17.9130  -15.5202 C   0  0  2  0  0  0  0  0  0  0  0  0
   28.1383  -17.9213  -14.3286 C   0  0  0  0  0  0  0  0  0  0  0  0
   26.4263  -19.1954  -15.6324 C   0  0  2  0  0  0  0  0  0  0  0  0
   25.5157  -19.0255  -16.7894 N   0  0  0  0  0  0  0  0  0  0  0  0
   25.5125  -19.4609  -14.4742 C   0  0  0  0  0  0  0  0  0  0  0  0
   24.5793  -18.6601  -14.2078 O   0  0  0  0  0  0  0  0  0  0  0  0
   25.6412  -20.5849  -13.6473 N   0  0  0  0  0  0  0  0  0  0  0  0
   24.8886  -21.0952  -12.5785 C   0  0  1  0  0  0  0  0  0  0  0  0
   24.0672  -22.3286  -12.7731 C   0  0  0  0  0  0  0  0  0  0  0  0
   22.9919  -22.2207  -13.7765 C   0  0  0  0  0  0  0  0  0  0  0  0
   22.7852  -21.0500  -14.5166 C   0  0  0  0  0  0  0  0  0  0  0  0
   21.7645  -21.1986  -15.3484 N   0  0  0  0  0  0  0  0  0  0  0  0
   21.3060  -22.4521  -15.1570 C   0  0  0  0  0  0  0  0  0  0  0  0
   22.0469  -23.0580  -14.2134 N   0  0  0  0  0  0  0  0  0  0  0  0
   25.6283  -21.1377  -11.3340 C   0  0  0  0  0  0  0  0  0  0  0  0
   26.8986  -21.1149  -11.3831 O   0  0  0  0  0  0  0  0  0  0  0  0
   28.8866  -20.2353   -7.6038 C   0  0  0  0  0  0  0  0  0  0  0  0
   27.4540  -19.8316   -7.5695 C   0  0  1  0  0  0  0  0  0  0  0  0
   27.4015  -18.3491   -7.2253 C   0  0  0  0  0  0  0  0  0  0  0  0
   26.7191  -20.0611   -8.8398 C   0  0  0  0  0  0  0  0  0  0  0  0
   25.7935  -21.2283   -8.8622 C   0  0  2  0  0  0  0  0  0  0  0  0
   25.0145  -21.2012  -10.0785 N   0  0  0  0  0  0  0  0  0  0  0  0
   24.9828  -21.4060   -7.6523 C   0  0  0  0  0  0  0  0  0  0  0  0
   25.2187  -22.3643   -6.8874 O   0  0  0  0  0  0  0  0  0  0  0  0
   23.9324  -20.5408   -7.2976 O   0  0  0  0  0  0  0  0  0  0  0  0
  2  1  1  0
  3  2  1  0
  3  5  1  0
  3  4  1  1
  5  6  1  6
  7  5  1  0
  7  8  2  0
  9  7  1  0
 10  9  1  0
 10 11  1  6
 12 11  1  0
 12 16  1  0
 13 14  1  0
 13 12  2  0
 14 15  1  0
 15 16  2  0
 17 10  1  0
 18 17  2  0
 20 22  1  0
 20 19  1  6
 21 20  1  0
 23 24  1  0
 23 22  1  1
 24 17  1  0
 25 23  1  0
 26 25  2  0
 27 25  1  0
M  END
$$$$
