DSL.pdb
     RDKit          3D

 23 22  0  0  1  0  0  0  0  0999 V2000
   30.5131  -36.6697  -17.5596 N   0  0  0  0  0  0  0  0  0  0  0  0
   30.2592  -35.5970  -16.5875 C   0  0  1  0  0  0  0  0  0  0  0  0
   31.1878  -35.9499  -15.4216 C   0  0  0  0  0  0  0  0  0  0  0  0
   32.5599  -36.1173  -15.9158 C   0  0  0  0  0  0  0  0  0  0  0  0
   33.4321  -36.4494  -15.0418 O   0  0  0  0  0  0  0  0  0  0  0  0
   30.6894  -34.3073  -17.1669 C   0  0  0  0  0  0  0  0  0  0  0  0
   31.3522  -34.3378  -18.2284 O   0  0  0  0  0  0  0  0  0  0  0  0
   32.9663  -35.9459  -17.2255 O   0  0  0  0  0  0  0  0  0  0  0  0
   30.5716  -29.4709  -17.0220 O   0  0  0  0  0  0  0  0  0  0  0  0
   30.2102  -30.6615  -16.4045 C   0  0  0  0  0  0  0  0  0  0  0  0
   30.8306  -31.8633  -17.1669 C   0  0  2  0  0  0  0  0  0  0  0  0
   30.3602  -33.0688  -16.5457 N   0  0  0  0  0  0  0  0  0  0  0  0
   32.2862  -31.6754  -17.1485 C   0  0  0  0  0  0  0  0  0  0  0  0
   32.8976  -31.8489  -16.0524 O   0  0  0  0  0  0  0  0  0  0  0  0
   37.2295  -33.1055  -20.1073 C   0  0  0  0  0  0  0  0  0  0  0  0
   36.6095  -32.1758  -19.0762 C   0  0  2  0  0  0  0  0  0  0  0  0
   37.1407  -32.6757  -17.7264 C   0  0  0  0  0  0  0  0  0  0  0  0
   35.1039  -32.2339  -19.1242 C   0  0  0  0  0  0  0  0  0  0  0  0
   34.4247  -31.1491  -18.3706 C   0  0  2  0  0  0  0  0  0  0  0  0
   32.9868  -31.3165  -18.3131 N   0  0  0  0  0  0  0  0  0  0  0  0
   34.7965  -29.7692  -18.7787 C   0  0  0  0  0  0  0  0  0  0  0  0
   33.9000  -28.7979  -19.1839 O   0  0  0  0  0  0  0  0  0  0  0  0
   36.0205  -29.3914  -18.7783 O   0  0  0  0  0  0  0  0  0  0  0  0
  2  1  1  6
  2  3  1  0
  3  4  1  0
  4  5  2  0
  6 12  1  0
  6  2  1  0
  7  6  2  0
  8  4  1  0
  9 10  1  0
 11 10  1  1
 11 12  1  0
 11 13  1  0
 13 20  1  0
 14 13  2  0
 16 18  1  0
 16 15  1  6
 17 16  1  0
 19 18  1  6
 19 21  1  0
 20 19  1  0
 21 22  1  0
 23 21  2  0
M  END
$$$$
