DSL.pdb
     RDKit          3D

 23 22  0  0  1  0  0  0  0  0999 V2000
   17.8774  -15.1173  -17.9309 N   0  0  0  0  0  0  0  0  0  0  0  0
   17.8512  -14.2148  -16.7710 C   0  0  1  0  0  0  0  0  0  0  0  0
   18.5116  -15.0427  -15.6644 C   0  0  0  0  0  0  0  0  0  0  0  0
   17.5260  -15.9585  -15.0772 C   0  0  0  0  0  0  0  0  0  0  0  0
   16.3350  -15.8646  -15.5329 O   0  0  0  0  0  0  0  0  0  0  0  0
   18.6972  -13.0369  -17.0554 C   0  0  0  0  0  0  0  0  0  0  0  0
   19.7626  -13.2234  -17.6854 O   0  0  0  0  0  0  0  0  0  0  0  0
   17.7867  -16.8914  -14.0917 O   0  0  0  0  0  0  0  0  0  0  0  0
   17.6840   -9.1383  -15.8281 O   0  0  0  0  0  0  0  0  0  0  0  0
   18.3176   -9.3506  -17.0459 C   0  0  0  0  0  0  0  0  0  0  0  0
   19.1817  -10.6385  -16.9760 C   0  0  2  0  0  0  0  0  0  0  0  0
   18.3162  -11.7312  -16.6334 N   0  0  0  0  0  0  0  0  0  0  0  0
   20.2656  -10.3746  -16.0221 C   0  0  0  0  0  0  0  0  0  0  0  0
   20.0614  -10.6332  -14.7986 O   0  0  0  0  0  0  0  0  0  0  0  0
   26.4112   -9.6715  -15.9500 C   0  0  0  0  0  0  0  0  0  0  0  0
   25.0846   -9.6084  -15.2095 C   0  0  2  0  0  0  0  0  0  0  0  0
   25.1702  -10.7193  -14.1547 C   0  0  0  0  0  0  0  0  0  0  0  0
   23.9254   -9.8350  -16.1461 C   0  0  0  0  0  0  0  0  0  0  0  0
   22.5948   -9.5365  -15.5574 C   0  0  2  0  0  0  0  0  0  0  0  0
   21.4986   -9.8528  -16.4502 N   0  0  0  0  0  0  0  0  0  0  0  0
   22.4516   -8.1743  -14.9804 C   0  0  0  0  0  0  0  0  0  0  0  0
   22.5082   -7.8792  -13.6310 O   0  0  0  0  0  0  0  0  0  0  0  0
   22.2578   -7.1582  -15.7359 O   0  0  0  0  0  0  0  0  0  0  0  0
  2  1  1  6
  2  3  1  0
  3  4  1  0
  4  5  2  0
  6 12  1  0
  6  2  1  0
  7  6  2  0
  8  4  1  0
  9 10  1  0
 11 10  1  1
 11 12  1  0
 11 13  1  0
 13 20  1  0
 14 13  2  0
 16 18  1  0
 16 15  1  6
 17 16  1  0
 19 18  1  6
 19 21  1  0
 20 19  1  0
 21 22  1  0
 23 21  2  0
M  END
$$$$
