DSL.pdb
     RDKit          3D

 23 22  0  0  1  0  0  0  0  0999 V2000
   15.3966  -13.6327  -12.2085 N   0  0  0  0  0  0  0  0  0  0  0  0
   15.0767  -12.2874  -12.7067 C   0  0  1  0  0  0  0  0  0  0  0  0
   13.5546  -12.2076  -12.5557 C   0  0  0  0  0  0  0  0  0  0  0  0
   12.9140  -13.1043  -13.5255 C   0  0  0  0  0  0  0  0  0  0  0  0
   13.0823  -12.8068  -14.7576 O   0  0  0  0  0  0  0  0  0  0  0  0
   15.6979  -11.2824  -11.8189 C   0  0  0  0  0  0  0  0  0  0  0  0
   15.4083  -11.3220  -10.6018 O   0  0  0  0  0  0  0  0  0  0  0  0
   12.1608  -14.2191  -13.2100 O   0  0  0  0  0  0  0  0  0  0  0  0
   17.8583   -8.0664  -13.3183 O   0  0  0  0  0  0  0  0  0  0  0  0
   18.2841   -8.5852  -12.1020 C   0  0  0  0  0  0  0  0  0  0  0  0
   17.1131   -9.3283  -11.4041 C   0  0  2  0  0  0  0  0  0  0  0  0
   16.5993  -10.3027  -12.3246 N   0  0  0  0  0  0  0  0  0  0  0  0
   16.1531   -8.3046  -10.9744 C   0  0  0  0  0  0  0  0  0  0  0  0
   15.1868   -8.0295  -11.7465 O   0  0  0  0  0  0  0  0  0  0  0  0
   14.0090   -5.5651   -5.8857 C   0  0  0  0  0  0  0  0  0  0  0  0
   14.1268   -5.5780   -7.4016 C   0  0  2  0  0  0  0  0  0  0  0  0
   12.7056   -5.8638   -7.9039 C   0  0  0  0  0  0  0  0  0  0  0  0
   15.0918   -6.6394   -7.8650 C   0  0  0  0  0  0  0  0  0  0  0  0
   15.4497   -6.5555   -9.3041 C   0  0  2  0  0  0  0  0  0  0  0  0
   16.2960   -7.6478   -9.7399 N   0  0  0  0  0  0  0  0  0  0  0  0
   15.9861   -5.2415   -9.7452 C   0  0  0  0  0  0  0  0  0  0  0  0
   15.2130   -4.1710  -10.1544 O   0  0  0  0  0  0  0  0  0  0  0  0
   17.2480   -5.0230   -9.7725 O   0  0  0  0  0  0  0  0  0  0  0  0
  2  1  1  1
  2  3  1  0
  3  4  1  0
  4  5  2  0
  6 12  1  0
  6  2  1  0
  7  6  2  0
  8  4  1  0
  9 10  1  0
 11 10  1  6
 11 12  1  0
 11 13  1  0
 13 20  1  0
 14 13  2  0
 16 18  1  0
 16 15  1  1
 17 16  1  0
 19 18  1  1
 19 21  1  0
 20 19  1  0
 21 22  1  0
 23 21  2  0
M  END
$$$$
