DSL.pdb
     RDKit          3D

 23 22  0  0  1  0  0  0  0  0999 V2000
   26.4450  -34.5328  -12.7308 N   0  0  0  0  0  0  0  0  0  0  0  0
   25.3071  -34.6878  -11.8135 C   0  0  1  0  0  0  0  0  0  0  0  0
   25.0401  -36.1959  -11.8336 C   0  0  0  0  0  0  0  0  0  0  0  0
   23.8040  -36.4888  -11.0979 C   0  0  0  0  0  0  0  0  0  0  0  0
   23.2245  -35.4855  -10.5570 O   0  0  0  0  0  0  0  0  0  0  0  0
   25.7266  -34.2953  -10.4518 C   0  0  0  0  0  0  0  0  0  0  0  0
   26.8214  -34.7325  -10.0308 O   0  0  0  0  0  0  0  0  0  0  0  0
   23.2361  -37.7400  -10.9516 O   0  0  0  0  0  0  0  0  0  0  0  0
   25.1008  -31.4037   -6.6398 O   0  0  0  0  0  0  0  0  0  0  0  0
   24.6146  -31.8360   -7.8672 C   0  0  0  0  0  0  0  0  0  0  0  0
   25.4296  -33.0632   -8.3573 C   0  0  2  0  0  0  0  0  0  0  0  0
   24.9191  -33.4454   -9.6433 N   0  0  0  0  0  0  0  0  0  0  0  0
   25.3274  -34.0889   -7.3123 C   0  0  0  0  0  0  0  0  0  0  0  0
   24.2487  -34.7477   -7.2246 O   0  0  0  0  0  0  0  0  0  0  0  0
   27.9726  -38.6274   -4.5914 C   0  0  0  0  0  0  0  0  0  0  0  0
   26.8089  -37.6491   -4.6186 C   0  0  2  0  0  0  0  0  0  0  0  0
   25.5857  -38.5032   -4.9770 C   0  0  0  0  0  0  0  0  0  0  0  0
   27.0326  -36.5630   -5.6398 C   0  0  0  0  0  0  0  0  0  0  0  0
   26.3354  -35.2864   -5.3390 C   0  0  2  0  0  0  0  0  0  0  0  0
   26.3956  -34.3390   -6.4334 N   0  0  0  0  0  0  0  0  0  0  0  0
   26.7099  -34.6521   -4.0482 C   0  0  0  0  0  0  0  0  0  0  0  0
   26.3553  -35.1320   -2.8012 O   0  0  0  0  0  0  0  0  0  0  0  0
   27.4097  -33.5795   -4.0222 O   0  0  0  0  0  0  0  0  0  0  0  0
  2  1  1  6
  2  3  1  0
  3  4  1  0
  4  5  2  0
  6 12  1  0
  6  2  1  0
  7  6  2  0
  8  4  1  0
  9 10  1  0
 11 10  1  1
 11 12  1  0
 11 13  1  0
 13 20  1  0
 14 13  2  0
 16 18  1  0
 16 15  1  6
 17 16  1  0
 19 18  1  6
 19 21  1  0
 20 19  1  0
 21 22  1  0
 23 21  2  0
M  END
$$$$
