DSL.pdb
     RDKit          3D

 23 22  0  0  1  0  0  0  0  0999 V2000
   34.1492  -28.4043  -20.7040 N   0  0  0  0  0  0  0  0  0  0  0  0
   33.3281  -28.6348  -19.5069 C   0  0  1  0  0  0  0  0  0  0  0  0
   32.0610  -27.8208  -19.7857 C   0  0  0  0  0  0  0  0  0  0  0  0
   32.3532  -26.3887  -19.6481 C   0  0  0  0  0  0  0  0  0  0  0  0
   31.3585  -25.5988  -19.7952 O   0  0  0  0  0  0  0  0  0  0  0  0
   32.9694  -30.0666  -19.4346 C   0  0  0  0  0  0  0  0  0  0  0  0
   32.7393  -30.6645  -20.5100 O   0  0  0  0  0  0  0  0  0  0  0  0
   33.5953  -25.8469  -19.3777 O   0  0  0  0  0  0  0  0  0  0  0  0
   32.7080  -31.9541  -15.8095 O   0  0  0  0  0  0  0  0  0  0  0  0
   33.0245  -32.7781  -16.8820 C   0  0  0  0  0  0  0  0  0  0  0  0
   32.5280  -32.1379  -18.2064 C   0  0  2  0  0  0  0  0  0  0  0  0
   32.8911  -30.7492  -18.1872 N   0  0  0  0  0  0  0  0  0  0  0  0
   31.0882  -32.4081  -18.2983 C   0  0  0  0  0  0  0  0  0  0  0  0
   30.2895  -31.5802  -17.7671 O   0  0  0  0  0  0  0  0  0  0  0  0
   28.1517  -31.9449  -21.1245 C   0  0  0  0  0  0  0  0  0  0  0  0
   28.9926  -33.1722  -21.4387 C   0  0  2  0  0  0  0  0  0  0  0  0
   28.5307  -33.6190  -22.8319 C   0  0  0  0  0  0  0  0  0  0  0  0
   28.7739  -34.2596  -20.4178 C   0  0  0  0  0  0  0  0  0  0  0  0
   29.2014  -33.9021  -19.0410 C   0  0  2  0  0  0  0  0  0  0  0  0
   30.6046  -33.5506  -18.9590 N   0  0  0  0  0  0  0  0  0  0  0  0
   28.8229  -34.8810  -17.9887 C   0  0  0  0  0  0  0  0  0  0  0  0
   27.5609  -34.9969  -17.4364 O   0  0  0  0  0  0  0  0  0  0  0  0
   29.6840  -35.7033  -17.5163 O   0  0  0  0  0  0  0  0  0  0  0  0
  2  1  1  6
  2  3  1  0
  3  4  1  0
  4  5  2  0
  6 12  1  0
  6  2  1  0
  7  6  2  0
  8  4  1  0
  9 10  1  0
 11 10  1  1
 11 12  1  0
 11 13  1  0
 13 20  1  0
 14 13  2  0
 16 18  1  0
 16 15  1  1
 17 16  1  0
 19 18  1  6
 19 21  1  0
 20 19  1  0
 21 22  1  0
 23 21  2  0
M  END
$$$$
