DSL.pdb
     RDKit          3D

 23 22  0  0  1  0  0  0  0  0999 V2000
   17.4987  -12.1322  -17.6962 N   0  0  0  0  0  0  0  0  0  0  0  0
   18.0454  -11.7660  -16.3819 C   0  0  1  0  0  0  0  0  0  0  0  0
   19.3821  -12.5124  -16.3351 C   0  0  0  0  0  0  0  0  0  0  0  0
   19.1427  -13.9403  -16.0925 C   0  0  0  0  0  0  0  0  0  0  0  0
   19.7332  -14.7489  -16.8877 O   0  0  0  0  0  0  0  0  0  0  0  0
   18.3093  -10.3121  -16.3558 C   0  0  0  0  0  0  0  0  0  0  0  0
   18.9382   -9.8169  -17.3181 O   0  0  0  0  0  0  0  0  0  0  0  0
   18.3446  -14.4601  -15.0913 O   0  0  0  0  0  0  0  0  0  0  0  0
   17.4685   -7.9360  -13.0404 O   0  0  0  0  0  0  0  0  0  0  0  0
   17.2244   -7.3848  -14.2918 C   0  0  0  0  0  0  0  0  0  0  0  0
   18.1071   -8.0847  -15.3602 C   0  0  2  0  0  0  0  0  0  0  0  0
   17.8618   -9.4967  -15.2774 N   0  0  0  0  0  0  0  0  0  0  0  0
   19.4929   -7.6734  -15.1057 C   0  0  0  0  0  0  0  0  0  0  0  0
   20.2235   -8.4351  -14.4048 O   0  0  0  0  0  0  0  0  0  0  0  0
   23.4871   -3.2468  -16.9965 C   0  0  0  0  0  0  0  0  0  0  0  0
   23.1706   -4.4186  -16.0806 C   0  0  2  0  0  0  0  0  0  0  0  0
   24.2208   -5.4824  -16.4263 C   0  0  0  0  0  0  0  0  0  0  0  0
   21.7742   -4.9349  -16.3175 C   0  0  0  0  0  0  0  0  0  0  0  0
   21.3299   -5.9671  -15.3464 C   0  0  2  0  0  0  0  0  0  0  0  0
   20.0004   -6.4703  -15.6261 N   0  0  0  0  0  0  0  0  0  0  0  0
   21.4811   -5.5940  -13.9157 C   0  0  0  0  0  0  0  0  0  0  0  0
   20.4323   -5.3366  -13.0525 O   0  0  0  0  0  0  0  0  0  0  0  0
   22.6416   -5.4845  -13.3846 O   0  0  0  0  0  0  0  0  0  0  0  0
  2  1  1  6
  2  3  1  0
  3  4  1  0
  4  5  2  0
  6 12  1  0
  6  2  1  0
  7  6  2  0
  8  4  1  0
  9 10  1  0
 11 10  1  1
 11 12  1  0
 11 13  1  0
 13 20  1  0
 14 13  2  0
 16 18  1  0
 16 15  1  6
 17 16  1  0
 19 18  1  6
 19 21  1  0
 20 19  1  0
 21 22  1  0
 23 21  2  0
M  END
$$$$
