DSL.pdb
     RDKit          3D

 23 22  0  0  1  0  0  0  0  0999 V2000
   18.6358  -15.3402  -17.4276 N   0  0  0  0  0  0  0  0  0  0  0  0
   18.0882  -13.9798  -17.3271 C   0  0  1  0  0  0  0  0  0  0  0  0
   17.6563  -13.8804  -15.8610 C   0  0  0  0  0  0  0  0  0  0  0  0
   16.5246  -14.7831  -15.6169 C   0  0  0  0  0  0  0  0  0  0  0  0
   15.4742  -14.5630  -16.3121 O   0  0  0  0  0  0  0  0  0  0  0  0
   19.1701  -13.0036  -17.5733 C   0  0  0  0  0  0  0  0  0  0  0  0
   20.3483  -13.4262  -17.5680 O   0  0  0  0  0  0  0  0  0  0  0  0
   16.5135  -15.8274  -14.7120 O   0  0  0  0  0  0  0  0  0  0  0  0
   18.5955   -8.8484  -17.6635 O   0  0  0  0  0  0  0  0  0  0  0  0
   19.4130   -9.4170  -18.6320 C   0  0  0  0  0  0  0  0  0  0  0  0
   19.9913  -10.7616  -18.1143 C   0  0  2  0  0  0  0  0  0  0  0  0
   18.8875  -11.6286  -17.8133 N   0  0  0  0  0  0  0  0  0  0  0  0
   20.8650  -10.4421  -16.9790 C   0  0  0  0  0  0  0  0  0  0  0  0
   20.3885  -10.5475  -15.8097 O   0  0  0  0  0  0  0  0  0  0  0  0
   26.9090   -9.9435  -15.7038 C   0  0  0  0  0  0  0  0  0  0  0  0
   25.4680   -9.7389  -15.2637 C   0  0  2  0  0  0  0  0  0  0  0  0
   25.2813  -10.6904  -14.0747 C   0  0  0  0  0  0  0  0  0  0  0  0
   24.5057  -10.0642  -16.3776 C   0  0  0  0  0  0  0  0  0  0  0  0
   23.0988   -9.6737  -16.1051 C   0  0  2  0  0  0  0  0  0  0  0  0
   22.1951  -10.0335  -17.1788 N   0  0  0  0  0  0  0  0  0  0  0  0
   22.9066   -8.2621  -15.6817 C   0  0  0  0  0  0  0  0  0  0  0  0
   22.8847   -7.8282  -14.3692 O   0  0  0  0  0  0  0  0  0  0  0  0
   22.7421   -7.3330  -16.5481 O   0  0  0  0  0  0  0  0  0  0  0  0
  2  1  1  1
  2  3  1  0
  3  4  1  0
  4  5  2  0
  6 12  1  0
  6  2  1  0
  7  6  2  0
  8  4  1  0
  9 10  1  0
 11 10  1  1
 11 12  1  0
 11 13  1  0
 13 20  1  0
 14 13  2  0
 16 18  1  0
 16 15  1  6
 17 16  1  0
 19 18  1  6
 19 21  1  0
 20 19  1  0
 21 22  1  0
 23 21  2  0
M  END
$$$$
