DSL.pdb
     RDKit          3D

 23 22  0  0  1  0  0  0  0  0999 V2000
   17.1369  -10.8244  -17.4040 N   0  0  0  0  0  0  0  0  0  0  0  0
   18.3635  -10.1850  -17.9010 C   0  0  1  0  0  0  0  0  0  0  0  0
   17.8370   -9.0584  -18.7953 C   0  0  0  0  0  0  0  0  0  0  0  0
   17.4794   -9.5991  -20.1124 C   0  0  0  0  0  0  0  0  0  0  0  0
   16.3191  -10.1287  -20.2028 O   0  0  0  0  0  0  0  0  0  0  0  0
   19.0938   -9.5892  -16.7628 C   0  0  0  0  0  0  0  0  0  0  0  0
   18.4254   -8.9843  -15.8943 O   0  0  0  0  0  0  0  0  0  0  0  0
   18.2869   -9.5772  -21.2336 O   0  0  0  0  0  0  0  0  0  0  0  0
   23.2736   -9.3628  -16.6384 O   0  0  0  0  0  0  0  0  0  0  0  0
   22.5980   -9.5724  -15.4428 C   0  0  0  0  0  0  0  0  0  0  0  0
   21.1471   -9.0308  -15.5522 C   0  0  2  0  0  0  0  0  0  0  0  0
   20.5091   -9.7001  -16.6502 N   0  0  0  0  0  0  0  0  0  0  0  0
   21.2442   -7.5717  -15.6786 C   0  0  0  0  0  0  0  0  0  0  0  0
   20.9448   -7.0468  -16.7924 O   0  0  0  0  0  0  0  0  0  0  0  0
   19.1551   -2.6022  -15.4539 C   0  0  0  0  0  0  0  0  0  0  0  0
   20.5315   -3.1879  -15.1811 C   0  0  2  0  0  0  0  0  0  0  0  0
   21.4016   -2.7082  -16.3501 C   0  0  0  0  0  0  0  0  0  0  0  0
   20.4819   -4.6934  -15.1212 C   0  0  0  0  0  0  0  0  0  0  0  0
   21.7363   -5.3290  -14.6433 C   0  0  2  0  0  0  0  0  0  0  0  0
   21.6540   -6.7747  -14.5957 N   0  0  0  0  0  0  0  0  0  0  0  0
   22.2830   -4.7728  -13.3781 C   0  0  0  0  0  0  0  0  0  0  0  0
   22.8701   -3.5274  -13.2527 O   0  0  0  0  0  0  0  0  0  0  0  0
   22.2389   -5.4481  -12.2906 O   0  0  0  0  0  0  0  0  0  0  0  0
  2  1  1  1
  2  3  1  0
  3  4  1  0
  4  5  2  0
  6 12  1  0
  6  2  1  0
  7  6  2  0
  8  4  1  0
  9 10  1  0
 11 10  1  6
 11 12  1  0
 11 13  1  0
 13 20  1  0
 14 13  2  0
 16 18  1  0
 16 15  1  6
 17 16  1  0
 19 18  1  1
 19 21  1  0
 20 19  1  0
 21 22  1  0
 23 21  2  0
M  END
$$$$
