DSL.pdb
     RDKit          3D

 23 22  0  0  1  0  0  0  0  0999 V2000
   18.8634  -13.9915  -17.4096 N   0  0  0  0  0  0  0  0  0  0  0  0
   18.9725  -13.0740  -16.2665 C   0  0  1  0  0  0  0  0  0  0  0  0
   19.5852  -13.9488  -15.1686 C   0  0  0  0  0  0  0  0  0  0  0  0
   18.5833  -14.9047  -14.6816 C   0  0  0  0  0  0  0  0  0  0  0  0
   17.4271  -14.4215  -14.4274 O   0  0  0  0  0  0  0  0  0  0  0  0
   19.9234  -11.9937  -16.6024 C   0  0  0  0  0  0  0  0  0  0  0  0
   20.9768  -12.3099  -17.2000 O   0  0  0  0  0  0  0  0  0  0  0  0
   18.7949  -16.2558  -14.4830 O   0  0  0  0  0  0  0  0  0  0  0  0
   19.5750   -8.0604  -15.2141 O   0  0  0  0  0  0  0  0  0  0  0  0
   19.8799   -8.2491  -16.5561 C   0  0  0  0  0  0  0  0  0  0  0  0
   20.5541   -9.6332  -16.7565 C   0  0  2  0  0  0  0  0  0  0  0  0
   19.6536  -10.6369  -16.2642 N   0  0  0  0  0  0  0  0  0  0  0  0
   21.8570   -9.5754  -16.0829 C   0  0  0  0  0  0  0  0  0  0  0  0
   21.8948   -9.7905  -14.8348 O   0  0  0  0  0  0  0  0  0  0  0  0
   27.7027  -10.3134  -17.0704 C   0  0  0  0  0  0  0  0  0  0  0  0
   26.6191  -10.2799  -16.0042 C   0  0  2  0  0  0  0  0  0  0  0  0
   26.8777  -11.5223  -15.1419 C   0  0  0  0  0  0  0  0  0  0  0  0
   25.2445  -10.3221  -16.6215 C   0  0  0  0  0  0  0  0  0  0  0  0
   24.3476   -9.2175  -16.1953 C   0  0  2  0  0  0  0  0  0  0  0  0
   23.0329   -9.2929  -16.7994 N   0  0  0  0  0  0  0  0  0  0  0  0
   24.9252   -7.8535  -16.3166 C   0  0  0  0  0  0  0  0  0  0  0  0
   24.4836   -6.8854  -17.1993 O   0  0  0  0  0  0  0  0  0  0  0  0
   25.9064   -7.4878  -15.5788 O   0  0  0  0  0  0  0  0  0  0  0  0
  2  1  1  6
  2  3  1  0
  3  4  1  0
  4  5  2  0
  6 12  1  0
  6  2  1  0
  7  6  2  0
  8  4  1  0
  9 10  1  0
 11 10  1  1
 11 12  1  0
 11 13  1  0
 13 20  1  0
 14 13  2  0
 16 18  1  0
 16 15  1  6
 17 16  1  0
 19 18  1  6
 19 21  1  0
 20 19  1  0
 21 22  1  0
 23 21  2  0
M  END
$$$$
