YLD.pdb
     RDKit          3D

 29 29  0  0  1  0  0  0  0  0999 V2000
   26.3747  -11.6039  -22.6453 O   0  0  0  0  0  0  0  0  0  0  0  0
   26.9790  -10.8620  -21.6537 C   0  0  0  0  0  0  0  0  0  0  0  0
   28.2060  -10.2656  -21.8485 C   0  0  0  0  0  0  0  0  0  0  0  0
   28.8194   -9.5236  -20.8689 C   0  0  0  0  0  0  0  0  0  0  0  0
   28.1813   -9.3686  -19.6390 C   0  0  0  0  0  0  0  0  0  0  0  0
   28.8340   -8.5686  -18.5708 C   0  0  0  0  0  0  0  0  0  0  0  0
   30.1990   -9.1347  -18.2964 C   0  0  2  0  0  0  0  0  0  0  0  0
   30.0478  -10.4681  -17.7724 N   0  0  0  0  0  0  0  0  0  0  0  0
   31.0128   -8.2712  -17.4092 C   0  0  0  0  0  0  0  0  0  0  0  0
   30.6168   -8.1274  -16.2250 O   0  0  0  0  0  0  0  0  0  0  0  0
   26.9448   -9.9560  -19.4096 C   0  0  0  0  0  0  0  0  0  0  0  0
   26.3663  -10.6931  -20.4240 C   0  0  0  0  0  0  0  0  0  0  0  0
   36.3747   -8.2826  -16.0774 C   0  0  0  0  0  0  0  0  0  0  0  0
   34.8769   -8.0511  -16.0731 C   0  0  1  0  0  0  0  0  0  0  0  0
   34.3696   -7.9800  -14.6777 C   0  0  0  0  0  0  0  0  0  0  0  0
   34.4478   -6.9853  -17.0107 C   0  0  0  0  0  0  0  0  0  0  0  0
   32.9605   -6.6982  -17.0281 C   0  0  2  0  0  0  0  0  0  0  0  0
   32.1895   -7.6110  -17.8116 N   0  0  0  0  0  0  0  0  0  0  0  0
   32.7833   -5.2837  -17.4234 C   0  0  0  0  0  0  0  0  0  0  0  0
   32.8682   -4.9171  -18.6463 O   0  0  0  0  0  0  0  0  0  0  0  0
   32.5102   -4.2359  -16.5030 N   0  0  0  0  0  0  0  0  0  0  0  0
   32.3016   -2.8656  -16.8799 C   0  0  1  0  0  0  0  0  0  0  0  0
   31.5693   -2.0638  -15.8291 C   0  0  0  0  0  0  0  0  0  0  0  0
   31.3468   -0.6671  -16.2282 C   0  0  0  0  0  0  0  0  0  0  0  0
   32.2200    0.2265  -16.2049 O   0  0  0  0  0  0  0  0  0  0  0  0
   33.6029   -2.2633  -17.2362 C   0  0  0  0  0  0  0  0  0  0  0  0
   34.7597   -2.4212  -16.4964 O   0  0  0  0  0  0  0  0  0  0  0  0
   30.0817   -0.3007  -16.6640 O   0  0  0  0  0  0  0  0  0  0  0  0
   33.6725   -1.5633  -18.2727 O   0  0  0  0  0  0  0  0  0  0  0  0
  2  3  2  0
  2  1  1  0
  4  3  1  0
  5  4  2  0
  6  5  1  0
  7  6  1  0
  7  8  1  1
  9  7  1  0
  9 10  2  0
 11  5  1  0
 11 12  2  0
 12  2  1  0
 14 13  1  1
 14 15  1  0
 16 14  1  0
 17 18  1  0
 17 16  1  6
 18  9  1  0
 19 17  1  0
 20 19  2  0
 21 19  1  0
 22 23  1  1
 22 21  1  0
 23 24  1  0
 24 25  2  0
 24 28  1  0
 26 27  1  0
 26 22  1  0
 29 26  2  0
M  END
$$$$
