YLD.pdb
     RDKit          3D

 29 29  0  0  1  0  0  0  0  0999 V2000
   19.9226  -24.4862   -8.7913 O   0  0  0  0  0  0  0  0  0  0  0  0
   20.3769  -23.4787   -9.6143 C   0  0  0  0  0  0  0  0  0  0  0  0
   20.5455  -23.6769  -10.9676 C   0  0  0  0  0  0  0  0  0  0  0  0
   20.9975  -22.6816  -11.7992 C   0  0  0  0  0  0  0  0  0  0  0  0
   21.2951  -21.4316  -11.2579 C   0  0  0  0  0  0  0  0  0  0  0  0
   21.7850  -20.3463  -12.1464 C   0  0  0  0  0  0  0  0  0  0  0  0
   23.2132  -20.6252  -12.5225 C   0  0  2  0  0  0  0  0  0  0  0  0
   24.0079  -20.6573  -11.3214 N   0  0  0  0  0  0  0  0  0  0  0  0
   23.7429  -19.6679  -13.5215 C   0  0  0  0  0  0  0  0  0  0  0  0
   23.8592  -18.4686  -13.1639 O   0  0  0  0  0  0  0  0  0  0  0  0
   21.1365  -21.1983   -9.8989 C   0  0  0  0  0  0  0  0  0  0  0  0
   20.6794  -22.2290   -9.1016 C   0  0  0  0  0  0  0  0  0  0  0  0
   28.1585  -20.2270  -16.7615 C   0  0  0  0  0  0  0  0  0  0  0  0
   27.0414  -19.5682  -15.9774 C   0  0  1  0  0  0  0  0  0  0  0  0
   27.4853  -18.2490  -15.4556 C   0  0  0  0  0  0  0  0  0  0  0  0
   25.7309  -19.6229  -16.6693 C   0  0  0  0  0  0  0  0  0  0  0  0
   24.5501  -19.1271  -15.8601 C   0  0  2  0  0  0  0  0  0  0  0  0
   24.1189  -20.0205  -14.8318 N   0  0  0  0  0  0  0  0  0  0  0  0
   23.4788  -18.7603  -16.8121 C   0  0  0  0  0  0  0  0  0  0  0  0
   22.6719  -19.6369  -17.2786 O   0  0  0  0  0  0  0  0  0  0  0  0
   23.2583  -17.4363  -17.2793 N   0  0  0  0  0  0  0  0  0  0  0  0
   22.1602  -17.0508  -18.1213 C   0  0  1  0  0  0  0  0  0  0  0  0
   21.7817  -15.5950  -17.9771 C   0  0  0  0  0  0  0  0  0  0  0  0
   20.6294  -15.2192  -18.8080 C   0  0  0  0  0  0  0  0  0  0  0  0
   20.6107  -15.2587  -20.0569 O   0  0  0  0  0  0  0  0  0  0  0  0
   22.4789  -17.4096  -19.5186 C   0  0  0  0  0  0  0  0  0  0  0  0
   21.5846  -18.0000  -20.3915 O   0  0  0  0  0  0  0  0  0  0  0  0
   19.4733  -14.7880  -18.1738 O   0  0  0  0  0  0  0  0  0  0  0  0
   23.6301  -17.1674  -19.9491 O   0  0  0  0  0  0  0  0  0  0  0  0
  2  3  2  0
  2  1  1  0
  4  3  1  0
  5  4  2  0
  6  5  1  0
  7  6  1  0
  7  8  1  1
  9  7  1  0
  9 10  2  0
 11  5  1  0
 11 12  2  0
 12  2  1  0
 14 13  1  6
 14 15  1  0
 16 14  1  0
 17 18  1  0
 17 16  1  6
 18  9  1  0
 19 17  1  0
 20 19  2  0
 21 19  1  0
 22 23  1  6
 22 21  1  0
 23 24  1  0
 24 25  2  0
 24 28  1  0
 26 27  1  0
 26 22  1  0
 29 26  2  0
M  END
$$$$
