YLD.pdb
     RDKit          3D

 29 29  0  0  1  0  0  0  0  0999 V2000
   18.3569  -15.0942  -16.0675 O   0  0  0  0  0  0  0  0  0  0  0  0
   18.5763  -13.7383  -16.1783 C   0  0  0  0  0  0  0  0  0  0  0  0
   19.7756  -13.2392  -16.6386 C   0  0  0  0  0  0  0  0  0  0  0  0
   20.0074  -11.8903  -16.7539 C   0  0  0  0  0  0  0  0  0  0  0  0
   18.9984  -10.9979  -16.3944 C   0  0  0  0  0  0  0  0  0  0  0  0
   19.2362   -9.5363  -16.5142 C   0  0  0  0  0  0  0  0  0  0  0  0
   18.4407   -9.0016  -17.6719 C   0  0  2  0  0  0  0  0  0  0  0  0
   18.9798   -9.5458  -18.8919 N   0  0  0  0  0  0  0  0  0  0  0  0
   18.3813   -7.5214  -17.6950 C   0  0  0  0  0  0  0  0  0  0  0  0
   19.2778   -6.9195  -18.3382 O   0  0  0  0  0  0  0  0  0  0  0  0
   17.7785  -11.4670  -15.9271 C   0  0  0  0  0  0  0  0  0  0  0  0
   17.5908  -12.8316  -15.8279 C   0  0  0  0  0  0  0  0  0  0  0  0
   15.9521   -2.7245  -17.5034 C   0  0  0  0  0  0  0  0  0  0  0  0
   16.0526   -3.3245  -16.1152 C   0  0  1  0  0  0  0  0  0  0  0  0
   15.0188   -2.7374  -15.2229 C   0  0  0  0  0  0  0  0  0  0  0  0
   16.1867   -4.8014  -16.1254 C   0  0  0  0  0  0  0  0  0  0  0  0
   17.3721   -5.3388  -16.9005 C   0  0  2  0  0  0  0  0  0  0  0  0
   17.3905   -6.7601  -17.0459 N   0  0  0  0  0  0  0  0  0  0  0  0
   18.5977   -4.7923  -16.2778 C   0  0  0  0  0  0  0  0  0  0  0  0
   18.7868   -3.5314  -16.1714 O   0  0  0  0  0  0  0  0  0  0  0  0
   19.6447   -5.5998  -15.7566 N   0  0  0  0  0  0  0  0  0  0  0  0
   20.7664   -5.0885  -15.0191 C   0  0  1  0  0  0  0  0  0  0  0  0
   20.9745   -5.7838  -13.6937 C   0  0  0  0  0  0  0  0  0  0  0  0
   22.1196   -5.2510  -12.9426 C   0  0  0  0  0  0  0  0  0  0  0  0
   22.5468   -4.0802  -13.0339 O   0  0  0  0  0  0  0  0  0  0  0  0
   21.9691   -5.1459  -15.8753 C   0  0  0  0  0  0  0  0  0  0  0  0
   21.9622   -5.5498  -17.1970 O   0  0  0  0  0  0  0  0  0  0  0  0
   22.7830   -6.0972  -12.0660 O   0  0  0  0  0  0  0  0  0  0  0  0
   23.0698   -4.8091  -15.3811 O   0  0  0  0  0  0  0  0  0  0  0  0
  2  3  2  0
  2  1  1  0
  4  3  1  0
  5  4  2  0
  6  5  1  0
  7  6  1  0
  7  8  1  6
  9  7  1  0
  9 10  2  0
 11  5  1  0
 11 12  2  0
 12  2  1  0
 14 13  1  6
 14 15  1  0
 16 14  1  0
 17 18  1  0
 17 16  1  1
 18  9  1  0
 19 17  1  0
 20 19  2  0
 21 19  1  0
 22 23  1  1
 22 21  1  0
 23 24  1  0
 24 25  2  0
 24 28  1  0
 26 27  1  0
 26 22  1  0
 29 26  2  0
M  END
$$$$
