YLD.pdb
     RDKit          3D

 29 29  0  0  1  0  0  0  0  0999 V2000
   28.2906  -15.9142  -18.0549 O   0  0  0  0  0  0  0  0  0  0  0  0
   27.6763  -16.7961  -17.1925 C   0  0  0  0  0  0  0  0  0  0  0  0
   26.9605  -17.8773  -17.6593 C   0  0  0  0  0  0  0  0  0  0  0  0
   26.3434  -18.7639  -16.8110 C   0  0  0  0  0  0  0  0  0  0  0  0
   26.4439  -18.5643  -15.4348 C   0  0  0  0  0  0  0  0  0  0  0  0
   25.7810  -19.5159  -14.5062 C   0  0  0  0  0  0  0  0  0  0  0  0
   26.8314  -20.2440  -13.7152 C   0  0  2  0  0  0  0  0  0  0  0  0
   27.6196  -21.0409  -14.6201 N   0  0  0  0  0  0  0  0  0  0  0  0
   26.2639  -21.0475  -12.6073 C   0  0  0  0  0  0  0  0  0  0  0  0
   25.9556  -22.2394  -12.8602 O   0  0  0  0  0  0  0  0  0  0  0  0
   27.1573  -17.4854  -14.9312 C   0  0  0  0  0  0  0  0  0  0  0  0
   27.7610  -16.6201  -15.8222 C   0  0  0  0  0  0  0  0  0  0  0  0
   26.9610  -19.3882   -7.3474 C   0  0  0  0  0  0  0  0  0  0  0  0
   26.8328  -20.1672   -8.6411 C   0  0  1  0  0  0  0  0  0  0  0  0
   27.9320  -21.1612   -8.7562 C   0  0  0  0  0  0  0  0  0  0  0  0
   25.4526  -20.6422   -8.9028 C   0  0  0  0  0  0  0  0  0  0  0  0
   25.1900  -21.1230  -10.3151 C   0  0  2  0  0  0  0  0  0  0  0  0
   26.0532  -20.5584  -11.3039 N   0  0  0  0  0  0  0  0  0  0  0  0
   23.7527  -20.9159  -10.5974 C   0  0  0  0  0  0  0  0  0  0  0  0
   22.8553  -21.1947   -9.7290 O   0  0  0  0  0  0  0  0  0  0  0  0
   23.2563  -20.4020  -11.8259 N   0  0  0  0  0  0  0  0  0  0  0  0
   21.8654  -20.1697  -12.0996 C   0  0  1  0  0  0  0  0  0  0  0  0
   21.6326  -19.0655  -13.1046 C   0  0  0  0  0  0  0  0  0  0  0  0
   20.2069  -18.8131  -13.3560 C   0  0  0  0  0  0  0  0  0  0  0  0
   19.2687  -19.3546  -12.7332 O   0  0  0  0  0  0  0  0  0  0  0  0
   21.2393  -21.4425  -12.5127 C   0  0  0  0  0  0  0  0  0  0  0  0
   21.9460  -22.5808  -12.8521 O   0  0  0  0  0  0  0  0  0  0  0  0
   19.8640  -17.9116  -14.3532 O   0  0  0  0  0  0  0  0  0  0  0  0
   19.9891  -21.5042  -12.5616 O   0  0  0  0  0  0  0  0  0  0  0  0
  2  3  2  0
  2  1  1  0
  4  3  1  0
  5  4  2  0
  6  5  1  0
  7  6  1  0
  7  8  1  6
  9  7  1  0
  9 10  2  0
 11  5  1  0
 11 12  2  0
 12  2  1  0
 14 13  1  1
 14 15  1  0
 16 14  1  0
 17 18  1  0
 17 16  1  1
 18  9  1  0
 19 17  1  0
 20 19  2  0
 21 19  1  0
 22 23  1  6
 22 21  1  0
 23 24  1  0
 24 25  2  0
 24 28  1  0
 26 27  1  0
 26 22  1  0
 29 26  2  0
M  END
$$$$
