YLD.pdb
     RDKit          3D

 29 29  0  0  1  0  0  0  0  0999 V2000
   28.9846  -15.5728  -19.2504 O   0  0  0  0  0  0  0  0  0  0  0  0
   28.2371  -16.4513  -18.4965 C   0  0  0  0  0  0  0  0  0  0  0  0
   28.2053  -16.3718  -17.1211 C   0  0  0  0  0  0  0  0  0  0  0  0
   27.4647  -17.2408  -16.3578 C   0  0  0  0  0  0  0  0  0  0  0  0
   26.7217  -18.2346  -16.9937 C   0  0  0  0  0  0  0  0  0  0  0  0
   25.9163  -19.1812  -16.1797 C   0  0  0  0  0  0  0  0  0  0  0  0
   26.8413  -20.1259  -15.4649 C   0  0  2  0  0  0  0  0  0  0  0  0
   27.4899  -20.9628  -16.4417 N   0  0  0  0  0  0  0  0  0  0  0  0
   26.1583  -20.9151  -14.4135 C   0  0  0  0  0  0  0  0  0  0  0  0
   25.2846  -21.7375  -14.7876 O   0  0  0  0  0  0  0  0  0  0  0  0
   26.7315  -18.3427  -18.3775 C   0  0  0  0  0  0  0  0  0  0  0  0
   27.4910  -17.4467  -19.1037 C   0  0  0  0  0  0  0  0  0  0  0  0
   24.7043  -22.2421   -9.3224 C   0  0  0  0  0  0  0  0  0  0  0  0
   25.0452  -20.7749   -9.4906 C   0  0  1  0  0  0  0  0  0  0  0  0
   25.3820  -20.1691   -8.1757 C   0  0  0  0  0  0  0  0  0  0  0  0
   25.9718  -20.5160  -10.6191 C   0  0  0  0  0  0  0  0  0  0  0  0
   25.5062  -21.0222  -11.9688 C   0  0  2  0  0  0  0  0  0  0  0  0
   26.4287  -20.7981  -13.0366 N   0  0  0  0  0  0  0  0  0  0  0  0
   24.1630  -20.4553  -12.2192 C   0  0  0  0  0  0  0  0  0  0  0  0
   23.9852  -19.1956  -12.3554 O   0  0  0  0  0  0  0  0  0  0  0  0
   22.9834  -21.2406  -12.3276 N   0  0  0  0  0  0  0  0  0  0  0  0
   21.7102  -20.7287  -12.7525 C   0  0  1  0  0  0  0  0  0  0  0  0
   21.4078  -21.0153  -14.2050 C   0  0  0  0  0  0  0  0  0  0  0  0
   20.0772  -20.5455  -14.6151 C   0  0  0  0  0  0  0  0  0  0  0  0
   19.3082  -19.8726  -13.8959 O   0  0  0  0  0  0  0  0  0  0  0  0
   20.6606  -21.2460  -11.8505 C   0  0  0  0  0  0  0  0  0  0  0  0
   19.3851  -20.7208  -11.7624 O   0  0  0  0  0  0  0  0  0  0  0  0
   19.6303  -20.8647  -15.8891 O   0  0  0  0  0  0  0  0  0  0  0  0
   20.9341  -22.2222  -11.1149 O   0  0  0  0  0  0  0  0  0  0  0  0
  2  3  2  0
  2  1  1  0
  4  3  1  0
  5  4  2  0
  6  5  1  0
  7  6  1  0
  7  8  1  6
  9  7  1  0
  9 10  2  0
 11  5  1  0
 11 12  2  0
 12  2  1  0
 14 13  1  1
 14 15  1  0
 16 14  1  0
 17 18  1  0
 17 16  1  1
 18  9  1  0
 19 17  1  0
 20 19  2  0
 21 19  1  0
 22 23  1  6
 22 21  1  0
 23 24  1  0
 24 25  2  0
 24 28  1  0
 26 27  1  0
 26 22  1  0
 29 26  2  0
M  END
$$$$
