YLD.pdb
     RDKit          3D

 29 29  0  0  1  0  0  0  0  0999 V2000
   37.9107   -1.9143   -0.0100 O   0  0  0  0  0  0  0  0  0  0  0  0
   38.2505   -2.5672   -1.1748 C   0  0  0  0  0  0  0  0  0  0  0  0
   38.3239   -1.8995   -2.3782 C   0  0  0  0  0  0  0  0  0  0  0  0
   38.6614   -2.5380   -3.5465 C   0  0  0  0  0  0  0  0  0  0  0  0
   38.9385   -3.9040   -3.5146 C   0  0  0  0  0  0  0  0  0  0  0  0
   39.3047   -4.6068   -4.7713 C   0  0  0  0  0  0  0  0  0  0  0  0
   40.6503   -5.2539   -4.5990 C   0  0  2  0  0  0  0  0  0  0  0  0
   41.6036   -4.2415   -4.2231 N   0  0  0  0  0  0  0  0  0  0  0  0
   41.0807   -6.0146   -5.7953 C   0  0  0  0  0  0  0  0  0  0  0  0
   41.7350   -5.3913   -6.6688 O   0  0  0  0  0  0  0  0  0  0  0  0
   38.8738   -4.6068   -2.3194 C   0  0  0  0  0  0  0  0  0  0  0  0
   38.5302   -3.9229   -1.1699 C   0  0  0  0  0  0  0  0  0  0  0  0
   42.4053  -11.4397   -5.7184 C   0  0  0  0  0  0  0  0  0  0  0  0
   42.3840   -9.9692   -6.0844 C   0  0  1  0  0  0  0  0  0  0  0  0
   43.7452   -9.5135   -6.4707 C   0  0  0  0  0  0  0  0  0  0  0  0
   41.2620   -9.6071   -6.9840 C   0  0  0  0  0  0  0  0  0  0  0  0
   41.0584   -8.1217   -7.2000 C   0  0  2  0  0  0  0  0  0  0  0  0
   40.8023   -7.3785   -6.0068 N   0  0  0  0  0  0  0  0  0  0  0  0
   40.0121   -7.9599   -8.2332 C   0  0  0  0  0  0  0  0  0  0  0  0
   38.7688   -7.9715   -7.9313 O   0  0  0  0  0  0  0  0  0  0  0  0
   40.2897   -7.7821   -9.6156 N   0  0  0  0  0  0  0  0  0  0  0  0
   39.2880   -7.5263  -10.6129 C   0  0  1  0  0  0  0  0  0  0  0  0
   38.5944   -6.1959  -10.4327 C   0  0  0  0  0  0  0  0  0  0  0  0
   37.6275   -5.9063  -11.5008 C   0  0  0  0  0  0  0  0  0  0  0  0
   36.9149   -6.7633  -12.0658 O   0  0  0  0  0  0  0  0  0  0  0  0
   39.8989   -7.6612  -11.9513 C   0  0  0  0  0  0  0  0  0  0  0  0
   39.2030   -7.5327  -13.1386 O   0  0  0  0  0  0  0  0  0  0  0  0
   37.4856   -4.5920  -11.9216 O   0  0  0  0  0  0  0  0  0  0  0  0
   41.1248   -7.9077  -12.0255 O   0  0  0  0  0  0  0  0  0  0  0  0
  2  3  2  0
  2  1  1  0
  4  3  1  0
  5  4  2  0
  6  5  1  0
  7  6  1  0
  7  8  1  6
  9  7  1  0
  9 10  2  0
 11  5  1  0
 11 12  2  0
 12  2  1  0
 14 13  1  6
 14 15  1  0
 16 14  1  0
 17 18  1  0
 17 16  1  1
 18  9  1  0
 19 17  1  0
 20 19  2  0
 21 19  1  0
 22 23  1  1
 22 21  1  0
 23 24  1  0
 24 25  2  0
 24 28  1  0
 26 27  1  0
 26 22  1  0
 29 26  2  0
M  END
$$$$
