YLD.pdb
     RDKit          3D

 29 29  0  0  1  0  0  0  0  0999 V2000
   17.9971  -23.8581   -9.7384 O   0  0  0  0  0  0  0  0  0  0  0  0
   18.8935  -22.9630  -10.2806 C   0  0  0  0  0  0  0  0  0  0  0  0
   18.6487  -22.3411  -11.4858 C   0  0  0  0  0  0  0  0  0  0  0  0
   19.5335  -21.4469  -12.0374 C   0  0  0  0  0  0  0  0  0  0  0  0
   20.7161  -21.1592  -11.3573 C   0  0  0  0  0  0  0  0  0  0  0  0
   21.6817  -20.1939  -11.9430 C   0  0  0  0  0  0  0  0  0  0  0  0
   22.1203  -20.6932  -13.2911 C   0  0  2  0  0  0  0  0  0  0  0  0
   22.5825  -22.0505  -13.1515 N   0  0  0  0  0  0  0  0  0  0  0  0
   23.1316  -19.8179  -13.9282 C   0  0  0  0  0  0  0  0  0  0  0  0
   22.9709  -18.5764  -13.8157 O   0  0  0  0  0  0  0  0  0  0  0  0
   20.9937  -21.7680  -10.1412 C   0  0  0  0  0  0  0  0  0  0  0  0
   20.0746  -22.6603   -9.6253 C   0  0  0  0  0  0  0  0  0  0  0  0
   28.4875  -21.2459  -14.3342 C   0  0  0  0  0  0  0  0  0  0  0  0
   27.2145  -20.4384  -14.1779 C   0  0  1  0  0  0  0  0  0  0  0  0
   27.4210  -19.3318  -13.2072 C   0  0  0  0  0  0  0  0  0  0  0  0
   26.5742  -20.1007  -15.4722 C   0  0  0  0  0  0  0  0  0  0  0  0
   25.1879  -19.4983  -15.3714 C   0  0  2  0  0  0  0  0  0  0  0  0
   24.2484  -20.2912  -14.6433 N   0  0  0  0  0  0  0  0  0  0  0  0
   24.7442  -19.1668  -16.7431 C   0  0  0  0  0  0  0  0  0  0  0  0
   23.9881  -19.9556  -17.4087 O   0  0  0  0  0  0  0  0  0  0  0  0
   25.1098  -17.9738  -17.4234 N   0  0  0  0  0  0  0  0  0  0  0  0
   24.2138  -17.2059  -18.2427 C   0  0  1  0  0  0  0  0  0  0  0  0
   22.9676  -16.7649  -17.5106 C   0  0  0  0  0  0  0  0  0  0  0  0
   22.0734  -15.9498  -18.3446 C   0  0  0  0  0  0  0  0  0  0  0  0
   21.4456  -16.3739  -19.3383 O   0  0  0  0  0  0  0  0  0  0  0  0
   24.9534  -16.0664  -18.8236 C   0  0  0  0  0  0  0  0  0  0  0  0
   24.6780  -15.5112  -20.0590 O   0  0  0  0  0  0  0  0  0  0  0  0
   21.9049  -14.6124  -18.0165 O   0  0  0  0  0  0  0  0  0  0  0  0
   25.8915  -15.5645  -18.1623 O   0  0  0  0  0  0  0  0  0  0  0  0
  2  3  2  0
  2  1  1  0
  4  3  1  0
  5  4  2  0
  6  5  1  0
  7  6  1  0
  7  8  1  1
  9  7  1  0
  9 10  2  0
 11  5  1  0
 11 12  2  0
 12  2  1  0
 14 13  1  6
 14 15  1  0
 16 14  1  0
 17 18  1  0
 17 16  1  6
 18  9  1  0
 19 17  1  0
 20 19  2  0
 21 19  1  0
 22 23  1  1
 22 21  1  0
 23 24  1  0
 24 25  2  0
 24 28  1  0
 26 27  1  0
 26 22  1  0
 29 26  2  0
M  END
$$$$
