YLD.pdb
     RDKit          3D

 29 29  0  0  1  0  0  0  0  0999 V2000
   28.3050  -18.2001  -19.4965 O   0  0  0  0  0  0  0  0  0  0  0  0
   28.2454  -18.8564  -18.2864 C   0  0  0  0  0  0  0  0  0  0  0  0
   27.1704  -19.6511  -17.9516 C   0  0  0  0  0  0  0  0  0  0  0  0
   27.0982  -20.3108  -16.7490 C   0  0  0  0  0  0  0  0  0  0  0  0
   28.1448  -20.1724  -15.8383 C   0  0  0  0  0  0  0  0  0  0  0  0
   28.0792  -20.8805  -14.5339 C   0  0  0  0  0  0  0  0  0  0  0  0
   26.8508  -20.4331  -13.7923 C   0  0  2  0  0  0  0  0  0  0  0  0
   26.8930  -18.9999  -13.6536 N   0  0  0  0  0  0  0  0  0  0  0  0
   26.6827  -21.1191  -12.4900 C   0  0  0  0  0  0  0  0  0  0  0  0
   26.8004  -22.3703  -12.4793 O   0  0  0  0  0  0  0  0  0  0  0  0
   29.2425  -19.3797  -16.1438 C   0  0  0  0  0  0  0  0  0  0  0  0
   29.2713  -18.7355  -17.3650 C   0  0  0  0  0  0  0  0  0  0  0  0
   27.0263  -19.3722   -7.2242 C   0  0  0  0  0  0  0  0  0  0  0  0
   26.8854  -20.0719   -8.5612 C   0  0  1  0  0  0  0  0  0  0  0  0
   27.7511  -21.2794   -8.6057 C   0  0  0  0  0  0  0  0  0  0  0  0
   25.4755  -20.2263   -8.9942 C   0  0  0  0  0  0  0  0  0  0  0  0
   25.2840  -20.6950  -10.4219 C   0  0  2  0  0  0  0  0  0  0  0  0
   26.4023  -20.4578  -11.2790 N   0  0  0  0  0  0  0  0  0  0  0  0
   24.0219  -20.1054  -10.9200 C   0  0  0  0  0  0  0  0  0  0  0  0
   24.0048  -18.9768  -11.5225 O   0  0  0  0  0  0  0  0  0  0  0  0
   22.7513  -20.7256  -10.7764 N   0  0  0  0  0  0  0  0  0  0  0  0
   21.7042  -20.6551  -11.7573 C   0  0  1  0  0  0  0  0  0  0  0  0
   22.0617  -21.3331  -13.0596 C   0  0  0  0  0  0  0  0  0  0  0  0
   20.9860  -21.2560  -14.0579 C   0  0  0  0  0  0  0  0  0  0  0  0
   19.8770  -20.7126  -13.8673 O   0  0  0  0  0  0  0  0  0  0  0  0
   20.4603  -21.1939  -11.1698 C   0  0  0  0  0  0  0  0  0  0  0  0
   19.2141  -21.0861  -11.7579 O   0  0  0  0  0  0  0  0  0  0  0  0
   21.2038  -21.8230  -15.3052 O   0  0  0  0  0  0  0  0  0  0  0  0
   20.5287  -21.7878  -10.0691 O   0  0  0  0  0  0  0  0  0  0  0  0
  2  3  2  0
  2  1  1  0
  4  3  1  0
  5  4  2  0
  6  5  1  0
  7  6  1  0
  7  8  1  1
  9  7  1  0
  9 10  2  0
 11  5  1  0
 11 12  2  0
 12  2  1  0
 14 13  1  1
 14 15  1  0
 16 14  1  0
 17 18  1  0
 17 16  1  1
 18  9  1  0
 19 17  1  0
 20 19  2  0
 21 19  1  0
 22 23  1  6
 22 21  1  0
 23 24  1  0
 24 25  2  0
 24 28  1  0
 26 27  1  0
 26 22  1  0
 29 26  2  0
M  END
$$$$
