YLD.pdb
     RDKit          3D

 29 29  0  0  1  0  0  0  0  0999 V2000
   19.5802   -9.8943  -24.7763 O   0  0  0  0  0  0  0  0  0  0  0  0
   19.5025   -9.6244  -23.4273 C   0  0  0  0  0  0  0  0  0  0  0  0
   18.3020   -9.6732  -22.7523 C   0  0  0  0  0  0  0  0  0  0  0  0
   18.2103   -9.4065  -21.4080 C   0  0  0  0  0  0  0  0  0  0  0  0
   19.3675   -9.0761  -20.7040 C   0  0  0  0  0  0  0  0  0  0  0  0
   19.2823   -8.7852  -19.2496 C   0  0  0  0  0  0  0  0  0  0  0  0
   19.7577   -9.9849  -18.4791 C   0  0  2  0  0  0  0  0  0  0  0  0
   18.8205  -11.0609  -18.6776 N   0  0  0  0  0  0  0  0  0  0  0  0
   19.9844   -9.6948  -17.0441 C   0  0  0  0  0  0  0  0  0  0  0  0
   18.9695   -9.6014  -16.3086 O   0  0  0  0  0  0  0  0  0  0  0  0
   20.5929   -9.0179  -21.3533 C   0  0  0  0  0  0  0  0  0  0  0  0
   20.6366   -9.2939  -22.7057 C   0  0  0  0  0  0  0  0  0  0  0  0
   22.7500  -11.8558  -15.5288 C   0  0  0  0  0  0  0  0  0  0  0  0
   23.2344  -10.9529  -14.4121 C   0  0  1  0  0  0  0  0  0  0  0  0
   24.6225  -11.3141  -14.0216 C   0  0  0  0  0  0  0  0  0  0  0  0
   22.9442   -9.5187  -14.6529 C   0  0  0  0  0  0  0  0  0  0  0  0
   21.5292   -9.2098  -15.0968 C   0  0  2  0  0  0  0  0  0  0  0  0
   21.2557   -9.5201  -16.4645 N   0  0  0  0  0  0  0  0  0  0  0  0
   21.2474   -7.8015  -14.7424 C   0  0  0  0  0  0  0  0  0  0  0  0
   21.4823   -7.3490  -13.5689 O   0  0  0  0  0  0  0  0  0  0  0  0
   20.7053   -6.8529  -15.6513 N   0  0  0  0  0  0  0  0  0  0  0  0
   20.4633   -5.4742  -15.3288 C   0  0  1  0  0  0  0  0  0  0  0  0
   21.7092   -4.7359  -14.8977 C   0  0  0  0  0  0  0  0  0  0  0  0
   21.4912   -3.2913  -14.7390 C   0  0  0  0  0  0  0  0  0  0  0  0
   20.4062   -2.7088  -14.9506 O   0  0  0  0  0  0  0  0  0  0  0  0
   19.7969   -4.8237  -16.4758 C   0  0  0  0  0  0  0  0  0  0  0  0
   18.8520   -3.8218  -16.3583 O   0  0  0  0  0  0  0  0  0  0  0  0
   22.5577   -2.5063  -14.3252 O   0  0  0  0  0  0  0  0  0  0  0  0
   20.1006   -5.1968  -17.6324 O   0  0  0  0  0  0  0  0  0  0  0  0
  2  3  2  0
  2  1  1  0
  4  3  1  0
  5  4  2  0
  6  5  1  0
  7  6  1  0
  7  8  1  1
  9  7  1  0
  9 10  2  0
 11  5  1  0
 11 12  2  0
 12  2  1  0
 14 13  1  6
 14 15  1  0
 16 14  1  0
 17 18  1  0
 17 16  1  6
 18  9  1  0
 19 17  1  0
 20 19  2  0
 21 19  1  0
 22 23  1  6
 22 21  1  0
 23 24  1  0
 24 25  2  0
 24 28  1  0
 26 27  1  0
 26 22  1  0
 29 26  2  0
M  END
$$$$
