RPW.pdb
     RDKit          3D

 33 35  0  0  1  0  0  0  0  0999 V2000
   22.7145  -18.3578  -20.4756 N   0  0  0  0  0  0  0  0  0  0  0  0
   21.6683  -19.2505  -20.1534 C   0  0  0  0  0  0  0  0  0  0  0  0
   21.0506  -19.7976  -21.1495 N   0  0  0  0  0  0  0  0  0  0  0  0
   21.3172  -19.5301  -18.8085 N   0  0  0  0  0  0  0  0  0  0  0  0
   22.1955  -20.4715  -18.0713 C   0  0  0  0  0  0  0  0  0  0  0  0
   22.9297  -19.6776  -17.0574 C   0  0  0  0  0  0  0  0  0  0  0  0
   23.7569  -20.3780  -16.0574 C   0  0  0  0  0  0  0  0  0  0  0  0
   25.1118  -20.7775  -16.5827 C   0  0  2  0  0  0  0  0  0  0  0  0
   24.9135  -21.9358  -17.4279 N   0  0  0  0  0  0  0  0  0  0  0  0
   26.0032  -21.1097  -15.4403 C   0  0  0  0  0  0  0  0  0  0  0  0
   26.1402  -22.3646  -15.2119 O   0  0  0  0  0  0  0  0  0  0  0  0
   20.2109  -20.3915  -21.0656 N   0  0  0  0  0  0  0  0  0  0  0  0
   26.6814  -20.1951  -14.6246 C   0  0  0  0  0  0  0  0  0  0  0  0
   26.6433  -18.7688  -14.7617 C   0  0  0  0  0  0  0  0  0  0  0  0
   27.9819  -18.3133  -14.2269 C   0  0  0  0  0  0  0  0  0  0  0  0
   28.7224  -19.5686  -13.8205 C   0  0  1  0  0  0  0  0  0  0  0  0
   27.5366  -20.4867  -13.5203 C   0  0  0  0  0  0  0  0  0  0  0  0
   26.8373  -20.0798  -12.2719 O   0  0  0  0  0  0  0  0  0  0  0  0
   26.0490  -19.0979  -12.2555 N   0  0  0  0  0  0  0  0  0  0  0  0
   26.9956  -20.7447  -11.0304 C   0  0  2  0  0  0  0  0  0  0  0  0
   25.8633  -21.2557  -10.2452 C   0  0  0  0  0  0  0  0  0  0  0  0
   26.3215  -21.8836   -8.9910 C   0  0  0  0  0  0  0  0  0  0  0  0
   26.7346  -20.9145   -7.9787 C   0  0  0  0  0  0  0  0  0  0  0  0
   25.8811  -19.9708   -7.3887 N   0  0  0  0  0  0  0  0  0  0  0  0
   26.5808  -19.2103   -6.5416 C   0  0  0  0  0  0  0  0  0  0  0  0
   27.8517  -19.6174   -6.5527 C   0  0  0  0  0  0  0  0  0  0  0  0
   28.9569  -19.1987   -5.8645 C   0  0  0  0  0  0  0  0  0  0  0  0
   30.2146  -19.7792   -5.9980 C   0  0  0  0  0  0  0  0  0  0  0  0
   30.2880  -20.8327   -6.8903 C   0  0  0  0  0  0  0  0  0  0  0  0
   29.1981  -21.2753   -7.5962 C   0  0  0  0  0  0  0  0  0  0  0  0
   27.9707  -20.6770   -7.4395 C   0  0  0  0  0  0  0  0  0  0  0  0
   24.9291  -20.1542  -10.0455 O   0  0  0  0  0  0  0  0  0  0  0  0
   23.7199  -20.2852   -9.7167 O   0  0  0  0  0  0  0  0  0  0  0  0
  2  1  1  0
  2  4  1  0
  3  2  2  0
  4  5  1  0
  6  5  1  0
  7  6  1  0
  7  8  1  0
  8  9  1  6
 10  8  1  0
 11 10  2  0
 12 16  1  0
 12 10  1  0
 13 12  1  0
 13 14  1  0
 14 15  1  0
 16 15  1  0
 16 17  1  1
 18 17  2  0
 19 17  1  0
 20 21  1  6
 20 19  1  0
 21 22  1  0
 22 30  1  0
 22 23  2  0
 23 24  1  0
 25 26  2  0
 25 24  1  0
 27 26  1  0
 28 27  2  0
 29 28  1  0
 29 30  2  0
 30 25  1  0
 31 20  1  0
 31 33  1  0
 32 31  2  0
M  END
$$$$
