RPW.pdb
     RDKit          3D

 33 35  0  0  1  0  0  0  0  0999 V2000
   26.0607  -22.5883  -11.9011 N   0  0  0  0  0  0  0  0  0  0  0  0
   25.7923  -21.2129  -11.7234 C   0  0  0  0  0  0  0  0  0  0  0  0
   24.5751  -20.8981  -11.4194 N   0  0  0  0  0  0  0  0  0  0  0  0
   26.8059  -20.2326  -11.8705 N   0  0  0  0  0  0  0  0  0  0  0  0
   27.8112  -20.4666  -12.9361 C   0  0  0  0  0  0  0  0  0  0  0  0
   27.4254  -19.6214  -14.0910 C   0  0  0  0  0  0  0  0  0  0  0  0
   28.1114  -19.8125  -15.3824 C   0  0  0  0  0  0  0  0  0  0  0  0
   27.9424  -21.2006  -15.9445 C   0  0  2  0  0  0  0  0  0  0  0  0
   28.8368  -21.3104  -17.0773 N   0  0  0  0  0  0  0  0  0  0  0  0
   26.5311  -21.3892  -16.3719 C   0  0  0  0  0  0  0  0  0  0  0  0
   26.2046  -20.7619  -17.4421 O   0  0  0  0  0  0  0  0  0  0  0  0
   24.2486  -19.9399  -11.2190 N   0  0  0  0  0  0  0  0  0  0  0  0
   25.5658  -22.1699  -15.7234 C   0  0  0  0  0  0  0  0  0  0  0  0
   25.7726  -22.9206  -14.5200 C   0  0  0  0  0  0  0  0  0  0  0  0
   24.8035  -24.0750  -14.6371 C   0  0  0  0  0  0  0  0  0  0  0  0
   24.0956  -23.8979  -15.9625 C   0  0  2  0  0  0  0  0  0  0  0  0
   24.2118  -22.3812  -16.1211 C   0  0  0  0  0  0  0  0  0  0  0  0
   23.3292  -21.6657  -15.1608 O   0  0  0  0  0  0  0  0  0  0  0  0
   23.5731  -21.6655  -13.9253 N   0  0  0  0  0  0  0  0  0  0  0  0
   22.1715  -20.9444  -15.5454 C   0  0  1  0  0  0  0  0  0  0  0  0
   21.3818  -20.1368  -14.6053 C   0  0  0  0  0  0  0  0  0  0  0  0
   22.2222  -19.1330  -13.9246 C   0  0  0  0  0  0  0  0  0  0  0  0
   22.9771  -18.2907  -14.8494 C   0  0  0  0  0  0  0  0  0  0  0  0
   22.4589  -17.7539  -16.0369 N   0  0  0  0  0  0  0  0  0  0  0  0
   23.4185  -17.0730  -16.6703 C   0  0  0  0  0  0  0  0  0  0  0  0
   24.5383  -17.1416  -15.9476 C   0  0  0  0  0  0  0  0  0  0  0  0
   25.7847  -16.6094  -16.1312 C   0  0  0  0  0  0  0  0  0  0  0  0
   26.8346  -16.7758  -15.2331 C   0  0  0  0  0  0  0  0  0  0  0  0
   26.5405  -17.5306  -14.1128 C   0  0  0  0  0  0  0  0  0  0  0  0
   25.3009  -18.0785  -13.9004 C   0  0  0  0  0  0  0  0  0  0  0  0
   24.2871  -17.8941  -14.8101 C   0  0  0  0  0  0  0  0  0  0  0  0
   20.2624  -19.5646  -15.3438 O   0  0  0  0  0  0  0  0  0  0  0  0
   19.3222  -18.9024  -14.8289 O   0  0  0  0  0  0  0  0  0  0  0  0
  2  1  1  0
  2  4  1  0
  3  2  2  0
  4  5  1  0
  6  5  1  0
  7  6  1  0
  7  8  1  0
  8  9  1  6
 10  8  1  0
 11 10  2  0
 12 16  1  0
 12 10  1  0
 13 12  1  0
 13 14  1  0
 14 15  1  0
 16 15  1  0
 16 17  1  1
 18 17  2  0
 19 17  1  0
 20 21  1  1
 20 19  1  0
 21 22  1  0
 22 30  1  0
 22 23  2  0
 23 24  1  0
 25 26  2  0
 25 24  1  0
 27 26  1  0
 28 27  2  0
 29 28  1  0
 29 30  2  0
 30 25  1  0
 31 20  1  0
 31 33  1  0
 32 31  2  0
M  END
$$$$
