RPW.pdb
     RDKit          3D

 33 35  0  0  1  0  0  0  0  0999 V2000
   22.8135  -17.2393  -15.6034 N   0  0  0  0  0  0  0  0  0  0  0  0
   23.0590  -17.3832  -16.9871 C   0  0  0  0  0  0  0  0  0  0  0  0
   22.9852  -16.3066  -17.7003 N   0  0  0  0  0  0  0  0  0  0  0  0
   23.3701  -18.6423  -17.5599 N   0  0  0  0  0  0  0  0  0  0  0  0
   23.6109  -19.7629  -16.6179 C   0  0  0  0  0  0  0  0  0  0  0  0
   23.9660  -20.9482  -17.4342 C   0  0  0  0  0  0  0  0  0  0  0  0
   24.8966  -21.9493  -16.8806 C   0  0  0  0  0  0  0  0  0  0  0  0
   26.3450  -21.5637  -17.0372 C   0  0  2  0  0  0  0  0  0  0  0  0
   26.9552  -22.5520  -17.9012 N   0  0  0  0  0  0  0  0  0  0  0  0
   26.9996  -21.5602  -15.7025 C   0  0  0  0  0  0  0  0  0  0  0  0
   27.4564  -22.6976  -15.3240 O   0  0  0  0  0  0  0  0  0  0  0  0
   23.1305  -16.2671  -18.7212 N   0  0  0  0  0  0  0  0  0  0  0  0
   27.1527  -20.4540  -14.8571 C   0  0  0  0  0  0  0  0  0  0  0  0
   26.6578  -19.1337  -15.1149 C   0  0  0  0  0  0  0  0  0  0  0  0
   27.6295  -18.2300  -14.3906 C   0  0  0  0  0  0  0  0  0  0  0  0
   28.6596  -19.1400  -13.7582 C   0  0  1  0  0  0  0  0  0  0  0  0
   27.8239  -20.4109  -13.5987 C   0  0  0  0  0  0  0  0  0  0  0  0
   26.7992  -20.2565  -12.5314 O   0  0  0  0  0  0  0  0  0  0  0  0
   25.6998  -19.6863  -12.7594 N   0  0  0  0  0  0  0  0  0  0  0  0
   26.9700  -20.7250  -11.2048 C   0  0  2  0  0  0  0  0  0  0  0  0
   25.8680  -21.2701  -10.3997 C   0  0  0  0  0  0  0  0  0  0  0  0
   26.3523  -21.7720   -9.0994 C   0  0  0  0  0  0  0  0  0  0  0  0
   26.7826  -20.7084   -8.1950 C   0  0  0  0  0  0  0  0  0  0  0  0
   26.0004  -19.5974   -7.8477 N   0  0  0  0  0  0  0  0  0  0  0  0
   26.7038  -18.7953   -7.0430 C   0  0  0  0  0  0  0  0  0  0  0  0
   27.9089  -19.3351   -6.8499 C   0  0  0  0  0  0  0  0  0  0  0  0
   28.9856  -18.9375   -6.1061 C   0  0  0  0  0  0  0  0  0  0  0  0
   30.1680  -19.6651   -6.0101 C   0  0  0  0  0  0  0  0  0  0  0  0
   30.1958  -20.8459   -6.7286 C   0  0  0  0  0  0  0  0  0  0  0  0
   29.1330  -21.2714   -7.4846 C   0  0  0  0  0  0  0  0  0  0  0  0
   27.9804  -20.5260   -7.5569 C   0  0  0  0  0  0  0  0  0  0  0  0
   24.8463  -20.2358  -10.2883 O   0  0  0  0  0  0  0  0  0  0  0  0
   23.6815  -20.4180   -9.8438 O   0  0  0  0  0  0  0  0  0  0  0  0
  2  1  1  0
  2  4  1  0
  3  2  2  0
  4  5  1  0
  6  5  1  0
  7  6  1  0
  7  8  1  0
  8  9  1  6
 10  8  1  0
 11 10  2  0
 12 16  1  0
 12 10  1  0
 13 12  1  0
 13 14  1  0
 14 15  1  0
 16 15  1  0
 16 17  1  1
 18 17  2  0
 19 17  1  0
 20 21  1  6
 20 19  1  0
 21 22  1  0
 22 30  1  0
 22 23  2  0
 23 24  1  0
 25 26  2  0
 25 24  1  0
 27 26  1  0
 28 27  2  0
 29 28  1  0
 29 30  2  0
 30 25  1  0
 31 20  1  0
 31 33  1  0
 32 31  2  0
M  END
$$$$
