RPW.pdb
     RDKit          3D

 33 35  0  0  1  0  0  0  0  0999 V2000
   22.2047  -18.4939  -13.6343 N   0  0  0  0  0  0  0  0  0  0  0  0
   21.3561  -18.6948  -14.7456 C   0  0  0  0  0  0  0  0  0  0  0  0
   20.4715  -17.7777  -14.9681 N   0  0  0  0  0  0  0  0  0  0  0  0
   21.4713  -19.8415  -15.5713 N   0  0  0  0  0  0  0  0  0  0  0  0
   22.6457  -20.7173  -15.3372 C   0  0  0  0  0  0  0  0  0  0  0  0
   23.6829  -20.3260  -16.3212 C   0  0  0  0  0  0  0  0  0  0  0  0
   25.0087  -19.8993  -15.8366 C   0  0  0  0  0  0  0  0  0  0  0  0
   26.0824  -20.9335  -16.0573 C   0  0  2  0  0  0  0  0  0  0  0  0
   25.4716  -22.0313  -16.7765 N   0  0  0  0  0  0  0  0  0  0  0  0
   26.5997  -21.3933  -14.7417 C   0  0  0  0  0  0  0  0  0  0  0  0
   26.4373  -22.6440  -14.5069 O   0  0  0  0  0  0  0  0  0  0  0  0
   19.7776  -17.8035  -15.7315 N   0  0  0  0  0  0  0  0  0  0  0  0
   27.2283  -20.5989  -13.7744 C   0  0  0  0  0  0  0  0  0  0  0  0
   27.4369  -19.1838  -13.8658 C   0  0  0  0  0  0  0  0  0  0  0  0
   28.6915  -18.9451  -13.0569 C   0  0  0  0  0  0  0  0  0  0  0  0
   29.1331  -20.3022  -12.5544 C   0  0  1  0  0  0  0  0  0  0  0  0
   27.7852  -21.0246  -12.5315 C   0  0  0  0  0  0  0  0  0  0  0  0
   26.9160  -20.5177  -11.4358 O   0  0  0  0  0  0  0  0  0  0  0  0
   26.1770  -19.5115  -11.6012 N   0  0  0  0  0  0  0  0  0  0  0  0
   26.8490  -21.1082  -10.1493 C   0  0  2  0  0  0  0  0  0  0  0  0
   25.5993  -21.2228   -9.3846 C   0  0  0  0  0  0  0  0  0  0  0  0
   25.8675  -21.4427   -7.9503 C   0  0  0  0  0  0  0  0  0  0  0  0
   26.6046  -20.3460   -7.3271 C   0  0  0  0  0  0  0  0  0  0  0  0
   26.4808  -18.9978   -7.6932 N   0  0  0  0  0  0  0  0  0  0  0  0
   27.3238  -18.2619   -6.9627 C   0  0  0  0  0  0  0  0  0  0  0  0
   27.9903  -19.0707   -6.1365 C   0  0  0  0  0  0  0  0  0  0  0  0
   28.9380  -18.8295   -5.1803 C   0  0  0  0  0  0  0  0  0  0  0  0
   29.5055  -19.8233   -4.3886 C   0  0  0  0  0  0  0  0  0  0  0  0
   29.0459  -21.1050   -4.6285 C   0  0  0  0  0  0  0  0  0  0  0  0
   28.0972  -21.3794   -5.5807 C   0  0  0  0  0  0  0  0  0  0  0  0
   27.5589  -20.3721   -6.3454 C   0  0  0  0  0  0  0  0  0  0  0  0
   24.8008  -20.0342   -9.6590 O   0  0  0  0  0  0  0  0  0  0  0  0
   25.2349  -18.9838  -10.2027 O   0  0  0  0  0  0  0  0  0  0  0  0
  2  1  1  0
  2  4  1  0
  3  2  2  0
  4  5  1  0
  6  5  1  0
  7  6  1  0
  7  8  1  0
  8  9  1  1
 10  8  1  0
 11 10  2  0
 12 16  1  0
 12 10  1  0
 13 12  1  0
 13 14  1  0
 14 15  1  0
 16 15  1  0
 16 17  1  1
 18 17  2  0
 19 17  1  0
 20 21  1  6
 20 19  1  0
 21 22  1  0
 22 30  1  0
 22 23  2  0
 23 24  1  0
 25 26  2  0
 25 24  1  0
 27 26  1  0
 28 27  2  0
 29 28  1  0
 29 30  2  0
 30 25  1  0
 31 20  1  0
 31 33  1  0
 32 31  2  0
M  END
$$$$
