RPW.pdb
     RDKit          3D

 33 35  0  0  1  0  0  0  0  0999 V2000
   23.6452  -22.5287  -20.8940 N   0  0  0  0  0  0  0  0  0  0  0  0
   23.3310  -22.7517  -19.5349 C   0  0  0  0  0  0  0  0  0  0  0  0
   22.1859  -23.3016  -19.2911 N   0  0  0  0  0  0  0  0  0  0  0  0
   24.2260  -22.3911  -18.4962 N   0  0  0  0  0  0  0  0  0  0  0  0
   25.4931  -21.7362  -18.9043 C   0  0  0  0  0  0  0  0  0  0  0  0
   26.5377  -22.7877  -18.9288 C   0  0  0  0  0  0  0  0  0  0  0  0
   27.3682  -23.0037  -17.7296 C   0  0  0  0  0  0  0  0  0  0  0  0
   28.4698  -21.9862  -17.5794 C   0  0  2  0  0  0  0  0  0  0  0  0
   29.7059  -22.6429  -17.9485 N   0  0  0  0  0  0  0  0  0  0  0  0
   28.5237  -21.5252  -16.1671 C   0  0  0  0  0  0  0  0  0  0  0  0
   29.2550  -22.2421  -15.3946 O   0  0  0  0  0  0  0  0  0  0  0  0
   21.8208  -23.5050  -18.3476 N   0  0  0  0  0  0  0  0  0  0  0  0
   27.8648  -20.4105  -15.6331 C   0  0  0  0  0  0  0  0  0  0  0  0
   26.9399  -19.5727  -16.3382 C   0  0  0  0  0  0  0  0  0  0  0  0
   27.0895  -18.2224  -15.6751 C   0  0  0  0  0  0  0  0  0  0  0  0
   28.1448  -18.3935  -14.6045 C   0  0  2  0  0  0  0  0  0  0  0  0
   27.9813  -19.8856  -14.3114 C   0  0  0  0  0  0  0  0  0  0  0  0
   26.7102  -20.1610  -13.5893 O   0  0  0  0  0  0  0  0  0  0  0  0
   25.6195  -20.2764  -14.2081 N   0  0  0  0  0  0  0  0  0  0  0  0
   26.6225  -20.3121  -12.1829 C   0  0  2  0  0  0  0  0  0  0  0  0
   25.6965  -21.2509  -11.5342 C   0  0  0  0  0  0  0  0  0  0  0  0
   26.2708  -21.7946  -10.2884 C   0  0  0  0  0  0  0  0  0  0  0  0
   26.5204  -20.7724   -9.2748 C   0  0  0  0  0  0  0  0  0  0  0  0
   25.6776  -19.6795   -9.0257 N   0  0  0  0  0  0  0  0  0  0  0  0
   26.2164  -18.9137   -8.0723 C   0  0  0  0  0  0  0  0  0  0  0  0
   27.3720  -19.4599   -7.6886 C   0  0  0  0  0  0  0  0  0  0  0  0
   28.2927  -19.0949   -6.7454 C   0  0  0  0  0  0  0  0  0  0  0  0
   29.4452  -19.8243   -6.4695 C   0  0  0  0  0  0  0  0  0  0  0  0
   29.6137  -20.9713   -7.2229 C   0  0  0  0  0  0  0  0  0  0  0  0
   28.7091  -21.3637   -8.1767 C   0  0  0  0  0  0  0  0  0  0  0  0
   27.5814  -20.6174   -8.4231 C   0  0  0  0  0  0  0  0  0  0  0  0
   24.4258  -20.5615  -11.3452 O   0  0  0  0  0  0  0  0  0  0  0  0
   24.2735  -19.3110  -11.3699 O   0  0  0  0  0  0  0  0  0  0  0  0
  2  1  1  0
  2  4  1  0
  3  2  2  0
  4  5  1  0
  6  5  1  0
  7  6  1  0
  7  8  1  0
  8  9  1  1
 10  8  1  0
 11 10  2  0
 12 16  1  0
 12 10  1  0
 13 12  1  0
 13 14  1  0
 14 15  1  0
 16 15  1  0
 16 17  1  1
 18 17  2  0
 19 17  1  0
 20 21  1  1
 20 19  1  0
 21 22  1  0
 22 30  1  0
 22 23  2  0
 23 24  1  0
 25 26  2  0
 25 24  1  0
 27 26  1  0
 28 27  2  0
 29 28  1  0
 29 30  2  0
 30 25  1  0
 31 20  1  0
 31 33  1  0
 32 31  2  0
M  END
$$$$
