RPW.pdb
     RDKit          3D

 33 35  0  0  1  0  0  0  0  0999 V2000
   24.4082  -14.4984  -14.5397 N   0  0  0  0  0  0  0  0  0  0  0  0
   23.3142  -14.4031  -15.4282 C   0  0  0  0  0  0  0  0  0  0  0  0
   22.2314  -13.8774  -14.9545 N   0  0  0  0  0  0  0  0  0  0  0  0
   23.4022  -14.8598  -16.7675 N   0  0  0  0  0  0  0  0  0  0  0  0
   23.0103  -16.2683  -17.0196 C   0  0  0  0  0  0  0  0  0  0  0  0
   24.0957  -17.1240  -16.4839 C   0  0  0  0  0  0  0  0  0  0  0  0
   25.2736  -17.4021  -17.3264 C   0  0  0  0  0  0  0  0  0  0  0  0
   25.3792  -18.8473  -17.7407 C   0  0  2  0  0  0  0  0  0  0  0  0
   24.2185  -19.1403  -18.5544 N   0  0  0  0  0  0  0  0  0  0  0  0
   25.3981  -19.7061  -16.5274 C   0  0  0  0  0  0  0  0  0  0  0  0
   24.3007  -20.3267  -16.2903 O   0  0  0  0  0  0  0  0  0  0  0  0
   21.3944  -13.6513  -15.5141 N   0  0  0  0  0  0  0  0  0  0  0  0
   26.4795  -19.8858  -15.6556 C   0  0  0  0  0  0  0  0  0  0  0  0
   27.6720  -19.0910  -15.6326 C   0  0  0  0  0  0  0  0  0  0  0  0
   28.7351  -20.0396  -15.1272 C   0  0  0  0  0  0  0  0  0  0  0  0
   28.0436  -21.3666  -14.9036 C   0  0  1  0  0  0  0  0  0  0  0  0
   26.6184  -20.8784  -14.6399 C   0  0  0  0  0  0  0  0  0  0  0  0
   26.5107  -20.2066  -13.3170 O   0  0  0  0  0  0  0  0  0  0  0  0
   26.5710  -18.9529  -13.2145 N   0  0  0  0  0  0  0  0  0  0  0  0
   26.3363  -20.9023  -12.0946 C   0  0  1  0  0  0  0  0  0  0  0  0
   26.0430  -20.2264  -10.8231 C   0  0  0  0  0  0  0  0  0  0  0  0
   24.8719  -19.3373  -10.9471 C   0  0  0  0  0  0  0  0  0  0  0  0
   23.6013  -20.0579  -10.9731 C   0  0  0  0  0  0  0  0  0  0  0  0
   23.0198  -20.6812   -9.8594 N   0  0  0  0  0  0  0  0  0  0  0  0
   21.8887  -21.2874  -10.2323 C   0  0  0  0  0  0  0  0  0  0  0  0
   21.7072  -21.0856  -11.5389 C   0  0  0  0  0  0  0  0  0  0  0  0
   20.7134  -21.4656  -12.3982 C   0  0  0  0  0  0  0  0  0  0  0  0
   20.6899  -21.1283  -13.7481 C   0  0  0  0  0  0  0  0  0  0  0  0
   21.7572  -20.3662  -14.1859 C   0  0  0  0  0  0  0  0  0  0  0  0
   22.7697  -19.9701  -13.3493 C   0  0  0  0  0  0  0  0  0  0  0  0
   22.7604  -20.3228  -12.0208 C   0  0  0  0  0  0  0  0  0  0  0  0
   25.8970  -21.2532   -9.7983 O   0  0  0  0  0  0  0  0  0  0  0  0
   25.7610  -22.4849  -10.0262 O   0  0  0  0  0  0  0  0  0  0  0  0
  2  1  1  0
  2  4  1  0
  3  2  2  0
  4  5  1  0
  6  5  1  0
  7  6  1  0
  7  8  1  0
  8  9  1  6
 10  8  1  0
 11 10  2  0
 12 16  1  0
 12 10  1  0
 13 12  1  0
 13 14  1  0
 14 15  1  0
 16 15  1  0
 16 17  1  1
 18 17  2  0
 19 17  1  0
 20 21  1  1
 20 19  1  0
 21 22  1  0
 22 30  1  0
 22 23  2  0
 23 24  1  0
 25 26  2  0
 25 24  1  0
 27 26  1  0
 28 27  2  0
 29 28  1  0
 29 30  2  0
 30 25  1  0
 31 20  1  0
 31 33  1  0
 32 31  2  0
M  END
$$$$
