RPW.pdb
     RDKit          3D

 33 35  0  0  1  0  0  0  0  0999 V2000
   21.3668  -18.0415  -20.0990 N   0  0  0  0  0  0  0  0  0  0  0  0
   21.1695  -16.9018  -19.2881 C   0  0  0  0  0  0  0  0  0  0  0  0
   19.9983  -16.3551  -19.3381 N   0  0  0  0  0  0  0  0  0  0  0  0
   22.2023  -16.3878  -18.4640 N   0  0  0  0  0  0  0  0  0  0  0  0
   23.5069  -17.0927  -18.5111 C   0  0  0  0  0  0  0  0  0  0  0  0
   23.3238  -18.3926  -17.8228 C   0  0  0  0  0  0  0  0  0  0  0  0
   24.1584  -18.7078  -16.6486 C   0  0  0  0  0  0  0  0  0  0  0  0
   25.3014  -19.6376  -16.9652 C   0  0  2  0  0  0  0  0  0  0  0  0
   24.8570  -20.5060  -18.0347 N   0  0  0  0  0  0  0  0  0  0  0  0
   25.6399  -20.4304  -15.7540 C   0  0  0  0  0  0  0  0  0  0  0  0
   24.9131  -21.4717  -15.5721 O   0  0  0  0  0  0  0  0  0  0  0  0
   19.6897  -15.5715  -18.7417 N   0  0  0  0  0  0  0  0  0  0  0  0
   26.6528  -20.1420  -14.8307 C   0  0  0  0  0  0  0  0  0  0  0  0
   27.5011  -18.9869  -14.8585 C   0  0  0  0  0  0  0  0  0  0  0  0
   28.7833  -19.4582  -14.2110 C   0  0  0  0  0  0  0  0  0  0  0  0
   28.5676  -20.9140  -13.8599 C   0  0  1  0  0  0  0  0  0  0  0  0
   27.0462  -20.9232  -13.7033 C   0  0  0  0  0  0  0  0  0  0  0  0
   26.6230  -20.2053  -12.4710 O   0  0  0  0  0  0  0  0  0  0  0  0
   26.6291  -18.9473  -12.4136 N   0  0  0  0  0  0  0  0  0  0  0  0
   26.1896  -20.8591  -11.2907 C   0  0  1  0  0  0  0  0  0  0  0  0
   25.7106  -20.1362  -10.1043 C   0  0  0  0  0  0  0  0  0  0  0  0
   24.6114  -19.2135  -10.4472 C   0  0  0  0  0  0  0  0  0  0  0  0
   23.4387  -19.8919  -10.9941 C   0  0  0  0  0  0  0  0  0  0  0  0
   22.5921  -20.7319  -10.2562 N   0  0  0  0  0  0  0  0  0  0  0  0
   21.6473  -21.2259  -11.0619 C   0  0  0  0  0  0  0  0  0  0  0  0
   21.8403  -20.7440  -12.2913 C   0  0  0  0  0  0  0  0  0  0  0  0
   21.1558  -20.9142  -13.4631 C   0  0  0  0  0  0  0  0  0  0  0  0
   21.5058  -20.2932  -14.6582 C   0  0  0  0  0  0  0  0  0  0  0  0
   22.6155  -19.4710  -14.5946 C   0  0  0  0  0  0  0  0  0  0  0  0
   23.3236  -19.2805  -13.4351 C   0  0  0  0  0  0  0  0  0  0  0  0
   22.9492  -19.9114  -12.2728 C   0  0  0  0  0  0  0  0  0  0  0  0
   25.3550  -21.1265   -9.0950 O   0  0  0  0  0  0  0  0  0  0  0  0
   24.9666  -20.8579   -7.9269 O   0  0  0  0  0  0  0  0  0  0  0  0
  2  1  1  0
  2  4  1  0
  3  2  2  0
  4  5  1  0
  6  5  1  0
  7  6  1  0
  7  8  1  0
  8  9  1  6
 10  8  1  0
 11 10  2  0
 12 16  1  0
 12 10  1  0
 13 12  1  0
 13 14  1  0
 14 15  1  0
 16 15  1  0
 16 17  1  1
 18 17  2  0
 19 17  1  0
 20 21  1  1
 20 19  1  0
 21 22  1  0
 22 30  1  0
 22 23  2  0
 23 24  1  0
 25 26  2  0
 25 24  1  0
 27 26  1  0
 28 27  2  0
 29 28  1  0
 29 30  2  0
 30 25  1  0
 31 20  1  0
 31 33  1  0
 32 31  2  0
M  END
$$$$
