TRP.pdb
     RDKit          3D

 26 26  0  0  1  0  0  0  0  0999 V2000
   10.0310  -14.0740   20.7471 C   0  0  0  0  0  0  0  0  0  0  0  0
    8.9437  -13.4181   19.9596 C   0  0  1  0  0  0  0  0  0  0  0  0
    9.2855  -13.3146   18.6082 O   0  0  0  0  0  0  0  0  0  0  0  0
    7.6742  -14.2344   20.0608 C   0  0  2  0  0  0  0  0  0  0  0  0
    6.6698  -13.5430   19.2872 N   0  0  0  0  0  0  0  0  0  0  0  0
    7.2353  -14.3225   21.4921 C   0  0  0  0  0  0  0  0  0  0  0  0
    6.8151  -13.2986   22.0840 O   0  0  0  0  0  0  0  0  0  0  0  0
    6.6120  -21.7846   25.8545 N   0  0  0  0  0  0  0  0  0  0  0  0
    7.6996  -20.9937   25.3953 C   0  0  0  0  0  0  0  0  0  0  0  0
    8.8553  -21.5326   25.1072 N   0  0  0  0  0  0  0  0  0  0  0  0
    7.5852  -19.5947   25.2232 N   0  0  0  0  0  0  0  0  0  0  0  0
    6.5111  -18.7954   25.7914 C   0  0  0  0  0  0  0  0  0  0  0  0
    6.5624  -17.3541   25.3997 C   0  0  0  0  0  0  0  0  0  0  0  0
    6.8526  -17.1291   23.9463 C   0  0  0  0  0  0  0  0  0  0  0  0
    6.9933  -15.6612   23.5799 C   0  0  2  0  0  0  0  0  0  0  0  0
    7.3094  -15.5784   22.1427 N   0  0  0  0  0  0  0  0  0  0  0  0
    8.0958  -15.0602   24.3725 C   0  0  0  0  0  0  0  0  0  0  0  0
    9.2717  -15.2230   23.9738 O   0  0  0  0  0  0  0  0  0  0  0  0
    9.6577  -20.9243   24.7951 N   0  0  0  0  0  0  0  0  0  0  0  0
    7.8628  -14.3137   25.5549 C   0  0  0  0  0  0  0  0  0  0  0  0
    6.6018  -13.9871   26.1877 C   0  0  0  0  0  0  0  0  0  0  0  0
    6.8187  -12.5874   26.7528 C   0  0  0  0  0  0  0  0  0  0  0  0
    8.2903  -12.3437   26.6839 C   0  0  1  0  0  0  0  0  0  0  0  0
    8.8851  -13.6977   26.4068 C   0  0  0  0  0  0  0  0  0  0  0  0
    9.0762  -14.5164   27.6134 O   0  0  0  0  0  0  0  0  0  0  0  0
    8.4023  -15.6983   27.8489 O   0  0  0  0  0  0  0  0  0  0  0  0
  2  4  1  0
  2  1  1  1
  3  2  1  0
  4  5  1  6
  6  4  1  0
  6  7  2  0
  9  8  1  0
 10  9  2  0
 11  9  1  0
 12 11  1  0
 12 13  1  0
 13 14  1  0
 15 14  1  1
 15 16  1  0
 16  6  1  0
 17 15  1  0
 18 17  2  0
 19 17  1  0
 19 20  1  0
 21 20  1  0
 22 21  1  0
 22 23  1  0
 23 19  1  0
 23 24  1  1
 25 24  1  0
 26 24  2  0
M  END
$$$$
