TRP.pdb
     RDKit          3D

 26 26  0  0  1  0  0  0  0  0999 V2000
    9.0344  -21.2893   21.0743 C   0  0  0  0  0  0  0  0  0  0  0  0
   10.1725  -20.8486   20.2121 C   0  0  1  0  0  0  0  0  0  0  0  0
   10.4223  -21.7685   19.1897 O   0  0  0  0  0  0  0  0  0  0  0  0
    9.8460  -19.5164   19.5745 C   0  0  2  0  0  0  0  0  0  0  0  0
   10.9607  -19.1767   18.7215 N   0  0  0  0  0  0  0  0  0  0  0  0
    9.6849  -18.4676   20.6343 C   0  0  0  0  0  0  0  0  0  0  0  0
   10.6841  -18.0710   21.2820 O   0  0  0  0  0  0  0  0  0  0  0  0
    7.2350  -12.0023   19.3385 N   0  0  0  0  0  0  0  0  0  0  0  0
    7.6670  -12.9966   18.4199 C   0  0  0  0  0  0  0  0  0  0  0  0
    7.4179  -12.8918   17.1409 N   0  0  0  0  0  0  0  0  0  0  0  0
    8.3878  -14.1386   18.8399 N   0  0  0  0  0  0  0  0  0  0  0  0
    8.2769  -14.7213   20.1679 C   0  0  0  0  0  0  0  0  0  0  0  0
    6.9986  -15.4615   20.3947 C   0  0  0  0  0  0  0  0  0  0  0  0
    6.9424  -16.1911   21.7031 C   0  0  0  0  0  0  0  0  0  0  0  0
    8.1912  -17.0069   21.9925 C   0  0  2  0  0  0  0  0  0  0  0  0
    8.3896  -17.9483   20.8759 N   0  0  0  0  0  0  0  0  0  0  0  0
    8.0037  -17.7605   23.2581 C   0  0  0  0  0  0  0  0  0  0  0  0
    7.4893  -18.9007   23.2003 O   0  0  0  0  0  0  0  0  0  0  0  0
    7.7117  -13.6601   16.4816 N   0  0  0  0  0  0  0  0  0  0  0  0
    8.3858  -17.2365   24.5187 C   0  0  0  0  0  0  0  0  0  0  0  0
    8.5071  -15.8522   24.9265 C   0  0  0  0  0  0  0  0  0  0  0  0
    9.6945  -15.8474   25.8835 C   0  0  0  0  0  0  0  0  0  0  0  0
    9.9646  -17.2803   26.2050 C   0  0  1  0  0  0  0  0  0  0  0  0
    8.7496  -18.0150   25.7069 C   0  0  0  0  0  0  0  0  0  0  0  0
    7.6275  -18.0123   26.6574 O   0  0  0  0  0  0  0  0  0  0  0  0
    7.5771  -18.8122   27.7816 O   0  0  0  0  0  0  0  0  0  0  0  0
  2  4  1  0
  2  1  1  6
  3  2  1  0
  4  5  1  6
  6  4  1  0
  6  7  2  0
  9  8  1  0
 10  9  2  0
 11  9  1  0
 12 11  1  0
 12 13  1  0
 13 14  1  0
 15 14  1  6
 15 16  1  0
 16  6  1  0
 17 15  1  0
 18 17  2  0
 19 17  1  0
 19 20  1  0
 21 20  1  0
 22 21  1  0
 22 23  1  0
 23 19  1  0
 23 24  1  1
 25 24  1  0
 26 24  2  0
M  END
$$$$
