TRP.pdb
     RDKit          3D

 26 26  0  0  1  0  0  0  0  0999 V2000
    8.3025  -12.4697   20.5321 C   0  0  0  0  0  0  0  0  0  0  0  0
    7.7801  -13.5072   19.5923 C   0  0  1  0  0  0  0  0  0  0  0  0
    8.3755  -13.3987   18.3323 O   0  0  0  0  0  0  0  0  0  0  0  0
    8.0795  -14.8871   20.1350 C   0  0  2  0  0  0  0  0  0  0  0  0
    7.5416  -15.8348   19.1874 N   0  0  0  0  0  0  0  0  0  0  0  0
    7.4111  -15.0700   21.4649 C   0  0  0  0  0  0  0  0  0  0  0  0
    6.1738  -14.8908   21.5757 O   0  0  0  0  0  0  0  0  0  0  0  0
    6.3124  -22.1149   24.7217 N   0  0  0  0  0  0  0  0  0  0  0  0
    5.8187  -21.5281   23.5255 C   0  0  0  0  0  0  0  0  0  0  0  0
    5.1513  -22.2331   22.6500 N   0  0  0  0  0  0  0  0  0  0  0  0
    6.0187  -20.1602   23.2270 N   0  0  0  0  0  0  0  0  0  0  0  0
    6.7942  -19.2558   24.0612 C   0  0  0  0  0  0  0  0  0  0  0  0
    6.7901  -17.8412   23.5793 C   0  0  0  0  0  0  0  0  0  0  0  0
    7.6260  -16.9137   24.4091 C   0  0  0  0  0  0  0  0  0  0  0  0
    7.6022  -15.4768   23.9160 C   0  0  2  0  0  0  0  0  0  0  0  0
    8.2091  -15.4455   22.5732 N   0  0  0  0  0  0  0  0  0  0  0  0
    8.3898  -14.6257   24.8435 C   0  0  0  0  0  0  0  0  0  0  0  0
    9.6186  -14.5010   24.6372 O   0  0  0  0  0  0  0  0  0  0  0  0
    4.7939  -21.7784   21.7687 N   0  0  0  0  0  0  0  0  0  0  0  0
    7.8011  -13.9545   25.9447 C   0  0  0  0  0  0  0  0  0  0  0  0
    6.4023  -13.8614   26.3078 C   0  0  0  0  0  0  0  0  0  0  0  0
    6.2588  -12.4571   26.8850 C   0  0  0  0  0  0  0  0  0  0  0  0
    7.6505  -11.9641   27.1084 C   0  0  1  0  0  0  0  0  0  0  0  0
    8.5119  -13.1906   26.9751 C   0  0  0  0  0  0  0  0  0  0  0  0
    8.5961  -13.9894   28.2069 O   0  0  0  0  0  0  0  0  0  0  0  0
    7.9967  -15.2238   28.3590 O   0  0  0  0  0  0  0  0  0  0  0  0
  2  4  1  0
  2  1  1  1
  3  2  1  0
  4  5  1  6
  6  4  1  0
  6  7  2  0
  9  8  1  0
 10  9  2  0
 11  9  1  0
 12 11  1  0
 12 13  1  0
 13 14  1  0
 15 14  1  1
 15 16  1  0
 16  6  1  0
 17 15  1  0
 18 17  2  0
 19 17  1  0
 19 20  1  0
 21 20  1  0
 22 21  1  0
 22 23  1  0
 23 19  1  0
 23 24  1  1
 25 24  1  0
 26 24  2  0
M  END
$$$$
