TRP.pdb
     RDKit          3D

 26 26  0  0  1  0  0  0  0  0999 V2000
   10.7342  -14.6642   20.5873 C   0  0  0  0  0  0  0  0  0  0  0  0
   10.1317  -13.5559   19.7865 C   0  0  1  0  0  0  0  0  0  0  0  0
   10.7183  -13.4653   18.5209 O   0  0  0  0  0  0  0  0  0  0  0  0
    8.6514  -13.8047   19.6003 C   0  0  2  0  0  0  0  0  0  0  0  0
    8.1513  -12.7420   18.7600 N   0  0  0  0  0  0  0  0  0  0  0  0
    7.9552  -13.7671   20.9280 C   0  0  0  0  0  0  0  0  0  0  0  0
    7.7292  -12.6665   21.4874 O   0  0  0  0  0  0  0  0  0  0  0  0
    8.1397  -20.7330   24.4210 N   0  0  0  0  0  0  0  0  0  0  0  0
    7.7484  -20.0554   25.6071 C   0  0  0  0  0  0  0  0  0  0  0  0
    8.3590  -20.2698   26.7429 N   0  0  0  0  0  0  0  0  0  0  0  0
    6.6897  -19.1177   25.6166 N   0  0  0  0  0  0  0  0  0  0  0  0
    6.2062  -18.4322   24.4285 C   0  0  0  0  0  0  0  0  0  0  0  0
    6.8341  -17.0939   24.2092 C   0  0  0  0  0  0  0  0  0  0  0  0
    6.2564  -16.3333   23.0538 C   0  0  0  0  0  0  0  0  0  0  0  0
    6.9085  -14.9780   22.8379 C   0  0  2  0  0  0  0  0  0  0  0  0
    7.5677  -14.9941   21.5198 N   0  0  0  0  0  0  0  0  0  0  0  0
    7.9175  -14.7428   23.9016 C   0  0  0  0  0  0  0  0  0  0  0  0
    9.0900  -15.1365   23.7061 O   0  0  0  0  0  0  0  0  0  0  0  0
    8.0783  -19.7285   27.6029 N   0  0  0  0  0  0  0  0  0  0  0  0
    7.5998  -14.0919   25.1202 C   0  0  0  0  0  0  0  0  0  0  0  0
    6.3000  -13.7132   25.6344 C   0  0  0  0  0  0  0  0  0  0  0  0
    6.5550  -12.3976   26.3624 C   0  0  0  0  0  0  0  0  0  0  0  0
    8.0384  -12.2826   26.4887 C   0  0  2  0  0  0  0  0  0  0  0  0
    8.5546  -13.6531   26.1431 C   0  0  0  0  0  0  0  0  0  0  0  0
    8.5305  -14.5948   27.2724 O   0  0  0  0  0  0  0  0  0  0  0  0
    9.4481  -14.5738   28.3039 O   0  0  0  0  0  0  0  0  0  0  0  0
  2  4  1  0
  2  1  1  1
  3  2  1  0
  4  5  1  6
  6  4  1  0
  6  7  2  0
  9  8  1  0
 10  9  2  0
 11  9  1  0
 12 11  1  0
 12 13  1  0
 13 14  1  0
 15 14  1  1
 15 16  1  0
 16  6  1  0
 17 15  1  0
 18 17  2  0
 19 17  1  0
 19 20  1  0
 21 20  1  0
 22 21  1  0
 22 23  1  0
 23 19  1  0
 23 24  1  1
 25 24  1  0
 26 24  2  0
M  END
$$$$
