TRP.pdb
     RDKit          3D

 26 26  0  0  1  0  0  0  0  0999 V2000
    9.1363  -12.6825   20.5867 C   0  0  0  0  0  0  0  0  0  0  0  0
    8.0212  -13.0443   19.6601 C   0  0  1  0  0  0  0  0  0  0  0  0
    8.4001  -12.8904   18.3234 O   0  0  0  0  0  0  0  0  0  0  0  0
    7.6275  -14.4893   19.8722 C   0  0  2  0  0  0  0  0  0  0  0  0
    6.5511  -14.7689   18.9510 N   0  0  0  0  0  0  0  0  0  0  0  0
    7.1502  -14.6882   21.2799 C   0  0  0  0  0  0  0  0  0  0  0  0
    6.0942  -14.1327   21.6692 O   0  0  0  0  0  0  0  0  0  0  0  0
    5.7946  -21.1540   28.0534 N   0  0  0  0  0  0  0  0  0  0  0  0
    6.8143  -20.6475   27.2033 C   0  0  0  0  0  0  0  0  0  0  0  0
    7.8242  -21.3927   26.8378 N   0  0  0  0  0  0  0  0  0  0  0  0
    6.7849  -19.3226   26.7094 N   0  0  0  0  0  0  0  0  0  0  0  0
    7.7970  -18.7669   25.8250 C   0  0  0  0  0  0  0  0  0  0  0  0
    7.5253  -17.3566   25.4116 C   0  0  0  0  0  0  0  0  0  0  0  0
    7.6803  -17.1137   23.9405 C   0  0  0  0  0  0  0  0  0  0  0  0
    7.5055  -15.6562   23.5485 C   0  0  2  0  0  0  0  0  0  0  0  0
    7.9178  -15.5100   22.1410 N   0  0  0  0  0  0  0  0  0  0  0  0
    8.3635  -14.8080   24.4142 C   0  0  0  0  0  0  0  0  0  0  0  0
    9.5729  -14.6844   24.1139 O   0  0  0  0  0  0  0  0  0  0  0  0
    8.5881  -20.9871   26.2350 N   0  0  0  0  0  0  0  0  0  0  0  0
    7.8625  -14.1385   25.5589 C   0  0  0  0  0  0  0  0  0  0  0  0
    6.5153  -14.1345   26.0903 C   0  0  0  0  0  0  0  0  0  0  0  0
    6.3335  -12.7227   26.6373 C   0  0  0  0  0  0  0  0  0  0  0  0
    7.6992  -12.1196   26.6705 C   0  0  2  0  0  0  0  0  0  0  0  0
    8.6314  -13.2834   26.4688 C   0  0  0  0  0  0  0  0  0  0  0  0
    8.9271  -14.0236   27.7046 O   0  0  0  0  0  0  0  0  0  0  0  0
    9.7714  -13.5554   28.6917 O   0  0  0  0  0  0  0  0  0  0  0  0
  2  4  1  0
  2  1  1  1
  3  2  1  0
  4  5  1  6
  6  4  1  0
  6  7  2  0
  9  8  1  0
 10  9  2  0
 11  9  1  0
 12 11  1  0
 12 13  1  0
 13 14  1  0
 15 14  1  1
 15 16  1  0
 16  6  1  0
 17 15  1  0
 18 17  2  0
 19 17  1  0
 19 20  1  0
 21 20  1  0
 22 21  1  0
 22 23  1  0
 23 19  1  0
 23 24  1  1
 25 24  1  0
 26 24  2  0
M  END
$$$$
