TRP.pdb
     RDKit          3D

 26 26  0  0  1  0  0  0  0  0999 V2000
   11.0359  -19.4435   24.9193 C   0  0  0  0  0  0  0  0  0  0  0  0
   12.4710  -19.0351   24.8380 C   0  0  1  0  0  0  0  0  0  0  0  0
   13.3050  -20.1411   24.6506 O   0  0  0  0  0  0  0  0  0  0  0  0
   12.6704  -18.0945   23.6702 C   0  0  2  0  0  0  0  0  0  0  0  0
   14.0770  -17.7698   23.6305 N   0  0  0  0  0  0  0  0  0  0  0  0
   11.8703  -16.8434   23.8785 C   0  0  0  0  0  0  0  0  0  0  0  0
   12.2615  -15.9772   24.6982 O   0  0  0  0  0  0  0  0  0  0  0  0
    6.6092  -12.6969   18.4259 N   0  0  0  0  0  0  0  0  0  0  0  0
    7.5656  -13.7239   18.6487 C   0  0  0  0  0  0  0  0  0  0  0  0
    8.1049  -14.3755   17.6519 N   0  0  0  0  0  0  0  0  0  0  0  0
    7.9829  -14.0861   19.9505 N   0  0  0  0  0  0  0  0  0  0  0  0
    7.2891  -13.6824   21.1634 C   0  0  0  0  0  0  0  0  0  0  0  0
    7.9303  -14.1822   22.4173 C   0  0  0  0  0  0  0  0  0  0  0  0
    9.0216  -15.1834   22.1848 C   0  0  0  0  0  0  0  0  0  0  0  0
    9.7904  -15.5409   23.4456 C   0  0  2  0  0  0  0  0  0  0  0  0
   10.6785  -16.6746   23.1320 N   0  0  0  0  0  0  0  0  0  0  0  0
    8.8330  -15.9322   24.5110 C   0  0  0  0  0  0  0  0  0  0  0  0
    8.5143  -17.1392   24.6096 O   0  0  0  0  0  0  0  0  0  0  0  0
    8.8073  -15.1390   17.8393 N   0  0  0  0  0  0  0  0  0  0  0  0
    8.2735  -14.9925   25.4130 C   0  0  0  0  0  0  0  0  0  0  0  0
    8.1797  -13.5534   25.2811 C   0  0  0  0  0  0  0  0  0  0  0  0
    8.3708  -13.0347   26.7024 C   0  0  0  0  0  0  0  0  0  0  0  0
    8.2375  -14.2263   27.5924 C   0  0  1  0  0  0  0  0  0  0  0  0
    7.6557  -15.2955   26.7079 C   0  0  0  0  0  0  0  0  0  0  0  0
    6.1923  -15.2251   26.5815 O   0  0  0  0  0  0  0  0  0  0  0  0
    5.3193  -15.8006   27.4831 O   0  0  0  0  0  0  0  0  0  0  0  0
  2  4  1  0
  2  1  1  6
  3  2  1  0
  4  5  1  1
  6  4  1  0
  6  7  2  0
  9  8  1  0
 10  9  2  0
 11  9  1  0
 12 11  1  0
 12 13  1  0
 13 14  1  0
 15 14  1  6
 15 16  1  0
 16  6  1  0
 17 15  1  0
 18 17  2  0
 19 17  1  0
 19 20  1  0
 21 20  1  0
 22 21  1  0
 22 23  1  0
 23 19  1  0
 23 24  1  6
 25 24  1  0
 26 24  2  0
M  END
$$$$
