YQC.pdb
     RDKit          3D

 28 28  0  0  1  0  0  0  0  0999 V2000
    8.4215  -11.7602   22.1371 O   0  0  0  0  0  0  0  0  0  0  0  0
    8.1327  -12.5756   21.0528 C   0  0  0  0  0  0  0  0  0  0  0  0
    8.0744  -12.0835   19.7623 C   0  0  0  0  0  0  0  0  0  0  0  0
    7.7864  -12.9230   18.7241 C   0  0  0  0  0  0  0  0  0  0  0  0
    7.5448  -14.2698   18.9030 C   0  0  0  0  0  0  0  0  0  0  0  0
    7.2366  -15.1550   17.7716 C   0  0  0  0  0  0  0  0  0  0  0  0
    8.5300  -15.3713   16.9889 C   0  0  2  0  0  0  0  0  0  0  0  0
    8.2740  -16.4212   16.0393 N   0  0  0  0  0  0  0  0  0  0  0  0
    9.6240  -15.7862   17.8960 C   0  0  0  0  0  0  0  0  0  0  0  0
    9.6131  -16.9631   18.3432 O   0  0  0  0  0  0  0  0  0  0  0  0
    7.5991  -14.7824   20.1947 C   0  0  0  0  0  0  0  0  0  0  0  0
    7.8888  -13.9323   21.2293 C   0  0  0  0  0  0  0  0  0  0  0  0
   16.1221  -13.1465   19.5600 N   0  0  0  0  0  0  0  0  0  0  0  0
   15.4514  -14.0703   18.6920 C   0  0  0  0  0  0  0  0  0  0  0  0
   15.8898  -14.2120   17.5205 O   0  0  0  0  0  0  0  0  0  0  0  0
   14.2853  -14.8461   19.1165 C   0  0  0  0  0  0  0  0  0  0  0  0
   12.9872  -14.4625   18.5123 C   0  0  0  0  0  0  0  0  0  0  0  0
   11.7962  -15.2635   18.9644 C   0  0  2  0  0  0  0  0  0  0  0  0
   10.6300  -14.8478   18.2200 N   0  0  0  0  0  0  0  0  0  0  0  0
   11.5519  -15.1381   20.4209 C   0  0  0  0  0  0  0  0  0  0  0  0
   11.2216  -14.0715   20.9913 O   0  0  0  0  0  0  0  0  0  0  0  0
   11.6999  -16.2964   21.2255 N   0  0  0  0  0  0  0  0  0  0  0  0
   11.6280  -16.3013   22.6553 C   0  0  1  0  0  0  0  0  0  0  0  0
   10.6605  -17.3167   23.2054 C   0  0  0  0  0  0  0  0  0  0  0  0
   10.8377  -17.3119   25.0139 S   0  0  0  0  0  0  0  0  0  0  0  0
   12.9758  -16.5510   23.2202 C   0  0  0  0  0  0  0  0  0  0  0  0
   13.3224  -16.1786   24.5137 O   0  0  0  0  0  0  0  0  0  0  0  0
   13.8550  -17.1152   22.5332 O   0  0  0  0  0  0  0  0  0  0  0  0
  2  1  1  0
  3  2  2  0
  4  3  1  0
  5 11  1  0
  5  4  2  0
  6  7  1  0
  6  5  1  0
  7  9  1  0
  7  8  1  6
  9 10  2  0
 11 12  2  0
 12  2  1  0
 14 13  1  0
 14 16  1  0
 15 14  2  0
 17 16  1  0
 18 17  1  6
 19  9  1  0
 19 18  1  0
 20 18  1  0
 20 21  2  0
 22 20  1  0
 23 22  1  0
 23 26  1  0
 23 24  1  6
 25 24  1  0
 26 27  1  0
 28 26  2  0
M  END
$$$$
