YQC.pdb
     RDKit          3D

 28 28  0  0  1  0  0  0  0  0999 V2000
   -1.3182  -26.7798   32.6407 O   0  0  0  0  0  0  0  0  0  0  0  0
   -0.2966  -26.2119   31.8939 C   0  0  0  0  0  0  0  0  0  0  0  0
   -0.4550  -25.8975   30.5572 C   0  0  0  0  0  0  0  0  0  0  0  0
    0.5785  -25.3393   29.8602 C   0  0  0  0  0  0  0  0  0  0  0  0
    1.8020  -25.0669   30.4372 C   0  0  0  0  0  0  0  0  0  0  0  0
    2.9005  -24.4659   29.6684 C   0  0  0  0  0  0  0  0  0  0  0  0
    3.5764  -25.5841   28.8777 C   0  0  2  0  0  0  0  0  0  0  0  0
    4.2685  -26.4109   29.8300 N   0  0  0  0  0  0  0  0  0  0  0  0
    4.5512  -25.0243   27.9141 C   0  0  0  0  0  0  0  0  0  0  0  0
    5.6566  -24.6139   28.3554 O   0  0  0  0  0  0  0  0  0  0  0  0
    1.9796  -25.3766   31.7813 C   0  0  0  0  0  0  0  0  0  0  0  0
    0.9369  -25.9363   32.4718 C   0  0  0  0  0  0  0  0  0  0  0  0
    4.2184  -25.8414   21.5150 N   0  0  0  0  0  0  0  0  0  0  0  0
    5.2962  -24.9287   21.7638 C   0  0  0  0  0  0  0  0  0  0  0  0
    6.0339  -24.6011   20.7978 O   0  0  0  0  0  0  0  0  0  0  0  0
    5.5664  -24.3708   23.0895 C   0  0  0  0  0  0  0  0  0  0  0  0
    4.7268  -24.8813   24.1994 C   0  0  0  0  0  0  0  0  0  0  0  0
    5.1299  -24.4361   25.5791 C   0  0  2  0  0  0  0  0  0  0  0  0
    4.2011  -24.9747   26.5457 N   0  0  0  0  0  0  0  0  0  0  0  0
    5.2014  -22.9603   25.6973 C   0  0  0  0  0  0  0  0  0  0  0  0
    4.2302  -22.2295   26.0050 O   0  0  0  0  0  0  0  0  0  0  0  0
    6.4467  -22.3295   25.4470 N   0  0  0  0  0  0  0  0  0  0  0  0
    6.6593  -20.9146   25.4945 C   0  0  1  0  0  0  0  0  0  0  0  0
    6.8628  -20.3834   26.8896 C   0  0  0  0  0  0  0  0  0  0  0  0
    8.3600  -21.1679   27.5566 S   0  0  0  0  0  0  0  0  0  0  0  0
    7.8308  -20.5593   24.6581 C   0  0  0  0  0  0  0  0  0  0  0  0
    8.2077  -19.2420   24.4246 O   0  0  0  0  0  0  0  0  0  0  0  0
    8.5253  -21.4545   24.1295 O   0  0  0  0  0  0  0  0  0  0  0  0
  2  1  1  0
  3  2  2  0
  4  3  1  0
  5 11  1  0
  5  4  2  0
  6  7  1  0
  6  5  1  0
  7  9  1  0
  7  8  1  1
  9 10  2  0
 11 12  2  0
 12  2  1  0
 14 13  1  0
 14 16  1  0
 15 14  2  0
 17 16  1  0
 18 17  1  6
 19  9  1  0
 19 18  1  0
 20 18  1  0
 20 21  2  0
 22 20  1  0
 23 22  1  0
 23 26  1  0
 23 24  1  1
 25 24  1  0
 26 27  1  0
 28 26  2  0
M  END
$$$$
