YQC.pdb
     RDKit          3D

 28 28  0  0  1  0  0  0  0  0999 V2000
    5.2264  -10.0930   26.8054 O   0  0  0  0  0  0  0  0  0  0  0  0
    5.9096  -11.2634   26.5100 C   0  0  0  0  0  0  0  0  0  0  0  0
    6.6276  -11.4157   25.3385 C   0  0  0  0  0  0  0  0  0  0  0  0
    7.2855  -12.5863   25.0886 C   0  0  0  0  0  0  0  0  0  0  0  0
    7.2692  -13.6497   25.9678 C   0  0  0  0  0  0  0  0  0  0  0  0
    7.9843  -14.9003   25.6787 C   0  0  0  0  0  0  0  0  0  0  0  0
    7.1425  -15.6936   24.6816 C   0  0  2  0  0  0  0  0  0  0  0  0
    6.0801  -16.3116   25.4291 N   0  0  0  0  0  0  0  0  0  0  0  0
    7.9588  -16.7431   24.0302 C   0  0  0  0  0  0  0  0  0  0  0  0
    8.0242  -17.8739   24.5798 O   0  0  0  0  0  0  0  0  0  0  0  0
    6.5520  -13.5144   27.1515 C   0  0  0  0  0  0  0  0  0  0  0  0
    5.8954  -12.3363   27.3930 C   0  0  0  0  0  0  0  0  0  0  0  0
   10.0279  -16.6258   17.9307 N   0  0  0  0  0  0  0  0  0  0  0  0
   10.7424  -17.6848   18.5823 C   0  0  0  0  0  0  0  0  0  0  0  0
   11.4865  -18.4199   17.8818 O   0  0  0  0  0  0  0  0  0  0  0  0
   10.6368  -17.9389   20.0196 C   0  0  0  0  0  0  0  0  0  0  0  0
    9.7653  -17.0169   20.7863 C   0  0  0  0  0  0  0  0  0  0  0  0
    9.5206  -17.3949   22.2221 C   0  0  2  0  0  0  0  0  0  0  0  0
    8.6272  -16.4324   22.8242 N   0  0  0  0  0  0  0  0  0  0  0  0
   10.7773  -17.4924   23.0019 C   0  0  0  0  0  0  0  0  0  0  0  0
   11.5824  -16.5450   23.1634 O   0  0  0  0  0  0  0  0  0  0  0  0
   11.0939  -18.7357   23.6062 N   0  0  0  0  0  0  0  0  0  0  0  0
   11.7873  -18.8754   24.8509 C   0  0  1  0  0  0  0  0  0  0  0  0
   11.1063  -18.1790   26.0003 C   0  0  0  0  0  0  0  0  0  0  0  0
   12.0340  -18.5860   27.5088 S   0  0  0  0  0  0  0  0  0  0  0  0
   11.9461  -20.3138   25.1730 C   0  0  0  0  0  0  0  0  0  0  0  0
   12.9233  -20.7786   26.0454 O   0  0  0  0  0  0  0  0  0  0  0  0
   11.1891  -21.1648   24.6573 O   0  0  0  0  0  0  0  0  0  0  0  0
  2  1  1  0
  3  2  2  0
  4  3  1  0
  5 11  1  0
  5  4  2  0
  6  7  1  0
  6  5  1  0
  7  9  1  0
  7  8  1  1
  9 10  2  0
 11 12  2  0
 12  2  1  0
 14 13  1  0
 14 16  1  0
 15 14  2  0
 17 16  1  0
 18 17  1  6
 19  9  1  0
 19 18  1  0
 20 18  1  0
 20 21  2  0
 22 20  1  0
 23 22  1  0
 23 26  1  0
 23 24  1  1
 25 24  1  0
 26 27  1  0
 28 26  2  0
M  END
$$$$
