YQC.pdb
     RDKit          3D

 28 28  0  0  1  0  0  0  0  0999 V2000
    5.8681  -27.7819   40.3705 O   0  0  0  0  0  0  0  0  0  0  0  0
    6.6064  -27.2402   39.3287 C   0  0  0  0  0  0  0  0  0  0  0  0
    7.9387  -26.9016   39.4748 C   0  0  0  0  0  0  0  0  0  0  0  0
    8.6274  -26.3706   38.4216 C   0  0  0  0  0  0  0  0  0  0  0  0
    8.0462  -26.1499   37.1896 C   0  0  0  0  0  0  0  0  0  0  0  0
    8.8060  -25.5774   36.0699 C   0  0  0  0  0  0  0  0  0  0  0  0
    9.0764  -26.7018   35.0726 C   0  0  2  0  0  0  0  0  0  0  0  0
   10.0376  -27.5808   35.6834 N   0  0  0  0  0  0  0  0  0  0  0  0
    9.6381  -26.1584   33.8152 C   0  0  0  0  0  0  0  0  0  0  0  0
   10.8770  -25.9406   33.7612 O   0  0  0  0  0  0  0  0  0  0  0  0
    6.7065  -26.4846   37.0243 C   0  0  0  0  0  0  0  0  0  0  0  0
    6.0243  -27.0166   38.0868 C   0  0  0  0  0  0  0  0  0  0  0  0
    7.3346  -27.4453   28.0822 N   0  0  0  0  0  0  0  0  0  0  0  0
    8.3753  -26.4805   27.8755 C   0  0  0  0  0  0  0  0  0  0  0  0
    8.7355  -26.2371   26.6940 O   0  0  0  0  0  0  0  0  0  0  0  0
    9.0279  -25.7762   28.9800 C   0  0  0  0  0  0  0  0  0  0  0  0
    8.5771  -26.1371   30.3453 C   0  0  0  0  0  0  0  0  0  0  0  0
    9.2875  -25.4371   31.4721 C   0  0  2  0  0  0  0  0  0  0  0  0
    8.7637  -25.9082   32.7333 N   0  0  0  0  0  0  0  0  0  0  0  0
    9.1715  -23.9622   31.3824 C   0  0  0  0  0  0  0  0  0  0  0  0
    8.1377  -23.3169   31.6771 O   0  0  0  0  0  0  0  0  0  0  0  0
   10.3000  -23.2292   30.9349 N   0  0  0  0  0  0  0  0  0  0  0  0
   10.3477  -21.8020   30.8332 C   0  0  1  0  0  0  0  0  0  0  0  0
   11.3070  -21.1615   31.8023 C   0  0  0  0  0  0  0  0  0  0  0  0
   12.9774  -21.7313   31.3699 S   0  0  0  0  0  0  0  0  0  0  0  0
   10.7146  -21.4139   29.4501 C   0  0  0  0  0  0  0  0  0  0  0  0
   10.7087  -20.0920   29.0206 O   0  0  0  0  0  0  0  0  0  0  0  0
   11.0461  -22.2842   28.6159 O   0  0  0  0  0  0  0  0  0  0  0  0
  2  1  1  0
  3  2  2  0
  4  3  1  0
  5 11  1  0
  5  4  2  0
  6  7  1  0
  6  5  1  0
  7  9  1  0
  7  8  1  1
  9 10  2  0
 11 12  2  0
 12  2  1  0
 14 13  1  0
 14 16  1  0
 15 14  2  0
 17 16  1  0
 18 17  1  6
 19  9  1  0
 19 18  1  0
 20 18  1  0
 20 21  2  0
 22 20  1  0
 23 22  1  0
 23 26  1  0
 23 24  1  1
 25 24  1  0
 26 27  1  0
 28 26  2  0
M  END
$$$$
