YQC.pdb
     RDKit          3D

 28 28  0  0  1  0  0  0  0  0999 V2000
    8.9680  -12.0545   19.6961 O   0  0  0  0  0  0  0  0  0  0  0  0
    8.2021  -13.1035   20.1829 C   0  0  0  0  0  0  0  0  0  0  0  0
    7.4315  -13.8944   19.3513 C   0  0  0  0  0  0  0  0  0  0  0  0
    6.6925  -14.9172   19.8743 C   0  0  0  0  0  0  0  0  0  0  0  0
    6.6763  -15.2076   21.2232 C   0  0  0  0  0  0  0  0  0  0  0  0
    5.8738  -16.3129   21.7645 C   0  0  0  0  0  0  0  0  0  0  0  0
    6.5229  -17.6193   21.3123 C   0  0  2  0  0  0  0  0  0  0  0  0
    5.5493  -18.6601   21.5082 N   0  0  0  0  0  0  0  0  0  0  0  0
    7.7246  -17.9122   22.1258 C   0  0  0  0  0  0  0  0  0  0  0  0
    7.5627  -18.4204   23.2663 O   0  0  0  0  0  0  0  0  0  0  0  0
    7.4457  -14.4223   22.0750 C   0  0  0  0  0  0  0  0  0  0  0  0
    8.1834  -13.3988   21.5408 C   0  0  0  0  0  0  0  0  0  0  0  0
   13.9143  -17.8904   20.0541 N   0  0  0  0  0  0  0  0  0  0  0  0
   12.7721  -18.6446   19.6259 C   0  0  0  0  0  0  0  0  0  0  0  0
   12.8619  -19.3067   18.5589 O   0  0  0  0  0  0  0  0  0  0  0  0
   11.5173  -18.6702   20.3784 C   0  0  0  0  0  0  0  0  0  0  0  0
   11.3999  -17.6977   21.4910 C   0  0  0  0  0  0  0  0  0  0  0  0
   10.1885  -17.8561   22.3695 C   0  0  2  0  0  0  0  0  0  0  0  0
    8.9972  -17.6104   21.5901 N   0  0  0  0  0  0  0  0  0  0  0  0
   10.2273  -16.9615   23.5507 C   0  0  0  0  0  0  0  0  0  0  0  0
   10.1706  -15.7105   23.4900 O   0  0  0  0  0  0  0  0  0  0  0  0
   10.3356  -17.5542   24.8345 N   0  0  0  0  0  0  0  0  0  0  0  0
   10.1468  -16.8511   26.0672 C   0  0  1  0  0  0  0  0  0  0  0  0
    8.7740  -16.2474   26.2113 C   0  0  0  0  0  0  0  0  0  0  0  0
    8.7428  -14.7255   25.2189 S   0  0  0  0  0  0  0  0  0  0  0  0
   10.4030  -17.7657   27.2056 C   0  0  0  0  0  0  0  0  0  0  0  0
   10.4249  -17.3263   28.5241 O   0  0  0  0  0  0  0  0  0  0  0  0
   10.6105  -18.9822   27.0053 O   0  0  0  0  0  0  0  0  0  0  0  0
  2  1  1  0
  3  2  2  0
  4  3  1  0
  5 11  1  0
  5  4  2  0
  6  7  1  0
  6  5  1  0
  7  9  1  0
  7  8  1  1
  9 10  2  0
 11 12  2  0
 12  2  1  0
 14 13  1  0
 14 16  1  0
 15 14  2  0
 17 16  1  0
 18 17  1  6
 19  9  1  0
 19 18  1  0
 20 18  1  0
 20 21  2  0
 22 20  1  0
 23 22  1  0
 23 26  1  0
 23 24  1  1
 25 24  1  0
 26 27  1  0
 28 26  2  0
M  END
$$$$
