YQC.pdb
     RDKit          3D

 28 28  0  0  1  0  0  0  0  0999 V2000
   10.6731  -23.7781   20.0081 O   0  0  0  0  0  0  0  0  0  0  0  0
    9.7581  -22.7357   20.0168 C   0  0  0  0  0  0  0  0  0  0  0  0
    8.4722  -22.8949   20.4987 C   0  0  0  0  0  0  0  0  0  0  0  0
    7.6040  -21.8405   20.4881 C   0  0  0  0  0  0  0  0  0  0  0  0
    7.9543  -20.5948   20.0091 C   0  0  0  0  0  0  0  0  0  0  0  0
    7.0040  -19.4741   20.0071 C   0  0  0  0  0  0  0  0  0  0  0  0
    6.2376  -19.5211   18.6870 C   0  0  2  0  0  0  0  0  0  0  0  0
    5.7705  -20.8717   18.5220 N   0  0  0  0  0  0  0  0  0  0  0  0
    7.1258  -19.1676   17.5565 C   0  0  0  0  0  0  0  0  0  0  0  0
    7.5146  -20.0904   16.7933 O   0  0  0  0  0  0  0  0  0  0  0  0
    9.2440  -20.4161   19.5203 C   0  0  0  0  0  0  0  0  0  0  0  0
   10.1074  -21.4798   19.5352 C   0  0  0  0  0  0  0  0  0  0  0  0
    7.7453  -16.0724   12.3892 N   0  0  0  0  0  0  0  0  0  0  0  0
    7.3097  -15.2582   13.4864 C   0  0  0  0  0  0  0  0  0  0  0  0
    6.8886  -14.0984   13.2366 O   0  0  0  0  0  0  0  0  0  0  0  0
    7.3381  -15.7239   14.8734 C   0  0  0  0  0  0  0  0  0  0  0  0
    7.7010  -17.1462   15.0803 C   0  0  0  0  0  0  0  0  0  0  0  0
    8.4436  -17.4505   16.3533 C   0  0  2  0  0  0  0  0  0  0  0  0
    7.4981  -17.8153   17.3828 N   0  0  0  0  0  0  0  0  0  0  0  0
    9.2837  -16.3146   16.8017 C   0  0  0  0  0  0  0  0  0  0  0  0
    9.9453  -15.5795   16.0311 O   0  0  0  0  0  0  0  0  0  0  0  0
    9.3463  -16.0374   18.1910 N   0  0  0  0  0  0  0  0  0  0  0  0
    8.9674  -14.7905   18.7838 C   0  0  1  0  0  0  0  0  0  0  0  0
    7.5605  -14.3683   18.4491 C   0  0  0  0  0  0  0  0  0  0  0  0
    7.3706  -12.6411   18.9805 S   0  0  0  0  0  0  0  0  0  0  0  0
    9.1180  -14.8738   20.2563 C   0  0  0  0  0  0  0  0  0  0  0  0
    9.3226  -16.0792   20.9175 O   0  0  0  0  0  0  0  0  0  0  0  0
    9.0637  -13.8398   20.9572 O   0  0  0  0  0  0  0  0  0  0  0  0
  2  1  1  0
  3  2  2  0
  4  3  1  0
  5 11  1  0
  5  4  2  0
  6  7  1  0
  6  5  1  0
  7  9  1  0
  7  8  1  6
  9 10  2  0
 11 12  2  0
 12  2  1  0
 14 13  1  0
 14 16  1  0
 15 14  2  0
 17 16  1  0
 18 17  1  6
 19  9  1  0
 19 18  1  0
 20 18  1  0
 20 21  2  0
 22 20  1  0
 23 22  1  0
 23 26  1  0
 23 24  1  1
 25 24  1  0
 26 27  1  0
 28 26  2  0
M  END
$$$$
