YQC.pdb
     RDKit          3D

 28 28  0  0  1  0  0  0  0  0999 V2000
    5.5320  -10.4521   26.6686 O   0  0  0  0  0  0  0  0  0  0  0  0
    6.0848  -11.7014   26.4287 C   0  0  0  0  0  0  0  0  0  0  0  0
    7.2424  -11.8596   25.6898 C   0  0  0  0  0  0  0  0  0  0  0  0
    7.7515  -13.1093   25.4783 C   0  0  0  0  0  0  0  0  0  0  0  0
    7.1542  -14.2488   25.9771 C   0  0  0  0  0  0  0  0  0  0  0  0
    7.7193  -15.5838   25.7374 C   0  0  0  0  0  0  0  0  0  0  0  0
    6.8642  -16.2620   24.6691 C   0  0  2  0  0  0  0  0  0  0  0  0
    6.1876  -17.3587   25.3086 N   0  0  0  0  0  0  0  0  0  0  0  0
    7.7146  -16.7816   23.5742 C   0  0  0  0  0  0  0  0  0  0  0  0
    8.1885  -17.9425   23.6876 O   0  0  0  0  0  0  0  0  0  0  0  0
    5.9888  -14.1087   26.7229 C   0  0  0  0  0  0  0  0  0  0  0  0
    5.4860  -12.8511   26.9295 C   0  0  0  0  0  0  0  0  0  0  0  0
    7.7040  -12.1393   18.9366 N   0  0  0  0  0  0  0  0  0  0  0  0
    8.0118  -13.5396   18.9695 C   0  0  0  0  0  0  0  0  0  0  0  0
    7.8852  -14.2021   17.9065 O   0  0  0  0  0  0  0  0  0  0  0  0
    8.4627  -14.2191   20.1846 C   0  0  0  0  0  0  0  0  0  0  0  0
    8.5165  -15.6993   20.1267 C   0  0  0  0  0  0  0  0  0  0  0  0
    8.8665  -16.3895   21.4173 C   0  0  2  0  0  0  0  0  0  0  0  0
    7.9574  -15.9561   22.4530 N   0  0  0  0  0  0  0  0  0  0  0  0
   10.2702  -16.1445   21.8254 C   0  0  0  0  0  0  0  0  0  0  0  0
   10.9372  -15.1378   21.4883 O   0  0  0  0  0  0  0  0  0  0  0  0
   10.9040  -17.1080   22.6506 N   0  0  0  0  0  0  0  0  0  0  0  0
   12.1661  -16.9126   23.2975 C   0  0  1  0  0  0  0  0  0  0  0  0
   12.1743  -15.7565   24.2635 C   0  0  0  0  0  0  0  0  0  0  0  0
   11.3165  -16.3012   25.7699 S   0  0  0  0  0  0  0  0  0  0  0  0
   12.5562  -18.1519   24.0115 C   0  0  0  0  0  0  0  0  0  0  0  0
   11.6930  -19.2317   24.1562 O   0  0  0  0  0  0  0  0  0  0  0  0
   13.6963  -18.2608   24.5131 O   0  0  0  0  0  0  0  0  0  0  0  0
  2  1  1  0
  3  2  2  0
  4  3  1  0
  5 11  1  0
  5  4  2  0
  6  7  1  0
  6  5  1  0
  7  9  1  0
  7  8  1  1
  9 10  2  0
 11 12  2  0
 12  2  1  0
 14 13  1  0
 14 16  1  0
 15 14  2  0
 17 16  1  0
 18 17  1  6
 19  9  1  0
 19 18  1  0
 20 18  1  0
 20 21  2  0
 22 20  1  0
 23 22  1  0
 23 26  1  0
 23 24  1  1
 25 24  1  0
 26 27  1  0
 28 26  2  0
M  END
$$$$
