YQC.pdb
     RDKit          3D

 28 28  0  0  1  0  0  0  0  0999 V2000
    8.0046  -12.4002   16.2779 O   0  0  0  0  0  0  0  0  0  0  0  0
    7.8708  -13.0341   17.5044 C   0  0  0  0  0  0  0  0  0  0  0  0
    8.5577  -12.6094   18.6263 C   0  0  0  0  0  0  0  0  0  0  0  0
    8.3956  -13.2638   19.8142 C   0  0  0  0  0  0  0  0  0  0  0  0
    7.5606  -14.3535   19.9539 C   0  0  0  0  0  0  0  0  0  0  0  0
    7.4012  -15.0427   21.2417 C   0  0  0  0  0  0  0  0  0  0  0  0
    8.5188  -16.0775   21.3530 C   0  0  2  0  0  0  0  0  0  0  0  0
    8.2140  -17.1253   20.4157 N   0  0  0  0  0  0  0  0  0  0  0  0
    8.5709  -16.6424   22.7206 C   0  0  0  0  0  0  0  0  0  0  0  0
    7.7872  -17.5856   23.0057 O   0  0  0  0  0  0  0  0  0  0  0  0
    6.8614  -14.7948   18.8357 C   0  0  0  0  0  0  0  0  0  0  0  0
    7.0308  -14.1317   17.6487 C   0  0  0  0  0  0  0  0  0  0  0  0
   11.7453  -20.4295   24.8169 N   0  0  0  0  0  0  0  0  0  0  0  0
   12.1743  -19.2908   24.0580 C   0  0  0  0  0  0  0  0  0  0  0  0
   13.2073  -19.4039   23.3474 O   0  0  0  0  0  0  0  0  0  0  0  0
   11.4604  -18.0136   24.0814 C   0  0  0  0  0  0  0  0  0  0  0  0
   10.2886  -17.9338   24.9857 C   0  0  0  0  0  0  0  0  0  0  0  0
    9.5586  -16.6180   24.9915 C   0  0  2  0  0  0  0  0  0  0  0  0
    9.4940  -16.1012   23.6440 N   0  0  0  0  0  0  0  0  0  0  0  0
   10.1889  -15.6270   25.8957 C   0  0  0  0  0  0  0  0  0  0  0  0
   11.2432  -15.0020   25.6318 O   0  0  0  0  0  0  0  0  0  0  0  0
    9.5627  -15.3656   27.1410 N   0  0  0  0  0  0  0  0  0  0  0  0
   10.0454  -14.4246   28.1060 C   0  0  1  0  0  0  0  0  0  0  0  0
    9.0550  -13.3377   28.4338 C   0  0  0  0  0  0  0  0  0  0  0  0
    8.1193  -12.9799   26.9177 S   0  0  0  0  0  0  0  0  0  0  0  0
   10.4220  -15.1373   29.3503 C   0  0  0  0  0  0  0  0  0  0  0  0
   11.0352  -14.4956   30.4200 O   0  0  0  0  0  0  0  0  0  0  0  0
   10.1932  -16.3603   29.4728 O   0  0  0  0  0  0  0  0  0  0  0  0
  2  1  1  0
  3  2  2  0
  4  3  1  0
  5 11  1  0
  5  4  2  0
  6  7  1  0
  6  5  1  0
  7  9  1  0
  7  8  1  6
  9 10  2  0
 11 12  2  0
 12  2  1  0
 14 13  1  0
 14 16  1  0
 15 14  2  0
 17 16  1  0
 18 17  1  6
 19  9  1  0
 19 18  1  0
 20 18  1  0
 20 21  2  0
 22 20  1  0
 23 22  1  0
 23 26  1  0
 23 24  1  1
 25 24  1  0
 26 27  1  0
 28 26  2  0
M  END
$$$$
