YQC.pdb
     RDKit          3D

 28 28  0  0  1  0  0  0  0  0999 V2000
    8.6463  -13.3436   16.9436 O   0  0  0  0  0  0  0  0  0  0  0  0
    8.3509  -13.6872   18.2545 C   0  0  0  0  0  0  0  0  0  0  0  0
    9.2193  -14.4340   19.0286 C   0  0  0  0  0  0  0  0  0  0  0  0
    8.8874  -14.7493   20.3155 C   0  0  0  0  0  0  0  0  0  0  0  0
    7.7005  -14.3504   20.8955 C   0  0  0  0  0  0  0  0  0  0  0  0
    7.3636  -14.7010   22.2819 C   0  0  0  0  0  0  0  0  0  0  0  0
    6.9767  -16.1782   22.3036 C   0  0  2  0  0  0  0  0  0  0  0  0
    5.6342  -16.2669   21.7946 N   0  0  0  0  0  0  0  0  0  0  0  0
    7.0129  -16.7055   23.6866 C   0  0  0  0  0  0  0  0  0  0  0  0
    6.1285  -16.3187   24.4949 O   0  0  0  0  0  0  0  0  0  0  0  0
    6.8146  -13.5983   20.1315 C   0  0  0  0  0  0  0  0  0  0  0  0
    7.1566  -13.2871   18.8418 C   0  0  0  0  0  0  0  0  0  0  0  0
   10.1936  -21.7840   26.0425 N   0  0  0  0  0  0  0  0  0  0  0  0
   10.0204  -20.8675   27.1319 C   0  0  0  0  0  0  0  0  0  0  0  0
   10.4318  -21.2119   28.2707 O   0  0  0  0  0  0  0  0  0  0  0  0
    9.3870  -19.5586   26.9675 C   0  0  0  0  0  0  0  0  0  0  0  0
    8.9712  -19.1996   25.5907 C   0  0  0  0  0  0  0  0  0  0  0  0
    8.3652  -17.8317   25.4290 C   0  0  2  0  0  0  0  0  0  0  0  0
    8.0341  -17.6167   24.0393 N   0  0  0  0  0  0  0  0  0  0  0  0
    9.2600  -16.7567   25.9197 C   0  0  0  0  0  0  0  0  0  0  0  0
    9.6298  -15.7773   25.2298 O   0  0  0  0  0  0  0  0  0  0  0  0
    9.7309  -16.8368   27.2550 N   0  0  0  0  0  0  0  0  0  0  0  0
   10.3856  -15.7675   27.9460 C   0  0  1  0  0  0  0  0  0  0  0  0
    9.5370  -14.5301   28.0816 C   0  0  0  0  0  0  0  0  0  0  0  0
   10.5129  -13.2994   28.9952 S   0  0  0  0  0  0  0  0  0  0  0  0
   10.8023  -16.2271   29.2926 C   0  0  0  0  0  0  0  0  0  0  0  0
   10.3587  -17.4245   29.8417 O   0  0  0  0  0  0  0  0  0  0  0  0
   11.5804  -15.5350   29.9844 O   0  0  0  0  0  0  0  0  0  0  0  0
  2  1  1  0
  3  2  2  0
  4  3  1  0
  5 11  1  0
  5  4  2  0
  6  7  1  0
  6  5  1  0
  7  9  1  0
  7  8  1  1
  9 10  2  0
 11 12  2  0
 12  2  1  0
 14 13  1  0
 14 16  1  0
 15 14  2  0
 17 16  1  0
 18 17  1  6
 19  9  1  0
 19 18  1  0
 20 18  1  0
 20 21  2  0
 22 20  1  0
 23 22  1  0
 23 26  1  0
 23 24  1  1
 25 24  1  0
 26 27  1  0
 28 26  2  0
M  END
$$$$
