WSC.pdb
     RDKit          3D

 27 28  0  0  1  0  0  0  0  0999 V2000
    6.2858  -17.5218   24.2076 N   0  0  0  0  0  0  0  0  0  0  0  0
    7.1154  -16.5231   23.5825 C   0  0  1  0  0  0  0  0  0  0  0  0
    7.8561  -15.7561   24.6299 C   0  0  0  0  0  0  0  0  0  0  0  0
    6.9929  -14.8377   25.4134 C   0  0  0  0  0  0  0  0  0  0  0  0
    5.8265  -15.1771   26.1049 C   0  0  0  0  0  0  0  0  0  0  0  0
    5.3228  -14.0737   26.6581 N   0  0  0  0  0  0  0  0  0  0  0  0
    6.0715  -13.0097   26.3872 C   0  0  0  0  0  0  0  0  0  0  0  0
    5.9479  -11.6905   26.7446 C   0  0  0  0  0  0  0  0  0  0  0  0
    6.8860  -10.7683   26.3312 C   0  0  0  0  0  0  0  0  0  0  0  0
    7.9352  -11.2197   25.5574 C   0  0  0  0  0  0  0  0  0  0  0  0
    8.0460  -12.5476   25.2061 C   0  0  0  0  0  0  0  0  0  0  0  0
    7.1206  -13.4805   25.6077 C   0  0  0  0  0  0  0  0  0  0  0  0
    8.0185  -17.1988   22.6217 C   0  0  0  0  0  0  0  0  0  0  0  0
    8.5327  -18.3187   22.8950 O   0  0  0  0  0  0  0  0  0  0  0  0
    8.5169  -15.3316   19.4685 O   0  0  0  0  0  0  0  0  0  0  0  0
    9.6378  -16.1310   19.4269 C   0  0  0  0  0  0  0  0  0  0  0  0
    9.6712  -16.9477   20.7225 C   0  0  2  0  0  0  0  0  0  0  0  0
    8.3700  -16.6591   21.3519 N   0  0  0  0  0  0  0  0  0  0  0  0
   10.7823  -16.5844   21.5979 C   0  0  0  0  0  0  0  0  0  0  0  0
   10.8511  -15.5173   22.2603 O   0  0  0  0  0  0  0  0  0  0  0  0
   11.8807  -17.4731   21.7380 N   0  0  0  0  0  0  0  0  0  0  0  0
   12.9688  -17.1958   22.6550 C   0  0  1  0  0  0  0  0  0  0  0  0
   13.2589  -18.3681   23.5595 C   0  0  0  0  0  0  0  0  0  0  0  0
   11.9737  -18.3880   24.8512 S   0  0  0  0  0  0  0  0  0  0  0  0
   14.1727  -16.9143   21.8333 C   0  0  0  0  0  0  0  0  0  0  0  0
   14.1653  -16.9637   20.5618 O   0  0  0  0  0  0  0  0  0  0  0  0
   15.4086  -16.5724   22.4068 O   0  0  0  0  0  0  0  0  0  0  0  0
  2  1  1  1
  2 13  1  0
  3  2  1  0
  4  5  2  0
  4  3  1  0
  6  5  1  0
  7 12  2  0
  7  6  1  0
  8  7  1  0
  9 10  1  0
  9  8  2  0
 10 11  2  0
 11 12  1  0
 12  4  1  0
 13 14  2  0
 17 16  1  6
 16 15  1  0
 18 17  1  0
 18 13  1  0
 19 20  2  0
 19 17  1  0
 21 19  1  0
 22 25  1  0
 22 21  1  0
 22 23  1  1
 24 23  1  0
 25 27  1  0
 26 25  2  0
M  END
$$$$
