WSC.pdb
     RDKit          3D

 27 28  0  0  1  0  0  0  0  0999 V2000
    9.1423  -15.8254   25.4449 N   0  0  0  0  0  0  0  0  0  0  0  0
    8.1285  -16.4060   24.6014 C   0  0  1  0  0  0  0  0  0  0  0  0
    7.8736  -15.5115   23.4315 C   0  0  0  0  0  0  0  0  0  0  0  0
    7.6854  -14.0874   23.8044 C   0  0  0  0  0  0  0  0  0  0  0  0
    8.0162  -12.9722   23.0292 C   0  0  0  0  0  0  0  0  0  0  0  0
    7.7224  -11.8707   23.7203 N   0  0  0  0  0  0  0  0  0  0  0  0
    7.2140  -12.1666   24.9120 C   0  0  0  0  0  0  0  0  0  0  0  0
    6.7698  -11.3718   25.9388 C   0  0  0  0  0  0  0  0  0  0  0  0
    6.2693  -11.9408   27.0908 C   0  0  0  0  0  0  0  0  0  0  0  0
    6.2344  -13.3180   27.1661 C   0  0  0  0  0  0  0  0  0  0  0  0
    6.6843  -14.1032   26.1268 C   0  0  0  0  0  0  0  0  0  0  0  0
    7.1872  -13.5542   24.9720 C   0  0  0  0  0  0  0  0  0  0  0  0
    8.5730  -17.7612   24.1999 C   0  0  0  0  0  0  0  0  0  0  0  0
    9.7242  -18.1808   24.5030 O   0  0  0  0  0  0  0  0  0  0  0  0
    6.5374  -20.0207   21.4306 O   0  0  0  0  0  0  0  0  0  0  0  0
    7.0461  -20.7131   22.5072 C   0  0  0  0  0  0  0  0  0  0  0  0
    8.2930  -19.9656   22.9899 C   0  0  2  0  0  0  0  0  0  0  0  0
    7.7653  -18.6731   23.4629 N   0  0  0  0  0  0  0  0  0  0  0  0
    9.2923  -19.7848   21.9404 C   0  0  0  0  0  0  0  0  0  0  0  0
    9.1040  -19.1389   20.8776 O   0  0  0  0  0  0  0  0  0  0  0  0
   10.5798  -20.3631   22.0946 N   0  0  0  0  0  0  0  0  0  0  0  0
   11.6108  -20.1988   21.0886 C   0  0  1  0  0  0  0  0  0  0  0  0
   12.2464  -18.8317   21.1481 C   0  0  0  0  0  0  0  0  0  0  0  0
   12.1094  -18.2439   22.8674 S   0  0  0  0  0  0  0  0  0  0  0  0
   12.6510  -21.2236   21.3566 C   0  0  0  0  0  0  0  0  0  0  0  0
   12.5924  -22.0216   22.3460 O   0  0  0  0  0  0  0  0  0  0  0  0
   13.7766  -21.3827   20.5315 O   0  0  0  0  0  0  0  0  0  0  0  0
  2  1  1  1
  2 13  1  0
  3  2  1  0
  4  5  2  0
  4  3  1  0
  6  5  1  0
  7 12  2  0
  7  6  1  0
  8  7  1  0
  9 10  1  0
  9  8  2  0
 10 11  2  0
 11 12  1  0
 12  4  1  0
 13 14  2  0
 17 16  1  6
 16 15  1  0
 18 17  1  0
 18 13  1  0
 19 20  2  0
 19 17  1  0
 21 19  1  0
 22 25  1  0
 22 21  1  0
 22 23  1  1
 24 23  1  0
 25 27  1  0
 26 25  2  0
M  END
$$$$
