WSC.pdb
     RDKit          3D

 27 28  0  0  1  0  0  0  0  0999 V2000
    6.6658  -17.6891   23.8975 N   0  0  0  0  0  0  0  0  0  0  0  0
    7.7097  -16.7471   23.5821 C   0  0  1  0  0  0  0  0  0  0  0  0
    8.2203  -16.1214   24.8397 C   0  0  0  0  0  0  0  0  0  0  0  0
    7.2642  -15.1700   25.4588 C   0  0  0  0  0  0  0  0  0  0  0  0
    6.0586  -15.4916   26.0891 C   0  0  0  0  0  0  0  0  0  0  0  0
    5.4726  -14.3629   26.4888 N   0  0  0  0  0  0  0  0  0  0  0  0
    6.2020  -13.2984   26.1712 C   0  0  0  0  0  0  0  0  0  0  0  0
    6.0025  -11.9575   26.3843 C   0  0  0  0  0  0  0  0  0  0  0  0
    6.9372  -11.0395   25.9541 C   0  0  0  0  0  0  0  0  0  0  0  0
    8.0611  -11.5174   25.3122 C   0  0  0  0  0  0  0  0  0  0  0  0
    8.2475  -12.8670   25.1051 C   0  0  0  0  0  0  0  0  0  0  0  0
    7.3269  -13.7962   25.5257 C   0  0  0  0  0  0  0  0  0  0  0  0
    8.7676  -17.4564   22.8251 C   0  0  0  0  0  0  0  0  0  0  0  0
    9.1869  -18.5855   23.2026 O   0  0  0  0  0  0  0  0  0  0  0  0
   10.8808  -15.1968   20.2783 O   0  0  0  0  0  0  0  0  0  0  0  0
   10.9917  -16.5337   19.9661 C   0  0  0  0  0  0  0  0  0  0  0  0
   10.7445  -17.3303   21.2510 C   0  0  2  0  0  0  0  0  0  0  0  0
    9.3793  -16.9405   21.6475 N   0  0  0  0  0  0  0  0  0  0  0  0
   11.7135  -17.0330   22.3024 C   0  0  0  0  0  0  0  0  0  0  0  0
   11.6871  -16.0069   23.0295 O   0  0  0  0  0  0  0  0  0  0  0  0
   12.7743  -17.9429   22.5524 N   0  0  0  0  0  0  0  0  0  0  0  0
   13.4649  -17.9716   23.8268 C   0  0  1  0  0  0  0  0  0  0  0  0
   12.5462  -18.3587   24.9594 C   0  0  0  0  0  0  0  0  0  0  0  0
   13.5657  -18.4918   26.4638 S   0  0  0  0  0  0  0  0  0  0  0  0
   14.5444  -18.9847   23.7170 C   0  0  0  0  0  0  0  0  0  0  0  0
   14.4035  -20.0739   23.0743 O   0  0  0  0  0  0  0  0  0  0  0  0
   15.8016  -18.8087   24.3182 O   0  0  0  0  0  0  0  0  0  0  0  0
  2  1  1  1
  2 13  1  0
  3  2  1  0
  4  5  2  0
  4  3  1  0
  6  5  1  0
  7 12  2  0
  7  6  1  0
  8  7  1  0
  9 10  1  0
  9  8  2  0
 10 11  2  0
 11 12  1  0
 12  4  1  0
 13 14  2  0
 17 16  1  6
 16 15  1  0
 18 17  1  0
 18 13  1  0
 19 20  2  0
 19 17  1  0
 21 19  1  0
 22 25  1  0
 22 21  1  0
 22 23  1  1
 24 23  1  0
 25 27  1  0
 26 25  2  0
M  END
$$$$
