WSC.pdb
     RDKit          3D

 27 28  0  0  1  0  0  0  0  0999 V2000
    6.7221  -17.6317   24.0267 N   0  0  0  0  0  0  0  0  0  0  0  0
    7.4402  -16.5461   23.4083 C   0  0  1  0  0  0  0  0  0  0  0  0
    8.1802  -15.7728   24.4514 C   0  0  0  0  0  0  0  0  0  0  0  0
    7.2949  -14.9830   25.3430 C   0  0  0  0  0  0  0  0  0  0  0  0
    6.2863  -15.4829   26.1717 C   0  0  0  0  0  0  0  0  0  0  0  0
    5.6979  -14.4597   26.7914 N   0  0  0  0  0  0  0  0  0  0  0  0
    6.2420  -13.3000   26.4374 C   0  0  0  0  0  0  0  0  0  0  0  0
    5.9704  -12.0096   26.8171 C   0  0  0  0  0  0  0  0  0  0  0  0
    6.7036  -10.9638   26.2972 C   0  0  0  0  0  0  0  0  0  0  0  0
    7.7037  -11.2643   25.3956 C   0  0  0  0  0  0  0  0  0  0  0  0
    7.9647  -12.5652   25.0234 C   0  0  0  0  0  0  0  0  0  0  0  0
    7.2441  -13.6198   25.5300 C   0  0  0  0  0  0  0  0  0  0  0  0
    8.3350  -17.1080   22.3696 C   0  0  0  0  0  0  0  0  0  0  0  0
    8.7879  -18.2818   22.4718 O   0  0  0  0  0  0  0  0  0  0  0  0
    9.0313  -14.7697   19.5368 O   0  0  0  0  0  0  0  0  0  0  0  0
   10.0783  -15.6541   19.4004 C   0  0  0  0  0  0  0  0  0  0  0  0
   10.1026  -16.5379   20.6514 C   0  0  2  0  0  0  0  0  0  0  0  0
    8.7453  -16.3943   21.2079 N   0  0  0  0  0  0  0  0  0  0  0  0
   11.1226  -16.1346   21.6156 C   0  0  0  0  0  0  0  0  0  0  0  0
   10.9522  -15.2772   22.5200 O   0  0  0  0  0  0  0  0  0  0  0  0
   12.4101  -16.7308   21.5611 N   0  0  0  0  0  0  0  0  0  0  0  0
   13.2836  -16.7572   22.7178 C   0  0  1  0  0  0  0  0  0  0  0  0
   12.7009  -17.5692   23.8482 C   0  0  0  0  0  0  0  0  0  0  0  0
   13.8538  -17.4479   25.2540 S   0  0  0  0  0  0  0  0  0  0  0  0
   14.5605  -17.3805   22.2879 C   0  0  0  0  0  0  0  0  0  0  0  0
   14.6097  -18.3605   21.4777 O   0  0  0  0  0  0  0  0  0  0  0  0
   15.8080  -16.9283   22.7488 O   0  0  0  0  0  0  0  0  0  0  0  0
  2  1  1  1
  2 13  1  0
  3  2  1  0
  4  5  2  0
  4  3  1  0
  6  5  1  0
  7 12  2  0
  7  6  1  0
  8  7  1  0
  9 10  1  0
  9  8  2  0
 10 11  2  0
 11 12  1  0
 12  4  1  0
 13 14  2  0
 17 16  1  6
 16 15  1  0
 18 17  1  0
 18 13  1  0
 19 20  2  0
 19 17  1  0
 21 19  1  0
 22 25  1  0
 22 21  1  0
 22 23  1  1
 24 23  1  0
 25 27  1  0
 26 25  2  0
M  END
$$$$
