WSC.pdb
     RDKit          3D

 27 28  0  0  1  0  0  0  0  0999 V2000
    6.2322  -17.6625   23.9541 N   0  0  0  0  0  0  0  0  0  0  0  0
    6.7141  -16.3445   23.6270 C   0  0  1  0  0  0  0  0  0  0  0  0
    7.7599  -15.9318   24.6117 C   0  0  0  0  0  0  0  0  0  0  0  0
    7.2244  -15.1441   25.7498 C   0  0  0  0  0  0  0  0  0  0  0  0
    6.6371  -15.6524   26.9121 C   0  0  0  0  0  0  0  0  0  0  0  0
    6.2582  -14.6305   27.6798 N   0  0  0  0  0  0  0  0  0  0  0  0
    6.5507  -13.4640   27.1144 C   0  0  0  0  0  0  0  0  0  0  0  0
    6.3565  -12.1716   27.5329 C   0  0  0  0  0  0  0  0  0  0  0  0
    6.7689  -11.1173   26.7455 C   0  0  0  0  0  0  0  0  0  0  0  0
    7.3742  -11.4115   25.5411 C   0  0  0  0  0  0  0  0  0  0  0  0
    7.5621  -12.7145   25.1339 C   0  0  0  0  0  0  0  0  0  0  0  0
    7.1570  -13.7776   25.9045 C   0  0  0  0  0  0  0  0  0  0  0  0
    7.2153  -16.3616   22.2328 C   0  0  0  0  0  0  0  0  0  0  0  0
    7.7000  -17.4143   21.7325 O   0  0  0  0  0  0  0  0  0  0  0  0
    8.1196  -13.7963   18.2266 O   0  0  0  0  0  0  0  0  0  0  0  0
    7.6288  -13.8313   19.5130 C   0  0  0  0  0  0  0  0  0  0  0  0
    7.8772  -15.2389   20.0642 C   0  0  2  0  0  0  0  0  0  0  0  0
    7.1927  -15.2296   21.3696 N   0  0  0  0  0  0  0  0  0  0  0  0
    9.2961  -15.5546   20.2052 C   0  0  0  0  0  0  0  0  0  0  0  0
   10.0566  -15.8682   19.2536 O   0  0  0  0  0  0  0  0  0  0  0  0
    9.8961  -15.5147   21.4913 N   0  0  0  0  0  0  0  0  0  0  0  0
   11.3165  -15.7415   21.6733 C   0  0  1  0  0  0  0  0  0  0  0  0
   11.7163  -15.6867   23.1271 C   0  0  0  0  0  0  0  0  0  0  0  0
   13.5067  -16.0153   23.2103 S   0  0  0  0  0  0  0  0  0  0  0  0
   11.6148  -17.0961   21.1443 C   0  0  0  0  0  0  0  0  0  0  0  0
   10.8486  -18.0939   21.3356 O   0  0  0  0  0  0  0  0  0  0  0  0
   12.7693  -17.3698   20.3925 O   0  0  0  0  0  0  0  0  0  0  0  0
  2  1  1  1
  2 13  1  0
  3  2  1  0
  4  5  2  0
  4  3  1  0
  6  5  1  0
  7 12  2  0
  7  6  1  0
  8  7  1  0
  9 10  1  0
  9  8  2  0
 10 11  2  0
 11 12  1  0
 12  4  1  0
 13 14  2  0
 17 16  1  1
 16 15  1  0
 18 17  1  0
 18 13  1  0
 19 20  2  0
 19 17  1  0
 21 19  1  0
 22 25  1  0
 22 21  1  0
 22 23  1  1
 24 23  1  0
 25 27  1  0
 26 25  2  0
M  END
$$$$
