WSC.pdb
     RDKit          3D

 27 28  0  0  1  0  0  0  0  0999 V2000
    6.7523  -17.7456   25.4055 N   0  0  0  0  0  0  0  0  0  0  0  0
    6.5986  -17.1244   24.1144 C   0  0  1  0  0  0  0  0  0  0  0  0
    6.3733  -15.6568   24.2852 C   0  0  0  0  0  0  0  0  0  0  0  0
    6.9766  -15.1048   25.5237 C   0  0  0  0  0  0  0  0  0  0  0  0
    7.5939  -15.8317   26.5458 C   0  0  0  0  0  0  0  0  0  0  0  0
    7.9815  -14.9831   27.4980 N   0  0  0  0  0  0  0  0  0  0  0  0
    7.6679  -13.7294   27.1879 C   0  0  0  0  0  0  0  0  0  0  0  0
    7.8725  -12.5456   27.8510 C   0  0  0  0  0  0  0  0  0  0  0  0
    7.4494  -11.3564   27.2957 C   0  0  0  0  0  0  0  0  0  0  0  0
    6.8231  -11.4062   26.0674 C   0  0  0  0  0  0  0  0  0  0  0  0
    6.6244  -12.6028   25.4133 C   0  0  0  0  0  0  0  0  0  0  0  0
    7.0381  -13.7975   25.9515 C   0  0  0  0  0  0  0  0  0  0  0  0
    7.8000  -17.4285   23.3024 C   0  0  0  0  0  0  0  0  0  0  0  0
    8.7158  -18.1704   23.7545 O   0  0  0  0  0  0  0  0  0  0  0  0
    8.4930  -15.3785   19.9765 O   0  0  0  0  0  0  0  0  0  0  0  0
    8.9779  -16.6609   19.8443 C   0  0  0  0  0  0  0  0  0  0  0  0
    9.2633  -17.1943   21.2516 C   0  0  2  0  0  0  0  0  0  0  0  0
    8.0148  -16.9258   21.9877 N   0  0  0  0  0  0  0  0  0  0  0  0
   10.4090  -16.5478   21.8858 C   0  0  0  0  0  0  0  0  0  0  0  0
   10.3655  -15.4416   22.4830 O   0  0  0  0  0  0  0  0  0  0  0  0
   11.6786  -17.1822   21.8476 N   0  0  0  0  0  0  0  0  0  0  0  0
   12.8494  -16.5734   22.4481 C   0  0  1  0  0  0  0  0  0  0  0  0
   13.3339  -17.3448   23.6509 C   0  0  0  0  0  0  0  0  0  0  0  0
   12.1614  -17.0255   25.0088 S   0  0  0  0  0  0  0  0  0  0  0  0
   13.9182  -16.5701   21.4178 C   0  0  0  0  0  0  0  0  0  0  0  0
   13.7513  -17.0502   20.2512 O   0  0  0  0  0  0  0  0  0  0  0  0
   15.1932  -16.0337   21.6621 O   0  0  0  0  0  0  0  0  0  0  0  0
  2  1  1  1
  2 13  1  0
  3  2  1  0
  4  5  2  0
  4  3  1  0
  6  5  1  0
  7 12  2  0
  7  6  1  0
  8  7  1  0
  9 10  1  0
  9  8  2  0
 10 11  2  0
 11 12  1  0
 12  4  1  0
 13 14  2  0
 17 16  1  6
 16 15  1  0
 18 17  1  0
 18 13  1  0
 19 20  2  0
 19 17  1  0
 21 19  1  0
 22 25  1  0
 22 21  1  0
 22 23  1  1
 24 23  1  0
 25 27  1  0
 26 25  2  0
M  END
$$$$
