CMN.pdb
     RDKit          3D

 23 22  0  0  1  0  0  0  0  0999 V2000
    9.4248  -15.1824   19.4017 N   0  0  0  0  0  0  0  0  0  0  0  0
    8.5321  -15.6530   20.4365 C   0  0  1  0  0  0  0  0  0  0  0  0
    8.4298  -17.1570   20.3017 C   0  0  0  0  0  0  0  0  0  0  0  0
    6.9501  -17.7372   21.1851 S   0  0  0  0  0  0  0  0  0  0  0  0
    9.0453  -15.3122   21.7942 C   0  0  0  0  0  0  0  0  0  0  0  0
    9.8703  -14.3859   21.9197 O   0  0  0  0  0  0  0  0  0  0  0  0
    6.5308  -11.4732   27.3502 C   0  0  0  0  0  0  0  0  0  0  0  0
    6.5183  -12.1993   25.6816 S   0  0  0  0  0  0  0  0  0  0  0  0
    7.6536  -13.6329   25.7245 C   0  0  0  0  0  0  0  0  0  0  0  0
    7.7460  -14.2730   24.3684 C   0  0  0  0  0  0  0  0  0  0  0  0
    8.6049  -15.4788   24.2730 C   0  0  2  0  0  0  0  0  0  0  0  0
    8.5952  -16.0368   22.9207 N   0  0  0  0  0  0  0  0  0  0  0  0
    8.2674  -16.5196   25.2671 C   0  0  0  0  0  0  0  0  0  0  0  0
    7.2862  -17.2798   25.1087 O   0  0  0  0  0  0  0  0  0  0  0  0
    9.4875  -19.7099   23.6147 N   0  0  0  0  0  0  0  0  0  0  0  0
    9.8818  -19.6533   24.9579 C   0  0  0  0  0  0  0  0  0  0  0  0
    9.6820  -20.7028   25.6472 O   0  0  0  0  0  0  0  0  0  0  0  0
   10.4954  -18.4434   25.5309 C   0  0  0  0  0  0  0  0  0  0  0  0
    9.7045  -17.9528   26.7033 C   0  0  2  0  0  0  0  0  0  0  0  0
    9.0692  -16.6838   26.4540 N   0  0  0  0  0  0  0  0  0  0  0  0
   10.5084  -17.8172   27.9455 C   0  0  0  0  0  0  0  0  0  0  0  0
   10.3238  -18.6280   29.0303 O   0  0  0  0  0  0  0  0  0  0  0  0
   11.4054  -16.9273   28.0325 O   0  0  0  0  0  0  0  0  0  0  0  0
  2  1  1  6
  3  2  1  0
  4  3  1  0
  5  2  1  0
  5 12  1  0
  6  5  2  0
  7  8  1  0
  8  9  1  0
  9 10  1  0
 11 10  1  6
 11 12  1  0
 11 13  1  0
 13 20  1  0
 13 14  2  0
 16 17  2  0
 16 15  1  0
 18 16  1  0
 19 21  1  0
 19 18  1  6
 20 19  1  0
 21 22  1  0
 23 21  2  0
M  END
$$$$
