CMN.pdb
     RDKit          3D

 23 22  0  0  1  0  0  0  0  0999 V2000
    8.1304  -14.7064   19.4944 N   0  0  0  0  0  0  0  0  0  0  0  0
    7.5171  -15.3326   20.6437 C   0  0  1  0  0  0  0  0  0  0  0  0
    7.4163  -16.8151   20.3561 C   0  0  0  0  0  0  0  0  0  0  0  0
    6.5589  -17.6345   21.7345 S   0  0  0  0  0  0  0  0  0  0  0  0
    8.3295  -15.1222   21.8761 C   0  0  0  0  0  0  0  0  0  0  0  0
    9.5733  -15.1099   21.7920 O   0  0  0  0  0  0  0  0  0  0  0  0
    5.3281  -11.9280   26.5079 C   0  0  0  0  0  0  0  0  0  0  0  0
    7.0912  -11.8770   26.9559 S   0  0  0  0  0  0  0  0  0  0  0  0
    8.0099  -12.6135   25.5561 C   0  0  0  0  0  0  0  0  0  0  0  0
    7.6485  -14.0626   25.3924 C   0  0  0  0  0  0  0  0  0  0  0  0
    8.4249  -14.8184   24.3790 C   0  0  2  0  0  0  0  0  0  0  0  0
    7.6873  -14.9395   23.1214 N   0  0  0  0  0  0  0  0  0  0  0  0
    8.8688  -16.1470   24.8511 C   0  0  0  0  0  0  0  0  0  0  0  0
    8.0639  -17.0963   24.9805 O   0  0  0  0  0  0  0  0  0  0  0  0
   13.3185  -17.1440   23.2480 N   0  0  0  0  0  0  0  0  0  0  0  0
   12.3032  -17.9314   23.8067 C   0  0  0  0  0  0  0  0  0  0  0  0
   11.5837  -18.5854   22.9875 O   0  0  0  0  0  0  0  0  0  0  0  0
   12.0898  -17.9950   25.2624 C   0  0  0  0  0  0  0  0  0  0  0  0
   10.6630  -17.6959   25.6021 C   0  0  2  0  0  0  0  0  0  0  0  0
   10.2536  -16.3815   25.1769 N   0  0  0  0  0  0  0  0  0  0  0  0
   10.3619  -17.8136   27.0524 C   0  0  0  0  0  0  0  0  0  0  0  0
   10.1598  -16.7222   27.8500 O   0  0  0  0  0  0  0  0  0  0  0  0
   10.2826  -18.9537   27.5984 O   0  0  0  0  0  0  0  0  0  0  0  0
  2  1  1  6
  3  2  1  0
  4  3  1  0
  5  2  1  0
  5 12  1  0
  6  5  2  0
  7  8  1  0
  8  9  1  0
  9 10  1  0
 11 10  1  1
 11 12  1  0
 11 13  1  0
 13 20  1  0
 13 14  2  0
 16 17  2  0
 16 15  1  0
 18 16  1  0
 19 21  1  0
 19 18  1  1
 20 19  1  0
 21 22  1  0
 23 21  2  0
M  END
$$$$
