CMN.pdb
     RDKit          3D

 23 22  0  0  1  0  0  0  0  0999 V2000
    7.0806  -16.9122   21.5307 N   0  0  0  0  0  0  0  0  0  0  0  0
    8.2198  -16.1546   21.0643 C   0  0  1  0  0  0  0  0  0  0  0  0
    7.7129  -15.1358   20.0665 C   0  0  0  0  0  0  0  0  0  0  0  0
    6.8539  -15.9983   18.7156 S   0  0  0  0  0  0  0  0  0  0  0  0
    8.9012  -15.4497   22.1877 C   0  0  0  0  0  0  0  0  0  0  0  0
    9.9924  -14.8836   21.9802 O   0  0  0  0  0  0  0  0  0  0  0  0
    6.9170  -11.5665   27.2527 C   0  0  0  0  0  0  0  0  0  0  0  0
    5.8437  -12.4151   26.0529 S   0  0  0  0  0  0  0  0  0  0  0  0
    6.9478  -13.1938   24.8198 C   0  0  0  0  0  0  0  0  0  0  0  0
    7.9101  -14.1318   25.4917 C   0  0  0  0  0  0  0  0  0  0  0  0
    8.9279  -14.7610   24.6148 C   0  0  2  0  0  0  0  0  0  0  0  0
    8.3084  -15.4290   23.4702 N   0  0  0  0  0  0  0  0  0  0  0  0
    9.8283  -15.6881   25.3327 C   0  0  0  0  0  0  0  0  0  0  0  0
   10.3712  -15.3653   26.4129 O   0  0  0  0  0  0  0  0  0  0  0  0
   11.9129  -18.6690   28.0031 N   0  0  0  0  0  0  0  0  0  0  0  0
   10.7336  -19.2895   27.5702 C   0  0  0  0  0  0  0  0  0  0  0  0
   10.2380  -20.1619   28.3510 O   0  0  0  0  0  0  0  0  0  0  0  0
   10.1078  -18.9426   26.2831 C   0  0  0  0  0  0  0  0  0  0  0  0
   10.9178  -17.9113   25.5612 C   0  0  2  0  0  0  0  0  0  0  0  0
   10.1043  -16.9986   24.7987 N   0  0  0  0  0  0  0  0  0  0  0  0
   11.9288  -18.4906   24.6392 C   0  0  0  0  0  0  0  0  0  0  0  0
   13.0873  -17.8396   24.3193 O   0  0  0  0  0  0  0  0  0  0  0  0
   11.7387  -19.6278   24.1151 O   0  0  0  0  0  0  0  0  0  0  0  0
  2  1  1  1
  3  2  1  0
  4  3  1  0
  5  2  1  0
  5 12  1  0
  6  5  2  0
  7  8  1  0
  8  9  1  0
  9 10  1  0
 11 10  1  1
 11 12  1  0
 11 13  1  0
 13 20  1  0
 13 14  2  0
 16 17  2  0
 16 15  1  0
 18 16  1  0
 19 21  1  0
 19 18  1  6
 20 19  1  0
 21 22  1  0
 23 21  2  0
M  END
$$$$
