CMN.pdb
     RDKit          3D

 23 22  0  0  1  0  0  0  0  0999 V2000
    7.2087  -17.4450   20.5448 N   0  0  0  0  0  0  0  0  0  0  0  0
    6.8780  -17.4319   21.9519 C   0  0  1  0  0  0  0  0  0  0  0  0
    7.0520  -18.8415   22.4747 C   0  0  0  0  0  0  0  0  0  0  0  0
    5.7670  -19.1817   23.7155 S   0  0  0  0  0  0  0  0  0  0  0  0
    7.7694  -16.5093   22.7117 C   0  0  0  0  0  0  0  0  0  0  0  0
    8.8929  -16.2285   22.2498 O   0  0  0  0  0  0  0  0  0  0  0  0
    5.5295  -11.4595   26.1748 C   0  0  0  0  0  0  0  0  0  0  0  0
    6.7242  -12.1454   27.3639 S   0  0  0  0  0  0  0  0  0  0  0  0
    7.9386  -13.1079   26.3920 C   0  0  0  0  0  0  0  0  0  0  0  0
    7.2420  -14.1407   25.5521 C   0  0  0  0  0  0  0  0  0  0  0  0
    8.1116  -14.9655   24.6778 C   0  0  2  0  0  0  0  0  0  0  0  0
    7.3364  -15.9639   23.9412 N   0  0  0  0  0  0  0  0  0  0  0  0
    9.2310  -15.6062   25.4002 C   0  0  0  0  0  0  0  0  0  0  0  0
   10.0599  -14.9310   26.0505 O   0  0  0  0  0  0  0  0  0  0  0  0
   11.8507  -18.2259   23.7230 N   0  0  0  0  0  0  0  0  0  0  0  0
   12.4544  -17.3092   24.5938 C   0  0  0  0  0  0  0  0  0  0  0  0
   13.6003  -16.8784   24.2506 O   0  0  0  0  0  0  0  0  0  0  0  0
   11.7909  -16.8718   25.8336 C   0  0  0  0  0  0  0  0  0  0  0  0
   10.5192  -17.6311   26.0501 C   0  0  2  0  0  0  0  0  0  0  0  0
    9.3949  -17.0383   25.3713 N   0  0  0  0  0  0  0  0  0  0  0  0
   10.1533  -17.7782   27.4826 C   0  0  0  0  0  0  0  0  0  0  0  0
   10.1613  -18.9869   28.1208 O   0  0  0  0  0  0  0  0  0  0  0  0
    9.8178  -16.7647   28.1641 O   0  0  0  0  0  0  0  0  0  0  0  0
  2  1  1  6
  3  2  1  0
  4  3  1  0
  5  2  1  0
  5 12  1  0
  6  5  2  0
  7  8  1  0
  8  9  1  0
  9 10  1  0
 11 10  1  1
 11 12  1  0
 11 13  1  0
 13 20  1  0
 13 14  2  0
 16 17  2  0
 16 15  1  0
 18 16  1  0
 19 21  1  0
 19 18  1  1
 20 19  1  0
 21 22  1  0
 23 21  2  0
M  END
$$$$
