CMN.pdb
     RDKit          3D

 23 22  0  0  1  0  0  0  0  0999 V2000
    7.5284  -15.4731   20.2126 N   0  0  0  0  0  0  0  0  0  0  0  0
    8.9038  -15.0521   20.3553 C   0  0  1  0  0  0  0  0  0  0  0  0
    9.0835  -13.7939   19.5337 C   0  0  0  0  0  0  0  0  0  0  0  0
    7.5995  -13.5266   18.5173 S   0  0  0  0  0  0  0  0  0  0  0  0
    9.2398  -14.7649   21.7792 C   0  0  0  0  0  0  0  0  0  0  0  0
   10.3900  -14.3808   22.0691 O   0  0  0  0  0  0  0  0  0  0  0  0
    6.8121  -10.9755   26.5394 C   0  0  0  0  0  0  0  0  0  0  0  0
    6.3214  -12.6661   27.0004 S   0  0  0  0  0  0  0  0  0  0  0  0
    7.6211  -13.7829   26.3606 C   0  0  0  0  0  0  0  0  0  0  0  0
    7.4654  -13.9788   24.8791 C   0  0  0  0  0  0  0  0  0  0  0  0
    8.5449  -14.7409   24.2046 C   0  0  2  0  0  0  0  0  0  0  0  0
    8.2583  -14.9292   22.7824 N   0  0  0  0  0  0  0  0  0  0  0  0
    8.8400  -16.0371   24.8512 C   0  0  0  0  0  0  0  0  0  0  0  0
    8.0102  -16.9736   24.8452 O   0  0  0  0  0  0  0  0  0  0  0  0
   12.6809  -18.4143   23.3312 N   0  0  0  0  0  0  0  0  0  0  0  0
   11.7297  -18.6957   24.3207 C   0  0  0  0  0  0  0  0  0  0  0  0
   10.8368  -19.5480   24.0161 O   0  0  0  0  0  0  0  0  0  0  0  0
   11.7707  -18.0392   25.6383 C   0  0  0  0  0  0  0  0  0  0  0  0
   10.4086  -17.5610   26.0343 C   0  0  2  0  0  0  0  0  0  0  0  0
   10.1038  -16.2537   25.5105 N   0  0  0  0  0  0  0  0  0  0  0  0
   10.2006  -17.5161   27.5048 C   0  0  0  0  0  0  0  0  0  0  0  0
    9.9761  -18.6411   28.2480 O   0  0  0  0  0  0  0  0  0  0  0  0
   10.2272  -16.4097   28.1207 O   0  0  0  0  0  0  0  0  0  0  0  0
  2  1  1  1
  3  2  1  0
  4  3  1  0
  5  2  1  0
  5 12  1  0
  6  5  2  0
  7  8  1  0
  8  9  1  0
  9 10  1  0
 11 10  1  1
 11 12  1  0
 11 13  1  0
 13 20  1  0
 13 14  2  0
 16 17  2  0
 16 15  1  0
 18 16  1  0
 19 21  1  0
 19 18  1  1
 20 19  1  0
 21 22  1  0
 23 21  2  0
M  END
$$$$
