CMN.pdb
     RDKit          3D

 23 22  0  0  1  0  0  0  0  0999 V2000
    6.4209  -16.2159   20.5191 N   0  0  0  0  0  0  0  0  0  0  0  0
    7.4996  -15.3188   20.1713 C   0  0  1  0  0  0  0  0  0  0  0  0
    6.9272  -14.2434   19.2732 C   0  0  0  0  0  0  0  0  0  0  0  0
    8.2744  -13.1669   18.6962 S   0  0  0  0  0  0  0  0  0  0  0  0
    8.0933  -14.6860   21.3837 C   0  0  0  0  0  0  0  0  0  0  0  0
    9.2086  -14.1350   21.3002 O   0  0  0  0  0  0  0  0  0  0  0  0
    7.6093  -11.7113   27.5665 C   0  0  0  0  0  0  0  0  0  0  0  0
    6.0942  -12.5942   27.0799 S   0  0  0  0  0  0  0  0  0  0  0  0
    6.6126  -13.9573   25.9759 C   0  0  0  0  0  0  0  0  0  0  0  0
    7.0466  -13.4193   24.6419 C   0  0  0  0  0  0  0  0  0  0  0  0
    7.9862  -14.2691   23.8699 C   0  0  2  0  0  0  0  0  0  0  0  0
    7.3917  -14.7155   22.6099 N   0  0  0  0  0  0  0  0  0  0  0  0
    8.5015  -15.4219   24.6385 C   0  0  0  0  0  0  0  0  0  0  0  0
    7.7946  -16.4319   24.8531 O   0  0  0  0  0  0  0  0  0  0  0  0
   12.0214  -18.8649   23.7184 N   0  0  0  0  0  0  0  0  0  0  0  0
   12.6310  -17.6856   24.1665 C   0  0  0  0  0  0  0  0  0  0  0  0
   13.8616  -17.7707   24.4745 O   0  0  0  0  0  0  0  0  0  0  0  0
   11.8823  -16.4216   24.2690 C   0  0  0  0  0  0  0  0  0  0  0  0
   10.6416  -16.6058   25.0861 C   0  0  2  0  0  0  0  0  0  0  0  0
    9.8440  -15.4083   25.1641 N   0  0  0  0  0  0  0  0  0  0  0  0
   10.9090  -17.0595   26.4754 C   0  0  0  0  0  0  0  0  0  0  0  0
   10.3856  -16.4252   27.5672 O   0  0  0  0  0  0  0  0  0  0  0  0
   11.6447  -18.0683   26.6881 O   0  0  0  0  0  0  0  0  0  0  0  0
  2  1  1  1
  3  2  1  0
  4  3  1  0
  5  2  1  0
  5 12  1  0
  6  5  2  0
  7  8  1  0
  8  9  1  0
  9 10  1  0
 11 10  1  1
 11 12  1  0
 11 13  1  0
 13 20  1  0
 13 14  2  0
 16 17  2  0
 16 15  1  0
 18 16  1  0
 19 21  1  0
 19 18  1  1
 20 19  1  0
 21 22  1  0
 23 21  2  0
M  END
$$$$
