CMN.pdb
     RDKit          3D

 23 22  0  0  1  0  0  0  0  0999 V2000
    9.3747  -15.1485   19.5511 N   0  0  0  0  0  0  0  0  0  0  0  0
    8.2922  -15.4216   20.4691 C   0  0  1  0  0  0  0  0  0  0  0  0
    7.8341  -16.8432   20.2245 C   0  0  0  0  0  0  0  0  0  0  0  0
    7.9620  -17.2155   18.4493 S   0  0  0  0  0  0  0  0  0  0  0  0
    8.7324  -15.2810   21.8866 C   0  0  0  0  0  0  0  0  0  0  0  0
    9.9488  -15.3305   22.1554 O   0  0  0  0  0  0  0  0  0  0  0  0
    7.0441  -11.9361   27.5112 C   0  0  0  0  0  0  0  0  0  0  0  0
    6.0165  -11.9418   26.0094 S   0  0  0  0  0  0  0  0  0  0  0  0
    6.9644  -12.8393   24.7281 C   0  0  0  0  0  0  0  0  0  0  0  0
    7.1356  -14.2816   25.1124 C   0  0  0  0  0  0  0  0  0  0  0  0
    8.1293  -15.0531   24.3260 C   0  0  2  0  0  0  0  0  0  0  0  0
    7.7735  -15.0939   22.9075 N   0  0  0  0  0  0  0  0  0  0  0  0
    8.3552  -16.4188   24.8446 C   0  0  0  0  0  0  0  0  0  0  0  0
    7.7746  -17.4099   24.3482 O   0  0  0  0  0  0  0  0  0  0  0  0
   12.2299  -18.8734   22.8886 N   0  0  0  0  0  0  0  0  0  0  0  0
   11.1229  -18.5239   23.6731 C   0  0  0  0  0  0  0  0  0  0  0  0
   10.1126  -19.2915   23.5936 O   0  0  0  0  0  0  0  0  0  0  0  0
   11.1380  -17.3343   24.5411 C   0  0  0  0  0  0  0  0  0  0  0  0
   10.3435  -17.5772   25.7863 C   0  0  2  0  0  0  0  0  0  0  0  0
    9.2589  -16.6421   25.9456 N   0  0  0  0  0  0  0  0  0  0  0  0
   11.1594  -17.5354   27.0274 C   0  0  0  0  0  0  0  0  0  0  0  0
   11.6732  -16.3719   27.5280 O   0  0  0  0  0  0  0  0  0  0  0  0
   11.4047  -18.6004   27.6675 O   0  0  0  0  0  0  0  0  0  0  0  0
  2  1  1  6
  3  2  1  0
  4  3  1  0
  5  2  1  0
  5 12  1  0
  6  5  2  0
  7  8  1  0
  8  9  1  0
  9 10  1  0
 11 10  1  1
 11 12  1  0
 11 13  1  0
 13 20  1  0
 13 14  2  0
 16 17  2  0
 16 15  1  0
 18 16  1  0
 19 21  1  0
 19 18  1  6
 20 19  1  0
 21 22  1  0
 23 21  2  0
M  END
$$$$
