CMN.pdb
     RDKit          3D

 23 22  0  0  1  0  0  0  0  0999 V2000
    8.4119  -15.5859   19.1034 N   0  0  0  0  0  0  0  0  0  0  0  0
    7.4614  -15.3732   20.1714 C   0  0  1  0  0  0  0  0  0  0  0  0
    6.6375  -16.6355   20.3072 C   0  0  0  0  0  0  0  0  0  0  0  0
    7.7116  -17.9936   20.8625 S   0  0  0  0  0  0  0  0  0  0  0  0
    8.1493  -15.0905   21.4636 C   0  0  0  0  0  0  0  0  0  0  0  0
    9.3770  -15.2866   21.5569 O   0  0  0  0  0  0  0  0  0  0  0  0
    6.3502  -10.8397   26.4152 C   0  0  0  0  0  0  0  0  0  0  0  0
    6.3533  -12.5004   27.1593 S   0  0  0  0  0  0  0  0  0  0  0  0
    7.5542  -13.4997   26.2079 C   0  0  0  0  0  0  0  0  0  0  0  0
    7.1119  -13.6354   24.7785 C   0  0  0  0  0  0  0  0  0  0  0  0
    7.9931  -14.4389   23.8961 C   0  0  2  0  0  0  0  0  0  0  0  0
    7.4091  -14.6054   22.5652 N   0  0  0  0  0  0  0  0  0  0  0  0
    8.3596  -15.7508   24.4706 C   0  0  0  0  0  0  0  0  0  0  0  0
    7.5414  -16.6966   24.5127 O   0  0  0  0  0  0  0  0  0  0  0  0
   12.4797  -16.9118   22.8995 N   0  0  0  0  0  0  0  0  0  0  0  0
   12.1089  -17.0665   24.2417 C   0  0  0  0  0  0  0  0  0  0  0  0
   12.7550  -16.3708   25.0873 O   0  0  0  0  0  0  0  0  0  0  0  0
   11.0280  -17.9829   24.6422 C   0  0  0  0  0  0  0  0  0  0  0  0
   10.0278  -17.2776   25.5041 C   0  0  2  0  0  0  0  0  0  0  0  0
    9.6818  -15.9725   25.0010 N   0  0  0  0  0  0  0  0  0  0  0  0
   10.4705  -17.1138   26.9130 C   0  0  0  0  0  0  0  0  0  0  0  0
   10.7872  -18.1779   27.7103 O   0  0  0  0  0  0  0  0  0  0  0  0
   10.5685  -15.9582   27.4220 O   0  0  0  0  0  0  0  0  0  0  0  0
  2  1  1  6
  3  2  1  0
  4  3  1  0
  5  2  1  0
  5 12  1  0
  6  5  2  0
  7  8  1  0
  8  9  1  0
  9 10  1  0
 11 10  1  1
 11 12  1  0
 11 13  1  0
 13 20  1  0
 13 14  2  0
 16 17  2  0
 16 15  1  0
 18 16  1  0
 19 21  1  0
 19 18  1  6
 20 19  1  0
 21 22  1  0
 23 21  2  0
M  END
$$$$
