RIM.pdb
     RDKit          3D

 28 27  0  0  1  0  0  0  0  0999 V2000
    8.1533  -11.9754   18.0734 N   0  0  0  0  0  0  0  0  0  0  0  0
    8.0678  -13.1254   17.2395 C   0  0  0  0  0  0  0  0  0  0  0  0
    7.9070  -12.9404   15.9852 N   0  0  0  0  0  0  0  0  0  0  0  0
    8.1576  -14.4630   17.7821 N   0  0  0  0  0  0  0  0  0  0  0  0
    6.9724  -15.0550   18.3271 C   0  0  0  0  0  0  0  0  0  0  0  0
    7.1069  -16.2477   19.1762 C   0  0  0  0  0  0  0  0  0  0  0  0
    8.4509  -16.6419   19.6792 C   0  0  0  0  0  0  0  0  0  0  0  0
    8.5027  -17.3094   20.9923 C   0  0  2  0  0  0  0  0  0  0  0  0
    7.2053  -17.8282   21.3757 N   0  0  0  0  0  0  0  0  0  0  0  0
    9.0090  -16.3696   22.0712 C   0  0  0  0  0  0  0  0  0  0  0  0
   10.0219  -15.6565   21.8636 O   0  0  0  0  0  0  0  0  0  0  0  0
    7.8578  -13.7668   15.3552 C   0  0  0  0  0  0  0  0  0  0  0  0
    6.3928  -12.8025   24.9369 C   0  0  0  0  0  0  0  0  0  0  0  0
    7.4265  -13.6354   24.2059 C   0  0  2  0  0  0  0  0  0  0  0  0
    8.0256  -14.6449   25.1578 C   0  0  0  0  0  0  0  0  0  0  0  0
    8.6504  -14.0037   26.3711 C   0  0  2  0  0  0  0  0  0  0  0  0
    8.9810  -15.5911   24.4696 N   0  0  0  0  0  0  0  0  0  0  0  0
    8.3740  -16.2577   23.3336 C   0  0  0  0  0  0  0  0  0  0  0  0
    9.5092  -16.6157   25.4053 O   0  0  0  0  0  0  0  0  0  0  0  0
    8.7507  -17.4679   25.9776 C   0  0  0  0  0  0  0  0  0  0  0  0
   10.2956  -13.0834   29.3380 S   0  0  0  0  0  0  0  0  0  0  0  0
   10.3096  -14.6108   30.3413 C   0  0  0  0  0  0  0  0  0  0  0  0
   10.9912  -15.9454   29.3634 C   0  0  0  0  0  0  0  0  0  0  0  0
   10.8349  -15.8362   27.8944 C   0  0  1  0  0  0  0  0  0  0  0  0
   11.4021  -16.9415   27.0687 N   0  0  0  0  0  0  0  0  0  0  0  0
   10.8841  -16.6756   25.6915 C   0  0  0  0  0  0  0  0  0  0  0  0
   10.9709  -18.2663   27.4932 O   0  0  0  0  0  0  0  0  0  0  0  0
    9.7931  -18.3449   28.0104 O   0  0  0  0  0  0  0  0  0  0  0  0
  2  4  1  0
  2  1  1  0
  3  2  2  0
  5  4  1  0
  6  5  1  0
  7  6  1  0
  8 10  1  0
  8  7  1  0
  8  9  1  1
 10 11  2  0
 12 13  1  0
 14 13  1  0
 14 16  1  0
 14 15  1  1
 16 18  1  0
 16 17  1  6
 17 10  1  0
 18 19  2  0
 20 21  1  0
 21 22  1  0
 22 23  1  0
 24 23  1  6
 24 26  1  0
 25 24  1  0
 25 18  1  0
 26 27  2  0
 26 28  1  0
M  END
$$$$
