RIM.pdb
     RDKit          3D

 28 27  0  0  1  0  0  0  0  0999 V2000
   14.9610  -20.5892   18.8358 N   0  0  0  0  0  0  0  0  0  0  0  0
   13.9868  -21.5987   18.5967 C   0  0  0  0  0  0  0  0  0  0  0  0
   14.1676  -22.3756   17.5981 N   0  0  0  0  0  0  0  0  0  0  0  0
   12.8272  -21.7492   19.4476 N   0  0  0  0  0  0  0  0  0  0  0  0
   12.6062  -20.7727   20.4721 C   0  0  0  0  0  0  0  0  0  0  0  0
   12.3547  -19.3795   20.0753 C   0  0  0  0  0  0  0  0  0  0  0  0
   11.0085  -18.9917   19.5735 C   0  0  0  0  0  0  0  0  0  0  0  0
   10.8543  -17.6142   19.0724 C   0  0  2  0  0  0  0  0  0  0  0  0
   11.9983  -17.2054   18.2828 N   0  0  0  0  0  0  0  0  0  0  0  0
   10.6496  -16.6310   20.2104 C   0  0  0  0  0  0  0  0  0  0  0  0
   11.6390  -16.0910   20.7646 O   0  0  0  0  0  0  0  0  0  0  0  0
   13.4965  -23.1537   17.4357 C   0  0  0  0  0  0  0  0  0  0  0  0
    6.5659  -13.0251   20.0000 C   0  0  0  0  0  0  0  0  0  0  0  0
    7.9113  -13.6855   20.2238 C   0  0  2  0  0  0  0  0  0  0  0  0
    7.8655  -14.5062   21.4921 C   0  0  0  0  0  0  0  0  0  0  0  0
    7.4899  -13.6893   22.7026 C   0  0  2  0  0  0  0  0  0  0  0  0
    9.1362  -15.2909   21.7181 N   0  0  0  0  0  0  0  0  0  0  0  0
    9.3600  -16.2864   20.6874 C   0  0  0  0  0  0  0  0  0  0  0  0
    9.1413  -15.9589   23.0440 O   0  0  0  0  0  0  0  0  0  0  0  0
    8.5174  -17.0522   23.2559 C   0  0  0  0  0  0  0  0  0  0  0  0
   11.0092  -12.5273   28.3063 S   0  0  0  0  0  0  0  0  0  0  0  0
   10.0306  -13.8966   29.0184 C   0  0  0  0  0  0  0  0  0  0  0  0
   10.0205  -15.2668   27.8677 C   0  0  0  0  0  0  0  0  0  0  0  0
    9.9762  -14.9218   26.4278 C   0  0  1  0  0  0  0  0  0  0  0  0
    9.9200  -16.0559   25.4606 N   0  0  0  0  0  0  0  0  0  0  0  0
    9.8459  -15.3948   24.1215 C   0  0  0  0  0  0  0  0  0  0  0  0
    8.7555  -16.9131   25.6347 O   0  0  0  0  0  0  0  0  0  0  0  0
    7.6624  -16.5101   25.0837 O   0  0  0  0  0  0  0  0  0  0  0  0
  2  4  1  0
  2  1  1  0
  3  2  2  0
  5  4  1  0
  6  5  1  0
  7  6  1  0
  8 10  1  0
  8  7  1  0
  8  9  1  1
 10 11  2  0
 12 13  1  0
 14 13  1  0
 14 16  1  0
 14 15  1  6
 16 18  1  0
 16 17  1  1
 17 10  1  0
 18 19  2  0
 20 21  1  0
 21 22  1  0
 22 23  1  0
 24 23  1  6
 24 26  1  0
 25 24  1  0
 25 18  1  0
 26 27  2  0
 26 28  1  0
M  END
$$$$
