RIM.pdb
     RDKit          3D

 28 27  0  0  1  0  0  0  0  0999 V2000
   14.8023  -19.8232   16.5279 N   0  0  0  0  0  0  0  0  0  0  0  0
   15.0550  -19.7606   17.9270 C   0  0  0  0  0  0  0  0  0  0  0  0
   16.1995  -19.3371   18.3066 N   0  0  0  0  0  0  0  0  0  0  0  0
   14.0584  -20.1609   18.8955 N   0  0  0  0  0  0  0  0  0  0  0  0
   12.8371  -20.7349   18.4146 C   0  0  0  0  0  0  0  0  0  0  0  0
   11.5798  -20.0068   18.6396 C   0  0  0  0  0  0  0  0  0  0  0  0
   11.5300  -18.9287   19.6642 C   0  0  0  0  0  0  0  0  0  0  0  0
   10.1974  -18.4150   20.0284 C   0  0  2  0  0  0  0  0  0  0  0  0
    9.3976  -18.1336   18.8534 N   0  0  0  0  0  0  0  0  0  0  0  0
   10.3007  -17.1629   20.8799 C   0  0  0  0  0  0  0  0  0  0  0  0
   11.2954  -16.4039   20.7694 O   0  0  0  0  0  0  0  0  0  0  0  0
   16.4085  -19.2908   19.3247 C   0  0  0  0  0  0  0  0  0  0  0  0
    6.8821  -13.3661   20.6820 C   0  0  0  0  0  0  0  0  0  0  0  0
    8.1649  -14.1361   20.9233 C   0  0  2  0  0  0  0  0  0  0  0  0
    8.1686  -14.6807   22.3332 C   0  0  0  0  0  0  0  0  0  0  0  0
    8.0434  -13.5995   23.3767 C   0  0  2  0  0  0  0  0  0  0  0  0
    9.3501  -15.5831   22.6003 N   0  0  0  0  0  0  0  0  0  0  0  0
    9.3002  -16.8029   21.8173 C   0  0  0  0  0  0  0  0  0  0  0  0
    9.4579  -15.9362   24.0383 O   0  0  0  0  0  0  0  0  0  0  0  0
    8.6003  -16.6810   24.6207 C   0  0  0  0  0  0  0  0  0  0  0  0
    8.0771  -12.3551   28.1852 S   0  0  0  0  0  0  0  0  0  0  0  0
    9.4113  -13.0761   29.2049 C   0  0  0  0  0  0  0  0  0  0  0  0
   10.0108  -14.5650   28.4140 C   0  0  0  0  0  0  0  0  0  0  0  0
   10.2018  -14.5039   26.9463 C   0  0  1  0  0  0  0  0  0  0  0  0
   10.6588  -15.7524   26.2699 N   0  0  0  0  0  0  0  0  0  0  0  0
   10.5267  -15.4508   24.8114 C   0  0  0  0  0  0  0  0  0  0  0  0
    9.8485  -16.9192   26.5911 O   0  0  0  0  0  0  0  0  0  0  0  0
   10.4434  -17.8704   27.2254 O   0  0  0  0  0  0  0  0  0  0  0  0
  2  4  1  0
  2  1  1  0
  3  2  2  0
  5  4  1  0
  6  5  1  0
  7  6  1  0
  8 10  1  0
  8  7  1  0
  8  9  1  6
 10 11  2  0
 12 13  1  0
 14 13  1  0
 14 16  1  0
 14 15  1  1
 16 18  1  0
 16 17  1  6
 17 10  1  0
 18 19  2  0
 20 21  1  0
 21 22  1  0
 22 23  1  0
 24 23  1  6
 24 26  1  0
 25 24  1  0
 25 18  1  0
 26 27  2  0
 26 28  1  0
M  END
$$$$
