RIM.pdb
     RDKit          3D

 28 27  0  0  1  0  0  0  0  0999 V2000
   11.0714  -18.8255   17.3833 N   0  0  0  0  0  0  0  0  0  0  0  0
    9.9090  -19.6340   17.2403 C   0  0  0  0  0  0  0  0  0  0  0  0
   10.0678  -20.9012   17.1922 N   0  0  0  0  0  0  0  0  0  0  0  0
    8.5880  -19.0524   17.1506 N   0  0  0  0  0  0  0  0  0  0  0  0
    8.1840  -18.1264   18.1662 C   0  0  0  0  0  0  0  0  0  0  0  0
    9.2078  -17.2782   18.7940 C   0  0  0  0  0  0  0  0  0  0  0  0
    8.8225  -16.3621   19.9017 C   0  0  0  0  0  0  0  0  0  0  0  0
    9.0241  -16.8548   21.2761 C   0  0  2  0  0  0  0  0  0  0  0  0
    7.8961  -17.6438   21.7280 N   0  0  0  0  0  0  0  0  0  0  0  0
    9.2600  -15.7107   22.2451 C   0  0  0  0  0  0  0  0  0  0  0  0
   10.1877  -14.8894   22.0392 O   0  0  0  0  0  0  0  0  0  0  0  0
    9.2397  -21.5078   17.0230 C   0  0  0  0  0  0  0  0  0  0  0  0
    6.2422  -12.3397   26.4390 C   0  0  0  0  0  0  0  0  0  0  0  0
    7.5738  -12.7522   25.8446 C   0  0  2  0  0  0  0  0  0  0  0  0
    7.3839  -13.9821   24.9870 C   0  0  0  0  0  0  0  0  0  0  0  0
    6.6951  -15.1048   25.7209 C   0  0  2  0  0  0  0  0  0  0  0  0
    8.6707  -14.4405   24.3423 N   0  0  0  0  0  0  0  0  0  0  0  0
    8.4602  -15.5229   23.4002 C   0  0  0  0  0  0  0  0  0  0  0  0
    9.6702  -14.8678   25.3535 O   0  0  0  0  0  0  0  0  0  0  0  0
   10.0599  -14.0950   26.2918 C   0  0  0  0  0  0  0  0  0  0  0  0
    9.3401  -13.8100   29.3471 S   0  0  0  0  0  0  0  0  0  0  0  0
   10.7353  -14.9859   29.2454 C   0  0  0  0  0  0  0  0  0  0  0  0
   10.0964  -16.6214   28.9008 C   0  0  0  0  0  0  0  0  0  0  0  0
    9.7645  -16.9183   27.4880 C   0  0  2  0  0  0  0  0  0  0  0  0
   10.8688  -16.7970   26.4927 N   0  0  0  0  0  0  0  0  0  0  0  0
   10.2248  -16.1584   25.3039 C   0  0  0  0  0  0  0  0  0  0  0  0
   11.4391  -18.0771   26.0962 O   0  0  0  0  0  0  0  0  0  0  0  0
   10.8664  -18.6762   25.1093 O   0  0  0  0  0  0  0  0  0  0  0  0
  2  4  1  0
  2  1  1  0
  3  2  2  0
  5  4  1  0
  6  5  1  0
  7  6  1  0
  8 10  1  0
  8  7  1  0
  8  9  1  1
 10 11  2  0
 12 13  1  0
 14 13  1  0
 14 16  1  0
 14 15  1  6
 16 18  1  0
 16 17  1  1
 17 10  1  0
 18 19  2  0
 20 21  1  0
 21 22  1  0
 22 23  1  0
 24 23  1  1
 24 26  1  0
 25 24  1  0
 25 18  1  0
 26 27  2  0
 26 28  1  0
M  END
$$$$
