RIM.pdb
     RDKit          3D

 28 27  0  0  1  0  0  0  0  0999 V2000
   10.1300  -18.1166   14.7568 N   0  0  0  0  0  0  0  0  0  0  0  0
   10.1394  -18.5495   16.1124 C   0  0  0  0  0  0  0  0  0  0  0  0
   11.0925  -19.3144   16.4862 N   0  0  0  0  0  0  0  0  0  0  0  0
    9.1101  -18.1446   17.0442 N   0  0  0  0  0  0  0  0  0  0  0  0
    9.0828  -18.7633   18.3359 C   0  0  0  0  0  0  0  0  0  0  0  0
   10.0765  -18.3486   19.3370 C   0  0  0  0  0  0  0  0  0  0  0  0
    9.8534  -17.1024   20.1190 C   0  0  0  0  0  0  0  0  0  0  0  0
    9.1127  -17.2334   21.3866 C   0  0  2  0  0  0  0  0  0  0  0  0
    7.6944  -17.4186   21.1560 N   0  0  0  0  0  0  0  0  0  0  0  0
    9.3250  -16.0242   22.2790 C   0  0  0  0  0  0  0  0  0  0  0  0
   10.1644  -15.1449   21.9627 O   0  0  0  0  0  0  0  0  0  0  0  0
   11.1582  -19.5865   17.4882 C   0  0  0  0  0  0  0  0  0  0  0  0
    6.1600  -12.2505   25.8264 C   0  0  0  0  0  0  0  0  0  0  0  0
    7.5356  -12.7663   25.4546 C   0  0  2  0  0  0  0  0  0  0  0  0
    7.3970  -14.0415   24.6553 C   0  0  0  0  0  0  0  0  0  0  0  0
    6.4715  -15.0394   25.3043 C   0  0  2  0  0  0  0  0  0  0  0  0
    8.7335  -14.6566   24.3135 N   0  0  0  0  0  0  0  0  0  0  0  0
    8.6003  -15.8381   23.4830 C   0  0  0  0  0  0  0  0  0  0  0  0
    9.5049  -15.0075   25.5325 O   0  0  0  0  0  0  0  0  0  0  0  0
    9.4198  -14.3271   26.6091 C   0  0  0  0  0  0  0  0  0  0  0  0
   10.5053  -13.3131   29.4886 S   0  0  0  0  0  0  0  0  0  0  0  0
   10.7041  -14.8736   30.4186 C   0  0  0  0  0  0  0  0  0  0  0  0
   10.7723  -16.2376   29.2625 C   0  0  0  0  0  0  0  0  0  0  0  0
   10.2999  -15.9626   27.8857 C   0  0  2  0  0  0  0  0  0  0  0  0
   11.0714  -16.5806   26.7686 N   0  0  0  0  0  0  0  0  0  0  0  0
   10.3657  -16.1187   25.5339 C   0  0  0  0  0  0  0  0  0  0  0  0
   11.0759  -18.0367   26.7990 O   0  0  0  0  0  0  0  0  0  0  0  0
   10.1458  -18.6247   26.1282 O   0  0  0  0  0  0  0  0  0  0  0  0
  2  4  1  0
  2  1  1  0
  3  2  2  0
  5  4  1  0
  6  5  1  0
  7  6  1  0
  8 10  1  0
  8  7  1  0
  8  9  1  6
 10 11  2  0
 12 13  1  0
 14 13  1  0
 14 16  1  0
 14 15  1  6
 16 18  1  0
 16 17  1  1
 17 10  1  0
 18 19  2  0
 20 21  1  0
 21 22  1  0
 22 23  1  0
 24 23  1  6
 24 26  1  0
 25 24  1  0
 25 18  1  0
 26 27  2  0
 26 28  1  0
M  END
$$$$
