RIM.pdb
     RDKit          3D

 28 27  0  0  1  0  0  0  0  0999 V2000
    9.8182  -14.5943   16.1856 N   0  0  0  0  0  0  0  0  0  0  0  0
    9.1259  -14.9645   14.9986 C   0  0  0  0  0  0  0  0  0  0  0  0
    8.4672  -14.0565   14.3862 N   0  0  0  0  0  0  0  0  0  0  0  0
    9.1586  -16.3193   14.4936 N   0  0  0  0  0  0  0  0  0  0  0  0
    9.5190  -17.3713   15.3967 C   0  0  0  0  0  0  0  0  0  0  0  0
    9.3805  -17.1380   16.8417 C   0  0  0  0  0  0  0  0  0  0  0  0
    8.5448  -18.0610   17.6567 C   0  0  0  0  0  0  0  0  0  0  0  0
    8.9978  -18.3321   19.0328 C   0  0  2  0  0  0  0  0  0  0  0  0
    8.0054  -19.0766   19.7813 N   0  0  0  0  0  0  0  0  0  0  0  0
    9.3264  -17.0470   19.7704 C   0  0  0  0  0  0  0  0  0  0  0  0
   10.2887  -16.3319   19.3959 O   0  0  0  0  0  0  0  0  0  0  0  0
    8.0086  -14.2886   13.4817 C   0  0  0  0  0  0  0  0  0  0  0  0
    6.9990  -12.7123   19.6762 C   0  0  0  0  0  0  0  0  0  0  0  0
    7.9981  -13.8296   19.9002 C   0  0  2  0  0  0  0  0  0  0  0  0
    7.9425  -14.2740   21.3437 C   0  0  0  0  0  0  0  0  0  0  0  0
    8.1136  -13.1318   22.3130 C   0  0  2  0  0  0  0  0  0  0  0  0
    8.8993  -15.4055   21.6365 N   0  0  0  0  0  0  0  0  0  0  0  0
    8.5773  -16.6068   20.8905 C   0  0  0  0  0  0  0  0  0  0  0  0
    8.9378  -15.7319   23.0844 O   0  0  0  0  0  0  0  0  0  0  0  0
    7.9503  -16.2738   23.6847 C   0  0  0  0  0  0  0  0  0  0  0  0
   10.6643  -13.9931   29.1386 S   0  0  0  0  0  0  0  0  0  0  0  0
    9.0018  -13.8998   28.3858 C   0  0  0  0  0  0  0  0  0  0  0  0
    8.7475  -15.3379   27.3518 C   0  0  0  0  0  0  0  0  0  0  0  0
    8.9567  -15.1526   25.8971 C   0  0  1  0  0  0  0  0  0  0  0  0
   10.1753  -15.7749   25.3031 N   0  0  0  0  0  0  0  0  0  0  0  0
   10.0837  -15.4474   23.8470 C   0  0  0  0  0  0  0  0  0  0  0  0
   10.2287  -17.2213   25.4644 O   0  0  0  0  0  0  0  0  0  0  0  0
   10.5793  -17.6536   26.6268 O   0  0  0  0  0  0  0  0  0  0  0  0
  2  4  1  0
  2  1  1  0
  3  2  2  0
  5  4  1  0
  6  5  1  0
  7  6  1  0
  8 10  1  0
  8  7  1  0
  8  9  1  1
 10 11  2  0
 12 13  1  0
 14 13  1  0
 14 16  1  0
 14 15  1  1
 16 18  1  0
 16 17  1  6
 17 10  1  0
 18 19  2  0
 20 21  1  0
 21 22  1  0
 22 23  1  0
 24 23  1  1
 24 26  1  0
 25 24  1  0
 25 18  1  0
 26 27  2  0
 26 28  1  0
M  END
$$$$
