RIM.pdb
     RDKit          3D

 28 27  0  0  1  0  0  0  0  0999 V2000
    9.1540  -18.0863   14.8122 N   0  0  0  0  0  0  0  0  0  0  0  0
    8.6193  -18.8058   15.9174 C   0  0  0  0  0  0  0  0  0  0  0  0
    7.8604  -19.8032   15.6671 N   0  0  0  0  0  0  0  0  0  0  0  0
    8.9168  -18.4296   17.2818 N   0  0  0  0  0  0  0  0  0  0  0  0
    9.3769  -17.0964   17.5330 C   0  0  0  0  0  0  0  0  0  0  0  0
    8.4993  -16.1751   18.2696 C   0  0  0  0  0  0  0  0  0  0  0  0
    8.9405  -15.6365   19.5849 C   0  0  0  0  0  0  0  0  0  0  0  0
    8.3719  -16.2677   20.7893 C   0  0  2  0  0  0  0  0  0  0  0  0
    6.9234  -16.2465   20.7663 N   0  0  0  0  0  0  0  0  0  0  0  0
    8.8662  -15.5907   22.0546 C   0  0  0  0  0  0  0  0  0  0  0  0
    9.8265  -14.7825   22.0050 O   0  0  0  0  0  0  0  0  0  0  0  0
    7.4565  -20.3419   16.4602 C   0  0  0  0  0  0  0  0  0  0  0  0
    5.8159  -12.9430   25.2932 C   0  0  0  0  0  0  0  0  0  0  0  0
    6.9868  -13.4967   24.5065 C   0  0  2  0  0  0  0  0  0  0  0  0
    7.6996  -14.5429   25.3320 C   0  0  0  0  0  0  0  0  0  0  0  0
    8.2196  -14.0003   26.6392 C   0  0  2  0  0  0  0  0  0  0  0  0
    8.7789  -15.2564   24.5525 N   0  0  0  0  0  0  0  0  0  0  0  0
    8.2781  -15.8356   23.3208 C   0  0  0  0  0  0  0  0  0  0  0  0
    9.4262  -16.3217   25.3590 O   0  0  0  0  0  0  0  0  0  0  0  0
    9.3773  -17.5522   25.0228 C   0  0  0  0  0  0  0  0  0  0  0  0
   10.3032  -13.6937   29.9362 S   0  0  0  0  0  0  0  0  0  0  0  0
   11.4279  -13.4625   28.5145 C   0  0  0  0  0  0  0  0  0  0  0  0
   12.2390  -15.0159   28.1531 C   0  0  0  0  0  0  0  0  0  0  0  0
   11.4732  -16.2480   28.4529 C   0  0  2  0  0  0  0  0  0  0  0  0
   10.9287  -17.0071   27.2900 N   0  0  0  0  0  0  0  0  0  0  0  0
   10.1228  -15.9982   26.5362 C   0  0  0  0  0  0  0  0  0  0  0  0
   10.0671  -18.1178   27.6710 O   0  0  0  0  0  0  0  0  0  0  0  0
    8.7988  -17.8900   27.6493 O   0  0  0  0  0  0  0  0  0  0  0  0
  2  4  1  0
  2  1  1  0
  3  2  2  0
  5  4  1  0
  6  5  1  0
  7  6  1  0
  8 10  1  0
  8  7  1  0
  8  9  1  6
 10 11  2  0
 12 13  1  0
 14 13  1  0
 14 16  1  0
 14 15  1  1
 16 18  1  0
 16 17  1  6
 17 10  1  0
 18 19  2  0
 20 21  1  0
 21 22  1  0
 22 23  1  0
 24 23  1  6
 24 26  1  0
 25 24  1  0
 25 18  1  0
 26 27  2  0
 26 28  1  0
M  END
$$$$
