LDA.pdb
     RDKit          3D

 22 21  0  0  1  0  0  0  0  0999 V2000
    9.2416  -13.4016   19.6916 C   0  0  0  0  0  0  0  0  0  0  0  0
    7.8595  -13.2212   20.2993 C   0  0  2  0  0  0  0  0  0  0  0  0
    7.6162  -11.7406   20.5165 C   0  0  0  0  0  0  0  0  0  0  0  0
    7.7631  -13.9767   21.5887 C   0  0  0  0  0  0  0  0  0  0  0  0
    7.9152  -15.4575   21.4112 C   0  0  2  0  0  0  0  0  0  0  0  0
    6.7794  -16.1008   20.8423 N   0  0  0  0  0  0  0  0  0  0  0  0
    8.3684  -16.0997   22.6747 C   0  0  0  0  0  0  0  0  0  0  0  0
    7.5105  -16.3293   23.5486 O   0  0  0  0  0  0  0  0  0  0  0  0
    9.6944  -16.4620   22.9447 N   0  0  0  0  0  0  0  0  0  0  0  0
   10.1550  -16.9846   24.2025 C   0  0  1  0  0  0  0  0  0  0  0  0
   11.2780  -17.9607   24.0936 C   0  0  0  0  0  0  0  0  0  0  0  0
   11.7343  -18.5152   25.3926 C   0  0  0  0  0  0  0  0  0  0  0  0
   10.9045  -18.7134   26.3001 O   0  0  0  0  0  0  0  0  0  0  0  0
   10.5290  -15.9148   25.1543 C   0  0  0  0  0  0  0  0  0  0  0  0
   11.6456  -15.3354   25.1368 O   0  0  0  0  0  0  0  0  0  0  0  0
   13.0582  -18.8208   25.6308 O   0  0  0  0  0  0  0  0  0  0  0  0
    9.0339  -13.3054   27.1404 C   0  0  0  0  0  0  0  0  0  0  0  0
    9.9842  -14.4564   27.1440 C   0  0  2  0  0  0  0  0  0  0  0  0
    9.6228  -15.4808   26.1564 N   0  0  0  0  0  0  0  0  0  0  0  0
   10.1629  -15.0741   28.4847 C   0  0  0  0  0  0  0  0  0  0  0  0
    9.8747  -16.2826   28.6779 O   0  0  0  0  0  0  0  0  0  0  0  0
   10.6475  -14.3551   29.5636 O   0  0  0  0  0  0  0  0  0  0  0  0
  2  1  1  1
  2  3  1  0
  4  5  1  0
  4  2  1  0
  5  7  1  0
  5  6  1  1
  7  8  2  0
  7  9  1  0
  9 10  1  0
 10 11  1  6
 10 14  1  0
 12 16  1  0
 12 11  1  0
 13 12  2  0
 14 15  2  0
 18 17  1  1
 19 14  1  0
 19 18  1  0
 20 18  1  0
 20 22  1  0
 21 20  2  0
M  END
$$$$
