LDA.pdb
     RDKit          3D

 22 21  0  0  1  0  0  0  0  0999 V2000
    7.7460  -12.5623   21.2506 C   0  0  0  0  0  0  0  0  0  0  0  0
    7.9915  -13.6316   20.1979 C   0  0  2  0  0  0  0  0  0  0  0  0
    7.6674  -13.0519   18.8350 C   0  0  0  0  0  0  0  0  0  0  0  0
    7.1493  -14.8364   20.4838 C   0  0  0  0  0  0  0  0  0  0  0  0
    7.3967  -15.4125   21.8455 C   0  0  2  0  0  0  0  0  0  0  0  0
    7.3009  -14.4701   22.9086 N   0  0  0  0  0  0  0  0  0  0  0  0
    8.6690  -16.1839   21.8722 C   0  0  0  0  0  0  0  0  0  0  0  0
    8.6436  -17.3585   21.4575 O   0  0  0  0  0  0  0  0  0  0  0  0
    9.8907  -15.6759   22.3325 N   0  0  0  0  0  0  0  0  0  0  0  0
   11.1035  -16.4414   22.4342 C   0  0  1  0  0  0  0  0  0  0  0  0
   12.2559  -15.8799   21.6710 C   0  0  0  0  0  0  0  0  0  0  0  0
   13.4543  -16.7552   21.6416 C   0  0  0  0  0  0  0  0  0  0  0  0
   13.3195  -17.9720   21.4126 O   0  0  0  0  0  0  0  0  0  0  0  0
   11.5118  -16.6667   23.8388 C   0  0  0  0  0  0  0  0  0  0  0  0
   12.6212  -17.1633   24.1634 O   0  0  0  0  0  0  0  0  0  0  0  0
   14.7237  -16.2619   21.8617 O   0  0  0  0  0  0  0  0  0  0  0  0
   10.3784  -15.5489   27.2307 C   0  0  0  0  0  0  0  0  0  0  0  0
   11.0307  -16.5310   26.3152 C   0  0  2  0  0  0  0  0  0  0  0  0
   10.6497  -16.3239   24.9125 N   0  0  0  0  0  0  0  0  0  0  0  0
   10.8046  -17.9476   26.7064 C   0  0  0  0  0  0  0  0  0  0  0  0
   11.2277  -18.3848   27.8067 O   0  0  0  0  0  0  0  0  0  0  0  0
   10.1277  -18.8344   25.8872 O   0  0  0  0  0  0  0  0  0  0  0  0
  2  1  1  1
  2  3  1  0
  4  5  1  0
  4  2  1  0
  5  7  1  0
  5  6  1  1
  7  8  2  0
  7  9  1  0
  9 10  1  0
 10 11  1  6
 10 14  1  0
 12 16  1  0
 12 11  1  0
 13 12  2  0
 14 15  2  0
 18 17  1  1
 19 14  1  0
 19 18  1  0
 20 18  1  0
 20 22  1  0
 21 20  2  0
M  END
$$$$
