QYN.pdb
     RDKit          3D

 30 30  0  0  1  0  0  0  0  0999 V2000
   12.1333  -19.6856   18.0035 N   0  0  0  0  0  0  0  0  0  0  0  0
   10.8223  -20.0576   17.6527 C   0  0  0  0  0  0  0  0  0  0  0  0
   10.6430  -20.9609   16.8153 O   0  0  0  0  0  0  0  0  0  0  0  0
    9.6846  -19.3792   18.2810 C   0  0  0  0  0  0  0  0  0  0  0  0
    9.9912  -18.3618   19.3156 C   0  0  0  0  0  0  0  0  0  0  0  0
    9.0316  -17.2334   19.3352 C   0  0  2  0  0  0  0  0  0  0  0  0
    9.0321  -16.3517   18.2069 N   0  0  0  0  0  0  0  0  0  0  0  0
    9.2040  -16.3665   20.5505 C   0  0  0  0  0  0  0  0  0  0  0  0
   10.3371  -16.0493   21.0049 O   0  0  0  0  0  0  0  0  0  0  0  0
    6.7779  -11.8949   27.7627 O   0  0  0  0  0  0  0  0  0  0  0  0
    6.8109  -12.5611   26.5394 C   0  0  0  0  0  0  0  0  0  0  0  0
    7.3323  -11.9305   25.4314 C   0  0  0  0  0  0  0  0  0  0  0  0
    7.3744  -12.5703   24.2142 C   0  0  0  0  0  0  0  0  0  0  0  0
    6.8719  -13.8653   24.1598 C   0  0  0  0  0  0  0  0  0  0  0  0
    6.9042  -14.5560   22.8670 C   0  0  0  0  0  0  0  0  0  0  0  0
    8.2510  -15.2378   22.5895 C   0  0  2  0  0  0  0  0  0  0  0  0
    8.0834  -15.8468   21.2671 N   0  0  0  0  0  0  0  0  0  0  0  0
    8.6062  -16.2244   23.6089 C   0  0  0  0  0  0  0  0  0  0  0  0
    7.9862  -17.3189   23.6951 O   0  0  0  0  0  0  0  0  0  0  0  0
    6.3485  -14.5132   25.2474 C   0  0  0  0  0  0  0  0  0  0  0  0
    6.3213  -13.8433   26.4534 C   0  0  0  0  0  0  0  0  0  0  0  0
   12.8112  -19.3087   24.5230 N   0  0  0  0  0  0  0  0  0  0  0  0
   11.6591  -18.4844   24.3160 C   0  0  0  0  0  0  0  0  0  0  0  0
   10.7707  -18.8461   23.5365 O   0  0  0  0  0  0  0  0  0  0  0  0
   11.5758  -17.2242   25.0469 C   0  0  0  0  0  0  0  0  0  0  0  0
   10.1502  -16.9632   25.4837 C   0  0  2  0  0  0  0  0  0  0  0  0
    9.6554  -15.9585   24.5135 N   0  0  0  0  0  0  0  0  0  0  0  0
   10.0487  -16.3034   26.8006 C   0  0  0  0  0  0  0  0  0  0  0  0
    9.7511  -16.9378   27.9923 O   0  0  0  0  0  0  0  0  0  0  0  0
   10.2414  -15.0407   26.9101 O   0  0  0  0  0  0  0  0  0  0  0  0
  2  1  1  0
  3  2  2  0
  4  2  1  0
  5  4  1  0
  6  7  1  6
  6  5  1  0
  8  6  1  0
  9  8  2  0
 10 11  1  0
 11 21  2  0
 11 12  1  0
 12 13  2  0
 13 14  1  0
 14 15  1  0
 16 15  1  1
 16 18  1  0
 16 17  1  0
 17  8  1  0
 18 19  2  0
 20 14  2  0
 21 20  1  0
 23 22  1  0
 24 23  2  0
 25 23  1  0
 26 25  1  6
 27 26  1  0
 27 18  1  0
 28 26  1  0
 29 28  1  0
 30 28  2  0
M  END
$$$$
