QYN.pdb
     RDKit          3D

 30 30  0  0  1  0  0  0  0  0999 V2000
    9.2054  -13.7690   15.8012 N   0  0  0  0  0  0  0  0  0  0  0  0
    8.2409  -14.7723   16.0101 C   0  0  0  0  0  0  0  0  0  0  0  0
    7.6058  -15.2258   15.0404 O   0  0  0  0  0  0  0  0  0  0  0  0
    7.9995  -15.2731   17.3667 C   0  0  0  0  0  0  0  0  0  0  0  0
    8.8628  -14.7396   18.4481 C   0  0  0  0  0  0  0  0  0  0  0  0
    9.1027  -15.7085   19.5428 C   0  0  2  0  0  0  0  0  0  0  0  0
    8.1487  -16.7639   19.7061 N   0  0  0  0  0  0  0  0  0  0  0  0
    9.2196  -15.0325   20.8798 C   0  0  0  0  0  0  0  0  0  0  0  0
   10.1846  -14.2770   21.1782 O   0  0  0  0  0  0  0  0  0  0  0  0
    6.8003  -11.1985   28.3291 O   0  0  0  0  0  0  0  0  0  0  0  0
    6.8514  -11.8917   27.1215 C   0  0  0  0  0  0  0  0  0  0  0  0
    7.6034  -11.3954   26.0797 C   0  0  0  0  0  0  0  0  0  0  0  0
    7.6674  -12.0642   24.8791 C   0  0  0  0  0  0  0  0  0  0  0  0
    6.9460  -13.2477   24.7722 C   0  0  0  0  0  0  0  0  0  0  0  0
    6.9999  -13.9666   23.4956 C   0  0  0  0  0  0  0  0  0  0  0  0
    8.3827  -14.5679   23.2086 C   0  0  2  0  0  0  0  0  0  0  0  0
    8.2347  -15.2084   21.8988 N   0  0  0  0  0  0  0  0  0  0  0  0
    8.8132  -15.5131   24.2381 C   0  0  0  0  0  0  0  0  0  0  0  0
    9.0368  -15.1287   25.4178 O   0  0  0  0  0  0  0  0  0  0  0  0
    6.1912  -13.7611   25.7936 C   0  0  0  0  0  0  0  0  0  0  0  0
    6.1485  -13.0657   26.9846 C   0  0  0  0  0  0  0  0  0  0  0  0
    6.0178  -18.8053   23.8558 N   0  0  0  0  0  0  0  0  0  0  0  0
    6.9926  -18.7499   24.9030 C   0  0  0  0  0  0  0  0  0  0  0  0
    6.6518  -18.4431   26.0508 O   0  0  0  0  0  0  0  0  0  0  0  0
    8.3780  -19.0634   24.5692 C   0  0  0  0  0  0  0  0  0  0  0  0
    9.2824  -17.9074   24.9393 C   0  0  2  0  0  0  0  0  0  0  0  0
    8.9839  -16.8763   23.9180 N   0  0  0  0  0  0  0  0  0  0  0  0
   10.7187  -18.2055   24.7714 C   0  0  0  0  0  0  0  0  0  0  0  0
   11.5081  -18.8787   25.6850 O   0  0  0  0  0  0  0  0  0  0  0  0
   11.3388  -17.8340   23.7126 O   0  0  0  0  0  0  0  0  0  0  0  0
  2  1  1  0
  3  2  2  0
  4  2  1  0
  5  4  1  0
  6  7  1  1
  6  5  1  0
  8  6  1  0
  9  8  2  0
 10 11  1  0
 11 21  2  0
 11 12  1  0
 12 13  2  0
 13 14  1  0
 14 15  1  0
 16 15  1  1
 16 18  1  0
 16 17  1  0
 17  8  1  0
 18 19  2  0
 20 14  2  0
 21 20  1  0
 23 22  1  0
 24 23  2  0
 25 23  1  0
 26 25  1  6
 27 26  1  0
 27 18  1  0
 28 26  1  0
 29 28  1  0
 30 28  2  0
M  END
$$$$
