QYN.pdb
     RDKit          3D

 30 30  0  0  1  0  0  0  0  0999 V2000
   12.9617  -17.5450   16.8866 N   0  0  0  0  0  0  0  0  0  0  0  0
   11.8257  -18.3603   16.7274 C   0  0  0  0  0  0  0  0  0  0  0  0
   11.7841  -19.1806   15.7921 O   0  0  0  0  0  0  0  0  0  0  0  0
   10.7077  -18.2356   17.6675 C   0  0  0  0  0  0  0  0  0  0  0  0
   10.8369  -17.2209   18.7413 C   0  0  0  0  0  0  0  0  0  0  0  0
   10.5792  -17.7607   20.0965 C   0  0  2  0  0  0  0  0  0  0  0  0
    9.3505  -18.4676   20.2989 N   0  0  0  0  0  0  0  0  0  0  0  0
   10.6307  -16.6903   21.1500 C   0  0  0  0  0  0  0  0  0  0  0  0
   11.6361  -15.9470   21.3163 O   0  0  0  0  0  0  0  0  0  0  0  0
    6.7563  -13.1240   17.8544 O   0  0  0  0  0  0  0  0  0  0  0  0
    7.1217  -13.5267   19.1373 C   0  0  0  0  0  0  0  0  0  0  0  0
    6.5456  -14.6482   19.6918 C   0  0  0  0  0  0  0  0  0  0  0  0
    6.8923  -15.0631   20.9569 C   0  0  0  0  0  0  0  0  0  0  0  0
    7.8387  -14.3049   21.6368 C   0  0  0  0  0  0  0  0  0  0  0  0
    8.2118  -14.7320   22.9887 C   0  0  0  0  0  0  0  0  0  0  0  0
    9.5960  -15.3931   23.0437 C   0  0  2  0  0  0  0  0  0  0  0  0
    9.5330  -16.4510   22.0315 N   0  0  0  0  0  0  0  0  0  0  0  0
    9.9195  -15.9184   24.3696 C   0  0  0  0  0  0  0  0  0  0  0  0
    9.8057  -15.1975   25.3976 O   0  0  0  0  0  0  0  0  0  0  0  0
    8.4254  -13.1863   21.1067 C   0  0  0  0  0  0  0  0  0  0  0  0
    8.0555  -12.7975   19.8354 C   0  0  0  0  0  0  0  0  0  0  0  0
   10.1237  -19.3494   28.2684 N   0  0  0  0  0  0  0  0  0  0  0  0
   10.3578  -19.9611   26.9952 C   0  0  0  0  0  0  0  0  0  0  0  0
   10.8307  -21.1013   26.9335 O   0  0  0  0  0  0  0  0  0  0  0  0
   10.0230  -19.2005   25.7959 C   0  0  0  0  0  0  0  0  0  0  0  0
   10.6976  -17.8458   25.8271 C   0  0  2  0  0  0  0  0  0  0  0  0
   10.3661  -17.2489   24.5122 N   0  0  0  0  0  0  0  0  0  0  0  0
   12.1719  -17.9219   25.8503 C   0  0  0  0  0  0  0  0  0  0  0  0
   12.9944  -17.8441   24.7420 O   0  0  0  0  0  0  0  0  0  0  0  0
   12.7962  -18.0727   26.9599 O   0  0  0  0  0  0  0  0  0  0  0  0
  2  1  1  0
  3  2  2  0
  4  2  1  0
  5  4  1  0
  6  7  1  6
  6  5  1  0
  8  6  1  0
  9  8  2  0
 10 11  1  0
 11 21  2  0
 11 12  1  0
 12 13  2  0
 13 14  1  0
 14 15  1  0
 16 15  1  1
 16 18  1  0
 16 17  1  0
 17  8  1  0
 18 19  2  0
 20 14  2  0
 21 20  1  0
 23 22  1  0
 24 23  2  0
 25 23  1  0
 26 25  1  6
 27 26  1  0
 27 18  1  0
 28 26  1  0
 29 28  1  0
 30 28  2  0
M  END
$$$$
