QYN.pdb
     RDKit          3D

 30 30  0  0  1  0  0  0  0  0999 V2000
    8.4185  -11.9598   18.3005 N   0  0  0  0  0  0  0  0  0  0  0  0
    7.9344  -13.1763   17.7847 C   0  0  0  0  0  0  0  0  0  0  0  0
    7.4975  -13.2196   16.6200 O   0  0  0  0  0  0  0  0  0  0  0  0
    7.9544  -14.3778   18.6247 C   0  0  0  0  0  0  0  0  0  0  0  0
    8.4819  -14.2307   20.0029 C   0  0  0  0  0  0  0  0  0  0  0  0
    8.5086  -15.5022   20.7626 C   0  0  2  0  0  0  0  0  0  0  0  0
    7.2625  -16.1832   20.9465 N   0  0  0  0  0  0  0  0  0  0  0  0
    9.1033  -15.3296   22.1318 C   0  0  0  0  0  0  0  0  0  0  0  0
   10.2005  -14.7391   22.3276 O   0  0  0  0  0  0  0  0  0  0  0  0
    6.4934  -10.3142   26.2805 O   0  0  0  0  0  0  0  0  0  0  0  0
    6.8707  -11.6451   26.1136 C   0  0  0  0  0  0  0  0  0  0  0  0
    5.9688  -12.5524   25.6032 C   0  0  0  0  0  0  0  0  0  0  0  0
    6.3210  -13.8711   25.4305 C   0  0  0  0  0  0  0  0  0  0  0  0
    7.6130  -14.2359   25.7916 C   0  0  0  0  0  0  0  0  0  0  0  0
    7.9989  -15.6397   25.6194 C   0  0  0  0  0  0  0  0  0  0  0  0
    9.1315  -15.8253   24.6002 C   0  0  2  0  0  0  0  0  0  0  0  0
    8.4533  -15.8291   23.3011 N   0  0  0  0  0  0  0  0  0  0  0  0
    9.8989  -17.0499   24.8242 C   0  0  0  0  0  0  0  0  0  0  0  0
    9.4065  -18.1803   24.5609 O   0  0  0  0  0  0  0  0  0  0  0  0
    8.5273  -13.3522   26.3012 C   0  0  0  0  0  0  0  0  0  0  0  0
    8.1420  -12.0370   26.4617 C   0  0  0  0  0  0  0  0  0  0  0  0
   14.6724  -17.4225   23.2795 N   0  0  0  0  0  0  0  0  0  0  0  0
   13.9945  -18.2935   24.1915 C   0  0  0  0  0  0  0  0  0  0  0  0
   13.8832  -19.4967   23.9319 O   0  0  0  0  0  0  0  0  0  0  0  0
   13.4503  -17.7166   25.4162 C   0  0  0  0  0  0  0  0  0  0  0  0
   12.0250  -18.1806   25.6276 C   0  0  2  0  0  0  0  0  0  0  0  0
   11.2092  -16.9773   25.3416 N   0  0  0  0  0  0  0  0  0  0  0  0
   11.7189  -18.5239   27.0306 C   0  0  0  0  0  0  0  0  0  0  0  0
   12.0893  -19.6939   27.6669 O   0  0  0  0  0  0  0  0  0  0  0  0
   11.0579  -17.7099   27.7682 O   0  0  0  0  0  0  0  0  0  0  0  0
  2  1  1  0
  3  2  2  0
  4  2  1  0
  5  4  1  0
  6  7  1  1
  6  5  1  0
  8  6  1  0
  9  8  2  0
 10 11  1  0
 11 21  2  0
 11 12  1  0
 12 13  2  0
 13 14  1  0
 14 15  1  0
 16 15  1  1
 16 18  1  0
 16 17  1  0
 17  8  1  0
 18 19  2  0
 20 14  2  0
 21 20  1  0
 23 22  1  0
 24 23  2  0
 25 23  1  0
 26 25  1  1
 27 26  1  0
 27 18  1  0
 28 26  1  0
 29 28  1  0
 30 28  2  0
M  END
$$$$
