QYN.pdb
     RDKit          3D

 30 30  0  0  1  0  0  0  0  0999 V2000
    8.0418  -12.6097   17.4925 N   0  0  0  0  0  0  0  0  0  0  0  0
    8.0271  -14.0161   17.5399 C   0  0  0  0  0  0  0  0  0  0  0  0
    8.2569  -14.6683   16.5049 O   0  0  0  0  0  0  0  0  0  0  0  0
    7.7451  -14.6948   18.8084 C   0  0  0  0  0  0  0  0  0  0  0  0
    8.6964  -14.4673   19.9232 C   0  0  0  0  0  0  0  0  0  0  0  0
    8.7669  -15.5978   20.8779 C   0  0  2  0  0  0  0  0  0  0  0  0
    7.6051  -16.4256   21.0020 N   0  0  0  0  0  0  0  0  0  0  0  0
    9.1134  -15.1427   22.2675 C   0  0  0  0  0  0  0  0  0  0  0  0
    9.9858  -14.2612   22.4972 O   0  0  0  0  0  0  0  0  0  0  0  0
    5.8147  -10.3066   26.9438 O   0  0  0  0  0  0  0  0  0  0  0  0
    6.2750  -11.5803   26.6163 C   0  0  0  0  0  0  0  0  0  0  0  0
    7.5756  -11.9318   26.9027 C   0  0  0  0  0  0  0  0  0  0  0  0
    8.0500  -13.1842   26.5877 C   0  0  0  0  0  0  0  0  0  0  0  0
    7.1642  -14.0633   25.9753 C   0  0  0  0  0  0  0  0  0  0  0  0
    7.6591  -15.3988   25.6278 C   0  0  0  0  0  0  0  0  0  0  0  0
    8.9310  -15.3580   24.7695 C   0  0  2  0  0  0  0  0  0  0  0  0
    8.4677  -15.6876   23.4188 N   0  0  0  0  0  0  0  0  0  0  0  0
    9.9606  -16.2841   25.2396 C   0  0  0  0  0  0  0  0  0  0  0  0
   10.0830  -16.5485   26.4663 O   0  0  0  0  0  0  0  0  0  0  0  0
    5.8668  -13.7371   25.6805 C   0  0  0  0  0  0  0  0  0  0  0  0
    5.4226  -12.4728   26.0097 C   0  0  0  0  0  0  0  0  0  0  0  0
   12.3185  -20.6072   26.0859 N   0  0  0  0  0  0  0  0  0  0  0  0
   11.6151  -20.4479   24.8492 C   0  0  0  0  0  0  0  0  0  0  0  0
   11.6818  -21.3252   23.9811 O   0  0  0  0  0  0  0  0  0  0  0  0
   10.8311  -19.2324   24.6565 C   0  0  0  0  0  0  0  0  0  0  0  0
   11.7317  -18.0161   24.6848 C   0  0  2  0  0  0  0  0  0  0  0  0
   10.8344  -16.8960   24.3166 N   0  0  0  0  0  0  0  0  0  0  0  0
   12.7735  -18.0296   23.6386 C   0  0  0  0  0  0  0  0  0  0  0  0
   12.5796  -17.6915   22.3123 O   0  0  0  0  0  0  0  0  0  0  0  0
   13.9747  -18.3749   23.9237 O   0  0  0  0  0  0  0  0  0  0  0  0
  2  1  1  0
  3  2  2  0
  4  2  1  0
  5  4  1  0
  6  7  1  1
  6  5  1  0
  8  6  1  0
  9  8  2  0
 10 11  1  0
 11 21  2  0
 11 12  1  0
 12 13  2  0
 13 14  1  0
 14 15  1  0
 16 15  1  1
 16 18  1  0
 16 17  1  0
 17  8  1  0
 18 19  2  0
 20 14  2  0
 21 20  1  0
 23 22  1  0
 24 23  2  0
 25 23  1  0
 26 25  1  6
 27 26  1  0
 27 18  1  0
 28 26  1  0
 29 28  1  0
 30 28  2  0
M  END
$$$$
