QYN.pdb
     RDKit          3D

 30 30  0  0  1  0  0  0  0  0999 V2000
    8.7738  -13.6500   16.1161 N   0  0  0  0  0  0  0  0  0  0  0  0
    8.1351  -14.7243   16.7629 C   0  0  0  0  0  0  0  0  0  0  0  0
    7.6191  -15.6313   16.0844 O   0  0  0  0  0  0  0  0  0  0  0  0
    8.0891  -14.7632   18.2278 C   0  0  0  0  0  0  0  0  0  0  0  0
    9.3819  -14.9003   18.9415 C   0  0  0  0  0  0  0  0  0  0  0  0
    9.3362  -15.8669   20.0633 C   0  0  2  0  0  0  0  0  0  0  0  0
    8.2201  -16.7626   20.1130 N   0  0  0  0  0  0  0  0  0  0  0  0
    9.3908  -15.1832   21.4004 C   0  0  0  0  0  0  0  0  0  0  0  0
   10.3973  -14.5308   21.7905 O   0  0  0  0  0  0  0  0  0  0  0  0
    6.3778  -10.9339   28.4243 O   0  0  0  0  0  0  0  0  0  0  0  0
    6.5435  -11.6353   27.2318 C   0  0  0  0  0  0  0  0  0  0  0  0
    7.3614  -11.1265   26.2474 C   0  0  0  0  0  0  0  0  0  0  0  0
    7.5387  -11.8032   25.0627 C   0  0  0  0  0  0  0  0  0  0  0  0
    6.8611  -13.0076   24.9117 C   0  0  0  0  0  0  0  0  0  0  0  0
    7.0356  -13.7353   23.6510 C   0  0  0  0  0  0  0  0  0  0  0  0
    8.3500  -14.5262   23.5969 C   0  0  2  0  0  0  0  0  0  0  0  0
    8.2949  -15.2336   22.3146 N   0  0  0  0  0  0  0  0  0  0  0  0
    8.5051  -15.4433   24.7254 C   0  0  0  0  0  0  0  0  0  0  0  0
    8.4446  -15.0251   25.9132 O   0  0  0  0  0  0  0  0  0  0  0  0
    6.0424  -13.5338   25.8758 C   0  0  0  0  0  0  0  0  0  0  0  0
    5.8864  -12.8300   27.0524 C   0  0  0  0  0  0  0  0  0  0  0  0
    8.8061  -19.9537   27.1689 N   0  0  0  0  0  0  0  0  0  0  0  0
    7.6668  -19.8307   26.3106 C   0  0  0  0  0  0  0  0  0  0  0  0
    6.7628  -20.6723   26.3568 O   0  0  0  0  0  0  0  0  0  0  0  0
    7.6151  -18.6949   25.3961 C   0  0  0  0  0  0  0  0  0  0  0  0
    8.8267  -17.8084   25.5900 C   0  0  2  0  0  0  0  0  0  0  0  0
    8.7258  -16.8171   24.4934 N   0  0  0  0  0  0  0  0  0  0  0  0
   10.1086  -18.5033   25.3589 C   0  0  0  0  0  0  0  0  0  0  0  0
   10.9229  -18.3334   24.2548 O   0  0  0  0  0  0  0  0  0  0  0  0
   10.5540  -19.3452   26.2171 O   0  0  0  0  0  0  0  0  0  0  0  0
  2  1  1  0
  3  2  2  0
  4  2  1  0
  5  4  1  0
  6  7  1  1
  6  5  1  0
  8  6  1  0
  9  8  2  0
 10 11  1  0
 11 21  2  0
 11 12  1  0
 12 13  2  0
 13 14  1  0
 14 15  1  0
 16 15  1  1
 16 18  1  0
 16 17  1  0
 17  8  1  0
 18 19  2  0
 20 14  2  0
 21 20  1  0
 23 22  1  0
 24 23  2  0
 25 23  1  0
 26 25  1  6
 27 26  1  0
 27 18  1  0
 28 26  1  0
 29 28  1  0
 30 28  2  0
M  END
$$$$
