QYN.pdb
     RDKit          3D

 30 30  0  0  1  0  0  0  0  0999 V2000
   13.5518  -17.3907   17.9293 N   0  0  0  0  0  0  0  0  0  0  0  0
   12.3985  -17.8063   17.2384 C   0  0  0  0  0  0  0  0  0  0  0  0
   12.5134  -18.5102   16.2182 O   0  0  0  0  0  0  0  0  0  0  0  0
   11.0764  -17.4080   17.7312 C   0  0  0  0  0  0  0  0  0  0  0  0
   11.0319  -16.6207   18.9872 C   0  0  0  0  0  0  0  0  0  0  0  0
   10.0959  -17.1710   19.9949 C   0  0  2  0  0  0  0  0  0  0  0  0
    8.7255  -17.3184   19.6066 N   0  0  0  0  0  0  0  0  0  0  0  0
   10.0926  -16.3642   21.2627 C   0  0  0  0  0  0  0  0  0  0  0  0
   11.1532  -16.0041   21.8429 O   0  0  0  0  0  0  0  0  0  0  0  0
    6.8892  -11.8086   28.0823 O   0  0  0  0  0  0  0  0  0  0  0  0
    7.0520  -12.5105   26.8897 C   0  0  0  0  0  0  0  0  0  0  0  0
    7.8179  -11.9727   25.8791 C   0  0  0  0  0  0  0  0  0  0  0  0
    7.9914  -12.6492   24.6937 C   0  0  0  0  0  0  0  0  0  0  0  0
    7.3644  -13.8837   24.5694 C   0  0  0  0  0  0  0  0  0  0  0  0
    7.5354  -14.6118   23.3085 C   0  0  0  0  0  0  0  0  0  0  0  0
    8.8832  -15.3408   23.2196 C   0  0  2  0  0  0  0  0  0  0  0  0
    8.8763  -15.9548   21.8890 N   0  0  0  0  0  0  0  0  0  0  0  0
    9.0621  -16.3303   24.2815 C   0  0  0  0  0  0  0  0  0  0  0  0
    8.3037  -17.3338   24.3665 O   0  0  0  0  0  0  0  0  0  0  0  0
    6.5981  -14.4390   25.5598 C   0  0  0  0  0  0  0  0  0  0  0  0
    6.4443  -13.7345   26.7363 C   0  0  0  0  0  0  0  0  0  0  0  0
   12.8009  -18.6313   23.9780 N   0  0  0  0  0  0  0  0  0  0  0  0
   11.8486  -18.6936   25.0453 C   0  0  0  0  0  0  0  0  0  0  0  0
   11.0851  -19.6610   25.1385 O   0  0  0  0  0  0  0  0  0  0  0  0
   11.8147  -17.5912   26.0007 C   0  0  0  0  0  0  0  0  0  0  0  0
   10.3847  -17.1779   26.2758 C   0  0  2  0  0  0  0  0  0  0  0  0
   10.0944  -16.1698   25.2294 N   0  0  0  0  0  0  0  0  0  0  0  0
   10.2143  -16.4598   27.5545 C   0  0  0  0  0  0  0  0  0  0  0  0
   10.3836  -15.1000   27.7370 O   0  0  0  0  0  0  0  0  0  0  0  0
    9.8836  -17.0966   28.6169 O   0  0  0  0  0  0  0  0  0  0  0  0
  2  1  1  0
  3  2  2  0
  4  2  1  0
  5  4  1  0
  6  7  1  6
  6  5  1  0
  8  6  1  0
  9  8  2  0
 10 11  1  0
 11 21  2  0
 11 12  1  0
 12 13  2  0
 13 14  1  0
 14 15  1  0
 16 15  1  1
 16 18  1  0
 16 17  1  0
 17  8  1  0
 18 19  2  0
 20 14  2  0
 21 20  1  0
 23 22  1  0
 24 23  2  0
 25 23  1  0
 26 25  1  6
 27 26  1  0
 27 18  1  0
 28 26  1  0
 29 28  1  0
 30 28  2  0
M  END
$$$$
