QYN.pdb
     RDKit          3D

 30 30  0  0  1  0  0  0  0  0999 V2000
    7.7825  -13.2184   16.9325 N   0  0  0  0  0  0  0  0  0  0  0  0
    8.0996  -14.3632   16.1781 C   0  0  0  0  0  0  0  0  0  0  0  0
    7.5169  -14.5681   15.0975 O   0  0  0  0  0  0  0  0  0  0  0  0
    9.1151  -15.2978   16.6729 C   0  0  0  0  0  0  0  0  0  0  0  0
    9.6895  -15.0252   18.0128 C   0  0  0  0  0  0  0  0  0  0  0  0
    9.2583  -15.9941   19.0471 C   0  0  2  0  0  0  0  0  0  0  0  0
    7.9237  -16.5044   18.9530 N   0  0  0  0  0  0  0  0  0  0  0  0
    9.4028  -15.4390   20.4361 C   0  0  0  0  0  0  0  0  0  0  0  0
   10.4965  -14.9960   20.8815 O   0  0  0  0  0  0  0  0  0  0  0  0
    7.0431  -12.1445   28.2295 O   0  0  0  0  0  0  0  0  0  0  0  0
    7.0717  -12.6640   26.9369 C   0  0  0  0  0  0  0  0  0  0  0  0
    7.6410  -11.9320   25.9185 C   0  0  0  0  0  0  0  0  0  0  0  0
    7.6796  -12.4265   24.6352 C   0  0  0  0  0  0  0  0  0  0  0  0
    7.1234  -13.6826   24.4216 C   0  0  0  0  0  0  0  0  0  0  0  0
    7.1515  -14.2181   23.0572 C   0  0  0  0  0  0  0  0  0  0  0  0
    8.4765  -14.9147   22.7179 C   0  0  2  0  0  0  0  0  0  0  0  0
    8.2987  -15.3807   21.3399 N   0  0  0  0  0  0  0  0  0  0  0  0
    8.7898  -16.0111   23.6337 C   0  0  0  0  0  0  0  0  0  0  0  0
    8.1161  -17.0767   23.6229 O   0  0  0  0  0  0  0  0  0  0  0  0
    6.5518  -14.4291   25.4178 C   0  0  0  0  0  0  0  0  0  0  0  0
    6.5296  -13.9042   26.6937 C   0  0  0  0  0  0  0  0  0  0  0  0
   10.8688  -19.0436   23.8724 N   0  0  0  0  0  0  0  0  0  0  0  0
   11.9993  -18.2994   24.3395 C   0  0  0  0  0  0  0  0  0  0  0  0
   13.1426  -18.6459   24.0228 O   0  0  0  0  0  0  0  0  0  0  0  0
   11.7540  -17.1380   25.1881 C   0  0  0  0  0  0  0  0  0  0  0  0
   10.2715  -16.9831   25.4514 C   0  0  2  0  0  0  0  0  0  0  0  0
    9.8584  -15.8855   24.5459 N   0  0  0  0  0  0  0  0  0  0  0  0
    9.9621  -16.4935   26.8095 C   0  0  0  0  0  0  0  0  0  0  0  0
    9.5446  -17.2795   27.8674 O   0  0  0  0  0  0  0  0  0  0  0  0
   10.0706  -15.2473   27.0901 O   0  0  0  0  0  0  0  0  0  0  0  0
  2  1  1  0
  3  2  2  0
  4  2  1  0
  5  4  1  0
  6  7  1  6
  6  5  1  0
  8  6  1  0
  9  8  2  0
 10 11  1  0
 11 21  2  0
 11 12  1  0
 12 13  2  0
 13 14  1  0
 14 15  1  0
 16 15  1  1
 16 18  1  0
 16 17  1  0
 17  8  1  0
 18 19  2  0
 20 14  2  0
 21 20  1  0
 23 22  1  0
 24 23  2  0
 25 23  1  0
 26 25  1  1
 27 26  1  0
 27 18  1  0
 28 26  1  0
 29 28  1  0
 30 28  2  0
M  END
$$$$
