CND.pdb
     RDKit          3D

 23 22  0  0  1  0  0  0  0  0999 V2000
   22.4422  -14.2126  -17.7295 N   0  0  0  0  0  0  0  0  0  0  0  0
   22.2440  -13.1025  -16.8173 C   0  0  1  0  0  0  0  0  0  0  0  0
   23.2093  -13.3424  -15.6505 C   0  0  0  0  0  0  0  0  0  0  0  0
   22.5287  -14.7186  -14.6747 S   0  0  0  0  0  0  0  0  0  0  0  0
   22.6359  -11.8156  -17.4490 C   0  0  0  0  0  0  0  0  0  0  0  0
   23.4137  -11.7250  -18.4057 O   0  0  0  0  0  0  0  0  0  0  0  0
   22.3805   -7.0767  -19.1161 N   0  0  0  0  0  0  0  0  0  0  0  0
   21.7753   -8.1983  -19.7432 C   0  0  0  0  0  0  0  0  0  0  0  0
   21.4066   -8.0713  -20.9310 O   0  0  0  0  0  0  0  0  0  0  0  0
   21.6238   -9.4335  -18.9507 C   0  0  0  0  0  0  0  0  0  0  0  0
   22.1910   -9.3389  -17.5562 C   0  0  2  0  0  0  0  0  0  0  0  0
   22.0844  -10.6134  -16.9231 N   0  0  0  0  0  0  0  0  0  0  0  0
   21.5761   -8.2394  -16.7961 C   0  0  0  0  0  0  0  0  0  0  0  0
   20.3519   -8.3263  -16.5191 O   0  0  0  0  0  0  0  0  0  0  0  0
   22.2545   -7.0844  -16.3485 N   0  0  0  0  0  0  0  0  0  0  0  0
   21.7951   -6.1820  -15.3484 C   0  0  1  0  0  0  0  0  0  0  0  0
   22.8565   -5.5998  -14.4778 C   0  0  0  0  0  0  0  0  0  0  0  0
   22.3456   -4.6592  -13.4668 C   0  0  0  0  0  0  0  0  0  0  0  0
   22.3509   -5.0409  -12.2652 O   0  0  0  0  0  0  0  0  0  0  0  0
   21.0683   -5.0519  -15.9997 C   0  0  0  0  0  0  0  0  0  0  0  0
   21.3189   -4.6390  -17.2956 O   0  0  0  0  0  0  0  0  0  0  0  0
   21.8630   -3.3974  -13.7279 O   0  0  0  0  0  0  0  0  0  0  0  0
   20.1836   -4.4379  -15.3496 O   0  0  0  0  0  0  0  0  0  0  0  0
  2  1  1  6
  2  3  1  0
  3  4  1  0
  5 12  1  0
  5  2  1  0
  6  5  2  0
  7  8  1  0
  8  9  2  0
  8 10  1  0
 11 10  1  6
 11 12  1  0
 11 13  1  0
 13 14  2  0
 15 13  1  0
 15 16  1  0
 16 17  1  6
 17 18  1  0
 18 22  1  0
 18 19  2  0
 20 21  1  0
 20 16  1  0
 23 20  2  0
M  END
$$$$
