CND.pdb
     RDKit          3D

 23 22  0  0  1  0  0  0  0  0999 V2000
   19.4435  -10.0347  -14.8484 N   0  0  0  0  0  0  0  0  0  0  0  0
   19.3259   -9.5365  -13.4913 C   0  0  1  0  0  0  0  0  0  0  0  0
   19.6740   -8.0449  -13.5617 C   0  0  0  0  0  0  0  0  0  0  0  0
   21.3717   -7.9272  -14.2045 S   0  0  0  0  0  0  0  0  0  0  0  0
   17.9246   -9.6340  -13.0061 C   0  0  0  0  0  0  0  0  0  0  0  0
   17.0371  -10.2726  -13.5832 O   0  0  0  0  0  0  0  0  0  0  0  0
   13.9452   -9.6279   -9.8566 N   0  0  0  0  0  0  0  0  0  0  0  0
   14.7588  -10.7507  -10.1649 C   0  0  0  0  0  0  0  0  0  0  0  0
   14.3039  -11.8863   -9.9074 O   0  0  0  0  0  0  0  0  0  0  0  0
   16.0822  -10.4995  -10.7667 C   0  0  0  0  0  0  0  0  0  0  0  0
   16.3134   -9.0608  -11.1569 C   0  0  2  0  0  0  0  0  0  0  0  0
   17.5803   -8.9525  -11.8049 N   0  0  0  0  0  0  0  0  0  0  0  0
   16.1489   -8.1562  -10.0083 C   0  0  0  0  0  0  0  0  0  0  0  0
   16.8551   -8.3641   -8.9880 O   0  0  0  0  0  0  0  0  0  0  0  0
   15.2548   -7.0641   -9.9579 N   0  0  0  0  0  0  0  0  0  0  0  0
   15.3035   -5.9883   -9.0275 C   0  0  1  0  0  0  0  0  0  0  0  0
   15.2561   -4.6236   -9.6266 C   0  0  0  0  0  0  0  0  0  0  0  0
   16.3814   -4.3324  -10.5303 C   0  0  0  0  0  0  0  0  0  0  0  0
   17.5460   -4.4455  -10.0607 O   0  0  0  0  0  0  0  0  0  0  0  0
   14.1605   -6.1081   -8.0742 C   0  0  0  0  0  0  0  0  0  0  0  0
   14.0563   -5.3528   -6.9204 O   0  0  0  0  0  0  0  0  0  0  0  0
   16.2643   -3.9467  -11.8459 O   0  0  0  0  0  0  0  0  0  0  0  0
   13.2420   -6.9315   -8.3207 O   0  0  0  0  0  0  0  0  0  0  0  0
  2  1  1  6
  2  3  1  0
  3  4  1  0
  5 12  1  0
  5  2  1  0
  6  5  2  0
  7  8  1  0
  8  9  2  0
  8 10  1  0
 11 10  1  1
 11 12  1  0
 11 13  1  0
 13 14  2  0
 15 13  1  0
 15 16  1  0
 16 17  1  6
 17 18  1  0
 18 22  1  0
 18 19  2  0
 20 21  1  0
 20 16  1  0
 23 20  2  0
M  END
$$$$
