CND.pdb
     RDKit          3D

 23 22  0  0  1  0  0  0  0  0999 V2000
   18.6103  -14.7508  -15.7992 N   0  0  0  0  0  0  0  0  0  0  0  0
   17.9921  -13.4674  -16.0718 C   0  0  1  0  0  0  0  0  0  0  0  0
   17.1696  -13.1258  -14.8236 C   0  0  0  0  0  0  0  0  0  0  0  0
   15.7060  -14.2060  -14.8422 S   0  0  0  0  0  0  0  0  0  0  0  0
   19.0173  -12.4020  -16.2225 C   0  0  0  0  0  0  0  0  0  0  0  0
   20.0782  -12.3704  -15.5885 O   0  0  0  0  0  0  0  0  0  0  0  0
   21.2297   -9.1737  -20.5555 N   0  0  0  0  0  0  0  0  0  0  0  0
   20.4334   -8.9029  -19.4109 C   0  0  0  0  0  0  0  0  0  0  0  0
   20.5578   -7.7838  -18.8678 O   0  0  0  0  0  0  0  0  0  0  0  0
   19.5161   -9.9594  -18.9428 C   0  0  0  0  0  0  0  0  0  0  0  0
   19.7137  -10.3448  -17.4979 C   0  0  2  0  0  0  0  0  0  0  0  0
   18.7655  -11.3537  -17.1517 N   0  0  0  0  0  0  0  0  0  0  0  0
   19.6847   -9.1677  -16.6158 C   0  0  0  0  0  0  0  0  0  0  0  0
   18.5636   -8.7498  -16.2264 O   0  0  0  0  0  0  0  0  0  0  0  0
   20.8232   -8.4627  -16.1667 N   0  0  0  0  0  0  0  0  0  0  0  0
   20.8169   -7.3302  -15.3049 C   0  0  1  0  0  0  0  0  0  0  0  0
   22.1386   -6.9682  -14.7170 C   0  0  0  0  0  0  0  0  0  0  0  0
   22.0787   -5.8433  -13.7687 C   0  0  0  0  0  0  0  0  0  0  0  0
   21.0354   -5.7293  -13.0702 O   0  0  0  0  0  0  0  0  0  0  0  0
   20.3102   -6.1423  -16.0545 C   0  0  0  0  0  0  0  0  0  0  0  0
   19.2349   -5.3832  -15.6301 O   0  0  0  0  0  0  0  0  0  0  0  0
   23.0697   -4.9069  -13.5839 O   0  0  0  0  0  0  0  0  0  0  0  0
   20.8797   -5.8055  -17.1244 O   0  0  0  0  0  0  0  0  0  0  0  0
  2  1  1  1
  2  3  1  0
  3  4  1  0
  5 12  1  0
  5  2  1  0
  6  5  2  0
  7  8  1  0
  8  9  2  0
  8 10  1  0
 11 10  1  6
 11 12  1  0
 11 13  1  0
 13 14  2  0
 15 13  1  0
 15 16  1  0
 16 17  1  6
 17 18  1  0
 18 22  1  0
 18 19  2  0
 20 21  1  0
 20 16  1  0
 23 20  2  0
M  END
$$$$
