CND.pdb
     RDKit          3D

 23 22  0  0  1  0  0  0  0  0999 V2000
   25.4966  -11.6074  -16.4377 N   0  0  0  0  0  0  0  0  0  0  0  0
   25.6669  -10.2248  -16.0340 C   0  0  1  0  0  0  0  0  0  0  0  0
   26.9648   -9.7516  -16.6992 C   0  0  0  0  0  0  0  0  0  0  0  0
   28.3303  -10.6332  -15.8823 S   0  0  0  0  0  0  0  0  0  0  0  0
   24.5702   -9.3742  -16.5656 C   0  0  0  0  0  0  0  0  0  0  0  0
   24.1406   -9.4452  -17.7227 O   0  0  0  0  0  0  0  0  0  0  0  0
   20.5759   -9.5748  -13.9686 N   0  0  0  0  0  0  0  0  0  0  0  0
   21.0277   -8.9566  -15.1649 C   0  0  0  0  0  0  0  0  0  0  0  0
   20.7514   -9.5159  -16.2484 O   0  0  0  0  0  0  0  0  0  0  0  0
   21.7905   -7.6993  -15.0464 C   0  0  0  0  0  0  0  0  0  0  0  0
   22.8992   -7.5589  -16.0597 C   0  0  2  0  0  0  0  0  0  0  0  0
   23.9767   -8.4195  -15.6926 N   0  0  0  0  0  0  0  0  0  0  0  0
   23.2910   -6.1523  -16.2406 C   0  0  0  0  0  0  0  0  0  0  0  0
   24.1287   -5.6655  -15.4378 O   0  0  0  0  0  0  0  0  0  0  0  0
   22.7988   -5.2970  -17.2509 N   0  0  0  0  0  0  0  0  0  0  0  0
   23.1762   -3.9395  -17.4518 C   0  0  1  0  0  0  0  0  0  0  0  0
   22.7499   -3.3440  -18.7506 C   0  0  0  0  0  0  0  0  0  0  0  0
   23.2455   -1.9745  -18.9672 C   0  0  0  0  0  0  0  0  0  0  0  0
   22.5408   -1.2091  -19.6793 O   0  0  0  0  0  0  0  0  0  0  0  0
   22.6052   -3.1011  -16.3560 C   0  0  0  0  0  0  0  0  0  0  0  0
   23.3686   -2.2449  -15.5836 O   0  0  0  0  0  0  0  0  0  0  0  0
   24.4156   -1.4631  -18.4549 O   0  0  0  0  0  0  0  0  0  0  0  0
   21.3726   -3.1676  -16.1139 O   0  0  0  0  0  0  0  0  0  0  0  0
  2  1  1  6
  2  3  1  0
  3  4  1  0
  5 12  1  0
  5  2  1  0
  6  5  2  0
  7  8  1  0
  8  9  2  0
  8 10  1  0
 11 10  1  1
 11 12  1  0
 11 13  1  0
 13 14  2  0
 15 13  1  0
 15 16  1  0
 16 17  1  6
 17 18  1  0
 18 22  1  0
 18 19  2  0
 20 21  1  0
 20 16  1  0
 23 20  2  0
M  END
$$$$
