CND.pdb
     RDKit          3D

 23 22  0  0  1  0  0  0  0  0999 V2000
   24.8621  -15.5894  -16.3073 N   0  0  0  0  0  0  0  0  0  0  0  0
   24.7419  -14.3102  -15.6345 C   0  0  1  0  0  0  0  0  0  0  0  0
   26.1594  -13.7274  -15.5876 C   0  0  0  0  0  0  0  0  0  0  0  0
   27.1235  -14.7708  -14.4513 S   0  0  0  0  0  0  0  0  0  0  0  0
   23.9094  -13.3668  -16.4255 C   0  0  0  0  0  0  0  0  0  0  0  0
   23.5972  -13.5465  -17.6081 O   0  0  0  0  0  0  0  0  0  0  0  0
   18.9268  -11.3226  -17.1451 N   0  0  0  0  0  0  0  0  0  0  0  0
   20.2934  -11.1613  -17.4970 C   0  0  0  0  0  0  0  0  0  0  0  0
   20.5721  -10.3124  -18.3714 O   0  0  0  0  0  0  0  0  0  0  0  0
   21.2879  -12.0052  -16.8074 C   0  0  0  0  0  0  0  0  0  0  0  0
   22.5277  -11.2615  -16.3768 C   0  0  2  0  0  0  0  0  0  0  0  0
   23.4419  -12.1843  -15.7859 N   0  0  0  0  0  0  0  0  0  0  0  0
   22.1981  -10.1125  -15.5190 C   0  0  0  0  0  0  0  0  0  0  0  0
   21.8044  -10.3453  -14.3469 O   0  0  0  0  0  0  0  0  0  0  0  0
   22.2886   -8.7578  -15.9080 N   0  0  0  0  0  0  0  0  0  0  0  0
   22.1099   -7.6316  -15.0565 C   0  0  1  0  0  0  0  0  0  0  0  0
   22.5620   -6.3272  -15.6201 C   0  0  0  0  0  0  0  0  0  0  0  0
   22.4407   -5.2002  -14.6803 C   0  0  0  0  0  0  0  0  0  0  0  0
   22.6449   -5.4393  -13.4594 O   0  0  0  0  0  0  0  0  0  0  0  0
   20.6639   -7.5013  -14.7075 C   0  0  0  0  0  0  0  0  0  0  0  0
   20.2196   -7.1495  -13.4460 O   0  0  0  0  0  0  0  0  0  0  0  0
   22.1225   -3.9074  -15.0275 O   0  0  0  0  0  0  0  0  0  0  0  0
   19.7985   -7.7191  -15.5942 O   0  0  0  0  0  0  0  0  0  0  0  0
  2  1  1  6
  2  3  1  0
  3  4  1  0
  5 12  1  0
  5  2  1  0
  6  5  2  0
  7  8  1  0
  8  9  2  0
  8 10  1  0
 11 10  1  1
 11 12  1  0
 11 13  1  0
 13 14  2  0
 15 13  1  0
 15 16  1  0
 16 17  1  6
 17 18  1  0
 18 22  1  0
 18 19  2  0
 20 21  1  0
 20 16  1  0
 23 20  2  0
M  END
$$$$
