CND.pdb
     RDKit          3D

 23 22  0  0  1  0  0  0  0  0999 V2000
   11.3473  -10.7805   -8.9800 N   0  0  0  0  0  0  0  0  0  0  0  0
   12.6820  -10.7680   -9.5476 C   0  0  1  0  0  0  0  0  0  0  0  0
   12.5701  -11.4902  -10.8956 C   0  0  0  0  0  0  0  0  0  0  0  0
   12.5572  -13.2744  -10.5407 S   0  0  0  0  0  0  0  0  0  0  0  0
   13.1278   -9.3794   -9.8335 C   0  0  0  0  0  0  0  0  0  0  0  0
   12.3666   -8.4660  -10.1724 O   0  0  0  0  0  0  0  0  0  0  0  0
   16.2933   -5.3194  -10.0358 N   0  0  0  0  0  0  0  0  0  0  0  0
   16.7148   -6.1636   -8.9742 C   0  0  0  0  0  0  0  0  0  0  0  0
   17.5969   -5.7297   -8.2018 O   0  0  0  0  0  0  0  0  0  0  0  0
   16.0837   -7.4919   -8.8565 C   0  0  0  0  0  0  0  0  0  0  0  0
   15.0783   -7.7894   -9.9410 C   0  0  2  0  0  0  0  0  0  0  0  0
   14.5138   -9.0798   -9.7108 N   0  0  0  0  0  0  0  0  0  0  0  0
   15.6629   -7.6218  -11.2807 C   0  0  0  0  0  0  0  0  0  0  0  0
   16.6517   -8.3373  -11.5864 O   0  0  0  0  0  0  0  0  0  0  0  0
   15.2002   -6.7152  -12.2597 N   0  0  0  0  0  0  0  0  0  0  0  0
   15.7672   -6.5198  -13.5504 C   0  0  1  0  0  0  0  0  0  0  0  0
   14.9072   -5.7833  -14.5206 C   0  0  0  0  0  0  0  0  0  0  0  0
   15.4725   -5.7092  -15.8781 C   0  0  0  0  0  0  0  0  0  0  0  0
   15.5353   -4.5717  -16.4183 O   0  0  0  0  0  0  0  0  0  0  0  0
   17.0509   -5.7689  -13.4169 C   0  0  0  0  0  0  0  0  0  0  0  0
   18.1764   -6.0569  -14.1672 O   0  0  0  0  0  0  0  0  0  0  0  0
   15.9375   -6.7813  -16.6044 O   0  0  0  0  0  0  0  0  0  0  0  0
   17.1253   -4.8272  -12.5862 O   0  0  0  0  0  0  0  0  0  0  0  0
  2  1  1  6
  2  3  1  0
  3  4  1  0
  5 12  1  0
  5  2  1  0
  6  5  2  0
  7  8  1  0
  8  9  2  0
  8 10  1  0
 11 10  1  1
 11 12  1  0
 11 13  1  0
 13 14  2  0
 15 13  1  0
 15 16  1  0
 16 17  1  6
 17 18  1  0
 18 22  1  0
 18 19  2  0
 20 21  1  0
 20 16  1  0
 23 20  2  0
M  END
$$$$
