CND.pdb
     RDKit          3D

 23 22  0  0  1  0  0  0  0  0999 V2000
   22.2279  -14.0121  -19.8147 N   0  0  0  0  0  0  0  0  0  0  0  0
   21.3076  -14.1094  -18.6979 C   0  0  1  0  0  0  0  0  0  0  0  0
   21.4145  -15.5530  -18.1923 C   0  0  0  0  0  0  0  0  0  0  0  0
   21.2970  -16.6346  -19.6504 S   0  0  0  0  0  0  0  0  0  0  0  0
   21.7283  -13.2246  -17.5804 C   0  0  0  0  0  0  0  0  0  0  0  0
   21.1376  -13.1531  -16.4967 O   0  0  0  0  0  0  0  0  0  0  0  0
   26.2606  -10.7307  -14.9894 N   0  0  0  0  0  0  0  0  0  0  0  0
   25.3954  -10.2817  -16.0226 C   0  0  0  0  0  0  0  0  0  0  0  0
   25.1707   -9.0544  -16.1002 O   0  0  0  0  0  0  0  0  0  0  0  0
   24.8226  -11.2932  -16.9312 C   0  0  0  0  0  0  0  0  0  0  0  0
   23.3230  -11.4239  -16.8333 C   0  0  2  0  0  0  0  0  0  0  0  0
   22.8801  -12.4093  -17.7658 N   0  0  0  0  0  0  0  0  0  0  0  0
   22.6564  -10.1203  -16.9776 C   0  0  0  0  0  0  0  0  0  0  0  0
   22.7536   -9.5273  -18.0830 O   0  0  0  0  0  0  0  0  0  0  0  0
   21.9097   -9.4752  -15.9672 N   0  0  0  0  0  0  0  0  0  0  0  0
   21.2332   -8.2297  -16.0962 C   0  0  1  0  0  0  0  0  0  0  0  0
   19.7459   -8.3149  -16.1605 C   0  0  0  0  0  0  0  0  0  0  0  0
   19.0770   -7.0037  -16.1975 C   0  0  0  0  0  0  0  0  0  0  0  0
   19.3489   -6.2416  -17.1643 O   0  0  0  0  0  0  0  0  0  0  0  0
   21.5905   -7.3521  -14.9421 C   0  0  0  0  0  0  0  0  0  0  0  0
   21.2990   -6.0008  -14.9016 O   0  0  0  0  0  0  0  0  0  0  0  0
   18.1793   -6.5435  -15.2618 O   0  0  0  0  0  0  0  0  0  0  0  0
   22.1850   -7.8535  -13.9534 O   0  0  0  0  0  0  0  0  0  0  0  0
  2  1  1  6
  2  3  1  0
  3  4  1  0
  5 12  1  0
  5  2  1  0
  6  5  2  0
  7  8  1  0
  8  9  2  0
  8 10  1  0
 11 10  1  6
 11 12  1  0
 11 13  1  0
 13 14  2  0
 15 13  1  0
 15 16  1  0
 16 17  1  1
 17 18  1  0
 18 22  1  0
 18 19  2  0
 20 21  1  0
 20 16  1  0
 23 20  2  0
M  END
$$$$
