CND.pdb
     RDKit          3D

 23 22  0  0  1  0  0  0  0  0999 V2000
   17.9994  -11.2000  -15.3779 N   0  0  0  0  0  0  0  0  0  0  0  0
   18.0674   -9.9846  -16.1665 C   0  0  1  0  0  0  0  0  0  0  0  0
   16.6373   -9.4333  -16.2094 C   0  0  0  0  0  0  0  0  0  0  0  0
   15.6532  -10.5919  -17.2087 S   0  0  0  0  0  0  0  0  0  0  0  0
   18.9092   -8.9595  -15.4962 C   0  0  0  0  0  0  0  0  0  0  0  0
   18.7048   -8.5395  -14.3515 O   0  0  0  0  0  0  0  0  0  0  0  0
   22.1218   -9.4885  -14.1325 N   0  0  0  0  0  0  0  0  0  0  0  0
   22.9257   -8.9904  -15.1922 C   0  0  0  0  0  0  0  0  0  0  0  0
   24.0717   -9.4713  -15.3279 O   0  0  0  0  0  0  0  0  0  0  0  0
   22.3538   -7.9416  -16.0581 C   0  0  0  0  0  0  0  0  0  0  0  0
   20.9635   -7.5116  -15.6610 C   0  0  2  0  0  0  0  0  0  0  0  0
   20.0180   -8.4273  -16.2125 N   0  0  0  0  0  0  0  0  0  0  0  0
   20.7114   -6.1056  -16.0133 C   0  0  0  0  0  0  0  0  0  0  0  0
   20.1190   -5.8663  -17.0972 O   0  0  0  0  0  0  0  0  0  0  0  0
   21.0837   -4.9933  -15.2267 N   0  0  0  0  0  0  0  0  0  0  0  0
   20.7079   -3.6411  -15.4630 C   0  0  1  0  0  0  0  0  0  0  0  0
   19.2464   -3.3596  -15.3728 C   0  0  0  0  0  0  0  0  0  0  0  0
   18.8924   -1.9596  -15.6602 C   0  0  0  0  0  0  0  0  0  0  0  0
   19.6202   -1.0625  -15.1553 O   0  0  0  0  0  0  0  0  0  0  0  0
   21.4043   -2.7566  -14.4820 C   0  0  0  0  0  0  0  0  0  0  0  0
   21.5634   -1.3960  -14.6713 O   0  0  0  0  0  0  0  0  0  0  0  0
   17.8312   -1.5518  -16.4354 O   0  0  0  0  0  0  0  0  0  0  0  0
   21.8731   -3.2608  -13.4291 O   0  0  0  0  0  0  0  0  0  0  0  0
  2  1  1  1
  2  3  1  0
  3  4  1  0
  5 12  1  0
  5  2  1  0
  6  5  2  0
  7  8  1  0
  8  9  2  0
  8 10  1  0
 11 10  1  6
 11 12  1  0
 11 13  1  0
 13 14  2  0
 15 13  1  0
 15 16  1  0
 16 17  1  1
 17 18  1  0
 18 22  1  0
 18 19  2  0
 20 21  1  0
 20 16  1  0
 23 20  2  0
M  END
$$$$
