CND.pdb
     RDKit          3D

 23 22  0  0  1  0  0  0  0  0999 V2000
   13.2192  -10.5027  -10.3049 N   0  0  0  0  0  0  0  0  0  0  0  0
   14.5529  -10.1305   -9.8729 C   0  0  1  0  0  0  0  0  0  0  0  0
   15.5173  -10.8901  -10.7917 C   0  0  0  0  0  0  0  0  0  0  0  0
   15.6455  -12.5838  -10.1403 S   0  0  0  0  0  0  0  0  0  0  0  0
   14.7986   -8.6806  -10.0874 C   0  0  0  0  0  0  0  0  0  0  0  0
   14.3955   -8.0503  -11.0716 O   0  0  0  0  0  0  0  0  0  0  0  0
   13.2818   -5.7244   -8.7709 N   0  0  0  0  0  0  0  0  0  0  0  0
   14.1649   -5.5584   -7.6709 C   0  0  0  0  0  0  0  0  0  0  0  0
   13.6892   -5.1067   -6.6066 O   0  0  0  0  0  0  0  0  0  0  0  0
   15.5802   -5.9297   -7.8600 C   0  0  0  0  0  0  0  0  0  0  0  0
   15.8683   -6.5853   -9.1877 C   0  0  2  0  0  0  0  0  0  0  0  0
   15.5424   -7.9721   -9.1021 N   0  0  0  0  0  0  0  0  0  0  0  0
   17.2449   -6.3200   -9.6340 C   0  0  0  0  0  0  0  0  0  0  0  0
   18.1521   -6.2910   -8.7628 O   0  0  0  0  0  0  0  0  0  0  0  0
   17.6337   -6.0934  -10.9727 N   0  0  0  0  0  0  0  0  0  0  0  0
   18.9681   -5.9193  -11.4358 C   0  0  1  0  0  0  0  0  0  0  0  0
   19.7484   -7.1763  -11.6217 C   0  0  0  0  0  0  0  0  0  0  0  0
   21.1081   -6.9597  -12.1435 C   0  0  0  0  0  0  0  0  0  0  0  0
   21.7926   -6.0427  -11.6142 O   0  0  0  0  0  0  0  0  0  0  0  0
   18.9467   -5.1980  -12.7431 C   0  0  0  0  0  0  0  0  0  0  0  0
   20.0418   -4.5244  -13.2526 O   0  0  0  0  0  0  0  0  0  0  0  0
   21.6916   -7.6774  -13.1621 O   0  0  0  0  0  0  0  0  0  0  0  0
   17.8884   -5.1954  -13.4231 O   0  0  0  0  0  0  0  0  0  0  0  0
  2  1  1  6
  2  3  1  0
  3  4  1  0
  5 12  1  0
  5  2  1  0
  6  5  2  0
  7  8  1  0
  8  9  2  0
  8 10  1  0
 11 10  1  1
 11 12  1  0
 11 13  1  0
 13 14  2  0
 15 13  1  0
 15 16  1  0
 16 17  1  6
 17 18  1  0
 18 22  1  0
 18 19  2  0
 20 21  1  0
 20 16  1  0
 23 20  2  0
M  END
$$$$
