CND.pdb
     RDKit          3D

 23 22  0  0  1  0  0  0  0  0999 V2000
   27.5325  -21.5860  -15.6643 N   0  0  0  0  0  0  0  0  0  0  0  0
   26.9119  -20.5269  -14.8918 C   0  0  1  0  0  0  0  0  0  0  0  0
   27.0059  -19.2661  -15.7594 C   0  0  0  0  0  0  0  0  0  0  0  0
   28.6378  -18.5268  -15.4437 S   0  0  0  0  0  0  0  0  0  0  0  0
   25.4670  -20.7997  -14.6758 C   0  0  0  0  0  0  0  0  0  0  0  0
   24.7496  -21.4001  -15.4841 O   0  0  0  0  0  0  0  0  0  0  0  0
   21.5830  -20.1975   -9.9616 N   0  0  0  0  0  0  0  0  0  0  0  0
   21.9349  -20.7745  -11.2109 C   0  0  0  0  0  0  0  0  0  0  0  0
   21.0359  -21.3562  -11.8562 O   0  0  0  0  0  0  0  0  0  0  0  0
   23.3345  -20.6476  -11.6600 C   0  0  0  0  0  0  0  0  0  0  0  0
   23.4858  -20.4875  -13.1523 C   0  0  2  0  0  0  0  0  0  0  0  0
   24.8704  -20.3438  -13.4666 N   0  0  0  0  0  0  0  0  0  0  0  0
   22.6387  -19.4007  -13.6679 C   0  0  0  0  0  0  0  0  0  0  0  0
   23.1422  -18.2510  -13.7548 O   0  0  0  0  0  0  0  0  0  0  0  0
   21.2945  -19.5448  -14.0767 N   0  0  0  0  0  0  0  0  0  0  0  0
   20.6742  -18.8618  -15.1603 C   0  0  1  0  0  0  0  0  0  0  0  0
   21.4784  -18.7904  -16.4139 C   0  0  0  0  0  0  0  0  0  0  0  0
   20.8678  -17.9590  -17.4647 C   0  0  0  0  0  0  0  0  0  0  0  0
   19.7778  -17.3876  -17.1911 O   0  0  0  0  0  0  0  0  0  0  0  0
   19.3784  -19.5280  -15.4867 C   0  0  0  0  0  0  0  0  0  0  0  0
   19.2898  -20.8408  -15.9126 O   0  0  0  0  0  0  0  0  0  0  0  0
   21.3912  -17.7557  -18.7208 O   0  0  0  0  0  0  0  0  0  0  0  0
   18.3092  -18.8751  -15.3730 O   0  0  0  0  0  0  0  0  0  0  0  0
  2  1  1  6
  2  3  1  0
  3  4  1  0
  5 12  1  0
  5  2  1  0
  6  5  2  0
  7  8  1  0
  8  9  2  0
  8 10  1  0
 11 10  1  1
 11 12  1  0
 11 13  1  0
 13 14  2  0
 15 13  1  0
 15 16  1  0
 16 17  1  6
 17 18  1  0
 18 22  1  0
 18 19  2  0
 20 21  1  0
 20 16  1  0
 23 20  2  0
M  END
$$$$
