GIQ.pdb
     RDKit          3D

 22 21  0  0  1  0  0  0  0  0999 V2000
   21.8529  -19.8465  -15.1604 N   0  0  0  0  0  0  0  0  0  0  0  0
   22.3869  -19.0139  -16.2125 C   0  0  0  0  0  0  0  0  0  0  0  0
   22.6482  -17.6308  -15.6944 C   0  0  0  0  0  0  0  0  0  0  0  0
   21.9378  -17.1728  -14.7757 O   0  0  0  0  0  0  0  0  0  0  0  0
   27.3381  -16.9531  -15.5651 C   0  0  0  0  0  0  0  0  0  0  0  0
   26.0931  -16.3383  -15.0127 C   0  0  0  0  0  0  0  0  0  0  0  0
   25.4572  -15.2973  -15.9081 C   0  0  2  0  0  0  0  0  0  0  0  0
   25.9418  -13.9201  -15.4657 C   0  0  0  0  0  0  0  0  0  0  0  0
   23.9644  -15.4599  -15.8025 C   0  0  2  0  0  0  0  0  0  0  0  0
   23.6948  -16.8361  -16.2369 N   0  0  0  0  0  0  0  0  0  0  0  0
   23.1884  -14.5019  -16.6225 C   0  0  0  0  0  0  0  0  0  0  0  0
   23.3291  -14.5649  -17.8922 O   0  0  0  0  0  0  0  0  0  0  0  0
   17.7913  -12.5318  -18.7012 N   0  0  0  0  0  0  0  0  0  0  0  0
   18.0752  -11.4794  -17.7226 C   0  0  0  0  0  0  0  0  0  0  0  0
   17.2291  -10.5640  -17.7604 O   0  0  0  0  0  0  0  0  0  0  0  0
   19.2434  -11.5931  -16.8587 C   0  0  0  0  0  0  0  0  0  0  0  0
   20.1388  -12.7553  -16.9399 C   0  0  0  0  0  0  0  0  0  0  0  0
   21.5982  -12.5707  -17.0247 C   0  0  2  0  0  0  0  0  0  0  0  0
   22.3115  -13.5295  -16.1675 N   0  0  0  0  0  0  0  0  0  0  0  0
   22.0097  -11.1946  -16.6777 C   0  0  0  0  0  0  0  0  0  0  0  0
   21.9414  -10.1168  -17.5272 O   0  0  0  0  0  0  0  0  0  0  0  0
   22.4688  -10.9676  -15.4967 O   0  0  0  0  0  0  0  0  0  0  0  0
  2  3  1  0
  2  1  1  0
  3  4  2  0
  5  6  1  0
  6  7  1  0
  7  9  1  0
  7  8  1  1
  9 11  1  0
  9 10  1  6
 10  3  1  0
 11 12  2  0
 11 19  1  0
 14 13  1  0
 14 16  1  0
 15 14  2  0
 17 16  1  0
 18 17  1  1
 18 20  1  0
 19 18  1  0
 20 22  2  0
 20 21  1  0
M  END
$$$$
