GIQ.pdb
     RDKit          3D

 22 21  0  0  1  0  0  0  0  0999 V2000
   28.8696  -24.6650  -16.9880 N   0  0  0  0  0  0  0  0  0  0  0  0
   27.8598  -23.7100  -17.3801 C   0  0  0  0  0  0  0  0  0  0  0  0
   27.6167  -22.7304  -16.2706 C   0  0  0  0  0  0  0  0  0  0  0  0
   27.7033  -23.1094  -15.0844 O   0  0  0  0  0  0  0  0  0  0  0  0
   27.3029  -16.5747  -15.6368 C   0  0  0  0  0  0  0  0  0  0  0  0
   27.1104  -17.9678  -15.1315 C   0  0  0  0  0  0  0  0  0  0  0  0
   27.2495  -19.0427  -16.1876 C   0  0  2  0  0  0  0  0  0  0  0  0
   26.2244  -18.7754  -17.2853 C   0  0  0  0  0  0  0  0  0  0  0  0
   27.0548  -20.3723  -15.5090 C   0  0  2  0  0  0  0  0  0  0  0  0
   27.2890  -21.3764  -16.5541 N   0  0  0  0  0  0  0  0  0  0  0  0
   25.7137  -20.5589  -14.9096 C   0  0  0  0  0  0  0  0  0  0  0  0
   24.7589  -20.8882  -15.6943 O   0  0  0  0  0  0  0  0  0  0  0  0
   24.1613  -21.1503   -8.6238 N   0  0  0  0  0  0  0  0  0  0  0  0
   22.8738  -21.0778   -9.3185 C   0  0  0  0  0  0  0  0  0  0  0  0
   21.9108  -21.1584   -8.5301 O   0  0  0  0  0  0  0  0  0  0  0  0
   22.8429  -20.9322  -10.7683 C   0  0  0  0  0  0  0  0  0  0  0  0
   24.0833  -20.8121  -11.5469 C   0  0  0  0  0  0  0  0  0  0  0  0
   24.0370  -20.7035  -13.0156 C   0  0  2  0  0  0  0  0  0  0  0  0
   25.3667  -20.4176  -13.5751 N   0  0  0  0  0  0  0  0  0  0  0  0
   23.0767  -19.6770  -13.4711 C   0  0  0  0  0  0  0  0  0  0  0  0
   21.7638  -19.9192  -13.7959 O   0  0  0  0  0  0  0  0  0  0  0  0
   23.4804  -18.4594  -13.5783 O   0  0  0  0  0  0  0  0  0  0  0  0
  2  3  1  0
  2  1  1  0
  3  4  2  0
  5  6  1  0
  6  7  1  0
  7  9  1  0
  7  8  1  6
  9 11  1  0
  9 10  1  6
 10  3  1  0
 11 12  2  0
 11 19  1  0
 14 13  1  0
 14 16  1  0
 15 14  2  0
 17 16  1  0
 18 17  1  1
 18 20  1  0
 19 18  1  0
 20 22  2  0
 20 21  1  0
M  END
$$$$
