GIQ.pdb
     RDKit          3D

 22 21  0  0  1  0  0  0  0  0999 V2000
   28.5930  -20.0936  -15.9182 N   0  0  0  0  0  0  0  0  0  0  0  0
   28.0147  -19.5848  -14.6967 C   0  0  0  0  0  0  0  0  0  0  0  0
   26.9046  -20.4828  -14.2375 C   0  0  0  0  0  0  0  0  0  0  0  0
   26.5252  -21.4181  -14.9721 O   0  0  0  0  0  0  0  0  0  0  0  0
   25.5806  -20.1418   -8.8086 C   0  0  0  0  0  0  0  0  0  0  0  0
   25.4063  -20.0624  -10.2906 C   0  0  0  0  0  0  0  0  0  0  0  0
   25.5653  -21.3829  -11.0123 C   0  0  2  0  0  0  0  0  0  0  0  0
   26.9959  -21.8730  -10.8109 C   0  0  0  0  0  0  0  0  0  0  0  0
   25.2181  -21.1532  -12.4590 C   0  0  2  0  0  0  0  0  0  0  0  0
   26.2799  -20.2813  -12.9764 N   0  0  0  0  0  0  0  0  0  0  0  0
   23.8922  -20.5305  -12.6751 C   0  0  0  0  0  0  0  0  0  0  0  0
   23.7618  -19.2984  -12.3578 O   0  0  0  0  0  0  0  0  0  0  0  0
   19.1382  -18.0797  -16.7201 N   0  0  0  0  0  0  0  0  0  0  0  0
   19.6885  -19.4299  -16.5792 C   0  0  0  0  0  0  0  0  0  0  0  0
   19.0059  -20.2796  -17.1853 O   0  0  0  0  0  0  0  0  0  0  0  0
   20.8982  -19.6381  -15.7934 C   0  0  0  0  0  0  0  0  0  0  0  0
   20.9858  -20.7223  -14.8054 C   0  0  0  0  0  0  0  0  0  0  0  0
   21.4788  -20.4547  -13.4430 C   0  0  2  0  0  0  0  0  0  0  0  0
   22.7573  -21.1365  -13.1910 N   0  0  0  0  0  0  0  0  0  0  0  0
   20.4988  -20.8409  -12.4068 C   0  0  0  0  0  0  0  0  0  0  0  0
   19.4132  -20.0864  -12.0326 O   0  0  0  0  0  0  0  0  0  0  0  0
   20.6559  -21.9641  -11.7977 O   0  0  0  0  0  0  0  0  0  0  0  0
  2  3  1  0
  2  1  1  0
  3  4  2  0
  5  6  1  0
  6  7  1  0
  7  9  1  0
  7  8  1  6
  9 11  1  0
  9 10  1  1
 10  3  1  0
 11 12  2  0
 11 19  1  0
 14 13  1  0
 14 16  1  0
 15 14  2  0
 17 16  1  0
 18 17  1  6
 18 20  1  0
 19 18  1  0
 20 22  2  0
 20 21  1  0
M  END
$$$$
