GIQ.pdb
     RDKit          3D

 22 21  0  0  1  0  0  0  0  0999 V2000
    9.9076   -9.7938   -8.6041 N   0  0  0  0  0  0  0  0  0  0  0  0
    9.9794   -9.6176  -10.0356 C   0  0  0  0  0  0  0  0  0  0  0  0
   11.4114   -9.5555  -10.4772 C   0  0  0  0  0  0  0  0  0  0  0  0
   12.3107   -9.3837   -9.6287 O   0  0  0  0  0  0  0  0  0  0  0  0
   12.7047  -12.7801  -14.3072 C   0  0  0  0  0  0  0  0  0  0  0  0
   12.8978  -11.8297  -13.1703 C   0  0  0  0  0  0  0  0  0  0  0  0
   13.1895  -10.4045  -13.5869 C   0  0  2  0  0  0  0  0  0  0  0  0
   14.5525  -10.3717  -14.2712 C   0  0  0  0  0  0  0  0  0  0  0  0
   13.1295   -9.5495  -12.3494 C   0  0  2  0  0  0  0  0  0  0  0  0
   11.7561   -9.6900  -11.8499 N   0  0  0  0  0  0  0  0  0  0  0  0
   13.4479   -8.1220  -12.5800 C   0  0  0  0  0  0  0  0  0  0  0  0
   12.6943   -7.4733  -13.3843 O   0  0  0  0  0  0  0  0  0  0  0  0
   15.7430   -3.8676   -8.7983 N   0  0  0  0  0  0  0  0  0  0  0  0
   15.4319   -3.0682   -9.9856 C   0  0  0  0  0  0  0  0  0  0  0  0
   15.7704   -1.8756   -9.8494 O   0  0  0  0  0  0  0  0  0  0  0  0
   14.7953   -3.6997  -11.1346 C   0  0  0  0  0  0  0  0  0  0  0  0
   14.4588   -5.1300  -11.1264 C   0  0  0  0  0  0  0  0  0  0  0  0
   14.7661   -5.9773  -12.2920 C   0  0  2  0  0  0  0  0  0  0  0  0
   14.4837   -7.3939  -12.0155 N   0  0  0  0  0  0  0  0  0  0  0  0
   16.1670   -5.8295  -12.7381 C   0  0  0  0  0  0  0  0  0  0  0  0
   17.1973   -6.6652  -12.3803 O   0  0  0  0  0  0  0  0  0  0  0  0
   16.4650   -4.8516  -13.5204 O   0  0  0  0  0  0  0  0  0  0  0  0
  2  3  1  0
  2  1  1  0
  3  4  2  0
  5  6  1  0
  6  7  1  0
  7  9  1  0
  7  8  1  1
  9 11  1  0
  9 10  1  6
 10  3  1  0
 11 12  2  0
 11 19  1  0
 14 13  1  0
 14 16  1  0
 15 14  2  0
 17 16  1  0
 18 17  1  1
 18 20  1  0
 19 18  1  0
 20 22  2  0
 20 21  1  0
M  END
$$$$
