GIQ.pdb
     RDKit          3D

 22 21  0  0  1  0  0  0  0  0999 V2000
   20.9723  -17.9476  -16.8432 N   0  0  0  0  0  0  0  0  0  0  0  0
   21.6127  -16.8195  -17.4778 C   0  0  0  0  0  0  0  0  0  0  0  0
   22.0442  -15.8219  -16.4444 C   0  0  0  0  0  0  0  0  0  0  0  0
   21.3790  -15.6944  -15.3958 O   0  0  0  0  0  0  0  0  0  0  0  0
   27.0850  -15.4426  -15.6482 C   0  0  0  0  0  0  0  0  0  0  0  0
   25.6225  -15.2481  -15.4106 C   0  0  0  0  0  0  0  0  0  0  0  0
   25.0980  -13.8860  -15.8101 C   0  0  2  0  0  0  0  0  0  0  0  0
   25.7079  -12.8426  -14.8791 C   0  0  0  0  0  0  0  0  0  0  0  0
   23.5955  -13.9389  -15.7338 C   0  0  2  0  0  0  0  0  0  0  0  0
   23.2011  -15.0203  -16.6451 N   0  0  0  0  0  0  0  0  0  0  0  0
   22.9220  -12.6763  -16.1143 C   0  0  0  0  0  0  0  0  0  0  0  0
   23.0528  -12.2807  -17.3235 O   0  0  0  0  0  0  0  0  0  0  0  0
   18.6947  -10.3801  -18.2802 N   0  0  0  0  0  0  0  0  0  0  0  0
   18.5346   -9.3657  -17.2357 C   0  0  0  0  0  0  0  0  0  0  0  0
   17.8084   -8.4220  -17.6064 O   0  0  0  0  0  0  0  0  0  0  0  0
   19.1980   -9.5422  -15.9500 C   0  0  0  0  0  0  0  0  0  0  0  0
   20.0403  -10.7165  -15.6841 C   0  0  0  0  0  0  0  0  0  0  0  0
   21.5092  -10.6088  -15.7281 C   0  0  2  0  0  0  0  0  0  0  0  0
   22.1524  -11.8601  -15.3000 N   0  0  0  0  0  0  0  0  0  0  0  0
   22.0132   -9.4873  -14.9088 C   0  0  0  0  0  0  0  0  0  0  0  0
   22.2377   -8.2140  -15.3739 O   0  0  0  0  0  0  0  0  0  0  0  0
   22.2669   -9.6980  -13.6644 O   0  0  0  0  0  0  0  0  0  0  0  0
  2  3  1  0
  2  1  1  0
  3  4  2  0
  5  6  1  0
  6  7  1  0
  7  9  1  0
  7  8  1  1
  9 11  1  0
  9 10  1  6
 10  3  1  0
 11 12  2  0
 11 19  1  0
 14 13  1  0
 14 16  1  0
 15 14  2  0
 17 16  1  0
 18 17  1  1
 18 20  1  0
 19 18  1  0
 20 22  2  0
 20 21  1  0
M  END
$$$$
