GIQ.pdb
     RDKit          3D

 22 21  0  0  1  0  0  0  0  0999 V2000
   16.5956  -12.2843  -11.8368 N   0  0  0  0  0  0  0  0  0  0  0  0
   16.1043  -11.6763  -10.6226 C   0  0  0  0  0  0  0  0  0  0  0  0
   15.6048  -10.2904  -10.9043 C   0  0  0  0  0  0  0  0  0  0  0  0
   14.7268  -10.1172  -11.7747 O   0  0  0  0  0  0  0  0  0  0  0  0
   13.9024   -7.4299   -7.0228 C   0  0  0  0  0  0  0  0  0  0  0  0
   14.2643   -7.9284   -8.3843 C   0  0  0  0  0  0  0  0  0  0  0  0
   15.4577   -7.2380   -9.0082 C   0  0  2  0  0  0  0  0  0  0  0  0
   15.2018   -5.7341   -9.0024 C   0  0  0  0  0  0  0  0  0  0  0  0
   15.6342   -7.8016  -10.3928 C   0  0  2  0  0  0  0  0  0  0  0  0
   16.1192   -9.1727  -10.1921 N   0  0  0  0  0  0  0  0  0  0  0  0
   16.5795   -7.0424  -11.2429 C   0  0  0  0  0  0  0  0  0  0  0  0
   17.7473   -6.8201  -10.7709 O   0  0  0  0  0  0  0  0  0  0  0  0
   17.5406   -7.1552  -17.4621 N   0  0  0  0  0  0  0  0  0  0  0  0
   17.9751   -8.0204  -16.3629 C   0  0  0  0  0  0  0  0  0  0  0  0
   18.3529   -9.1379  -16.7675 O   0  0  0  0  0  0  0  0  0  0  0  0
   17.9242   -7.5271  -14.9924 C   0  0  0  0  0  0  0  0  0  0  0  0
   17.3851   -6.1955  -14.6832 C   0  0  0  0  0  0  0  0  0  0  0  0
   17.2966   -5.7299  -13.2881 C   0  0  2  0  0  0  0  0  0  0  0  0
   16.3434   -6.5373  -12.5119 N   0  0  0  0  0  0  0  0  0  0  0  0
   16.9262   -4.3024  -13.1966 C   0  0  0  0  0  0  0  0  0  0  0  0
   15.7337   -3.8307  -12.7032 O   0  0  0  0  0  0  0  0  0  0  0  0
   17.7694   -3.4193  -13.6041 O   0  0  0  0  0  0  0  0  0  0  0  0
  2  3  1  0
  2  1  1  0
  3  4  2  0
  5  6  1  0
  6  7  1  0
  7  9  1  0
  7  8  1  6
  9 11  1  0
  9 10  1  1
 10  3  1  0
 11 12  2  0
 11 19  1  0
 14 13  1  0
 14 16  1  0
 15 14  2  0
 17 16  1  0
 18 17  1  6
 18 20  1  0
 19 18  1  0
 20 22  2  0
 20 21  1  0
M  END
$$$$
