GIQ.pdb
     RDKit          3D

 22 21  0  0  1  0  0  0  0  0999 V2000
   18.8309  -23.1088   -7.5078 N   0  0  0  0  0  0  0  0  0  0  0  0
   20.1202  -23.3800   -8.0991 C   0  0  0  0  0  0  0  0  0  0  0  0
   20.6832  -22.1296   -8.7067 C   0  0  0  0  0  0  0  0  0  0  0  0
   20.0071  -21.0803   -8.6940 O   0  0  0  0  0  0  0  0  0  0  0  0
   25.9924  -19.3493   -9.1811 C   0  0  0  0  0  0  0  0  0  0  0  0
   24.5862  -19.5411   -9.6489 C   0  0  0  0  0  0  0  0  0  0  0  0
   23.9907  -20.8901   -9.3092 C   0  0  2  0  0  0  0  0  0  0  0  0
   24.8927  -21.9750   -9.8894 C   0  0  0  0  0  0  0  0  0  0  0  0
   22.5935  -20.9224   -9.8686 C   0  0  2  0  0  0  0  0  0  0  0  0
   21.9768  -22.1256   -9.2963 N   0  0  0  0  0  0  0  0  0  0  0  0
   22.5311  -20.9679  -11.3473 C   0  0  0  0  0  0  0  0  0  0  0  0
   22.9104  -22.0471  -11.9196 O   0  0  0  0  0  0  0  0  0  0  0  0
   22.2973  -16.7958  -15.9320 N   0  0  0  0  0  0  0  0  0  0  0  0
   21.4776  -17.8566  -16.5222 C   0  0  0  0  0  0  0  0  0  0  0  0
   21.3415  -17.7133  -17.7536 O   0  0  0  0  0  0  0  0  0  0  0  0
   20.9323  -18.9061  -15.6705 C   0  0  0  0  0  0  0  0  0  0  0  0
   21.2322  -18.9508  -14.2327 C   0  0  0  0  0  0  0  0  0  0  0  0
   21.9639  -20.0925  -13.6564 C   0  0  2  0  0  0  0  0  0  0  0  0
   22.1010  -19.9615  -12.1980 N   0  0  0  0  0  0  0  0  0  0  0  0
   23.2987  -20.2673  -14.2657 C   0  0  0  0  0  0  0  0  0  0  0  0
   23.5619  -21.0383  -15.3721 O   0  0  0  0  0  0  0  0  0  0  0  0
   24.3026  -19.6604  -13.7357 O   0  0  0  0  0  0  0  0  0  0  0  0
  2  3  1  0
  2  1  1  0
  3  4  2  0
  5  6  1  0
  6  7  1  0
  7  9  1  0
  7  8  1  6
  9 11  1  0
  9 10  1  1
 10  3  1  0
 11 12  2  0
 11 19  1  0
 14 13  1  0
 14 16  1  0
 15 14  2  0
 17 16  1  0
 18 17  1  6
 18 20  1  0
 19 18  1  0
 20 22  2  0
 20 21  1  0
M  END
$$$$
