GIQ.pdb
     RDKit          3D

 22 21  0  0  1  0  0  0  0  0999 V2000
   21.9316  -13.7313  -18.6310 N   0  0  0  0  0  0  0  0  0  0  0  0
   21.8723  -12.2930  -18.7467 C   0  0  0  0  0  0  0  0  0  0  0  0
   22.2638  -11.6537  -17.4477 C   0  0  0  0  0  0  0  0  0  0  0  0
   21.5679  -11.8503  -16.4301 O   0  0  0  0  0  0  0  0  0  0  0  0
   26.9590  -12.2347  -15.7209 C   0  0  0  0  0  0  0  0  0  0  0  0
   25.5227  -11.8333  -15.8160 C   0  0  0  0  0  0  0  0  0  0  0  0
   25.2980  -10.3499  -16.0139 C   0  0  2  0  0  0  0  0  0  0  0  0
   25.9211   -9.6067  -14.8363 C   0  0  0  0  0  0  0  0  0  0  0  0
   23.8137  -10.1286  -16.1329 C   0  0  2  0  0  0  0  0  0  0  0  0
   23.4172  -10.8270  -17.3619 N   0  0  0  0  0  0  0  0  0  0  0  0
   23.4144   -8.7044  -16.2007 C   0  0  0  0  0  0  0  0  0  0  0  0
   23.9020   -8.0009  -17.1510 O   0  0  0  0  0  0  0  0  0  0  0  0
   18.8602   -4.9805  -17.4031 N   0  0  0  0  0  0  0  0  0  0  0  0
   19.1851   -6.3842  -17.6671 C   0  0  0  0  0  0  0  0  0  0  0  0
   18.5503   -6.8371  -18.6403 O   0  0  0  0  0  0  0  0  0  0  0  0
   20.1518   -7.0729  -16.8212 C   0  0  0  0  0  0  0  0  0  0  0  0
   20.8054   -6.3857  -15.6988 C   0  0  0  0  0  0  0  0  0  0  0  0
   22.2364   -6.6008  -15.4213 C   0  0  2  0  0  0  0  0  0  0  0  0
   22.5584   -8.0336  -15.3411 N   0  0  0  0  0  0  0  0  0  0  0  0
   22.6744   -5.9246  -14.1827 C   0  0  0  0  0  0  0  0  0  0  0  0
   23.0355   -4.6017  -14.0959 O   0  0  0  0  0  0  0  0  0  0  0  0
   22.7285   -6.6081  -13.0932 O   0  0  0  0  0  0  0  0  0  0  0  0
  2  3  1  0
  2  1  1  0
  3  4  2  0
  5  6  1  0
  6  7  1  0
  7  9  1  0
  7  8  1  1
  9 11  1  0
  9 10  1  6
 10  3  1  0
 11 12  2  0
 11 19  1  0
 14 13  1  0
 14 16  1  0
 15 14  2  0
 17 16  1  0
 18 17  1  1
 18 20  1  0
 19 18  1  0
 20 22  2  0
 20 21  1  0
M  END
$$$$
