GIQ.pdb
     RDKit          3D

 22 21  0  0  1  0  0  0  0  0999 V2000
   21.2817  -17.0092  -16.0640 N   0  0  0  0  0  0  0  0  0  0  0  0
   21.7703  -15.9080  -16.8603 C   0  0  0  0  0  0  0  0  0  0  0  0
   22.2553  -14.8023  -15.9705 C   0  0  0  0  0  0  0  0  0  0  0  0
   21.5847  -14.4794  -14.9682 O   0  0  0  0  0  0  0  0  0  0  0  0
   27.4005  -14.5661  -15.4258 C   0  0  0  0  0  0  0  0  0  0  0  0
   25.9447  -14.3325  -15.1823 C   0  0  0  0  0  0  0  0  0  0  0  0
   25.4427  -12.9783  -15.6339 C   0  0  2  0  0  0  0  0  0  0  0  0
   26.1391  -11.9047  -14.8035 C   0  0  0  0  0  0  0  0  0  0  0  0
   23.9462  -12.9726  -15.4710 C   0  0  2  0  0  0  0  0  0  0  0  0
   23.4687  -14.1183  -16.2549 N   0  0  0  0  0  0  0  0  0  0  0  0
   23.2889  -11.7275  -15.9297 C   0  0  0  0  0  0  0  0  0  0  0  0
   23.2759  -11.4979  -17.1879 O   0  0  0  0  0  0  0  0  0  0  0  0
   20.4871   -8.9413  -18.8332 N   0  0  0  0  0  0  0  0  0  0  0  0
   19.6116   -8.3362  -17.8268 C   0  0  0  0  0  0  0  0  0  0  0  0
   18.8611   -7.4701  -18.3185 O   0  0  0  0  0  0  0  0  0  0  0  0
   19.6982   -8.7721  -16.4387 C   0  0  0  0  0  0  0  0  0  0  0  0
   20.6040   -9.8574  -16.0377 C   0  0  0  0  0  0  0  0  0  0  0  0
   21.9963   -9.5660  -15.6533 C   0  0  2  0  0  0  0  0  0  0  0  0
   22.6746  -10.7665  -15.1420 N   0  0  0  0  0  0  0  0  0  0  0  0
   22.0858   -8.4824  -14.6527 C   0  0  0  0  0  0  0  0  0  0  0  0
   22.0505   -7.1400  -14.9438 O   0  0  0  0  0  0  0  0  0  0  0  0
   22.2062   -8.7985  -13.4107 O   0  0  0  0  0  0  0  0  0  0  0  0
  2  3  1  0
  2  1  1  0
  3  4  2  0
  5  6  1  0
  6  7  1  0
  7  9  1  0
  7  8  1  1
  9 11  1  0
  9 10  1  6
 10  3  1  0
 11 12  2  0
 11 19  1  0
 14 13  1  0
 14 16  1  0
 15 14  2  0
 17 16  1  0
 18 17  1  1
 18 20  1  0
 19 18  1  0
 20 22  2  0
 20 21  1  0
M  END
$$$$
