SKF.pdb
     RDKit          3D

 27 27  0  0  1  0  0  0  0  0999 V2000
    7.7323  -15.1339   18.8437 O   0  0  0  0  0  0  0  0  0  0  0  0
    8.6819  -15.9564   18.2268 C   0  0  0  0  0  0  0  0  0  0  0  0
    8.3871  -17.3826   18.6372 C   0  0  2  0  0  0  0  0  0  0  0  0
    7.0074  -17.6472   18.2963 N   0  0  0  0  0  0  0  0  0  0  0  0
    8.5920  -17.5031   20.1171 C   0  0  0  0  0  0  0  0  0  0  0  0
    7.5867  -17.5237   20.8601 O   0  0  0  0  0  0  0  0  0  0  0  0
    9.8627  -17.5921   20.6828 N   0  0  0  0  0  0  0  0  0  0  0  0
   10.0052  -17.8643   22.1140 C   0  0  1  0  0  0  0  0  0  0  0  0
   11.4220  -18.3650   22.3680 C   0  0  0  0  0  0  0  0  0  0  0  0
   11.5933  -18.6452   23.8260 C   0  0  0  0  0  0  0  0  0  0  0  0
   12.0530  -20.0375   24.1576 C   0  0  0  0  0  0  0  0  0  0  0  0
   12.3241  -20.2961   25.6066 C   0  0  0  0  0  0  0  0  0  0  0  0
   12.6755  -21.6559   25.9167 N   0  0  0  0  0  0  0  0  0  0  0  0
    9.6473  -16.6427   22.8293 C   0  0  0  0  0  0  0  0  0  0  0  0
   10.0327  -15.5262   22.3235 O   0  0  0  0  0  0  0  0  0  0  0  0
    8.9164  -16.5158   24.0209 N   0  0  0  0  0  0  0  0  0  0  0  0
    8.6762  -15.2234   24.7023 C   0  0  1  0  0  0  0  0  0  0  0  0
    7.2532  -14.8184   24.5593 C   0  0  0  0  0  0  0  0  0  0  0  0
    6.9777  -13.5832   25.2986 C   0  0  0  0  0  0  0  0  0  0  0  0
    7.4183  -12.3287   24.9037 C   0  0  0  0  0  0  0  0  0  0  0  0
    7.1635  -11.1735   25.5855 C   0  0  0  0  0  0  0  0  0  0  0  0
    6.4206  -11.2365   26.7466 C   0  0  0  0  0  0  0  0  0  0  0  0
    5.9536  -12.4427   27.1952 C   0  0  0  0  0  0  0  0  0  0  0  0
    6.2315  -13.5831   26.4802 C   0  0  0  0  0  0  0  0  0  0  0  0
    9.0900  -15.3010   26.1019 C   0  0  0  0  0  0  0  0  0  0  0  0
    9.9184  -14.4620   26.5847 O   0  0  0  0  0  0  0  0  0  0  0  0
    8.5952  -16.2742   26.9264 O   0  0  0  0  0  0  0  0  0  0  0  0
  2  1  1  0
  3  2  1  0
  3  4  1  1
  5  3  1  0
  5  6  2  0
  7  5  1  0
  8  7  1  0
  8  9  1  6
 10  9  1  0
 11 10  1  0
 12 11  1  0
 13 12  1  0
 14  8  1  0
 15 14  2  0
 16 14  1  0
 17 25  1  0
 17 16  1  0
 17 18  1  1
 19 18  1  0
 20 19  2  0
 21 20  1  0
 22 21  2  0
 22 23  1  0
 23 24  2  0
 24 19  1  0
 25 27  1  0
 26 25  2  0
M  END
$$$$
