SKF.pdb
     RDKit          3D

 27 27  0  0  1  0  0  0  0  0999 V2000
    6.5023  -18.7068   24.3676 O   0  0  0  0  0  0  0  0  0  0  0  0
    5.3365  -18.7280   23.5934 C   0  0  0  0  0  0  0  0  0  0  0  0
    5.7470  -18.5788   22.1447 C   0  0  2  0  0  0  0  0  0  0  0  0
    6.0010  -19.9075   21.6350 N   0  0  0  0  0  0  0  0  0  0  0  0
    6.9946  -17.7500   22.0876 C   0  0  0  0  0  0  0  0  0  0  0  0
    8.0935  -18.3319   21.9568 O   0  0  0  0  0  0  0  0  0  0  0  0
    6.9633  -16.3593   22.1757 N   0  0  0  0  0  0  0  0  0  0  0  0
    8.1953  -15.5902   21.9938 C   0  0  1  0  0  0  0  0  0  0  0  0
    7.8437  -14.2778   21.3034 C   0  0  0  0  0  0  0  0  0  0  0  0
    7.7878  -14.4960   19.8259 C   0  0  0  0  0  0  0  0  0  0  0  0
    8.2382  -13.3292   18.9920 C   0  0  0  0  0  0  0  0  0  0  0  0
    8.0940  -13.5037   17.5126 C   0  0  0  0  0  0  0  0  0  0  0  0
    8.3954  -12.3292   16.7389 N   0  0  0  0  0  0  0  0  0  0  0  0
    8.8191  -15.4466   23.3062 C   0  0  0  0  0  0  0  0  0  0  0  0
    9.9204  -14.7876   23.3691 O   0  0  0  0  0  0  0  0  0  0  0  0
    8.3672  -15.9365   24.5415 N   0  0  0  0  0  0  0  0  0  0  0  0
    9.0673  -15.6982   25.8243 C   0  0  1  0  0  0  0  0  0  0  0  0
    8.0857  -15.4477   26.9121 C   0  0  0  0  0  0  0  0  0  0  0  0
    7.4407  -14.1414   26.7524 C   0  0  0  0  0  0  0  0  0  0  0  0
    6.0715  -13.9370   26.8393 C   0  0  0  0  0  0  0  0  0  0  0  0
    5.4637  -12.7231   26.6942 C   0  0  0  0  0  0  0  0  0  0  0  0
    6.2451  -11.6136   26.4441 C   0  0  0  0  0  0  0  0  0  0  0  0
    7.6045  -11.7426   26.3457 C   0  0  0  0  0  0  0  0  0  0  0  0
    8.1785  -12.9820   26.4979 C   0  0  0  0  0  0  0  0  0  0  0  0
    9.9597  -16.8139   26.1322 C   0  0  0  0  0  0  0  0  0  0  0  0
   10.6235  -16.8375   27.2193 O   0  0  0  0  0  0  0  0  0  0  0  0
   10.1005  -17.8600   25.2616 O   0  0  0  0  0  0  0  0  0  0  0  0
  2  1  1  0
  3  2  1  0
  3  4  1  1
  5  3  1  0
  5  6  2  0
  7  5  1  0
  8  7  1  0
  8  9  1  1
 10  9  1  0
 11 10  1  0
 12 11  1  0
 13 12  1  0
 14  8  1  0
 15 14  2  0
 16 14  1  0
 17 25  1  0
 17 16  1  0
 17 18  1  1
 19 18  1  0
 20 19  2  0
 21 20  1  0
 22 21  2  0
 22 23  1  0
 23 24  2  0
 24 19  1  0
 25 27  1  0
 26 25  2  0
M  END
$$$$
