SKF.pdb
     RDKit          3D

 27 27  0  0  1  0  0  0  0  0999 V2000
    8.2379  -19.4837   22.9065 O   0  0  0  0  0  0  0  0  0  0  0  0
    7.1186  -19.1956   22.1171 C   0  0  0  0  0  0  0  0  0  0  0  0
    7.6116  -18.8858   20.7205 C   0  0  2  0  0  0  0  0  0  0  0  0
    8.2400  -20.0854   20.2148 N   0  0  0  0  0  0  0  0  0  0  0  0
    8.6086  -17.7698   20.8055 C   0  0  0  0  0  0  0  0  0  0  0  0
    9.8262  -18.0528   20.7830 O   0  0  0  0  0  0  0  0  0  0  0  0
    8.2182  -16.4357   20.9081 N   0  0  0  0  0  0  0  0  0  0  0  0
    9.2332  -15.3845   20.9933 C   0  0  1  0  0  0  0  0  0  0  0  0
    8.5703  -14.0506   20.6708 C   0  0  0  0  0  0  0  0  0  0  0  0
    8.7293  -13.7592   19.2136 C   0  0  0  0  0  0  0  0  0  0  0  0
    7.5073  -13.2018   18.5383 C   0  0  0  0  0  0  0  0  0  0  0  0
    7.6343  -12.9786   17.0638 C   0  0  0  0  0  0  0  0  0  0  0  0
    8.2091  -14.0798   16.3388 N   0  0  0  0  0  0  0  0  0  0  0  0
    9.8368  -15.4660   22.3204 C   0  0  0  0  0  0  0  0  0  0  0  0
   11.0363  -15.0248   22.4531 O   0  0  0  0  0  0  0  0  0  0  0  0
    9.2711  -15.9672   23.5032 N   0  0  0  0  0  0  0  0  0  0  0  0
    9.8148  -15.6931   24.8529 C   0  0  1  0  0  0  0  0  0  0  0  0
    8.7101  -15.4545   25.8184 C   0  0  0  0  0  0  0  0  0  0  0  0
    9.2311  -15.1082   27.1437 C   0  0  0  0  0  0  0  0  0  0  0  0
    9.6353  -16.0421   28.0862 C   0  0  0  0  0  0  0  0  0  0  0  0
   10.1239  -15.7272   29.3216 C   0  0  0  0  0  0  0  0  0  0  0  0
   10.2308  -14.3978   29.6756 C   0  0  0  0  0  0  0  0  0  0  0  0
    9.8498  -13.4225   28.7937 C   0  0  0  0  0  0  0  0  0  0  0  0
    9.3627  -13.7803   27.5593 C   0  0  0  0  0  0  0  0  0  0  0  0
   10.6941  -16.7803   25.2780 C   0  0  0  0  0  0  0  0  0  0  0  0
   10.5022  -17.9720   24.8704 O   0  0  0  0  0  0  0  0  0  0  0  0
   11.7454  -16.5429   26.1210 O   0  0  0  0  0  0  0  0  0  0  0  0
  2  1  1  0
  3  2  1  0
  3  4  1  1
  5  3  1  0
  5  6  2  0
  7  5  1  0
  8  7  1  0
  8  9  1  1
 10  9  1  0
 11 10  1  0
 12 11  1  0
 13 12  1  0
 14  8  1  0
 15 14  2  0
 16 14  1  0
 17 25  1  0
 17 16  1  0
 17 18  1  1
 19 18  1  0
 20 19  2  0
 21 20  1  0
 22 21  2  0
 22 23  1  0
 23 24  2  0
 24 19  1  0
 25 27  1  0
 26 25  2  0
M  END
$$$$
