SKF.pdb
     RDKit          3D

 27 27  0  0  1  0  0  0  0  0999 V2000
   13.4034  -19.7946   19.7671 O   0  0  0  0  0  0  0  0  0  0  0  0
   12.9455  -18.6617   20.4495 C   0  0  0  0  0  0  0  0  0  0  0  0
   11.9074  -17.9908   19.5767 C   0  0  2  0  0  0  0  0  0  0  0  0
   12.5139  -16.7953   19.0359 N   0  0  0  0  0  0  0  0  0  0  0  0
   10.7264  -17.6377   20.4295 C   0  0  0  0  0  0  0  0  0  0  0  0
   10.2367  -16.4918   20.3277 O   0  0  0  0  0  0  0  0  0  0  0  0
   10.1638  -18.5448   21.3258 N   0  0  0  0  0  0  0  0  0  0  0  0
    8.9650  -18.1750   22.0800 C   0  0  1  0  0  0  0  0  0  0  0  0
    8.0804  -19.4092   22.2096 C   0  0  0  0  0  0  0  0  0  0  0  0
    6.8305  -19.0466   22.9442 C   0  0  0  0  0  0  0  0  0  0  0  0
    5.8568  -20.1750   23.1409 C   0  0  0  0  0  0  0  0  0  0  0  0
    4.5904  -19.8136   23.8521 C   0  0  0  0  0  0  0  0  0  0  0  0
    3.6557  -20.8969   23.9981 N   0  0  0  0  0  0  0  0  0  0  0  0
    9.4060  -17.5989   23.3472 C   0  0  0  0  0  0  0  0  0  0  0  0
    9.3979  -18.3638   24.3797 O   0  0  0  0  0  0  0  0  0  0  0  0
    9.8547  -16.2929   23.5988 N   0  0  0  0  0  0  0  0  0  0  0  0
    9.2671  -15.4080   24.6302 C   0  0  1  0  0  0  0  0  0  0  0  0
    8.0271  -14.7675   24.1187 C   0  0  0  0  0  0  0  0  0  0  0  0
    7.4608  -13.8459   25.1077 C   0  0  0  0  0  0  0  0  0  0  0  0
    6.3616  -14.1399   25.9011 C   0  0  0  0  0  0  0  0  0  0  0  0
    5.8301  -13.2878   26.8261 C   0  0  0  0  0  0  0  0  0  0  0  0
    6.4097  -12.0475   26.9985 C   0  0  0  0  0  0  0  0  0  0  0  0
    7.4980  -11.6909   26.2484 C   0  0  0  0  0  0  0  0  0  0  0  0
    8.0036  -12.5770   25.3275 C   0  0  0  0  0  0  0  0  0  0  0  0
    9.0346  -16.1516   25.8667 C   0  0  0  0  0  0  0  0  0  0  0  0
    8.1407  -17.0576   25.9249 O   0  0  0  0  0  0  0  0  0  0  0  0
    9.7733  -15.8942   26.9892 O   0  0  0  0  0  0  0  0  0  0  0  0
  2  1  1  0
  3  2  1  0
  3  4  1  1
  5  3  1  0
  5  6  2  0
  7  5  1  0
  8  7  1  0
  8  9  1  1
 10  9  1  0
 11 10  1  0
 12 11  1  0
 13 12  1  0
 14  8  1  0
 15 14  2  0
 16 14  1  0
 17 25  1  0
 17 16  1  0
 17 18  1  6
 19 18  1  0
 20 19  2  0
 21 20  1  0
 22 21  2  0
 22 23  1  0
 23 24  2  0
 24 19  1  0
 25 27  1  0
 26 25  2  0
M  END
$$$$
