SKF.pdb
     RDKit          3D

 27 27  0  0  1  0  0  0  0  0999 V2000
    9.7216  -13.5231   19.1882 O   0  0  0  0  0  0  0  0  0  0  0  0
    8.9505  -13.6270   20.3516 C   0  0  0  0  0  0  0  0  0  0  0  0
    7.7071  -14.4172   20.0070 C   0  0  2  0  0  0  0  0  0  0  0  0
    6.7149  -13.4713   19.5481 N   0  0  0  0  0  0  0  0  0  0  0  0
    7.2301  -15.1156   21.2445 C   0  0  0  0  0  0  0  0  0  0  0  0
    6.4003  -14.5341   21.9769 O   0  0  0  0  0  0  0  0  0  0  0  0
    7.6828  -16.3855   21.5981 N   0  0  0  0  0  0  0  0  0  0  0  0
    7.0929  -17.0754   22.7463 C   0  0  1  0  0  0  0  0  0  0  0  0
    7.0169  -18.5631   22.4247 C   0  0  0  0  0  0  0  0  0  0  0  0
    6.4232  -19.2906   23.5874 C   0  0  0  0  0  0  0  0  0  0  0  0
    6.2762  -20.7752   23.4025 C   0  0  0  0  0  0  0  0  0  0  0  0
    5.6072  -21.4993   24.5287 C   0  0  0  0  0  0  0  0  0  0  0  0
    5.5031  -22.9223   24.3476 N   0  0  0  0  0  0  0  0  0  0  0  0
    7.8967  -16.7400   23.9183 C   0  0  0  0  0  0  0  0  0  0  0  0
    9.1684  -16.6503   23.7577 O   0  0  0  0  0  0  0  0  0  0  0  0
    7.4605  -16.4898   25.2288 N   0  0  0  0  0  0  0  0  0  0  0  0
    8.3652  -16.1005   26.3343 C   0  0  1  0  0  0  0  0  0  0  0  0
    7.6129  -15.3685   27.3868 C   0  0  0  0  0  0  0  0  0  0  0  0
    7.1772  -14.0536   26.9082 C   0  0  0  0  0  0  0  0  0  0  0  0
    5.8966  -13.7803   26.4508 C   0  0  0  0  0  0  0  0  0  0  0  0
    5.4827  -12.5576   26.0059 C   0  0  0  0  0  0  0  0  0  0  0  0
    6.3824  -11.5114   26.0029 C   0  0  0  0  0  0  0  0  0  0  0  0
    7.6640  -11.7102   26.4411 C   0  0  0  0  0  0  0  0  0  0  0  0
    8.0421  -12.9561   26.8813 C   0  0  0  0  0  0  0  0  0  0  0  0
    9.0555  -17.2745   26.8647 C   0  0  0  0  0  0  0  0  0  0  0  0
    9.9829  -17.1506   27.7295 O   0  0  0  0  0  0  0  0  0  0  0  0
    8.7199  -18.5334   26.4471 O   0  0  0  0  0  0  0  0  0  0  0  0
  2  1  1  0
  3  2  1  0
  3  4  1  1
  5  3  1  0
  5  6  2  0
  7  5  1  0
  8  7  1  0
  8  9  1  6
 10  9  1  0
 11 10  1  0
 12 11  1  0
 13 12  1  0
 14  8  1  0
 15 14  2  0
 16 14  1  0
 17 25  1  0
 17 16  1  0
 17 18  1  1
 19 18  1  0
 20 19  2  0
 21 20  1  0
 22 21  2  0
 22 23  1  0
 23 24  2  0
 24 19  1  0
 25 27  1  0
 26 25  2  0
M  END
$$$$
