SKF.pdb
     RDKit          3D

 27 27  0  0  1  0  0  0  0  0999 V2000
    9.9793  -13.3549   20.2297 O   0  0  0  0  0  0  0  0  0  0  0  0
    9.3000  -14.1537   19.3027 C   0  0  0  0  0  0  0  0  0  0  0  0
    7.8172  -13.9786   19.5480 C   0  0  2  0  0  0  0  0  0  0  0  0
    7.5685  -12.5588   19.6576 N   0  0  0  0  0  0  0  0  0  0  0  0
    7.4627  -14.6716   20.8289 C   0  0  0  0  0  0  0  0  0  0  0  0
    6.8429  -14.0294   21.7044 O   0  0  0  0  0  0  0  0  0  0  0  0
    7.8025  -16.0020   21.0686 N   0  0  0  0  0  0  0  0  0  0  0  0
    7.2155  -16.7096   22.2075 C   0  0  1  0  0  0  0  0  0  0  0  0
    7.1763  -18.1973   21.8791 C   0  0  0  0  0  0  0  0  0  0  0  0
    6.6394  -18.9489   23.0540 C   0  0  0  0  0  0  0  0  0  0  0  0
    6.4902  -20.4306   22.8485 C   0  0  0  0  0  0  0  0  0  0  0  0
    5.7959  -21.1652   23.9524 C   0  0  0  0  0  0  0  0  0  0  0  0
    5.6583  -22.5804   23.7359 N   0  0  0  0  0  0  0  0  0  0  0  0
    7.9987  -16.3614   23.3896 C   0  0  0  0  0  0  0  0  0  0  0  0
    9.2717  -16.2598   23.2472 O   0  0  0  0  0  0  0  0  0  0  0  0
    7.5409  -16.1100   24.6925 N   0  0  0  0  0  0  0  0  0  0  0  0
    8.4352  -15.7967   25.8301 C   0  0  1  0  0  0  0  0  0  0  0  0
    7.6982  -15.0404   26.8762 C   0  0  0  0  0  0  0  0  0  0  0  0
    7.4641  -13.6544   26.4611 C   0  0  0  0  0  0  0  0  0  0  0  0
    8.4684  -12.7093   26.3131 C   0  0  0  0  0  0  0  0  0  0  0  0
    8.2584  -11.4174   25.9245 C   0  0  0  0  0  0  0  0  0  0  0  0
    6.9693  -11.0045   25.6566 C   0  0  0  0  0  0  0  0  0  0  0  0
    5.9290  -11.8855   25.7824 C   0  0  0  0  0  0  0  0  0  0  0  0
    6.1816  -13.1778   26.1761 C   0  0  0  0  0  0  0  0  0  0  0  0
    9.0386  -17.0199   26.3553 C   0  0  0  0  0  0  0  0  0  0  0  0
    8.5351  -18.1604   26.0929 O   0  0  0  0  0  0  0  0  0  0  0  0
   10.1595  -16.9686   27.1381 O   0  0  0  0  0  0  0  0  0  0  0  0
  2  1  1  0
  3  2  1  0
  3  4  1  1
  5  3  1  0
  5  6  2  0
  7  5  1  0
  8  7  1  0
  8  9  1  6
 10  9  1  0
 11 10  1  0
 12 11  1  0
 13 12  1  0
 14  8  1  0
 15 14  2  0
 16 14  1  0
 17 25  1  0
 17 16  1  0
 17 18  1  1
 19 18  1  0
 20 19  2  0
 21 20  1  0
 22 21  2  0
 22 23  1  0
 23 24  2  0
 24 19  1  0
 25 27  1  0
 26 25  2  0
M  END
$$$$
