SKF.pdb
     RDKit          3D

 27 27  0  0  1  0  0  0  0  0999 V2000
    9.8468  -13.7688   18.2089 O   0  0  0  0  0  0  0  0  0  0  0  0
    9.3000  -13.6787   19.4942 C   0  0  0  0  0  0  0  0  0  0  0  0
    7.9242  -14.3072   19.4508 C   0  0  2  0  0  0  0  0  0  0  0  0
    6.9712  -13.2341   19.2778 N   0  0  0  0  0  0  0  0  0  0  0  0
    7.6842  -15.0148   20.7501 C   0  0  0  0  0  0  0  0  0  0  0  0
    7.3629  -14.3363   21.7499 O   0  0  0  0  0  0  0  0  0  0  0  0
    7.8085  -16.3976   20.8730 N   0  0  0  0  0  0  0  0  0  0  0  0
    7.4744  -17.0489   22.1406 C   0  0  1  0  0  0  0  0  0  0  0  0
    7.4062  -18.5528   21.9035 C   0  0  0  0  0  0  0  0  0  0  0  0
    7.2475  -19.2532   23.2141 C   0  0  0  0  0  0  0  0  0  0  0  0
    6.0531  -20.1610   23.3110 C   0  0  0  0  0  0  0  0  0  0  0  0
    5.9147  -20.9043   24.6027 C   0  0  0  0  0  0  0  0  0  0  0  0
    4.7575  -21.7545   24.6833 N   0  0  0  0  0  0  0  0  0  0  0  0
    8.4669  -16.6261   23.1246 C   0  0  0  0  0  0  0  0  0  0  0  0
    9.7044  -16.7033   22.7876 O   0  0  0  0  0  0  0  0  0  0  0  0
    8.2502  -16.1285   24.4190 N   0  0  0  0  0  0  0  0  0  0  0  0
    9.3386  -15.8457   25.3821 C   0  0  1  0  0  0  0  0  0  0  0  0
    9.5617  -14.3806   25.4971 C   0  0  0  0  0  0  0  0  0  0  0  0
    8.3502  -13.6952   25.9558 C   0  0  0  0  0  0  0  0  0  0  0  0
    8.1352  -13.2941   27.2661 C   0  0  0  0  0  0  0  0  0  0  0  0
    7.0106  -12.6531   27.7002 C   0  0  0  0  0  0  0  0  0  0  0  0
    6.0098  -12.3767   26.7914 C   0  0  0  0  0  0  0  0  0  0  0  0
    6.1554  -12.7445   25.4808 C   0  0  0  0  0  0  0  0  0  0  0  0
    7.3027  -13.3882   25.0830 C   0  0  0  0  0  0  0  0  0  0  0  0
    9.0480  -16.4629   26.6747 C   0  0  0  0  0  0  0  0  0  0  0  0
    7.9297  -17.0350   26.8877 O   0  0  0  0  0  0  0  0  0  0  0  0
    9.9710  -16.4433   27.6844 O   0  0  0  0  0  0  0  0  0  0  0  0
  2  1  1  0
  3  2  1  0
  3  4  1  1
  5  3  1  0
  5  6  2  0
  7  5  1  0
  8  7  1  0
  8  9  1  6
 10  9  1  0
 11 10  1  0
 12 11  1  0
 13 12  1  0
 14  8  1  0
 15 14  2  0
 16 14  1  0
 17 25  1  0
 17 16  1  0
 17 18  1  1
 19 18  1  0
 20 19  2  0
 21 20  1  0
 22 21  2  0
 22 23  1  0
 23 24  2  0
 24 19  1  0
 25 27  1  0
 26 25  2  0
M  END
$$$$
