SKF.pdb
     RDKit          3D

 27 27  0  0  1  0  0  0  0  0999 V2000
    9.9896  -12.2267   19.0188 O   0  0  0  0  0  0  0  0  0  0  0  0
    9.2571  -12.7247   20.1024 C   0  0  0  0  0  0  0  0  0  0  0  0
    8.3414  -13.8081   19.5761 C   0  0  2  0  0  0  0  0  0  0  0  0
    7.1941  -13.1499   18.9929 N   0  0  0  0  0  0  0  0  0  0  0  0
    7.9194  -14.6729   20.7253 C   0  0  0  0  0  0  0  0  0  0  0  0
    6.8747  -14.3761   21.3448 O   0  0  0  0  0  0  0  0  0  0  0  0
    8.6541  -15.7901   21.1190 N   0  0  0  0  0  0  0  0  0  0  0  0
    8.0977  -16.7167   22.1060 C   0  0  1  0  0  0  0  0  0  0  0  0
    8.4233  -18.1388   21.6654 C   0  0  0  0  0  0  0  0  0  0  0  0
    7.4533  -18.5639   20.6108 C   0  0  0  0  0  0  0  0  0  0  0  0
    7.7134  -19.9193   20.0149 C   0  0  0  0  0  0  0  0  0  0  0  0
    6.7129  -20.3772   19.0003 C   0  0  0  0  0  0  0  0  0  0  0  0
    7.0397  -21.6212   18.3563 N   0  0  0  0  0  0  0  0  0  0  0  0
    8.6336  -16.3395   23.4109 C   0  0  0  0  0  0  0  0  0  0  0  0
    9.8552  -15.9438   23.4570 O   0  0  0  0  0  0  0  0  0  0  0  0
    7.9800  -16.3439   24.6531 N   0  0  0  0  0  0  0  0  0  0  0  0
    8.6331  -15.9592   25.9250 C   0  0  1  0  0  0  0  0  0  0  0  0
    7.6230  -15.4689   26.8991 C   0  0  0  0  0  0  0  0  0  0  0  0
    7.1624  -14.1218   26.5510 C   0  0  0  0  0  0  0  0  0  0  0  0
    8.0074  -13.0380   26.3632 C   0  0  0  0  0  0  0  0  0  0  0  0
    7.5861  -11.7811   26.0365 C   0  0  0  0  0  0  0  0  0  0  0  0
    6.2345  -11.5527   25.8781 C   0  0  0  0  0  0  0  0  0  0  0  0
    5.3431  -12.5777   26.0487 C   0  0  0  0  0  0  0  0  0  0  0  0
    5.8070  -13.8289   26.3774 C   0  0  0  0  0  0  0  0  0  0  0  0
    9.4141  -17.0754   26.4543 C   0  0  0  0  0  0  0  0  0  0  0  0
    9.3445  -18.2308   25.9219 O   0  0  0  0  0  0  0  0  0  0  0  0
   10.2400  -16.9046   27.5316 O   0  0  0  0  0  0  0  0  0  0  0  0
  2  1  1  0
  3  2  1  0
  3  4  1  1
  5  3  1  0
  5  6  2  0
  7  5  1  0
  8  7  1  0
  8  9  1  6
 10  9  1  0
 11 10  1  0
 12 11  1  0
 13 12  1  0
 14  8  1  0
 15 14  2  0
 16 14  1  0
 17 25  1  0
 17 16  1  0
 17 18  1  1
 19 18  1  0
 20 19  2  0
 21 20  1  0
 22 21  2  0
 22 23  1  0
 23 24  2  0
 24 19  1  0
 25 27  1  0
 26 25  2  0
M  END
$$$$
