DQT.pdb
     RDKit          3D

 25 24  0  0  1  0  0  0  0  0999 V2000
   16.0371  -16.6574   18.0211 N   0  0  0  0  0  0  0  0  0  0  0  0
   14.9260  -17.4939   17.6840 C   0  0  1  0  0  0  0  0  0  0  0  0
   15.3987  -18.4936   16.6460 C   0  0  0  0  0  0  0  0  0  0  0  0
   16.1163  -17.7268   15.5891 C   0  0  0  0  0  0  0  0  0  0  0  0
   15.7722  -16.5556   15.3248 O   0  0  0  0  0  0  0  0  0  0  0  0
   14.3617  -18.1990   18.8717 C   0  0  0  0  0  0  0  0  0  0  0  0
   13.4207  -18.9964   18.7143 O   0  0  0  0  0  0  0  0  0  0  0  0
   17.1812  -18.2769   14.8665 O   0  0  0  0  0  0  0  0  0  0  0  0
   17.7492  -20.1929   23.5855 N   0  0  0  0  0  0  0  0  0  0  0  0
   17.4258  -20.7713   22.3309 C   0  0  0  0  0  0  0  0  0  0  0  0
   18.1087  -21.7302   21.9204 O   0  0  0  0  0  0  0  0  0  0  0  0
   16.3150  -20.2562   21.5344 C   0  0  0  0  0  0  0  0  0  0  0  0
   15.4278  -19.2678   22.2132 C   0  0  0  0  0  0  0  0  0  0  0  0
   14.3735  -18.6478   21.3696 C   0  0  2  0  0  0  0  0  0  0  0  0
   14.8580  -17.9965   20.1873 N   0  0  0  0  0  0  0  0  0  0  0  0
   13.6691  -17.6224   22.1880 C   0  0  0  0  0  0  0  0  0  0  0  0
   14.3082  -16.5799   22.5280 O   0  0  0  0  0  0  0  0  0  0  0  0
   10.5158  -15.5426   21.6933 C   0  0  0  0  0  0  0  0  0  0  0  0
   10.3224  -16.3830   22.9416 C   0  0  1  0  0  0  0  0  0  0  0  0
    9.6366  -17.5643   22.6377 O   0  0  0  0  0  0  0  0  0  0  0  0
   11.6979  -16.7654   23.4487 C   0  0  2  0  0  0  0  0  0  0  0  0
   12.3181  -17.7624   22.6017 N   0  0  0  0  0  0  0  0  0  0  0  0
   11.5542  -17.3111   24.8089 C   0  0  0  0  0  0  0  0  0  0  0  0
   11.8172  -18.5022   25.0513 O   0  0  0  0  0  0  0  0  0  0  0  0
   11.1226  -16.5157   25.8583 O   0  0  0  0  0  0  0  0  0  0  0  0
  2  1  1  1
  3  4  1  0
  3  2  1  0
  4  8  1  0
  5  4  2  0
  6  2  1  0
  6  7  2  0
  9 10  1  0
 10 12  1  0
 11 10  2  0
 12 13  1  0
 14 13  1  1
 15 14  1  0
 15  6  1  0
 16 17  2  0
 16 14  1  0
 19 18  1  6
 19 21  1  0
 20 19  1  0
 21 23  1  0
 21 22  1  6
 22 16  1  0
 23 25  1  0
 24 23  2  0
M  END
$$$$
