DQT.pdb
     RDKit          3D

 25 24  0  0  1  0  0  0  0  0999 V2000
    9.6654  -16.2545   19.7447 N   0  0  0  0  0  0  0  0  0  0  0  0
    8.7502  -16.5970   20.7903 C   0  0  1  0  0  0  0  0  0  0  0  0
    8.6635  -18.1100   20.8510 C   0  0  0  0  0  0  0  0  0  0  0  0
    7.9147  -18.5582   19.6433 C   0  0  0  0  0  0  0  0  0  0  0  0
    7.9267  -17.8613   18.6067 O   0  0  0  0  0  0  0  0  0  0  0  0
    9.1614  -16.0422   22.1129 C   0  0  0  0  0  0  0  0  0  0  0  0
   10.3688  -16.0080   22.4084 O   0  0  0  0  0  0  0  0  0  0  0  0
    7.1844  -19.7518   19.6232 O   0  0  0  0  0  0  0  0  0  0  0  0
    5.5247  -12.4414   26.1340 N   0  0  0  0  0  0  0  0  0  0  0  0
    6.8426  -12.4271   26.6596 C   0  0  0  0  0  0  0  0  0  0  0  0
    7.1031  -11.6518   27.6004 O   0  0  0  0  0  0  0  0  0  0  0  0
    7.8753  -13.3029   26.1116 C   0  0  0  0  0  0  0  0  0  0  0  0
    7.5131  -14.0406   24.8669 C   0  0  0  0  0  0  0  0  0  0  0  0
    8.5502  -14.9552   24.3233 C   0  0  2  0  0  0  0  0  0  0  0  0
    8.2239  -15.5466   23.0582 N   0  0  0  0  0  0  0  0  0  0  0  0
    8.7465  -16.0640   25.2977 C   0  0  0  0  0  0  0  0  0  0  0  0
    7.7787  -16.8570   25.5109 O   0  0  0  0  0  0  0  0  0  0  0  0
   10.7140  -18.9682   25.1015 C   0  0  0  0  0  0  0  0  0  0  0  0
   11.2078  -18.3434   26.3931 C   0  0  1  0  0  0  0  0  0  0  0  0
   12.3618  -17.5861   26.1632 O   0  0  0  0  0  0  0  0  0  0  0  0
   10.1275  -17.4012   26.8833 C   0  0  2  0  0  0  0  0  0  0  0  0
    9.9662  -16.2696   25.9948 N   0  0  0  0  0  0  0  0  0  0  0  0
   10.5101  -16.9137   28.2192 C   0  0  0  0  0  0  0  0  0  0  0  0
   10.6915  -15.7016   28.4300 O   0  0  0  0  0  0  0  0  0  0  0  0
   10.6794  -17.7890   29.2801 O   0  0  0  0  0  0  0  0  0  0  0  0
  2  1  1  6
  3  4  1  0
  3  2  1  0
  4  8  1  0
  5  4  2  0
  6  2  1  0
  6  7  2  0
  9 10  1  0
 10 12  1  0
 11 10  2  0
 12 13  1  0
 14 13  1  1
 15 14  1  0
 15  6  1  0
 16 17  2  0
 16 14  1  0
 19 18  1  6
 19 21  1  0
 20 19  1  0
 21 23  1  0
 21 22  1  6
 22 16  1  0
 23 25  1  0
 24 23  2  0
M  END
$$$$
