DQT.pdb
     RDKit          3D

 25 24  0  0  1  0  0  0  0  0999 V2000
   12.7491  -17.6372   16.5656 N   0  0  0  0  0  0  0  0  0  0  0  0
   11.6979  -18.4109   17.1524 C   0  0  1  0  0  0  0  0  0  0  0  0
   11.5669  -19.6933   16.3532 C   0  0  0  0  0  0  0  0  0  0  0  0
   11.4578  -19.3098   14.9176 C   0  0  0  0  0  0  0  0  0  0  0  0
   10.6176  -18.4572   14.5610 O   0  0  0  0  0  0  0  0  0  0  0  0
   11.9476  -18.7138   18.5919 C   0  0  0  0  0  0  0  0  0  0  0  0
   11.1437  -19.4339   19.2094 O   0  0  0  0  0  0  0  0  0  0  0  0
   12.2748  -19.8776   13.9334 O   0  0  0  0  0  0  0  0  0  0  0  0
   17.1082  -18.4384   23.9320 N   0  0  0  0  0  0  0  0  0  0  0  0
   16.5681  -18.9640   22.7298 C   0  0  0  0  0  0  0  0  0  0  0  0
   17.3320  -19.5467   21.9353 O   0  0  0  0  0  0  0  0  0  0  0  0
   15.1457  -18.8273   22.4270 C   0  0  0  0  0  0  0  0  0  0  0  0
   14.8087  -18.4784   21.0166 C   0  0  0  0  0  0  0  0  0  0  0  0
   13.3620  -18.4364   20.6808 C   0  0  2  0  0  0  0  0  0  0  0  0
   13.0751  -18.2099   19.2940 N   0  0  0  0  0  0  0  0  0  0  0  0
   12.7393  -17.3260   21.4533 C   0  0  0  0  0  0  0  0  0  0  0  0
   13.3752  -16.2322   21.5548 O   0  0  0  0  0  0  0  0  0  0  0  0
    9.5097  -15.3496   21.0907 C   0  0  0  0  0  0  0  0  0  0  0  0
    9.4799  -16.0557   22.4333 C   0  0  1  0  0  0  0  0  0  0  0  0
    8.8199  -17.2851   22.3278 O   0  0  0  0  0  0  0  0  0  0  0  0
   10.9148  -16.3350   22.8311 C   0  0  2  0  0  0  0  0  0  0  0  0
   11.4694  -17.4401   22.0779 N   0  0  0  0  0  0  0  0  0  0  0  0
   10.9408  -16.6685   24.2652 C   0  0  0  0  0  0  0  0  0  0  0  0
   11.3155  -17.7886   24.6546 O   0  0  0  0  0  0  0  0  0  0  0  0
   10.5494  -15.7463   25.2226 O   0  0  0  0  0  0  0  0  0  0  0  0
  2  1  1  6
  3  4  1  0
  3  2  1  0
  4  8  1  0
  5  4  2  0
  6  2  1  0
  6  7  2  0
  9 10  1  0
 10 12  1  0
 11 10  2  0
 12 13  1  0
 14 13  1  6
 15 14  1  0
 15  6  1  0
 16 17  2  0
 16 14  1  0
 19 18  1  6
 19 21  1  0
 20 19  1  0
 21 23  1  0
 21 22  1  6
 22 16  1  0
 23 25  1  0
 24 23  2  0
M  END
$$$$
