DQT.pdb
     RDKit          3D

 25 24  0  0  1  0  0  0  0  0999 V2000
   14.0445  -19.4602   17.2845 N   0  0  0  0  0  0  0  0  0  0  0  0
   13.3627  -18.4895   18.0850 C   0  0  1  0  0  0  0  0  0  0  0  0
   11.9895  -18.2729   17.4785 C   0  0  0  0  0  0  0  0  0  0  0  0
   12.1931  -17.7096   16.1142 C   0  0  0  0  0  0  0  0  0  0  0  0
   13.0277  -16.7982   15.9330 O   0  0  0  0  0  0  0  0  0  0  0  0
   13.2450  -18.9080   19.5123 C   0  0  0  0  0  0  0  0  0  0  0  0
   12.5619  -19.9068   19.7980 O   0  0  0  0  0  0  0  0  0  0  0  0
   11.4728  -18.1696   15.0060 O   0  0  0  0  0  0  0  0  0  0  0  0
   14.8798  -22.2549   22.1460 N   0  0  0  0  0  0  0  0  0  0  0  0
   15.3712  -21.1824   22.9345 C   0  0  0  0  0  0  0  0  0  0  0  0
   15.4045  -21.3170   24.1734 O   0  0  0  0  0  0  0  0  0  0  0  0
   15.8304  -19.9446   22.3095 C   0  0  0  0  0  0  0  0  0  0  0  0
   15.0690  -18.7122   22.6645 C   0  0  0  0  0  0  0  0  0  0  0  0
   13.7728  -18.5196   21.9642 C   0  0  2  0  0  0  0  0  0  0  0  0
   13.8862  -18.2076   20.5690 N   0  0  0  0  0  0  0  0  0  0  0  0
   13.0565  -17.3897   22.6181 C   0  0  0  0  0  0  0  0  0  0  0  0
   13.7127  -16.3384   22.8921 O   0  0  0  0  0  0  0  0  0  0  0  0
    9.7960  -15.5951   21.5253 C   0  0  0  0  0  0  0  0  0  0  0  0
    9.6268  -16.0975   22.9470 C   0  0  1  0  0  0  0  0  0  0  0  0
    8.9828  -17.3398   22.9560 O   0  0  0  0  0  0  0  0  0  0  0  0
   11.0127  -16.2919   23.5275 C   0  0  2  0  0  0  0  0  0  0  0  0
   11.6760  -17.4399   22.9460 N   0  0  0  0  0  0  0  0  0  0  0  0
   10.8813  -16.4962   24.9799 C   0  0  0  0  0  0  0  0  0  0  0  0
   11.1614  -17.5907   25.4998 O   0  0  0  0  0  0  0  0  0  0  0  0
   10.4425  -15.4771   25.8102 O   0  0  0  0  0  0  0  0  0  0  0  0
  2  1  1  6
  3  4  1  0
  3  2  1  0
  4  8  1  0
  5  4  2  0
  6  2  1  0
  6  7  2  0
  9 10  1  0
 10 12  1  0
 11 10  2  0
 12 13  1  0
 14 13  1  1
 15 14  1  0
 15  6  1  0
 16 17  2  0
 16 14  1  0
 19 18  1  6
 19 21  1  0
 20 19  1  0
 21 23  1  0
 21 22  1  6
 22 16  1  0
 23 25  1  0
 24 23  2  0
M  END
$$$$
