DQT.pdb
     RDKit          3D

 25 24  0  0  1  0  0  0  0  0999 V2000
    9.4356  -17.3615   20.3253 N   0  0  0  0  0  0  0  0  0  0  0  0
    8.1706  -16.7118   20.4845 C   0  0  1  0  0  0  0  0  0  0  0  0
    7.1328  -17.5335   19.7441 C   0  0  0  0  0  0  0  0  0  0  0  0
    7.5383  -17.5692   18.3107 C   0  0  0  0  0  0  0  0  0  0  0  0
    8.6051  -18.1269   17.9772 O   0  0  0  0  0  0  0  0  0  0  0  0
    7.7875  -16.5521   21.9176 C   0  0  0  0  0  0  0  0  0  0  0  0
    6.6654  -16.0964   22.1993 O   0  0  0  0  0  0  0  0  0  0  0  0
    6.7569  -16.9918   17.3035 O   0  0  0  0  0  0  0  0  0  0  0  0
   10.7462  -19.2664   27.0220 N   0  0  0  0  0  0  0  0  0  0  0  0
    9.7254  -18.4504   27.5744 C   0  0  0  0  0  0  0  0  0  0  0  0
    9.5840  -18.4254   28.8128 O   0  0  0  0  0  0  0  0  0  0  0  0
    8.8566  -17.6537   26.7117 C   0  0  0  0  0  0  0  0  0  0  0  0
    9.1496  -17.7188   25.2507 C   0  0  0  0  0  0  0  0  0  0  0  0
    8.3345  -16.8327   24.3800 C   0  0  2  0  0  0  0  0  0  0  0  0
    8.6579  -16.9019   22.9845 N   0  0  0  0  0  0  0  0  0  0  0  0
    8.5496  -15.4263   24.8195 C   0  0  0  0  0  0  0  0  0  0  0  0
    9.6792  -14.8919   24.5975 O   0  0  0  0  0  0  0  0  0  0  0  0
    6.3836  -12.0799   24.4550 C   0  0  0  0  0  0  0  0  0  0  0  0
    6.6155  -12.4394   25.9107 C   0  0  1  0  0  0  0  0  0  0  0  0
    5.5319  -13.1663   26.4162 O   0  0  0  0  0  0  0  0  0  0  0  0
    7.8376  -13.3328   25.9683 C   0  0  2  0  0  0  0  0  0  0  0  0
    7.5476  -14.6623   25.4738 N   0  0  0  0  0  0  0  0  0  0  0  0
    8.2768  -13.4260   27.3708 C   0  0  0  0  0  0  0  0  0  0  0  0
    8.6276  -12.4122   27.9999 O   0  0  0  0  0  0  0  0  0  0  0  0
    8.3126  -14.6438   28.0312 O   0  0  0  0  0  0  0  0  0  0  0  0
  2  1  1  1
  3  4  1  0
  3  2  1  0
  4  8  1  0
  5  4  2  0
  6  2  1  0
  6  7  2  0
  9 10  1  0
 10 12  1  0
 11 10  2  0
 12 13  1  0
 14 13  1  1
 15 14  1  0
 15  6  1  0
 16 17  2  0
 16 14  1  0
 19 18  1  6
 19 21  1  0
 20 19  1  0
 21 23  1  0
 21 22  1  1
 22 16  1  0
 23 25  1  0
 24 23  2  0
M  END
$$$$
