IFM.pdb
     RDKit          3D

 28 28  0  0  1  0  0  0  0  0999 V2000
   24.3840  -19.9029  -16.9675 C   0  0  0  0  0  0  0  0  0  0  0  0
   24.8166  -21.3157  -16.6933 C   0  0  0  0  0  0  0  0  0  0  0  0
   25.7226  -21.3499  -15.5013 C   0  0  2  0  0  0  0  0  0  0  0  0
   26.8832  -22.3144  -15.7361 C   0  0  0  0  0  0  0  0  0  0  0  0
   24.9958  -21.7038  -14.2272 C   0  0  2  0  0  0  0  0  0  0  0  0
   24.0184  -20.5808  -14.0577 N   0  0  0  0  0  0  0  0  0  0  0  0
   25.8258  -21.6369  -13.0093 C   0  0  0  0  0  0  0  0  0  0  0  0
   26.8043  -22.4529  -12.8518 O   0  0  0  0  0  0  0  0  0  0  0  0
   25.6273  -20.7086  -11.9549 N   0  0  0  0  0  0  0  0  0  0  0  0
   26.4362  -20.7227  -10.7437 C   0  0  1  0  0  0  0  0  0  0  0  0
   27.0173  -19.4069  -10.3843 C   0  0  0  0  0  0  0  0  0  0  0  0
   27.8260  -19.3784   -9.1808 C   0  0  0  0  0  0  0  0  0  0  0  0
   28.9460  -20.1534   -9.0381 C   0  0  0  0  0  0  0  0  0  0  0  0
   29.7095  -20.1129   -7.8931 C   0  0  0  0  0  0  0  0  0  0  0  0
   29.3786  -19.2958   -6.8522 C   0  0  0  0  0  0  0  0  0  0  0  0
   28.2556  -18.5044   -6.9696 C   0  0  0  0  0  0  0  0  0  0  0  0
   27.4881  -18.5527   -8.1344 C   0  0  0  0  0  0  0  0  0  0  0  0
   25.6088  -21.1957   -9.5749 C   0  0  0  0  0  0  0  0  0  0  0  0
   24.3498  -20.9963   -9.5610 O   0  0  0  0  0  0  0  0  0  0  0  0
   28.4917  -21.7545   -3.6697 C   0  0  0  0  0  0  0  0  0  0  0  0
   26.7857  -21.3930   -3.3026 S   0  0  0  0  0  0  0  0  0  0  0  0
   25.6977  -21.7205   -4.6761 C   0  0  0  0  0  0  0  0  0  0  0  0
   26.2778  -21.6395   -6.0327 C   0  0  0  0  0  0  0  0  0  0  0  0
   25.4325  -22.0059   -7.1933 C   0  0  2  0  0  0  0  0  0  0  0  0
   26.1569  -21.8632   -8.4671 N   0  0  0  0  0  0  0  0  0  0  0  0
   24.1863  -21.2376   -7.3114 C   0  0  0  0  0  0  0  0  0  0  0  0
   22.9858  -21.7065   -6.8461 O   0  0  0  0  0  0  0  0  0  0  0  0
   24.2012  -20.1085   -7.8520 O   0  0  0  0  0  0  0  0  0  0  0  0
  2  1  1  0
  3  2  1  0
  3  4  1  6
  5  3  1  0
  5  6  1  1
  7  5  1  0
  8  7  2  0
  9  7  1  0
 10 11  1  1
 10  9  1  0
 11 12  1  0
 12 17  2  0
 13 14  2  0
 13 12  1  0
 14 15  1  0
 15 16  2  0
 17 16  1  0
 18 10  1  0
 18 19  2  0
 20 21  1  0
 22 21  1  0
 22 23  1  0
 24 23  1  1
 24 26  1  0
 24 25  1  0
 25 18  1  0
 26 27  1  0
 28 26  2  0
M  END
$$$$
