IFM.pdb
     RDKit          3D

 28 28  0  0  1  0  0  0  0  0999 V2000
   13.6385  -21.0713    3.4172 C   0  0  0  0  0  0  0  0  0  0  0  0
   15.0463  -21.5135    3.1326 C   0  0  0  0  0  0  0  0  0  0  0  0
   16.0143  -20.4797    3.6196 C   0  0  2  0  0  0  0  0  0  0  0  0
   15.7384  -20.1313    5.0807 C   0  0  0  0  0  0  0  0  0  0  0  0
   16.0082  -19.2311    2.7723 C   0  0  2  0  0  0  0  0  0  0  0  0
   16.5127  -19.7065    1.4440 N   0  0  0  0  0  0  0  0  0  0  0  0
   16.9920  -18.2096    3.1791 C   0  0  0  0  0  0  0  0  0  0  0  0
   18.2489  -18.4576    3.0961 O   0  0  0  0  0  0  0  0  0  0  0  0
   16.6533  -16.9234    3.6731 N   0  0  0  0  0  0  0  0  0  0  0  0
   17.6587  -15.9847    4.1518 C   0  0  1  0  0  0  0  0  0  0  0  0
   17.2469  -14.5622    4.0796 C   0  0  0  0  0  0  0  0  0  0  0  0
   18.2184  -13.5959    4.5547 C   0  0  0  0  0  0  0  0  0  0  0  0
   19.2353  -13.1360    3.7610 C   0  0  0  0  0  0  0  0  0  0  0  0
   20.1480  -12.2136    4.2212 C   0  0  0  0  0  0  0  0  0  0  0  0
   20.0743  -11.7199    5.4906 C   0  0  0  0  0  0  0  0  0  0  0  0
   19.0597  -12.1658    6.3111 C   0  0  0  0  0  0  0  0  0  0  0  0
   18.1395  -13.1012    5.8352 C   0  0  0  0  0  0  0  0  0  0  0  0
   18.0102  -16.2903    5.5861 C   0  0  0  0  0  0  0  0  0  0  0  0
   17.1052  -16.6732    6.3981 O   0  0  0  0  0  0  0  0  0  0  0  0
   23.4157  -18.9716   10.6740 C   0  0  0  0  0  0  0  0  0  0  0  0
   22.8135  -18.7366    9.0132 S   0  0  0  0  0  0  0  0  0  0  0  0
   21.4279  -17.6181    8.9311 C   0  0  0  0  0  0  0  0  0  0  0  0
   20.8700  -17.3295    7.5936 C   0  0  0  0  0  0  0  0  0  0  0  0
   19.6447  -16.5020    7.4948 C   0  0  2  0  0  0  0  0  0  0  0  0
   19.3134  -16.1759    6.0979 N   0  0  0  0  0  0  0  0  0  0  0  0
   19.6980  -15.2362    8.2377 C   0  0  0  0  0  0  0  0  0  0  0  0
   20.1888  -14.0806    7.6886 O   0  0  0  0  0  0  0  0  0  0  0  0
   19.2815  -15.1899    9.4175 O   0  0  0  0  0  0  0  0  0  0  0  0
  2  1  1  0
  3  2  1  0
  3  4  1  1
  5  3  1  0
  5  6  1  6
  7  5  1  0
  8  7  2  0
  9  7  1  0
 10 11  1  1
 10  9  1  0
 11 12  1  0
 12 17  2  0
 13 14  2  0
 13 12  1  0
 14 15  1  0
 15 16  2  0
 17 16  1  0
 18 10  1  0
 18 19  2  0
 20 21  1  0
 22 21  1  0
 22 23  1  0
 24 23  1  6
 24 26  1  0
 24 25  1  0
 25 18  1  0
 26 27  1  0
 28 26  2  0
M  END
$$$$
