IFM.pdb
     RDKit          3D

 28 28  0  0  1  0  0  0  0  0999 V2000
   18.0334  -11.2548  -20.7421 C   0  0  0  0  0  0  0  0  0  0  0  0
   19.2796  -10.9899  -19.9451 C   0  0  0  0  0  0  0  0  0  0  0  0
   18.9933   -9.9905  -18.8671 C   0  0  2  0  0  0  0  0  0  0  0  0
   18.4542   -8.6934  -19.4665 C   0  0  0  0  0  0  0  0  0  0  0  0
   20.1957   -9.7081  -18.0003 C   0  0  2  0  0  0  0  0  0  0  0  0
   20.4479  -11.0159  -17.3139 N   0  0  0  0  0  0  0  0  0  0  0  0
   19.9443   -8.7691  -16.8905 C   0  0  0  0  0  0  0  0  0  0  0  0
   19.1573   -9.1015  -15.9321 O   0  0  0  0  0  0  0  0  0  0  0  0
   20.5229   -7.4778  -16.7872 N   0  0  0  0  0  0  0  0  0  0  0  0
   20.2300   -6.5808  -15.6778 C   0  0  1  0  0  0  0  0  0  0  0  0
   21.3535   -6.4010  -14.7272 C   0  0  0  0  0  0  0  0  0  0  0  0
   21.7031   -7.5623  -13.9319 C   0  0  0  0  0  0  0  0  0  0  0  0
   22.6391   -8.4725  -14.3455 C   0  0  0  0  0  0  0  0  0  0  0  0
   22.9673   -9.5678  -13.5787 C   0  0  0  0  0  0  0  0  0  0  0  0
   22.3707   -9.7898  -12.3723 C   0  0  0  0  0  0  0  0  0  0  0  0
   21.4247   -8.8885  -11.9316 C   0  0  0  0  0  0  0  0  0  0  0  0
   21.0988   -7.7813  -12.7164 C   0  0  0  0  0  0  0  0  0  0  0  0
   19.8470   -5.2192  -16.2011 C   0  0  0  0  0  0  0  0  0  0  0  0
   20.5686   -4.6473  -17.0827 O   0  0  0  0  0  0  0  0  0  0  0  0
   15.0504   -3.5923  -19.6293 C   0  0  0  0  0  0  0  0  0  0  0  0
   15.1114   -2.0917  -18.6701 S   0  0  0  0  0  0  0  0  0  0  0  0
   16.5695   -1.9806  -17.6506 C   0  0  0  0  0  0  0  0  0  0  0  0
   17.1267   -3.2452  -17.1272 C   0  0  0  0  0  0  0  0  0  0  0  0
   18.3468   -3.1940  -16.2877 C   0  0  2  0  0  0  0  0  0  0  0  0
   18.7090   -4.5214  -15.7638 N   0  0  0  0  0  0  0  0  0  0  0  0
   18.2645   -2.2797  -15.1412 C   0  0  0  0  0  0  0  0  0  0  0  0
   18.3677   -0.9199  -15.2754 O   0  0  0  0  0  0  0  0  0  0  0  0
   18.0910   -2.7404  -13.9901 O   0  0  0  0  0  0  0  0  0  0  0  0
  2  1  1  0
  3  2  1  0
  3  4  1  6
  5  3  1  0
  5  6  1  1
  7  5  1  0
  8  7  2  0
  9  7  1  0
 10 11  1  1
 10  9  1  0
 11 12  1  0
 12 17  2  0
 13 14  2  0
 13 12  1  0
 14 15  1  0
 15 16  2  0
 17 16  1  0
 18 10  1  0
 18 19  2  0
 20 21  1  0
 22 21  1  0
 22 23  1  0
 24 23  1  1
 24 26  1  0
 24 25  1  0
 25 18  1  0
 26 27  1  0
 28 26  2  0
M  END
$$$$
