IFM.pdb
     RDKit          3D

 28 28  0  0  1  0  0  0  0  0999 V2000
   28.4226  -19.8574  -15.7170 C   0  0  0  0  0  0  0  0  0  0  0  0
   27.1592  -19.8446  -14.9034 C   0  0  0  0  0  0  0  0  0  0  0  0
   27.4081  -20.4676  -13.5644 C   0  0  2  0  0  0  0  0  0  0  0  0
   28.0556  -21.8416  -13.7231 C   0  0  0  0  0  0  0  0  0  0  0  0
   26.1563  -20.5708  -12.7283 C   0  0  2  0  0  0  0  0  0  0  0  0
   25.6234  -19.1705  -12.7207 N   0  0  0  0  0  0  0  0  0  0  0  0
   26.3942  -20.8662  -11.3025 C   0  0  0  0  0  0  0  0  0  0  0  0
   26.2151  -22.0554  -10.8531 O   0  0  0  0  0  0  0  0  0  0  0  0
   26.8231  -19.9091  -10.3470 N   0  0  0  0  0  0  0  0  0  0  0  0
   26.9289  -20.2201   -8.9281 C   0  0  1  0  0  0  0  0  0  0  0  0
   27.9191  -19.3944   -8.1960 C   0  0  0  0  0  0  0  0  0  0  0  0
   28.0090  -19.6299   -6.7678 C   0  0  0  0  0  0  0  0  0  0  0  0
   27.3600  -18.8388   -5.8576 C   0  0  0  0  0  0  0  0  0  0  0  0
   27.4478  -19.0762   -4.5043 C   0  0  0  0  0  0  0  0  0  0  0  0
   28.1873  -20.1129   -4.0156 C   0  0  0  0  0  0  0  0  0  0  0  0
   28.8508  -20.9257   -4.9103 C   0  0  0  0  0  0  0  0  0  0  0  0
   28.7557  -20.6766   -6.2804 C   0  0  0  0  0  0  0  0  0  0  0  0
   25.5907  -20.0370   -8.2574 C   0  0  0  0  0  0  0  0  0  0  0  0
   24.9681  -18.9298   -8.3652 O   0  0  0  0  0  0  0  0  0  0  0  0
   21.2902  -20.4280  -11.2050 C   0  0  0  0  0  0  0  0  0  0  0  0
   20.2775  -20.5483   -9.7435 S   0  0  0  0  0  0  0  0  0  0  0  0
   21.2324  -20.7878   -8.2574 C   0  0  0  0  0  0  0  0  0  0  0  0
   22.7039  -20.7930   -8.3926 C   0  0  0  0  0  0  0  0  0  0  0  0
   23.5308  -21.0186   -7.1837 C   0  0  2  0  0  0  0  0  0  0  0  0
   24.9688  -21.0423   -7.4985 N   0  0  0  0  0  0  0  0  0  0  0  0
   23.2235  -22.2547   -6.4524 C   0  0  0  0  0  0  0  0  0  0  0  0
   24.1004  -23.3053   -6.3819 O   0  0  0  0  0  0  0  0  0  0  0  0
   22.1255  -22.3712   -5.8624 O   0  0  0  0  0  0  0  0  0  0  0  0
  2  1  1  0
  3  2  1  0
  3  4  1  6
  5  3  1  0
  5  6  1  1
  7  5  1  0
  8  7  2  0
  9  7  1  0
 10 11  1  1
 10  9  1  0
 11 12  1  0
 12 17  2  0
 13 14  2  0
 13 12  1  0
 14 15  1  0
 15 16  2  0
 17 16  1  0
 18 10  1  0
 18 19  2  0
 20 21  1  0
 22 21  1  0
 22 23  1  0
 24 23  1  6
 24 26  1  0
 24 25  1  0
 25 18  1  0
 26 27  1  0
 28 26  2  0
M  END
$$$$
