IFM.pdb
     RDKit          3D

 28 28  0  0  1  0  0  0  0  0999 V2000
   27.1584  -20.3487  -16.0568 C   0  0  0  0  0  0  0  0  0  0  0  0
   26.0579  -20.2014  -15.0441 C   0  0  0  0  0  0  0  0  0  0  0  0
   26.4018  -20.9643  -13.8020 C   0  0  2  0  0  0  0  0  0  0  0  0
   26.7684  -22.4074  -14.1421 C   0  0  0  0  0  0  0  0  0  0  0  0
   25.2979  -20.9317  -12.7740 C   0  0  2  0  0  0  0  0  0  0  0  0
   24.8505  -19.5018  -12.7853 N   0  0  0  0  0  0  0  0  0  0  0  0
   25.7466  -21.1507  -11.3857 C   0  0  0  0  0  0  0  0  0  0  0  0
   25.8439  -22.3438  -10.9215 O   0  0  0  0  0  0  0  0  0  0  0  0
   26.0953  -20.1128  -10.4835 N   0  0  0  0  0  0  0  0  0  0  0  0
   26.4879  -20.3786   -9.1063 C   0  0  1  0  0  0  0  0  0  0  0  0
   27.4915  -19.4307   -8.5656 C   0  0  0  0  0  0  0  0  0  0  0  0
   27.8374  -19.6026   -7.1677 C   0  0  0  0  0  0  0  0  0  0  0  0
   27.3275  -18.7940   -6.1871 C   0  0  0  0  0  0  0  0  0  0  0  0
   27.6584  -18.9711   -4.8624 C   0  0  0  0  0  0  0  0  0  0  0  0
   28.5103  -19.9630   -4.4738 C   0  0  0  0  0  0  0  0  0  0  0  0
   29.0381  -20.7920   -5.4410 C   0  0  0  0  0  0  0  0  0  0  0  0
   28.6966  -20.6043   -6.7812 C   0  0  0  0  0  0  0  0  0  0  0  0
   25.2790  -20.3327   -8.2060 C   0  0  0  0  0  0  0  0  0  0  0  0
   24.4778  -19.3428   -8.2620 O   0  0  0  0  0  0  0  0  0  0  0  0
   19.3696  -22.1799   -8.3619 C   0  0  0  0  0  0  0  0  0  0  0  0
   20.0184  -22.9590   -6.8963 S   0  0  0  0  0  0  0  0  0  0  0  0
   21.3832  -22.0620   -6.1819 C   0  0  0  0  0  0  0  0  0  0  0  0
   22.6548  -22.0534   -6.9346 C   0  0  0  0  0  0  0  0  0  0  0  0
   23.7968  -21.2767   -6.3973 C   0  0  2  0  0  0  0  0  0  0  0  0
   24.9719  -21.3449   -7.2816 N   0  0  0  0  0  0  0  0  0  0  0  0
   24.2362  -21.6809   -5.0554 C   0  0  0  0  0  0  0  0  0  0  0  0
   25.4003  -22.3707   -4.8389 O   0  0  0  0  0  0  0  0  0  0  0  0
   23.5362  -21.3914   -4.0587 O   0  0  0  0  0  0  0  0  0  0  0  0
  2  1  1  0
  3  2  1  0
  3  4  1  6
  5  3  1  0
  5  6  1  1
  7  5  1  0
  8  7  2  0
  9  7  1  0
 10 11  1  1
 10  9  1  0
 11 12  1  0
 12 17  2  0
 13 14  2  0
 13 12  1  0
 14 15  1  0
 15 16  2  0
 17 16  1  0
 18 10  1  0
 18 19  2  0
 20 21  1  0
 22 21  1  0
 22 23  1  0
 24 23  1  6
 24 26  1  0
 24 25  1  0
 25 18  1  0
 26 27  1  0
 28 26  2  0
M  END
$$$$
