IFM.pdb
     RDKit          3D

 28 28  0  0  1  0  0  0  0  0999 V2000
   28.2449  -18.3375  -17.4030 C   0  0  0  0  0  0  0  0  0  0  0  0
   28.7394  -18.8911  -16.0964 C   0  0  0  0  0  0  0  0  0  0  0  0
   27.5968  -19.4760  -15.3248 C   0  0  2  0  0  0  0  0  0  0  0  0
   26.4853  -18.4440  -15.1456 C   0  0  0  0  0  0  0  0  0  0  0  0
   28.0203  -20.0289  -13.9863 C   0  0  2  0  0  0  0  0  0  0  0  0
   28.9074  -21.1811  -14.3478 N   0  0  0  0  0  0  0  0  0  0  0  0
   26.9321  -20.6512  -13.2082 C   0  0  0  0  0  0  0  0  0  0  0  0
   26.5911  -21.8675  -13.4376 O   0  0  0  0  0  0  0  0  0  0  0  0
   26.2016  -19.9934  -12.1852 N   0  0  0  0  0  0  0  0  0  0  0  0
   25.1361  -20.6533  -11.4432 C   0  0  1  0  0  0  0  0  0  0  0  0
   24.8221  -20.0231  -10.1384 C   0  0  0  0  0  0  0  0  0  0  0  0
   25.8668  -20.0891   -9.1346 C   0  0  0  0  0  0  0  0  0  0  0  0
   26.4224  -18.9633   -8.5874 C   0  0  0  0  0  0  0  0  0  0  0  0
   27.4093  -19.0388   -7.6304 C   0  0  0  0  0  0  0  0  0  0  0  0
   27.8737  -20.2427   -7.1882 C   0  0  0  0  0  0  0  0  0  0  0  0
   27.3313  -21.3924   -7.7223 C   0  0  0  0  0  0  0  0  0  0  0  0
   26.3313  -21.3054   -8.6922 C   0  0  0  0  0  0  0  0  0  0  0  0
   23.8701  -20.6716  -12.2624 C   0  0  0  0  0  0  0  0  0  0  0  0
   23.4386  -19.5972  -12.7957 O   0  0  0  0  0  0  0  0  0  0  0  0
   21.7265  -24.5536  -16.6763 C   0  0  0  0  0  0  0  0  0  0  0  0
   20.1891  -24.5330  -15.7753 S   0  0  0  0  0  0  0  0  0  0  0  0
   20.2059  -23.3948  -14.4035 C   0  0  0  0  0  0  0  0  0  0  0  0
   21.4909  -23.2032  -13.6994 C   0  0  0  0  0  0  0  0  0  0  0  0
   21.8778  -21.8356  -13.2801 C   0  0  2  0  0  0  0  0  0  0  0  0
   23.1143  -21.8354  -12.4810 N   0  0  0  0  0  0  0  0  0  0  0  0
   20.8566  -21.1198  -12.5043 C   0  0  0  0  0  0  0  0  0  0  0  0
   20.8941  -21.0381  -11.1370 O   0  0  0  0  0  0  0  0  0  0  0  0
   19.9095  -20.5541  -13.0963 O   0  0  0  0  0  0  0  0  0  0  0  0
  2  1  1  0
  3  2  1  0
  3  4  1  1
  5  3  1  0
  5  6  1  6
  7  5  1  0
  8  7  2  0
  9  7  1  0
 10 11  1  1
 10  9  1  0
 11 12  1  0
 12 17  2  0
 13 14  2  0
 13 12  1  0
 14 15  1  0
 15 16  2  0
 17 16  1  0
 18 10  1  0
 18 19  2  0
 20 21  1  0
 22 21  1  0
 22 23  1  0
 24 23  1  1
 24 26  1  0
 24 25  1  0
 25 18  1  0
 26 27  1  0
 28 26  2  0
M  END
$$$$
