IFM.pdb
     RDKit          3D

 28 28  0  0  1  0  0  0  0  0999 V2000
   23.7969  -21.1412  -17.9582 C   0  0  0  0  0  0  0  0  0  0  0  0
   23.1581  -20.6384  -16.6943 C   0  0  0  0  0  0  0  0  0  0  0  0
   23.8770  -21.1931  -15.5034 C   0  0  2  0  0  0  0  0  0  0  0  0
   23.9799  -22.7139  -15.5984 C   0  0  0  0  0  0  0  0  0  0  0  0
   23.2371  -20.7910  -14.1974 C   0  0  2  0  0  0  0  0  0  0  0  0
   23.2450  -19.2936  -14.2496 N   0  0  0  0  0  0  0  0  0  0  0  0
   24.0382  -21.1071  -12.9995 C   0  0  0  0  0  0  0  0  0  0  0  0
   24.0821  -22.3104  -12.5538 O   0  0  0  0  0  0  0  0  0  0  0  0
   24.7964  -20.1560  -12.2691 N   0  0  0  0  0  0  0  0  0  0  0  0
   25.4661  -20.4894  -11.0194 C   0  0  1  0  0  0  0  0  0  0  0  0
   26.6351  -19.6324  -10.7077 C   0  0  0  0  0  0  0  0  0  0  0  0
   27.2481  -19.8435   -9.4104 C   0  0  0  0  0  0  0  0  0  0  0  0
   28.2062  -20.8004   -9.2053 C   0  0  0  0  0  0  0  0  0  0  0  0
   28.7856  -20.9871   -7.9704 C   0  0  0  0  0  0  0  0  0  0  0  0
   28.4265  -20.2231   -6.8990 C   0  0  0  0  0  0  0  0  0  0  0  0
   27.4641  -19.2519   -7.0778 C   0  0  0  0  0  0  0  0  0  0  0  0
   26.8826  -19.0705   -8.3336 C   0  0  0  0  0  0  0  0  0  0  0  0
   24.4969  -20.3826   -9.8690 C   0  0  0  0  0  0  0  0  0  0  0  0
   23.6883  -19.3992   -9.8039 O   0  0  0  0  0  0  0  0  0  0  0  0
   19.2457  -23.1587   -8.6938 C   0  0  0  0  0  0  0  0  0  0  0  0
   19.9047  -23.2322   -7.0397 S   0  0  0  0  0  0  0  0  0  0  0  0
   21.2967  -22.1447   -6.8002 C   0  0  0  0  0  0  0  0  0  0  0  0
   22.3347  -22.1331   -7.8519 C   0  0  0  0  0  0  0  0  0  0  0  0
   23.4818  -21.2055   -7.7121 C   0  0  2  0  0  0  0  0  0  0  0  0
   24.4279  -21.3292   -8.8334 N   0  0  0  0  0  0  0  0  0  0  0  0
   24.2519  -21.3650   -6.4717 C   0  0  0  0  0  0  0  0  0  0  0  0
   23.8753  -20.7796   -5.2913 O   0  0  0  0  0  0  0  0  0  0  0  0
   25.2930  -22.0603   -6.4715 O   0  0  0  0  0  0  0  0  0  0  0  0
  2  1  1  0
  3  2  1  0
  3  4  1  6
  5  3  1  0
  5  6  1  6
  7  5  1  0
  8  7  2  0
  9  7  1  0
 10 11  1  1
 10  9  1  0
 11 12  1  0
 12 17  2  0
 13 14  2  0
 13 12  1  0
 14 15  1  0
 15 16  2  0
 17 16  1  0
 18 10  1  0
 18 19  2  0
 20 21  1  0
 22 21  1  0
 22 23  1  0
 24 23  1  6
 24 26  1  0
 24 25  1  0
 25 18  1  0
 26 27  1  0
 28 26  2  0
M  END
$$$$
