IFM.pdb
     RDKit          3D

 28 28  0  0  1  0  0  0  0  0999 V2000
   29.9886  -17.3153  -17.1265 C   0  0  0  0  0  0  0  0  0  0  0  0
   28.4963  -17.2577  -16.9598 C   0  0  0  0  0  0  0  0  0  0  0  0
   28.0325  -18.4036  -16.1143 C   0  0  2  0  0  0  0  0  0  0  0  0
   28.4716  -19.7332  -16.7241 C   0  0  0  0  0  0  0  0  0  0  0  0
   26.5403  -18.3961  -15.8909 C   0  0  2  0  0  0  0  0  0  0  0  0
   26.2954  -17.0876  -15.2032 N   0  0  0  0  0  0  0  0  0  0  0  0
   26.0607  -19.3999  -14.9218 C   0  0  0  0  0  0  0  0  0  0  0  0
   25.9423  -20.6289  -15.2737 O   0  0  0  0  0  0  0  0  0  0  0  0
   25.7060  -19.1111  -13.5788 N   0  0  0  0  0  0  0  0  0  0  0  0
   25.2743  -20.1454  -12.6488 C   0  0  1  0  0  0  0  0  0  0  0  0
   25.8302  -20.0054  -11.2814 C   0  0  0  0  0  0  0  0  0  0  0  0
   27.2146  -20.4044  -11.1159 C   0  0  0  0  0  0  0  0  0  0  0  0
   28.1996  -19.9868  -11.9708 C   0  0  0  0  0  0  0  0  0  0  0  0
   29.5116  -20.3672  -11.7996 C   0  0  0  0  0  0  0  0  0  0  0  0
   29.8829  -21.1780  -10.7675 C   0  0  0  0  0  0  0  0  0  0  0  0
   28.9110  -21.6129   -9.8913 C   0  0  0  0  0  0  0  0  0  0  0  0
   27.5836  -21.2218  -10.0735 C   0  0  0  0  0  0  0  0  0  0  0  0
   23.7703  -20.1451  -12.5369 C   0  0  0  0  0  0  0  0  0  0  0  0
   23.1457  -19.0544  -12.3241 O   0  0  0  0  0  0  0  0  0  0  0  0
   20.4242  -23.1565  -16.9188 C   0  0  0  0  0  0  0  0  0  0  0  0
   19.1110  -22.9872  -15.7260 S   0  0  0  0  0  0  0  0  0  0  0  0
   19.6166  -22.1085  -14.2597 C   0  0  0  0  0  0  0  0  0  0  0  0
   21.0672  -22.0149  -13.9938 C   0  0  0  0  0  0  0  0  0  0  0  0
   21.5271  -21.2667  -12.8003 C   0  0  2  0  0  0  0  0  0  0  0  0
   22.9917  -21.3081  -12.6568 N   0  0  0  0  0  0  0  0  0  0  0  0
   20.9508  -21.7248  -11.5294 C   0  0  0  0  0  0  0  0  0  0  0  0
   19.6586  -21.4498  -11.1657 O   0  0  0  0  0  0  0  0  0  0  0  0
   21.6495  -22.3956  -10.7362 O   0  0  0  0  0  0  0  0  0  0  0  0
  2  1  1  0
  3  2  1  0
  3  4  1  6
  5  3  1  0
  5  6  1  1
  7  5  1  0
  8  7  2  0
  9  7  1  0
 10 11  1  1
 10  9  1  0
 11 12  1  0
 12 17  2  0
 13 14  2  0
 13 12  1  0
 14 15  1  0
 15 16  2  0
 17 16  1  0
 18 10  1  0
 18 19  2  0
 20 21  1  0
 22 21  1  0
 22 23  1  0
 24 23  1  6
 24 26  1  0
 24 25  1  0
 25 18  1  0
 26 27  1  0
 28 26  2  0
M  END
$$$$
