GRK.pdb
     RDKit          3D

 25 24  0  0  1  0  0  0  0  0999 V2000
   19.7559  -11.0523    6.7162 N   0  0  0  0  0  0  0  0  0  0  0  0
   19.6282  -11.7205    5.4311 C   0  0  0  0  0  0  0  0  0  0  0  0
   18.8307  -12.9696    5.5691 C   0  0  0  0  0  0  0  0  0  0  0  0
   18.4187  -13.3778    6.6868 O   0  0  0  0  0  0  0  0  0  0  0  0
   17.2702  -20.2428    3.0908 N   0  0  0  0  0  0  0  0  0  0  0  0
   16.1823  -19.9588    2.2506 C   0  0  0  0  0  0  0  0  0  0  0  0
   15.6348  -20.8830    1.5116 N   0  0  0  0  0  0  0  0  0  0  0  0
   15.6397  -18.6541    2.1667 N   0  0  0  0  0  0  0  0  0  0  0  0
   16.4377  -17.4853    1.9464 C   0  0  0  0  0  0  0  0  0  0  0  0
   16.7942  -16.8292    3.2494 C   0  0  0  0  0  0  0  0  0  0  0  0
   17.5839  -15.5770    3.1675 C   0  0  0  0  0  0  0  0  0  0  0  0
   17.8378  -15.0396    4.5728 C   0  0  2  0  0  0  0  0  0  0  0  0
   18.5101  -13.7400    4.4415 N   0  0  0  0  0  0  0  0  0  0  0  0
   18.7843  -15.9162    5.2605 C   0  0  0  0  0  0  0  0  0  0  0  0
   19.9567  -16.0519    4.8339 O   0  0  0  0  0  0  0  0  0  0  0  0
   14.9067  -20.6160    0.8275 N   0  0  0  0  0  0  0  0  0  0  0  0
   18.3988  -16.6224    6.4242 C   0  0  1  0  0  0  0  0  0  0  0  0
   19.3208  -17.4458    7.2178 C   0  0  0  0  0  0  0  0  0  0  0  0
   20.1962  -16.5248    7.9881 C   0  0  0  0  0  0  0  0  0  0  0  0
   21.2663  -17.2472    8.7647 C   0  0  0  0  0  0  0  0  0  0  0  0
   22.1205  -16.2659    9.5108 C   0  0  0  0  0  0  0  0  0  0  0  0
   23.1865  -17.0339   10.2987 N   0  0  0  0  0  0  0  0  0  0  0  0
   24.1273  -16.1132   10.8908 C   0  0  0  0  0  0  0  0  0  0  0  0
   18.5268  -18.3608    8.0680 O   0  0  0  0  0  0  0  0  0  0  0  0
   19.1430  -19.3633    8.8015 O   0  0  0  0  0  0  0  0  0  0  0  0
  1  2  1  0
  3  2  1  0
  4  3  2  0
  5  6  1  0
  6  7  2  0
  6  8  1  0
  8  9  1  0
  9 10  1  0
 11 10  1  0
 12 11  1  6
 12 13  1  0
 13  3  1  0
 14 12  1  0
 14 15  2  0
 16 14  1  0
 17 16  1  0
 17 18  1  1
 19 18  1  0
 20 19  1  0
 20 21  1  0
 21 22  1  0
 23 17  1  0
 24 23  1  0
 25 23  2  0
M  END
$$$$
