GRK.pdb
     RDKit          3D

 25 24  0  0  1  0  0  0  0  0999 V2000
   22.5658  -20.6370   -7.8666 N   0  0  0  0  0  0  0  0  0  0  0  0
   23.7224  -21.1813   -8.5597 C   0  0  0  0  0  0  0  0  0  0  0  0
   23.8815  -20.5398   -9.8933 C   0  0  0  0  0  0  0  0  0  0  0  0
   23.0509  -19.7020  -10.3338 O   0  0  0  0  0  0  0  0  0  0  0  0
   27.2723  -22.6107  -16.0249 N   0  0  0  0  0  0  0  0  0  0  0  0
   27.7308  -21.4042  -16.5768 C   0  0  0  0  0  0  0  0  0  0  0  0
   27.6888  -21.1852  -17.8615 N   0  0  0  0  0  0  0  0  0  0  0  0
   28.2640  -20.3784  -15.7601 N   0  0  0  0  0  0  0  0  0  0  0  0
   28.2450  -20.4258  -14.3287 C   0  0  0  0  0  0  0  0  0  0  0  0
   26.8509  -20.2278  -13.8067 C   0  0  0  0  0  0  0  0  0  0  0  0
   26.6787  -20.2878  -12.3353 C   0  0  0  0  0  0  0  0  0  0  0  0
   25.1980  -20.1636  -11.9882 C   0  0  2  0  0  0  0  0  0  0  0  0
   24.9773  -20.8545  -10.7105 N   0  0  0  0  0  0  0  0  0  0  0  0
   24.4075  -20.8890  -12.9812 C   0  0  0  0  0  0  0  0  0  0  0  0
   24.5129  -22.1341  -13.0975 O   0  0  0  0  0  0  0  0  0  0  0  0
   28.0358  -20.2837  -18.2307 N   0  0  0  0  0  0  0  0  0  0  0  0
   23.5032  -20.2020  -13.8249 C   0  0  2  0  0  0  0  0  0  0  0  0
   22.5813  -20.8764  -14.7485 C   0  0  0  0  0  0  0  0  0  0  0  0
   21.3140  -20.1007  -14.7647 C   0  0  0  0  0  0  0  0  0  0  0  0
   20.1367  -20.8925  -14.2575 C   0  0  0  0  0  0  0  0  0  0  0  0
   18.8903  -20.0595  -14.3036 C   0  0  0  0  0  0  0  0  0  0  0  0
   17.6972  -20.9280  -13.8922 N   0  0  0  0  0  0  0  0  0  0  0  0
   16.4778  -20.1580  -13.9505 C   0  0  0  0  0  0  0  0  0  0  0  0
   23.2310  -20.9810  -16.0742 O   0  0  0  0  0  0  0  0  0  0  0  0
   23.1558  -22.1528  -16.8118 O   0  0  0  0  0  0  0  0  0  0  0  0
  1  2  1  0
  3  2  1  0
  4  3  2  0
  5  6  1  0
  6  7  2  0
  6  8  1  0
  8  9  1  0
  9 10  1  0
 11 10  1  0
 12 11  1  6
 12 13  1  0
 13  3  1  0
 14 12  1  0
 14 15  2  0
 16 14  1  0
 17 16  1  0
 17 18  1  6
 19 18  1  0
 20 19  1  0
 20 21  1  0
 21 22  1  0
 23 17  1  0
 24 23  1  0
 25 23  2  0
M  END
$$$$
