GRK.pdb
     RDKit          3D

 25 24  0  0  1  0  0  0  0  0999 V2000
   11.7221   -7.6387  -15.2746 N   0  0  0  0  0  0  0  0  0  0  0  0
   13.1282   -7.6776  -15.6428 C   0  0  0  0  0  0  0  0  0  0  0  0
   13.9633   -8.0686  -14.4745 C   0  0  0  0  0  0  0  0  0  0  0  0
   13.4619   -8.2912  -13.3410 O   0  0  0  0  0  0  0  0  0  0  0  0
   17.8225  -14.3304  -13.6989 N   0  0  0  0  0  0  0  0  0  0  0  0
   17.3849  -13.8479  -14.9423 C   0  0  0  0  0  0  0  0  0  0  0  0
   16.9086  -14.6501  -15.8532 N   0  0  0  0  0  0  0  0  0  0  0  0
   17.4498  -12.4701  -15.2600 N   0  0  0  0  0  0  0  0  0  0  0  0
   17.5282  -11.4394  -14.2686 C   0  0  0  0  0  0  0  0  0  0  0  0
   17.5113  -10.0809  -14.9086 C   0  0  0  0  0  0  0  0  0  0  0  0
   17.5842   -8.9159  -13.9944 C   0  0  0  0  0  0  0  0  0  0  0  0
   16.1905   -8.5956  -13.4621 C   0  0  2  0  0  0  0  0  0  0  0  0
   15.3536   -8.2023  -14.6037 N   0  0  0  0  0  0  0  0  0  0  0  0
   16.2643   -7.4227  -12.5926 C   0  0  0  0  0  0  0  0  0  0  0  0
   16.7411   -6.3417  -13.0156 O   0  0  0  0  0  0  0  0  0  0  0  0
   16.5438  -14.2516  -16.7350 N   0  0  0  0  0  0  0  0  0  0  0  0
   15.7928   -7.4820  -11.2600 C   0  0  2  0  0  0  0  0  0  0  0  0
   15.7882   -6.3306  -10.3478 C   0  0  0  0  0  0  0  0  0  0  0  0
   14.5317   -6.3889   -9.5568 C   0  0  0  0  0  0  0  0  0  0  0  0
   14.4198   -5.2714   -8.5525 C   0  0  0  0  0  0  0  0  0  0  0  0
   13.1338   -5.3841   -7.7891 C   0  0  0  0  0  0  0  0  0  0  0  0
   12.9748   -4.1474   -6.8989 N   0  0  0  0  0  0  0  0  0  0  0  0
   11.7938   -4.2733   -6.0788 C   0  0  0  0  0  0  0  0  0  0  0  0
   17.0142   -6.3771   -9.5199 O   0  0  0  0  0  0  0  0  0  0  0  0
   17.8749   -7.4623   -9.5852 O   0  0  0  0  0  0  0  0  0  0  0  0
  1  2  1  0
  3  2  1  0
  4  3  2  0
  5  6  1  0
  6  7  2  0
  6  8  1  0
  8  9  1  0
  9 10  1  0
 11 10  1  0
 12 11  1  6
 12 13  1  0
 13  3  1  0
 14 12  1  0
 14 15  2  0
 16 14  1  0
 17 16  1  0
 17 18  1  6
 19 18  1  0
 20 19  1  0
 20 21  1  0
 21 22  1  0
 23 17  1  0
 24 23  1  0
 25 23  2  0
M  END
$$$$
