GRK.pdb
     RDKit          3D

 25 24  0  0  1  0  0  0  0  0999 V2000
   23.8846  -20.8210   -9.3228 N   0  0  0  0  0  0  0  0  0  0  0  0
   24.4821  -21.2243  -10.5856 C   0  0  0  0  0  0  0  0  0  0  0  0
   24.0271  -20.3324  -11.6869 C   0  0  0  0  0  0  0  0  0  0  0  0
   23.1664  -19.4317  -11.5033 O   0  0  0  0  0  0  0  0  0  0  0  0
   28.9866  -21.2945  -14.3128 N   0  0  0  0  0  0  0  0  0  0  0  0
   28.4151  -21.3288  -15.5943 C   0  0  0  0  0  0  0  0  0  0  0  0
   28.3768  -22.4295  -16.2923 N   0  0  0  0  0  0  0  0  0  0  0  0
   27.8628  -20.1664  -16.1839 N   0  0  0  0  0  0  0  0  0  0  0  0
   27.6965  -18.9318  -15.4771 C   0  0  0  0  0  0  0  0  0  0  0  0
   26.5117  -18.9992  -14.5568 C   0  0  0  0  0  0  0  0  0  0  0  0
   25.2704  -19.5870  -15.1152 C   0  0  0  0  0  0  0  0  0  0  0  0
   24.1683  -19.5517  -14.0605 C   0  0  2  0  0  0  0  0  0  0  0  0
   24.5513  -20.4712  -12.9806 N   0  0  0  0  0  0  0  0  0  0  0  0
   22.9360  -20.0916  -14.6325 C   0  0  0  0  0  0  0  0  0  0  0  0
   22.7528  -21.3312  -14.7029 O   0  0  0  0  0  0  0  0  0  0  0  0
   27.9502  -22.4146  -17.2342 N   0  0  0  0  0  0  0  0  0  0  0  0
   21.9235  -19.2270  -15.1107 C   0  0  2  0  0  0  0  0  0  0  0  0
   20.6135  -19.6933  -15.5840 C   0  0  0  0  0  0  0  0  0  0  0  0
   19.7496  -18.4981  -15.7653 C   0  0  0  0  0  0  0  0  0  0  0  0
   19.2955  -17.9005  -14.4588 C   0  0  0  0  0  0  0  0  0  0  0  0
   18.5116  -16.6457  -14.7045 C   0  0  0  0  0  0  0  0  0  0  0  0
   18.0580  -16.0719  -13.3584 N   0  0  0  0  0  0  0  0  0  0  0  0
   17.3459  -14.8329  -13.5604 C   0  0  0  0  0  0  0  0  0  0  0  0
   20.8094  -20.4784  -16.8233 O   0  0  0  0  0  0  0  0  0  0  0  0
   21.9098  -20.2577  -17.6377 O   0  0  0  0  0  0  0  0  0  0  0  0
  1  2  1  0
  3  2  1  0
  4  3  2  0
  5  6  1  0
  6  7  2  0
  6  8  1  0
  8  9  1  0
  9 10  1  0
 11 10  1  0
 12 11  1  6
 12 13  1  0
 13  3  1  0
 14 12  1  0
 14 15  2  0
 16 14  1  0
 17 16  1  0
 17 18  1  1
 19 18  1  0
 20 19  1  0
 20 21  1  0
 21 22  1  0
 23 17  1  0
 24 23  1  0
 25 23  2  0
M  END
$$$$
