GRK.pdb
     RDKit          3D

 25 24  0  0  1  0  0  0  0  0999 V2000
   14.4711  -12.5371  -13.6828 N   0  0  0  0  0  0  0  0  0  0  0  0
   14.8944  -11.2154  -14.1166 C   0  0  0  0  0  0  0  0  0  0  0  0
   15.7600  -10.5800  -13.0860 C   0  0  0  0  0  0  0  0  0  0  0  0
   15.7929  -10.9918  -11.8964 O   0  0  0  0  0  0  0  0  0  0  0  0
   23.0614   -8.4967  -14.1990 N   0  0  0  0  0  0  0  0  0  0  0  0
   22.2163   -7.6242  -14.9025 C   0  0  0  0  0  0  0  0  0  0  0  0
   22.6507   -6.4873  -15.3703 N   0  0  0  0  0  0  0  0  0  0  0  0
   20.8551   -7.9412  -15.1265 N   0  0  0  0  0  0  0  0  0  0  0  0
   20.2812   -9.2116  -14.7978 C   0  0  0  0  0  0  0  0  0  0  0  0
   19.6927   -9.1900  -13.4163 C   0  0  0  0  0  0  0  0  0  0  0  0
   18.6132   -8.2039  -13.1705 C   0  0  0  0  0  0  0  0  0  0  0  0
   17.4678   -8.8762  -12.4193 C   0  0  2  0  0  0  0  0  0  0  0  0
   16.5764   -9.4875  -13.4144 N   0  0  0  0  0  0  0  0  0  0  0  0
   16.6730   -7.8556  -11.7382 C   0  0  0  0  0  0  0  0  0  0  0  0
   16.0587   -6.9797  -12.3943 O   0  0  0  0  0  0  0  0  0  0  0  0
   22.0051   -5.8831  -15.9065 N   0  0  0  0  0  0  0  0  0  0  0  0
   16.5752   -7.8405  -10.3269 C   0  0  1  0  0  0  0  0  0  0  0  0
   15.7661   -6.8691   -9.5789 C   0  0  0  0  0  0  0  0  0  0  0  0
   14.8656   -7.6337   -8.6775 C   0  0  0  0  0  0  0  0  0  0  0  0
   13.6648   -8.1983   -9.3912 C   0  0  0  0  0  0  0  0  0  0  0  0
   12.7535   -8.8823   -8.4160 C   0  0  0  0  0  0  0  0  0  0  0  0
   11.5759   -9.4939   -9.1817 N   0  0  0  0  0  0  0  0  0  0  0  0
   10.7468  -10.2647   -8.2863 C   0  0  0  0  0  0  0  0  0  0  0  0
   16.6754   -5.9444   -8.8657 O   0  0  0  0  0  0  0  0  0  0  0  0
   16.1995   -4.7644   -8.3145 O   0  0  0  0  0  0  0  0  0  0  0  0
  1  2  1  0
  3  2  1  0
  4  3  2  0
  5  6  1  0
  6  7  2  0
  6  8  1  0
  8  9  1  0
  9 10  1  0
 11 10  1  0
 12 11  1  6
 12 13  1  0
 13  3  1  0
 14 12  1  0
 14 15  2  0
 16 14  1  0
 17 16  1  0
 17 18  1  6
 19 18  1  0
 20 19  1  0
 20 21  1  0
 21 22  1  0
 23 17  1  0
 24 23  1  0
 25 23  2  0
M  END
$$$$
