GRK.pdb
     RDKit          3D

 25 24  0  0  1  0  0  0  0  0999 V2000
   22.1353  -19.9801   -8.2403 N   0  0  0  0  0  0  0  0  0  0  0  0
   22.5393  -21.0078   -9.1862 C   0  0  0  0  0  0  0  0  0  0  0  0
   23.2607  -20.4023  -10.3386 C   0  0  0  0  0  0  0  0  0  0  0  0
   22.8940  -19.3156  -10.8585 O   0  0  0  0  0  0  0  0  0  0  0  0
   31.3315  -20.4210  -12.6443 N   0  0  0  0  0  0  0  0  0  0  0  0
   30.5217  -21.2471  -11.8493 C   0  0  0  0  0  0  0  0  0  0  0  0
   30.9598  -21.7557  -10.7315 N   0  0  0  0  0  0  0  0  0  0  0  0
   29.1973  -21.5669  -12.2333 N   0  0  0  0  0  0  0  0  0  0  0  0
   28.6154  -21.1424  -13.4713 C   0  0  0  0  0  0  0  0  0  0  0  0
   27.2396  -20.5824  -13.2499 C   0  0  0  0  0  0  0  0  0  0  0  0
   26.4713  -21.1409  -12.1114 C   0  0  0  0  0  0  0  0  0  0  0  0
   25.1192  -20.4405  -12.0143 C   0  0  2  0  0  0  0  0  0  0  0  0
   24.3866  -21.0338  -10.8875 N   0  0  0  0  0  0  0  0  0  0  0  0
   24.3334  -20.7412  -13.2099 C   0  0  0  0  0  0  0  0  0  0  0  0
   23.9646  -21.9156  -13.4544 O   0  0  0  0  0  0  0  0  0  0  0  0
   30.3439  -22.3837  -10.1877 N   0  0  0  0  0  0  0  0  0  0  0  0
   23.9676  -19.7129  -14.1100 C   0  0  1  0  0  0  0  0  0  0  0  0
   23.0902  -19.9220  -15.2694 C   0  0  0  0  0  0  0  0  0  0  0  0
   22.7269  -18.5844  -15.8050 C   0  0  0  0  0  0  0  0  0  0  0  0
   21.9012  -18.6623  -17.0629 C   0  0  0  0  0  0  0  0  0  0  0  0
   20.4396  -18.6717  -16.7267 C   0  0  0  0  0  0  0  0  0  0  0  0
   19.6307  -18.6664  -18.0278 N   0  0  0  0  0  0  0  0  0  0  0  0
   18.2232  -18.8037  -17.7390 C   0  0  0  0  0  0  0  0  0  0  0  0
   23.7936  -20.7825  -16.2468 O   0  0  0  0  0  0  0  0  0  0  0  0
   23.1001  -21.7219  -16.9947 O   0  0  0  0  0  0  0  0  0  0  0  0
  1  2  1  0
  3  2  1  0
  4  3  2  0
  5  6  1  0
  6  7  2  0
  6  8  1  0
  8  9  1  0
  9 10  1  0
 11 10  1  0
 12 11  1  6
 12 13  1  0
 13  3  1  0
 14 12  1  0
 14 15  2  0
 16 14  1  0
 17 16  1  0
 17 18  1  6
 19 18  1  0
 20 19  1  0
 20 21  1  0
 21 22  1  0
 23 17  1  0
 24 23  1  0
 25 23  2  0
M  END
$$$$
