DME.pdb
     RDKit          3D

 26 25  0  0  1  0  0  0  0  0999 V2000
    7.6488  -17.5363   20.8960 N   0  0  0  0  0  0  0  0  0  0  0  0
    8.6928  -16.6256   20.5906 C   0  0  1  0  0  0  0  0  0  0  0  0
    8.4839  -16.0512   19.2186 C   0  0  0  0  0  0  0  0  0  0  0  0
    8.5290  -17.0525   18.1262 C   0  0  0  0  0  0  0  0  0  0  0  0
    8.6678  -18.2972   18.3932 O   0  0  0  0  0  0  0  0  0  0  0  0
    8.9786  -15.6184   21.6351 C   0  0  0  0  0  0  0  0  0  0  0  0
   10.0119  -14.9021   21.5517 O   0  0  0  0  0  0  0  0  0  0  0  0
    8.4307  -16.7576   16.7783 O   0  0  0  0  0  0  0  0  0  0  0  0
    6.2502  -11.5488   27.9252 C   0  0  0  0  0  0  0  0  0  0  0  0
    5.9756  -12.6531   26.5347 S   0  0  0  0  0  0  0  0  0  0  0  0
    7.5432  -13.1551   25.7621 C   0  0  0  0  0  0  0  0  0  0  0  0
    7.2100  -13.9644   24.5260 C   0  0  0  0  0  0  0  0  0  0  0  0
    8.4224  -14.5113   23.8351 C   0  0  2  0  0  0  0  0  0  0  0  0
    8.1577  -15.3869   22.7513 N   0  0  0  0  0  0  0  0  0  0  0  0
    9.3315  -15.0734   24.8534 C   0  0  0  0  0  0  0  0  0  0  0  0
    9.6161  -14.3913   25.8579 O   0  0  0  0  0  0  0  0  0  0  0  0
    9.8839  -16.3607   24.7144 N   0  0  0  0  0  0  0  0  0  0  0  0
   10.8085  -16.9174   25.7441 C   0  0  1  0  0  0  0  0  0  0  0  0
   10.1263  -18.0461   26.4445 C   0  0  0  0  0  0  0  0  0  0  0  0
   10.9591  -18.6917   27.4725 C   0  0  0  0  0  0  0  0  0  0  0  0
   10.3383  -19.8192   28.1813 C   0  0  0  0  0  0  0  0  0  0  0  0
    9.2078  -20.2418   27.8598 O   0  0  0  0  0  0  0  0  0  0  0  0
   12.0108  -17.3045   24.9943 C   0  0  0  0  0  0  0  0  0  0  0  0
   13.1967  -17.5063   25.6720 O   0  0  0  0  0  0  0  0  0  0  0  0
   10.9762  -20.4720   29.2444 O   0  0  0  0  0  0  0  0  0  0  0  0
   11.9824  -17.4531   23.7638 O   0  0  0  0  0  0  0  0  0  0  0  0
  2  1  1  1
  2  3  1  0
  3  4  1  0
  4  8  1  0
  5  4  2  0
  6  2  1  0
  7  6  2  0
 10  9  1  0
 10 11  1  0
 11 12  1  0
 13 12  1  1
 13 14  1  0
 14  6  1  0
 15 13  1  0
 15 16  2  0
 17 15  1  0
 18 17  1  0
 18 19  1  6
 20 19  1  0
 20 21  1  0
 21 25  1  0
 22 21  2  0
 23 18  1  0
 24 23  1  0
 26 23  2  0
M  END
$$$$
