DME.pdb
     RDKit          3D

 26 25  0  0  1  0  0  0  0  0999 V2000
    7.7144  -16.2261   20.7557 N   0  0  0  0  0  0  0  0  0  0  0  0
    9.0924  -16.3614   21.0646 C   0  0  1  0  0  0  0  0  0  0  0  0
    9.9174  -15.6169   20.0541 C   0  0  0  0  0  0  0  0  0  0  0  0
    9.8285  -16.1592   18.6772 C   0  0  0  0  0  0  0  0  0  0  0  0
    8.7471  -16.7076   18.2651 O   0  0  0  0  0  0  0  0  0  0  0  0
    9.4553  -16.0828   22.4709 C   0  0  0  0  0  0  0  0  0  0  0  0
   10.6681  -16.0298   22.8086 O   0  0  0  0  0  0  0  0  0  0  0  0
   10.8521  -16.1286   17.7473 O   0  0  0  0  0  0  0  0  0  0  0  0
    6.9644  -10.7899   26.3199 C   0  0  0  0  0  0  0  0  0  0  0  0
    6.8459  -12.5641   26.5778 S   0  0  0  0  0  0  0  0  0  0  0  0
    7.5851  -13.4893   25.1980 C   0  0  0  0  0  0  0  0  0  0  0  0
    7.7445  -14.9289   25.6407 C   0  0  0  0  0  0  0  0  0  0  0  0
    8.7985  -15.6682   24.8734 C   0  0  2  0  0  0  0  0  0  0  0  0
    8.5208  -15.8614   23.4962 N   0  0  0  0  0  0  0  0  0  0  0  0
    9.1261  -16.9107   25.6004 C   0  0  0  0  0  0  0  0  0  0  0  0
    8.3730  -17.8982   25.4875 O   0  0  0  0  0  0  0  0  0  0  0  0
   10.2683  -17.0039   26.4178 N   0  0  0  0  0  0  0  0  0  0  0  0
   10.6736  -18.3024   27.0299 C   0  0  1  0  0  0  0  0  0  0  0  0
   11.9569  -18.7478   26.4095 C   0  0  0  0  0  0  0  0  0  0  0  0
   12.5428  -19.9346   27.0541 C   0  0  0  0  0  0  0  0  0  0  0  0
   13.8125  -20.4079   26.4861 C   0  0  0  0  0  0  0  0  0  0  0  0
   14.9070  -19.9541   26.8812 O   0  0  0  0  0  0  0  0  0  0  0  0
   10.7580  -18.0249   28.4698 C   0  0  0  0  0  0  0  0  0  0  0  0
   10.9545  -19.0693   29.3512 O   0  0  0  0  0  0  0  0  0  0  0  0
   13.8606  -21.3831   25.4811 O   0  0  0  0  0  0  0  0  0  0  0  0
   10.6557  -16.8705   28.9103 O   0  0  0  0  0  0  0  0  0  0  0  0
  2  1  1  1
  2  3  1  0
  3  4  1  0
  4  8  1  0
  5  4  2  0
  6  2  1  0
  7  6  2  0
 10  9  1  0
 10 11  1  0
 11 12  1  0
 13 12  1  1
 13 14  1  0
 14  6  1  0
 15 13  1  0
 15 16  2  0
 17 15  1  0
 18 17  1  0
 18 19  1  6
 20 19  1  0
 20 21  1  0
 21 25  1  0
 22 21  2  0
 23 18  1  0
 24 23  1  0
 26 23  2  0
M  END
$$$$
