DME.pdb
     RDKit          3D

 26 25  0  0  1  0  0  0  0  0999 V2000
    7.0362  -16.7376   20.6157 N   0  0  0  0  0  0  0  0  0  0  0  0
    8.0599  -15.7554   20.6271 C   0  0  1  0  0  0  0  0  0  0  0  0
    7.6048  -14.5352   19.8790 C   0  0  0  0  0  0  0  0  0  0  0  0
    7.8156  -14.6060   18.4131 C   0  0  0  0  0  0  0  0  0  0  0  0
    7.5653  -15.6870   17.7738 O   0  0  0  0  0  0  0  0  0  0  0  0
    8.6489  -15.4717   21.9536 C   0  0  0  0  0  0  0  0  0  0  0  0
    9.8939  -15.3151   22.0683 O   0  0  0  0  0  0  0  0  0  0  0  0
    8.2799  -13.5650   17.6295 O   0  0  0  0  0  0  0  0  0  0  0  0
    7.6856  -11.1868   27.2227 C   0  0  0  0  0  0  0  0  0  0  0  0
    6.4395  -12.1512   26.3591 S   0  0  0  0  0  0  0  0  0  0  0  0
    7.1476  -13.0342   24.9361 C   0  0  0  0  0  0  0  0  0  0  0  0
    7.4866  -14.4397   25.3873 C   0  0  0  0  0  0  0  0  0  0  0  0
    8.4095  -15.1541   24.4470 C   0  0  2  0  0  0  0  0  0  0  0  0
    7.9024  -15.3557   23.1380 N   0  0  0  0  0  0  0  0  0  0  0  0
    8.8878  -16.3873   25.1026 C   0  0  0  0  0  0  0  0  0  0  0  0
    8.0768  -17.3048   25.3384 O   0  0  0  0  0  0  0  0  0  0  0  0
   10.2377  -16.5489   25.4676 N   0  0  0  0  0  0  0  0  0  0  0  0
   10.7515  -17.8610   25.9572 C   0  0  1  0  0  0  0  0  0  0  0  0
   12.2030  -17.9654   25.6221 C   0  0  0  0  0  0  0  0  0  0  0  0
   12.8476  -19.1734   26.1628 C   0  0  0  0  0  0  0  0  0  0  0  0
   14.2820  -19.3135   25.8773 C   0  0  0  0  0  0  0  0  0  0  0  0
   15.0954  -19.6061   26.7789 O   0  0  0  0  0  0  0  0  0  0  0  0
   10.4576  -17.8622   27.3963 C   0  0  0  0  0  0  0  0  0  0  0  0
   10.3508  -16.6602   28.0674 O   0  0  0  0  0  0  0  0  0  0  0  0
   14.8067  -19.1275   24.5915 O   0  0  0  0  0  0  0  0  0  0  0  0
   10.3040  -18.9217   28.0215 O   0  0  0  0  0  0  0  0  0  0  0  0
  2  1  1  1
  2  3  1  0
  3  4  1  0
  4  8  1  0
  5  4  2  0
  6  2  1  0
  7  6  2  0
 10  9  1  0
 10 11  1  0
 11 12  1  0
 13 12  1  1
 13 14  1  0
 14  6  1  0
 15 13  1  0
 15 16  2  0
 17 15  1  0
 18 17  1  0
 18 19  1  1
 20 19  1  0
 20 21  1  0
 21 25  1  0
 22 21  2  0
 23 18  1  0
 24 23  1  0
 26 23  2  0
M  END
$$$$
