DME.pdb
     RDKit          3D

 26 25  0  0  1  0  0  0  0  0999 V2000
    6.9636  -17.0906   19.9549 N   0  0  0  0  0  0  0  0  0  0  0  0
    8.3251  -16.6934   19.9900 C   0  0  1  0  0  0  0  0  0  0  0  0
    8.7090  -16.0709   18.6781 C   0  0  0  0  0  0  0  0  0  0  0  0
    8.0948  -16.7186   17.4942 C   0  0  0  0  0  0  0  0  0  0  0  0
    7.3145  -17.7238   17.6372 O   0  0  0  0  0  0  0  0  0  0  0  0
    8.7236  -15.9064   21.1769 C   0  0  0  0  0  0  0  0  0  0  0  0
    9.9226  -15.5458   21.3185 O   0  0  0  0  0  0  0  0  0  0  0  0
    8.2930  -16.3221   16.1839 O   0  0  0  0  0  0  0  0  0  0  0  0
    6.4737  -11.5083   27.4104 C   0  0  0  0  0  0  0  0  0  0  0  0
    6.0488  -12.4872   25.9648 S   0  0  0  0  0  0  0  0  0  0  0  0
    7.4838  -13.4137   25.3417 C   0  0  0  0  0  0  0  0  0  0  0  0
    7.0543  -14.1376   24.0825 C   0  0  0  0  0  0  0  0  0  0  0  0
    8.1750  -14.8766   23.4160 C   0  0  2  0  0  0  0  0  0  0  0  0
    7.8382  -15.5121   22.1938 N   0  0  0  0  0  0  0  0  0  0  0  0
    8.8027  -15.7734   24.4065 C   0  0  0  0  0  0  0  0  0  0  0  0
    8.1750  -16.7747   24.8046 O   0  0  0  0  0  0  0  0  0  0  0  0
   10.0926  -15.5221   24.9111 N   0  0  0  0  0  0  0  0  0  0  0  0
   10.9552  -16.6330   25.4081 C   0  0  1  0  0  0  0  0  0  0  0  0
   12.3676  -16.3637   25.0048 C   0  0  0  0  0  0  0  0  0  0  0  0
   13.3224  -17.3732   25.4909 C   0  0  0  0  0  0  0  0  0  0  0  0
   14.7359  -17.1148   25.1842 C   0  0  0  0  0  0  0  0  0  0  0  0
   15.5704  -16.9230   26.0934 O   0  0  0  0  0  0  0  0  0  0  0  0
   10.7311  -16.6574   26.8596 C   0  0  0  0  0  0  0  0  0  0  0  0
   10.3162  -15.5072   27.5009 O   0  0  0  0  0  0  0  0  0  0  0  0
   15.2159  -17.0700   23.8686 O   0  0  0  0  0  0  0  0  0  0  0  0
   10.9075  -17.6909   27.5212 O   0  0  0  0  0  0  0  0  0  0  0  0
  2  1  1  6
  2  3  1  0
  3  4  1  0
  4  8  1  0
  5  4  2  0
  6  2  1  0
  7  6  2  0
 10  9  1  0
 10 11  1  0
 11 12  1  0
 13 12  1  1
 13 14  1  0
 14  6  1  0
 15 13  1  0
 15 16  2  0
 17 15  1  0
 18 17  1  0
 18 19  1  1
 20 19  1  0
 20 21  1  0
 21 25  1  0
 22 21  2  0
 23 18  1  0
 24 23  1  0
 26 23  2  0
M  END
$$$$
