DME.pdb
     RDKit          3D

 26 25  0  0  1  0  0  0  0  0999 V2000
    7.9691  -14.9455   19.3957 N   0  0  0  0  0  0  0  0  0  0  0  0
    7.7255  -15.8857   20.4298 C   0  0  1  0  0  0  0  0  0  0  0  0
    8.0173  -17.2740   19.9364 C   0  0  0  0  0  0  0  0  0  0  0  0
    7.3524  -17.6173   18.6565 C   0  0  0  0  0  0  0  0  0  0  0  0
    6.1152  -17.9471   18.6368 O   0  0  0  0  0  0  0  0  0  0  0  0
    8.3396  -15.5622   21.7357 C   0  0  0  0  0  0  0  0  0  0  0  0
    9.5902  -15.4404   21.8293 O   0  0  0  0  0  0  0  0  0  0  0  0
    7.9703  -17.6157   17.4189 O   0  0  0  0  0  0  0  0  0  0  0  0
    6.8352  -10.3129   26.2250 C   0  0  0  0  0  0  0  0  0  0  0  0
    6.6872  -12.0941   26.4085 S   0  0  0  0  0  0  0  0  0  0  0  0
    7.0452  -12.9572   24.8487 C   0  0  0  0  0  0  0  0  0  0  0  0
    7.2182  -14.4283   25.1645 C   0  0  0  0  0  0  0  0  0  0  0  0
    8.1416  -15.1303   24.2155 C   0  0  2  0  0  0  0  0  0  0  0  0
    7.6120  -15.3699   22.9219 N   0  0  0  0  0  0  0  0  0  0  0  0
    8.6724  -16.3367   24.8804 C   0  0  0  0  0  0  0  0  0  0  0  0
    7.9254  -17.3227   25.0386 O   0  0  0  0  0  0  0  0  0  0  0  0
   10.0016  -16.3974   25.3398 N   0  0  0  0  0  0  0  0  0  0  0  0
   10.5519  -17.6458   25.9432 C   0  0  1  0  0  0  0  0  0  0  0  0
   11.9623  -17.8212   25.4851 C   0  0  0  0  0  0  0  0  0  0  0  0
   12.6742  -18.9113   26.1722 C   0  0  0  0  0  0  0  0  0  0  0  0
   14.0815  -19.0940   25.7917 C   0  0  0  0  0  0  0  0  0  0  0  0
   14.5594  -18.5245   24.7882 O   0  0  0  0  0  0  0  0  0  0  0  0
   10.4018  -17.4563   27.3920 C   0  0  0  0  0  0  0  0  0  0  0  0
   10.2548  -16.1798   27.8971 O   0  0  0  0  0  0  0  0  0  0  0  0
   14.9517  -19.9092   26.5276 O   0  0  0  0  0  0  0  0  0  0  0  0
   10.4051  -18.4204   28.1714 O   0  0  0  0  0  0  0  0  0  0  0  0
  2  1  1  6
  2  3  1  0
  3  4  1  0
  4  8  1  0
  5  4  2  0
  6  2  1  0
  7  6  2  0
 10  9  1  0
 10 11  1  0
 11 12  1  0
 13 12  1  1
 13 14  1  0
 14  6  1  0
 15 13  1  0
 15 16  2  0
 17 15  1  0
 18 17  1  0
 18 19  1  1
 20 19  1  0
 20 21  1  0
 21 25  1  0
 22 21  2  0
 23 18  1  0
 24 23  1  0
 26 23  2  0
M  END
$$$$
