DME.pdb
     RDKit          3D

 26 25  0  0  1  0  0  0  0  0999 V2000
    8.0679  -16.5639   20.1174 N   0  0  0  0  0  0  0  0  0  0  0  0
    9.2769  -16.9438   20.7552 C   0  0  1  0  0  0  0  0  0  0  0  0
   10.4207  -16.8329   19.7881 C   0  0  0  0  0  0  0  0  0  0  0  0
   10.0861  -17.2351   18.4009 C   0  0  0  0  0  0  0  0  0  0  0  0
    9.5895  -18.3913   18.1632 O   0  0  0  0  0  0  0  0  0  0  0  0
    9.5257  -16.3093   22.0676 C   0  0  0  0  0  0  0  0  0  0  0  0
   10.7046  -16.1962   22.4978 O   0  0  0  0  0  0  0  0  0  0  0  0
   10.2673  -16.4424   17.2819 O   0  0  0  0  0  0  0  0  0  0  0  0
    6.8779  -11.1261   26.3800 C   0  0  0  0  0  0  0  0  0  0  0  0
    6.3596  -12.8398   26.5320 S   0  0  0  0  0  0  0  0  0  0  0  0
    7.7173  -13.9842   26.1407 C   0  0  0  0  0  0  0  0  0  0  0  0
    7.5443  -14.4311   24.7039 C   0  0  0  0  0  0  0  0  0  0  0  0
    8.6730  -15.2861   24.2127 C   0  0  2  0  0  0  0  0  0  0  0  0
    8.5151  -15.8016   22.9009 N   0  0  0  0  0  0  0  0  0  0  0  0
    8.9630  -16.3144   25.2314 C   0  0  0  0  0  0  0  0  0  0  0  0
    8.1243  -17.2120   25.4459 O   0  0  0  0  0  0  0  0  0  0  0  0
   10.1641  -16.3028   25.9655 N   0  0  0  0  0  0  0  0  0  0  0  0
   10.6480  -17.5252   26.6703 C   0  0  1  0  0  0  0  0  0  0  0  0
   12.0327  -17.8338   26.2042 C   0  0  0  0  0  0  0  0  0  0  0  0
   12.6673  -18.9433   26.9346 C   0  0  0  0  0  0  0  0  0  0  0  0
   14.0578  -19.2392   26.5635 C   0  0  0  0  0  0  0  0  0  0  0  0
   14.5804  -18.7262   25.5518 O   0  0  0  0  0  0  0  0  0  0  0  0
   10.5457  -17.1965   28.0982 C   0  0  0  0  0  0  0  0  0  0  0  0
   10.6491  -18.2054   29.0352 O   0  0  0  0  0  0  0  0  0  0  0  0
   14.8614  -20.1043   27.3178 O   0  0  0  0  0  0  0  0  0  0  0  0
   10.3676  -16.0304   28.4796 O   0  0  0  0  0  0  0  0  0  0  0  0
  2  1  1  6
  2  3  1  0
  3  4  1  0
  4  8  1  0
  5  4  2  0
  6  2  1  0
  7  6  2  0
 10  9  1  0
 10 11  1  0
 11 12  1  0
 13 12  1  1
 13 14  1  0
 14  6  1  0
 15 13  1  0
 15 16  2  0
 17 15  1  0
 18 17  1  0
 18 19  1  6
 20 19  1  0
 20 21  1  0
 21 25  1  0
 22 21  2  0
 23 18  1  0
 24 23  1  0
 26 23  2  0
M  END
$$$$
