MHP.pdb
     RDKit          3D

 26 27  0  0  1  0  0  0  0  0999 V2000
    8.7296  -11.7871   20.4834 C   0  0  0  0  0  0  0  0  0  0  0  0
    7.5148  -12.7085   19.4737 S   0  0  0  0  0  0  0  0  0  0  0  0
    8.4092  -14.1703   18.8245 C   0  0  0  0  0  0  0  0  0  0  0  0
    8.8933  -14.9584   19.9963 C   0  0  0  0  0  0  0  0  0  0  0  0
    7.9609  -16.0865   20.3583 C   0  0  2  0  0  0  0  0  0  0  0  0
    6.8041  -16.1696   19.5251 N   0  0  0  0  0  0  0  0  0  0  0  0
    7.5562  -16.0209   21.7832 C   0  0  0  0  0  0  0  0  0  0  0  0
    6.3832  -15.7070   22.1080 O   0  0  0  0  0  0  0  0  0  0  0  0
    8.4993  -16.3149   22.8055 N   0  0  0  0  0  0  0  0  0  0  0  0
    8.0981  -16.5354   24.1986 C   0  0  1  0  0  0  0  0  0  0  0  0
    7.9313  -18.0169   24.4267 C   0  0  0  0  0  0  0  0  0  0  0  0
    7.6980  -18.3199   25.8383 C   0  0  0  0  0  0  0  0  0  0  0  0
    7.1878  -17.5387   26.8481 C   0  0  0  0  0  0  0  0  0  0  0  0
    7.1824  -18.2203   28.0016 N   0  0  0  0  0  0  0  0  0  0  0  0
    7.6857  -19.4324   27.7359 C   0  0  0  0  0  0  0  0  0  0  0  0
    8.0008  -19.5041   26.4323 N   0  0  0  0  0  0  0  0  0  0  0  0
    9.0170  -15.9241   25.1475 C   0  0  0  0  0  0  0  0  0  0  0  0
   10.2174  -16.3779   25.1223 O   0  0  0  0  0  0  0  0  0  0  0  0
    8.7096  -14.9077   26.0626 N   0  0  0  0  0  0  0  0  0  0  0  0
    7.4941  -14.1696   26.2603 C   0  0  0  0  0  0  0  0  0  0  0  0
    7.6867  -13.5538   27.6589 C   0  0  0  0  0  0  0  0  0  0  0  0
    9.1459  -13.1050   27.5311 C   0  0  0  0  0  0  0  0  0  0  0  0
    9.7313  -14.4288   27.0257 C   0  0  1  0  0  0  0  0  0  0  0  0
    9.7259  -15.3729   28.1652 C   0  0  0  0  0  0  0  0  0  0  0  0
   10.4896  -15.2132   29.1661 O   0  0  0  0  0  0  0  0  0  0  0  0
    8.8889  -16.4845   28.2069 O   0  0  0  0  0  0  0  0  0  0  0  0
  2  1  1  0
  3  2  1  0
  4  5  1  0
  4  3  1  0
  5  7  1  0
  5  6  1  6
  7  8  2  0
  9 10  1  0
  9  7  1  0
 11 12  1  0
 10 11  1  1
 12 16  1  0
 13 12  2  0
 13 14  1  0
 14 15  1  0
 16 15  2  0
 17 18  2  0
 17 10  1  0
 19 17  1  0
 20 19  1  0
 20 21  1  0
 22 21  1  0
 23 22  1  0
 23 19  1  0
 23 24  1  1
 25 24  2  0
 26 24  1  0
M  END
$$$$
