MHP.pdb
     RDKit          3D

 26 27  0  0  1  0  0  0  0  0999 V2000
    5.8826  -11.5631   27.2471 C   0  0  0  0  0  0  0  0  0  0  0  0
    7.0112  -12.6491   28.1910 S   0  0  0  0  0  0  0  0  0  0  0  0
    6.7486  -14.3385   27.5314 C   0  0  0  0  0  0  0  0  0  0  0  0
    6.7522  -14.2453   26.0415 C   0  0  0  0  0  0  0  0  0  0  0  0
    6.4641  -15.5689   25.3796 C   0  0  2  0  0  0  0  0  0  0  0  0
    6.7489  -16.7005   26.2028 N   0  0  0  0  0  0  0  0  0  0  0  0
    7.1726  -15.6936   24.0830 C   0  0  0  0  0  0  0  0  0  0  0  0
    7.8336  -16.7257   23.8046 O   0  0  0  0  0  0  0  0  0  0  0  0
    7.1109  -14.6374   23.1335 N   0  0  0  0  0  0  0  0  0  0  0  0
    7.7232  -14.7442   21.8054 C   0  0  1  0  0  0  0  0  0  0  0  0
    7.4678  -13.4646   21.0491 C   0  0  0  0  0  0  0  0  0  0  0  0
    7.9656  -13.5437   19.6762 C   0  0  0  0  0  0  0  0  0  0  0  0
    8.8925  -12.7727   19.0153 C   0  0  0  0  0  0  0  0  0  0  0  0
    9.0174  -13.1865   17.7471 N   0  0  0  0  0  0  0  0  0  0  0  0
    8.1766  -14.2170   17.5928 C   0  0  0  0  0  0  0  0  0  0  0  0
    7.5358  -14.4420   18.7515 N   0  0  0  0  0  0  0  0  0  0  0  0
    9.1374  -15.0830   21.8683 C   0  0  0  0  0  0  0  0  0  0  0  0
    9.8387  -14.3723   22.6748 O   0  0  0  0  0  0  0  0  0  0  0  0
    9.7811  -16.0941   21.1415 N   0  0  0  0  0  0  0  0  0  0  0  0
    9.2751  -16.9816   20.1327 C   0  0  0  0  0  0  0  0  0  0  0  0
   10.5569  -17.5090   19.4611 C   0  0  0  0  0  0  0  0  0  0  0  0
   11.4044  -17.7605   20.7123 C   0  0  0  0  0  0  0  0  0  0  0  0
   11.2157  -16.3910   21.3750 C   0  0  1  0  0  0  0  0  0  0  0  0
   11.9932  -15.4113   20.5841 C   0  0  0  0  0  0  0  0  0  0  0  0
   11.4339  -14.6324   19.7529 O   0  0  0  0  0  0  0  0  0  0  0  0
   13.3746  -15.2866   20.7039 O   0  0  0  0  0  0  0  0  0  0  0  0
  2  1  1  0
  3  2  1  0
  4  5  1  0
  4  3  1  0
  5  7  1  0
  5  6  1  1
  7  8  2  0
  9 10  1  0
  9  7  1  0
 11 12  1  0
 10 11  1  1
 12 16  1  0
 13 12  2  0
 13 14  1  0
 14 15  1  0
 16 15  2  0
 17 18  2  0
 17 10  1  0
 19 17  1  0
 20 19  1  0
 20 21  1  0
 22 21  1  0
 23 22  1  0
 23 19  1  0
 23 24  1  6
 25 24  2  0
 26 24  1  0
M  END
$$$$
