MHP.pdb
     RDKit          3D

 26 27  0  0  1  0  0  0  0  0999 V2000
    7.5181  -11.6273   19.3729 C   0  0  0  0  0  0  0  0  0  0  0  0
    8.7885  -12.8411   19.8798 S   0  0  0  0  0  0  0  0  0  0  0  0
    8.0205  -14.4906   19.6614 C   0  0  0  0  0  0  0  0  0  0  0  0
    9.0129  -15.5117   20.1101 C   0  0  0  0  0  0  0  0  0  0  0  0
    8.3573  -16.7249   20.7196 C   0  0  2  0  0  0  0  0  0  0  0  0
    7.4127  -17.3640   19.8603 N   0  0  0  0  0  0  0  0  0  0  0  0
    7.7231  -16.4036   22.0208 C   0  0  0  0  0  0  0  0  0  0  0  0
    6.5397  -15.9838   22.0767 O   0  0  0  0  0  0  0  0  0  0  0  0
    8.4539  -16.5683   23.2290 N   0  0  0  0  0  0  0  0  0  0  0  0
    7.8501  -16.3364   24.5450 C   0  0  1  0  0  0  0  0  0  0  0  0
    7.8827  -17.6252   25.3276 C   0  0  0  0  0  0  0  0  0  0  0  0
    6.9283  -18.5989   24.7987 C   0  0  0  0  0  0  0  0  0  0  0  0
    6.0111  -18.4897   23.7803 C   0  0  0  0  0  0  0  0  0  0  0  0
    5.3181  -19.6300   23.6585 N   0  0  0  0  0  0  0  0  0  0  0  0
    5.7863  -20.4676   24.5925 C   0  0  0  0  0  0  0  0  0  0  0  0
    6.7593  -19.8557   25.2873 N   0  0  0  0  0  0  0  0  0  0  0  0
    8.4754  -15.2331   25.2594 C   0  0  0  0  0  0  0  0  0  0  0  0
    9.7536  -15.1683   25.1629 O   0  0  0  0  0  0  0  0  0  0  0  0
    7.8163  -14.2604   26.0239 N   0  0  0  0  0  0  0  0  0  0  0  0
    6.4140  -14.0060   26.1980 C   0  0  0  0  0  0  0  0  0  0  0  0
    6.3761  -13.1268   27.4621 C   0  0  0  0  0  0  0  0  0  0  0  0
    7.5527  -12.1967   27.1499 C   0  0  0  0  0  0  0  0  0  0  0  0
    8.5913  -13.2737   26.8154 C   0  0  1  0  0  0  0  0  0  0  0  0
    8.9608  -13.9351   28.0865 C   0  0  0  0  0  0  0  0  0  0  0  0
    8.5514  -15.1013   28.3741 O   0  0  0  0  0  0  0  0  0  0  0  0
    9.7739  -13.3219   29.0357 O   0  0  0  0  0  0  0  0  0  0  0  0
  2  1  1  0
  3  2  1  0
  4  5  1  0
  4  3  1  0
  5  7  1  0
  5  6  1  6
  7  8  2  0
  9 10  1  0
  9  7  1  0
 11 12  1  0
 10 11  1  1
 12 16  1  0
 13 12  2  0
 13 14  1  0
 14 15  1  0
 16 15  2  0
 17 18  2  0
 17 10  1  0
 19 17  1  0
 20 19  1  0
 20 21  1  0
 22 21  1  0
 23 22  1  0
 23 19  1  0
 23 24  1  1
 25 24  2  0
 26 24  1  0
M  END
$$$$
