MHP.pdb
     RDKit          3D

 26 27  0  0  1  0  0  0  0  0999 V2000
    8.4848  -11.3701   20.3039 C   0  0  0  0  0  0  0  0  0  0  0  0
    8.8285  -13.0873   19.7771 S   0  0  0  0  0  0  0  0  0  0  0  0
    7.2095  -13.9456   19.7801 C   0  0  0  0  0  0  0  0  0  0  0  0
    7.4516  -15.3641   19.3827 C   0  0  0  0  0  0  0  0  0  0  0  0
    8.3246  -16.0988   20.3683 C   0  0  2  0  0  0  0  0  0  0  0  0
    8.6852  -17.4159   19.9506 N   0  0  0  0  0  0  0  0  0  0  0  0
    7.7041  -16.1454   21.7141 C   0  0  0  0  0  0  0  0  0  0  0  0
    6.5760  -16.6720   21.8877 O   0  0  0  0  0  0  0  0  0  0  0  0
    8.3848  -15.5899   22.8317 N   0  0  0  0  0  0  0  0  0  0  0  0
    7.9687  -15.8577   24.2120 C   0  0  1  0  0  0  0  0  0  0  0  0
    8.2125  -17.3142   24.5182 C   0  0  0  0  0  0  0  0  0  0  0  0
    7.0837  -18.1464   24.1034 C   0  0  0  0  0  0  0  0  0  0  0  0
    5.7417  -18.0362   24.3815 C   0  0  0  0  0  0  0  0  0  0  0  0
    5.0681  -19.0462   23.8146 N   0  0  0  0  0  0  0  0  0  0  0  0
    5.9706  -19.8015   23.1759 C   0  0  0  0  0  0  0  0  0  0  0  0
    7.1916  -19.2678   23.3433 N   0  0  0  0  0  0  0  0  0  0  0  0
    8.6106  -14.9703   25.1707 C   0  0  0  0  0  0  0  0  0  0  0  0
    9.8841  -15.0959   25.2704 O   0  0  0  0  0  0  0  0  0  0  0  0
    7.9720  -14.0146   25.9730 N   0  0  0  0  0  0  0  0  0  0  0  0
    6.5976  -13.6014   26.0130 C   0  0  0  0  0  0  0  0  0  0  0  0
    6.4933  -12.8764   27.3679 C   0  0  0  0  0  0  0  0  0  0  0  0
    7.7999  -12.0780   27.3206 C   0  0  0  0  0  0  0  0  0  0  0  0
    8.7431  -13.2354   26.9724 C   0  0  1  0  0  0  0  0  0  0  0  0
    8.8622  -14.0815   28.1806 C   0  0  0  0  0  0  0  0  0  0  0  0
    9.5205  -13.7023   29.1971 O   0  0  0  0  0  0  0  0  0  0  0  0
    8.2634  -15.3349   28.2734 O   0  0  0  0  0  0  0  0  0  0  0  0
  2  1  1  0
  3  2  1  0
  4  5  1  0
  4  3  1  0
  5  7  1  0
  5  6  1  6
  7  8  2  0
  9 10  1  0
  9  7  1  0
 11 12  1  0
 10 11  1  1
 12 16  1  0
 13 12  2  0
 13 14  1  0
 14 15  1  0
 16 15  2  0
 17 18  2  0
 17 10  1  0
 19 17  1  0
 20 19  1  0
 20 21  1  0
 22 21  1  0
 23 22  1  0
 23 19  1  0
 23 24  1  1
 25 24  2  0
 26 24  1  0
M  END
$$$$
