MHP.pdb
     RDKit          3D

 26 27  0  0  1  0  0  0  0  0999 V2000
    9.4832  -11.8643   19.3078 C   0  0  0  0  0  0  0  0  0  0  0  0
    7.6722  -11.8900   19.0550 S   0  0  0  0  0  0  0  0  0  0  0  0
    7.1571  -13.6316   19.2993 C   0  0  0  0  0  0  0  0  0  0  0  0
    8.2264  -14.3102   20.0898 C   0  0  0  0  0  0  0  0  0  0  0  0
    7.8977  -15.7512   20.3875 C   0  0  2  0  0  0  0  0  0  0  0  0
    6.9458  -16.3238   19.4902 N   0  0  0  0  0  0  0  0  0  0  0  0
    7.4440  -15.9267   21.7882 C   0  0  0  0  0  0  0  0  0  0  0  0
    6.2500  -15.7061   22.1131 O   0  0  0  0  0  0  0  0  0  0  0  0
    8.3632  -16.3498   22.7867 N   0  0  0  0  0  0  0  0  0  0  0  0
    7.9643  -16.5420   24.1846 C   0  0  1  0  0  0  0  0  0  0  0  0
    8.2542  -17.9683   24.5800 C   0  0  0  0  0  0  0  0  0  0  0  0
    8.0249  -18.1869   26.0078 C   0  0  0  0  0  0  0  0  0  0  0  0
    8.9159  -18.3632   27.0399 C   0  0  0  0  0  0  0  0  0  0  0  0
    8.2574  -18.5645   28.1893 N   0  0  0  0  0  0  0  0  0  0  0  0
    6.9511  -18.5180   27.8988 C   0  0  0  0  0  0  0  0  0  0  0  0
    6.7984  -18.2904   26.5840 N   0  0  0  0  0  0  0  0  0  0  0  0
    8.5853  -15.5770   25.0800 C   0  0  0  0  0  0  0  0  0  0  0  0
    9.8673  -15.5306   25.0363 O   0  0  0  0  0  0  0  0  0  0  0  0
    7.9186  -14.7161   25.9628 N   0  0  0  0  0  0  0  0  0  0  0  0
    6.5188  -14.5818   26.2526 C   0  0  0  0  0  0  0  0  0  0  0  0
    6.5137  -13.8041   27.5820 C   0  0  0  0  0  0  0  0  0  0  0  0
    7.5961  -12.7675   27.2646 C   0  0  0  0  0  0  0  0  0  0  0  0
    8.6795  -13.7353   26.7749 C   0  0  1  0  0  0  0  0  0  0  0  0
    9.1878  -14.4595   27.9611 C   0  0  0  0  0  0  0  0  0  0  0  0
    8.8933  -15.6750   28.1761 O   0  0  0  0  0  0  0  0  0  0  0  0
   10.0135  -13.8550   28.9050 O   0  0  0  0  0  0  0  0  0  0  0  0
  2  1  1  0
  3  2  1  0
  4  5  1  0
  4  3  1  0
  5  7  1  0
  5  6  1  6
  7  8  2  0
  9 10  1  0
  9  7  1  0
 11 12  1  0
 10 11  1  1
 12 16  1  0
 13 12  2  0
 13 14  1  0
 14 15  1  0
 16 15  2  0
 17 18  2  0
 17 10  1  0
 19 17  1  0
 20 19  1  0
 20 21  1  0
 22 21  1  0
 23 22  1  0
 23 19  1  0
 23 24  1  1
 25 24  2  0
 26 24  1  0
M  END
$$$$
