MHP.pdb
     RDKit          3D

 26 27  0  0  1  0  0  0  0  0999 V2000
   12.7836  -19.0161   17.6119 C   0  0  0  0  0  0  0  0  0  0  0  0
   12.1665  -17.5461   18.5078 S   0  0  0  0  0  0  0  0  0  0  0  0
   13.0354  -17.5416   20.1213 C   0  0  0  0  0  0  0  0  0  0  0  0
   12.6162  -16.3106   20.8544 C   0  0  0  0  0  0  0  0  0  0  0  0
   11.2049  -15.8948   20.5250 C   0  0  2  0  0  0  0  0  0  0  0  0
   11.0922  -15.1385   19.3190 N   0  0  0  0  0  0  0  0  0  0  0  0
   10.5803  -15.1552   21.6480 C   0  0  0  0  0  0  0  0  0  0  0  0
   10.7395  -13.9146   21.7726 O   0  0  0  0  0  0  0  0  0  0  0  0
    9.7882  -15.8479   22.6038 N   0  0  0  0  0  0  0  0  0  0  0  0
    9.1400  -15.1616   23.7259 C   0  0  1  0  0  0  0  0  0  0  0  0
    7.6446  -15.2691   23.5617 C   0  0  0  0  0  0  0  0  0  0  0  0
    6.9354  -14.6205   24.6641 C   0  0  0  0  0  0  0  0  0  0  0  0
    6.3173  -15.1575   25.7686 C   0  0  0  0  0  0  0  0  0  0  0  0
    5.7626  -14.1856   26.5056 N   0  0  0  0  0  0  0  0  0  0  0  0
    6.0221  -13.0308   25.8795 C   0  0  0  0  0  0  0  0  0  0  0  0
    6.7300  -13.2810   24.7659 N   0  0  0  0  0  0  0  0  0  0  0  0
    9.5966  -15.6511   25.0184 C   0  0  0  0  0  0  0  0  0  0  0  0
    9.8610  -16.9060   25.0701 O   0  0  0  0  0  0  0  0  0  0  0  0
    9.7677  -14.8872   26.1812 N   0  0  0  0  0  0  0  0  0  0  0  0
    9.3971  -13.5296   26.4660 C   0  0  0  0  0  0  0  0  0  0  0  0
    9.4642  -13.4678   28.0035 C   0  0  0  0  0  0  0  0  0  0  0  0
   10.7695  -14.2389   28.2239 C   0  0  0  0  0  0  0  0  0  0  0  0
   10.4358  -15.4686   27.3713 C   0  0  1  0  0  0  0  0  0  0  0  0
    9.4114  -16.2447   28.1049 C   0  0  0  0  0  0  0  0  0  0  0  0
    8.2250  -16.3604   27.6693 O   0  0  0  0  0  0  0  0  0  0  0  0
    9.6860  -16.8895   29.3077 O   0  0  0  0  0  0  0  0  0  0  0  0
  2  1  1  0
  3  2  1  0
  4  5  1  0
  4  3  1  0
  5  7  1  0
  5  6  1  6
  7  8  2  0
  9 10  1  0
  9  7  1  0
 11 12  1  0
 10 11  1  6
 12 16  1  0
 13 12  2  0
 13 14  1  0
 14 15  1  0
 16 15  2  0
 17 18  2  0
 17 10  1  0
 19 17  1  0
 20 19  1  0
 20 21  1  0
 22 21  1  0
 23 22  1  0
 23 19  1  0
 23 24  1  1
 25 24  2  0
 26 24  1  0
M  END
$$$$
