QSQ.pdb
     RDKit          3D

 25 24  0  0  1  0  0  0  0  0999 V2000
   14.8255   -8.8518  -17.3557 N   0  0  0  0  0  0  0  0  0  0  0  0
   14.7933  -10.2061  -17.7766 C   0  0  0  0  0  0  0  0  0  0  0  0
   14.0025  -10.6692  -18.6060 O   0  0  0  0  0  0  0  0  0  0  0  0
   15.7862  -11.1433  -17.1751 C   0  0  0  0  0  0  0  0  0  0  0  0
   16.7250  -10.4036  -16.3010 C   0  0  0  0  0  0  0  0  0  0  0  0
   17.7680  -11.2717  -15.6676 C   0  0  2  0  0  0  0  0  0  0  0  0
   16.9944  -12.1468  -14.7052 N   0  0  0  0  0  0  0  0  0  0  0  0
   18.6961  -10.3939  -14.8944 C   0  0  0  0  0  0  0  0  0  0  0  0
   18.4122   -9.9818  -13.7520 O   0  0  0  0  0  0  0  0  0  0  0  0
   22.7284  -10.0337  -15.7875 O   0  0  0  0  0  0  0  0  0  0  0  0
   22.1428   -9.7788  -14.5431 C   0  0  0  0  0  0  0  0  0  0  0  0
   20.8085   -9.1220  -14.6773 C   0  0  2  0  0  0  0  0  0  0  0  0
   19.9534  -10.0087  -15.4632 N   0  0  0  0  0  0  0  0  0  0  0  0
   20.8065   -7.7588  -15.2754 C   0  0  0  0  0  0  0  0  0  0  0  0
   20.3449   -7.5432  -16.4029 O   0  0  0  0  0  0  0  0  0  0  0  0
   17.7606   -3.6533  -15.8248 N   0  0  0  0  0  0  0  0  0  0  0  0
   18.8449   -2.7634  -15.9481 C   0  0  0  0  0  0  0  0  0  0  0  0
   18.6276   -1.5884  -16.3446 O   0  0  0  0  0  0  0  0  0  0  0  0
   20.2038   -3.2798  -15.5987 C   0  0  0  0  0  0  0  0  0  0  0  0
   20.1526   -4.7038  -15.1664 C   0  0  0  0  0  0  0  0  0  0  0  0
   21.4924   -5.3122  -14.8218 C   0  0  2  0  0  0  0  0  0  0  0  0
   21.3594   -6.6804  -14.5315 N   0  0  0  0  0  0  0  0  0  0  0  0
   22.1807   -4.4302  -13.8404 C   0  0  0  0  0  0  0  0  0  0  0  0
   22.0559   -4.7874  -12.5981 O   0  0  0  0  0  0  0  0  0  0  0  0
   22.9297   -3.3030  -14.0881 O   0  0  0  0  0  0  0  0  0  0  0  0
  1  2  1  0
  2  3  2  0
  4  5  1  0
  4  2  1  0
  6  8  1  0
  6  5  1  0
  6  7  1  1
  8  9  2  0
 11 10  1  0
 12 11  1  6
 13 12  1  0
 13  8  1  0
 14 15  2  0
 14 12  1  0
 16 17  1  0
 17 19  1  0
 18 17  2  0
 19 20  1  0
 21 20  1  1
 21 22  1  0
 21 23  1  0
 22 14  1  0
 23 25  1  0
 24 23  2  0
M  END
$$$$
