QSQ.pdb
     RDKit          3D

 25 24  0  0  1  0  0  0  0  0999 V2000
   15.0939  -12.0566  -12.3381 N   0  0  0  0  0  0  0  0  0  0  0  0
   14.5519  -12.6439  -11.1660 C   0  0  0  0  0  0  0  0  0  0  0  0
   14.3856  -13.8566  -10.9958 O   0  0  0  0  0  0  0  0  0  0  0  0
   14.1518  -11.7322  -10.0547 C   0  0  0  0  0  0  0  0  0  0  0  0
   14.5062  -10.3333  -10.3865 C   0  0  0  0  0  0  0  0  0  0  0  0
   14.5035   -9.4153   -9.2033 C   0  0  2  0  0  0  0  0  0  0  0  0
   13.0422   -9.2874   -8.8306 N   0  0  0  0  0  0  0  0  0  0  0  0
   15.0146   -8.0842   -9.6469 C   0  0  0  0  0  0  0  0  0  0  0  0
   14.2441   -7.1454   -9.9305 O   0  0  0  0  0  0  0  0  0  0  0  0
   16.8044   -5.6765   -7.9079 O   0  0  0  0  0  0  0  0  0  0  0  0
   16.2752   -5.5447   -9.1958 C   0  0  0  0  0  0  0  0  0  0  0  0
   16.8724   -6.5273  -10.1486 C   0  0  2  0  0  0  0  0  0  0  0  0
   16.4259   -7.8604   -9.7506 N   0  0  0  0  0  0  0  0  0  0  0  0
   18.3562   -6.5066  -10.2667 C   0  0  0  0  0  0  0  0  0  0  0  0
   19.0858   -6.9893   -9.3918 O   0  0  0  0  0  0  0  0  0  0  0  0
   20.5348   -9.5992  -14.1544 N   0  0  0  0  0  0  0  0  0  0  0  0
   21.7481   -8.8994  -14.0097 C   0  0  0  0  0  0  0  0  0  0  0  0
   22.8074   -9.4173  -14.4514 O   0  0  0  0  0  0  0  0  0  0  0  0
   21.7000   -7.5695  -13.3283 C   0  0  0  0  0  0  0  0  0  0  0  0
   20.3285   -7.2543  -12.8414 C   0  0  0  0  0  0  0  0  0  0  0  0
   20.2295   -6.0205  -11.9745 C   0  0  2  0  0  0  0  0  0  0  0  0
   18.9467   -5.9068  -11.4128 N   0  0  0  0  0  0  0  0  0  0  0  0
   20.7952   -4.8639  -12.7209 C   0  0  0  0  0  0  0  0  0  0  0  0
   19.9188   -4.1073  -13.3090 O   0  0  0  0  0  0  0  0  0  0  0  0
   22.1155   -4.5003  -12.8539 O   0  0  0  0  0  0  0  0  0  0  0  0
  1  2  1  0
  2  3  2  0
  4  5  1  0
  4  2  1  0
  6  8  1  0
  6  5  1  0
  6  7  1  6
  8  9  2  0
 11 10  1  0
 12 11  1  1
 13 12  1  0
 13  8  1  0
 14 15  2  0
 14 12  1  0
 16 17  1  0
 17 19  1  0
 18 17  2  0
 19 20  1  0
 21 20  1  6
 21 22  1  0
 21 23  1  0
 22 14  1  0
 23 25  1  0
 24 23  2  0
M  END
$$$$
