QSQ.pdb
     RDKit          3D

 25 24  0  0  1  0  0  0  0  0999 V2000
   16.9528  -15.0012  -16.8564 N   0  0  0  0  0  0  0  0  0  0  0  0
   16.1444  -13.8500  -17.0403 C   0  0  0  0  0  0  0  0  0  0  0  0
   15.4981  -13.5970  -18.0630 O   0  0  0  0  0  0  0  0  0  0  0  0
   16.0670  -12.8702  -15.9179 C   0  0  0  0  0  0  0  0  0  0  0  0
   16.9329  -11.7018  -16.1967 C   0  0  0  0  0  0  0  0  0  0  0  0
   17.5733  -11.1221  -14.9734 C   0  0  2  0  0  0  0  0  0  0  0  0
   16.4857  -11.1687  -13.9221 N   0  0  0  0  0  0  0  0  0  0  0  0
   17.9175   -9.6975  -15.2599 C   0  0  0  0  0  0  0  0  0  0  0  0
   18.7287   -9.3843  -16.1540 O   0  0  0  0  0  0  0  0  0  0  0  0
   15.4610   -6.5918  -14.7591 O   0  0  0  0  0  0  0  0  0  0  0  0
   16.7212   -6.3549  -14.2005 C   0  0  0  0  0  0  0  0  0  0  0  0
   17.7574   -7.2815  -14.7460 C   0  0  2  0  0  0  0  0  0  0  0  0
   17.3050   -8.6489  -14.4998 N   0  0  0  0  0  0  0  0  0  0  0  0
   19.1379   -7.1042  -14.2181 C   0  0  0  0  0  0  0  0  0  0  0  0
   19.4781   -7.5590  -13.1189 O   0  0  0  0  0  0  0  0  0  0  0  0
   23.6929   -6.1300  -18.2697 N   0  0  0  0  0  0  0  0  0  0  0  0
   24.4399   -5.8768  -17.1033 C   0  0  0  0  0  0  0  0  0  0  0  0
   25.6847   -5.7141  -17.1994 O   0  0  0  0  0  0  0  0  0  0  0  0
   23.6966   -5.8201  -15.8073 C   0  0  0  0  0  0  0  0  0  0  0  0
   22.2366   -6.0364  -16.0048 C   0  0  0  0  0  0  0  0  0  0  0  0
   21.4114   -5.9987  -14.7394 C   0  0  2  0  0  0  0  0  0  0  0  0
   20.0850   -6.3842  -14.9969 N   0  0  0  0  0  0  0  0  0  0  0  0
   21.6651   -4.7097  -14.0402 C   0  0  0  0  0  0  0  0  0  0  0  0
   22.5732   -4.7566  -13.1131 O   0  0  0  0  0  0  0  0  0  0  0  0
   21.0679   -3.4900  -14.2606 O   0  0  0  0  0  0  0  0  0  0  0  0
  1  2  1  0
  2  3  2  0
  4  5  1  0
  4  2  1  0
  6  8  1  0
  6  5  1  0
  6  7  1  1
  8  9  2  0
 11 10  1  0
 12 11  1  1
 13 12  1  0
 13  8  1  0
 14 15  2  0
 14 12  1  0
 16 17  1  0
 17 19  1  0
 18 17  2  0
 19 20  1  0
 21 20  1  6
 21 22  1  0
 21 23  1  0
 22 14  1  0
 23 25  1  0
 24 23  2  0
M  END
$$$$
