QSQ.pdb
     RDKit          3D

 25 24  0  0  1  0  0  0  0  0999 V2000
   28.9706  -17.3257  -15.3775 N   0  0  0  0  0  0  0  0  0  0  0  0
   28.7886  -18.1952  -16.4835 C   0  0  0  0  0  0  0  0  0  0  0  0
   29.6593  -18.4698  -17.3166 O   0  0  0  0  0  0  0  0  0  0  0  0
   27.4478  -18.8262  -16.6565 C   0  0  0  0  0  0  0  0  0  0  0  0
   26.8849  -19.2032  -15.3398 C   0  0  0  0  0  0  0  0  0  0  0  0
   27.5211  -20.4186  -14.7393 C   0  0  2  0  0  0  0  0  0  0  0  0
   27.8811  -21.2811  -15.9297 N   0  0  0  0  0  0  0  0  0  0  0  0
   26.4929  -21.1229  -13.9167 C   0  0  0  0  0  0  0  0  0  0  0  0
   25.6968  -21.9410  -14.4190 O   0  0  0  0  0  0  0  0  0  0  0  0
   25.6233  -19.8182   -9.9580 O   0  0  0  0  0  0  0  0  0  0  0  0
   25.4195  -21.1436  -10.3554 C   0  0  0  0  0  0  0  0  0  0  0  0
   25.1767  -21.2555  -11.8246 C   0  0  2  0  0  0  0  0  0  0  0  0
   26.4076  -20.8673  -12.5096 N   0  0  0  0  0  0  0  0  0  0  0  0
   24.0317  -20.4699  -12.3610 C   0  0  0  0  0  0  0  0  0  0  0  0
   24.2023  -19.4300  -13.0094 O   0  0  0  0  0  0  0  0  0  0  0  0
   21.6843  -22.8830  -16.7372 N   0  0  0  0  0  0  0  0  0  0  0  0
   21.1668  -21.8781  -15.8975 C   0  0  0  0  0  0  0  0  0  0  0  0
   20.0152  -21.4242  -16.1275 O   0  0  0  0  0  0  0  0  0  0  0  0
   22.0321  -21.4058  -14.7734 C   0  0  0  0  0  0  0  0  0  0  0  0
   21.3873  -20.2975  -14.0161 C   0  0  0  0  0  0  0  0  0  0  0  0
   21.4552  -20.4314  -12.5123 C   0  0  2  0  0  0  0  0  0  0  0  0
   22.7079  -20.9253  -12.1113 N   0  0  0  0  0  0  0  0  0  0  0  0
   20.2233  -21.1174  -12.0363 C   0  0  0  0  0  0  0  0  0  0  0  0
   19.1105  -20.5166  -12.3317 O   0  0  0  0  0  0  0  0  0  0  0  0
   20.1227  -22.2988  -11.3385 O   0  0  0  0  0  0  0  0  0  0  0  0
  1  2  1  0
  2  3  2  0
  4  5  1  0
  4  2  1  0
  6  8  1  0
  6  5  1  0
  6  7  1  6
  8  9  2  0
 11 10  1  0
 12 11  1  1
 13 12  1  0
 13  8  1  0
 14 15  2  0
 14 12  1  0
 16 17  1  0
 17 19  1  0
 18 17  2  0
 19 20  1  0
 21 20  1  6
 21 22  1  0
 21 23  1  0
 22 14  1  0
 23 25  1  0
 24 23  2  0
M  END
$$$$
