RHM.pdb
     RDKit          3D

 30 30  0  0  1  0  0  0  0  0999 V2000
   13.9971  -19.1262   16.2135 N   0  0  0  0  0  0  0  0  0  0  0  0
   13.5728  -20.4204   16.6242 C   0  0  0  0  0  0  0  0  0  0  0  0
   13.2498  -21.2640   15.6985 N   0  0  0  0  0  0  0  0  0  0  0  0
   13.5000  -20.7848   17.9969 N   0  0  0  0  0  0  0  0  0  0  0  0
   13.0183  -19.8584   18.9631 C   0  0  0  0  0  0  0  0  0  0  0  0
   11.5454  -19.6406   18.9903 C   0  0  0  0  0  0  0  0  0  0  0  0
   11.0404  -18.8555   20.1604 C   0  0  0  0  0  0  0  0  0  0  0  0
   10.6083  -17.4789   19.6718 C   0  0  2  0  0  0  0  0  0  0  0  0
   11.5022  -16.9957   18.7158 N   0  0  0  0  0  0  0  0  0  0  0  0
   10.4262  -16.5158   20.7759 C   0  0  0  0  0  0  0  0  0  0  0  0
   11.3971  -15.8808   21.2349 O   0  0  0  0  0  0  0  0  0  0  0  0
   12.9810  -22.2538   15.8767 N   0  0  0  0  0  0  0  0  0  0  0  0
    9.1370  -16.3127   21.3181 C   0  0  2  0  0  0  0  0  0  0  0  0
    8.8815  -15.6417   22.5774 C   0  0  0  0  0  0  0  0  0  0  0  0
    7.4508  -15.2629   22.6798 C   0  0  0  0  0  0  0  0  0  0  0  0
    7.0406  -14.6783   23.9704 C   0  0  0  0  0  0  0  0  0  0  0  0
    7.1888  -13.3464   24.2614 N   0  0  0  0  0  0  0  0  0  0  0  0
    6.7221  -13.1449   25.4973 C   0  0  0  0  0  0  0  0  0  0  0  0
    6.2948  -14.3289   25.9586 N   0  0  0  0  0  0  0  0  0  0  0  0
    6.4876  -15.2702   25.0281 C   0  0  0  0  0  0  0  0  0  0  0  0
    9.4014  -16.4226   23.7281 O   0  0  0  0  0  0  0  0  0  0  0  0
   10.0681  -17.4651   23.5159 C   0  0  0  0  0  0  0  0  0  0  0  0
   10.0569  -12.7024   29.5204 S   0  0  0  0  0  0  0  0  0  0  0  0
   11.5044  -13.6529   29.1079 C   0  0  0  0  0  0  0  0  0  0  0  0
   11.1905  -15.1280   28.1616 C   0  0  0  0  0  0  0  0  0  0  0  0
   10.3931  -14.9709   26.9234 C   0  0  1  0  0  0  0  0  0  0  0  0
   10.1221  -16.2286   26.1586 N   0  0  0  0  0  0  0  0  0  0  0  0
    9.1717  -16.0331   25.0809 C   0  0  0  0  0  0  0  0  0  0  0  0
    9.6263  -17.3563   26.9790 O   0  0  0  0  0  0  0  0  0  0  0  0
    8.3929  -17.9689   26.8104 O   0  0  0  0  0  0  0  0  0  0  0  0
  2  4  1  0
  2  1  1  0
  3  2  2  0
  5  4  1  0
  6  5  1  0
  7  6  1  0
  8  7  1  0
  8  9  1  6
 10  8  1  0
 10 11  2  0
 12 10  1  0
 13 12  1  0
 13 14  1  6
 15 16  2  0
 15 14  1  0
 17 16  1  0
 18 19  2  0
 18 17  1  0
 19 15  1  0
 20 13  1  0
 21 20  2  0
 23 22  1  0
 23 24  1  0
 24 25  1  0
 26 25  1  6
 26 27  1  0
 27 20  1  0
 28 26  1  0
 28 29  1  0
 30 28  2  0
M  END
$$$$
