RHM.pdb
     RDKit          3D

 30 30  0  0  1  0  0  0  0  0999 V2000
   16.1215  -18.7474   21.0830 N   0  0  0  0  0  0  0  0  0  0  0  0
   16.0807  -18.4857   19.6854 C   0  0  0  0  0  0  0  0  0  0  0  0
   17.2027  -18.2360   19.0922 N   0  0  0  0  0  0  0  0  0  0  0  0
   14.8595  -18.4929   18.9567 N   0  0  0  0  0  0  0  0  0  0  0  0
   13.6255  -18.7330   19.6224 C   0  0  0  0  0  0  0  0  0  0  0  0
   12.4131  -18.7968   18.7600 C   0  0  0  0  0  0  0  0  0  0  0  0
   11.1536  -19.1976   19.4626 C   0  0  0  0  0  0  0  0  0  0  0  0
   10.1296  -18.0818   19.2986 C   0  0  2  0  0  0  0  0  0  0  0  0
   10.2882  -17.4489   18.0655 N   0  0  0  0  0  0  0  0  0  0  0  0
   10.1635  -17.1119   20.4113 C   0  0  0  0  0  0  0  0  0  0  0  0
   11.1144  -16.3134   20.5325 O   0  0  0  0  0  0  0  0  0  0  0  0
   17.2943  -18.0304   18.0758 N   0  0  0  0  0  0  0  0  0  0  0  0
    9.1064  -17.0898   21.3490 C   0  0  1  0  0  0  0  0  0  0  0  0
    9.0528  -16.2003   22.4924 C   0  0  0  0  0  0  0  0  0  0  0  0
    7.8153  -15.3830   22.4534 C   0  0  0  0  0  0  0  0  0  0  0  0
    7.6394  -14.5564   21.2445 C   0  0  0  0  0  0  0  0  0  0  0  0
    8.1366  -13.2827   21.1384 N   0  0  0  0  0  0  0  0  0  0  0  0
    7.8091  -12.8167   19.9296 C   0  0  0  0  0  0  0  0  0  0  0  0
    7.1238  -13.7839   19.3032 N   0  0  0  0  0  0  0  0  0  0  0  0
    7.0174  -14.8502   20.1036 C   0  0  0  0  0  0  0  0  0  0  0  0
    9.2742  -16.9322   23.7650 O   0  0  0  0  0  0  0  0  0  0  0  0
    9.5044  -18.1661   23.7356 C   0  0  0  0  0  0  0  0  0  0  0  0
   10.8641  -11.9212   27.9989 S   0  0  0  0  0  0  0  0  0  0  0  0
    9.9837  -13.4222   28.3744 C   0  0  0  0  0  0  0  0  0  0  0  0
   10.3150  -14.7830   27.2751 C   0  0  0  0  0  0  0  0  0  0  0  0
    9.4966  -16.0040   27.4574 C   0  0  2  0  0  0  0  0  0  0  0  0
    9.4739  -16.9523   26.2996 N   0  0  0  0  0  0  0  0  0  0  0  0
    9.2354  -16.2839   25.0350 C   0  0  0  0  0  0  0  0  0  0  0  0
    8.4787  -18.0419   26.4123 O   0  0  0  0  0  0  0  0  0  0  0  0
    8.5753  -19.1070   27.2962 O   0  0  0  0  0  0  0  0  0  0  0  0
  2  4  1  0
  2  1  1  0
  3  2  2  0
  5  4  1  0
  6  5  1  0
  7  6  1  0
  8  7  1  0
  8  9  1  6
 10  8  1  0
 10 11  2  0
 12 10  1  0
 13 12  1  0
 13 14  1  1
 15 16  2  0
 15 14  1  0
 17 16  1  0
 18 19  2  0
 18 17  1  0
 19 15  1  0
 20 13  1  0
 21 20  2  0
 23 22  1  0
 23 24  1  0
 24 25  1  0
 26 25  1  6
 26 27  1  0
 27 20  1  0
 28 26  1  0
 28 29  1  0
 30 28  2  0
M  END
$$$$
