RHM.pdb
     RDKit          3D

 30 30  0  0  1  0  0  0  0  0999 V2000
    8.2279  -12.7922   16.3486 N   0  0  0  0  0  0  0  0  0  0  0  0
    8.7132  -13.1583   17.6347 C   0  0  0  0  0  0  0  0  0  0  0  0
    8.9836  -12.2036   18.4644 N   0  0  0  0  0  0  0  0  0  0  0  0
    8.9007  -14.5182   18.0059 N   0  0  0  0  0  0  0  0  0  0  0  0
    8.5292  -15.5649   17.1170 C   0  0  0  0  0  0  0  0  0  0  0  0
    7.5064  -16.5238   17.6190 C   0  0  0  0  0  0  0  0  0  0  0  0
    7.3765  -16.5927   19.1086 C   0  0  0  0  0  0  0  0  0  0  0  0
    7.5077  -18.0474   19.5410 C   0  0  2  0  0  0  0  0  0  0  0  0
    6.3540  -18.7610   19.2152 N   0  0  0  0  0  0  0  0  0  0  0  0
    7.8421  -18.1864   20.9723 C   0  0  0  0  0  0  0  0  0  0  0  0
    6.9702  -18.0241   21.8497 O   0  0  0  0  0  0  0  0  0  0  0  0
    9.4756  -12.3386   19.3718 N   0  0  0  0  0  0  0  0  0  0  0  0
    9.1656  -18.5064   21.3509 C   0  0  2  0  0  0  0  0  0  0  0  0
    9.6112  -18.6268   22.7251 C   0  0  0  0  0  0  0  0  0  0  0  0
   10.8579  -19.4278   22.7954 C   0  0  0  0  0  0  0  0  0  0  0  0
   11.3841  -19.6637   24.1531 C   0  0  0  0  0  0  0  0  0  0  0  0
   11.3296  -18.7173   25.1441 N   0  0  0  0  0  0  0  0  0  0  0  0
   11.8839  -19.2430   26.2406 C   0  0  0  0  0  0  0  0  0  0  0  0
   12.2719  -20.4885   25.9315 N   0  0  0  0  0  0  0  0  0  0  0  0
   11.9684  -20.7504   24.6555 C   0  0  0  0  0  0  0  0  0  0  0  0
    9.6844  -17.3033   23.3938 O   0  0  0  0  0  0  0  0  0  0  0  0
   10.3118  -16.3664   22.8416 C   0  0  0  0  0  0  0  0  0  0  0  0
    6.2875  -11.2573   26.7003 S   0  0  0  0  0  0  0  0  0  0  0  0
    6.1979  -12.9815   26.2665 C   0  0  0  0  0  0  0  0  0  0  0  0
    7.7691  -13.8119   26.1581 C   0  0  0  0  0  0  0  0  0  0  0  0
    7.8033  -15.0809   25.3950 C   0  0  1  0  0  0  0  0  0  0  0  0
    9.1262  -15.7797   25.3512 N   0  0  0  0  0  0  0  0  0  0  0  0
    9.0643  -17.0491   24.6530 C   0  0  0  0  0  0  0  0  0  0  0  0
    9.7325  -16.0390   26.6761 O   0  0  0  0  0  0  0  0  0  0  0  0
   10.3867  -15.0848   27.4420 O   0  0  0  0  0  0  0  0  0  0  0  0
  2  4  1  0
  2  1  1  0
  3  2  2  0
  5  4  1  0
  6  5  1  0
  7  6  1  0
  8  7  1  0
  8  9  1  1
 10  8  1  0
 10 11  2  0
 12 10  1  0
 13 12  1  0
 13 14  1  6
 15 16  2  0
 15 14  1  0
 17 16  1  0
 18 19  2  0
 18 17  1  0
 19 15  1  0
 20 13  1  0
 21 20  2  0
 23 22  1  0
 23 24  1  0
 24 25  1  0
 26 25  1  6
 26 27  1  0
 27 20  1  0
 28 26  1  0
 28 29  1  0
 30 28  2  0
M  END
$$$$
