RHM.pdb
     RDKit          3D

 30 30  0  0  1  0  0  0  0  0999 V2000
    8.4745  -12.7599   15.8230 N   0  0  0  0  0  0  0  0  0  0  0  0
    8.2019  -12.9657   17.2039 C   0  0  0  0  0  0  0  0  0  0  0  0
    9.0816  -12.5466   18.0546 N   0  0  0  0  0  0  0  0  0  0  0  0
    7.0127  -13.6083   17.6455 N   0  0  0  0  0  0  0  0  0  0  0  0
    6.9887  -14.3046   18.8859 C   0  0  0  0  0  0  0  0  0  0  0  0
    7.7183  -15.6020   18.9275 C   0  0  0  0  0  0  0  0  0  0  0  0
    7.6971  -16.3012   20.2509 C   0  0  0  0  0  0  0  0  0  0  0  0
    8.4727  -17.6061   20.1235 C   0  0  2  0  0  0  0  0  0  0  0  0
    7.6155  -18.6546   19.7887 N   0  0  0  0  0  0  0  0  0  0  0  0
    9.2610  -17.9183   21.3321 C   0  0  0  0  0  0  0  0  0  0  0  0
    8.7708  -18.5999   22.2549 O   0  0  0  0  0  0  0  0  0  0  0  0
    9.0643  -12.7683   19.0715 N   0  0  0  0  0  0  0  0  0  0  0  0
   10.5856  -17.4383   21.4434 C   0  0  2  0  0  0  0  0  0  0  0  0
   11.3869  -17.5360   22.6476 C   0  0  0  0  0  0  0  0  0  0  0  0
   12.8312  -17.5277   22.3089 C   0  0  0  0  0  0  0  0  0  0  0  0
   13.2892  -18.6421   21.4580 C   0  0  0  0  0  0  0  0  0  0  0  0
   13.4106  -18.5336   20.0963 N   0  0  0  0  0  0  0  0  0  0  0  0
   13.8457  -19.7084   19.6310 C   0  0  0  0  0  0  0  0  0  0  0  0
   13.9896  -20.5244   20.6850 N   0  0  0  0  0  0  0  0  0  0  0  0
   13.6503  -19.8766   21.8049 C   0  0  0  0  0  0  0  0  0  0  0  0
   10.9798  -16.5275   23.6581 O   0  0  0  0  0  0  0  0  0  0  0  0
   11.3840  -15.3440   23.5469 C   0  0  0  0  0  0  0  0  0  0  0  0
    6.2039  -11.6811   26.5324 S   0  0  0  0  0  0  0  0  0  0  0  0
    6.4907  -13.2513   25.7442 C   0  0  0  0  0  0  0  0  0  0  0  0
    8.0931  -13.9646   26.0506 C   0  0  0  0  0  0  0  0  0  0  0  0
    8.3808  -15.2652   25.4030 C   0  0  2  0  0  0  0  0  0  0  0  0
    9.6922  -15.8936   25.7569 N   0  0  0  0  0  0  0  0  0  0  0  0
   10.1387  -16.8512   24.7638 C   0  0  0  0  0  0  0  0  0  0  0  0
    9.7147  -16.5809   27.0675 O   0  0  0  0  0  0  0  0  0  0  0  0
    9.8849  -15.9424   28.2875 O   0  0  0  0  0  0  0  0  0  0  0  0
  2  4  1  0
  2  1  1  0
  3  2  2  0
  5  4  1  0
  6  5  1  0
  7  6  1  0
  8  7  1  0
  8  9  1  1
 10  8  1  0
 10 11  2  0
 12 10  1  0
 13 12  1  0
 13 14  1  6
 15 16  2  0
 15 14  1  0
 17 16  1  0
 18 19  2  0
 18 17  1  0
 19 15  1  0
 20 13  1  0
 21 20  2  0
 23 22  1  0
 23 24  1  0
 24 25  1  0
 26 25  1  6
 26 27  1  0
 27 20  1  0
 28 26  1  0
 28 29  1  0
 30 28  2  0
M  END
$$$$
