RHM.pdb
     RDKit          3D

 30 30  0  0  1  0  0  0  0  0999 V2000
    9.5232  -14.1767   15.8376 N   0  0  0  0  0  0  0  0  0  0  0  0
    8.3512  -13.6937   16.4831 C   0  0  0  0  0  0  0  0  0  0  0  0
    7.4737  -13.0876   15.7512 N   0  0  0  0  0  0  0  0  0  0  0  0
    8.1410  -13.8621   17.8795 N   0  0  0  0  0  0  0  0  0  0  0  0
    7.8289  -15.1441   18.4111 C   0  0  0  0  0  0  0  0  0  0  0  0
    6.4982  -15.2800   19.0654 C   0  0  0  0  0  0  0  0  0  0  0  0
    6.4973  -15.0890   20.5501 C   0  0  0  0  0  0  0  0  0  0  0  0
    7.8073  -15.6282   21.1101 C   0  0  2  0  0  0  0  0  0  0  0  0
    8.1955  -16.7799   20.4251 N   0  0  0  0  0  0  0  0  0  0  0  0
    7.7492  -15.8603   22.5669 C   0  0  0  0  0  0  0  0  0  0  0  0
    7.2532  -15.0066   23.3295 O   0  0  0  0  0  0  0  0  0  0  0  0
    6.6107  -12.6394   16.1227 N   0  0  0  0  0  0  0  0  0  0  0  0
    8.2623  -17.0636   23.1019 C   0  0  1  0  0  0  0  0  0  0  0  0
    8.1778  -17.4319   24.5015 C   0  0  0  0  0  0  0  0  0  0  0  0
    8.4677  -18.8766   24.6737 C   0  0  0  0  0  0  0  0  0  0  0  0
    8.3789  -19.3804   26.0572 C   0  0  0  0  0  0  0  0  0  0  0  0
    7.5970  -18.7855   27.0140 N   0  0  0  0  0  0  0  0  0  0  0  0
    7.7383  -19.4812   28.1463 C   0  0  0  0  0  0  0  0  0  0  0  0
    8.5902  -20.4848   27.8921 N   0  0  0  0  0  0  0  0  0  0  0  0
    8.9848  -20.4273   26.6154 C   0  0  0  0  0  0  0  0  0  0  0  0
    8.9912  -16.5289   25.3542 O   0  0  0  0  0  0  0  0  0  0  0  0
   10.1752  -16.2706   25.0261 C   0  0  0  0  0  0  0  0  0  0  0  0
    7.0483  -10.5238   25.3529 S   0  0  0  0  0  0  0  0  0  0  0  0
    7.4906  -11.4240   26.8236 C   0  0  0  0  0  0  0  0  0  0  0  0
    8.3083  -12.9792   26.5356 C   0  0  0  0  0  0  0  0  0  0  0  0
    8.6351  -13.7937   27.7287 C   0  0  2  0  0  0  0  0  0  0  0  0
    9.2614  -15.1256   27.4571 N   0  0  0  0  0  0  0  0  0  0  0  0
    8.4772  -15.9359   26.5453 C   0  0  0  0  0  0  0  0  0  0  0  0
    9.5161  -15.9463   28.6621 O   0  0  0  0  0  0  0  0  0  0  0  0
   10.5489  -15.7237   29.5613 O   0  0  0  0  0  0  0  0  0  0  0  0
  2  4  1  0
  2  1  1  0
  3  2  2  0
  5  4  1  0
  6  5  1  0
  7  6  1  0
  8  7  1  0
  8  9  1  6
 10  8  1  0
 10 11  2  0
 12 10  1  0
 13 12  1  0
 13 14  1  1
 15 16  2  0
 15 14  1  0
 17 16  1  0
 18 19  2  0
 18 17  1  0
 19 15  1  0
 20 13  1  0
 21 20  2  0
 23 22  1  0
 23 24  1  0
 24 25  1  0
 26 25  1  6
 26 27  1  0
 27 20  1  0
 28 26  1  0
 28 29  1  0
 30 28  2  0
M  END
$$$$
