RHM.pdb
     RDKit          3D

 30 30  0  0  1  0  0  0  0  0999 V2000
    8.5002  -12.9291   17.4734 N   0  0  0  0  0  0  0  0  0  0  0  0
    8.7672  -12.5812   18.8266 C   0  0  0  0  0  0  0  0  0  0  0  0
    9.2858  -11.4179   19.0524 N   0  0  0  0  0  0  0  0  0  0  0  0
    8.4820  -13.4701   19.8994 N   0  0  0  0  0  0  0  0  0  0  0  0
    7.9663  -14.7701   19.6394 C   0  0  0  0  0  0  0  0  0  0  0  0
    6.7299  -15.1484   20.3781 C   0  0  0  0  0  0  0  0  0  0  0  0
    6.9358  -15.5216   21.8130 C   0  0  0  0  0  0  0  0  0  0  0  0
    7.4257  -16.9627   21.8748 C   0  0  2  0  0  0  0  0  0  0  0  0
    6.4087  -17.8421   21.5025 N   0  0  0  0  0  0  0  0  0  0  0  0
    7.9881  -17.3151   23.1936 C   0  0  0  0  0  0  0  0  0  0  0  0
    7.2450  -17.6791   24.1272 O   0  0  0  0  0  0  0  0  0  0  0  0
    9.6379  -11.1043   19.9805 N   0  0  0  0  0  0  0  0  0  0  0  0
    9.3843  -17.2382   23.3989 C   0  0  2  0  0  0  0  0  0  0  0  0
   10.0427  -17.5816   24.6440 C   0  0  0  0  0  0  0  0  0  0  0  0
   11.2653  -18.3790   24.3788 C   0  0  0  0  0  0  0  0  0  0  0  0
   12.0017  -18.8272   25.5757 C   0  0  0  0  0  0  0  0  0  0  0  0
   11.3822  -19.1000   26.7684 N   0  0  0  0  0  0  0  0  0  0  0  0
   12.3225  -19.4798   27.6386 C   0  0  0  0  0  0  0  0  0  0  0  0
   13.4980  -19.4419   26.9950 N   0  0  0  0  0  0  0  0  0  0  0  0
   13.3069  -19.0432   25.7327 C   0  0  0  0  0  0  0  0  0  0  0  0
   10.2538  -16.3860   25.4984 O   0  0  0  0  0  0  0  0  0  0  0  0
   10.9054  -15.4121   25.0474 C   0  0  0  0  0  0  0  0  0  0  0  0
    5.6340  -12.4036   26.4051 S   0  0  0  0  0  0  0  0  0  0  0  0
    6.6562  -13.0284   27.7218 C   0  0  0  0  0  0  0  0  0  0  0  0
    8.0859  -13.9478   27.1920 C   0  0  0  0  0  0  0  0  0  0  0  0
    8.9892  -14.4492   28.2533 C   0  0  2  0  0  0  0  0  0  0  0  0
   10.1389  -15.2872   27.7884 N   0  0  0  0  0  0  0  0  0  0  0  0
    9.7411  -16.2968   26.8265 C   0  0  0  0  0  0  0  0  0  0  0  0
   10.8759  -15.9797   28.8690 O   0  0  0  0  0  0  0  0  0  0  0  0
   11.6671  -15.3432   29.8145 O   0  0  0  0  0  0  0  0  0  0  0  0
  2  4  1  0
  2  1  1  0
  3  2  2  0
  5  4  1  0
  6  5  1  0
  7  6  1  0
  8  7  1  0
  8  9  1  1
 10  8  1  0
 10 11  2  0
 12 10  1  0
 13 12  1  0
 13 14  1  6
 15 16  2  0
 15 14  1  0
 17 16  1  0
 18 19  2  0
 18 17  1  0
 19 15  1  0
 20 13  1  0
 21 20  2  0
 23 22  1  0
 23 24  1  0
 24 25  1  0
 26 25  1  6
 26 27  1  0
 27 20  1  0
 28 26  1  0
 28 29  1  0
 30 28  2  0
M  END
$$$$
