RHM.pdb
     RDKit          3D

 30 30  0  0  1  0  0  0  0  0999 V2000
    7.8941  -13.5763   16.1008 N   0  0  0  0  0  0  0  0  0  0  0  0
    8.3001  -13.2615   17.4273 C   0  0  0  0  0  0  0  0  0  0  0  0
    8.2387  -12.0220   17.7917 N   0  0  0  0  0  0  0  0  0  0  0  0
    8.7602  -14.2615   18.3276 N   0  0  0  0  0  0  0  0  0  0  0  0
    7.9626  -15.4077   18.5991 C   0  0  0  0  0  0  0  0  0  0  0  0
    6.5664  -15.1480   19.0471 C   0  0  0  0  0  0  0  0  0  0  0  0
    6.3069  -15.4022   20.4992 C   0  0  0  0  0  0  0  0  0  0  0  0
    7.4806  -16.1859   21.0725 C   0  0  2  0  0  0  0  0  0  0  0  0
    7.6558  -17.3834   20.3783 N   0  0  0  0  0  0  0  0  0  0  0  0
    7.3532  -16.4179   22.5250 C   0  0  0  0  0  0  0  0  0  0  0  0
    6.8873  -15.5350   23.2734 O   0  0  0  0  0  0  0  0  0  0  0  0
    8.5682  -11.6657   18.7126 N   0  0  0  0  0  0  0  0  0  0  0  0
    7.7647  -17.6542   23.0721 C   0  0  2  0  0  0  0  0  0  0  0  0
    7.6828  -17.9871   24.4807 C   0  0  0  0  0  0  0  0  0  0  0  0
    7.8903  -19.4424   24.6803 C   0  0  0  0  0  0  0  0  0  0  0  0
    7.7587  -19.9167   26.0708 C   0  0  0  0  0  0  0  0  0  0  0  0
    6.8299  -19.4087   26.9425 N   0  0  0  0  0  0  0  0  0  0  0  0
    6.9715  -20.0482   28.1073 C   0  0  0  0  0  0  0  0  0  0  0  0
    7.9677  -20.9328   27.9563 N   0  0  0  0  0  0  0  0  0  0  0  0
    8.4524  -20.8560   26.7121 C   0  0  0  0  0  0  0  0  0  0  0  0
    8.5622  -17.1159   25.3001 O   0  0  0  0  0  0  0  0  0  0  0  0
    9.7826  -17.0303   25.0180 C   0  0  0  0  0  0  0  0  0  0  0  0
    7.0845  -10.7083   27.2053 S   0  0  0  0  0  0  0  0  0  0  0  0
    6.1837  -12.2126   26.8982 C   0  0  0  0  0  0  0  0  0  0  0  0
    7.1893  -13.6142   26.4573 C   0  0  0  0  0  0  0  0  0  0  0  0
    8.0542  -14.1771   27.5197 C   0  0  2  0  0  0  0  0  0  0  0  0
    8.8536  -15.3837   27.1384 N   0  0  0  0  0  0  0  0  0  0  0  0
    8.0724  -16.3633   26.4084 C   0  0  0  0  0  0  0  0  0  0  0  0
    9.4880  -16.0893   28.2742 O   0  0  0  0  0  0  0  0  0  0  0  0
    9.3123  -17.4354   28.5608 O   0  0  0  0  0  0  0  0  0  0  0  0
  2  4  1  0
  2  1  1  0
  3  2  2  0
  5  4  1  0
  6  5  1  0
  7  6  1  0
  8  7  1  0
  8  9  1  6
 10  8  1  0
 10 11  2  0
 12 10  1  0
 13 12  1  0
 13 14  1  6
 15 16  2  0
 15 14  1  0
 17 16  1  0
 18 19  2  0
 18 17  1  0
 19 15  1  0
 20 13  1  0
 21 20  2  0
 23 22  1  0
 23 24  1  0
 24 25  1  0
 26 25  1  6
 26 27  1  0
 27 20  1  0
 28 26  1  0
 28 29  1  0
 30 28  2  0
M  END
$$$$
