RHM.pdb
     RDKit          3D

 30 30  0  0  1  0  0  0  0  0999 V2000
   46.9525  -66.2882    9.9015 N   0  0  0  0  0  0  0  0  0  0  0  0
   47.5317  -66.1980   11.1978 C   0  0  0  0  0  0  0  0  0  0  0  0
   48.1029  -65.0831   11.5198 N   0  0  0  0  0  0  0  0  0  0  0  0
   47.4929  -67.2855   12.1133 N   0  0  0  0  0  0  0  0  0  0  0  0
   47.6690  -68.6202   11.6537 C   0  0  0  0  0  0  0  0  0  0  0  0
   46.5823  -69.1709   10.7972 C   0  0  0  0  0  0  0  0  0  0  0  0
   46.3195  -70.6347   10.9666 C   0  0  0  0  0  0  0  0  0  0  0  0
   45.0931  -71.0066   10.1431 C   0  0  2  0  0  0  0  0  0  0  0  0
   43.9997  -70.2224   10.5115 N   0  0  0  0  0  0  0  0  0  0  0  0
   44.7743  -72.4463   10.2177 C   0  0  0  0  0  0  0  0  0  0  0  0
   43.7927  -72.9146    9.6065 O   0  0  0  0  0  0  0  0  0  0  0  0
   49.1337  -64.9461   11.5672 N   0  0  0  0  0  0  0  0  0  0  0  0
   45.5912  -73.3018   10.9911 C   0  0  1  0  0  0  0  0  0  0  0  0
   45.1802  -74.6091   11.4640 C   0  0  0  0  0  0  0  0  0  0  0  0
   44.5574  -74.5005   12.8060 C   0  0  0  0  0  0  0  0  0  0  0  0
   44.8064  -75.6359   13.7142 C   0  0  0  0  0  0  0  0  0  0  0  0
   45.8800  -76.4773   13.5721 N   0  0  0  0  0  0  0  0  0  0  0  0
   45.8153  -77.3888   14.5471 C   0  0  0  0  0  0  0  0  0  0  0  0
   44.7237  -77.1146   15.2756 N   0  0  0  0  0  0  0  0  0  0  0  0
   44.1032  -76.0430   14.7699 C   0  0  0  0  0  0  0  0  0  0  0  0
   44.3588  -75.3223   10.4537 O   0  0  0  0  0  0  0  0  0  0  0  0
   43.3743  -76.0052   10.8289 C   0  0  0  0  0  0  0  0  0  0  0  0
   43.0474  -72.2902   10.6902 S   0  0  0  0  0  0  0  0  0  0  0  0
   42.0547  -73.6922   11.1569 C   0  0  0  0  0  0  0  0  0  0  0  0
   42.1289  -75.0726   10.0349 C   0  0  0  0  0  0  0  0  0  0  0  0
   42.2905  -74.7573    8.5968 C   0  0  2  0  0  0  0  0  0  0  0  0
   43.6628  -74.9606    8.0351 N   0  0  0  0  0  0  0  0  0  0  0  0
   44.6455  -75.2636    9.0576 C   0  0  0  0  0  0  0  0  0  0  0  0
   44.1855  -73.8189    7.2517 O   0  0  0  0  0  0  0  0  0  0  0  0
   43.4071  -72.7822    6.7573 O   0  0  0  0  0  0  0  0  0  0  0  0
  2  4  1  0
  2  1  1  0
  3  2  2  0
  5  4  1  0
  6  5  1  0
  7  6  1  0
  8  7  1  0
  8  9  1  1
 10  8  1  0
 10 11  2  0
 12 10  1  0
 13 12  1  0
 13 14  1  1
 15 16  2  0
 15 14  1  0
 17 16  1  0
 18 19  2  0
 18 17  1  0
 19 15  1  0
 20 13  1  0
 21 20  2  0
 23 22  1  0
 23 24  1  0
 24 25  1  0
 26 25  1  6
 26 27  1  0
 27 20  1  0
 28 26  1  0
 28 29  1  0
 30 28  2  0
M  END
$$$$
