RHM.pdb
     RDKit          3D

 30 30  0  0  1  0  0  0  0  0999 V2000
    7.9346  -23.5577   18.0091 N   0  0  0  0  0  0  0  0  0  0  0  0
    7.8872  -22.4197   17.1569 C   0  0  0  0  0  0  0  0  0  0  0  0
    8.5545  -22.4748   16.0503 N   0  0  0  0  0  0  0  0  0  0  0  0
    7.1405  -21.2585   17.4979 N   0  0  0  0  0  0  0  0  0  0  0  0
    6.6335  -21.0900   18.8164 C   0  0  0  0  0  0  0  0  0  0  0  0
    5.8188  -19.8672   19.0579 C   0  0  0  0  0  0  0  0  0  0  0  0
    5.2923  -19.7189   20.4513 C   0  0  0  0  0  0  0  0  0  0  0  0
    5.7642  -18.3824   21.0093 C   0  0  2  0  0  0  0  0  0  0  0  0
    6.0082  -17.4785   19.9750 N   0  0  0  0  0  0  0  0  0  0  0  0
    6.9379  -18.5192   21.8945 C   0  0  0  0  0  0  0  0  0  0  0  0
    6.9236  -19.3167   22.8539 O   0  0  0  0  0  0  0  0  0  0  0  0
    8.6968  -21.6650   15.4118 N   0  0  0  0  0  0  0  0  0  0  0  0
    8.0893  -17.7368   21.6512 C   0  0  1  0  0  0  0  0  0  0  0  0
    9.3109  -17.8255   22.4266 C   0  0  0  0  0  0  0  0  0  0  0  0
   10.4699  -18.0819   21.5368 C   0  0  0  0  0  0  0  0  0  0  0  0
   11.7804  -18.1604   22.2094 C   0  0  0  0  0  0  0  0  0  0  0  0
   12.1337  -17.3318   23.2435 N   0  0  0  0  0  0  0  0  0  0  0  0
   13.3713  -17.6614   23.6252 C   0  0  0  0  0  0  0  0  0  0  0  0
   13.7724  -18.6730   22.8421 N   0  0  0  0  0  0  0  0  0  0  0  0
   12.8026  -18.9818   21.9743 C   0  0  0  0  0  0  0  0  0  0  0  0
    9.4690  -16.6601   23.3327 O   0  0  0  0  0  0  0  0  0  0  0  0
    9.5351  -15.5045   22.8464 C   0  0  0  0  0  0  0  0  0  0  0  0
    6.4782  -11.1656   26.5382 S   0  0  0  0  0  0  0  0  0  0  0  0
    6.3572  -12.8983   26.1481 C   0  0  0  0  0  0  0  0  0  0  0  0
    7.8517  -13.8321   26.4020 C   0  0  0  0  0  0  0  0  0  0  0  0
    8.1175  -14.9390   25.4544 C   0  0  1  0  0  0  0  0  0  0  0  0
    9.3794  -15.7089   25.6889 N   0  0  0  0  0  0  0  0  0  0  0  0
    9.5502  -16.8006   24.7498 C   0  0  0  0  0  0  0  0  0  0  0  0
    9.5130  -16.2775   27.0488 O   0  0  0  0  0  0  0  0  0  0  0  0
   10.0228  -15.5913   28.1416 O   0  0  0  0  0  0  0  0  0  0  0  0
  2  4  1  0
  2  1  1  0
  3  2  2  0
  5  4  1  0
  6  5  1  0
  7  6  1  0
  8  7  1  0
  8  9  1  6
 10  8  1  0
 10 11  2  0
 12 10  1  0
 13 12  1  0
 13 14  1  1
 15 16  2  0
 15 14  1  0
 17 16  1  0
 18 19  2  0
 18 17  1  0
 19 15  1  0
 20 13  1  0
 21 20  2  0
 23 22  1  0
 23 24  1  0
 24 25  1  0
 26 25  1  6
 26 27  1  0
 27 20  1  0
 28 26  1  0
 28 29  1  0
 30 28  2  0
M  END
$$$$
