RHM.pdb
     RDKit          3D

 30 30  0  0  1  0  0  0  0  0999 V2000
    9.6531  -13.6908   15.2605 N   0  0  0  0  0  0  0  0  0  0  0  0
    8.3513  -14.1408   14.9045 C   0  0  0  0  0  0  0  0  0  0  0  0
    8.2055  -14.6833   13.7395 N   0  0  0  0  0  0  0  0  0  0  0  0
    7.2437  -14.0031   15.7857 N   0  0  0  0  0  0  0  0  0  0  0  0
    7.4367  -13.5451   17.1186 C   0  0  0  0  0  0  0  0  0  0  0  0
    8.3067  -14.3873   17.9853 C   0  0  0  0  0  0  0  0  0  0  0  0
    8.3847  -13.9574   19.4170 C   0  0  0  0  0  0  0  0  0  0  0  0
    9.2299  -14.9676   20.1823 C   0  0  2  0  0  0  0  0  0  0  0  0
    9.4006  -16.1315   19.4321 N   0  0  0  0  0  0  0  0  0  0  0  0
    8.6855  -15.2642   21.5223 C   0  0  0  0  0  0  0  0  0  0  0  0
    8.1606  -14.3658   22.2106 O   0  0  0  0  0  0  0  0  0  0  0  0
    7.3098  -15.0791   13.3862 N   0  0  0  0  0  0  0  0  0  0  0  0
    8.7614  -16.5811   22.0295 C   0  0  1  0  0  0  0  0  0  0  0  0
    8.2145  -16.9925   23.3075 C   0  0  0  0  0  0  0  0  0  0  0  0
    8.1591  -18.4725   23.3932 C   0  0  0  0  0  0  0  0  0  0  0  0
    7.6095  -19.0145   24.6500 C   0  0  0  0  0  0  0  0  0  0  0  0
    6.3919  -18.6324   25.1524 N   0  0  0  0  0  0  0  0  0  0  0  0
    6.1915  -19.3040   26.2902 C   0  0  0  0  0  0  0  0  0  0  0  0
    7.2641  -20.0845   26.4850 N   0  0  0  0  0  0  0  0  0  0  0  0
    8.1343  -19.9108   25.4843 C   0  0  0  0  0  0  0  0  0  0  0  0
    8.9113  -16.3302   24.4388 O   0  0  0  0  0  0  0  0  0  0  0  0
   10.1649  -16.3650   24.4972 C   0  0  0  0  0  0  0  0  0  0  0  0
    5.6929  -10.5048   25.8668 S   0  0  0  0  0  0  0  0  0  0  0  0
    6.2745  -11.7483   27.0002 C   0  0  0  0  0  0  0  0  0  0  0  0
    7.4797  -12.8733   26.3281 C   0  0  0  0  0  0  0  0  0  0  0  0
    7.9650  -13.9473   27.2251 C   0  0  2  0  0  0  0  0  0  0  0  0
    8.8458  -14.9780   26.5909 N   0  0  0  0  0  0  0  0  0  0  0  0
    8.2070  -15.6481   25.4748 C   0  0  0  0  0  0  0  0  0  0  0  0
    9.3296  -16.0297   27.5130 O   0  0  0  0  0  0  0  0  0  0  0  0
    8.6755  -17.2302   27.7492 O   0  0  0  0  0  0  0  0  0  0  0  0
  2  4  1  0
  2  1  1  0
  3  2  2  0
  5  4  1  0
  6  5  1  0
  7  6  1  0
  8  7  1  0
  8  9  1  6
 10  8  1  0
 10 11  2  0
 12 10  1  0
 13 12  1  0
 13 14  1  1
 15 16  2  0
 15 14  1  0
 17 16  1  0
 18 19  2  0
 18 17  1  0
 19 15  1  0
 20 13  1  0
 21 20  2  0
 23 22  1  0
 23 24  1  0
 24 25  1  0
 26 25  1  6
 26 27  1  0
 27 20  1  0
 28 26  1  0
 28 29  1  0
 30 28  2  0
M  END
$$$$
