DED.pdb
     RDKit          3D

 26 25  0  0  1  0  0  0  0  0999 V2000
   16.4177  -11.9817  -10.3298 N   0  0  0  0  0  0  0  0  0  0  0  0
   15.9554  -10.6956  -10.7936 C   0  0  1  0  0  0  0  0  0  0  0  0
   14.5164  -10.5640  -10.3486 C   0  0  0  0  0  0  0  0  0  0  0  0
   13.6198  -11.5747  -10.9183 C   0  0  0  0  0  0  0  0  0  0  0  0
   13.7351  -12.0308  -12.0774 O   0  0  0  0  0  0  0  0  0  0  0  0
   16.7761   -9.6098  -10.2513 C   0  0  0  0  0  0  0  0  0  0  0  0
   17.1478   -9.5233   -9.0585 O   0  0  0  0  0  0  0  0  0  0  0  0
   12.5623  -12.0793  -10.1449 O   0  0  0  0  0  0  0  0  0  0  0  0
   17.2040   -8.5470  -11.1284 N   0  0  0  0  0  0  0  0  0  0  0  0
   18.1043   -7.5240  -10.6375 C   0  0  1  0  0  0  0  0  0  0  0  0
   19.2392   -7.3877  -11.6264 C   0  0  0  0  0  0  0  0  0  0  0  0
   20.1444   -6.2870  -11.1964 C   0  0  0  0  0  0  0  0  0  0  0  0
   21.2855   -6.0779  -12.1176 C   0  0  0  0  0  0  0  0  0  0  0  0
   21.5127   -6.8130  -13.1007 O   0  0  0  0  0  0  0  0  0  0  0  0
   17.3235   -6.2572  -10.5561 C   0  0  0  0  0  0  0  0  0  0  0  0
   16.5891   -5.8753  -11.5026 O   0  0  0  0  0  0  0  0  0  0  0  0
   22.1353   -5.0169  -11.8714 O   0  0  0  0  0  0  0  0  0  0  0  0
   17.3915   -5.4322   -9.3820 N   0  0  0  0  0  0  0  0  0  0  0  0
   16.5672   -4.2427   -9.3177 C   0  0  1  0  0  0  0  0  0  0  0  0
   15.3870   -4.4359   -8.3968 C   0  0  0  0  0  0  0  0  0  0  0  0
   14.6068   -3.2060   -8.2091 C   0  0  0  0  0  0  0  0  0  0  0  0
   14.4056   -2.3352   -9.0928 O   0  0  0  0  0  0  0  0  0  0  0  0
   17.3828   -3.0677   -8.9540 C   0  0  0  0  0  0  0  0  0  0  0  0
   16.8693   -1.7798   -9.0134 O   0  0  0  0  0  0  0  0  0  0  0  0
   14.0386   -2.9714   -6.9600 O   0  0  0  0  0  0  0  0  0  0  0  0
   18.5643   -3.2434   -8.5840 O   0  0  0  0  0  0  0  0  0  0  0  0
  2  1  1  1
  2  3  1  0
  3  4  1  0
  4  8  1  0
  5  4  2  0
  6  2  1  0
  6  9  1  0
  7  6  2  0
 10  9  1  0
 11 12  1  0
 10 11  1  6
 12 13  1  0
 13 17  1  0
 14 13  2  0
 15 16  2  0
 15 10  1  0
 18 15  1  0
 19 18  1  0
 19 20  1  1
 21 20  1  0
 21 22  2  0
 23 19  1  0
 24 23  1  0
 25 21  1  0
 26 23  2  0
M  END
$$$$
