DED.pdb
     RDKit          3D

 26 25  0  0  1  0  0  0  0  0999 V2000
   18.1281  -13.1754  -15.2930 N   0  0  0  0  0  0  0  0  0  0  0  0
   18.0926  -11.9887  -16.1136 C   0  0  1  0  0  0  0  0  0  0  0  0
   16.8139  -11.2593  -15.7687 C   0  0  0  0  0  0  0  0  0  0  0  0
   15.5988  -12.0542  -15.9729 C   0  0  0  0  0  0  0  0  0  0  0  0
   15.2734  -12.5553  -17.0719 O   0  0  0  0  0  0  0  0  0  0  0  0
   19.2637  -11.1419  -15.8725 C   0  0  0  0  0  0  0  0  0  0  0  0
   19.7463  -10.8957  -14.7433 O   0  0  0  0  0  0  0  0  0  0  0  0
   14.7305  -12.2841  -14.8938 O   0  0  0  0  0  0  0  0  0  0  0  0
   19.9328  -10.5317  -16.9959 N   0  0  0  0  0  0  0  0  0  0  0  0
   21.1888   -9.8376  -16.7982 C   0  0  1  0  0  0  0  0  0  0  0  0
   21.9941   -9.9589  -18.0714 C   0  0  0  0  0  0  0  0  0  0  0  0
   23.3244   -9.3184  -17.8816 C   0  0  0  0  0  0  0  0  0  0  0  0
   24.1671   -9.3543  -19.0994 C   0  0  0  0  0  0  0  0  0  0  0  0
   24.6025   -8.3267  -19.6588 O   0  0  0  0  0  0  0  0  0  0  0  0
   20.8602   -8.4111  -16.5184 C   0  0  0  0  0  0  0  0  0  0  0  0
   19.9217   -7.8233  -17.1139 O   0  0  0  0  0  0  0  0  0  0  0  0
   24.4826  -10.5871  -19.6369 O   0  0  0  0  0  0  0  0  0  0  0  0
   21.6157   -7.6645  -15.5512 N   0  0  0  0  0  0  0  0  0  0  0  0
   21.2649   -6.2795  -15.3117 C   0  0  1  0  0  0  0  0  0  0  0  0
   21.7000   -5.8275  -13.9388 C   0  0  0  0  0  0  0  0  0  0  0  0
   21.4179   -4.4075  -13.6933 C   0  0  0  0  0  0  0  0  0  0  0  0
   22.2774   -3.4906  -13.6826 O   0  0  0  0  0  0  0  0  0  0  0  0
   21.7963   -5.4184  -16.3860 C   0  0  0  0  0  0  0  0  0  0  0  0
   22.7715   -5.8699  -17.2640 O   0  0  0  0  0  0  0  0  0  0  0  0
   20.0995   -4.0306  -13.4520 O   0  0  0  0  0  0  0  0  0  0  0  0
   21.3531   -4.2551  -16.5029 O   0  0  0  0  0  0  0  0  0  0  0  0
  2  1  1  1
  2  3  1  0
  3  4  1  0
  4  8  1  0
  5  4  2  0
  6  2  1  0
  6  9  1  0
  7  6  2  0
 10  9  1  0
 11 12  1  0
 10 11  1  6
 12 13  1  0
 13 17  1  0
 14 13  2  0
 15 16  2  0
 15 10  1  0
 18 15  1  0
 19 18  1  0
 19 20  1  1
 21 20  1  0
 21 22  2  0
 23 19  1  0
 24 23  1  0
 25 21  1  0
 26 23  2  0
M  END
$$$$
