DED.pdb
     RDKit          3D

 26 25  0  0  1  0  0  0  0  0999 V2000
   18.8040  -11.6061  -15.3292 N   0  0  0  0  0  0  0  0  0  0  0  0
   17.9489  -10.4538  -15.1745 C   0  0  1  0  0  0  0  0  0  0  0  0
   16.5255  -10.9486  -15.2975 C   0  0  0  0  0  0  0  0  0  0  0  0
   16.1868  -11.4707  -16.6252 C   0  0  0  0  0  0  0  0  0  0  0  0
   16.2261  -10.7859  -17.6712 O   0  0  0  0  0  0  0  0  0  0  0  0
   18.1694   -9.7992  -13.8824 C   0  0  0  0  0  0  0  0  0  0  0  0
   18.0905  -10.3700  -12.7704 O   0  0  0  0  0  0  0  0  0  0  0  0
   15.7925  -12.8110  -16.7639 O   0  0  0  0  0  0  0  0  0  0  0  0
   18.5032   -8.3958  -13.8536 N   0  0  0  0  0  0  0  0  0  0  0  0
   18.8744   -7.7674  -12.6023 C   0  0  1  0  0  0  0  0  0  0  0  0
   19.7400   -6.5699  -12.9206 C   0  0  0  0  0  0  0  0  0  0  0  0
   21.1459   -7.0132  -13.1274 C   0  0  0  0  0  0  0  0  0  0  0  0
   22.1012   -5.8866  -13.2404 C   0  0  0  0  0  0  0  0  0  0  0  0
   22.4786   -5.2107  -12.2610 O   0  0  0  0  0  0  0  0  0  0  0  0
   17.6114   -7.3405  -11.9363 C   0  0  0  0  0  0  0  0  0  0  0  0
   16.5580   -7.1374  -12.5921 O   0  0  0  0  0  0  0  0  0  0  0  0
   22.5940   -5.5738  -14.4925 O   0  0  0  0  0  0  0  0  0  0  0  0
   17.5658   -7.1483  -10.5133 N   0  0  0  0  0  0  0  0  0  0  0  0
   16.3357   -6.6731   -9.9137 C   0  0  1  0  0  0  0  0  0  0  0  0
   15.3317   -7.7885   -9.7518 C   0  0  0  0  0  0  0  0  0  0  0  0
   14.1148   -7.3589   -9.0510 C   0  0  0  0  0  0  0  0  0  0  0  0
   13.8029   -7.6839   -7.8777 O   0  0  0  0  0  0  0  0  0  0  0  0
   16.6156   -5.9746   -8.6441 C   0  0  0  0  0  0  0  0  0  0  0  0
   17.8718   -6.0117   -8.0556 O   0  0  0  0  0  0  0  0  0  0  0  0
   13.2263   -6.5259   -9.7255 O   0  0  0  0  0  0  0  0  0  0  0  0
   15.6945   -5.3355   -8.0903 O   0  0  0  0  0  0  0  0  0  0  0  0
  2  1  1  1
  2  3  1  0
  3  4  1  0
  4  8  1  0
  5  4  2  0
  6  2  1  0
  6  9  1  0
  7  6  2  0
 10  9  1  0
 11 12  1  0
 10 11  1  6
 12 13  1  0
 13 17  1  0
 14 13  2  0
 15 16  2  0
 15 10  1  0
 18 15  1  0
 19 18  1  0
 19 20  1  1
 21 20  1  0
 21 22  2  0
 23 19  1  0
 24 23  1  0
 25 21  1  0
 26 23  2  0
M  END
$$$$
