DED.pdb
     RDKit          3D

 26 25  0  0  1  0  0  0  0  0999 V2000
   20.0763  -13.1242  -15.6719 N   0  0  0  0  0  0  0  0  0  0  0  0
   19.9256  -12.8198  -17.0746 C   0  0  1  0  0  0  0  0  0  0  0  0
   18.8940  -13.7813  -17.6201 C   0  0  0  0  0  0  0  0  0  0  0  0
   18.9603  -15.1242  -17.0351 C   0  0  0  0  0  0  0  0  0  0  0  0
   19.7761  -16.0002  -17.3984 O   0  0  0  0  0  0  0  0  0  0  0  0
   19.5078  -11.4297  -17.2738 C   0  0  0  0  0  0  0  0  0  0  0  0
   19.4039  -10.8684  -18.3885 O   0  0  0  0  0  0  0  0  0  0  0  0
   18.0717  -15.4781  -16.0074 O   0  0  0  0  0  0  0  0  0  0  0  0
   19.1855  -10.6211  -16.1231 N   0  0  0  0  0  0  0  0  0  0  0  0
   18.8257   -9.2288  -16.2968 C   0  0  1  0  0  0  0  0  0  0  0  0
   17.4590   -9.0205  -15.6857 C   0  0  0  0  0  0  0  0  0  0  0  0
   17.0811   -7.5844  -15.7900 C   0  0  0  0  0  0  0  0  0  0  0  0
   15.7846   -7.2750  -15.1434 C   0  0  0  0  0  0  0  0  0  0  0  0
   14.7921   -8.0294  -15.2086 O   0  0  0  0  0  0  0  0  0  0  0  0
   19.8509   -8.4197  -15.5791 C   0  0  0  0  0  0  0  0  0  0  0  0
   20.3221   -8.7868  -14.4726 O   0  0  0  0  0  0  0  0  0  0  0  0
   15.6752   -6.0934  -14.4362 O   0  0  0  0  0  0  0  0  0  0  0  0
   20.3313   -7.1872  -16.1395 N   0  0  0  0  0  0  0  0  0  0  0  0
   21.3413   -6.4406  -15.4176 C   0  0  1  0  0  0  0  0  0  0  0  0
   22.0753   -5.4826  -16.3240 C   0  0  0  0  0  0  0  0  0  0  0  0
   23.1701   -4.7817  -15.6411 C   0  0  0  0  0  0  0  0  0  0  0  0
   23.5228   -4.9771  -14.4507 O   0  0  0  0  0  0  0  0  0  0  0  0
   20.7479   -5.7687  -14.2451 C   0  0  0  0  0  0  0  0  0  0  0  0
   19.3800   -5.5589  -14.1426 O   0  0  0  0  0  0  0  0  0  0  0  0
   23.8835   -3.8223  -16.3544 O   0  0  0  0  0  0  0  0  0  0  0  0
   21.5012   -5.3815  -13.3252 O   0  0  0  0  0  0  0  0  0  0  0  0
  2  1  1  1
  2  3  1  0
  3  4  1  0
  4  8  1  0
  5  4  2  0
  6  2  1  0
  6  9  1  0
  7  6  2  0
 10  9  1  0
 11 12  1  0
 10 11  1  1
 12 13  1  0
 13 17  1  0
 14 13  2  0
 15 16  2  0
 15 10  1  0
 18 15  1  0
 19 18  1  0
 19 20  1  6
 21 20  1  0
 21 22  2  0
 23 19  1  0
 24 23  1  0
 25 21  1  0
 26 23  2  0
M  END
$$$$
