DED.pdb
     RDKit          3D

 26 25  0  0  1  0  0  0  0  0999 V2000
   20.5029  -13.1399  -18.1478 N   0  0  0  0  0  0  0  0  0  0  0  0
   20.8602  -12.3504  -16.9937 C   0  0  1  0  0  0  0  0  0  0  0  0
   22.3578  -12.1504  -17.0500 C   0  0  0  0  0  0  0  0  0  0  0  0
   23.1313  -13.3905  -16.9321 C   0  0  0  0  0  0  0  0  0  0  0  0
   22.9602  -14.2315  -16.0219 O   0  0  0  0  0  0  0  0  0  0  0  0
   20.1566  -11.0652  -16.9918 C   0  0  0  0  0  0  0  0  0  0  0  0
   20.3603  -10.1388  -17.8096 O   0  0  0  0  0  0  0  0  0  0  0  0
   24.1273  -13.6798  -17.8782 O   0  0  0  0  0  0  0  0  0  0  0  0
   19.1503  -10.8166  -15.9881 N   0  0  0  0  0  0  0  0  0  0  0  0
   18.4053   -9.5744  -16.0048 C   0  0  1  0  0  0  0  0  0  0  0  0
   17.0493   -9.8356  -15.3902 C   0  0  0  0  0  0  0  0  0  0  0  0
   16.2507   -8.5793  -15.3949 C   0  0  0  0  0  0  0  0  0  0  0  0
   14.8818   -8.7575  -14.8573 C   0  0  0  0  0  0  0  0  0  0  0  0
   13.9666   -9.3200  -15.4931 O   0  0  0  0  0  0  0  0  0  0  0  0
   19.1728   -8.5936  -15.1864 C   0  0  0  0  0  0  0  0  0  0  0  0
   19.7254   -8.9270  -14.1073 O   0  0  0  0  0  0  0  0  0  0  0  0
   14.6116   -8.2756  -13.5912 O   0  0  0  0  0  0  0  0  0  0  0  0
   19.3017   -7.2284  -15.6146 N   0  0  0  0  0  0  0  0  0  0  0  0
   20.0489   -6.3056  -14.7847 C   0  0  1  0  0  0  0  0  0  0  0  0
   21.4145   -6.0228  -15.3622 C   0  0  0  0  0  0  0  0  0  0  0  0
   22.1431   -4.9894  -14.6155 C   0  0  0  0  0  0  0  0  0  0  0  0
   22.8200   -5.1901  -13.5757 O   0  0  0  0  0  0  0  0  0  0  0  0
   19.2686   -5.0755  -14.5477 C   0  0  0  0  0  0  0  0  0  0  0  0
   19.4740   -4.2898  -13.4224 O   0  0  0  0  0  0  0  0  0  0  0  0
   22.0901   -3.6791  -15.0831 O   0  0  0  0  0  0  0  0  0  0  0  0
   18.4031   -4.7383  -15.3849 O   0  0  0  0  0  0  0  0  0  0  0  0
  2  1  1  6
  2  3  1  0
  3  4  1  0
  4  8  1  0
  5  4  2  0
  6  2  1  0
  6  9  1  0
  7  6  2  0
 10  9  1  0
 11 12  1  0
 10 11  1  1
 12 13  1  0
 13 17  1  0
 14 13  2  0
 15 16  2  0
 15 10  1  0
 18 15  1  0
 19 18  1  0
 19 20  1  6
 21 20  1  0
 21 22  2  0
 23 19  1  0
 24 23  1  0
 25 21  1  0
 26 23  2  0
M  END
$$$$
