DED.pdb
     RDKit          3D

 26 25  0  0  1  0  0  0  0  0999 V2000
   22.1313  -10.2151  -17.8691 N   0  0  0  0  0  0  0  0  0  0  0  0
   20.7738  -10.6782  -17.7092 C   0  0  1  0  0  0  0  0  0  0  0  0
   20.8518  -12.1564  -17.4010 C   0  0  0  0  0  0  0  0  0  0  0  0
   21.2977  -12.9795  -18.5296 C   0  0  0  0  0  0  0  0  0  0  0  0
   21.0382  -12.7178  -19.7250 O   0  0  0  0  0  0  0  0  0  0  0  0
   20.0883   -9.9519  -16.6373 C   0  0  0  0  0  0  0  0  0  0  0  0
   19.1755  -10.4270  -15.9235 O   0  0  0  0  0  0  0  0  0  0  0  0
   22.0607  -14.1331  -18.2884 O   0  0  0  0  0  0  0  0  0  0  0  0
   20.4682   -8.5882  -16.3579 N   0  0  0  0  0  0  0  0  0  0  0  0
   19.7997   -7.8540  -15.3033 C   0  0  1  0  0  0  0  0  0  0  0  0
   20.8508   -7.1010  -14.5206 C   0  0  0  0  0  0  0  0  0  0  0  0
   21.4297   -6.0257  -15.3717 C   0  0  0  0  0  0  0  0  0  0  0  0
   22.3938   -5.1653  -14.6474 C   0  0  0  0  0  0  0  0  0  0  0  0
   22.6778   -5.3228  -13.4420 O   0  0  0  0  0  0  0  0  0  0  0  0
   18.8556   -6.9068  -15.9611 C   0  0  0  0  0  0  0  0  0  0  0  0
   19.0446   -6.4991  -17.1354 O   0  0  0  0  0  0  0  0  0  0  0  0
   23.0044   -4.1411  -15.3450 O   0  0  0  0  0  0  0  0  0  0  0  0
   17.6940   -6.4312  -15.2623 N   0  0  0  0  0  0  0  0  0  0  0  0
   16.8012   -5.5131  -15.9394 C   0  0  1  0  0  0  0  0  0  0  0  0
   15.3733   -6.0010  -15.9029 C   0  0  0  0  0  0  0  0  0  0  0  0
   14.4426   -5.0819  -16.5702 C   0  0  0  0  0  0  0  0  0  0  0  0
   14.6903   -4.4384  -17.6210 O   0  0  0  0  0  0  0  0  0  0  0  0
   16.9481   -4.1505  -15.3915 C   0  0  0  0  0  0  0  0  0  0  0  0
   17.0955   -3.0463  -16.2190 O   0  0  0  0  0  0  0  0  0  0  0  0
   13.1826   -4.8978  -16.0074 O   0  0  0  0  0  0  0  0  0  0  0  0
   16.9385   -3.9939  -14.1510 O   0  0  0  0  0  0  0  0  0  0  0  0
  2  1  1  1
  2  3  1  0
  3  4  1  0
  4  8  1  0
  5  4  2  0
  6  2  1  0
  6  9  1  0
  7  6  2  0
 10  9  1  0
 11 12  1  0
 10 11  1  6
 12 13  1  0
 13 17  1  0
 14 13  2  0
 15 16  2  0
 15 10  1  0
 18 15  1  0
 19 18  1  0
 19 20  1  1
 21 20  1  0
 21 22  2  0
 23 19  1  0
 24 23  1  0
 25 21  1  0
 26 23  2  0
M  END
$$$$
