DED.pdb
     RDKit          3D

 26 25  0  0  1  0  0  0  0  0999 V2000
   17.3612  -12.1092  -14.9017 N   0  0  0  0  0  0  0  0  0  0  0  0
   18.3988  -11.7313  -15.8309 C   0  0  1  0  0  0  0  0  0  0  0  0
   18.2509  -12.6303  -17.0375 C   0  0  0  0  0  0  0  0  0  0  0  0
   18.4050  -14.0581  -16.7416 C   0  0  0  0  0  0  0  0  0  0  0  0
   19.2804  -14.7844  -17.2621 O   0  0  0  0  0  0  0  0  0  0  0  0
   18.2849  -10.3201  -16.2079 C   0  0  0  0  0  0  0  0  0  0  0  0
   18.9127   -9.7793  -17.1471 O   0  0  0  0  0  0  0  0  0  0  0  0
   17.5369  -14.6748  -15.8268 O   0  0  0  0  0  0  0  0  0  0  0  0
   17.3937   -9.4636  -15.4635 N   0  0  0  0  0  0  0  0  0  0  0  0
   17.2285   -8.0788  -15.8551 C   0  0  1  0  0  0  0  0  0  0  0  0
   15.8478   -7.6352  -15.4290 C   0  0  0  0  0  0  0  0  0  0  0  0
   14.8293   -8.2518  -16.3226 C   0  0  0  0  0  0  0  0  0  0  0  0
   13.4389   -7.9052  -15.9471 C   0  0  0  0  0  0  0  0  0  0  0  0
   12.9011   -6.8193  -16.2475 O   0  0  0  0  0  0  0  0  0  0  0  0
   18.2758   -7.2949  -15.1412 C   0  0  0  0  0  0  0  0  0  0  0  0
   18.5743   -7.5342  -13.9434 O   0  0  0  0  0  0  0  0  0  0  0  0
   12.7077   -8.8321  -15.2299 O   0  0  0  0  0  0  0  0  0  0  0  0
   18.9775   -6.2352  -15.8108 N   0  0  0  0  0  0  0  0  0  0  0  0
   19.9474   -5.4610  -15.0636 C   0  0  1  0  0  0  0  0  0  0  0  0
   21.3066   -6.1173  -15.0744 C   0  0  0  0  0  0  0  0  0  0  0  0
   22.3257   -5.3225  -14.3771 C   0  0  0  0  0  0  0  0  0  0  0  0
   22.0950   -4.3048  -13.6767 O   0  0  0  0  0  0  0  0  0  0  0  0
   19.9866   -4.0695  -15.5541 C   0  0  0  0  0  0  0  0  0  0  0  0
   20.1031   -2.9949  -14.6838 O   0  0  0  0  0  0  0  0  0  0  0  0
   23.6569   -5.7141  -14.4905 O   0  0  0  0  0  0  0  0  0  0  0  0
   19.9129   -3.8604  -16.7847 O   0  0  0  0  0  0  0  0  0  0  0  0
  2  1  1  1
  2  3  1  0
  3  4  1  0
  4  8  1  0
  5  4  2  0
  6  2  1  0
  6  9  1  0
  7  6  2  0
 10  9  1  0
 11 12  1  0
 10 11  1  1
 12 13  1  0
 13 17  1  0
 14 13  2  0
 15 16  2  0
 15 10  1  0
 18 15  1  0
 19 18  1  0
 19 20  1  6
 21 20  1  0
 21 22  2  0
 23 19  1  0
 24 23  1  0
 25 21  1  0
 26 23  2  0
M  END
$$$$
