EEQ.pdb
     RDKit          3D

 28 27  0  0  1  0  0  0  0  0999 V2000
   23.4435  -17.5466  -20.0531 N   0  0  0  0  0  0  0  0  0  0  0  0
   23.4845  -17.1890  -18.6819 C   0  0  1  0  0  0  0  0  0  0  0  0
   22.4371  -16.2211  -18.2383 C   0  0  0  0  0  0  0  0  0  0  0  0
   22.7754  -14.7953  -18.5011 C   0  0  0  0  0  0  0  0  0  0  0  0
   22.8876  -13.9650  -17.2977 C   0  0  0  0  0  0  0  0  0  0  0  0
   22.0129  -13.9701  -16.4085 O   0  0  0  0  0  0  0  0  0  0  0  0
   23.2935  -18.4569  -17.8772 C   0  0  0  0  0  0  0  0  0  0  0  0
   22.3480  -19.2102  -18.1425 O   0  0  0  0  0  0  0  0  0  0  0  0
   23.9738  -13.1181  -17.0675 O   0  0  0  0  0  0  0  0  0  0  0  0
   24.1809  -18.8002  -16.8211 N   0  0  0  0  0  0  0  0  0  0  0  0
   24.0210  -19.9288  -15.9479 C   0  0  1  0  0  0  0  0  0  0  0  0
   25.2973  -20.5642  -15.5398 C   0  0  0  0  0  0  0  0  0  0  0  0
   26.0936  -21.2703  -16.5655 C   0  0  0  0  0  0  0  0  0  0  0  0
   27.3486  -21.8974  -16.1350 C   0  0  0  0  0  0  0  0  0  0  0  0
   28.3420  -21.1937  -15.8514 O   0  0  0  0  0  0  0  0  0  0  0  0
   23.1592  -19.6876  -14.7752 C   0  0  0  0  0  0  0  0  0  0  0  0
   23.5824  -19.0662  -13.7470 O   0  0  0  0  0  0  0  0  0  0  0  0
   27.4789  -23.2703  -16.0288 O   0  0  0  0  0  0  0  0  0  0  0  0
   18.6646  -17.0799  -15.5160 N   0  0  0  0  0  0  0  0  0  0  0  0
   18.3079  -18.4378  -15.6903 C   0  0  0  0  0  0  0  0  0  0  0  0
   17.4548  -18.7142  -16.5713 O   0  0  0  0  0  0  0  0  0  0  0  0
   18.9284  -19.5226  -14.8489 C   0  0  0  0  0  0  0  0  0  0  0  0
   19.9346  -18.8885  -13.8880 C   0  0  0  0  0  0  0  0  0  0  0  0
   20.9959  -19.9348  -13.5068 C   0  0  2  0  0  0  0  0  0  0  0  0
   21.8051  -20.1260  -14.7088 N   0  0  0  0  0  0  0  0  0  0  0  0
   20.2262  -21.1424  -13.1427 C   0  0  0  0  0  0  0  0  0  0  0  0
   19.4797  -21.2061  -11.9824 O   0  0  0  0  0  0  0  0  0  0  0  0
   20.2455  -22.1365  -13.8988 O   0  0  0  0  0  0  0  0  0  0  0  0
  2  1  1  6
  2  7  1  0
  2  3  1  0
  4  3  1  0
  4  5  1  0
  5  6  2  0
  7  8  2  0
  9  5  1  0
 10 11  1  0
 10  7  1  0
 11 12  1  1
 12 13  1  0
 13 14  1  0
 14 15  2  0
 14 18  1  0
 16 11  1  0
 17 16  2  0
 20 22  1  0
 20 19  1  0
 21 20  2  0
 23 22  1  0
 24 23  1  6
 24 25  1  0
 25 16  1  0
 26 24  1  0
 27 26  1  0
 28 26  2  0
M  END
$$$$
