EEQ.pdb
     RDKit          3D

 28 27  0  0  1  0  0  0  0  0999 V2000
   20.5054  -12.0107  -15.3870 N   0  0  0  0  0  0  0  0  0  0  0  0
   20.8919  -11.4082  -16.6106 C   0  0  1  0  0  0  0  0  0  0  0  0
   20.3127  -12.0239  -17.8418 C   0  0  0  0  0  0  0  0  0  0  0  0
   19.5089  -13.2512  -17.5882 C   0  0  0  0  0  0  0  0  0  0  0  0
   18.8985  -13.8367  -18.7860 C   0  0  0  0  0  0  0  0  0  0  0  0
   17.6699  -14.0339  -18.8714 O   0  0  0  0  0  0  0  0  0  0  0  0
   20.4318   -9.9664  -16.5709 C   0  0  0  0  0  0  0  0  0  0  0  0
   20.7801   -9.1908  -17.4703 O   0  0  0  0  0  0  0  0  0  0  0  0
   19.6465  -14.2108  -19.9043 O   0  0  0  0  0  0  0  0  0  0  0  0
   19.6055   -9.4853  -15.5191 N   0  0  0  0  0  0  0  0  0  0  0  0
   19.1570   -8.1281  -15.3820 C   0  0  1  0  0  0  0  0  0  0  0  0
   17.8162   -7.9931  -14.7630 C   0  0  0  0  0  0  0  0  0  0  0  0
   16.6621   -8.6274  -15.4341 C   0  0  0  0  0  0  0  0  0  0  0  0
   15.3516   -8.5076  -14.7845 C   0  0  0  0  0  0  0  0  0  0  0  0
   14.3258   -8.2930  -15.4658 O   0  0  0  0  0  0  0  0  0  0  0  0
   20.1235   -7.2183  -14.7384 C   0  0  0  0  0  0  0  0  0  0  0  0
   21.1756   -7.6517  -14.1657 O   0  0  0  0  0  0  0  0  0  0  0  0
   15.2033   -8.6249  -13.4143 O   0  0  0  0  0  0  0  0  0  0  0  0
   23.9441   -5.2967  -17.5883 N   0  0  0  0  0  0  0  0  0  0  0  0
   24.2470   -4.4247  -16.5162 C   0  0  0  0  0  0  0  0  0  0  0  0
   25.3669   -3.8535  -16.5201 O   0  0  0  0  0  0  0  0  0  0  0  0
   23.2615   -4.1845  -15.4023 C   0  0  0  0  0  0  0  0  0  0  0  0
   22.0545   -5.1012  -15.6037 C   0  0  0  0  0  0  0  0  0  0  0  0
   21.0706   -4.9026  -14.4379 C   0  0  2  0  0  0  0  0  0  0  0  0
   19.9532   -5.8039  -14.7122 N   0  0  0  0  0  0  0  0  0  0  0  0
   20.6814   -3.4788  -14.5069 C   0  0  0  0  0  0  0  0  0  0  0  0
   19.6283   -3.0504  -15.2910 O   0  0  0  0  0  0  0  0  0  0  0  0
   21.3164   -2.6337  -13.8415 O   0  0  0  0  0  0  0  0  0  0  0  0
  2  1  1  1
  2  7  1  0
  2  3  1  0
  4  3  1  0
  4  5  1  0
  5  6  2  0
  7  8  2  0
  9  5  1  0
 10 11  1  0
 10  7  1  0
 11 12  1  1
 12 13  1  0
 13 14  1  0
 14 15  2  0
 14 18  1  0
 16 11  1  0
 17 16  2  0
 20 22  1  0
 20 19  1  0
 21 20  2  0
 23 22  1  0
 24 23  1  6
 24 25  1  0
 25 16  1  0
 26 24  1  0
 27 26  1  0
 28 26  2  0
M  END
$$$$
