EEQ.pdb
     RDKit          3D

 28 27  0  0  1  0  0  0  0  0999 V2000
   14.3010  -10.2997  -14.1276 N   0  0  0  0  0  0  0  0  0  0  0  0
   15.4720  -10.8764  -14.6809 C   0  0  1  0  0  0  0  0  0  0  0  0
   15.2531  -11.7805  -15.8493 C   0  0  0  0  0  0  0  0  0  0  0  0
   13.9927  -12.5700  -15.7804 C   0  0  0  0  0  0  0  0  0  0  0  0
   14.1713  -14.0162  -15.9430 C   0  0  0  0  0  0  0  0  0  0  0  0
   14.5624  -14.7422  -15.0072 O   0  0  0  0  0  0  0  0  0  0  0  0
   16.3571   -9.7418  -15.1511 C   0  0  0  0  0  0  0  0  0  0  0  0
   17.1303   -9.9255  -16.1000 O   0  0  0  0  0  0  0  0  0  0  0  0
   13.9174  -14.6741  -17.1484 O   0  0  0  0  0  0  0  0  0  0  0  0
   16.3171   -8.4672  -14.5233 N   0  0  0  0  0  0  0  0  0  0  0  0
   17.1543   -7.3536  -14.8710 C   0  0  1  0  0  0  0  0  0  0  0  0
   16.4767   -6.0372  -14.7872 C   0  0  0  0  0  0  0  0  0  0  0  0
   17.2166   -4.8338  -15.2221 C   0  0  0  0  0  0  0  0  0  0  0  0
   16.5131   -3.5473  -15.1600 C   0  0  0  0  0  0  0  0  0  0  0  0
   15.3165   -3.4980  -14.8020 O   0  0  0  0  0  0  0  0  0  0  0  0
   18.4556   -7.3163  -14.1771 C   0  0  0  0  0  0  0  0  0  0  0  0
   18.5435   -7.4027  -12.9092 O   0  0  0  0  0  0  0  0  0  0  0  0
   17.1372   -2.3582  -15.4911 O   0  0  0  0  0  0  0  0  0  0  0  0
   23.4291  -10.0917  -16.3062 N   0  0  0  0  0  0  0  0  0  0  0  0
   23.8857   -9.6313  -15.0487 C   0  0  0  0  0  0  0  0  0  0  0  0
   24.9709  -10.0913  -14.6117 O   0  0  0  0  0  0  0  0  0  0  0  0
   23.0995   -8.6210  -14.2544 C   0  0  0  0  0  0  0  0  0  0  0  0
   21.7830   -8.3384  -14.9788 C   0  0  0  0  0  0  0  0  0  0  0  0
   20.9754   -7.3068  -14.1727 C   0  0  2  0  0  0  0  0  0  0  0  0
   19.6951   -7.1842  -14.8671 N   0  0  0  0  0  0  0  0  0  0  0  0
   21.7751   -6.0658  -14.2335 C   0  0  0  0  0  0  0  0  0  0  0  0
   22.6670   -5.7262  -13.2351 O   0  0  0  0  0  0  0  0  0  0  0  0
   21.6475   -5.2978  -15.2103 O   0  0  0  0  0  0  0  0  0  0  0  0
  2  1  1  6
  2  7  1  0
  2  3  1  0
  4  3  1  0
  4  5  1  0
  5  6  2  0
  7  8  2  0
  9  5  1  0
 10 11  1  0
 10  7  1  0
 11 12  1  1
 12 13  1  0
 13 14  1  0
 14 15  2  0
 14 18  1  0
 16 11  1  0
 17 16  2  0
 20 22  1  0
 20 19  1  0
 21 20  2  0
 23 22  1  0
 24 23  1  6
 24 25  1  0
 25 16  1  0
 26 24  1  0
 27 26  1  0
 28 26  2  0
M  END
$$$$
