EEQ.pdb
     RDKit          3D

 28 27  0  0  1  0  0  0  0  0999 V2000
   13.7643  -10.6837  -14.4747 N   0  0  0  0  0  0  0  0  0  0  0  0
   15.0933  -10.9127  -14.0376 C   0  0  1  0  0  0  0  0  0  0  0  0
   15.9671  -11.6526  -14.9965 C   0  0  0  0  0  0  0  0  0  0  0  0
   15.6244  -13.0939  -15.1447 C   0  0  0  0  0  0  0  0  0  0  0  0
   16.1701  -13.9599  -14.0949 C   0  0  0  0  0  0  0  0  0  0  0  0
   17.3570  -13.8759  -13.7208 O   0  0  0  0  0  0  0  0  0  0  0  0
   15.7315   -9.5606  -13.8006 C   0  0  0  0  0  0  0  0  0  0  0  0
   15.6535   -8.6884  -14.6753 O   0  0  0  0  0  0  0  0  0  0  0  0
   15.4031  -14.9308  -13.4474 O   0  0  0  0  0  0  0  0  0  0  0  0
   16.4195   -9.2723  -12.5906 N   0  0  0  0  0  0  0  0  0  0  0  0
   17.0468   -8.0183  -12.2810 C   0  0  1  0  0  0  0  0  0  0  0  0
   16.7550   -7.5159  -10.9165 C   0  0  0  0  0  0  0  0  0  0  0  0
   17.3045   -6.2038  -10.5153 C   0  0  0  0  0  0  0  0  0  0  0  0
   17.0890   -5.7751   -9.1283 C   0  0  0  0  0  0  0  0  0  0  0  0
   16.5250   -6.5354   -8.3122 O   0  0  0  0  0  0  0  0  0  0  0  0
   18.4946   -7.9645  -12.5588 C   0  0  0  0  0  0  0  0  0  0  0  0
   19.2969   -8.8494  -12.1165 O   0  0  0  0  0  0  0  0  0  0  0  0
   17.4947   -4.5318   -8.6780 O   0  0  0  0  0  0  0  0  0  0  0  0
   20.9119   -6.5575  -17.9172 N   0  0  0  0  0  0  0  0  0  0  0  0
   22.0882   -6.5040  -17.1330 C   0  0  0  0  0  0  0  0  0  0  0  0
   23.1833   -6.3289  -17.7251 O   0  0  0  0  0  0  0  0  0  0  0  0
   22.0354   -6.6513  -15.6346 C   0  0  0  0  0  0  0  0  0  0  0  0
   20.5760   -6.7987  -15.2033 C   0  0  0  0  0  0  0  0  0  0  0  0
   20.5154   -6.9535  -13.6740 C   0  0  2  0  0  0  0  0  0  0  0  0
   19.0939   -6.9309  -13.3352 N   0  0  0  0  0  0  0  0  0  0  0  0
   21.2439   -5.7824  -13.1438 C   0  0  0  0  0  0  0  0  0  0  0  0
   22.6074   -5.8123  -12.9254 O   0  0  0  0  0  0  0  0  0  0  0  0
   20.6178   -4.7333  -12.8838 O   0  0  0  0  0  0  0  0  0  0  0  0
  2  1  1  6
  2  7  1  0
  2  3  1  0
  4  3  1  0
  4  5  1  0
  5  6  2  0
  7  8  2  0
  9  5  1  0
 10 11  1  0
 10  7  1  0
 11 12  1  1
 12 13  1  0
 13 14  1  0
 14 15  2  0
 14 18  1  0
 16 11  1  0
 17 16  2  0
 20 22  1  0
 20 19  1  0
 21 20  2  0
 23 22  1  0
 24 23  1  6
 24 25  1  0
 25 16  1  0
 26 24  1  0
 27 26  1  0
 28 26  2  0
M  END
$$$$
