EEQ.pdb
     RDKit          3D

 28 27  0  0  1  0  0  0  0  0999 V2000
   25.3751  -20.3770  -18.8296 N   0  0  0  0  0  0  0  0  0  0  0  0
   26.0650  -19.6456  -17.8301 C   0  0  1  0  0  0  0  0  0  0  0  0
   26.9762  -18.5738  -18.3313 C   0  0  0  0  0  0  0  0  0  0  0  0
   26.3419  -17.6404  -19.3024 C   0  0  0  0  0  0  0  0  0  0  0  0
   27.2469  -16.6252  -19.8503 C   0  0  0  0  0  0  0  0  0  0  0  0
   27.0482  -16.0946  -20.9615 O   0  0  0  0  0  0  0  0  0  0  0  0
   25.0237  -18.9775  -16.9576 C   0  0  0  0  0  0  0  0  0  0  0  0
   25.3799  -18.3759  -15.9362 O   0  0  0  0  0  0  0  0  0  0  0  0
   28.3849  -16.1869  -19.1699 O   0  0  0  0  0  0  0  0  0  0  0  0
   23.6425  -19.0272  -17.2894 N   0  0  0  0  0  0  0  0  0  0  0  0
   22.5849  -18.4785  -16.4880 C   0  0  1  0  0  0  0  0  0  0  0  0
   21.6510  -17.6020  -17.2355 C   0  0  0  0  0  0  0  0  0  0  0  0
   21.9764  -16.1653  -17.3571 C   0  0  0  0  0  0  0  0  0  0  0  0
   21.0465  -15.3226  -18.1180 C   0  0  0  0  0  0  0  0  0  0  0  0
   21.2748  -14.1025  -18.2647 O   0  0  0  0  0  0  0  0  0  0  0  0
   21.8422  -19.4660  -15.6819 C   0  0  0  0  0  0  0  0  0  0  0  0
   21.4265  -20.5626  -16.1789 O   0  0  0  0  0  0  0  0  0  0  0  0
   19.8988  -15.8380  -18.6927 O   0  0  0  0  0  0  0  0  0  0  0  0
   21.6838  -19.6797   -9.3802 N   0  0  0  0  0  0  0  0  0  0  0  0
   20.7627  -20.6962   -9.7265 C   0  0  0  0  0  0  0  0  0  0  0  0
   20.2693  -21.3851   -8.7979 O   0  0  0  0  0  0  0  0  0  0  0  0
   20.3815  -20.9491  -11.1620 C   0  0  0  0  0  0  0  0  0  0  0  0
   21.1529  -19.9784  -12.0567 C   0  0  0  0  0  0  0  0  0  0  0  0
   20.8084  -20.2668  -13.5280 C   0  0  2  0  0  0  0  0  0  0  0  0
   21.5407  -19.2676  -14.3036 N   0  0  0  0  0  0  0  0  0  0  0  0
   19.3438  -20.0927  -13.6170 C   0  0  0  0  0  0  0  0  0  0  0  0
   18.7772  -18.9045  -14.0349 O   0  0  0  0  0  0  0  0  0  0  0  0
   18.5909  -21.0403  -13.3081 O   0  0  0  0  0  0  0  0  0  0  0  0
  2  1  1  6
  2  7  1  0
  2  3  1  0
  4  3  1  0
  4  5  1  0
  5  6  2  0
  7  8  2  0
  9  5  1  0
 10 11  1  0
 10  7  1  0
 11 12  1  6
 12 13  1  0
 13 14  1  0
 14 15  2  0
 14 18  1  0
 16 11  1  0
 17 16  2  0
 20 22  1  0
 20 19  1  0
 21 20  2  0
 23 22  1  0
 24 23  1  1
 24 25  1  0
 25 16  1  0
 26 24  1  0
 27 26  1  0
 28 26  2  0
M  END
$$$$
