EEQ.pdb
     RDKit          3D

 28 27  0  0  1  0  0  0  0  0999 V2000
   14.7651   -9.9183  -16.6716 N   0  0  0  0  0  0  0  0  0  0  0  0
   15.4042   -9.8195  -15.4101 C   0  0  1  0  0  0  0  0  0  0  0  0
   16.1328  -11.0433  -14.9608 C   0  0  0  0  0  0  0  0  0  0  0  0
   15.2478  -12.2008  -14.6551 C   0  0  0  0  0  0  0  0  0  0  0  0
   15.9443  -13.3735  -14.1170 C   0  0  0  0  0  0  0  0  0  0  0  0
   15.3366  -14.4181  -13.8085 O   0  0  0  0  0  0  0  0  0  0  0  0
   16.4204   -8.7012  -15.5034 C   0  0  0  0  0  0  0  0  0  0  0  0
   17.3401   -8.7811  -16.3279 O   0  0  0  0  0  0  0  0  0  0  0  0
   17.3258  -13.3999  -13.9147 O   0  0  0  0  0  0  0  0  0  0  0  0
   16.3384   -7.5588  -14.6616 N   0  0  0  0  0  0  0  0  0  0  0  0
   17.2693   -6.4655  -14.6675 C   0  0  1  0  0  0  0  0  0  0  0  0
   16.6906   -5.1750  -14.2216 C   0  0  0  0  0  0  0  0  0  0  0  0
   15.5906   -4.5842  -15.0127 C   0  0  0  0  0  0  0  0  0  0  0  0
   14.9372   -3.3856  -14.4739 C   0  0  0  0  0  0  0  0  0  0  0  0
   15.2496   -2.2515  -14.8966 O   0  0  0  0  0  0  0  0  0  0  0  0
   18.5440   -6.7334  -13.9748 C   0  0  0  0  0  0  0  0  0  0  0  0
   18.5809   -7.1238  -12.7629 O   0  0  0  0  0  0  0  0  0  0  0  0
   13.9661   -3.4635  -13.4921 O   0  0  0  0  0  0  0  0  0  0  0  0
   23.4719   -9.1935  -16.6568 N   0  0  0  0  0  0  0  0  0  0  0  0
   23.9252   -9.0612  -15.3231 C   0  0  0  0  0  0  0  0  0  0  0  0
   25.0081   -9.6183  -15.0112 O   0  0  0  0  0  0  0  0  0  0  0  0
   23.1383   -8.2779  -14.3048 C   0  0  0  0  0  0  0  0  0  0  0  0
   21.8405   -7.7913  -14.9502 C   0  0  0  0  0  0  0  0  0  0  0  0
   21.0540   -6.9511  -13.9295 C   0  0  2  0  0  0  0  0  0  0  0  0
   19.8125   -6.5781  -14.6047 N   0  0  0  0  0  0  0  0  0  0  0  0
   21.9190   -5.7867  -13.6481 C   0  0  0  0  0  0  0  0  0  0  0  0
   22.8169   -5.7850  -12.5986 O   0  0  0  0  0  0  0  0  0  0  0  0
   21.8427   -4.7728  -14.3737 O   0  0  0  0  0  0  0  0  0  0  0  0
  2  1  1  6
  2  7  1  0
  2  3  1  0
  4  3  1  0
  4  5  1  0
  5  6  2  0
  7  8  2  0
  9  5  1  0
 10 11  1  0
 10  7  1  0
 11 12  1  1
 12 13  1  0
 13 14  1  0
 14 15  2  0
 14 18  1  0
 16 11  1  0
 17 16  2  0
 20 22  1  0
 20 19  1  0
 21 20  2  0
 23 22  1  0
 24 23  1  6
 24 25  1  0
 25 16  1  0
 26 24  1  0
 27 26  1  0
 28 26  2  0
M  END
$$$$
