EEQ.pdb
     RDKit          3D

 28 27  0  0  1  0  0  0  0  0999 V2000
   15.0715  -11.8668  -15.7360 N   0  0  0  0  0  0  0  0  0  0  0  0
   16.3364  -11.8670  -15.0959 C   0  0  1  0  0  0  0  0  0  0  0  0
   17.0277  -13.1896  -15.0386 C   0  0  0  0  0  0  0  0  0  0  0  0
   16.1315  -14.3555  -15.2711 C   0  0  0  0  0  0  0  0  0  0  0  0
   16.8287  -15.6343  -15.4405 C   0  0  0  0  0  0  0  0  0  0  0  0
   17.0664  -16.3892  -14.4764 O   0  0  0  0  0  0  0  0  0  0  0  0
   17.2348  -10.9242  -15.8676 C   0  0  0  0  0  0  0  0  0  0  0  0
   18.4376  -10.8589  -15.5827 O   0  0  0  0  0  0  0  0  0  0  0  0
   17.2710  -16.0902  -16.6841 O   0  0  0  0  0  0  0  0  0  0  0  0
   16.7234  -10.1112  -16.9155 N   0  0  0  0  0  0  0  0  0  0  0  0
   17.4828   -9.1317  -17.6406 C   0  0  1  0  0  0  0  0  0  0  0  0
   16.8017   -8.6122  -18.8512 C   0  0  0  0  0  0  0  0  0  0  0  0
   17.5585   -7.7272  -19.7615 C   0  0  0  0  0  0  0  0  0  0  0  0
   16.8538   -7.2035  -20.9374 C   0  0  0  0  0  0  0  0  0  0  0  0
   16.5062   -6.0038  -20.9836 O   0  0  0  0  0  0  0  0  0  0  0  0
   18.0079   -8.0235  -16.8206 C   0  0  0  0  0  0  0  0  0  0  0  0
   17.2878   -7.4291  -15.9542 O   0  0  0  0  0  0  0  0  0  0  0  0
   16.5509   -8.0053  -22.0231 O   0  0  0  0  0  0  0  0  0  0  0  0
   22.5415   -8.1670  -13.2090 N   0  0  0  0  0  0  0  0  0  0  0  0
   22.3049   -6.7728  -13.1650 C   0  0  0  0  0  0  0  0  0  0  0  0
   22.8077   -6.1199  -12.2157 O   0  0  0  0  0  0  0  0  0  0  0  0
   21.4772   -6.0872  -14.2208 C   0  0  0  0  0  0  0  0  0  0  0  0
   20.8526   -7.1492  -15.1263 C   0  0  0  0  0  0  0  0  0  0  0  0
   19.8511   -6.4737  -16.0788 C   0  0  2  0  0  0  0  0  0  0  0  0
   19.3446   -7.5439  -16.9357 N   0  0  0  0  0  0  0  0  0  0  0  0
   20.6480   -5.4781  -16.8251 C   0  0  0  0  0  0  0  0  0  0  0  0
   20.9561   -5.6473  -18.1608 O   0  0  0  0  0  0  0  0  0  0  0  0
   21.0576   -4.4532  -16.2403 O   0  0  0  0  0  0  0  0  0  0  0  0
  2  1  1  6
  2  7  1  0
  2  3  1  0
  4  3  1  0
  4  5  1  0
  5  6  2  0
  7  8  2  0
  9  5  1  0
 10 11  1  0
 10  7  1  0
 11 12  1  6
 12 13  1  0
 13 14  1  0
 14 15  2  0
 14 18  1  0
 16 11  1  0
 17 16  2  0
 20 22  1  0
 20 19  1  0
 21 20  2  0
 23 22  1  0
 24 23  1  1
 24 25  1  0
 25 16  1  0
 26 24  1  0
 27 26  1  0
 28 26  2  0
M  END
$$$$
