EEQ.pdb
     RDKit          3D

 28 27  0  0  1  0  0  0  0  0999 V2000
   27.5376  -21.0969  -17.4682 N   0  0  0  0  0  0  0  0  0  0  0  0
   28.1082  -20.0709  -16.6735 C   0  0  1  0  0  0  0  0  0  0  0  0
   28.3999  -18.7918  -17.3872 C   0  0  0  0  0  0  0  0  0  0  0  0
   28.0691  -18.8155  -18.8387 C   0  0  0  0  0  0  0  0  0  0  0  0
   29.1851  -19.1952  -19.7107 C   0  0  0  0  0  0  0  0  0  0  0  0
   29.3493  -20.3690  -20.0992 O   0  0  0  0  0  0  0  0  0  0  0  0
   27.1238  -19.7535  -15.5681 C   0  0  0  0  0  0  0  0  0  0  0  0
   27.4133  -18.8982  -14.7216 O   0  0  0  0  0  0  0  0  0  0  0  0
   30.1332  -18.2746  -20.1620 O   0  0  0  0  0  0  0  0  0  0  0  0
   25.8708  -20.4194  -15.4835 N   0  0  0  0  0  0  0  0  0  0  0  0
   24.8510  -20.1309  -14.5147 C   0  0  1  0  0  0  0  0  0  0  0  0
   23.4680  -20.2983  -15.0232 C   0  0  0  0  0  0  0  0  0  0  0  0
   22.3414  -20.0413  -14.1016 C   0  0  0  0  0  0  0  0  0  0  0  0
   20.9831  -20.2357  -14.6220 C   0  0  0  0  0  0  0  0  0  0  0  0
   20.5342  -21.3883  -14.8022 O   0  0  0  0  0  0  0  0  0  0  0  0
   25.0170  -20.8146  -13.2180 C   0  0  0  0  0  0  0  0  0  0  0  0
   25.1107  -22.0821  -13.1341 O   0  0  0  0  0  0  0  0  0  0  0  0
   20.1601  -19.1674  -14.9294 O   0  0  0  0  0  0  0  0  0  0  0  0
   26.9271  -19.7524   -6.1054 N   0  0  0  0  0  0  0  0  0  0  0  0
   26.8891  -19.5468   -7.5046 C   0  0  0  0  0  0  0  0  0  0  0  0
   27.4670  -18.5303   -7.9664 O   0  0  0  0  0  0  0  0  0  0  0  0
   26.1799  -20.5132   -8.4172 C   0  0  0  0  0  0  0  0  0  0  0  0
   25.9796  -19.8500   -9.7802 C   0  0  0  0  0  0  0  0  0  0  0  0
   25.2266  -20.8199  -10.7070 C   0  0  2  0  0  0  0  0  0  0  0  0
   25.0858  -20.1143  -11.9791 N   0  0  0  0  0  0  0  0  0  0  0  0
   23.9287  -21.0527  -10.0403 C   0  0  0  0  0  0  0  0  0  0  0  0
   23.8043  -21.9237   -8.9756 O   0  0  0  0  0  0  0  0  0  0  0  0
   22.9119  -20.4498  -10.4438 O   0  0  0  0  0  0  0  0  0  0  0  0
  2  1  1  6
  2  7  1  0
  2  3  1  0
  4  3  1  0
  4  5  1  0
  5  6  2  0
  7  8  2  0
  9  5  1  0
 10 11  1  0
 10  7  1  0
 11 12  1  6
 12 13  1  0
 13 14  1  0
 14 15  2  0
 14 18  1  0
 16 11  1  0
 17 16  2  0
 20 22  1  0
 20 19  1  0
 21 20  2  0
 23 22  1  0
 24 23  1  1
 24 25  1  0
 25 16  1  0
 26 24  1  0
 27 26  1  0
 28 26  2  0
M  END
$$$$
