CAS.pdb
     RDKit          3D

 18 17  0  0  1  0  0  0  0  0999 V2000
    5.9957  -14.5336   26.6950 N   0  0  0  0  0  0  0  0  0  0  0  0
    6.4373  -13.7545   25.5632 C   0  0  1  0  0  0  0  0  0  0  0  0
    7.5783  -12.8357   25.9277 C   0  0  0  0  0  0  0  0  0  0  0  0
    7.0081  -11.7545   27.2737 S   0  0  0  0  0  0  0  0  0  0  0  0
    6.7491  -14.6164   24.4008 C   0  0  0  0  0  0  0  0  0  0  0  0
    5.7908  -15.1613   23.7948 O   0  0  0  0  0  0  0  0  0  0  0  0
    8.1461  -13.8316   21.7761 C   0  0  0  0  0  0  0  0  0  0  0  0
    8.3741  -15.1458   22.5342 C   0  0  2  0  0  0  0  0  0  0  0  0
    8.0466  -14.8768   23.9153 N   0  0  0  0  0  0  0  0  0  0  0  0
    9.8207  -15.4708   22.3587 C   0  0  0  0  0  0  0  0  0  0  0  0
   10.3086  -15.5463   21.2028 O   0  0  0  0  0  0  0  0  0  0  0  0
   11.9632  -16.7891   25.5924 O   0  0  0  0  0  0  0  0  0  0  0  0
   12.7798  -16.1481   24.6622 C   0  0  0  0  0  0  0  0  0  0  0  0
   12.0786  -16.0658   23.3279 C   0  0  2  0  0  0  0  0  0  0  0  0
   10.6852  -15.7027   23.4613 N   0  0  0  0  0  0  0  0  0  0  0  0
   12.1421  -17.4158   22.7060 C   0  0  0  0  0  0  0  0  0  0  0  0
   11.0996  -18.1049   22.5011 O   0  0  0  0  0  0  0  0  0  0  0  0
   13.3444  -18.0054   22.3115 O   0  0  0  0  0  0  0  0  0  0  0  0
  2  1  1  1
  2  3  1  0
  4  3  1  0
  5  2  1  0
  6  5  2  0
  8  7  1  6
  8  9  1  0
  9  5  1  0
 10  8  1  0
 10 15  1  0
 11 10  2  0
 13 12  1  0
 14 13  1  1
 14 15  1  0
 14 16  1  0
 16 18  1  0
 17 16  2  0
M  END
$$$$
