CAS.pdb
     RDKit          3D

 18 17  0  0  1  0  0  0  0  0999 V2000
    7.9363  -15.4391   15.6866 N   0  0  0  0  0  0  0  0  0  0  0  0
    9.0180  -15.1858   16.6080 C   0  0  1  0  0  0  0  0  0  0  0  0
    9.3337  -13.7130   16.7086 C   0  0  0  0  0  0  0  0  0  0  0  0
    7.8987  -12.8912   17.4643 S   0  0  0  0  0  0  0  0  0  0  0  0
    8.7613  -15.8047   17.9280 C   0  0  0  0  0  0  0  0  0  0  0  0
    7.5652  -15.9770   18.2777 O   0  0  0  0  0  0  0  0  0  0  0  0
   10.4844  -18.0526   20.1715 C   0  0  0  0  0  0  0  0  0  0  0  0
    9.5115  -16.8686   20.0984 C   0  0  2  0  0  0  0  0  0  0  0  0
    9.7603  -16.2198   18.8318 N   0  0  0  0  0  0  0  0  0  0  0  0
    9.8570  -15.9866   21.2524 C   0  0  0  0  0  0  0  0  0  0  0  0
   10.9235  -15.3217   21.2335 O   0  0  0  0  0  0  0  0  0  0  0  0
    6.9932  -15.0532   24.1005 O   0  0  0  0  0  0  0  0  0  0  0  0
    8.0805  -14.1976   23.9318 C   0  0  0  0  0  0  0  0  0  0  0  0
    9.2962  -14.9837   23.5043 C   0  0  2  0  0  0  0  0  0  0  0  0
    9.0176  -15.8639   22.3913 N   0  0  0  0  0  0  0  0  0  0  0  0
    9.7133  -15.8241   24.6589 C   0  0  0  0  0  0  0  0  0  0  0  0
    9.6014  -17.0854   24.6400 O   0  0  0  0  0  0  0  0  0  0  0  0
   10.2504  -15.2817   25.8277 O   0  0  0  0  0  0  0  0  0  0  0  0
  2  1  1  6
  2  3  1  0
  4  3  1  0
  5  2  1  0
  6  5  2  0
  8  7  1  6
  8  9  1  0
  9  5  1  0
 10  8  1  0
 10 15  1  0
 11 10  2  0
 13 12  1  0
 14 13  1  1
 14 15  1  0
 14 16  1  0
 16 18  1  0
 17 16  2  0
M  END
$$$$
