CAS.pdb
     RDKit          3D

 18 17  0  0  1  0  0  0  0  0999 V2000
    3.2744  -21.3066   21.3273 N   0  0  0  0  0  0  0  0  0  0  0  0
    3.9056  -20.1624   21.9400 C   0  0  1  0  0  0  0  0  0  0  0  0
    2.9820  -19.4670   22.9107 C   0  0  0  0  0  0  0  0  0  0  0  0
    1.3652  -19.2835   22.0992 S   0  0  0  0  0  0  0  0  0  0  0  0
    5.2057  -20.5227   22.5495 C   0  0  0  0  0  0  0  0  0  0  0  0
    5.2388  -21.5059   23.3336 O   0  0  0  0  0  0  0  0  0  0  0  0
    8.7489  -19.3562   22.1947 C   0  0  0  0  0  0  0  0  0  0  0  0
    7.6853  -20.1850   22.9267 C   0  0  2  0  0  0  0  0  0  0  0  0
    6.4199  -19.8450   22.3184 N   0  0  0  0  0  0  0  0  0  0  0  0
    7.7484  -19.7567   24.3556 C   0  0  0  0  0  0  0  0  0  0  0  0
    7.1925  -18.6873   24.7126 O   0  0  0  0  0  0  0  0  0  0  0  0
    6.2987  -20.6400   27.4411 O   0  0  0  0  0  0  0  0  0  0  0  0
    7.6387  -20.9746   27.6291 C   0  0  0  0  0  0  0  0  0  0  0  0
    8.5136  -20.1283   26.7363 C   0  0  2  0  0  0  0  0  0  0  0  0
    8.4213  -20.5188   25.3470 N   0  0  0  0  0  0  0  0  0  0  0  0
    9.9216  -20.3250   27.1743 C   0  0  0  0  0  0  0  0  0  0  0  0
   10.8058  -20.7810   26.3908 O   0  0  0  0  0  0  0  0  0  0  0  0
   10.3558  -20.0224   28.4661 O   0  0  0  0  0  0  0  0  0  0  0  0
  2  1  1  1
  2  3  1  0
  4  3  1  0
  5  2  1  0
  6  5  2  0
  8  7  1  6
  8  9  1  0
  9  5  1  0
 10  8  1  0
 10 15  1  0
 11 10  2  0
 13 12  1  0
 14 13  1  1
 14 15  1  0
 14 16  1  0
 16 18  1  0
 17 16  2  0
M  END
$$$$
