CAS.pdb
     RDKit          3D

 18 17  0  0  1  0  0  0  0  0999 V2000
    7.0876  -13.5575   19.8591 N   0  0  0  0  0  0  0  0  0  0  0  0
    8.0552  -14.3235   19.1106 C   0  0  1  0  0  0  0  0  0  0  0  0
    9.0296  -13.4320   18.3792 C   0  0  0  0  0  0  0  0  0  0  0  0
    8.1379  -12.6564   16.9975 S   0  0  0  0  0  0  0  0  0  0  0  0
    8.7311  -15.3255   19.9653 C   0  0  0  0  0  0  0  0  0  0  0  0
    8.9882  -15.0102   21.1557 O   0  0  0  0  0  0  0  0  0  0  0  0
    9.5115  -18.9624   19.6703 C   0  0  0  0  0  0  0  0  0  0  0  0
    9.6901  -17.6263   20.4031 C   0  0  2  0  0  0  0  0  0  0  0  0
    9.1127  -16.6163   19.5466 N   0  0  0  0  0  0  0  0  0  0  0  0
   11.1633  -17.4440   20.5630 C   0  0  0  0  0  0  0  0  0  0  0  0
   11.8368  -18.3082   21.1791 O   0  0  0  0  0  0  0  0  0  0  0  0
   13.1701  -14.0251   19.0370 O   0  0  0  0  0  0  0  0  0  0  0  0
   13.7627  -15.2796   18.9028 C   0  0  0  0  0  0  0  0  0  0  0  0
   13.2899  -16.1958   20.0055 C   0  0  2  0  0  0  0  0  0  0  0  0
   11.8492  -16.3160   20.0398 N   0  0  0  0  0  0  0  0  0  0  0  0
   13.7306  -15.6044   21.2974 C   0  0  0  0  0  0  0  0  0  0  0  0
   14.9526  -15.3860   21.5480 O   0  0  0  0  0  0  0  0  0  0  0  0
   12.8337  -15.2547   22.3084 O   0  0  0  0  0  0  0  0  0  0  0  0
  2  1  1  1
  2  3  1  0
  4  3  1  0
  5  2  1  0
  6  5  2  0
  8  7  1  6
  8  9  1  0
  9  5  1  0
 10  8  1  0
 10 15  1  0
 11 10  2  0
 13 12  1  0
 14 13  1  6
 14 15  1  0
 14 16  1  0
 16 18  1  0
 17 16  2  0
M  END
$$$$
