CAS.pdb
     RDKit          3D

 18 17  0  0  1  0  0  0  0  0999 V2000
    8.2652  -17.2880   16.4528 N   0  0  0  0  0  0  0  0  0  0  0  0
    7.3681  -17.0080   17.5482 C   0  0  1  0  0  0  0  0  0  0  0  0
    6.7196  -18.2651   18.0755 C   0  0  0  0  0  0  0  0  0  0  0  0
    5.5736  -17.7806   19.4013 S   0  0  0  0  0  0  0  0  0  0  0  0
    8.0382  -16.2242   18.6103 C   0  0  0  0  0  0  0  0  0  0  0  0
    9.0701  -16.7095   19.1415 O   0  0  0  0  0  0  0  0  0  0  0  0
    7.3982  -12.9546   20.3380 C   0  0  0  0  0  0  0  0  0  0  0  0
    8.2824  -14.1828   20.0862 C   0  0  2  0  0  0  0  0  0  0  0  0
    7.6072  -14.9660   19.0773 N   0  0  0  0  0  0  0  0  0  0  0  0
    8.3582  -14.9038   21.3915 C   0  0  0  0  0  0  0  0  0  0  0  0
    7.3039  -15.1591   22.0266 O   0  0  0  0  0  0  0  0  0  0  0  0
   10.4071  -18.0300   22.0434 O   0  0  0  0  0  0  0  0  0  0  0  0
    9.4962  -17.5498   22.9829 C   0  0  0  0  0  0  0  0  0  0  0  0
    9.6993  -16.0685   23.1904 C   0  0  2  0  0  0  0  0  0  0  0  0
    9.5921  -15.3213   21.9570 N   0  0  0  0  0  0  0  0  0  0  0  0
   11.0749  -15.8766   23.7235 C   0  0  0  0  0  0  0  0  0  0  0  0
   11.4250  -16.3426   24.8477 O   0  0  0  0  0  0  0  0  0  0  0  0
   12.0604  -15.1766   23.0252 O   0  0  0  0  0  0  0  0  0  0  0  0
  2  1  1  6
  2  3  1  0
  4  3  1  0
  5  2  1  0
  6  5  2  0
  8  7  1  1
  8  9  1  0
  9  5  1  0
 10  8  1  0
 10 15  1  0
 11 10  2  0
 13 12  1  0
 14 13  1  6
 14 15  1  0
 14 16  1  0
 16 18  1  0
 17 16  2  0
M  END
$$$$
