CAS.pdb
     RDKit          3D

 18 17  0  0  1  0  0  0  0  0999 V2000
    9.8918  -14.0332   17.2359 N   0  0  0  0  0  0  0  0  0  0  0  0
    8.9688  -13.7159   18.2991 C   0  0  1  0  0  0  0  0  0  0  0  0
    7.5733  -13.4762   17.7755 C   0  0  0  0  0  0  0  0  0  0  0  0
    6.5296  -12.9969   19.1850 S   0  0  0  0  0  0  0  0  0  0  0  0
    9.0073  -14.7351   19.3720 C   0  0  0  0  0  0  0  0  0  0  0  0
    8.3190  -14.5321   20.4053 O   0  0  0  0  0  0  0  0  0  0  0  0
   10.6588  -18.0699   19.8495 C   0  0  0  0  0  0  0  0  0  0  0  0
    9.8596  -16.8833   20.4035 C   0  0  2  0  0  0  0  0  0  0  0  0
    9.7610  -15.9254   19.3265 N   0  0  0  0  0  0  0  0  0  0  0  0
   10.6589  -16.3534   21.5477 C   0  0  0  0  0  0  0  0  0  0  0  0
   11.3501  -15.3141   21.3990 O   0  0  0  0  0  0  0  0  0  0  0  0
    8.9519  -15.7844   24.8397 O   0  0  0  0  0  0  0  0  0  0  0  0
   10.1843  -15.2417   24.4795 C   0  0  0  0  0  0  0  0  0  0  0  0
   11.1217  -16.3374   24.0331 C   0  0  2  0  0  0  0  0  0  0  0  0
   10.6725  -16.9839   22.8200 N   0  0  0  0  0  0  0  0  0  0  0  0
   11.1571  -17.3617   25.1113 C   0  0  0  0  0  0  0  0  0  0  0  0
   11.6738  -17.1213   26.2423 O   0  0  0  0  0  0  0  0  0  0  0  0
   10.6279  -18.6432   24.9480 O   0  0  0  0  0  0  0  0  0  0  0  0
  2  1  1  6
  2  3  1  0
  4  3  1  0
  5  2  1  0
  6  5  2  0
  8  7  1  6
  8  9  1  0
  9  5  1  0
 10  8  1  0
 10 15  1  0
 11 10  2  0
 13 12  1  0
 14 13  1  1
 14 15  1  0
 14 16  1  0
 16 18  1  0
 17 16  2  0
M  END
$$$$
