CAS.pdb
     RDKit          3D

 18 17  0  0  1  0  0  0  0  0999 V2000
    4.7817  -18.9835   19.8047 N   0  0  0  0  0  0  0  0  0  0  0  0
    4.5399  -17.6292   20.2412 C   0  0  1  0  0  0  0  0  0  0  0  0
    3.3613  -17.5463   21.1809 C   0  0  0  0  0  0  0  0  0  0  0  0
    3.9571  -17.9501   22.8506 S   0  0  0  0  0  0  0  0  0  0  0  0
    5.7630  -17.0157   20.8061 C   0  0  0  0  0  0  0  0  0  0  0  0
    6.5891  -17.7681   21.3841 O   0  0  0  0  0  0  0  0  0  0  0  0
    7.1515  -13.5408   21.0729 C   0  0  0  0  0  0  0  0  0  0  0  0
    7.3260  -15.0611   21.1825 C   0  0  2  0  0  0  0  0  0  0  0  0
    6.0774  -15.6429   20.7469 N   0  0  0  0  0  0  0  0  0  0  0  0
    7.5946  -15.3367   22.6251 C   0  0  0  0  0  0  0  0  0  0  0  0
    6.7232  -15.0588   23.4873 O   0  0  0  0  0  0  0  0  0  0  0  0
    7.4472  -17.8496   24.5997 O   0  0  0  0  0  0  0  0  0  0  0  0
    8.7853  -17.5749   24.8775 C   0  0  0  0  0  0  0  0  0  0  0  0
    9.1201  -16.1622   24.4643 C   0  0  2  0  0  0  0  0  0  0  0  0
    8.8141  -15.9095   23.0737 N   0  0  0  0  0  0  0  0  0  0  0  0
   10.5843  -15.9772   24.6515 C   0  0  0  0  0  0  0  0  0  0  0  0
   11.3584  -15.7553   23.6741 O   0  0  0  0  0  0  0  0  0  0  0  0
   11.1948  -16.0358   25.9056 O   0  0  0  0  0  0  0  0  0  0  0  0
  2  1  1  1
  2  3  1  0
  4  3  1  0
  5  2  1  0
  6  5  2  0
  8  7  1  1
  8  9  1  0
  9  5  1  0
 10  8  1  0
 10 15  1  0
 11 10  2  0
 13 12  1  0
 14 13  1  6
 14 15  1  0
 14 16  1  0
 16 18  1  0
 17 16  2  0
M  END
$$$$
