CAS.pdb
     RDKit          3D

 18 17  0  0  1  0  0  0  0  0999 V2000
    8.3199  -17.1154   16.2544 N   0  0  0  0  0  0  0  0  0  0  0  0
    7.3806  -16.5157   17.1716 C   0  0  1  0  0  0  0  0  0  0  0  0
    6.2742  -17.4725   17.5445 C   0  0  0  0  0  0  0  0  0  0  0  0
    7.0259  -18.8619   18.4448 S   0  0  0  0  0  0  0  0  0  0  0  0
    8.0659  -15.9485   18.3549 C   0  0  0  0  0  0  0  0  0  0  0  0
    9.1005  -16.5289   18.7736 O   0  0  0  0  0  0  0  0  0  0  0  0
    7.4245  -13.1040   20.7152 C   0  0  0  0  0  0  0  0  0  0  0  0
    8.3208  -14.2394   20.2040 C   0  0  2  0  0  0  0  0  0  0  0  0
    7.6468  -14.7993   19.0554 N   0  0  0  0  0  0  0  0  0  0  0  0
    8.4149  -15.2198   21.3261 C   0  0  0  0  0  0  0  0  0  0  0  0
    7.3898  -15.8457   21.6969 O   0  0  0  0  0  0  0  0  0  0  0  0
   11.8547  -17.1525   22.0846 O   0  0  0  0  0  0  0  0  0  0  0  0
   10.6536  -17.6327   22.6041 C   0  0  0  0  0  0  0  0  0  0  0  0
    9.7808  -16.4807   23.0396 C   0  0  2  0  0  0  0  0  0  0  0  0
    9.6345  -15.4808   22.0051 N   0  0  0  0  0  0  0  0  0  0  0  0
   10.4403  -15.8373   24.2077 C   0  0  0  0  0  0  0  0  0  0  0  0
   10.6629  -16.4723   25.2805 O   0  0  0  0  0  0  0  0  0  0  0  0
   10.8529  -14.5037   24.1971 O   0  0  0  0  0  0  0  0  0  0  0  0
  2  1  1  6
  2  3  1  0
  4  3  1  0
  5  2  1  0
  6  5  2  0
  8  7  1  1
  8  9  1  0
  9  5  1  0
 10  8  1  0
 10 15  1  0
 11 10  2  0
 13 12  1  0
 14 13  1  6
 14 15  1  0
 14 16  1  0
 16 18  1  0
 17 16  2  0
M  END
$$$$
