CAS.pdb
     RDKit          3D

 18 17  0  0  1  0  0  0  0  0999 V2000
    9.1967  -15.5115   14.9551 N   0  0  0  0  0  0  0  0  0  0  0  0
    8.2502  -15.6608   16.0345 C   0  0  1  0  0  0  0  0  0  0  0  0
    7.7570  -17.0826   16.1533 C   0  0  0  0  0  0  0  0  0  0  0  0
    6.6440  -17.3997   14.7509 S   0  0  0  0  0  0  0  0  0  0  0  0
    8.7945  -15.1385   17.3083 C   0  0  0  0  0  0  0  0  0  0  0  0
    9.9752  -15.4444   17.6163 O   0  0  0  0  0  0  0  0  0  0  0  0
    7.4967  -12.9765   20.0894 C   0  0  0  0  0  0  0  0  0  0  0  0
    8.6067  -13.8353   19.4697 C   0  0  2  0  0  0  0  0  0  0  0  0
    8.0877  -14.3182   18.2108 N   0  0  0  0  0  0  0  0  0  0  0  0
    8.8470  -14.9481   20.4356 C   0  0  0  0  0  0  0  0  0  0  0  0
    8.0996  -15.9586   20.4236 O   0  0  0  0  0  0  0  0  0  0  0  0
   12.3541  -16.3562   21.4014 O   0  0  0  0  0  0  0  0  0  0  0  0
   11.6628  -16.1290   22.5904 C   0  0  0  0  0  0  0  0  0  0  0  0
   10.1861  -15.9874   22.3113 C   0  0  2  0  0  0  0  0  0  0  0  0
    9.9027  -14.9138   21.3849 N   0  0  0  0  0  0  0  0  0  0  0  0
    9.5166  -15.6677   23.6008 C   0  0  0  0  0  0  0  0  0  0  0  0
    8.9690  -14.5445   23.8070 O   0  0  0  0  0  0  0  0  0  0  0  0
    9.4489  -16.5769   24.6579 O   0  0  0  0  0  0  0  0  0  0  0  0
  2  1  1  6
  2  3  1  0
  4  3  1  0
  5  2  1  0
  6  5  2  0
  8  7  1  1
  8  9  1  0
  9  5  1  0
 10  8  1  0
 10 15  1  0
 11 10  2  0
 13 12  1  0
 14 13  1  1
 14 15  1  0
 14 16  1  0
 16 18  1  0
 17 16  2  0
M  END
$$$$
