CAS.pdb
     RDKit          3D

 18 17  0  0  1  0  0  0  0  0999 V2000
    7.7630  -14.6742   16.8726 N   0  0  0  0  0  0  0  0  0  0  0  0
    8.3993  -14.1278   18.0472 C   0  0  1  0  0  0  0  0  0  0  0  0
    7.7829  -12.8120   18.4564 C   0  0  0  0  0  0  0  0  0  0  0  0
    8.6313  -12.2498   19.9631 S   0  0  0  0  0  0  0  0  0  0  0  0
    8.4301  -15.1109   19.1535 C   0  0  0  0  0  0  0  0  0  0  0  0
    7.3337  -15.5618   19.5743 O   0  0  0  0  0  0  0  0  0  0  0  0
   10.8034  -17.5064   20.5152 C   0  0  0  0  0  0  0  0  0  0  0  0
    9.6338  -16.5673   20.8373 C   0  0  2  0  0  0  0  0  0  0  0  0
    9.6013  -15.5855   19.7779 N   0  0  0  0  0  0  0  0  0  0  0  0
    9.9591  -15.9505   22.1574 C   0  0  0  0  0  0  0  0  0  0  0  0
   10.7626  -14.9856   22.2154 O   0  0  0  0  0  0  0  0  0  0  0  0
    8.6417  -14.5827   26.4546 O   0  0  0  0  0  0  0  0  0  0  0  0
    8.3485  -15.3090   25.3015 C   0  0  0  0  0  0  0  0  0  0  0  0
    9.6243  -15.7963   24.6585 C   0  0  2  0  0  0  0  0  0  0  0  0
    9.3898  -16.4149   23.3726 N   0  0  0  0  0  0  0  0  0  0  0  0
   10.2147  -16.8227   25.5592 C   0  0  0  0  0  0  0  0  0  0  0  0
   10.1416  -18.0597   25.2982 O   0  0  0  0  0  0  0  0  0  0  0  0
   10.8817  -16.4918   26.7401 O   0  0  0  0  0  0  0  0  0  0  0  0
  2  1  1  6
  2  3  1  0
  4  3  1  0
  5  2  1  0
  6  5  2  0
  8  7  1  6
  8  9  1  0
  9  5  1  0
 10  8  1  0
 10 15  1  0
 11 10  2  0
 13 12  1  0
 14 13  1  1
 14 15  1  0
 14 16  1  0
 16 18  1  0
 17 16  2  0
M  END
$$$$
