QTW.pdb
     RDKit          3D

 31 32  0  0  1  0  0  0  0  0999 V2000
    7.5946  -12.1480   17.2466 N   0  0  0  0  0  0  0  0  0  0  0  0
    8.4349  -13.2662   16.9448 C   0  0  0  0  0  0  0  0  0  0  0  0
    8.3307  -13.7031   15.7701 O   0  0  0  0  0  0  0  0  0  0  0  0
    9.3147  -13.8104   17.9642 C   0  0  0  0  0  0  0  0  0  0  0  0
    8.6936  -14.2459   19.2523 C   0  0  0  0  0  0  0  0  0  0  0  0
    9.3933  -15.4260   19.8236 C   0  0  2  0  0  0  0  0  0  0  0  0
    9.7136  -16.3657   18.7867 N   0  0  0  0  0  0  0  0  0  0  0  0
    8.5791  -16.0939   20.8962 C   0  0  0  0  0  0  0  0  0  0  0  0
    7.3362  -16.0834   20.7802 O   0  0  0  0  0  0  0  0  0  0  0  0
    8.2425  -19.4480   21.3562 C   0  0  0  0  0  0  0  0  0  0  0  0
    8.8074  -19.0152   22.6740 C   0  0  1  0  0  0  0  0  0  0  0  0
   10.1887  -19.2087   22.6286 O   0  0  0  0  0  0  0  0  0  0  0  0
    8.4760  -17.5458   22.9652 C   0  0  2  0  0  0  0  0  0  0  0  0
    9.1601  -16.7250   22.0142 N   0  0  0  0  0  0  0  0  0  0  0  0
    8.8369  -17.2477   24.3659 C   0  0  0  0  0  0  0  0  0  0  0  0
    8.3806  -17.9055   25.3358 O   0  0  0  0  0  0  0  0  0  0  0  0
    9.7268  -16.1978   24.7261 N   0  0  0  0  0  0  0  0  0  0  0  0
   10.0906  -15.8524   26.0709 C   0  0  1  0  0  0  0  0  0  0  0  0
    9.0568  -16.0876   27.0896 C   0  0  0  0  0  0  0  0  0  0  0  0
    7.8197  -15.3621   26.7308 C   0  0  0  0  0  0  0  0  0  0  0  0
    6.5753  -15.8150   26.3506 C   0  0  0  0  0  0  0  0  0  0  0  0
    5.7395  -14.7927   26.0975 N   0  0  0  0  0  0  0  0  0  0  0  0
    6.3959  -13.6421   26.2995 C   0  0  0  0  0  0  0  0  0  0  0  0
    5.9815  -12.3222   26.1733 C   0  0  0  0  0  0  0  0  0  0  0  0
    6.8827  -11.3250   26.4474 C   0  0  0  0  0  0  0  0  0  0  0  0
    8.1630  -11.6370   26.8371 C   0  0  0  0  0  0  0  0  0  0  0  0
    8.5699  -12.9601   26.9611 C   0  0  0  0  0  0  0  0  0  0  0  0
    7.6783  -13.9653   26.6899 C   0  0  0  0  0  0  0  0  0  0  0  0
   11.3159  -16.6031   26.4324 C   0  0  0  0  0  0  0  0  0  0  0  0
   11.9079  -17.4135   25.4818 O   0  0  0  0  0  0  0  0  0  0  0  0
   11.8010  -16.5075   27.5610 O   0  0  0  0  0  0  0  0  0  0  0  0
  2  1  1  0
  3  2  2  0
  4  2  1  0
  5  6  1  0
  5  4  1  0
  6  8  1  0
  6  7  1  6
  8  9  2  0
 11 13  1  0
 11 10  1  6
 12 11  1  0
 13 15  1  0
 14  8  1  0
 13 14  1  6
 15 16  2  0
 17 18  1  0
 17 15  1  0
 18 29  1  0
 18 19  1  1
 20 19  1  0
 20 21  2  0
 22 21  1  0
 23 22  1  0
 24 23  2  0
 25 24  1  0
 26 25  2  0
 26 27  1  0
 27 28  2  0
 28 23  1  0
 28 20  1  0
 29 30  1  0
 31 29  2  0
M  END
$$$$
