QTW.pdb
     RDKit          3D

 31 32  0  0  1  0  0  0  0  0999 V2000
   13.2406  -14.0204   20.5644 N   0  0  0  0  0  0  0  0  0  0  0  0
   13.2242  -14.0305   19.1336 C   0  0  0  0  0  0  0  0  0  0  0  0
   14.2815  -14.4494   18.5964 O   0  0  0  0  0  0  0  0  0  0  0  0
   12.0464  -13.5740   18.4169 C   0  0  0  0  0  0  0  0  0  0  0  0
   10.7115  -13.8742   19.0191 C   0  0  0  0  0  0  0  0  0  0  0  0
   10.2198  -15.2168   18.6137 C   0  0  2  0  0  0  0  0  0  0  0  0
    9.4588  -15.1233   17.4000 N   0  0  0  0  0  0  0  0  0  0  0  0
    9.3968  -15.8607   19.6941 C   0  0  0  0  0  0  0  0  0  0  0  0
    8.2439  -16.2417   19.4040 O   0  0  0  0  0  0  0  0  0  0  0  0
    8.5091  -18.3550   20.1126 C   0  0  0  0  0  0  0  0  0  0  0  0
    9.2231  -18.3303   21.4289 C   0  0  1  0  0  0  0  0  0  0  0  0
   10.5043  -18.8454   21.2275 O   0  0  0  0  0  0  0  0  0  0  0  0
    9.2953  -16.9064   21.9954 C   0  0  2  0  0  0  0  0  0  0  0  0
    9.8732  -16.0491   21.0069 N   0  0  0  0  0  0  0  0  0  0  0  0
   10.0546  -16.9385   23.2618 C   0  0  0  0  0  0  0  0  0  0  0  0
   11.2843  -17.1982   23.3057 O   0  0  0  0  0  0  0  0  0  0  0  0
    9.4566  -16.6776   24.5260 N   0  0  0  0  0  0  0  0  0  0  0  0
   10.1757  -16.5006   25.7556 C   0  0  1  0  0  0  0  0  0  0  0  0
    9.8684  -15.2708   26.5006 C   0  0  0  0  0  0  0  0  0  0  0  0
    8.4415  -14.9223   26.3337 C   0  0  0  0  0  0  0  0  0  0  0  0
    7.3338  -15.7062   26.0952 C   0  0  0  0  0  0  0  0  0  0  0  0
    6.2197  -14.9603   25.9951 N   0  0  0  0  0  0  0  0  0  0  0  0
    6.5495  -13.6724   26.1623 C   0  0  0  0  0  0  0  0  0  0  0  0
    5.7699  -12.5226   26.1476 C   0  0  0  0  0  0  0  0  0  0  0  0
    6.3850  -11.3131   26.3484 C   0  0  0  0  0  0  0  0  0  0  0  0
    7.7417  -11.2529   26.5584 C   0  0  0  0  0  0  0  0  0  0  0  0
    8.5147  -12.4077   26.5718 C   0  0  0  0  0  0  0  0  0  0  0  0
    7.9114  -13.6223   26.3723 C   0  0  0  0  0  0  0  0  0  0  0  0
    9.9203  -17.6758   26.6211 C   0  0  0  0  0  0  0  0  0  0  0  0
    9.0594  -18.6606   26.1740 O   0  0  0  0  0  0  0  0  0  0  0  0
   10.4658  -17.7758   27.7215 O   0  0  0  0  0  0  0  0  0  0  0  0
  2  1  1  0
  3  2  2  0
  4  2  1  0
  5  6  1  0
  5  4  1  0
  6  8  1  0
  6  7  1  6
  8  9  2  0
 11 13  1  0
 11 10  1  6
 12 11  1  0
 13 15  1  0
 14  8  1  0
 13 14  1  6
 15 16  2  0
 17 18  1  0
 17 15  1  0
 18 29  1  0
 18 19  1  1
 20 19  1  0
 20 21  2  0
 22 21  1  0
 23 22  1  0
 24 23  2  0
 25 24  1  0
 26 25  2  0
 26 27  1  0
 27 28  2  0
 28 23  1  0
 28 20  1  0
 29 30  1  0
 31 29  2  0
M  END
$$$$
