QTW.pdb
     RDKit          3D

 31 32  0  0  1  0  0  0  0  0999 V2000
   14.4483  -16.3602   16.6230 N   0  0  0  0  0  0  0  0  0  0  0  0
   13.5579  -17.0572   15.7461 C   0  0  0  0  0  0  0  0  0  0  0  0
   14.1169  -17.6489   14.7874 O   0  0  0  0  0  0  0  0  0  0  0  0
   12.1277  -17.0390   15.9977 C   0  0  0  0  0  0  0  0  0  0  0  0
   11.6759  -16.7880   17.4004 C   0  0  0  0  0  0  0  0  0  0  0  0
   10.1971  -16.6650   17.4833 C   0  0  2  0  0  0  0  0  0  0  0  0
    9.6747  -16.1057   16.2688 N   0  0  0  0  0  0  0  0  0  0  0  0
    9.7701  -15.8363   18.6623 C   0  0  0  0  0  0  0  0  0  0  0  0
    9.8867  -14.5961   18.5797 O   0  0  0  0  0  0  0  0  0  0  0  0
    6.6620  -15.0182   19.8975 C   0  0  0  0  0  0  0  0  0  0  0  0
    7.2786  -15.7331   21.0602 C   0  0  1  0  0  0  0  0  0  0  0  0
    6.8320  -17.0549   21.0320 O   0  0  0  0  0  0  0  0  0  0  0  0
    8.8105  -15.6780   20.9976 C   0  0  2  0  0  0  0  0  0  0  0  0
    9.2479  -16.4006   19.8433 N   0  0  0  0  0  0  0  0  0  0  0  0
    9.3555  -16.2078   22.2640 C   0  0  0  0  0  0  0  0  0  0  0  0
    9.9494  -17.3142   22.3333 O   0  0  0  0  0  0  0  0  0  0  0  0
    9.2528  -15.5099   23.4994 N   0  0  0  0  0  0  0  0  0  0  0  0
    9.8347  -15.9406   24.7387 C   0  0  1  0  0  0  0  0  0  0  0  0
    9.5936  -15.0629   25.8934 C   0  0  0  0  0  0  0  0  0  0  0  0
    8.1561  -14.7295   25.9831 C   0  0  0  0  0  0  0  0  0  0  0  0
    7.0292  -15.5100   25.8445 C   0  0  0  0  0  0  0  0  0  0  0  0
    5.9090  -14.7808   25.9896 N   0  0  0  0  0  0  0  0  0  0  0  0
    6.2535  -13.5078   26.2264 C   0  0  0  0  0  0  0  0  0  0  0  0
    5.4748  -12.3778   26.4425 C   0  0  0  0  0  0  0  0  0  0  0  0
    6.1070  -11.1802   26.6609 C   0  0  0  0  0  0  0  0  0  0  0  0
    7.4794  -11.1123   26.6636 C   0  0  0  0  0  0  0  0  0  0  0  0
    8.2515  -12.2473   26.4468 C   0  0  0  0  0  0  0  0  0  0  0  0
    7.6313  -13.4498   26.2274 C   0  0  0  0  0  0  0  0  0  0  0  0
    9.3340  -17.3015   25.0435 C   0  0  0  0  0  0  0  0  0  0  0  0
    8.3250  -17.8329   24.2622 O   0  0  0  0  0  0  0  0  0  0  0  0
    9.8083  -17.9507   25.9772 O   0  0  0  0  0  0  0  0  0  0  0  0
  2  1  1  0
  3  2  2  0
  4  2  1  0
  5  6  1  0
  5  4  1  0
  6  8  1  0
  6  7  1  6
  8  9  2  0
 11 13  1  0
 11 10  1  6
 12 11  1  0
 13 15  1  0
 14  8  1  0
 13 14  1  6
 15 16  2  0
 17 18  1  0
 17 15  1  0
 18 29  1  0
 18 19  1  1
 20 19  1  0
 20 21  2  0
 22 21  1  0
 23 22  1  0
 24 23  2  0
 25 24  1  0
 26 25  2  0
 26 27  1  0
 27 28  2  0
 28 23  1  0
 28 20  1  0
 29 30  1  0
 31 29  2  0
M  END
$$$$
