QTW.pdb
     RDKit          3D

 31 32  0  0  1  0  0  0  0  0999 V2000
   15.6614  -14.0615   19.0395 N   0  0  0  0  0  0  0  0  0  0  0  0
   15.1852  -14.8237   17.9260 C   0  0  0  0  0  0  0  0  0  0  0  0
   16.0099  -14.9562   16.9857 O   0  0  0  0  0  0  0  0  0  0  0  0
   13.8400  -15.3707   17.9415 C   0  0  0  0  0  0  0  0  0  0  0  0
   12.7607  -14.5341   18.5498 C   0  0  0  0  0  0  0  0  0  0  0  0
   11.4373  -15.2048   18.4645 C   0  0  2  0  0  0  0  0  0  0  0  0
   10.8582  -15.0016   17.1666 N   0  0  0  0  0  0  0  0  0  0  0  0
   10.4966  -14.7239   19.5337 C   0  0  0  0  0  0  0  0  0  0  0  0
   10.2351  -13.5041   19.5786 O   0  0  0  0  0  0  0  0  0  0  0  0
    7.0784  -14.8499   20.3846 C   0  0  0  0  0  0  0  0  0  0  0  0
    7.7303  -15.5883   21.5128 C   0  0  1  0  0  0  0  0  0  0  0  0
    7.6114  -16.9540   21.2522 O   0  0  0  0  0  0  0  0  0  0  0  0
    9.2052  -15.1915   21.6581 C   0  0  2  0  0  0  0  0  0  0  0  0
    9.9049  -15.5891   20.4756 N   0  0  0  0  0  0  0  0  0  0  0  0
    9.7407  -15.8028   22.8913 C   0  0  0  0  0  0  0  0  0  0  0  0
   10.5533  -16.7625   22.8718 O   0  0  0  0  0  0  0  0  0  0  0  0
    9.3816  -15.3544   24.1928 N   0  0  0  0  0  0  0  0  0  0  0  0
    9.8781  -15.9086   25.4202 C   0  0  1  0  0  0  0  0  0  0  0  0
    9.5473  -15.1543   26.6382 C   0  0  0  0  0  0  0  0  0  0  0  0
    8.1047  -14.8318   26.6565 C   0  0  0  0  0  0  0  0  0  0  0  0
    6.9905  -15.6305   26.5189 C   0  0  0  0  0  0  0  0  0  0  0  0
    5.8594  -14.9065   26.5827 N   0  0  0  0  0  0  0  0  0  0  0  0
    6.1840  -13.6189   26.7627 C   0  0  0  0  0  0  0  0  0  0  0  0
    5.3880  -12.4873   26.8882 C   0  0  0  0  0  0  0  0  0  0  0  0
    6.0013  -11.2730   27.0645 C   0  0  0  0  0  0  0  0  0  0  0  0
    7.3720  -11.1905   27.1143 C   0  0  0  0  0  0  0  0  0  0  0  0
    8.1614  -12.3273   26.9880 C   0  0  0  0  0  0  0  0  0  0  0  0
    7.5601  -13.5464   26.8114 C   0  0  0  0  0  0  0  0  0  0  0  0
    9.3701  -17.2947   25.5479 C   0  0  0  0  0  0  0  0  0  0  0  0
    9.9377  -18.1302   26.4916 O   0  0  0  0  0  0  0  0  0  0  0  0
    8.4565  -17.6977   24.8260 O   0  0  0  0  0  0  0  0  0  0  0  0
  2  1  1  0
  3  2  2  0
  4  2  1  0
  5  6  1  0
  5  4  1  0
  6  8  1  0
  6  7  1  6
  8  9  2  0
 11 13  1  0
 11 10  1  6
 12 11  1  0
 13 15  1  0
 14  8  1  0
 13 14  1  6
 15 16  2  0
 17 18  1  0
 17 15  1  0
 18 29  1  0
 18 19  1  1
 20 19  1  0
 20 21  2  0
 22 21  1  0
 23 22  1  0
 24 23  2  0
 25 24  1  0
 26 25  2  0
 26 27  1  0
 27 28  2  0
 28 23  1  0
 28 20  1  0
 29 30  1  0
 31 29  2  0
M  END
$$$$
