QTW.pdb
     RDKit          3D

 31 32  0  0  1  0  0  0  0  0999 V2000
    8.1019  -15.0564   15.3022 N   0  0  0  0  0  0  0  0  0  0  0  0
    8.5043  -13.6854   15.3809 C   0  0  0  0  0  0  0  0  0  0  0  0
    8.8938  -13.1863   14.2943 O   0  0  0  0  0  0  0  0  0  0  0  0
    8.4476  -12.9830   16.6508 C   0  0  0  0  0  0  0  0  0  0  0  0
    7.8906  -13.7218   17.8250 C   0  0  0  0  0  0  0  0  0  0  0  0
    8.9694  -14.2222   18.7163 C   0  0  2  0  0  0  0  0  0  0  0  0
    9.8884  -15.0397   17.9760 N   0  0  0  0  0  0  0  0  0  0  0  0
    8.4181  -14.9890   19.8856 C   0  0  0  0  0  0  0  0  0  0  0  0
    7.2199  -14.8136   20.1889 O   0  0  0  0  0  0  0  0  0  0  0  0
    7.6581  -18.3415   20.3953 C   0  0  0  0  0  0  0  0  0  0  0  0
    8.6699  -18.0900   21.4704 C   0  0  1  0  0  0  0  0  0  0  0  0
    9.8998  -18.5690   21.0173 O   0  0  0  0  0  0  0  0  0  0  0  0
    8.7622  -16.5964   21.8085 C   0  0  2  0  0  0  0  0  0  0  0  0
    9.1944  -15.8889   20.6428 N   0  0  0  0  0  0  0  0  0  0  0  0
    9.6637  -16.4278   22.9661 C   0  0  0  0  0  0  0  0  0  0  0  0
   10.9142  -16.3697   22.8457 O   0  0  0  0  0  0  0  0  0  0  0  0
    9.1895  -16.3166   24.3028 N   0  0  0  0  0  0  0  0  0  0  0  0
   10.0184  -16.1033   25.4550 C   0  0  1  0  0  0  0  0  0  0  0  0
    9.5945  -15.0174   26.3510 C   0  0  0  0  0  0  0  0  0  0  0  0
    8.1714  -14.6943   26.1152 C   0  0  0  0  0  0  0  0  0  0  0  0
    7.0799  -15.5022   25.8822 C   0  0  0  0  0  0  0  0  0  0  0  0
    5.9635  -14.7752   25.7016 N   0  0  0  0  0  0  0  0  0  0  0  0
    6.2756  -13.4764   25.8080 C   0  0  0  0  0  0  0  0  0  0  0  0
    5.4868  -12.3378   25.7018 C   0  0  0  0  0  0  0  0  0  0  0  0
    6.0836  -11.1124   25.8562 C   0  0  0  0  0  0  0  0  0  0  0  0
    7.4313  -11.0258   26.1099 C   0  0  0  0  0  0  0  0  0  0  0  0
    8.2137  -12.1697   26.2148 C   0  0  0  0  0  0  0  0  0  0  0  0
    7.6287  -13.3999   26.0624 C   0  0  0  0  0  0  0  0  0  0  0  0
   10.0928  -17.3702   26.2198 C   0  0  0  0  0  0  0  0  0  0  0  0
   11.0691  -17.5098   27.1883 O   0  0  0  0  0  0  0  0  0  0  0  0
    9.2980  -18.2853   25.9980 O   0  0  0  0  0  0  0  0  0  0  0  0
  2  1  1  0
  3  2  2  0
  4  2  1  0
  5  6  1  0
  5  4  1  0
  6  8  1  0
  6  7  1  6
  8  9  2  0
 11 13  1  0
 11 10  1  6
 12 11  1  0
 13 15  1  0
 14  8  1  0
 13 14  1  6
 15 16  2  0
 17 18  1  0
 17 15  1  0
 18 29  1  0
 18 19  1  1
 20 19  1  0
 20 21  2  0
 22 21  1  0
 23 22  1  0
 24 23  2  0
 25 24  1  0
 26 25  2  0
 26 27  1  0
 27 28  2  0
 28 23  1  0
 28 20  1  0
 29 30  1  0
 31 29  2  0
M  END
$$$$
