QTW.pdb
     RDKit          3D

 31 32  0  0  1  0  0  0  0  0999 V2000
    5.8575  -21.7317   17.0801 N   0  0  0  0  0  0  0  0  0  0  0  0
    4.7106  -21.1515   17.7091 C   0  0  0  0  0  0  0  0  0  0  0  0
    3.6117  -21.6701   17.3847 O   0  0  0  0  0  0  0  0  0  0  0  0
    4.8720  -20.0467   18.6378 C   0  0  0  0  0  0  0  0  0  0  0  0
    6.2618  -19.5645   18.9036 C   0  0  0  0  0  0  0  0  0  0  0  0
    6.3391  -18.7963   20.1733 C   0  0  2  0  0  0  0  0  0  0  0  0
    5.2281  -17.8932   20.2780 N   0  0  0  0  0  0  0  0  0  0  0  0
    7.6340  -18.0424   20.2930 C   0  0  0  0  0  0  0  0  0  0  0  0
    8.4691  -18.1626   19.3729 O   0  0  0  0  0  0  0  0  0  0  0  0
    8.3630  -15.7162   19.0264 C   0  0  0  0  0  0  0  0  0  0  0  0
    8.5527  -15.1138   20.3845 C   0  0  1  0  0  0  0  0  0  0  0  0
    7.3604  -14.4816   20.7396 O   0  0  0  0  0  0  0  0  0  0  0  0
    8.9274  -16.1828   21.4192 C   0  0  2  0  0  0  0  0  0  0  0  0
    7.9363  -17.2137   21.3920 N   0  0  0  0  0  0  0  0  0  0  0  0
    9.0661  -15.5357   22.7395 C   0  0  0  0  0  0  0  0  0  0  0  0
    8.2294  -14.7042   23.1755 O   0  0  0  0  0  0  0  0  0  0  0  0
   10.1523  -15.8027   23.6187 N   0  0  0  0  0  0  0  0  0  0  0  0
   10.1336  -15.5899   25.0380 C   0  0  1  0  0  0  0  0  0  0  0  0
    9.0696  -16.2907   25.7720 C   0  0  0  0  0  0  0  0  0  0  0  0
    7.8242  -15.4948   25.7385 C   0  0  0  0  0  0  0  0  0  0  0  0
    6.5737  -15.7800   25.2353 C   0  0  0  0  0  0  0  0  0  0  0  0
    5.7309  -14.7465   25.4060 N   0  0  0  0  0  0  0  0  0  0  0  0
    6.3885  -13.7540   26.0211 C   0  0  0  0  0  0  0  0  0  0  0  0
    5.9688  -12.4899   26.4157 C   0  0  0  0  0  0  0  0  0  0  0  0
    6.8729  -11.6646   27.0347 C   0  0  0  0  0  0  0  0  0  0  0  0
    8.1610  -12.0896   27.2539 C   0  0  0  0  0  0  0  0  0  0  0  0
    8.5732  -13.3559   26.8562 C   0  0  0  0  0  0  0  0  0  0  0  0
    7.6789  -14.1897   26.2367 C   0  0  0  0  0  0  0  0  0  0  0  0
   11.4516  -15.9842   25.5884 C   0  0  0  0  0  0  0  0  0  0  0  0
   12.4059  -16.5006   24.7321 O   0  0  0  0  0  0  0  0  0  0  0  0
   11.6950  -15.8543   26.7893 O   0  0  0  0  0  0  0  0  0  0  0  0
  2  1  1  0
  3  2  2  0
  4  2  1  0
  5  6  1  0
  5  4  1  0
  6  8  1  0
  6  7  1  6
  8  9  2  0
 11 13  1  0
 11 10  1  6
 12 11  1  0
 13 15  1  0
 14  8  1  0
 13 14  1  1
 15 16  2  0
 17 18  1  0
 17 15  1  0
 18 29  1  0
 18 19  1  1
 20 19  1  0
 20 21  2  0
 22 21  1  0
 23 22  1  0
 24 23  2  0
 25 24  1  0
 26 25  2  0
 26 27  1  0
 27 28  2  0
 28 23  1  0
 28 20  1  0
 29 30  1  0
 31 29  2  0
M  END
$$$$
