QTW.pdb
     RDKit          3D

 31 32  0  0  1  0  0  0  0  0999 V2000
    8.1770  -12.3229   16.9996 N   0  0  0  0  0  0  0  0  0  0  0  0
    8.1413  -13.4324   16.0967 C   0  0  0  0  0  0  0  0  0  0  0  0
    8.3810  -13.1440   14.8962 O   0  0  0  0  0  0  0  0  0  0  0  0
    7.8402  -14.7638   16.5925 C   0  0  0  0  0  0  0  0  0  0  0  0
    7.6171  -14.9198   18.0624 C   0  0  0  0  0  0  0  0  0  0  0  0
    8.8803  -15.2453   18.7744 C   0  0  2  0  0  0  0  0  0  0  0  0
    9.6833  -16.1344   17.9835 N   0  0  0  0  0  0  0  0  0  0  0  0
    8.6209  -15.8453   20.1279 C   0  0  0  0  0  0  0  0  0  0  0  0
    7.7490  -15.3146   20.8467 O   0  0  0  0  0  0  0  0  0  0  0  0
    8.6554  -19.7744   20.7333 C   0  0  0  0  0  0  0  0  0  0  0  0
    9.4993  -19.0819   21.7587 C   0  0  1  0  0  0  0  0  0  0  0  0
   10.8338  -19.2202   21.3748 O   0  0  0  0  0  0  0  0  0  0  0  0
    9.1220  -17.5998   21.8801 C   0  0  2  0  0  0  0  0  0  0  0  0
    9.3166  -16.9722   20.6095 N   0  0  0  0  0  0  0  0  0  0  0  0
    9.9229  -16.9945   22.9633 C   0  0  0  0  0  0  0  0  0  0  0  0
   11.0451  -16.4649   22.7586 O   0  0  0  0  0  0  0  0  0  0  0  0
    9.4884  -16.9619   24.3176 N   0  0  0  0  0  0  0  0  0  0  0  0
   10.2247  -16.3814   25.4043 C   0  0  1  0  0  0  0  0  0  0  0  0
    9.9511  -14.9616   25.6710 C   0  0  0  0  0  0  0  0  0  0  0  0
    8.4957  -14.7461   25.8155 C   0  0  0  0  0  0  0  0  0  0  0  0
    7.4361  -15.6260   25.7792 C   0  0  0  0  0  0  0  0  0  0  0  0
    6.2643  -14.9868   25.9403 N   0  0  0  0  0  0  0  0  0  0  0  0
    6.5069  -13.6771   26.0868 C   0  0  0  0  0  0  0  0  0  0  0  0
    5.6432  -12.6061   26.2784 C   0  0  0  0  0  0  0  0  0  0  0  0
    6.1777  -11.3482   26.3960 C   0  0  0  0  0  0  0  0  0  0  0  0
    7.5375  -11.1645   26.3244 C   0  0  0  0  0  0  0  0  0  0  0  0
    8.3951  -12.2412   26.1327 C   0  0  0  0  0  0  0  0  0  0  0  0
    7.8728  -13.5029   26.0137 C   0  0  0  0  0  0  0  0  0  0  0  0
    9.9551  -17.1718   26.6282 C   0  0  0  0  0  0  0  0  0  0  0  0
   10.6965  -16.9151   27.7663 O   0  0  0  0  0  0  0  0  0  0  0  0
    9.0845  -18.0437   26.6337 O   0  0  0  0  0  0  0  0  0  0  0  0
  2  1  1  0
  3  2  2  0
  4  2  1  0
  5  6  1  0
  5  4  1  0
  6  8  1  0
  6  7  1  6
  8  9  2  0
 11 13  1  0
 11 10  1  6
 12 11  1  0
 13 15  1  0
 14  8  1  0
 13 14  1  6
 15 16  2  0
 17 18  1  0
 17 15  1  0
 18 29  1  0
 18 19  1  1
 20 19  1  0
 20 21  2  0
 22 21  1  0
 23 22  1  0
 24 23  2  0
 25 24  1  0
 26 25  2  0
 26 27  1  0
 27 28  2  0
 28 23  1  0
 28 20  1  0
 29 30  1  0
 31 29  2  0
M  END
$$$$
