QTW.pdb
     RDKit          3D

 31 32  0  0  1  0  0  0  0  0999 V2000
    8.0936  -12.8061   14.8097 N   0  0  0  0  0  0  0  0  0  0  0  0
    8.6492  -14.0811   15.1461 C   0  0  0  0  0  0  0  0  0  0  0  0
    9.8924  -14.1755   14.9810 O   0  0  0  0  0  0  0  0  0  0  0  0
    7.7872  -15.1445   15.6312 C   0  0  0  0  0  0  0  0  0  0  0  0
    7.4558  -15.1548   17.0889 C   0  0  0  0  0  0  0  0  0  0  0  0
    8.6701  -15.3503   17.9229 C   0  0  2  0  0  0  0  0  0  0  0  0
    9.5018  -16.3759   17.3597 N   0  0  0  0  0  0  0  0  0  0  0  0
    8.3230  -15.6867   19.3462 C   0  0  0  0  0  0  0  0  0  0  0  0
    7.4215  -15.0252   19.9014 O   0  0  0  0  0  0  0  0  0  0  0  0
    7.3849  -19.1272   20.3269 C   0  0  0  0  0  0  0  0  0  0  0  0
    8.4550  -18.7203   21.2925 C   0  0  1  0  0  0  0  0  0  0  0  0
    9.6512  -19.3030   20.8719 O   0  0  0  0  0  0  0  0  0  0  0  0
    8.5913  -17.1937   21.3603 C   0  0  2  0  0  0  0  0  0  0  0  0
    8.9691  -16.7099   20.0683 N   0  0  0  0  0  0  0  0  0  0  0  0
    9.5591  -16.8513   22.4220 C   0  0  0  0  0  0  0  0  0  0  0  0
   10.8028  -16.8843   22.2387 O   0  0  0  0  0  0  0  0  0  0  0  0
    9.1613  -16.4573   23.7299 N   0  0  0  0  0  0  0  0  0  0  0  0
   10.0592  -16.1868   24.8166 C   0  0  1  0  0  0  0  0  0  0  0  0
    9.8110  -14.9371   25.5504 C   0  0  0  0  0  0  0  0  0  0  0  0
    8.3612  -14.7691   25.7861 C   0  0  0  0  0  0  0  0  0  0  0  0
    7.3175  -15.6661   25.7215 C   0  0  0  0  0  0  0  0  0  0  0  0
    6.1441  -15.0713   25.9987 N   0  0  0  0  0  0  0  0  0  0  0  0
    6.3699  -13.7752   26.2533 C   0  0  0  0  0  0  0  0  0  0  0  0
    5.4977  -12.7462   26.5855 C   0  0  0  0  0  0  0  0  0  0  0  0
    6.0145  -11.4924   26.7921 C   0  0  0  0  0  0  0  0  0  0  0  0
    7.3653  -11.2718   26.6704 C   0  0  0  0  0  0  0  0  0  0  0  0
    8.2313  -12.3065   26.3378 C   0  0  0  0  0  0  0  0  0  0  0  0
    7.7268  -13.5638   26.1290 C   0  0  0  0  0  0  0  0  0  0  0  0
   10.0104  -17.3282   25.7601 C   0  0  0  0  0  0  0  0  0  0  0  0
   10.9834  -17.4300   26.7367 O   0  0  0  0  0  0  0  0  0  0  0  0
    9.1178  -18.1736   25.6775 O   0  0  0  0  0  0  0  0  0  0  0  0
  2  1  1  0
  3  2  2  0
  4  2  1  0
  5  6  1  0
  5  4  1  0
  6  8  1  0
  6  7  1  6
  8  9  2  0
 11 13  1  0
 11 10  1  6
 12 11  1  0
 13 15  1  0
 14  8  1  0
 13 14  1  6
 15 16  2  0
 17 18  1  0
 17 15  1  0
 18 29  1  0
 18 19  1  1
 20 19  1  0
 20 21  2  0
 22 21  1  0
 23 22  1  0
 24 23  2  0
 25 24  1  0
 26 25  2  0
 26 27  1  0
 27 28  2  0
 28 23  1  0
 28 20  1  0
 29 30  1  0
 31 29  2  0
M  END
$$$$
