QTW.pdb
     RDKit          3D

 31 32  0  0  1  0  0  0  0  0999 V2000
    7.2373  -15.4027   16.4695 N   0  0  0  0  0  0  0  0  0  0  0  0
    7.9762  -14.1875   16.3114 C   0  0  0  0  0  0  0  0  0  0  0  0
    8.6998  -14.1395   15.2838 O   0  0  0  0  0  0  0  0  0  0  0  0
    7.8583  -13.1311   17.3009 C   0  0  0  0  0  0  0  0  0  0  0  0
    7.5665  -13.5340   18.7106 C   0  0  0  0  0  0  0  0  0  0  0  0
    8.8148  -13.8059   19.4697 C   0  0  2  0  0  0  0  0  0  0  0  0
    9.8371  -14.2957   18.5889 N   0  0  0  0  0  0  0  0  0  0  0  0
    8.5862  -14.7794   20.5919 C   0  0  0  0  0  0  0  0  0  0  0  0
    7.5237  -14.6867   21.2406 O   0  0  0  0  0  0  0  0  0  0  0  0
    9.2656  -18.5383   20.2061 C   0  0  0  0  0  0  0  0  0  0  0  0
    9.9320  -18.0933   21.4715 C   0  0  1  0  0  0  0  0  0  0  0  0
   11.2979  -17.9720   21.2128 O   0  0  0  0  0  0  0  0  0  0  0  0
    9.3542  -16.7605   21.9649 C   0  0  2  0  0  0  0  0  0  0  0  0
    9.5156  -15.7819   20.9342 N   0  0  0  0  0  0  0  0  0  0  0  0
   10.0206  -16.3954   23.2314 C   0  0  0  0  0  0  0  0  0  0  0  0
   11.1513  -15.8462   23.2658 O   0  0  0  0  0  0  0  0  0  0  0  0
    9.4367  -16.6343   24.5065 N   0  0  0  0  0  0  0  0  0  0  0  0
   10.0702  -16.3628   25.7655 C   0  0  1  0  0  0  0  0  0  0  0  0
    9.7849  -15.0440   26.3497 C   0  0  0  0  0  0  0  0  0  0  0  0
    8.3533  -14.7160   26.1814 C   0  0  0  0  0  0  0  0  0  0  0  0
    7.2731  -15.4994   25.8382 C   0  0  0  0  0  0  0  0  0  0  0  0
    6.1418  -14.7750   25.7836 N   0  0  0  0  0  0  0  0  0  0  0  0
    6.4326  -13.5023   26.0856 C   0  0  0  0  0  0  0  0  0  0  0  0
    5.6227  -12.3763   26.1644 C   0  0  0  0  0  0  0  0  0  0  0  0
    6.2000  -11.1779   26.4995 C   0  0  0  0  0  0  0  0  0  0  0  0
    7.5493  -11.1054   26.7492 C   0  0  0  0  0  0  0  0  0  0  0  0
    8.3528  -12.2365   26.6684 C   0  0  0  0  0  0  0  0  0  0  0  0
    7.7874  -13.4397   26.3345 C   0  0  0  0  0  0  0  0  0  0  0  0
    9.6770  -17.4207   26.7257 C   0  0  0  0  0  0  0  0  0  0  0  0
   10.3196  -17.4862   27.9478 O   0  0  0  0  0  0  0  0  0  0  0  0
    8.7918  -18.2293   26.4415 O   0  0  0  0  0  0  0  0  0  0  0  0
  2  1  1  0
  3  2  2  0
  4  2  1  0
  5  6  1  0
  5  4  1  0
  6  8  1  0
  6  7  1  6
  8  9  2  0
 11 13  1  0
 11 10  1  6
 12 11  1  0
 13 15  1  0
 14  8  1  0
 13 14  1  6
 15 16  2  0
 17 18  1  0
 17 15  1  0
 18 29  1  0
 18 19  1  1
 20 19  1  0
 20 21  2  0
 22 21  1  0
 23 22  1  0
 24 23  2  0
 25 24  1  0
 26 25  2  0
 26 27  1  0
 27 28  2  0
 28 23  1  0
 28 20  1  0
 29 30  1  0
 31 29  2  0
M  END
$$$$
