QTW.pdb
     RDKit          3D

 31 32  0  0  1  0  0  0  0  0999 V2000
    8.4645  -11.9410   18.5852 N   0  0  0  0  0  0  0  0  0  0  0  0
    9.7821  -12.4677   18.7696 C   0  0  0  0  0  0  0  0  0  0  0  0
   10.6771  -11.6016   18.9446 O   0  0  0  0  0  0  0  0  0  0  0  0
   10.0019  -13.9029   18.7407 C   0  0  0  0  0  0  0  0  0  0  0  0
    8.7981  -14.7848   18.6513 C   0  0  0  0  0  0  0  0  0  0  0  0
    9.1542  -16.2149   18.8429 C   0  0  2  0  0  0  0  0  0  0  0  0
    8.6471  -17.0046   17.7566 N   0  0  0  0  0  0  0  0  0  0  0  0
    8.6457  -16.7472   20.1534 C   0  0  0  0  0  0  0  0  0  0  0  0
    7.4327  -16.6052   20.4124 O   0  0  0  0  0  0  0  0  0  0  0  0
    8.2875  -20.0246   21.5393 C   0  0  0  0  0  0  0  0  0  0  0  0
    9.2316  -19.3443   22.4822 C   0  0  1  0  0  0  0  0  0  0  0  0
   10.5268  -19.7414   22.1474 O   0  0  0  0  0  0  0  0  0  0  0  0
    9.0953  -17.8184   22.4006 C   0  0  2  0  0  0  0  0  0  0  0  0
    9.4774  -17.3940   21.0891 N   0  0  0  0  0  0  0  0  0  0  0  0
    9.9081  -17.2122   23.4744 C   0  0  0  0  0  0  0  0  0  0  0  0
   11.1194  -16.9130   23.3177 O   0  0  0  0  0  0  0  0  0  0  0  0
    9.3856  -16.9192   24.7648 N   0  0  0  0  0  0  0  0  0  0  0  0
   10.1492  -16.3986   25.8630 C   0  0  1  0  0  0  0  0  0  0  0  0
    9.7414  -15.0721   26.3488 C   0  0  0  0  0  0  0  0  0  0  0  0
    8.2920  -14.8782   26.1318 C   0  0  0  0  0  0  0  0  0  0  0  0
    7.2670  -15.7830   25.9617 C   0  0  0  0  0  0  0  0  0  0  0  0
    6.0907  -15.1593   25.7744 N   0  0  0  0  0  0  0  0  0  0  0  0
    6.2961  -13.8357   25.8139 C   0  0  0  0  0  0  0  0  0  0  0  0
    5.4136  -12.7719   25.6743 C   0  0  0  0  0  0  0  0  0  0  0  0
    5.9097  -11.4958   25.7585 C   0  0  0  0  0  0  0  0  0  0  0  0
    7.2503  -11.2872   25.9762 C   0  0  0  0  0  0  0  0  0  0  0  0
    8.1267  -12.3568   26.1149 C   0  0  0  0  0  0  0  0  0  0  0  0
    7.6429  -13.6366   26.0327 C   0  0  0  0  0  0  0  0  0  0  0  0
   10.0871  -17.3708   26.9795 C   0  0  0  0  0  0  0  0  0  0  0  0
   10.9668  -17.2314   28.0366 O   0  0  0  0  0  0  0  0  0  0  0  0
    9.2653  -18.2888   26.9680 O   0  0  0  0  0  0  0  0  0  0  0  0
  2  1  1  0
  3  2  2  0
  4  2  1  0
  5  6  1  0
  5  4  1  0
  6  8  1  0
  6  7  1  6
  8  9  2  0
 11 13  1  0
 11 10  1  6
 12 11  1  0
 13 15  1  0
 14  8  1  0
 13 14  1  6
 15 16  2  0
 17 18  1  0
 17 15  1  0
 18 29  1  0
 18 19  1  1
 20 19  1  0
 20 21  2  0
 22 21  1  0
 23 22  1  0
 24 23  2  0
 25 24  1  0
 26 25  2  0
 26 27  1  0
 27 28  2  0
 28 23  1  0
 28 20  1  0
 29 30  1  0
 31 29  2  0
M  END
$$$$
