EAN.pdb
     RDKit          3D

 23 22  0  0  1  0  0  0  0  0999 V2000
   20.0099  -14.2154  -15.9319 N   0  0  0  0  0  0  0  0  0  0  0  0
   19.7184  -13.0794  -16.7949 C   0  0  1  0  0  0  0  0  0  0  0  0
   18.4108  -12.4924  -16.3662 C   0  0  0  0  0  0  0  0  0  0  0  0
   17.2228  -13.3727  -16.5932 C   0  0  0  0  0  0  0  0  0  0  0  0
   15.9291  -12.7369  -16.2503 C   0  0  0  0  0  0  0  0  0  0  0  0
   14.8529  -13.3475  -16.3825 O   0  0  0  0  0  0  0  0  0  0  0  0
   20.7583  -12.0081  -16.5896 C   0  0  0  0  0  0  0  0  0  0  0  0
   21.1122  -11.7376  -15.4160 O   0  0  0  0  0  0  0  0  0  0  0  0
   15.8607  -11.4326  -15.7665 O   0  0  0  0  0  0  0  0  0  0  0  0
   23.1412  -10.0943  -18.8133 C   0  0  0  0  0  0  0  0  0  0  0  0
   22.3851  -10.3244  -17.5235 C   0  0  2  0  0  0  0  0  0  0  0  0
   21.3495  -11.2990  -17.6488 N   0  0  0  0  0  0  0  0  0  0  0  0
   21.9034   -9.0189  -17.0291 C   0  0  0  0  0  0  0  0  0  0  0  0
   20.7892   -8.5447  -17.3607 O   0  0  0  0  0  0  0  0  0  0  0  0
   21.6972   -5.0474  -12.8756 N   0  0  0  0  0  0  0  0  0  0  0  0
   22.6032   -5.1824  -13.9567 C   0  0  0  0  0  0  0  0  0  0  0  0
   23.0322   -4.1306  -14.4835 O   0  0  0  0  0  0  0  0  0  0  0  0
   23.0273   -6.5040  -14.4458 C   0  0  0  0  0  0  0  0  0  0  0  0
   22.2411   -6.9338  -15.6683 C   0  0  2  0  0  0  0  0  0  0  0  0
   22.6997   -8.2194  -16.1326 N   0  0  0  0  0  0  0  0  0  0  0  0
   22.3194   -5.9366  -16.7413 C   0  0  0  0  0  0  0  0  0  0  0  0
   21.3877   -4.9247  -16.9183 O   0  0  0  0  0  0  0  0  0  0  0  0
   23.2706   -5.9774  -17.5581 O   0  0  0  0  0  0  0  0  0  0  0  0
  2  1  1  1
  3  2  1  0
  4  3  1  0
  4  5  1  0
  5  6  2  0
  7  2  1  0
  8  7  2  0
  9  5  1  0
 11 10  1  6
 11 12  1  0
 11 13  1  0
 12  7  1  0
 13 20  1  0
 14 13  2  0
 16 17  2  0
 16 15  1  0
 18 16  1  0
 19 18  1  1
 19 21  1  0
 20 19  1  0
 21 23  2  0
 21 22  1  0
M  END
$$$$
