EAN.pdb
     RDKit          3D

 23 22  0  0  1  0  0  0  0  0999 V2000
   19.6087  -13.3887  -17.5737 N   0  0  0  0  0  0  0  0  0  0  0  0
   18.5542  -12.3906  -17.4643 C   0  0  1  0  0  0  0  0  0  0  0  0
   17.9399  -12.5091  -16.1054 C   0  0  0  0  0  0  0  0  0  0  0  0
   17.1137  -13.7383  -15.8948 C   0  0  0  0  0  0  0  0  0  0  0  0
   16.3503  -13.7393  -14.6249 C   0  0  0  0  0  0  0  0  0  0  0  0
   15.8628  -14.7873  -14.1639 O   0  0  0  0  0  0  0  0  0  0  0  0
   19.1536  -11.0103  -17.5461 C   0  0  0  0  0  0  0  0  0  0  0  0
   20.3592  -10.8639  -17.2286 O   0  0  0  0  0  0  0  0  0  0  0  0
   16.1454  -12.5716  -13.8938 O   0  0  0  0  0  0  0  0  0  0  0  0
   18.0493   -7.6413  -18.8867 C   0  0  0  0  0  0  0  0  0  0  0  0
   18.9438   -8.5556  -18.0791 C   0  0  2  0  0  0  0  0  0  0  0  0
   18.4272   -9.8811  -17.9606 N   0  0  0  0  0  0  0  0  0  0  0  0
   19.2096   -7.9124  -16.7767 C   0  0  0  0  0  0  0  0  0  0  0  0
   18.5231   -8.1570  -15.7543 O   0  0  0  0  0  0  0  0  0  0  0  0
   21.3345   -5.2039  -12.9307 N   0  0  0  0  0  0  0  0  0  0  0  0
   22.2284   -5.1080  -14.0259 C   0  0  0  0  0  0  0  0  0  0  0  0
   23.3239   -4.5352  -13.8268 O   0  0  0  0  0  0  0  0  0  0  0  0
   21.8887   -5.6580  -15.3479 C   0  0  0  0  0  0  0  0  0  0  0  0
   20.5179   -6.3048  -15.3563 C   0  0  2  0  0  0  0  0  0  0  0  0
   20.2820   -6.9630  -16.6172 N   0  0  0  0  0  0  0  0  0  0  0  0
   19.4575   -5.3316  -15.0727 C   0  0  0  0  0  0  0  0  0  0  0  0
   18.8873   -5.1608  -13.8202 O   0  0  0  0  0  0  0  0  0  0  0  0
   19.0235   -4.6006  -15.9951 O   0  0  0  0  0  0  0  0  0  0  0  0
  2  1  1  1
  3  2  1  0
  4  3  1  0
  4  5  1  0
  5  6  2  0
  7  2  1  0
  8  7  2  0
  9  5  1  0
 11 10  1  1
 11 12  1  0
 11 13  1  0
 12  7  1  0
 13 20  1  0
 14 13  2  0
 16 17  2  0
 16 15  1  0
 18 16  1  0
 19 18  1  6
 19 21  1  0
 20 19  1  0
 21 23  2  0
 21 22  1  0
M  END
$$$$
