EAN.pdb
     RDKit          3D

 23 22  0  0  1  0  0  0  0  0999 V2000
   20.0395  -12.0212  -18.3023 N   0  0  0  0  0  0  0  0  0  0  0  0
   19.1160  -11.4930  -17.3082 C   0  0  1  0  0  0  0  0  0  0  0  0
   19.5807  -11.9383  -15.9577 C   0  0  0  0  0  0  0  0  0  0  0  0
   19.3279  -13.3804  -15.6507 C   0  0  0  0  0  0  0  0  0  0  0  0
   17.9343  -13.6724  -15.2408 C   0  0  0  0  0  0  0  0  0  0  0  0
   17.5379  -14.8413  -15.0824 O   0  0  0  0  0  0  0  0  0  0  0  0
   19.1785   -9.9872  -17.3093 C   0  0  0  0  0  0  0  0  0  0  0  0
   20.3013   -9.4370  -17.4198 O   0  0  0  0  0  0  0  0  0  0  0  0
   17.0098  -12.6552  -15.0154 O   0  0  0  0  0  0  0  0  0  0  0  0
   16.6389   -7.1587  -17.1471 C   0  0  0  0  0  0  0  0  0  0  0  0
   18.0317   -7.7443  -17.2227 C   0  0  2  0  0  0  0  0  0  0  0  0
   18.0403   -9.1715  -17.1926 N   0  0  0  0  0  0  0  0  0  0  0  0
   18.8508   -7.1315  -16.1577 C   0  0  0  0  0  0  0  0  0  0  0  0
   18.8783   -7.5843  -14.9870 O   0  0  0  0  0  0  0  0  0  0  0  0
   22.1592   -4.0698  -13.5880 N   0  0  0  0  0  0  0  0  0  0  0  0
   22.7447   -4.8154  -14.6411 C   0  0  0  0  0  0  0  0  0  0  0  0
   23.9944   -4.8870  -14.6705 O   0  0  0  0  0  0  0  0  0  0  0  0
   21.9218   -5.4816  -15.6632 C   0  0  0  0  0  0  0  0  0  0  0  0
   20.4405   -5.3525  -15.3694 C   0  0  2  0  0  0  0  0  0  0  0  0
   19.6661   -5.9715  -16.4162 N   0  0  0  0  0  0  0  0  0  0  0  0
   20.0436   -3.9517  -15.1897 C   0  0  0  0  0  0  0  0  0  0  0  0
   19.9587   -3.3305  -13.9527 O   0  0  0  0  0  0  0  0  0  0  0  0
   19.7599   -3.2537  -16.1927 O   0  0  0  0  0  0  0  0  0  0  0  0
  2  1  1  6
  3  2  1  0
  4  3  1  0
  4  5  1  0
  5  6  2  0
  7  2  1  0
  8  7  2  0
  9  5  1  0
 11 10  1  1
 11 12  1  0
 11 13  1  0
 12  7  1  0
 13 20  1  0
 14 13  2  0
 16 17  2  0
 16 15  1  0
 18 16  1  0
 19 18  1  6
 19 21  1  0
 20 19  1  0
 21 23  2  0
 21 22  1  0
M  END
$$$$
