EAN.pdb
     RDKit          3D

 23 22  0  0  1  0  0  0  0  0999 V2000
   26.3956  -23.8766  -15.6928 N   0  0  0  0  0  0  0  0  0  0  0  0
   25.3926  -23.0524  -16.3522 C   0  0  1  0  0  0  0  0  0  0  0  0
   24.5915  -23.9309  -17.2602 C   0  0  0  0  0  0  0  0  0  0  0  0
   25.1339  -24.0600  -18.6484 C   0  0  0  0  0  0  0  0  0  0  0  0
   26.5512  -24.4885  -18.7026 C   0  0  0  0  0  0  0  0  0  0  0  0
   27.4754  -23.6591  -18.7829 O   0  0  0  0  0  0  0  0  0  0  0  0
   24.4332  -22.5057  -15.3266 C   0  0  0  0  0  0  0  0  0  0  0  0
   24.2552  -23.1580  -14.2691 O   0  0  0  0  0  0  0  0  0  0  0  0
   26.9105  -25.8338  -18.6662 O   0  0  0  0  0  0  0  0  0  0  0  0
   22.4483  -19.3017  -14.8855 C   0  0  0  0  0  0  0  0  0  0  0  0
   22.8044  -20.7374  -14.5692 C   0  0  2  0  0  0  0  0  0  0  0  0
   23.7295  -21.3016  -15.4985 N   0  0  0  0  0  0  0  0  0  0  0  0
   21.5518  -21.5099  -14.4481 C   0  0  0  0  0  0  0  0  0  0  0  0
   21.0444  -22.1233  -15.4191 O   0  0  0  0  0  0  0  0  0  0  0  0
   18.1777  -24.9487  -11.4346 N   0  0  0  0  0  0  0  0  0  0  0  0
   18.1434  -23.5331  -11.4875 C   0  0  0  0  0  0  0  0  0  0  0  0
   17.0232  -22.9805  -11.4009 O   0  0  0  0  0  0  0  0  0  0  0  0
   19.3726  -22.7380  -11.6383 C   0  0  0  0  0  0  0  0  0  0  0  0
   19.6129  -22.3356  -13.0796 C   0  0  2  0  0  0  0  0  0  0  0  0
   20.8454  -21.5965  -13.1949 N   0  0  0  0  0  0  0  0  0  0  0  0
   18.4908  -21.5606  -13.6204 C   0  0  0  0  0  0  0  0  0  0  0  0
   17.4007  -22.1318  -14.2596 O   0  0  0  0  0  0  0  0  0  0  0  0
   18.4911  -20.3108  -13.5128 O   0  0  0  0  0  0  0  0  0  0  0  0
  2  1  1  1
  3  2  1  0
  4  3  1  0
  4  5  1  0
  5  6  2  0
  7  2  1  0
  8  7  2  0
  9  5  1  0
 11 10  1  6
 11 12  1  0
 11 13  1  0
 12  7  1  0
 13 20  1  0
 14 13  2  0
 16 17  2  0
 16 15  1  0
 18 16  1  0
 19 18  1  1
 19 21  1  0
 20 19  1  0
 21 23  2  0
 21 22  1  0
M  END
$$$$
