EAN.pdb
     RDKit          3D

 23 22  0  0  1  0  0  0  0  0999 V2000
   19.8329  -11.0308  -15.7195 N   0  0  0  0  0  0  0  0  0  0  0  0
   19.7876   -9.5754  -15.7104 C   0  0  1  0  0  0  0  0  0  0  0  0
   18.5173   -9.1449  -16.3732 C   0  0  0  0  0  0  0  0  0  0  0  0
   18.5451   -9.1827  -17.8684 C   0  0  0  0  0  0  0  0  0  0  0  0
   17.2761   -8.7577  -18.5042 C   0  0  0  0  0  0  0  0  0  0  0  0
   16.3969   -9.5838  -18.8093 O   0  0  0  0  0  0  0  0  0  0  0  0
   19.7197   -9.0804  -14.2886 C   0  0  0  0  0  0  0  0  0  0  0  0
   19.0351   -9.7317  -13.4624 O   0  0  0  0  0  0  0  0  0  0  0  0
   17.0121   -7.4197  -18.7874 O   0  0  0  0  0  0  0  0  0  0  0  0
   21.2648   -6.2198  -12.3168 C   0  0  0  0  0  0  0  0  0  0  0  0
   20.3055   -7.3693  -12.5329 C   0  0  2  0  0  0  0  0  0  0  0  0
   20.3859   -7.9254  -13.8452 N   0  0  0  0  0  0  0  0  0  0  0  0
   18.9478   -6.9143  -12.1722 C   0  0  0  0  0  0  0  0  0  0  0  0
   18.1688   -6.3954  -13.0092 O   0  0  0  0  0  0  0  0  0  0  0  0
   14.6228   -5.8011   -9.5388 N   0  0  0  0  0  0  0  0  0  0  0  0
   15.3561   -6.7243   -8.7528 C   0  0  0  0  0  0  0  0  0  0  0  0
   14.8091   -7.1574   -7.7131 O   0  0  0  0  0  0  0  0  0  0  0  0
   16.7077   -7.1608   -9.1378 C   0  0  0  0  0  0  0  0  0  0  0  0
   17.1374   -6.5674  -10.4646 C   0  0  2  0  0  0  0  0  0  0  0  0
   18.4481   -7.0463  -10.8269 N   0  0  0  0  0  0  0  0  0  0  0  0
   17.1103   -5.1009  -10.4368 C   0  0  0  0  0  0  0  0  0  0  0  0
   15.9590   -4.3507  -10.6238 O   0  0  0  0  0  0  0  0  0  0  0  0
   18.1723   -4.4645  -10.2346 O   0  0  0  0  0  0  0  0  0  0  0  0
  2  1  1  1
  3  2  1  0
  4  3  1  0
  4  5  1  0
  5  6  2  0
  7  2  1  0
  8  7  2  0
  9  5  1  0
 11 10  1  6
 11 12  1  0
 11 13  1  0
 12  7  1  0
 13 20  1  0
 14 13  2  0
 16 17  2  0
 16 15  1  0
 18 16  1  0
 19 18  1  1
 19 21  1  0
 20 19  1  0
 21 23  2  0
 21 22  1  0
M  END
$$$$
