EAN.pdb
     RDKit          3D

 23 22  0  0  1  0  0  0  0  0999 V2000
   15.6598  -11.5916  -13.9250 N   0  0  0  0  0  0  0  0  0  0  0  0
   17.0424  -11.5920  -14.3819 C   0  0  1  0  0  0  0  0  0  0  0  0
   17.1611  -12.5724  -15.5058 C   0  0  0  0  0  0  0  0  0  0  0  0
   16.8650  -13.9911  -15.1354 C   0  0  0  0  0  0  0  0  0  0  0  0
   16.7316  -14.9006  -16.2975 C   0  0  0  0  0  0  0  0  0  0  0  0
   16.5061  -16.1150  -16.1462 O   0  0  0  0  0  0  0  0  0  0  0  0
   17.3870  -10.2404  -14.9524 C   0  0  0  0  0  0  0  0  0  0  0  0
   18.5339  -10.0710  -15.4335 O   0  0  0  0  0  0  0  0  0  0  0  0
   16.8523  -14.4381  -17.6058 O   0  0  0  0  0  0  0  0  0  0  0  0
   15.5003   -7.0354  -15.6930 C   0  0  0  0  0  0  0  0  0  0  0  0
   16.7514   -7.8637  -15.5007 C   0  0  2  0  0  0  0  0  0  0  0  0
   16.4860   -9.1623  -14.9708 N   0  0  0  0  0  0  0  0  0  0  0  0
   17.7040   -7.0827  -14.6864 C   0  0  0  0  0  0  0  0  0  0  0  0
   17.7157   -7.1351  -13.4319 O   0  0  0  0  0  0  0  0  0  0  0  0
   22.4939   -5.3782  -12.8171 N   0  0  0  0  0  0  0  0  0  0  0  0
   22.0012   -5.0128  -14.0944 C   0  0  0  0  0  0  0  0  0  0  0  0
   22.4282   -3.9467  -14.5930 O   0  0  0  0  0  0  0  0  0  0  0  0
   21.0258   -5.8492  -14.8119 C   0  0  0  0  0  0  0  0  0  0  0  0
   19.5982   -5.4416  -14.5068 C   0  0  2  0  0  0  0  0  0  0  0  0
   18.6757   -6.2140  -15.3012 N   0  0  0  0  0  0  0  0  0  0  0  0
   19.3878   -4.0052  -14.7176 C   0  0  0  0  0  0  0  0  0  0  0  0
   19.6777   -3.0390  -13.7658 O   0  0  0  0  0  0  0  0  0  0  0  0
   18.9212   -3.6001  -15.8093 O   0  0  0  0  0  0  0  0  0  0  0  0
  2  1  1  6
  3  2  1  0
  4  3  1  0
  4  5  1  0
  5  6  2  0
  7  2  1  0
  8  7  2  0
  9  5  1  0
 11 10  1  1
 11 12  1  0
 11 13  1  0
 12  7  1  0
 13 20  1  0
 14 13  2  0
 16 17  2  0
 16 15  1  0
 18 16  1  0
 19 18  1  6
 19 21  1  0
 20 19  1  0
 21 23  2  0
 21 22  1  0
M  END
$$$$
