ENV.pdb
     RDKit          3D

 25 24  0  0  1  0  0  0  0  0999 V2000
    8.4059  -17.8353   19.5519 N   0  0  0  0  0  0  0  0  0  0  0  0
    9.1274  -17.8627   20.7845 C   0  0  1  0  0  0  0  0  0  0  0  0
   10.3678  -17.0424   20.7985 C   0  0  0  0  0  0  0  0  0  0  0  0
   11.2809  -17.1380   19.6386 C   0  0  0  0  0  0  0  0  0  0  0  0
   12.3918  -16.1982   19.6961 C   0  0  0  0  0  0  0  0  0  0  0  0
   12.6719  -15.3900   20.5962 O   0  0  0  0  0  0  0  0  0  0  0  0
    8.2267  -17.2649   21.8468 C   0  0  0  0  0  0  0  0  0  0  0  0
    7.4567  -16.3576   21.5095 O   0  0  0  0  0  0  0  0  0  0  0  0
   13.2771  -16.1887   18.5955 O   0  0  0  0  0  0  0  0  0  0  0  0
    5.2198  -19.2944   23.9255 N   0  0  0  0  0  0  0  0  0  0  0  0
    6.4444  -19.4449   24.6127 C   0  0  0  0  0  0  0  0  0  0  0  0
    6.9823  -20.5549   24.6902 O   0  0  0  0  0  0  0  0  0  0  0  0
    7.0661  -18.2558   25.2334 C   0  0  0  0  0  0  0  0  0  0  0  0
    7.4662  -17.2373   24.2192 C   0  0  2  0  0  0  0  0  0  0  0  0
    8.2874  -17.7505   23.1720 N   0  0  0  0  0  0  0  0  0  0  0  0
    8.0763  -16.0591   24.9285 C   0  0  0  0  0  0  0  0  0  0  0  0
    9.3136  -16.0165   25.0175 O   0  0  0  0  0  0  0  0  0  0  0  0
    6.1470  -12.4457   25.0497 C   0  0  0  0  0  0  0  0  0  0  0  0
    6.7821  -12.8012   26.3542 C   0  0  2  0  0  0  0  0  0  0  0  0
    7.4168  -11.6349   27.0629 C   0  0  0  0  0  0  0  0  0  0  0  0
    7.8018  -13.8938   26.1412 C   0  0  2  0  0  0  0  0  0  0  0  0
    7.2520  -15.0401   25.4708 N   0  0  0  0  0  0  0  0  0  0  0  0
    8.3566  -14.3075   27.4518 C   0  0  0  0  0  0  0  0  0  0  0  0
    9.0450  -13.5604   28.1878 O   0  0  0  0  0  0  0  0  0  0  0  0
    8.1240  -15.6020   27.9397 O   0  0  0  0  0  0  0  0  0  0  0  0
  2  1  1  6
  2  7  1  0
  3  4  1  0
  3  2  1  0
  5  4  1  0
  6  5  2  0
  7  8  2  0
  9  5  1  0
 11 10  1  0
 11 12  2  0
 14 13  1  1
 13 11  1  0
 15  7  1  0
 15 14  1  0
 16 14  1  0
 16 17  2  0
 19 18  1  6
 19 21  1  0
 20 19  1  0
 21 23  1  0
 21 22  1  1
 22 16  1  0
 23 25  1  0
 24 23  2  0
M  END
$$$$
