ENV.pdb
     RDKit          3D

 25 24  0  0  1  0  0  0  0  0999 V2000
    9.2570  -14.6356   18.8391 N   0  0  0  0  0  0  0  0  0  0  0  0
    9.7879  -15.5504   19.7992 C   0  0  1  0  0  0  0  0  0  0  0  0
   11.1858  -15.2685   20.2215 C   0  0  0  0  0  0  0  0  0  0  0  0
   11.7199  -13.9067   20.0019 C   0  0  0  0  0  0  0  0  0  0  0  0
   13.1106  -13.8920   19.5701 C   0  0  0  0  0  0  0  0  0  0  0  0
   14.0799  -14.4840   20.0720 O   0  0  0  0  0  0  0  0  0  0  0  0
    8.9461  -15.4256   21.0534 C   0  0  0  0  0  0  0  0  0  0  0  0
    8.3583  -14.3556   21.2523 O   0  0  0  0  0  0  0  0  0  0  0  0
   13.4182  -13.1091   18.4353 O   0  0  0  0  0  0  0  0  0  0  0  0
    5.4785  -17.4122   24.7338 N   0  0  0  0  0  0  0  0  0  0  0  0
    6.8395  -17.7719   24.8488 C   0  0  0  0  0  0  0  0  0  0  0  0
    7.3261  -18.0198   25.9574 O   0  0  0  0  0  0  0  0  0  0  0  0
    7.6648  -17.8455   23.6244 C   0  0  0  0  0  0  0  0  0  0  0  0
    8.0244  -16.4930   23.1073 C   0  0  2  0  0  0  0  0  0  0  0  0
    8.8549  -16.5151   21.9480 N   0  0  0  0  0  0  0  0  0  0  0  0
    8.6001  -15.6794   24.2343 C   0  0  0  0  0  0  0  0  0  0  0  0
    9.8304  -15.7075   24.3964 O   0  0  0  0  0  0  0  0  0  0  0  0
    6.0692  -13.6896   27.1680 C   0  0  0  0  0  0  0  0  0  0  0  0
    7.3091  -13.0614   26.6207 C   0  0  2  0  0  0  0  0  0  0  0  0
    7.0583  -12.0914   25.4976 C   0  0  0  0  0  0  0  0  0  0  0  0
    8.2669  -14.1378   26.1700 C   0  0  2  0  0  0  0  0  0  0  0  0
    7.7526  -14.9116   25.0735 N   0  0  0  0  0  0  0  0  0  0  0  0
    8.5657  -15.0357   27.3106 C   0  0  0  0  0  0  0  0  0  0  0  0
    8.1790  -16.2269   27.3837 O   0  0  0  0  0  0  0  0  0  0  0  0
    9.3227  -14.5700   28.3959 O   0  0  0  0  0  0  0  0  0  0  0  0
  2  1  1  6
  2  7  1  0
  3  4  1  0
  3  2  1  0
  5  4  1  0
  6  5  2  0
  7  8  2  0
  9  5  1  0
 11 10  1  0
 11 12  2  0
 14 13  1  1
 13 11  1  0
 15  7  1  0
 15 14  1  0
 16 14  1  0
 16 17  2  0
 19 18  1  6
 19 21  1  0
 20 19  1  0
 21 23  1  0
 21 22  1  6
 22 16  1  0
 23 25  1  0
 24 23  2  0
M  END
$$$$
