ENV.pdb
     RDKit          3D

 25 24  0  0  1  0  0  0  0  0999 V2000
   10.2698  -17.5227   20.6509 N   0  0  0  0  0  0  0  0  0  0  0  0
    9.4179  -16.4949   20.1426 C   0  0  1  0  0  0  0  0  0  0  0  0
    8.5541  -16.9080   19.0046 C   0  0  0  0  0  0  0  0  0  0  0  0
    7.8491  -18.2050   19.0985 C   0  0  0  0  0  0  0  0  0  0  0  0
    6.9547  -18.4613   17.9782 C   0  0  0  0  0  0  0  0  0  0  0  0
    6.7818  -17.7757   16.9575 O   0  0  0  0  0  0  0  0  0  0  0  0
    8.4695  -16.1036   21.2582 C   0  0  0  0  0  0  0  0  0  0  0  0
    7.6047  -15.2542   21.0118 O   0  0  0  0  0  0  0  0  0  0  0  0
    6.1738  -19.6368   18.0411 O   0  0  0  0  0  0  0  0  0  0  0  0
    6.6750  -19.6412   23.0934 N   0  0  0  0  0  0  0  0  0  0  0  0
    6.2775  -18.3579   23.5293 C   0  0  0  0  0  0  0  0  0  0  0  0
    5.1675  -17.9115   23.2194 O   0  0  0  0  0  0  0  0  0  0  0  0
    7.2097  -17.5645   24.3582 C   0  0  0  0  0  0  0  0  0  0  0  0
    7.7434  -16.3794   23.6254 C   0  0  2  0  0  0  0  0  0  0  0  0
    8.5941  -16.7081   22.5288 N   0  0  0  0  0  0  0  0  0  0  0  0
    8.3847  -15.4450   24.6148 C   0  0  0  0  0  0  0  0  0  0  0  0
    9.5880  -15.6117   24.8697 O   0  0  0  0  0  0  0  0  0  0  0  0
    5.9666  -12.7265   26.9357 C   0  0  0  0  0  0  0  0  0  0  0  0
    7.3494  -12.3470   26.5169 C   0  0  2  0  0  0  0  0  0  0  0  0
    7.3981  -11.4559   25.3050 C   0  0  0  0  0  0  0  0  0  0  0  0
    8.1666  -13.5932   26.2755 C   0  0  2  0  0  0  0  0  0  0  0  0
    7.6267  -14.4136   25.2262 N   0  0  0  0  0  0  0  0  0  0  0  0
    8.2402  -14.3804   27.5291 C   0  0  0  0  0  0  0  0  0  0  0  0
    7.6519  -15.4745   27.7043 O   0  0  0  0  0  0  0  0  0  0  0  0
    9.0011  -13.9142   28.6115 O   0  0  0  0  0  0  0  0  0  0  0  0
  2  1  1  1
  2  7  1  0
  3  4  1  0
  3  2  1  0
  5  4  1  0
  6  5  2  0
  7  8  2  0
  9  5  1  0
 11 10  1  0
 11 12  2  0
 14 13  1  1
 13 11  1  0
 15  7  1  0
 15 14  1  0
 16 14  1  0
 16 17  2  0
 19 18  1  6
 19 21  1  0
 20 19  1  0
 21 23  1  0
 21 22  1  6
 22 16  1  0
 23 25  1  0
 24 23  2  0
M  END
$$$$
