ENV.pdb
     RDKit          3D

 25 24  0  0  1  0  0  0  0  0999 V2000
    7.4688  -18.5935   19.7241 N   0  0  0  0  0  0  0  0  0  0  0  0
    8.0185  -17.3776   20.2340 C   0  0  1  0  0  0  0  0  0  0  0  0
    7.8250  -16.1911   19.3584 C   0  0  0  0  0  0  0  0  0  0  0  0
    8.4607  -14.9170   19.7592 C   0  0  0  0  0  0  0  0  0  0  0  0
    8.3378  -13.8674   18.7572 C   0  0  0  0  0  0  0  0  0  0  0  0
    7.5005  -13.7659   17.8459 O   0  0  0  0  0  0  0  0  0  0  0  0
    7.2894  -17.0602   21.5243 C   0  0  0  0  0  0  0  0  0  0  0  0
    6.1005  -16.7268   21.4507 O   0  0  0  0  0  0  0  0  0  0  0  0
    9.2836  -12.8196   18.8114 O   0  0  0  0  0  0  0  0  0  0  0  0
    7.0465  -20.3060   23.8727 N   0  0  0  0  0  0  0  0  0  0  0  0
    6.4200  -19.1339   24.3506 C   0  0  0  0  0  0  0  0  0  0  0  0
    5.1910  -19.0174   24.2932 O   0  0  0  0  0  0  0  0  0  0  0  0
    7.2584  -18.0561   24.9174 C   0  0  0  0  0  0  0  0  0  0  0  0
    7.3466  -16.8763   24.0083 C   0  0  2  0  0  0  0  0  0  0  0  0
    7.9733  -17.1516   22.7570 N   0  0  0  0  0  0  0  0  0  0  0  0
    7.9847  -15.7356   24.7533 C   0  0  0  0  0  0  0  0  0  0  0  0
    9.2033  -15.5564   24.6004 O   0  0  0  0  0  0  0  0  0  0  0  0
    5.8574  -12.4027   25.8629 C   0  0  0  0  0  0  0  0  0  0  0  0
    6.7552  -12.9048   26.9461 C   0  0  2  0  0  0  0  0  0  0  0  0
    7.4286  -11.8149   27.7360 C   0  0  0  0  0  0  0  0  0  0  0  0
    7.7909  -13.8322   26.3577 C   0  0  2  0  0  0  0  0  0  0  0  0
    7.2063  -14.9025   25.5973 N   0  0  0  0  0  0  0  0  0  0  0  0
    8.6185  -14.3972   27.4497 C   0  0  0  0  0  0  0  0  0  0  0  0
    8.4640  -15.5497   27.9205 O   0  0  0  0  0  0  0  0  0  0  0  0
    9.6476  -13.6349   28.0220 O   0  0  0  0  0  0  0  0  0  0  0  0
  2  1  1  6
  2  7  1  0
  3  4  1  0
  3  2  1  0
  5  4  1  0
  6  5  2  0
  7  8  2  0
  9  5  1  0
 11 10  1  0
 11 12  2  0
 14 13  1  1
 13 11  1  0
 15  7  1  0
 15 14  1  0
 16 14  1  0
 16 17  2  0
 19 18  1  6
 19 21  1  0
 20 19  1  0
 21 23  1  0
 21 22  1  1
 22 16  1  0
 23 25  1  0
 24 23  2  0
M  END
$$$$
