YDA.pdb
     RDKit          3D

 26 26  0  0  1  0  0  0  0  0999 V2000
   25.2972   -9.9758  -24.4178 O   0  0  0  0  0  0  0  0  0  0  0  0
   24.4371   -9.5196  -23.4130 C   0  0  0  0  0  0  0  0  0  0  0  0
   24.9193   -8.9570  -22.2499 C   0  0  0  0  0  0  0  0  0  0  0  0
   24.0719   -8.5060  -21.2572 C   0  0  0  0  0  0  0  0  0  0  0  0
   22.6975   -8.5960  -21.3798 C   0  0  0  0  0  0  0  0  0  0  0  0
   21.8093   -8.1007  -20.2957 C   0  0  0  0  0  0  0  0  0  0  0  0
   21.7105   -9.0900  -19.1556 C   0  0  2  0  0  0  0  0  0  0  0  0
   21.0943  -10.3126  -19.5883 N   0  0  0  0  0  0  0  0  0  0  0  0
   20.9090   -8.4143  -18.0814 C   0  0  0  0  0  0  0  0  0  0  0  0
   19.6594   -8.3676  -18.2237 O   0  0  0  0  0  0  0  0  0  0  0  0
   22.2119   -9.1577  -22.5403 C   0  0  0  0  0  0  0  0  0  0  0  0
   23.0673   -9.6132  -23.5428 C   0  0  0  0  0  0  0  0  0  0  0  0
   21.4830   -7.8412  -16.9426 N   0  0  0  0  0  0  0  0  0  0  0  0
   20.6318   -7.2801  -15.8642 C   0  0  1  0  0  0  0  0  0  0  0  0
   21.2652   -7.8103  -14.6019 C   0  0  0  0  0  0  0  0  0  0  0  0
   20.5852   -7.4388  -13.3644 C   0  0  0  0  0  0  0  0  0  0  0  0
   19.6216   -6.6381  -13.3937 O   0  0  0  0  0  0  0  0  0  0  0  0
   20.6908   -5.8232  -15.9382 C   0  0  0  0  0  0  0  0  0  0  0  0
   21.7470   -5.2623  -16.3541 O   0  0  0  0  0  0  0  0  0  0  0  0
   21.0091   -7.9748  -12.1576 O   0  0  0  0  0  0  0  0  0  0  0  0
   20.0430   -3.1852  -17.1979 C   0  0  0  0  0  0  0  0  0  0  0  0
   19.7601   -3.5146  -15.7368 C   0  0  2  0  0  0  0  0  0  0  0  0
   19.6284   -4.9661  -15.5757 N   0  0  0  0  0  0  0  0  0  0  0  0
   18.5599   -2.8055  -15.3429 C   0  0  0  0  0  0  0  0  0  0  0  0
   18.5794   -1.5329  -15.3284 O   0  0  0  0  0  0  0  0  0  0  0  0
   17.3723   -3.3952  -14.9751 O   0  0  0  0  0  0  0  0  0  0  0  0
  2  1  1  0
  2  3  2  0
  4  3  1  0
  5  4  2  0
  6  5  1  0
  7  6  1  0
  7  9  1  0
  7  8  1  6
  9 10  2  0
  9 13  1  0
 11 12  2  0
 11  5  1  0
 12  2  1  0
 13 14  1  0
 14 15  1  1
 15 16  1  0
 16 17  2  0
 16 20  1  0
 18 14  1  0
 18 23  1  0
 19 18  2  0
 22 21  1  6
 22 23  1  0
 22 24  1  0
 24 26  1  0
 25 24  2  0
M  END
$$$$
