YDA.pdb
     RDKit          3D

 26 26  0  0  1  0  0  0  0  0999 V2000
   29.6190  -20.1564   -3.8001 O   0  0  0  0  0  0  0  0  0  0  0  0
   28.8131  -20.0974   -4.9422 C   0  0  0  0  0  0  0  0  0  0  0  0
   29.0334  -19.1651   -5.9343 C   0  0  0  0  0  0  0  0  0  0  0  0
   28.2392  -19.1055   -7.0625 C   0  0  0  0  0  0  0  0  0  0  0  0
   27.1833  -19.9777   -7.2537 C   0  0  0  0  0  0  0  0  0  0  0  0
   26.3459  -19.8915   -8.4788 C   0  0  0  0  0  0  0  0  0  0  0  0
   26.7990  -20.8717   -9.5380 C   0  0  2  0  0  0  0  0  0  0  0  0
   28.2073  -20.7443   -9.7870 N   0  0  0  0  0  0  0  0  0  0  0  0
   25.9888  -20.5688  -10.7647 C   0  0  0  0  0  0  0  0  0  0  0  0
   26.2662  -19.5228  -11.4073 O   0  0  0  0  0  0  0  0  0  0  0  0
   26.9598  -20.9104   -6.2647 C   0  0  0  0  0  0  0  0  0  0  0  0
   27.7616  -20.9708   -5.1254 C   0  0  0  0  0  0  0  0  0  0  0  0
   24.9514  -21.3882  -11.2198 N   0  0  0  0  0  0  0  0  0  0  0  0
   24.1637  -21.0182  -12.4218 C   0  0  1  0  0  0  0  0  0  0  0  0
   24.2812  -22.2327  -13.3090 C   0  0  0  0  0  0  0  0  0  0  0  0
   25.4782  -22.2763  -14.1439 C   0  0  0  0  0  0  0  0  0  0  0  0
   25.8142  -21.2710  -14.8125 O   0  0  0  0  0  0  0  0  0  0  0  0
   22.7846  -20.7683  -12.0130 C   0  0  0  0  0  0  0  0  0  0  0  0
   22.4829  -20.8009  -10.7838 O   0  0  0  0  0  0  0  0  0  0  0  0
   26.2414  -23.4332  -14.1942 O   0  0  0  0  0  0  0  0  0  0  0  0
   20.6183  -18.6495  -11.7303 C   0  0  0  0  0  0  0  0  0  0  0  0
   20.4388  -20.0056  -12.4028 C   0  0  2  0  0  0  0  0  0  0  0  0
   21.7310  -20.4796  -12.9083 N   0  0  0  0  0  0  0  0  0  0  0  0
   19.4565  -19.8554  -13.4568 C   0  0  0  0  0  0  0  0  0  0  0  0
   19.8470  -19.9052  -14.6673 O   0  0  0  0  0  0  0  0  0  0  0  0
   18.1080  -19.6600  -13.2653 O   0  0  0  0  0  0  0  0  0  0  0  0
  2  1  1  0
  2  3  2  0
  4  3  1  0
  5  4  2  0
  6  5  1  0
  7  6  1  0
  7  9  1  0
  7  8  1  6
  9 10  2  0
  9 13  1  0
 11 12  2  0
 11  5  1  0
 12  2  1  0
 13 14  1  0
 14 15  1  6
 15 16  1  0
 16 17  2  0
 16 20  1  0
 18 14  1  0
 18 23  1  0
 19 18  2  0
 22 21  1  6
 22 23  1  0
 22 24  1  0
 24 26  1  0
 25 24  2  0
M  END
$$$$
