YDA.pdb
     RDKit          3D

 26 26  0  0  1  0  0  0  0  0999 V2000
   28.2418  -20.0938   -5.6230 O   0  0  0  0  0  0  0  0  0  0  0  0
   27.8443  -20.0910   -6.9644 C   0  0  0  0  0  0  0  0  0  0  0  0
   28.7632  -20.1640   -7.9902 C   0  0  0  0  0  0  0  0  0  0  0  0
   28.3727  -20.1617   -9.3148 C   0  0  0  0  0  0  0  0  0  0  0  0
   27.0408  -20.0861   -9.6788 C   0  0  0  0  0  0  0  0  0  0  0  0
   26.6494  -20.0872  -11.1127 C   0  0  0  0  0  0  0  0  0  0  0  0
   26.3229  -21.4801  -11.6040 C   0  0  2  0  0  0  0  0  0  0  0  0
   27.5190  -22.1999  -11.9398 N   0  0  0  0  0  0  0  0  0  0  0  0
   25.4269  -21.3061  -12.7956 C   0  0  0  0  0  0  0  0  0  0  0  0
   25.9674  -21.0550  -13.9041 O   0  0  0  0  0  0  0  0  0  0  0  0
   26.1198  -20.0129   -8.6569 C   0  0  0  0  0  0  0  0  0  0  0  0
   26.5138  -20.0151   -7.3193 C   0  0  0  0  0  0  0  0  0  0  0  0
   24.0342  -21.4093  -12.7291 N   0  0  0  0  0  0  0  0  0  0  0  0
   23.2097  -21.3597  -13.9620 C   0  0  1  0  0  0  0  0  0  0  0  0
   22.2423  -22.5039  -13.7866 C   0  0  0  0  0  0  0  0  0  0  0  0
   22.6912  -23.7831  -14.3287 C   0  0  0  0  0  0  0  0  0  0  0  0
   23.2363  -23.8305  -15.4561 O   0  0  0  0  0  0  0  0  0  0  0  0
   22.5299  -20.0687  -14.0128 C   0  0  0  0  0  0  0  0  0  0  0  0
   22.0159  -19.5926  -12.9582 O   0  0  0  0  0  0  0  0  0  0  0  0
   22.5125  -24.9445  -13.5919 O   0  0  0  0  0  0  0  0  0  0  0  0
   21.7930  -17.3156  -16.4951 C   0  0  0  0  0  0  0  0  0  0  0  0
   21.7047  -17.9951  -15.1335 C   0  0  2  0  0  0  0  0  0  0  0  0
   22.4014  -19.2845  -15.1805 N   0  0  0  0  0  0  0  0  0  0  0  0
   20.3034  -18.1382  -14.7953 C   0  0  0  0  0  0  0  0  0  0  0  0
   19.6788  -19.1695  -15.2034 O   0  0  0  0  0  0  0  0  0  0  0  0
   19.5682  -17.2409  -14.0553 O   0  0  0  0  0  0  0  0  0  0  0  0
  2  1  1  0
  2  3  2  0
  4  3  1  0
  5  4  2  0
  6  5  1  0
  7  6  1  0
  7  9  1  0
  7  8  1  6
  9 10  2  0
  9 13  1  0
 11 12  2  0
 11  5  1  0
 12  2  1  0
 13 14  1  0
 14 15  1  1
 15 16  1  0
 16 17  2  0
 16 20  1  0
 18 14  1  0
 18 23  1  0
 19 18  2  0
 22 21  1  6
 22 23  1  0
 22 24  1  0
 24 26  1  0
 25 24  2  0
M  END
$$$$
