YDA.pdb
     RDKit          3D

 26 26  0  0  1  0  0  0  0  0999 V2000
   28.1567  -15.3273  -17.7480 O   0  0  0  0  0  0  0  0  0  0  0  0
   27.0024  -16.0097  -17.3488 C   0  0  0  0  0  0  0  0  0  0  0  0
   26.4291  -16.9835  -18.1394 C   0  0  0  0  0  0  0  0  0  0  0  0
   25.2899  -17.6582  -17.7469 C   0  0  0  0  0  0  0  0  0  0  0  0
   24.6672  -17.3912  -16.5415 C   0  0  0  0  0  0  0  0  0  0  0  0
   23.4428  -18.1344  -16.1440 C   0  0  0  0  0  0  0  0  0  0  0  0
   23.7309  -19.1529  -15.0634 C   0  0  2  0  0  0  0  0  0  0  0  0
   24.6584  -20.1459  -15.5275 N   0  0  0  0  0  0  0  0  0  0  0  0
   22.4083  -19.7585  -14.6935 C   0  0  0  0  0  0  0  0  0  0  0  0
   22.0801  -20.8371  -15.2530 O   0  0  0  0  0  0  0  0  0  0  0  0
   25.2367  -16.4189  -15.7489 C   0  0  0  0  0  0  0  0  0  0  0  0
   26.3870  -15.7374  -16.1451 C   0  0  0  0  0  0  0  0  0  0  0  0
   21.5349  -19.1839  -13.7653 N   0  0  0  0  0  0  0  0  0  0  0  0
   20.3094  -19.9000  -13.3320 C   0  0  1  0  0  0  0  0  0  0  0  0
   20.1773  -19.5259  -11.8765 C   0  0  0  0  0  0  0  0  0  0  0  0
   20.9518  -20.3496  -10.9526 C   0  0  0  0  0  0  0  0  0  0  0  0
   20.9569  -21.5966  -11.0765 O   0  0  0  0  0  0  0  0  0  0  0  0
   19.1847  -19.4165  -14.1275 C   0  0  0  0  0  0  0  0  0  0  0  0
   19.1102  -18.1867  -14.4191 O   0  0  0  0  0  0  0  0  0  0  0  0
   21.6813  -19.7473   -9.9384 O   0  0  0  0  0  0  0  0  0  0  0  0
   16.2714  -20.7659  -16.0936 C   0  0  0  0  0  0  0  0  0  0  0  0
   17.0389  -19.6578  -15.3819 C   0  0  2  0  0  0  0  0  0  0  0  0
   18.1453  -20.2391  -14.6152 N   0  0  0  0  0  0  0  0  0  0  0  0
   16.1055  -18.9363  -14.5413 C   0  0  0  0  0  0  0  0  0  0  0  0
   16.0426  -19.2319  -13.3048 O   0  0  0  0  0  0  0  0  0  0  0  0
   15.2611  -17.9365  -14.9665 O   0  0  0  0  0  0  0  0  0  0  0  0
  2  1  1  0
  2  3  2  0
  4  3  1  0
  5  4  2  0
  6  5  1  0
  7  6  1  0
  7  9  1  0
  7  8  1  6
  9 10  2  0
  9 13  1  0
 11 12  2  0
 11  5  1  0
 12  2  1  0
 13 14  1  0
 14 15  1  1
 15 16  1  0
 16 17  2  0
 16 20  1  0
 18 14  1  0
 18 23  1  0
 19 18  2  0
 22 21  1  1
 22 23  1  0
 22 24  1  0
 24 26  1  0
 25 24  2  0
M  END
$$$$
