YDA.pdb
     RDKit          3D

 26 26  0  0  1  0  0  0  0  0999 V2000
   11.4190   -5.2432   -7.2768 O   0  0  0  0  0  0  0  0  0  0  0  0
   12.5616   -5.6780   -7.9573 C   0  0  0  0  0  0  0  0  0  0  0  0
   13.7603   -5.8746   -7.3042 C   0  0  0  0  0  0  0  0  0  0  0  0
   14.8889   -6.3039   -7.9741 C   0  0  0  0  0  0  0  0  0  0  0  0
   14.8735   -6.5581   -9.3333 C   0  0  0  0  0  0  0  0  0  0  0  0
   16.1033   -7.0210  -10.0282 C   0  0  0  0  0  0  0  0  0  0  0  0
   15.8881   -8.3453  -10.7268 C   0  0  2  0  0  0  0  0  0  0  0  0
   15.7339   -9.4091   -9.7749 N   0  0  0  0  0  0  0  0  0  0  0  0
   17.0865   -8.5562  -11.6057 C   0  0  0  0  0  0  0  0  0  0  0  0
   18.0425   -9.2306  -11.1418 O   0  0  0  0  0  0  0  0  0  0  0  0
   13.6780   -6.3627   -9.9893 C   0  0  0  0  0  0  0  0  0  0  0  0
   12.5382   -5.9291   -9.3131 C   0  0  0  0  0  0  0  0  0  0  0  0
   17.1862   -8.0424  -12.9021 N   0  0  0  0  0  0  0  0  0  0  0  0
   18.3972   -8.2870  -13.7243 C   0  0  1  0  0  0  0  0  0  0  0  0
   17.8400   -8.7831  -15.0355 C   0  0  0  0  0  0  0  0  0  0  0  0
   18.8337   -9.0356  -16.0749 C   0  0  0  0  0  0  0  0  0  0  0  0
   19.9166   -9.5960  -15.7852 O   0  0  0  0  0  0  0  0  0  0  0  0
   19.1168   -7.0258  -13.8756 C   0  0  0  0  0  0  0  0  0  0  0  0
   18.4658   -5.9513  -14.0327 O   0  0  0  0  0  0  0  0  0  0  0  0
   18.5751   -8.6536  -17.3828 O   0  0  0  0  0  0  0  0  0  0  0  0
   22.6521   -5.7062  -13.7900 C   0  0  0  0  0  0  0  0  0  0  0  0
   21.1612   -5.6080  -14.0918 C   0  0  2  0  0  0  0  0  0  0  0  0
   20.5241   -6.9072  -13.8549 N   0  0  0  0  0  0  0  0  0  0  0  0
   21.0109   -5.1625  -15.4620 C   0  0  0  0  0  0  0  0  0  0  0  0
   20.7760   -6.0295  -16.3639 O   0  0  0  0  0  0  0  0  0  0  0  0
   21.1001   -3.8572  -15.8882 O   0  0  0  0  0  0  0  0  0  0  0  0
  2  1  1  0
  2  3  2  0
  4  3  1  0
  5  4  2  0
  6  5  1  0
  7  6  1  0
  7  9  1  0
  7  8  1  1
  9 10  2  0
  9 13  1  0
 11 12  2  0
 11  5  1  0
 12  2  1  0
 13 14  1  0
 14 15  1  6
 15 16  1  0
 16 17  2  0
 16 20  1  0
 18 14  1  0
 18 23  1  0
 19 18  2  0
 22 21  1  6
 22 23  1  0
 22 24  1  0
 24 26  1  0
 25 24  2  0
M  END
$$$$
