YDA.pdb
     RDKit          3D

 26 26  0  0  1  0  0  0  0  0999 V2000
   27.1600  -11.4289  -22.6838 O   0  0  0  0  0  0  0  0  0  0  0  0
   26.2207  -10.7366  -21.9117 C   0  0  0  0  0  0  0  0  0  0  0  0
   26.2469  -10.7785  -20.5335 C   0  0  0  0  0  0  0  0  0  0  0  0
   25.3209  -10.0956  -19.7697 C   0  0  0  0  0  0  0  0  0  0  0  0
   24.3212   -9.3358  -20.3488 C   0  0  0  0  0  0  0  0  0  0  0  0
   23.3388   -8.6099  -19.5018 C   0  0  0  0  0  0  0  0  0  0  0  0
   22.2602   -9.5320  -18.9780 C   0  0  2  0  0  0  0  0  0  0  0  0
   21.4747  -10.0671  -20.0542 N   0  0  0  0  0  0  0  0  0  0  0  0
   21.4268   -8.7119  -18.0369 C   0  0  0  0  0  0  0  0  0  0  0  0
   20.4695   -8.0546  -18.5222 O   0  0  0  0  0  0  0  0  0  0  0  0
   24.2916   -9.2916  -21.7254 C   0  0  0  0  0  0  0  0  0  0  0  0
   25.2264   -9.9811  -22.4968 C   0  0  0  0  0  0  0  0  0  0  0  0
   21.6644   -8.6468  -16.6607 N   0  0  0  0  0  0  0  0  0  0  0  0
   20.7998   -7.8233  -15.7794 C   0  0  1  0  0  0  0  0  0  0  0  0
   20.6365   -8.6771  -14.5465 C   0  0  0  0  0  0  0  0  0  0  0  0
   19.7155   -9.8011  -14.6890 C   0  0  0  0  0  0  0  0  0  0  0  0
   18.5811   -9.6233  -15.1909 O   0  0  0  0  0  0  0  0  0  0  0  0
   21.4915   -6.5702  -15.4919 C   0  0  0  0  0  0  0  0  0  0  0  0
   22.6906   -6.5985  -15.0866 O   0  0  0  0  0  0  0  0  0  0  0  0
   20.1005  -11.0650  -14.2674 O   0  0  0  0  0  0  0  0  0  0  0  0
   20.9107   -2.8504  -15.7761 C   0  0  0  0  0  0  0  0  0  0  0  0
   21.6900   -4.0854  -15.3393 C   0  0  2  0  0  0  0  0  0  0  0  0
   20.9112   -5.2909  -15.6396 N   0  0  0  0  0  0  0  0  0  0  0  0
   21.9797   -3.9546  -13.9260 C   0  0  0  0  0  0  0  0  0  0  0  0
   22.6952   -2.9763  -13.5372 O   0  0  0  0  0  0  0  0  0  0  0  0
   21.5414   -4.8105  -12.9417 O   0  0  0  0  0  0  0  0  0  0  0  0
  2  1  1  0
  2  3  2  0
  4  3  1  0
  5  4  2  0
  6  5  1  0
  7  6  1  0
  7  9  1  0
  7  8  1  6
  9 10  2  0
  9 13  1  0
 11 12  2  0
 11  5  1  0
 12  2  1  0
 13 14  1  0
 14 15  1  1
 15 16  1  0
 16 17  2  0
 16 20  1  0
 18 14  1  0
 18 23  1  0
 19 18  2  0
 22 21  1  1
 22 23  1  0
 22 24  1  0
 24 26  1  0
 25 24  2  0
M  END
$$$$
