YDA.pdb
     RDKit          3D

 26 26  0  0  1  0  0  0  0  0999 V2000
   20.9857  -18.8750  -14.8458 O   0  0  0  0  0  0  0  0  0  0  0  0
   21.2134  -17.5288  -15.1514 C   0  0  0  0  0  0  0  0  0  0  0  0
   20.1726  -16.6377  -15.3086 C   0  0  0  0  0  0  0  0  0  0  0  0
   20.3954  -15.3086  -15.6099 C   0  0  0  0  0  0  0  0  0  0  0  0
   21.6733  -14.8047  -15.7691 C   0  0  0  0  0  0  0  0  0  0  0  0
   21.8834  -13.3691  -16.0918 C   0  0  0  0  0  0  0  0  0  0  0  0
   21.5531  -13.0646  -17.5362 C   0  0  2  0  0  0  0  0  0  0  0  0
   22.4982  -13.6852  -18.4211 N   0  0  0  0  0  0  0  0  0  0  0  0
   21.5712  -11.5693  -17.6650 C   0  0  0  0  0  0  0  0  0  0  0  0
   22.6581  -11.0213  -17.9848 O   0  0  0  0  0  0  0  0  0  0  0  0
   22.7157  -15.6919  -15.6131 C   0  0  0  0  0  0  0  0  0  0  0  0
   22.4910  -17.0340  -15.3089 C   0  0  0  0  0  0  0  0  0  0  0  0
   20.4466  -10.7675  -17.4480 N   0  0  0  0  0  0  0  0  0  0  0  0
   20.4744   -9.3186  -17.7674 C   0  0  1  0  0  0  0  0  0  0  0  0
   19.1013   -9.0550  -18.3340 C   0  0  0  0  0  0  0  0  0  0  0  0
   18.8628   -7.6809  -18.7660 C   0  0  0  0  0  0  0  0  0  0  0  0
   19.7721   -6.8244  -18.6652 O   0  0  0  0  0  0  0  0  0  0  0  0
   20.7106   -8.5765  -16.5325 C   0  0  0  0  0  0  0  0  0  0  0  0
   20.1833   -8.9774  -15.4535 O   0  0  0  0  0  0  0  0  0  0  0  0
   17.6276   -7.3273  -19.2880 O   0  0  0  0  0  0  0  0  0  0  0  0
   22.6919   -5.5951  -15.3200 C   0  0  0  0  0  0  0  0  0  0  0  0
   21.7210   -6.7580  -15.1510 C   0  0  2  0  0  0  0  0  0  0  0  0
   21.5089   -7.4146  -16.4447 N   0  0  0  0  0  0  0  0  0  0  0  0
   20.4916   -6.2360  -14.5901 C   0  0  0  0  0  0  0  0  0  0  0  0
   20.5191   -5.7318  -13.4216 O   0  0  0  0  0  0  0  0  0  0  0  0
   19.2679   -6.2344  -15.2194 O   0  0  0  0  0  0  0  0  0  0  0  0
  2  1  1  0
  2  3  2  0
  4  3  1  0
  5  4  2  0
  6  5  1  0
  7  6  1  0
  7  9  1  0
  7  8  1  6
  9 10  2  0
  9 13  1  0
 11 12  2  0
 11  5  1  0
 12  2  1  0
 13 14  1  0
 14 15  1  1
 15 16  1  0
 16 17  2  0
 16 20  1  0
 18 14  1  0
 18 23  1  0
 19 18  2  0
 22 21  1  6
 22 23  1  0
 22 24  1  0
 24 26  1  0
 25 24  2  0
M  END
$$$$
