YDA.pdb
     RDKit          3D

 26 26  0  0  1  0  0  0  0  0999 V2000
   24.2287  -14.1909  -22.5983 O   0  0  0  0  0  0  0  0  0  0  0  0
   23.4956  -13.2919  -21.8161 C   0  0  0  0  0  0  0  0  0  0  0  0
   22.1911  -12.9653  -22.1221 C   0  0  0  0  0  0  0  0  0  0  0  0
   21.4659  -12.0784  -21.3511 C   0  0  0  0  0  0  0  0  0  0  0  0
   22.0115  -11.4735  -20.2336 C   0  0  0  0  0  0  0  0  0  0  0  0
   21.2068  -10.5239  -19.4212 C   0  0  0  0  0  0  0  0  0  0  0  0
   20.4842  -11.2244  -18.2919 C   0  0  2  0  0  0  0  0  0  0  0  0
   19.5077  -12.1460  -18.8004 N   0  0  0  0  0  0  0  0  0  0  0  0
   19.8501  -10.1441  -17.4649 C   0  0  0  0  0  0  0  0  0  0  0  0
   18.7862   -9.6257  -17.8933 O   0  0  0  0  0  0  0  0  0  0  0  0
   23.3145  -11.7970  -19.9248 C   0  0  0  0  0  0  0  0  0  0  0  0
   24.0471  -12.6925  -20.7032 C   0  0  0  0  0  0  0  0  0  0  0  0
   20.3831   -9.6936  -16.2534 N   0  0  0  0  0  0  0  0  0  0  0  0
   19.7213   -8.6061  -15.4908 C   0  0  1  0  0  0  0  0  0  0  0  0
   19.2910   -9.2818  -14.2126 C   0  0  0  0  0  0  0  0  0  0  0  0
   18.6317   -8.4114  -13.2433 C   0  0  0  0  0  0  0  0  0  0  0  0
   18.5915   -8.7360  -12.0336 O   0  0  0  0  0  0  0  0  0  0  0  0
   20.6982   -7.5480  -15.2507 C   0  0  0  0  0  0  0  0  0  0  0  0
   21.8529   -7.8497  -14.8279 O   0  0  0  0  0  0  0  0  0  0  0  0
   18.0509   -7.2250  -13.6659 O   0  0  0  0  0  0  0  0  0  0  0  0
   21.0389   -3.8134  -15.6964 C   0  0  0  0  0  0  0  0  0  0  0  0
   21.5014   -5.1837  -15.2149 C   0  0  2  0  0  0  0  0  0  0  0  0
   20.4494   -6.1742  -15.4641 N   0  0  0  0  0  0  0  0  0  0  0  0
   21.8337   -5.0749  -13.8091 C   0  0  0  0  0  0  0  0  0  0  0  0
   21.0712   -5.6329  -12.9563 O   0  0  0  0  0  0  0  0  0  0  0  0
   22.9242   -4.4086  -13.2989 O   0  0  0  0  0  0  0  0  0  0  0  0
  2  1  1  0
  2  3  2  0
  4  3  1  0
  5  4  2  0
  6  5  1  0
  7  6  1  0
  7  9  1  0
  7  8  1  6
  9 10  2  0
  9 13  1  0
 11 12  2  0
 11  5  1  0
 12  2  1  0
 13 14  1  0
 14 15  1  1
 15 16  1  0
 16 17  2  0
 16 20  1  0
 18 14  1  0
 18 23  1  0
 19 18  2  0
 22 21  1  1
 22 23  1  0
 22 24  1  0
 24 26  1  0
 25 24  2  0
M  END
$$$$
