KTG.pdb
     RDKit          3D

 21 20  0  0  1  0  0  0  0  0999 V2000
   -6.3104  -21.6712   27.1636 N   0  0  0  0  0  0  0  0  0  0  0  0
   -6.1701  -23.0357   26.7293 C   0  0  1  0  0  0  0  0  0  0  0  0
   -4.9896  -23.2034   25.8748 C   0  0  0  0  0  0  0  0  0  0  0  0
   -4.9972  -22.2726   24.7116 C   0  0  0  0  0  0  0  0  0  0  0  0
   -3.7466  -21.5022   24.4474 C   0  0  0  0  0  0  0  0  0  0  0  0
   -3.9067  -20.6839   23.1402 C   0  0  0  0  0  0  0  0  0  0  0  0
   -2.6675  -20.0243   22.8168 N   0  0  0  0  0  0  0  0  0  0  0  0
   -6.2450  -23.9239   27.9022 C   0  0  0  0  0  0  0  0  0  0  0  0
   -5.9758  -23.4084   29.0145 O   0  0  0  0  0  0  0  0  0  0  0  0
   -9.1855  -26.4330   28.4413 C   0  0  0  0  0  0  0  0  0  0  0  0
   -7.9104  -27.0695   28.8951 C   0  0  1  0  0  0  0  0  0  0  0  0
   -7.5600  -28.0523   27.9677 O   0  0  0  0  0  0  0  0  0  0  0  0
   -6.7837  -26.0322   29.0348 C   0  0  2  0  0  0  0  0  0  0  0  0
   -6.6003  -25.3031   27.8267 N   0  0  0  0  0  0  0  0  0  0  0  0
   -5.5840  -26.6984   29.5439 C   0  0  0  0  0  0  0  0  0  0  0  0
   -4.8619  -27.3030   28.7134 O   0  0  0  0  0  0  0  0  0  0  0  0
   -5.1605  -26.7230   30.8990 N   0  0  0  0  0  0  0  0  0  0  0  0
   -3.9892  -27.4590   31.3266 C   0  0  0  0  0  0  0  0  0  0  0  0
   -3.8645  -27.4802   32.8056 C   0  0  0  0  0  0  0  0  0  0  0  0
   -4.7005  -26.6505   33.5364 O   0  0  0  0  0  0  0  0  0  0  0  0
   -3.0535  -28.1984   33.4402 O   0  0  0  0  0  0  0  0  0  0  0  0
  2  1  1  1
  3  2  1  0
  4  3  1  0
  5  6  1  0
  5  4  1  0
  7  6  1  0
  8  2  1  0
  8  9  2  0
 11 10  1  6
 11 12  1  0
 13 14  1  6
 13 11  1  0
 14  8  1  0
 15 13  1  0
 16 15  2  0
 17 15  1  0
 18 17  1  0
 19 18  1  0
 19 20  1  0
 21 19  2  0
M  END
$$$$
