KTG.pdb
     RDKit          3D

 21 20  0  0  1  0  0  0  0  0999 V2000
    9.4580  -17.2949   15.9797 N   0  0  0  0  0  0  0  0  0  0  0  0
   10.0790  -18.0123   17.0614 C   0  0  1  0  0  0  0  0  0  0  0  0
   11.4670  -18.3618   16.7404 C   0  0  0  0  0  0  0  0  0  0  0  0
   11.5561  -19.4914   15.7731 C   0  0  0  0  0  0  0  0  0  0  0  0
   12.9210  -19.9864   15.4278 C   0  0  0  0  0  0  0  0  0  0  0  0
   12.8129  -21.1090   14.3638 C   0  0  0  0  0  0  0  0  0  0  0  0
   12.1865  -20.5992   13.1710 N   0  0  0  0  0  0  0  0  0  0  0  0
    9.8789  -17.2622   18.3133 C   0  0  0  0  0  0  0  0  0  0  0  0
   10.4598  -16.1530   18.4019 O   0  0  0  0  0  0  0  0  0  0  0  0
    7.5580  -16.3599   22.5498 C   0  0  0  0  0  0  0  0  0  0  0  0
    7.7099  -17.2638   21.3680 C   0  0  1  0  0  0  0  0  0  0  0  0
    6.5829  -17.1143   20.5577 O   0  0  0  0  0  0  0  0  0  0  0  0
    8.9898  -16.9445   20.5776 C   0  0  2  0  0  0  0  0  0  0  0  0
    9.0764  -17.7313   19.3951 N   0  0  0  0  0  0  0  0  0  0  0  0
   10.1414  -17.0474   21.4751 C   0  0  0  0  0  0  0  0  0  0  0  0
   11.1075  -17.7549   21.0973 O   0  0  0  0  0  0  0  0  0  0  0  0
   10.2657  -16.4162   22.7410 N   0  0  0  0  0  0  0  0  0  0  0  0
   11.5234  -16.3667   23.4567 C   0  0  0  0  0  0  0  0  0  0  0  0
   11.4104  -15.5799   24.7104 C   0  0  0  0  0  0  0  0  0  0  0  0
   12.5268  -15.5039   25.5283 O   0  0  0  0  0  0  0  0  0  0  0  0
   10.3725  -14.9784   25.0807 O   0  0  0  0  0  0  0  0  0  0  0  0
  2  1  1  6
  3  2  1  0
  4  3  1  0
  5  6  1  0
  5  4  1  0
  7  6  1  0
  8  2  1  0
  8  9  2  0
 11 10  1  1
 11 12  1  0
 13 14  1  6
 13 11  1  0
 14  8  1  0
 15 13  1  0
 16 15  2  0
 17 15  1  0
 18 17  1  0
 19 18  1  0
 19 20  1  0
 21 19  2  0
M  END
$$$$
