KTG.pdb
     RDKit          3D

 21 20  0  0  1  0  0  0  0  0999 V2000
    8.2851  -17.3481   18.7484 N   0  0  0  0  0  0  0  0  0  0  0  0
    9.2203  -16.7346   19.6535 C   0  0  1  0  0  0  0  0  0  0  0  0
    8.6158  -15.5946   20.3511 C   0  0  0  0  0  0  0  0  0  0  0  0
    8.4510  -14.4106   19.4619 C   0  0  0  0  0  0  0  0  0  0  0  0
    7.7468  -13.2242   20.0308 C   0  0  0  0  0  0  0  0  0  0  0  0
    7.6990  -12.0916   18.9730 C   0  0  0  0  0  0  0  0  0  0  0  0
    6.8751  -11.0091   19.4468 N   0  0  0  0  0  0  0  0  0  0  0  0
    9.8096  -17.7749   20.5141 C   0  0  0  0  0  0  0  0  0  0  0  0
    9.0513  -18.7139   20.8588 O   0  0  0  0  0  0  0  0  0  0  0  0
   13.2310  -19.5619   20.0135 C   0  0  0  0  0  0  0  0  0  0  0  0
   13.0810  -19.1933   21.4552 C   0  0  1  0  0  0  0  0  0  0  0  0
   13.9400  -18.1261   21.7234 O   0  0  0  0  0  0  0  0  0  0  0  0
   11.6285  -18.8151   21.7899 C   0  0  2  0  0  0  0  0  0  0  0  0
   11.1651  -17.7582   20.9575 N   0  0  0  0  0  0  0  0  0  0  0  0
   11.5217  -18.5628   23.2276 C   0  0  0  0  0  0  0  0  0  0  0  0
   11.7174  -17.3878   23.6246 O   0  0  0  0  0  0  0  0  0  0  0  0
   11.2152  -19.5317   24.2195 N   0  0  0  0  0  0  0  0  0  0  0  0
   11.0879  -19.1866   25.6199 C   0  0  0  0  0  0  0  0  0  0  0  0
   12.3749  -19.3441   26.3427 C   0  0  0  0  0  0  0  0  0  0  0  0
   12.3730  -19.1505   27.7152 O   0  0  0  0  0  0  0  0  0  0  0  0
   13.4653  -19.6409   25.7958 O   0  0  0  0  0  0  0  0  0  0  0  0
  2  1  1  1
  3  2  1  0
  4  3  1  0
  5  6  1  0
  5  4  1  0
  7  6  1  0
  8  2  1  0
  8  9  2  0
 11 10  1  6
 11 12  1  0
 13 14  1  6
 13 11  1  0
 14  8  1  0
 15 13  1  0
 16 15  2  0
 17 15  1  0
 18 17  1  0
 19 18  1  0
 19 20  1  0
 21 19  2  0
M  END
$$$$
