KTG.pdb
     RDKit          3D

 21 20  0  0  1  0  0  0  0  0999 V2000
    5.7361  -19.0470   18.9841 N   0  0  0  0  0  0  0  0  0  0  0  0
    5.4132  -17.9494   19.8566 C   0  0  1  0  0  0  0  0  0  0  0  0
    4.7662  -18.4198   21.0862 C   0  0  0  0  0  0  0  0  0  0  0  0
    3.5498  -19.2341   20.8089 C   0  0  0  0  0  0  0  0  0  0  0  0
    2.5533  -19.3674   21.9118 C   0  0  0  0  0  0  0  0  0  0  0  0
    1.3562  -20.2268   21.4296 C   0  0  0  0  0  0  0  0  0  0  0  0
    0.3905  -20.3656   22.4894 N   0  0  0  0  0  0  0  0  0  0  0  0
    6.6117  -17.1132   20.0413 C   0  0  0  0  0  0  0  0  0  0  0  0
    7.7085  -17.7168   20.1326 O   0  0  0  0  0  0  0  0  0  0  0  0
    8.8928  -12.7274   20.2231 C   0  0  0  0  0  0  0  0  0  0  0  0
    7.6252  -13.4845   19.9849 C   0  0  1  0  0  0  0  0  0  0  0  0
    7.2510  -13.2991   18.6527 O   0  0  0  0  0  0  0  0  0  0  0  0
    7.7983  -14.9809   20.2942 C   0  0  2  0  0  0  0  0  0  0  0  0
    6.5769  -15.6894   20.1181 N   0  0  0  0  0  0  0  0  0  0  0  0
    8.4129  -15.1259   21.6146 C   0  0  0  0  0  0  0  0  0  0  0  0
    7.6688  -14.9903   22.6168 O   0  0  0  0  0  0  0  0  0  0  0  0
    9.7818  -15.4075   21.8661 N   0  0  0  0  0  0  0  0  0  0  0  0
   10.2934  -15.6072   23.2058 C   0  0  0  0  0  0  0  0  0  0  0  0
   11.7705  -15.7552   23.2124 C   0  0  0  0  0  0  0  0  0  0  0  0
   12.4067  -15.8309   24.4415 O   0  0  0  0  0  0  0  0  0  0  0  0
   12.4831  -15.8166   22.1806 O   0  0  0  0  0  0  0  0  0  0  0  0
  2  1  1  6
  3  2  1  0
  4  3  1  0
  5  6  1  0
  5  4  1  0
  7  6  1  0
  8  2  1  0
  8  9  2  0
 11 10  1  6
 11 12  1  0
 13 14  1  1
 13 11  1  0
 14  8  1  0
 15 13  1  0
 16 15  2  0
 17 15  1  0
 18 17  1  0
 19 18  1  0
 19 20  1  0
 21 19  2  0
M  END
$$$$
