KTG.pdb
     RDKit          3D

 21 20  0  0  1  0  0  0  0  0999 V2000
    6.3746  -15.9485   20.6014 N   0  0  0  0  0  0  0  0  0  0  0  0
    7.6048  -15.2941   20.9599 C   0  0  1  0  0  0  0  0  0  0  0  0
    7.4345  -13.8385   21.0224 C   0  0  0  0  0  0  0  0  0  0  0  0
    7.1356  -13.2467   19.6882 C   0  0  0  0  0  0  0  0  0  0  0  0
    8.0969  -13.5357   18.5839 C   0  0  0  0  0  0  0  0  0  0  0  0
    7.6077  -12.8576   17.2782 C   0  0  0  0  0  0  0  0  0  0  0  0
    8.4141  -13.2906   16.1659 N   0  0  0  0  0  0  0  0  0  0  0  0
    8.1519  -15.9291   22.1713 C   0  0  0  0  0  0  0  0  0  0  0  0
    7.3234  -16.2613   23.0538 O   0  0  0  0  0  0  0  0  0  0  0  0
   10.0206  -19.0259   22.0909 C   0  0  0  0  0  0  0  0  0  0  0  0
    9.4950  -18.4152   23.3509 C   0  0  1  0  0  0  0  0  0  0  0  0
    9.9507  -19.1779   24.4276 O   0  0  0  0  0  0  0  0  0  0  0  0
    9.9455  -16.9520   23.4961 C   0  0  2  0  0  0  0  0  0  0  0  0
    9.5422  -16.1738   22.3752 N   0  0  0  0  0  0  0  0  0  0  0  0
   11.3797  -16.9223   23.7864 C   0  0  0  0  0  0  0  0  0  0  0  0
   12.1329  -16.4022   22.9268 O   0  0  0  0  0  0  0  0  0  0  0  0
   11.9998  -17.4310   24.9582 N   0  0  0  0  0  0  0  0  0  0  0  0
   13.4035  -17.2171   25.2414 C   0  0  0  0  0  0  0  0  0  0  0  0
   13.7748  -17.7230   26.5867 C   0  0  0  0  0  0  0  0  0  0  0  0
   15.1078  -17.6491   26.9595 O   0  0  0  0  0  0  0  0  0  0  0  0
   12.9639  -18.2134   27.4102 O   0  0  0  0  0  0  0  0  0  0  0  0
  2  1  1  1
  3  2  1  0
  4  3  1  0
  5  6  1  0
  5  4  1  0
  7  6  1  0
  8  2  1  0
  8  9  2  0
 11 10  1  6
 11 12  1  0
 13 14  1  6
 13 11  1  0
 14  8  1  0
 15 13  1  0
 16 15  2  0
 17 15  1  0
 18 17  1  0
 19 18  1  0
 19 20  1  0
 21 19  2  0
M  END
$$$$
