LPN.pdb
     RDKit          3D

 24 24  0  0  1  0  0  0  0  0999 V2000
   24.9816  -13.4469  -14.9386 C   0  0  0  0  0  0  0  0  0  0  0  0
   23.7224  -13.4684  -15.8024 C   0  0  2  0  0  0  0  0  0  0  0  0
   24.1085  -14.1007  -17.1211 C   0  0  0  0  0  0  0  0  0  0  0  0
   23.2971  -12.0605  -16.0606 C   0  0  0  0  0  0  0  0  0  0  0  0
   21.9675  -11.9830  -16.7887 C   0  0  2  0  0  0  0  0  0  0  0  0
   22.2472  -12.3430  -18.1870 N   0  0  0  0  0  0  0  0  0  0  0  0
   21.4743  -10.5831  -16.7193 C   0  0  0  0  0  0  0  0  0  0  0  0
   21.9208   -9.7734  -17.6046 O   0  0  0  0  0  0  0  0  0  0  0  0
   20.5630  -10.0868  -15.7676 N   0  0  0  0  0  0  0  0  0  0  0  0
   19.9248  -10.8532  -14.7437 C   0  0  0  0  0  0  0  0  0  0  0  0
   18.5694  -10.2030  -14.6032 C   0  0  0  0  0  0  0  0  0  0  0  0
   18.6507   -8.8929  -15.3171 C   0  0  0  0  0  0  0  0  0  0  0  0
   20.1384   -8.7284  -15.6422 C   0  0  1  0  0  0  0  0  0  0  0  0
   20.8574   -7.9396  -14.6303 C   0  0  0  0  0  0  0  0  0  0  0  0
   21.7966   -8.5356  -14.0060 O   0  0  0  0  0  0  0  0  0  0  0  0
   23.6655   -3.6968  -14.4290 N   0  0  0  0  0  0  0  0  0  0  0  0
   23.3650   -4.4682  -15.6137 C   0  0  0  0  0  0  0  0  0  0  0  0
   24.0733   -4.2205  -16.6325 O   0  0  0  0  0  0  0  0  0  0  0  0
   22.2840   -5.4771  -15.5898 C   0  0  0  0  0  0  0  0  0  0  0  0
   21.6220   -5.5785  -14.2410 C   0  0  2  0  0  0  0  0  0  0  0  0
   20.5926   -6.6072  -14.3050 N   0  0  0  0  0  0  0  0  0  0  0  0
   20.9991   -4.2451  -13.9681 C   0  0  0  0  0  0  0  0  0  0  0  0
   19.9881   -3.8778  -14.6306 O   0  0  0  0  0  0  0  0  0  0  0  0
   21.4736   -3.3637  -13.0094 O   0  0  0  0  0  0  0  0  0  0  0  0
  2  1  1  1
  3  2  1  0
  4  5  1  0
  4  2  1  0
  5  7  1  0
  5  6  1  6
  7  9  1  0
  7  8  2  0
  9 10  1  0
 10 11  1  0
 12 11  1  0
 13  9  1  0
 13 12  1  0
 14 15  2  0
 13 14  1  1
 16 17  1  0
 17 18  2  0
 17 19  1  0
 20 19  1  6
 20 21  1  0
 20 22  1  0
 21 14  1  0
 22 24  1  0
 23 22  2  0
M  END
$$$$
