LPN.pdb
     RDKit          3D

 24 24  0  0  1  0  0  0  0  0999 V2000
   28.6761  -16.9673  -15.6590 C   0  0  0  0  0  0  0  0  0  0  0  0
   27.2416  -16.9388  -16.1821 C   0  0  2  0  0  0  0  0  0  0  0  0
   26.7053  -15.5511  -15.9097 C   0  0  0  0  0  0  0  0  0  0  0  0
   26.4301  -17.9201  -15.4022 C   0  0  0  0  0  0  0  0  0  0  0  0
   26.9039  -19.3485  -15.6004 C   0  0  2  0  0  0  0  0  0  0  0  0
   26.9623  -19.5603  -17.0547 N   0  0  0  0  0  0  0  0  0  0  0  0
   25.9003  -20.2645  -14.9991 C   0  0  0  0  0  0  0  0  0  0  0  0
   25.0975  -20.8463  -15.8087 O   0  0  0  0  0  0  0  0  0  0  0  0
   25.7689  -20.5394  -13.6244 N   0  0  0  0  0  0  0  0  0  0  0  0
   26.5512  -19.9590  -12.5783 C   0  0  0  0  0  0  0  0  0  0  0  0
   26.6623  -21.0671  -11.5587 C   0  0  0  0  0  0  0  0  0  0  0  0
   25.6464  -22.0956  -11.9367 C   0  0  0  0  0  0  0  0  0  0  0  0
   24.8150  -21.4240  -13.0338 C   0  0  1  0  0  0  0  0  0  0  0  0
   23.6019  -20.7768  -12.5116 C   0  0  0  0  0  0  0  0  0  0  0  0
   23.7474  -19.6102  -12.0167 O   0  0  0  0  0  0  0  0  0  0  0  0
   19.0710  -19.2890  -14.2859 N   0  0  0  0  0  0  0  0  0  0  0  0
   20.4227  -18.9069  -14.6261 C   0  0  0  0  0  0  0  0  0  0  0  0
   20.5399  -17.9739  -15.4728 O   0  0  0  0  0  0  0  0  0  0  0  0
   21.5707  -19.5942  -13.9962 C   0  0  0  0  0  0  0  0  0  0  0  0
   21.1399  -20.6269  -12.9883 C   0  0  2  0  0  0  0  0  0  0  0  0
   22.3215  -21.3354  -12.5153 N   0  0  0  0  0  0  0  0  0  0  0  0
   20.2276  -21.5718  -13.7061 C   0  0  0  0  0  0  0  0  0  0  0  0
   20.6708  -22.2644  -14.6652 O   0  0  0  0  0  0  0  0  0  0  0  0
   18.8918  -21.7397  -13.3772 O   0  0  0  0  0  0  0  0  0  0  0  0
  2  1  1  1
  3  2  1  0
  4  5  1  0
  4  2  1  0
  5  7  1  0
  5  6  1  6
  7  9  1  0
  7  8  2  0
  9 10  1  0
 10 11  1  0
 12 11  1  0
 13  9  1  0
 13 12  1  0
 14 15  2  0
 13 14  1  1
 16 17  1  0
 17 18  2  0
 17 19  1  0
 20 19  1  6
 20 21  1  0
 20 22  1  0
 21 14  1  0
 22 24  1  0
 23 22  2  0
M  END
$$$$
