LPN.pdb
     RDKit          3D

 24 24  0  0  1  0  0  0  0  0999 V2000
   27.1061  -20.6663  -20.1905 C   0  0  0  0  0  0  0  0  0  0  0  0
   26.7158  -22.1076  -19.8701 C   0  0  2  0  0  0  0  0  0  0  0  0
   25.3728  -22.3513  -20.5216 C   0  0  0  0  0  0  0  0  0  0  0  0
   26.5543  -22.2404  -18.3915 C   0  0  0  0  0  0  0  0  0  0  0  0
   27.8470  -21.9716  -17.6428 C   0  0  2  0  0  0  0  0  0  0  0  0
   28.6768  -23.1732  -17.8181 N   0  0  0  0  0  0  0  0  0  0  0  0
   27.5271  -21.7875  -16.2035 C   0  0  0  0  0  0  0  0  0  0  0  0
   27.6115  -22.8262  -15.4600 O   0  0  0  0  0  0  0  0  0  0  0  0
   27.1458  -20.5725  -15.6027 N   0  0  0  0  0  0  0  0  0  0  0  0
   26.8299  -19.3621  -16.2943 C   0  0  0  0  0  0  0  0  0  0  0  0
   27.3145  -18.2799  -15.3595 C   0  0  0  0  0  0  0  0  0  0  0  0
   27.5652  -18.9379  -14.0416 C   0  0  0  0  0  0  0  0  0  0  0  0
   26.9820  -20.3451  -14.2018 C   0  0  1  0  0  0  0  0  0  0  0  0
   25.5999  -20.4469  -13.7093 C   0  0  0  0  0  0  0  0  0  0  0  0
   24.7758  -19.5748  -14.1424 O   0  0  0  0  0  0  0  0  0  0  0  0
   25.9090  -19.9824   -8.6174 N   0  0  0  0  0  0  0  0  0  0  0  0
   25.6181  -20.6903   -9.8435 C   0  0  0  0  0  0  0  0  0  0  0  0
   26.1882  -21.8108   -9.9867 O   0  0  0  0  0  0  0  0  0  0  0  0
   24.7018  -20.1006  -10.8432 C   0  0  0  0  0  0  0  0  0  0  0  0
   24.1377  -21.1317  -11.7848 C   0  0  2  0  0  0  0  0  0  0  0  0
   25.1285  -21.4112  -12.8153 N   0  0  0  0  0  0  0  0  0  0  0  0
   22.9141  -20.5269  -12.3993 C   0  0  0  0  0  0  0  0  0  0  0  0
   23.0311  -19.5813  -13.2288 O   0  0  0  0  0  0  0  0  0  0  0  0
   21.6265  -20.9492  -12.1085 O   0  0  0  0  0  0  0  0  0  0  0  0
  2  1  1  1
  3  2  1  0
  4  5  1  0
  4  2  1  0
  5  7  1  0
  5  6  1  1
  7  9  1  0
  7  8  2  0
  9 10  1  0
 10 11  1  0
 12 11  1  0
 13  9  1  0
 13 12  1  0
 14 15  2  0
 13 14  1  6
 16 17  1  0
 17 18  2  0
 17 19  1  0
 20 19  1  1
 20 21  1  0
 20 22  1  0
 21 14  1  0
 22 24  1  0
 23 22  2  0
M  END
$$$$
