LPN.pdb
     RDKit          3D

 24 24  0  0  1  0  0  0  0  0999 V2000
   23.8826  -16.4759  -18.8833 C   0  0  0  0  0  0  0  0  0  0  0  0
   22.8586  -17.1238  -17.9539 C   0  0  2  0  0  0  0  0  0  0  0  0
   22.0876  -15.9980  -17.3014 C   0  0  0  0  0  0  0  0  0  0  0  0
   23.5886  -17.8749  -16.8896 C   0  0  0  0  0  0  0  0  0  0  0  0
   24.2101  -19.1579  -17.4108 C   0  0  2  0  0  0  0  0  0  0  0  0
   23.1073  -19.9369  -17.9942 N   0  0  0  0  0  0  0  0  0  0  0  0
   24.7951  -19.8973  -16.2625 C   0  0  0  0  0  0  0  0  0  0  0  0
   24.0573  -20.7924  -15.7211 O   0  0  0  0  0  0  0  0  0  0  0  0
   26.0837  -19.6926  -15.7331 N   0  0  0  0  0  0  0  0  0  0  0  0
   27.0037  -18.6788  -16.1440 C   0  0  0  0  0  0  0  0  0  0  0  0
   28.3540  -19.3347  -15.9814 C   0  0  0  0  0  0  0  0  0  0  0  0
   28.1327  -20.5647  -15.1623 C   0  0  0  0  0  0  0  0  0  0  0  0
   26.6852  -20.4433  -14.6768 C   0  0  1  0  0  0  0  0  0  0  0  0
   26.5827  -19.8359  -13.3413 C   0  0  0  0  0  0  0  0  0  0  0  0
   26.3880  -18.5759  -13.3027 O   0  0  0  0  0  0  0  0  0  0  0  0
   23.7617  -19.9489   -9.1190 N   0  0  0  0  0  0  0  0  0  0  0  0
   23.3719  -20.5076  -10.3936 C   0  0  0  0  0  0  0  0  0  0  0  0
   22.1473  -20.7995  -10.5212 O   0  0  0  0  0  0  0  0  0  0  0  0
   24.3797  -20.7084  -11.4570 C   0  0  0  0  0  0  0  0  0  0  0  0
   25.7664  -20.3209  -11.0155 C   0  0  2  0  0  0  0  0  0  0  0  0
   26.6824  -20.5241  -12.1297 N   0  0  0  0  0  0  0  0  0  0  0  0
   26.1255  -21.2314   -9.8830 C   0  0  0  0  0  0  0  0  0  0  0  0
   26.2217  -22.4749  -10.0844 O   0  0  0  0  0  0  0  0  0  0  0  0
   26.3654  -20.7855   -8.5928 O   0  0  0  0  0  0  0  0  0  0  0  0
  2  1  1  6
  3  2  1  0
  4  5  1  0
  4  2  1  0
  5  7  1  0
  5  6  1  1
  7  9  1  0
  7  8  2  0
  9 10  1  0
 10 11  1  0
 12 11  1  0
 13  9  1  0
 13 12  1  0
 14 15  2  0
 13 14  1  1
 16 17  1  0
 17 18  2  0
 17 19  1  0
 20 19  1  6
 20 21  1  0
 20 22  1  0
 21 14  1  0
 22 24  1  0
 23 22  2  0
M  END
$$$$
