LPN.pdb
     RDKit          3D

 24 24  0  0  1  0  0  0  0  0999 V2000
   21.8797  -18.0522  -15.0761 C   0  0  0  0  0  0  0  0  0  0  0  0
   21.4569  -16.9619  -16.0583 C   0  0  2  0  0  0  0  0  0  0  0  0
   19.9466  -17.0004  -16.1296 C   0  0  0  0  0  0  0  0  0  0  0  0
   22.0018  -17.2981  -17.4074 C   0  0  0  0  0  0  0  0  0  0  0  0
   23.4798  -16.9745  -17.5305 C   0  0  2  0  0  0  0  0  0  0  0  0
   23.7759  -16.9640  -18.9711 N   0  0  0  0  0  0  0  0  0  0  0  0
   24.2544  -18.0544  -16.8661 C   0  0  0  0  0  0  0  0  0  0  0  0
   24.0736  -19.2432  -17.3055 O   0  0  0  0  0  0  0  0  0  0  0  0
   25.1623  -17.8715  -15.8056 N   0  0  0  0  0  0  0  0  0  0  0  0
   25.4291  -16.6358  -15.1386 C   0  0  0  0  0  0  0  0  0  0  0  0
   26.8926  -16.7324  -14.7797 C   0  0  0  0  0  0  0  0  0  0  0  0
   27.2813  -18.1634  -14.9632 C   0  0  0  0  0  0  0  0  0  0  0  0
   25.9539  -18.8917  -15.1942 C   0  0  1  0  0  0  0  0  0  0  0  0
   25.3950  -19.4602  -13.9583 C   0  0  0  0  0  0  0  0  0  0  0  0
   24.5374  -18.7461  -13.3406 O   0  0  0  0  0  0  0  0  0  0  0  0
   21.5965  -22.6400  -13.1742 N   0  0  0  0  0  0  0  0  0  0  0  0
   22.8463  -23.0589  -13.7670 C   0  0  0  0  0  0  0  0  0  0  0  0
   22.9880  -24.3040  -13.9429 O   0  0  0  0  0  0  0  0  0  0  0  0
   23.8702  -22.0558  -14.1305 C   0  0  0  0  0  0  0  0  0  0  0  0
   24.7382  -21.6707  -12.9617 C   0  0  2  0  0  0  0  0  0  0  0  0
   25.7283  -20.7041  -13.4169 N   0  0  0  0  0  0  0  0  0  0  0  0
   25.4170  -22.9229  -12.5013 C   0  0  0  0  0  0  0  0  0  0  0  0
   26.2043  -23.5318  -13.2793 O   0  0  0  0  0  0  0  0  0  0  0  0
   25.2317  -23.4719  -11.2423 O   0  0  0  0  0  0  0  0  0  0  0  0
  2  1  1  1
  3  2  1  0
  4  5  1  0
  4  2  1  0
  5  7  1  0
  5  6  1  6
  7  9  1  0
  7  8  2  0
  9 10  1  0
 10 11  1  0
 12 11  1  0
 13  9  1  0
 13 12  1  0
 14 15  2  0
 13 14  1  1
 16 17  1  0
 17 18  2  0
 17 19  1  0
 20 19  1  6
 20 21  1  0
 20 22  1  0
 21 14  1  0
 22 24  1  0
 23 22  2  0
M  END
$$$$
