LPN.pdb
     RDKit          3D

 24 24  0  0  1  0  0  0  0  0999 V2000
   21.6086  -24.4556    2.0671 C   0  0  0  0  0  0  0  0  0  0  0  0
   20.6174  -25.3989    2.7453 C   0  0  2  0  0  0  0  0  0  0  0  0
   20.5914  -26.6686    1.9239 C   0  0  0  0  0  0  0  0  0  0  0  0
   19.2600  -24.7783    2.6984 C   0  0  0  0  0  0  0  0  0  0  0  0
   18.2476  -25.5398    3.5346 C   0  0  2  0  0  0  0  0  0  0  0  0
   17.4099  -26.2841    2.5821 N   0  0  0  0  0  0  0  0  0  0  0  0
   17.4147  -24.5567    4.2747 C   0  0  0  0  0  0  0  0  0  0  0  0
   16.2864  -24.2526    3.7521 O   0  0  0  0  0  0  0  0  0  0  0  0
   17.7668  -23.9443    5.4928 N   0  0  0  0  0  0  0  0  0  0  0  0
   19.0108  -24.1034    6.1784 C   0  0  0  0  0  0  0  0  0  0  0  0
   18.6280  -24.0213    7.6367 C   0  0  0  0  0  0  0  0  0  0  0  0
   17.2368  -23.4778    7.6806 C   0  0  0  0  0  0  0  0  0  0  0  0
   16.9545  -23.0378    6.2409 C   0  0  1  0  0  0  0  0  0  0  0  0
   17.2387  -21.6124    6.0162 C   0  0  0  0  0  0  0  0  0  0  0  0
   18.4657  -21.2653    6.0461 O   0  0  0  0  0  0  0  0  0  0  0  0
   14.9339  -20.1584    2.2941 N   0  0  0  0  0  0  0  0  0  0  0  0
   16.0124  -19.5497    3.0392 C   0  0  0  0  0  0  0  0  0  0  0  0
   17.1722  -19.6910    2.5535 O   0  0  0  0  0  0  0  0  0  0  0  0
   15.7295  -18.8146    4.2908 C   0  0  0  0  0  0  0  0  0  0  0  0
   16.6166  -19.2509    5.4268 C   0  0  2  0  0  0  0  0  0  0  0  0
   16.2806  -20.6242    5.7774 N   0  0  0  0  0  0  0  0  0  0  0  0
   16.3193  -18.3400    6.5768 C   0  0  0  0  0  0  0  0  0  0  0  0
   15.7659  -18.8006    7.6148 O   0  0  0  0  0  0  0  0  0  0  0  0
   16.6202  -16.9871    6.5753 O   0  0  0  0  0  0  0  0  0  0  0  0
  2  1  1  6
  3  2  1  0
  4  5  1  0
  4  2  1  0
  5  7  1  0
  5  6  1  6
  7  9  1  0
  7  8  2  0
  9 10  1  0
 10 11  1  0
 12 11  1  0
 13  9  1  0
 13 12  1  0
 14 15  2  0
 13 14  1  1
 16 17  1  0
 17 18  2  0
 17 19  1  0
 20 19  1  6
 20 21  1  0
 20 22  1  0
 21 14  1  0
 22 24  1  0
 23 22  2  0
M  END
$$$$
