ILT.pdb
     RDKit          3D

 24 23  0  0  1  0  0  0  0  0999 V2000
    7.3284  -18.1697   18.6889 C   0  0  0  0  0  0  0  0  0  0  0  0
    7.2796  -16.7681   19.2020 C   0  0  0  0  0  0  0  0  0  0  0  0
    7.8181  -16.6614   20.6310 C   0  0  2  0  0  0  0  0  0  0  0  0
    7.2438  -17.7261   21.4983 C   0  0  0  0  0  0  0  0  0  0  0  0
    7.5968  -15.2470   21.1313 C   0  0  2  0  0  0  0  0  0  0  0  0
    8.2724  -14.3562   20.1594 N   0  0  0  0  0  0  0  0  0  0  0  0
    8.0910  -15.0011   22.4865 C   0  0  0  0  0  0  0  0  0  0  0  0
    9.3598  -14.9702   22.6629 O   0  0  0  0  0  0  0  0  0  0  0  0
    7.9827  -11.7387   25.8021 C   0  0  0  0  0  0  0  0  0  0  0  0
    6.7077  -12.5748   25.5836 C   0  0  2  0  0  0  0  0  0  0  0  0
    5.6626  -12.0143   26.5202 C   0  0  0  0  0  0  0  0  0  0  0  0
    7.0517  -13.9742   25.9431 C   0  0  0  0  0  0  0  0  0  0  0  0
    7.8977  -14.7305   24.9864 C   0  0  2  0  0  0  0  0  0  0  0  0
    7.3249  -14.7876   23.6486 N   0  0  0  0  0  0  0  0  0  0  0  0
    8.2994  -16.0578   25.4289 C   0  0  0  0  0  0  0  0  0  0  0  0
    7.4786  -17.0313   25.5631 O   0  0  0  0  0  0  0  0  0  0  0  0
   12.0055  -19.2524   25.9353 C   0  0  0  0  0  0  0  0  0  0  0  0
   11.3854  -17.9657   25.4664 C   0  0  1  0  0  0  0  0  0  0  0  0
   11.0829  -18.0130   24.1111 O   0  0  0  0  0  0  0  0  0  0  0  0
   10.0454  -17.7035   26.1864 C   0  0  2  0  0  0  0  0  0  0  0  0
    9.6493  -16.3893   25.7482 N   0  0  0  0  0  0  0  0  0  0  0  0
   10.3241  -17.6721   27.6315 C   0  0  0  0  0  0  0  0  0  0  0  0
   10.4578  -18.8511   28.3377 O   0  0  0  0  0  0  0  0  0  0  0  0
   10.4491  -16.5918   28.2739 O   0  0  0  0  0  0  0  0  0  0  0  0
  1  2  1  0
  3  2  1  0
  3  4  1  1
  5  6  1  6
  5  3  1  0
  7  5  1  0
  8  7  2  0
 10 11  1  1
 10  9  1  0
 12 10  1  0
 13 12  1  1
 13 14  1  0
 14  7  1  0
 15 13  1  0
 16 15  2  0
 18 17  1  1
 18 19  1  0
 20 18  1  0
 20 21  1  6
 21 15  1  0
 22 23  1  0
 22 20  1  0
 24 22  2  0
M  END
$$$$
