ILT.pdb
     RDKit          3D

 24 23  0  0  1  0  0  0  0  0999 V2000
   11.1901  -14.5966   30.3331 C   0  0  0  0  0  0  0  0  0  0  0  0
   10.6069  -15.8637   29.7995 C   0  0  0  0  0  0  0  0  0  0  0  0
   10.1788  -15.7264   28.3362 C   0  0  2  0  0  0  0  0  0  0  0  0
    9.9995  -14.2961   27.9649 C   0  0  0  0  0  0  0  0  0  0  0  0
    8.9627  -16.6009   28.0997 C   0  0  2  0  0  0  0  0  0  0  0  0
    9.4226  -17.9992   28.2663 N   0  0  0  0  0  0  0  0  0  0  0  0
    8.3316  -16.4177   26.7922 C   0  0  0  0  0  0  0  0  0  0  0  0
    7.8369  -17.4510   26.2180 O   0  0  0  0  0  0  0  0  0  0  0  0
    5.8631  -12.6720   26.5178 C   0  0  0  0  0  0  0  0  0  0  0  0
    7.1509  -12.7268   25.6744 C   0  0  2  0  0  0  0  0  0  0  0  0
    7.3400  -11.3453   25.0919 C   0  0  0  0  0  0  0  0  0  0  0  0
    6.9147  -13.7297   24.6049 C   0  0  0  0  0  0  0  0  0  0  0  0
    7.4264  -15.1031   24.8397 C   0  0  2  0  0  0  0  0  0  0  0  0
    8.1966  -15.2161   26.0706 N   0  0  0  0  0  0  0  0  0  0  0  0
    8.1527  -15.6932   23.7248 C   0  0  0  0  0  0  0  0  0  0  0  0
    7.6577  -15.8150   22.5502 O   0  0  0  0  0  0  0  0  0  0  0  0
   10.5866  -14.9862   21.3823 C   0  0  0  0  0  0  0  0  0  0  0  0
   11.2022  -16.0664   22.2273 C   0  0  1  0  0  0  0  0  0  0  0  0
   11.8868  -15.5331   23.3125 O   0  0  0  0  0  0  0  0  0  0  0  0
   10.1163  -16.9852   22.8269 C   0  0  2  0  0  0  0  0  0  0  0  0
    9.4861  -16.1847   23.8459 N   0  0  0  0  0  0  0  0  0  0  0  0
   10.8053  -18.1229   23.4576 C   0  0  0  0  0  0  0  0  0  0  0  0
   10.8242  -18.2463   24.8327 O   0  0  0  0  0  0  0  0  0  0  0  0
   11.3961  -19.0142   22.7854 O   0  0  0  0  0  0  0  0  0  0  0  0
  1  2  1  0
  3  2  1  0
  3  4  1  1
  5  6  1  6
  5  3  1  0
  7  5  1  0
  8  7  2  0
 10 11  1  6
 10  9  1  0
 12 10  1  0
 13 12  1  6
 13 14  1  0
 14  7  1  0
 15 13  1  0
 16 15  2  0
 18 17  1  1
 18 19  1  0
 20 18  1  0
 20 21  1  1
 21 15  1  0
 22 23  1  0
 22 20  1  0
 24 22  2  0
M  END
$$$$
