ILT.pdb
     RDKit          3D

 24 23  0  0  1  0  0  0  0  0999 V2000
    7.0382  -19.5998   21.3353 C   0  0  0  0  0  0  0  0  0  0  0  0
    7.1171  -18.1097   21.3936 C   0  0  0  0  0  0  0  0  0  0  0  0
    8.2989  -17.5659   20.5867 C   0  0  2  0  0  0  0  0  0  0  0  0
    9.5508  -18.3029   20.9115 C   0  0  0  0  0  0  0  0  0  0  0  0
    8.3762  -16.0646   20.7861 C   0  0  2  0  0  0  0  0  0  0  0  0
    9.4782  -15.5901   19.9173 N   0  0  0  0  0  0  0  0  0  0  0  0
    8.5966  -15.6496   22.1720 C   0  0  0  0  0  0  0  0  0  0  0  0
    9.8001  -15.6535   22.6121 O   0  0  0  0  0  0  0  0  0  0  0  0
    5.9235  -12.5267   26.7462 C   0  0  0  0  0  0  0  0  0  0  0  0
    7.2145  -13.2610   26.3382 C   0  0  2  0  0  0  0  0  0  0  0  0
    8.3225  -12.2342   26.3809 C   0  0  0  0  0  0  0  0  0  0  0  0
    7.0002  -13.7584   24.9553 C   0  0  0  0  0  0  0  0  0  0  0  0
    7.9482  -14.7823   24.4496 C   0  0  2  0  0  0  0  0  0  0  0  0
    7.6254  -15.2351   23.1035 N   0  0  0  0  0  0  0  0  0  0  0  0
    8.1643  -15.9180   25.3341 C   0  0  0  0  0  0  0  0  0  0  0  0
    7.2149  -16.6557   25.7742 O   0  0  0  0  0  0  0  0  0  0  0  0
   10.0355  -18.8604   24.5422 C   0  0  0  0  0  0  0  0  0  0  0  0
   10.6739  -18.3356   25.7980 C   0  0  1  0  0  0  0  0  0  0  0  0
   11.7484  -17.5029   25.5109 O   0  0  0  0  0  0  0  0  0  0  0  0
    9.6793  -17.4739   26.6049 C   0  0  2  0  0  0  0  0  0  0  0  0
    9.4596  -16.3098   25.7846 N   0  0  0  0  0  0  0  0  0  0  0  0
   10.3569  -17.0729   27.8487 C   0  0  0  0  0  0  0  0  0  0  0  0
   10.8459  -15.7893   27.9890 O   0  0  0  0  0  0  0  0  0  0  0  0
   10.5179  -17.8661   28.8184 O   0  0  0  0  0  0  0  0  0  0  0  0
  1  2  1  0
  3  2  1  0
  3  4  1  1
  5  6  1  6
  5  3  1  0
  7  5  1  0
  8  7  2  0
 10 11  1  6
 10  9  1  0
 12 10  1  0
 13 12  1  1
 13 14  1  0
 14  7  1  0
 15 13  1  0
 16 15  2  0
 18 17  1  6
 18 19  1  0
 20 18  1  0
 20 21  1  6
 21 15  1  0
 22 23  1  0
 22 20  1  0
 24 22  2  0
M  END
$$$$
