ILT.pdb
     RDKit          3D

 24 23  0  0  1  0  0  0  0  0999 V2000
   10.3655  -21.3678   17.3885 C   0  0  0  0  0  0  0  0  0  0  0  0
   10.1575  -19.9356   17.0201 C   0  0  0  0  0  0  0  0  0  0  0  0
   10.3319  -19.0032   18.2215 C   0  0  2  0  0  0  0  0  0  0  0  0
    9.4740  -19.4332   19.3595 C   0  0  0  0  0  0  0  0  0  0  0  0
   10.1120  -17.5737   17.7655 C   0  0  2  0  0  0  0  0  0  0  0  0
   11.1102  -17.3234   16.7000 N   0  0  0  0  0  0  0  0  0  0  0  0
   10.2308  -16.5752   18.8286 C   0  0  0  0  0  0  0  0  0  0  0  0
   11.4088  -16.2046   19.1708 O   0  0  0  0  0  0  0  0  0  0  0  0
    9.0700  -12.3549   19.0461 C   0  0  0  0  0  0  0  0  0  0  0  0
    7.9598  -13.3472   19.4402 C   0  0  2  0  0  0  0  0  0  0  0  0
    6.7004  -12.5313   19.6188 C   0  0  0  0  0  0  0  0  0  0  0  0
    8.3810  -13.9671   20.7224 C   0  0  0  0  0  0  0  0  0  0  0  0
    9.4020  -15.0420   20.6515 C   0  0  2  0  0  0  0  0  0  0  0  0
    9.1842  -15.9554   19.5382 N   0  0  0  0  0  0  0  0  0  0  0  0
    9.6106  -15.7816   21.8877 C   0  0  0  0  0  0  0  0  0  0  0  0
    8.7132  -15.9036   22.7928 O   0  0  0  0  0  0  0  0  0  0  0  0
   10.3748  -19.3189   22.2739 C   0  0  0  0  0  0  0  0  0  0  0  0
   11.4981  -18.5800   22.9462 C   0  0  1  0  0  0  0  0  0  0  0  0
   12.5539  -18.3568   22.0709 O   0  0  0  0  0  0  0  0  0  0  0  0
   11.0385  -17.1826   23.4139 C   0  0  2  0  0  0  0  0  0  0  0  0
   10.8376  -16.4402   22.1954 N   0  0  0  0  0  0  0  0  0  0  0  0
   12.1518  -16.5862   24.1701 C   0  0  0  0  0  0  0  0  0  0  0  0
   12.8842  -15.5504   23.6247 O   0  0  0  0  0  0  0  0  0  0  0  0
   12.4791  -16.9864   25.3225 O   0  0  0  0  0  0  0  0  0  0  0  0
  1  2  1  0
  3  2  1  0
  3  4  1  1
  5  6  1  6
  5  3  1  0
  7  5  1  0
  8  7  2  0
 10 11  1  1
 10  9  1  0
 12 10  1  0
 13 12  1  1
 13 14  1  0
 14  7  1  0
 15 13  1  0
 16 15  2  0
 18 17  1  6
 18 19  1  0
 20 18  1  0
 20 21  1  6
 21 15  1  0
 22 23  1  0
 22 20  1  0
 24 22  2  0
M  END
$$$$
