ILT.pdb
     RDKit          3D

 24 23  0  0  1  0  0  0  0  0999 V2000
    7.5859  -15.5235   17.3683 C   0  0  0  0  0  0  0  0  0  0  0  0
    7.4504  -14.3918   18.3333 C   0  0  0  0  0  0  0  0  0  0  0  0
    7.8920  -14.7859   19.7450 C   0  0  2  0  0  0  0  0  0  0  0  0
    7.2679  -16.0722   20.1596 C   0  0  0  0  0  0  0  0  0  0  0  0
    7.6293  -13.6220   20.6810 C   0  0  2  0  0  0  0  0  0  0  0  0
    8.3312  -12.4563   20.0954 N   0  0  0  0  0  0  0  0  0  0  0  0
    8.0632  -13.8459   22.0605 C   0  0  0  0  0  0  0  0  0  0  0  0
    9.3205  -13.8068   22.3046 O   0  0  0  0  0  0  0  0  0  0  0  0
    7.9301  -11.7351   26.1555 C   0  0  0  0  0  0  0  0  0  0  0  0
    6.6442  -12.3941   25.6221 C   0  0  2  0  0  0  0  0  0  0  0  0
    5.5488  -12.0533   26.6058 C   0  0  0  0  0  0  0  0  0  0  0  0
    6.8988  -13.8570   25.5919 C   0  0  0  0  0  0  0  0  0  0  0  0
    7.7776  -14.3690   24.5110 C   0  0  2  0  0  0  0  0  0  0  0  0
    7.2490  -14.1040   23.1800 N   0  0  0  0  0  0  0  0  0  0  0  0
    8.1680  -15.7655   24.6385 C   0  0  0  0  0  0  0  0  0  0  0  0
    7.3397  -16.7044   24.9064 O   0  0  0  0  0  0  0  0  0  0  0  0
    9.9451  -17.9545   22.2015 C   0  0  0  0  0  0  0  0  0  0  0  0
   10.7780  -17.9246   23.4526 C   0  0  1  0  0  0  0  0  0  0  0  0
   11.7559  -16.9396   23.3874 O   0  0  0  0  0  0  0  0  0  0  0  0
    9.9138  -17.5769   24.6835 C   0  0  2  0  0  0  0  0  0  0  0  0
    9.5130  -16.2093   24.4706 N   0  0  0  0  0  0  0  0  0  0  0  0
   10.7873  -17.6503   25.8661 C   0  0  0  0  0  0  0  0  0  0  0  0
   11.2690  -18.8703   26.2977 O   0  0  0  0  0  0  0  0  0  0  0  0
   11.1258  -16.6259   26.5229 O   0  0  0  0  0  0  0  0  0  0  0  0
  1  2  1  0
  3  2  1  0
  3  4  1  1
  5  6  1  6
  5  3  1  0
  7  5  1  0
  8  7  2  0
 10 11  1  1
 10  9  1  0
 12 10  1  0
 13 12  1  1
 13 14  1  0
 14  7  1  0
 15 13  1  0
 16 15  2  0
 18 17  1  6
 18 19  1  0
 20 18  1  0
 20 21  1  6
 21 15  1  0
 22 23  1  0
 22 20  1  0
 24 22  2  0
M  END
$$$$
