ILT.pdb
     RDKit          3D

 24 23  0  0  1  0  0  0  0  0999 V2000
    7.3367  -19.1068   18.8638 C   0  0  0  0  0  0  0  0  0  0  0  0
    7.4839  -17.6375   19.0860 C   0  0  0  0  0  0  0  0  0  0  0  0
    7.8426  -17.3100   20.5377 C   0  0  2  0  0  0  0  0  0  0  0  0
    6.8896  -17.9560   21.4813 C   0  0  0  0  0  0  0  0  0  0  0  0
    7.9589  -15.8051   20.6839 C   0  0  2  0  0  0  0  0  0  0  0  0
    8.9882  -15.3752   19.7092 N   0  0  0  0  0  0  0  0  0  0  0  0
    8.3048  -15.3538   22.0323 C   0  0  0  0  0  0  0  0  0  0  0  0
    9.5205  -15.4900   22.4139 O   0  0  0  0  0  0  0  0  0  0  0  0
    5.9606  -12.4384   26.9621 C   0  0  0  0  0  0  0  0  0  0  0  0
    7.1881  -13.2163   26.4515 C   0  0  2  0  0  0  0  0  0  0  0  0
    8.3795  -12.3053   26.6371 C   0  0  0  0  0  0  0  0  0  0  0  0
    6.9461  -13.4928   25.0126 C   0  0  0  0  0  0  0  0  0  0  0  0
    7.8540  -14.4603   24.3471 C   0  0  2  0  0  0  0  0  0  0  0  0
    7.4454  -14.7730   22.9846 N   0  0  0  0  0  0  0  0  0  0  0  0
    8.1164  -15.6805   25.0961 C   0  0  0  0  0  0  0  0  0  0  0  0
    7.1949  -16.4877   25.4684 O   0  0  0  0  0  0  0  0  0  0  0  0
   11.4720  -19.1499   25.9448 C   0  0  0  0  0  0  0  0  0  0  0  0
   10.9666  -17.8727   25.3339 C   0  0  1  0  0  0  0  0  0  0  0  0
   10.5800  -18.0608   24.0126 O   0  0  0  0  0  0  0  0  0  0  0  0
    9.7081  -17.3676   26.0714 C   0  0  2  0  0  0  0  0  0  0  0  0
    9.4300  -16.0846   25.4772 N   0  0  0  0  0  0  0  0  0  0  0  0
   10.0747  -17.1809   27.4848 C   0  0  0  0  0  0  0  0  0  0  0  0
    9.8788  -18.2027   28.3927 O   0  0  0  0  0  0  0  0  0  0  0  0
   10.5716  -16.1040   27.9192 O   0  0  0  0  0  0  0  0  0  0  0  0
  1  2  1  0
  3  2  1  0
  3  4  1  1
  5  6  1  6
  5  3  1  0
  7  5  1  0
  8  7  2  0
 10 11  1  6
 10  9  1  0
 12 10  1  0
 13 12  1  1
 13 14  1  0
 14  7  1  0
 15 13  1  0
 16 15  2  0
 18 17  1  1
 18 19  1  0
 20 18  1  0
 20 21  1  6
 21 15  1  0
 22 23  1  0
 22 20  1  0
 24 22  2  0
M  END
$$$$
