ILT.pdb
     RDKit          3D

 24 23  0  0  1  0  0  0  0  0999 V2000
    7.6808  -18.4874   19.3322 C   0  0  0  0  0  0  0  0  0  0  0  0
    7.3875  -17.1003   19.8014 C   0  0  0  0  0  0  0  0  0  0  0  0
    7.9554  -16.8351   21.1980 C   0  0  2  0  0  0  0  0  0  0  0  0
    7.5416  -17.8993   22.1530 C   0  0  0  0  0  0  0  0  0  0  0  0
    7.5824  -15.4262   21.6168 C   0  0  2  0  0  0  0  0  0  0  0  0
    8.0143  -14.5401   20.5110 N   0  0  0  0  0  0  0  0  0  0  0  0
    8.1742  -14.9957   22.8840 C   0  0  0  0  0  0  0  0  0  0  0  0
    9.3970  -14.6130   22.8724 O   0  0  0  0  0  0  0  0  0  0  0  0
    7.4762  -11.4776   25.4713 C   0  0  0  0  0  0  0  0  0  0  0  0
    6.4797  -12.6263   25.7163 C   0  0  2  0  0  0  0  0  0  0  0  0
    5.4787  -12.1162   26.7269 C   0  0  0  0  0  0  0  0  0  0  0  0
    7.2660  -13.7590   26.2680 C   0  0  0  0  0  0  0  0  0  0  0  0
    8.2041  -14.4451   25.3449 C   0  0  2  0  0  0  0  0  0  0  0  0
    7.5494  -14.9480   24.1451 N   0  0  0  0  0  0  0  0  0  0  0  0
    9.0255  -15.4817   25.9531 C   0  0  0  0  0  0  0  0  0  0  0  0
    9.6033  -15.3442   27.0874 O   0  0  0  0  0  0  0  0  0  0  0  0
    8.1280  -19.2262   26.3437 C   0  0  0  0  0  0  0  0  0  0  0  0
    9.4185  -19.0898   25.5846 C   0  0  1  0  0  0  0  0  0  0  0  0
    9.2007  -19.0773   24.2124 O   0  0  0  0  0  0  0  0  0  0  0  0
   10.1127  -17.7503   25.9114 C   0  0  2  0  0  0  0  0  0  0  0  0
    9.2540  -16.7468   25.3355 N   0  0  0  0  0  0  0  0  0  0  0  0
   11.4067  -17.7457   25.2095 C   0  0  0  0  0  0  0  0  0  0  0  0
   11.5965  -16.9314   24.1106 O   0  0  0  0  0  0  0  0  0  0  0  0
   12.3764  -18.4694   25.5717 O   0  0  0  0  0  0  0  0  0  0  0  0
  1  2  1  0
  3  2  1  0
  3  4  1  1
  5  6  1  6
  5  3  1  0
  7  5  1  0
  8  7  2  0
 10 11  1  1
 10  9  1  0
 12 10  1  0
 13 12  1  1
 13 14  1  0
 14  7  1  0
 15 13  1  0
 16 15  2  0
 18 17  1  1
 18 19  1  0
 20 18  1  0
 20 21  1  6
 21 15  1  0
 22 23  1  0
 22 20  1  0
 24 22  2  0
M  END
$$$$
