ILT.pdb
     RDKit          3D

 24 23  0  0  1  0  0  0  0  0999 V2000
    7.5852  -18.3254   18.9226 C   0  0  0  0  0  0  0  0  0  0  0  0
    7.6322  -16.9404   19.4791 C   0  0  0  0  0  0  0  0  0  0  0  0
    7.9707  -16.9333   20.9720 C   0  0  2  0  0  0  0  0  0  0  0  0
    7.0344  -17.8030   21.7354 C   0  0  0  0  0  0  0  0  0  0  0  0
    8.0351  -15.4959   21.4508 C   0  0  2  0  0  0  0  0  0  0  0  0
    9.0360  -14.8206   20.5924 N   0  0  0  0  0  0  0  0  0  0  0  0
    8.3817  -15.3446   22.8644 C   0  0  0  0  0  0  0  0  0  0  0  0
    9.6160  -15.4530   23.1913 O   0  0  0  0  0  0  0  0  0  0  0  0
    8.1194  -11.9927   25.9701 C   0  0  0  0  0  0  0  0  0  0  0  0
    6.8238  -12.7771   25.6896 C   0  0  2  0  0  0  0  0  0  0  0  0
    5.7349  -12.1066   26.4949 C   0  0  0  0  0  0  0  0  0  0  0  0
    7.0587  -14.1657   26.1610 C   0  0  0  0  0  0  0  0  0  0  0  0
    7.9341  -15.0252   25.3257 C   0  0  2  0  0  0  0  0  0  0  0  0
    7.5046  -15.0871   23.9354 N   0  0  0  0  0  0  0  0  0  0  0  0
    8.1712  -16.3628   25.8487 C   0  0  0  0  0  0  0  0  0  0  0  0
    7.2291  -17.1744   26.1540 O   0  0  0  0  0  0  0  0  0  0  0  0
    9.9997  -19.1376   24.3411 C   0  0  0  0  0  0  0  0  0  0  0  0
   10.6732  -18.8857   25.6613 C   0  0  1  0  0  0  0  0  0  0  0  0
   11.7610  -18.0327   25.5211 O   0  0  0  0  0  0  0  0  0  0  0  0
    9.7137  -18.1837   26.6459 C   0  0  2  0  0  0  0  0  0  0  0  0
    9.4802  -16.8871   26.0625 N   0  0  0  0  0  0  0  0  0  0  0  0
   10.4346  -18.0226   27.9193 C   0  0  0  0  0  0  0  0  0  0  0  0
   10.6807  -19.1199   28.7205 O   0  0  0  0  0  0  0  0  0  0  0  0
   10.8490  -16.9008   28.3258 O   0  0  0  0  0  0  0  0  0  0  0  0
  1  2  1  0
  3  2  1  0
  3  4  1  1
  5  6  1  6
  5  3  1  0
  7  5  1  0
  8  7  2  0
 10 11  1  1
 10  9  1  0
 12 10  1  0
 13 12  1  1
 13 14  1  0
 14  7  1  0
 15 13  1  0
 16 15  2  0
 18 17  1  6
 18 19  1  0
 20 18  1  0
 20 21  1  6
 21 15  1  0
 22 23  1  0
 22 20  1  0
 24 22  2  0
M  END
$$$$
