ILT.pdb
     RDKit          3D

 24 23  0  0  1  0  0  0  0  0999 V2000
   12.1136  -18.8846   27.7653 C   0  0  0  0  0  0  0  0  0  0  0  0
   10.8596  -18.2625   28.2857 C   0  0  0  0  0  0  0  0  0  0  0  0
    9.9321  -17.8097   27.1552 C   0  0  2  0  0  0  0  0  0  0  0  0
   10.6647  -16.9699   26.1683 C   0  0  0  0  0  0  0  0  0  0  0  0
    8.7075  -17.1530   27.7624 C   0  0  2  0  0  0  0  0  0  0  0  0
    8.0330  -18.2010   28.5633 N   0  0  0  0  0  0  0  0  0  0  0  0
    7.7837  -16.5762   26.7850 C   0  0  0  0  0  0  0  0  0  0  0  0
    6.7860  -17.2893   26.4133 O   0  0  0  0  0  0  0  0  0  0  0  0
    5.4270  -12.7130   27.0789 C   0  0  0  0  0  0  0  0  0  0  0  0
    6.8401  -12.6920   26.4663 C   0  0  2  0  0  0  0  0  0  0  0  0
    7.2083  -11.2371   26.2897 C   0  0  0  0  0  0  0  0  0  0  0  0
    6.7436  -13.3817   25.1545 C   0  0  0  0  0  0  0  0  0  0  0  0
    6.9464  -14.8519   25.1461 C   0  0  2  0  0  0  0  0  0  0  0  0
    7.8575  -15.3024   26.1893 N   0  0  0  0  0  0  0  0  0  0  0  0
    7.3209  -15.4189   23.8588 C   0  0  0  0  0  0  0  0  0  0  0  0
    6.5128  -15.5094   22.8697 O   0  0  0  0  0  0  0  0  0  0  0  0
    8.6102  -14.2362   21.2456 C   0  0  0  0  0  0  0  0  0  0  0  0
    9.6332  -15.2969   21.5429 C   0  0  1  0  0  0  0  0  0  0  0  0
   10.6433  -14.8111   22.3642 O   0  0  0  0  0  0  0  0  0  0  0  0
    8.9990  -16.4763   22.3107 C   0  0  2  0  0  0  0  0  0  0  0  0
    8.6281  -15.9205   23.5873 N   0  0  0  0  0  0  0  0  0  0  0  0
   10.0512  -17.4871   22.5064 C   0  0  0  0  0  0  0  0  0  0  0  0
   10.5316  -18.2054   21.4294 O   0  0  0  0  0  0  0  0  0  0  0  0
   10.5481  -17.7368   23.6404 O   0  0  0  0  0  0  0  0  0  0  0  0
  1  2  1  0
  3  2  1  0
  3  4  1  6
  5  6  1  6
  5  3  1  0
  7  5  1  0
  8  7  2  0
 10 11  1  6
 10  9  1  0
 12 10  1  0
 13 12  1  6
 13 14  1  0
 14  7  1  0
 15 13  1  0
 16 15  2  0
 18 17  1  1
 18 19  1  0
 20 18  1  0
 20 21  1  1
 21 15  1  0
 22 23  1  0
 22 20  1  0
 24 22  2  0
M  END
$$$$
