EDC.pdb
     RDKit          3D

 24 23  0  0  1  0  0  0  0  0999 V2000
   19.2633  -11.0916  -15.1942 N   0  0  0  0  0  0  0  0  0  0  0  0
   18.6312   -9.8653  -15.7464 C   0  0  1  0  0  0  0  0  0  0  0  0
   17.1522  -10.0603  -15.6816 C   0  0  0  0  0  0  0  0  0  0  0  0
   16.6211  -11.4119  -15.9391 C   0  0  0  0  0  0  0  0  0  0  0  0
   15.1495  -11.5306  -15.9306 C   0  0  0  0  0  0  0  0  0  0  0  0
   14.6087  -12.6331  -16.1829 O   0  0  0  0  0  0  0  0  0  0  0  0
   19.1463   -8.7533  -14.9372 C   0  0  0  0  0  0  0  0  0  0  0  0
   19.0459   -8.7717  -13.6951 O   0  0  0  0  0  0  0  0  0  0  0  0
   14.3515  -10.4468  -15.6485 O   0  0  0  0  0  0  0  0  0  0  0  0
   19.7664   -7.6439  -15.5445 N   0  0  0  0  0  0  0  0  0  0  0  0
   20.2770   -6.4931  -14.7053 C   0  0  1  0  0  0  0  0  0  0  0  0
   21.7627   -6.5475  -14.9913 C   0  0  0  0  0  0  0  0  0  0  0  0
   22.6169   -5.5647  -14.3879 C   0  0  0  0  0  0  0  0  0  0  0  0
   23.7916   -5.3543  -14.7006 O   0  0  0  0  0  0  0  0  0  0  0  0
   19.6250   -5.2822  -15.2456 C   0  0  0  0  0  0  0  0  0  0  0  0
   19.5850   -5.1385  -16.5169 O   0  0  0  0  0  0  0  0  0  0  0  0
   22.1230   -4.7418  -13.3434 O   0  0  0  0  0  0  0  0  0  0  0  0
   19.0236   -4.2443  -14.5073 N   0  0  0  0  0  0  0  0  0  0  0  0
   18.4292   -3.0902  -15.1739 C   0  0  1  0  0  0  0  0  0  0  0  0
   17.0434   -2.7793  -14.6578 C   0  0  0  0  0  0  0  0  0  0  0  0
   15.8947   -4.1482  -14.8862 S   0  0  0  0  0  0  0  0  0  0  0  0
   19.2754   -1.8820  -14.9425 C   0  0  0  0  0  0  0  0  0  0  0  0
   18.9472   -0.6556  -15.4921 O   0  0  0  0  0  0  0  0  0  0  0  0
   20.3071   -1.9556  -14.2408 O   0  0  0  0  0  0  0  0  0  0  0  0
  2  1  1  1
  2  3  1  0
  3  4  1  0
  4  5  1  0
  5  9  1  0
  5  6  2  0
  7  2  1  0
  8  7  2  0
 10  7  1  0
 11 10  1  0
 12 13  1  0
 11 12  1  6
 13 17  1  0
 14 13  2  0
 15 11  1  0
 15 18  1  0
 16 15  2  0
 19 18  1  0
 19 20  1  1
 19 22  1  0
 20 21  1  0
 22 23  1  0
 24 22  2  0
M  END
$$$$
