EDC.pdb
     RDKit          3D

 24 23  0  0  1  0  0  0  0  0999 V2000
   16.4168  -12.5227  -16.4018 N   0  0  0  0  0  0  0  0  0  0  0  0
   17.6412  -12.0944  -15.6766 C   0  0  1  0  0  0  0  0  0  0  0  0
   18.8147  -12.5277  -16.4919 C   0  0  0  0  0  0  0  0  0  0  0  0
   18.8072  -13.8962  -17.0417 C   0  0  0  0  0  0  0  0  0  0  0  0
   20.0174  -14.2887  -17.7907 C   0  0  0  0  0  0  0  0  0  0  0  0
   21.0554  -14.6235  -17.1724 O   0  0  0  0  0  0  0  0  0  0  0  0
   17.5112  -10.6423  -15.4994 C   0  0  0  0  0  0  0  0  0  0  0  0
   16.8395   -9.9624  -16.2993 O   0  0  0  0  0  0  0  0  0  0  0  0
   20.0303  -14.2955  -19.1657 O   0  0  0  0  0  0  0  0  0  0  0  0
   18.1390   -9.9863  -14.4226 N   0  0  0  0  0  0  0  0  0  0  0  0
   18.0155   -8.4875  -14.2574 C   0  0  1  0  0  0  0  0  0  0  0  0
   18.1450   -8.3380  -12.7564 C   0  0  0  0  0  0  0  0  0  0  0  0
   16.9722   -8.4969  -11.9445 C   0  0  0  0  0  0  0  0  0  0  0  0
   15.8231   -8.6320  -12.3726 O   0  0  0  0  0  0  0  0  0  0  0  0
   19.1536   -7.9067  -14.9997 C   0  0  0  0  0  0  0  0  0  0  0  0
   20.2258   -8.5997  -15.0928 O   0  0  0  0  0  0  0  0  0  0  0  0
   17.0851   -8.5062  -10.5305 O   0  0  0  0  0  0  0  0  0  0  0  0
   19.1960   -6.6510  -15.6362 N   0  0  0  0  0  0  0  0  0  0  0  0
   20.3721   -6.2251  -16.3879 C   0  0  1  0  0  0  0  0  0  0  0  0
   20.2314   -6.4838  -17.8699 C   0  0  0  0  0  0  0  0  0  0  0  0
   21.5750   -5.7643  -18.8305 S   0  0  0  0  0  0  0  0  0  0  0  0
   20.5834   -4.7581  -16.2068 C   0  0  0  0  0  0  0  0  0  0  0  0
   21.8372   -4.1884  -16.3387 O   0  0  0  0  0  0  0  0  0  0  0  0
   19.6223   -4.0087  -15.9299 O   0  0  0  0  0  0  0  0  0  0  0  0
  2  1  1  6
  2  3  1  0
  3  4  1  0
  4  5  1  0
  5  9  1  0
  5  6  2  0
  7  2  1  0
  8  7  2  0
 10  7  1  0
 11 10  1  0
 12 13  1  0
 11 12  1  1
 13 17  1  0
 14 13  2  0
 15 11  1  0
 15 18  1  0
 16 15  2  0
 19 18  1  0
 19 20  1  6
 19 22  1  0
 20 21  1  0
 22 23  1  0
 24 22  2  0
M  END
$$$$
