EDC.pdb
     RDKit          3D

 24 23  0  0  1  0  0  0  0  0999 V2000
   16.8404  -12.5884  -19.0854 N   0  0  0  0  0  0  0  0  0  0  0  0
   16.2714  -11.9461  -17.8720 C   0  0  1  0  0  0  0  0  0  0  0  0
   16.4319  -12.9098  -16.7428 C   0  0  0  0  0  0  0  0  0  0  0  0
   17.7806  -13.4433  -16.4755 C   0  0  0  0  0  0  0  0  0  0  0  0
   17.9224  -14.2223  -15.2293 C   0  0  0  0  0  0  0  0  0  0  0  0
   18.5237  -15.3222  -15.2433 O   0  0  0  0  0  0  0  0  0  0  0  0
   16.9979  -10.6795  -17.7146 C   0  0  0  0  0  0  0  0  0  0  0  0
   18.0755  -10.4870  -18.3101 O   0  0  0  0  0  0  0  0  0  0  0  0
   17.4040  -13.7621  -14.0417 O   0  0  0  0  0  0  0  0  0  0  0  0
   16.4934   -9.6544  -16.8907 N   0  0  0  0  0  0  0  0  0  0  0  0
   17.1957   -8.3167  -16.8098 C   0  0  1  0  0  0  0  0  0  0  0  0
   16.1404   -7.4623  -16.1402 C   0  0  0  0  0  0  0  0  0  0  0  0
   16.4391   -6.0849  -15.8693 C   0  0  0  0  0  0  0  0  0  0  0  0
   15.7468   -5.3280  -15.1839 O   0  0  0  0  0  0  0  0  0  0  0  0
   18.3865   -8.5391  -15.9637 C   0  0  0  0  0  0  0  0  0  0  0  0
   18.2520   -9.2630  -14.9165 O   0  0  0  0  0  0  0  0  0  0  0  0
   17.6112   -5.4948  -16.4078 O   0  0  0  0  0  0  0  0  0  0  0  0
   19.6850   -8.0392  -16.1824 N   0  0  0  0  0  0  0  0  0  0  0  0
   20.7688   -8.3178  -15.2457 C   0  0  1  0  0  0  0  0  0  0  0  0
   22.0601   -8.6669  -15.9485 C   0  0  0  0  0  0  0  0  0  0  0  0
   21.9882  -10.2639  -16.7792 S   0  0  0  0  0  0  0  0  0  0  0  0
   21.0288   -7.1140  -14.4015 C   0  0  0  0  0  0  0  0  0  0  0  0
   21.8530   -7.1755  -13.2921 O   0  0  0  0  0  0  0  0  0  0  0  0
   20.5019   -6.0163  -14.6833 O   0  0  0  0  0  0  0  0  0  0  0  0
  2  1  1  6
  2  3  1  0
  3  4  1  0
  4  5  1  0
  5  9  1  0
  5  6  2  0
  7  2  1  0
  8  7  2  0
 10  7  1  0
 11 10  1  0
 12 13  1  0
 11 12  1  1
 13 17  1  0
 14 13  2  0
 15 11  1  0
 15 18  1  0
 16 15  2  0
 19 18  1  0
 19 20  1  6
 19 22  1  0
 20 21  1  0
 22 23  1  0
 24 22  2  0
M  END
$$$$
