EDC.pdb
     RDKit          3D

 24 23  0  0  1  0  0  0  0  0999 V2000
   15.7129   -9.6306  -10.1075 N   0  0  0  0  0  0  0  0  0  0  0  0
   15.3512   -8.5447  -11.0555 C   0  0  1  0  0  0  0  0  0  0  0  0
   15.2689   -7.2780  -10.2693 C   0  0  0  0  0  0  0  0  0  0  0  0
   16.3796   -6.9598   -9.3526 C   0  0  0  0  0  0  0  0  0  0  0  0
   16.2578   -5.6817   -8.6234 C   0  0  0  0  0  0  0  0  0  0  0  0
   17.2533   -4.9283   -8.5097 O   0  0  0  0  0  0  0  0  0  0  0  0
   16.3878   -8.5630  -12.0956 C   0  0  0  0  0  0  0  0  0  0  0  0
   17.2107   -9.4970  -12.1560 O   0  0  0  0  0  0  0  0  0  0  0  0
   15.0636   -5.2963   -8.0612 O   0  0  0  0  0  0  0  0  0  0  0  0
   16.4744   -7.5290  -13.0482 N   0  0  0  0  0  0  0  0  0  0  0  0
   17.3804   -7.6661  -14.2522 C   0  0  1  0  0  0  0  0  0  0  0  0
   16.6242   -6.8657  -15.2912 C   0  0  0  0  0  0  0  0  0  0  0  0
   15.7529   -7.5601  -16.1959 C   0  0  0  0  0  0  0  0  0  0  0  0
   16.0715   -8.5316  -16.8861 O   0  0  0  0  0  0  0  0  0  0  0  0
   18.6635   -7.0461  -13.8614 C   0  0  0  0  0  0  0  0  0  0  0  0
   18.6272   -6.0321  -13.0809 O   0  0  0  0  0  0  0  0  0  0  0  0
   14.4073   -7.1378  -16.3482 O   0  0  0  0  0  0  0  0  0  0  0  0
   19.9538   -7.4531  -14.2532 N   0  0  0  0  0  0  0  0  0  0  0  0
   21.1442   -6.7738  -13.7522 C   0  0  1  0  0  0  0  0  0  0  0  0
   22.4141   -7.5260  -14.0761 C   0  0  0  0  0  0  0  0  0  0  0  0
   22.4029   -9.2121  -13.4415 S   0  0  0  0  0  0  0  0  0  0  0  0
   21.2533   -5.4209  -14.3743 C   0  0  0  0  0  0  0  0  0  0  0  0
   20.4168   -5.0315  -15.4052 O   0  0  0  0  0  0  0  0  0  0  0  0
   22.1108   -4.6054  -13.9720 O   0  0  0  0  0  0  0  0  0  0  0  0
  2  1  1  1
  2  3  1  0
  3  4  1  0
  4  5  1  0
  5  9  1  0
  5  6  2  0
  7  2  1  0
  8  7  2  0
 10  7  1  0
 11 10  1  0
 12 13  1  0
 11 12  1  6
 13 17  1  0
 14 13  2  0
 15 11  1  0
 15 18  1  0
 16 15  2  0
 19 18  1  0
 19 20  1  6
 19 22  1  0
 20 21  1  0
 22 23  1  0
 24 22  2  0
M  END
$$$$
