EDC.pdb
     RDKit          3D

 24 23  0  0  1  0  0  0  0  0999 V2000
   16.2966  -13.2983  -18.2502 N   0  0  0  0  0  0  0  0  0  0  0  0
   16.1364  -12.1634  -17.3043 C   0  0  1  0  0  0  0  0  0  0  0  0
   16.0721  -12.7383  -15.9278 C   0  0  0  0  0  0  0  0  0  0  0  0
   14.8598  -13.4871  -15.5471 C   0  0  0  0  0  0  0  0  0  0  0  0
   14.8234  -13.9752  -14.1542 C   0  0  0  0  0  0  0  0  0  0  0  0
   15.0506  -13.1853  -13.2076 O   0  0  0  0  0  0  0  0  0  0  0  0
   17.2786  -11.2743  -17.5525 C   0  0  0  0  0  0  0  0  0  0  0  0
   18.2911  -11.6918  -18.1472 O   0  0  0  0  0  0  0  0  0  0  0  0
   14.5422  -15.2910  -13.8703 O   0  0  0  0  0  0  0  0  0  0  0  0
   17.2554   -9.9316  -17.1272 N   0  0  0  0  0  0  0  0  0  0  0  0
   18.4282   -9.0166  -17.4038 C   0  0  1  0  0  0  0  0  0  0  0  0
   17.7247   -7.7414  -17.8172 C   0  0  0  0  0  0  0  0  0  0  0  0
   18.5176   -6.5840  -18.1196 C   0  0  0  0  0  0  0  0  0  0  0  0
   19.7479   -6.5260  -18.0494 O   0  0  0  0  0  0  0  0  0  0  0  0
   19.1512   -8.8921  -16.1211 C   0  0  0  0  0  0  0  0  0  0  0  0
   18.4618   -8.7021  -15.0594 O   0  0  0  0  0  0  0  0  0  0  0  0
   17.8884   -5.3832  -18.5369 O   0  0  0  0  0  0  0  0  0  0  0  0
   20.5440   -8.9644  -15.9246 N   0  0  0  0  0  0  0  0  0  0  0  0
   21.1399   -8.6642  -14.6267 C   0  0  1  0  0  0  0  0  0  0  0  0
   22.5129   -9.2753  -14.4697 C   0  0  0  0  0  0  0  0  0  0  0  0
   22.4820  -11.0756  -14.5294 S   0  0  0  0  0  0  0  0  0  0  0  0
   21.2856   -7.1868  -14.4674 C   0  0  0  0  0  0  0  0  0  0  0  0
   21.0242   -6.3193  -15.5129 O   0  0  0  0  0  0  0  0  0  0  0  0
   21.6502   -6.6999  -13.3755 O   0  0  0  0  0  0  0  0  0  0  0  0
  2  1  1  6
  2  3  1  0
  3  4  1  0
  4  5  1  0
  5  9  1  0
  5  6  2  0
  7  2  1  0
  8  7  2  0
 10  7  1  0
 11 10  1  0
 12 13  1  0
 11 12  1  1
 13 17  1  0
 14 13  2  0
 15 11  1  0
 15 18  1  0
 16 15  2  0
 19 18  1  0
 19 20  1  6
 19 22  1  0
 20 21  1  0
 22 23  1  0
 24 22  2  0
M  END
$$$$
