EDC.pdb
     RDKit          3D

 24 23  0  0  1  0  0  0  0  0999 V2000
   18.1972  -11.3661  -17.2742 N   0  0  0  0  0  0  0  0  0  0  0  0
   17.5622  -10.6062  -16.1662 C   0  0  1  0  0  0  0  0  0  0  0  0
   18.0179  -11.2241  -14.8855 C   0  0  0  0  0  0  0  0  0  0  0  0
   17.4670  -12.5422  -14.5193 C   0  0  0  0  0  0  0  0  0  0  0  0
   16.0185  -12.5708  -14.2346 C   0  0  0  0  0  0  0  0  0  0  0  0
   15.3897  -13.6537  -14.2947 O   0  0  0  0  0  0  0  0  0  0  0  0
   17.9678   -9.2080  -16.3591 C   0  0  0  0  0  0  0  0  0  0  0  0
   18.9808   -8.9270  -17.0284 O   0  0  0  0  0  0  0  0  0  0  0  0
   15.3379  -11.4234  -13.9012 O   0  0  0  0  0  0  0  0  0  0  0  0
   17.2217   -8.1545  -15.7956 N   0  0  0  0  0  0  0  0  0  0  0  0
   17.5334   -6.7165  -16.1482 C   0  0  1  0  0  0  0  0  0  0  0  0
   16.1856   -6.0574  -15.9453 C   0  0  0  0  0  0  0  0  0  0  0  0
   15.1896   -6.1962  -16.9693 C   0  0  0  0  0  0  0  0  0  0  0  0
   15.3870   -6.0515  -18.1784 O   0  0  0  0  0  0  0  0  0  0  0  0
   18.5496   -6.2749  -15.1706 C   0  0  0  0  0  0  0  0  0  0  0  0
   18.3824   -6.5985  -13.9434 O   0  0  0  0  0  0  0  0  0  0  0  0
   13.8548   -6.5247  -16.6196 O   0  0  0  0  0  0  0  0  0  0  0  0
   19.7114   -5.5250  -15.4383 N   0  0  0  0  0  0  0  0  0  0  0  0
   20.6628   -5.2032  -14.3796 C   0  0  1  0  0  0  0  0  0  0  0  0
   21.9556   -5.9736  -14.5153 C   0  0  0  0  0  0  0  0  0  0  0  0
   23.1947   -5.4675  -13.3094 S   0  0  0  0  0  0  0  0  0  0  0  0
   20.9998   -3.7494  -14.4279 C   0  0  0  0  0  0  0  0  0  0  0  0
   21.0898   -2.9912  -13.2743 O   0  0  0  0  0  0  0  0  0  0  0  0
   21.2094   -3.1834  -15.5224 O   0  0  0  0  0  0  0  0  0  0  0  0
  2  1  1  6
  2  3  1  0
  3  4  1  0
  4  5  1  0
  5  9  1  0
  5  6  2  0
  7  2  1  0
  8  7  2  0
 10  7  1  0
 11 10  1  0
 12 13  1  0
 11 12  1  1
 13 17  1  0
 14 13  2  0
 15 11  1  0
 15 18  1  0
 16 15  2  0
 19 18  1  0
 19 20  1  6
 19 22  1  0
 20 21  1  0
 22 23  1  0
 24 22  2  0
M  END
$$$$
