EDC.pdb
     RDKit          3D

 24 23  0  0  1  0  0  0  0  0999 V2000
   13.1956   -8.6326   -9.3282 N   0  0  0  0  0  0  0  0  0  0  0  0
   14.6492   -8.5974   -9.0214 C   0  0  1  0  0  0  0  0  0  0  0  0
   15.2217   -9.9141   -9.4312 C   0  0  0  0  0  0  0  0  0  0  0  0
   15.1085  -10.3063  -10.8485 C   0  0  0  0  0  0  0  0  0  0  0  0
   15.7004  -11.6131  -11.1974 C   0  0  0  0  0  0  0  0  0  0  0  0
   16.2815  -11.7635  -12.2979 O   0  0  0  0  0  0  0  0  0  0  0  0
   15.1810   -7.4368   -9.7474 C   0  0  0  0  0  0  0  0  0  0  0  0
   14.6405   -7.0432  -10.7991 O   0  0  0  0  0  0  0  0  0  0  0  0
   15.6275  -12.6791  -10.3319 O   0  0  0  0  0  0  0  0  0  0  0  0
   16.3102   -6.7419   -9.2718 N   0  0  0  0  0  0  0  0  0  0  0  0
   16.8371   -5.5321  -10.0120 C   0  0  1  0  0  0  0  0  0  0  0  0
   16.6934   -4.4504   -8.9625 C   0  0  0  0  0  0  0  0  0  0  0  0
   16.9242   -3.0860   -9.3433 C   0  0  0  0  0  0  0  0  0  0  0  0
   16.8542   -2.1143   -8.5864 O   0  0  0  0  0  0  0  0  0  0  0  0
   18.2445   -5.8426  -10.3380 C   0  0  0  0  0  0  0  0  0  0  0  0
   19.0419   -6.1003   -9.3703 O   0  0  0  0  0  0  0  0  0  0  0  0
   17.2625   -2.7721  -10.6846 O   0  0  0  0  0  0  0  0  0  0  0  0
   18.8243   -5.8939  -11.6205 N   0  0  0  0  0  0  0  0  0  0  0  0
   20.2514   -6.1450  -11.7943 C   0  0  1  0  0  0  0  0  0  0  0  0
   20.5209   -7.3820  -12.6192 C   0  0  0  0  0  0  0  0  0  0  0  0
   19.7512   -8.8574  -11.9290 S   0  0  0  0  0  0  0  0  0  0  0  0
   20.8855   -4.9903  -12.4971 C   0  0  0  0  0  0  0  0  0  0  0  0
   22.2557   -4.9176  -12.6735 O   0  0  0  0  0  0  0  0  0  0  0  0
   20.1840   -4.0576  -12.9444 O   0  0  0  0  0  0  0  0  0  0  0  0
  2  1  1  6
  2  3  1  0
  3  4  1  0
  4  5  1  0
  5  9  1  0
  5  6  2  0
  7  2  1  0
  8  7  2  0
 10  7  1  0
 11 10  1  0
 12 13  1  0
 11 12  1  1
 13 17  1  0
 14 13  2  0
 15 11  1  0
 15 18  1  0
 16 15  2  0
 19 18  1  0
 19 20  1  6
 19 22  1  0
 20 21  1  0
 22 23  1  0
 24 22  2  0
M  END
$$$$
