EDC.pdb
     RDKit          3D

 24 23  0  0  1  0  0  0  0  0999 V2000
   19.9330  -12.5246  -18.7488 N   0  0  0  0  0  0  0  0  0  0  0  0
   20.5203  -12.0305  -17.4763 C   0  0  1  0  0  0  0  0  0  0  0  0
   21.9998  -12.2087  -17.5713 C   0  0  0  0  0  0  0  0  0  0  0  0
   22.5508  -12.7598  -18.8234 C   0  0  0  0  0  0  0  0  0  0  0  0
   23.1382  -14.1104  -18.7211 C   0  0  0  0  0  0  0  0  0  0  0  0
   23.8636  -14.4054  -17.7421 O   0  0  0  0  0  0  0  0  0  0  0  0
   20.0704  -10.6388  -17.3445 C   0  0  0  0  0  0  0  0  0  0  0  0
   20.0589   -9.8786  -18.3320 O   0  0  0  0  0  0  0  0  0  0  0  0
   22.9036  -15.0614  -19.6863 O   0  0  0  0  0  0  0  0  0  0  0  0
   19.6402  -10.1326  -16.1023 N   0  0  0  0  0  0  0  0  0  0  0  0
   19.2075   -8.6890  -15.9680 C   0  0  1  0  0  0  0  0  0  0  0  0
   18.0434   -8.8114  -15.0078 C   0  0  0  0  0  0  0  0  0  0  0  0
   16.7672   -9.2213  -15.5208 C   0  0  0  0  0  0  0  0  0  0  0  0
   15.9026   -9.8239  -14.8796 O   0  0  0  0  0  0  0  0  0  0  0  0
   20.3651   -7.9753  -15.3902 C   0  0  0  0  0  0  0  0  0  0  0  0
   21.1285   -8.6190  -14.5892 O   0  0  0  0  0  0  0  0  0  0  0  0
   16.4199   -8.9371  -16.8665 O   0  0  0  0  0  0  0  0  0  0  0  0
   20.7386   -6.6380  -15.6269 N   0  0  0  0  0  0  0  0  0  0  0  0
   21.9754   -6.0912  -15.0782 C   0  0  1  0  0  0  0  0  0  0  0  0
   22.5162   -4.9494  -15.9070 C   0  0  0  0  0  0  0  0  0  0  0  0
   23.8749   -4.0869  -15.0972 S   0  0  0  0  0  0  0  0  0  0  0  0
   21.7295   -5.5688  -13.7012 C   0  0  0  0  0  0  0  0  0  0  0  0
   22.6432   -5.7659  -12.6813 O   0  0  0  0  0  0  0  0  0  0  0  0
   20.6833   -4.9368  -13.4404 O   0  0  0  0  0  0  0  0  0  0  0  0
  2  1  1  6
  2  3  1  0
  3  4  1  0
  4  5  1  0
  5  9  1  0
  5  6  2  0
  7  2  1  0
  8  7  2  0
 10  7  1  0
 11 10  1  0
 12 13  1  0
 11 12  1  1
 13 17  1  0
 14 13  2  0
 15 11  1  0
 15 18  1  0
 16 15  2  0
 19 18  1  0
 19 20  1  6
 19 22  1  0
 20 21  1  0
 22 23  1  0
 24 22  2  0
M  END
$$$$
