CMG.pdb
     RDKit          3D

 19 18  0  0  1  0  0  0  0  0999 V2000
    7.8030  -12.8270   19.2796 N   0  0  0  0  0  0  0  0  0  0  0  0
    7.1873  -13.6698   20.2551 C   0  0  1  0  0  0  0  0  0  0  0  0
    6.9806  -15.0923   19.7837 C   0  0  0  0  0  0  0  0  0  0  0  0
    8.6427  -15.8648   19.7251 S   0  0  0  0  0  0  0  0  0  0  0  0
    7.9303  -13.6092   21.5343 C   0  0  0  0  0  0  0  0  0  0  0  0
    9.1003  -13.1595   21.6310 O   0  0  0  0  0  0  0  0  0  0  0  0
    7.4756  -11.7836   27.6752 C   0  0  0  0  0  0  0  0  0  0  0  0
    5.9487  -11.9215   26.6796 S   0  0  0  0  0  0  0  0  0  0  0  0
    6.4491  -12.3519   24.9582 C   0  0  0  0  0  0  0  0  0  0  0  0
    6.9853  -13.7339   25.0072 C   0  0  0  0  0  0  0  0  0  0  0  0
    8.0274  -14.0918   23.9981 C   0  0  2  0  0  0  0  0  0  0  0  0
    7.3017  -14.0767   22.7042 N   0  0  0  0  0  0  0  0  0  0  0  0
    8.5813  -15.4553   24.1274 C   0  0  0  0  0  0  0  0  0  0  0  0
    7.8436  -16.4623   24.4176 O   0  0  0  0  0  0  0  0  0  0  0  0
    9.9542  -15.7762   23.9442 N   0  0  0  0  0  0  0  0  0  0  0  0
   10.4341  -17.1555   24.0770 C   0  0  0  0  0  0  0  0  0  0  0  0
   11.8980  -17.1897   23.8448 C   0  0  0  0  0  0  0  0  0  0  0  0
   12.6115  -18.3546   23.9468 O   0  0  0  0  0  0  0  0  0  0  0  0
   12.5426  -16.1450   23.5436 O   0  0  0  0  0  0  0  0  0  0  0  0
  2  1  1  6
  3  2  1  0
  4  3  1  0
  5  2  1  0
  6  5  2  0
  8  7  1  0
  8  9  1  0
 10  9  1  0
 11 10  1  1
 11 12  1  0
 12  5  1  0
 13 11  1  0
 13 15  1  0
 14 13  2  0
 16 15  1  0
 17 16  1  0
 18 17  1  0
 19 17  2  0
M  END
$$$$
