CMG.pdb
     RDKit          3D

 19 18  0  0  1  0  0  0  0  0999 V2000
    8.1017  -12.5596   19.7923 N   0  0  0  0  0  0  0  0  0  0  0  0
    7.7077  -13.7463   20.4830 C   0  0  1  0  0  0  0  0  0  0  0  0
    8.0146  -15.0191   19.7253 C   0  0  0  0  0  0  0  0  0  0  0  0
    7.1541  -16.3717   20.6158 S   0  0  0  0  0  0  0  0  0  0  0  0
    8.2747  -13.7615   21.8506 C   0  0  0  0  0  0  0  0  0  0  0  0
    9.3685  -13.2185   22.1492 O   0  0  0  0  0  0  0  0  0  0  0  0
    6.5197  -10.8131   27.2414 C   0  0  0  0  0  0  0  0  0  0  0  0
    7.2669  -12.4266   26.8171 S   0  0  0  0  0  0  0  0  0  0  0  0
    6.2934  -13.1357   25.4212 C   0  0  0  0  0  0  0  0  0  0  0  0
    6.8868  -14.4619   25.1231 C   0  0  0  0  0  0  0  0  0  0  0  0
    8.1004  -14.4801   24.2519 C   0  0  2  0  0  0  0  0  0  0  0  0
    7.5590  -14.4149   22.8721 N   0  0  0  0  0  0  0  0  0  0  0  0
    8.8932  -15.7253   24.3094 C   0  0  0  0  0  0  0  0  0  0  0  0
    9.4726  -16.1114   25.3854 O   0  0  0  0  0  0  0  0  0  0  0  0
    9.0844  -16.5978   23.2032 N   0  0  0  0  0  0  0  0  0  0  0  0
    9.8426  -17.8450   23.3440 C   0  0  0  0  0  0  0  0  0  0  0  0
   11.2924  -17.5512   23.2459 C   0  0  0  0  0  0  0  0  0  0  0  0
   11.9149  -16.7154   24.1349 O   0  0  0  0  0  0  0  0  0  0  0  0
   12.0087  -18.0615   22.3380 O   0  0  0  0  0  0  0  0  0  0  0  0
  2  1  1  6
  3  2  1  0
  4  3  1  0
  5  2  1  0
  6  5  2  0
  8  7  1  0
  8  9  1  0
 10  9  1  0
 11 10  1  1
 11 12  1  0
 12  5  1  0
 13 11  1  0
 13 15  1  0
 14 13  2  0
 16 15  1  0
 17 16  1  0
 18 17  1  0
 19 17  2  0
M  END
$$$$
