CMG.pdb
     RDKit          3D

 19 18  0  0  1  0  0  0  0  0999 V2000
   -2.4078  -25.0225   26.5271 N   0  0  0  0  0  0  0  0  0  0  0  0
   -3.6561  -25.0500   27.2214 C   0  0  1  0  0  0  0  0  0  0  0  0
   -3.6224  -25.8612   28.4977 C   0  0  0  0  0  0  0  0  0  0  0  0
   -3.4118  -27.6116   27.9930 S   0  0  0  0  0  0  0  0  0  0  0  0
   -4.1521  -23.6737   27.4488 C   0  0  0  0  0  0  0  0  0  0  0  0
   -3.4752  -22.7833   28.0229 O   0  0  0  0  0  0  0  0  0  0  0  0
   -3.7282  -18.9098   24.1405 C   0  0  0  0  0  0  0  0  0  0  0  0
   -4.8215  -19.5737   25.4466 S   0  0  0  0  0  0  0  0  0  0  0  0
   -5.5442  -21.1474   24.8142 C   0  0  0  0  0  0  0  0  0  0  0  0
   -6.5182  -21.6051   25.8349 C   0  0  0  0  0  0  0  0  0  0  0  0
   -5.9725  -21.9630   27.1789 C   0  0  2  0  0  0  0  0  0  0  0  0
   -5.4449  -23.3385   27.0031 N   0  0  0  0  0  0  0  0  0  0  0  0
   -6.9776  -22.0576   28.2574 C   0  0  0  0  0  0  0  0  0  0  0  0
   -7.5640  -21.0209   28.7308 O   0  0  0  0  0  0  0  0  0  0  0  0
   -7.3847  -23.2794   28.8597 N   0  0  0  0  0  0  0  0  0  0  0  0
   -8.2692  -23.2899   30.0293 C   0  0  0  0  0  0  0  0  0  0  0  0
   -9.6209  -23.7388   29.6178 C   0  0  0  0  0  0  0  0  0  0  0  0
  -10.6221  -23.9265   30.5338 O   0  0  0  0  0  0  0  0  0  0  0  0
   -9.9003  -23.9650   28.4061 O   0  0  0  0  0  0  0  0  0  0  0  0
  2  1  1  1
  3  2  1  0
  4  3  1  0
  5  2  1  0
  6  5  2  0
  8  7  1  0
  8  9  1  0
 10  9  1  0
 11 10  1  6
 11 12  1  0
 12  5  1  0
 13 11  1  0
 13 15  1  0
 14 13  2  0
 16 15  1  0
 17 16  1  0
 18 17  1  0
 19 17  2  0
M  END
$$$$
