CMG.pdb
     RDKit          3D

 19 18  0  0  1  0  0  0  0  0999 V2000
    5.3900  -17.7308   23.7549 N   0  0  0  0  0  0  0  0  0  0  0  0
    5.8496  -17.2606   22.4867 C   0  0  1  0  0  0  0  0  0  0  0  0
    4.7375  -16.7943   21.5734 C   0  0  0  0  0  0  0  0  0  0  0  0
    3.5445  -18.1824   21.4602 S   0  0  0  0  0  0  0  0  0  0  0  0
    6.8940  -16.2266   22.6657 C   0  0  0  0  0  0  0  0  0  0  0  0
    7.5342  -15.7207   21.7092 O   0  0  0  0  0  0  0  0  0  0  0  0
    6.1792  -12.8614   27.7451 C   0  0  0  0  0  0  0  0  0  0  0  0
    6.1887  -11.7804   26.2710 S   0  0  0  0  0  0  0  0  0  0  0  0
    6.5491  -12.8440   24.8088 C   0  0  0  0  0  0  0  0  0  0  0  0
    7.5471  -13.8476   25.2522 C   0  0  0  0  0  0  0  0  0  0  0  0
    8.1729  -14.6942   24.1920 C   0  0  2  0  0  0  0  0  0  0  0  0
    7.1904  -15.7833   23.9689 N   0  0  0  0  0  0  0  0  0  0  0  0
    9.4279  -15.3658   24.5873 C   0  0  0  0  0  0  0  0  0  0  0  0
   10.4339  -14.7123   25.0382 O   0  0  0  0  0  0  0  0  0  0  0  0
    9.6364  -16.7701   24.5102 N   0  0  0  0  0  0  0  0  0  0  0  0
   10.8917  -17.3759   24.9659 C   0  0  0  0  0  0  0  0  0  0  0  0
   11.7245  -17.7221   23.7892 C   0  0  0  0  0  0  0  0  0  0  0  0
   12.8908  -18.4284   23.9211 O   0  0  0  0  0  0  0  0  0  0  0  0
   11.3893  -17.3787   22.6199 O   0  0  0  0  0  0  0  0  0  0  0  0
  2  1  1  1
  3  2  1  0
  4  3  1  0
  5  2  1  0
  6  5  2  0
  8  7  1  0
  8  9  1  0
 10  9  1  0
 11 10  1  1
 11 12  1  0
 12  5  1  0
 13 11  1  0
 13 15  1  0
 14 13  2  0
 16 15  1  0
 17 16  1  0
 18 17  1  0
 19 17  2  0
M  END
$$$$
