CMG.pdb
     RDKit          3D

 19 18  0  0  1  0  0  0  0  0999 V2000
    7.6453  -12.9749   19.6845 N   0  0  0  0  0  0  0  0  0  0  0  0
    7.4725  -14.2052   20.3896 C   0  0  1  0  0  0  0  0  0  0  0  0
    7.7785  -15.4299   19.5561 C   0  0  0  0  0  0  0  0  0  0  0  0
    6.3232  -16.5355   19.7072 S   0  0  0  0  0  0  0  0  0  0  0  0
    8.2387  -14.1877   21.6564 C   0  0  0  0  0  0  0  0  0  0  0  0
    9.3839  -13.6799   21.7622 O   0  0  0  0  0  0  0  0  0  0  0  0
    6.1903  -10.5414   26.5893 C   0  0  0  0  0  0  0  0  0  0  0  0
    6.5391  -12.3345   26.6576 S   0  0  0  0  0  0  0  0  0  0  0  0
    7.2452  -12.8221   25.0258 C   0  0  0  0  0  0  0  0  0  0  0  0
    7.5044  -14.2807   25.0966 C   0  0  0  0  0  0  0  0  0  0  0  0
    8.4274  -14.8548   24.0714 C   0  0  2  0  0  0  0  0  0  0  0  0
    7.6626  -14.7670   22.8031 N   0  0  0  0  0  0  0  0  0  0  0  0
    8.7439  -16.2871   24.2465 C   0  0  0  0  0  0  0  0  0  0  0  0
    7.9148  -17.1043   24.7825 O   0  0  0  0  0  0  0  0  0  0  0  0
    9.9695  -16.8853   23.8447 N   0  0  0  0  0  0  0  0  0  0  0  0
   11.2194  -16.6050   24.5586 C   0  0  0  0  0  0  0  0  0  0  0  0
   11.5235  -17.7302   25.4749 C   0  0  0  0  0  0  0  0  0  0  0  0
   10.9196  -17.8388   26.6996 O   0  0  0  0  0  0  0  0  0  0  0  0
   12.3515  -18.6318   25.1600 O   0  0  0  0  0  0  0  0  0  0  0  0
  2  1  1  6
  3  2  1  0
  4  3  1  0
  5  2  1  0
  6  5  2  0
  8  7  1  0
  8  9  1  0
 10  9  1  0
 11 10  1  1
 11 12  1  0
 12  5  1  0
 13 11  1  0
 13 15  1  0
 14 13  2  0
 16 15  1  0
 17 16  1  0
 18 17  1  0
 19 17  2  0
M  END
$$$$
