CMG.pdb
     RDKit          3D

 19 18  0  0  1  0  0  0  0  0999 V2000
    5.8617  -18.4893   23.6603 N   0  0  0  0  0  0  0  0  0  0  0  0
    6.2724  -17.9100   22.4207 C   0  0  1  0  0  0  0  0  0  0  0  0
    5.1286  -17.6437   21.4674 C   0  0  0  0  0  0  0  0  0  0  0  0
    3.5861  -17.8878   22.4287 S   0  0  0  0  0  0  0  0  0  0  0  0
    7.0907  -16.6998   22.6610 C   0  0  0  0  0  0  0  0  0  0  0  0
    7.5180  -15.9621   21.7370 O   0  0  0  0  0  0  0  0  0  0  0  0
    7.1811  -12.2336   27.3931 C   0  0  0  0  0  0  0  0  0  0  0  0
    5.7075  -12.7606   26.4484 S   0  0  0  0  0  0  0  0  0  0  0  0
    6.3033  -13.6386   24.9407 C   0  0  0  0  0  0  0  0  0  0  0  0
    7.4772  -14.4438   25.3570 C   0  0  0  0  0  0  0  0  0  0  0  0
    8.2307  -15.1503   24.2774 C   0  0  2  0  0  0  0  0  0  0  0  0
    7.4103  -16.3521   23.9874 N   0  0  0  0  0  0  0  0  0  0  0  0
    9.5589  -15.6617   24.6732 C   0  0  0  0  0  0  0  0  0  0  0  0
   10.5135  -14.8775   25.0144 O   0  0  0  0  0  0  0  0  0  0  0  0
    9.8992  -17.0415   24.7155 N   0  0  0  0  0  0  0  0  0  0  0  0
   10.5065  -17.7080   23.5591 C   0  0  0  0  0  0  0  0  0  0  0  0
   11.9381  -17.3325   23.4727 C   0  0  0  0  0  0  0  0  0  0  0  0
   12.9105  -18.2687   23.2395 O   0  0  0  0  0  0  0  0  0  0  0  0
   12.3149  -16.1339   23.6107 O   0  0  0  0  0  0  0  0  0  0  0  0
  2  1  1  1
  3  2  1  0
  4  3  1  0
  5  2  1  0
  6  5  2  0
  8  7  1  0
  8  9  1  0
 10  9  1  0
 11 10  1  1
 11 12  1  0
 12  5  1  0
 13 11  1  0
 13 15  1  0
 14 13  2  0
 16 15  1  0
 17 16  1  0
 18 17  1  0
 19 17  2  0
M  END
$$$$
