CMG.pdb
     RDKit          3D

 19 18  0  0  1  0  0  0  0  0999 V2000
    7.4406  -12.7778   19.3359 N   0  0  0  0  0  0  0  0  0  0  0  0
    7.2401  -13.9031   20.1928 C   0  0  1  0  0  0  0  0  0  0  0  0
    7.5163  -15.2315   19.5239 C   0  0  0  0  0  0  0  0  0  0  0  0
    6.9872  -16.5274   20.7086 S   0  0  0  0  0  0  0  0  0  0  0  0
    8.0083  -13.7410   21.4481 C   0  0  0  0  0  0  0  0  0  0  0  0
    9.1699  -13.2619   21.4882 O   0  0  0  0  0  0  0  0  0  0  0  0
    7.0493  -11.6179   27.7507 C   0  0  0  0  0  0  0  0  0  0  0  0
    5.7988  -11.9329   26.4550 S   0  0  0  0  0  0  0  0  0  0  0  0
    6.7037  -12.2590   24.8821 C   0  0  0  0  0  0  0  0  0  0  0  0
    7.1735  -13.6642   24.9486 C   0  0  0  0  0  0  0  0  0  0  0  0
    8.1804  -14.0903   23.9303 C   0  0  2  0  0  0  0  0  0  0  0  0
    7.4148  -14.1414   22.6605 N   0  0  0  0  0  0  0  0  0  0  0  0
    8.7260  -15.4499   24.1206 C   0  0  0  0  0  0  0  0  0  0  0  0
    7.9660  -16.4733   24.2527 O   0  0  0  0  0  0  0  0  0  0  0  0
   10.1150  -15.7490   24.1720 N   0  0  0  0  0  0  0  0  0  0  0  0
   10.5900  -17.1351   24.2297 C   0  0  0  0  0  0  0  0  0  0  0  0
   12.0654  -17.1543   24.0854 C   0  0  0  0  0  0  0  0  0  0  0  0
   12.8711  -17.7075   25.0453 O   0  0  0  0  0  0  0  0  0  0  0  0
   12.6352  -16.6611   23.0707 O   0  0  0  0  0  0  0  0  0  0  0  0
  2  1  1  6
  3  2  1  0
  4  3  1  0
  5  2  1  0
  6  5  2  0
  8  7  1  0
  8  9  1  0
 10  9  1  0
 11 10  1  1
 11 12  1  0
 12  5  1  0
 13 11  1  0
 13 15  1  0
 14 13  2  0
 16 15  1  0
 17 16  1  0
 18 17  1  0
 19 17  2  0
M  END
$$$$
