CMG.pdb
     RDKit          3D

 19 18  0  0  1  0  0  0  0  0999 V2000
    7.6432  -12.9758   19.8272 N   0  0  0  0  0  0  0  0  0  0  0  0
    7.6484  -14.2014   20.5613 C   0  0  1  0  0  0  0  0  0  0  0  0
    8.3791  -15.3251   19.8602 C   0  0  0  0  0  0  0  0  0  0  0  0
    8.0930  -16.8335   20.8630 S   0  0  0  0  0  0  0  0  0  0  0  0
    8.1541  -13.9796   21.9350 C   0  0  0  0  0  0  0  0  0  0  0  0
    9.1096  -13.2072   22.2013 O   0  0  0  0  0  0  0  0  0  0  0  0
    6.2056  -10.8738   27.4138 C   0  0  0  0  0  0  0  0  0  0  0  0
    7.1997  -12.0503   26.4292 S   0  0  0  0  0  0  0  0  0  0  0  0
    6.0368  -12.9826   25.3441 C   0  0  0  0  0  0  0  0  0  0  0  0
    6.6326  -14.3256   25.1417 C   0  0  0  0  0  0  0  0  0  0  0  0
    7.9308  -14.3861   24.4044 C   0  0  2  0  0  0  0  0  0  0  0  0
    7.5396  -14.6646   23.0006 N   0  0  0  0  0  0  0  0  0  0  0  0
    8.8219  -15.4972   24.7966 C   0  0  0  0  0  0  0  0  0  0  0  0
    9.2835  -15.6085   25.9870 O   0  0  0  0  0  0  0  0  0  0  0  0
    9.2425  -16.5287   23.9131 N   0  0  0  0  0  0  0  0  0  0  0  0
   10.0698  -17.6424   24.3879 C   0  0  0  0  0  0  0  0  0  0  0  0
   11.4500  -17.4834   23.8704 C   0  0  0  0  0  0  0  0  0  0  0  0
   11.8696  -16.3107   23.3000 O   0  0  0  0  0  0  0  0  0  0  0  0
   12.2916  -18.4241   23.9365 O   0  0  0  0  0  0  0  0  0  0  0  0
  2  1  1  6
  3  2  1  0
  4  3  1  0
  5  2  1  0
  6  5  2  0
  8  7  1  0
  8  9  1  0
 10  9  1  0
 11 10  1  1
 11 12  1  0
 12  5  1  0
 13 11  1  0
 13 15  1  0
 14 13  2  0
 16 15  1  0
 17 16  1  0
 18 17  1  0
 19 17  2  0
M  END
$$$$
