CMG.pdb
     RDKit          3D

 19 18  0  0  1  0  0  0  0  0999 V2000
    5.6450  -19.5129   23.1612 N   0  0  0  0  0  0  0  0  0  0  0  0
    5.9475  -18.6920   24.2906 C   0  0  1  0  0  0  0  0  0  0  0  0
    6.6951  -19.4194   25.3861 C   0  0  0  0  0  0  0  0  0  0  0  0
    8.4388  -19.5395   24.8310 S   0  0  0  0  0  0  0  0  0  0  0  0
    6.6472  -17.4596   23.8620 C   0  0  0  0  0  0  0  0  0  0  0  0
    7.0787  -17.2827   22.6945 O   0  0  0  0  0  0  0  0  0  0  0  0
    6.8384  -12.3165   28.0889 C   0  0  0  0  0  0  0  0  0  0  0  0
    6.2785  -11.7657   26.4382 S   0  0  0  0  0  0  0  0  0  0  0  0
    7.2287  -12.7265   25.1840 C   0  0  0  0  0  0  0  0  0  0  0  0
    6.7890  -14.1373   25.3108 C   0  0  0  0  0  0  0  0  0  0  0  0
    7.4235  -15.1294   24.3912 C   0  0  2  0  0  0  0  0  0  0  0  0
    6.8429  -16.4310   24.8033 N   0  0  0  0  0  0  0  0  0  0  0  0
    8.8851  -15.2795   24.5452 C   0  0  0  0  0  0  0  0  0  0  0  0
    9.4194  -15.6048   25.6637 O   0  0  0  0  0  0  0  0  0  0  0  0
    9.8196  -15.0846   23.4915 N   0  0  0  0  0  0  0  0  0  0  0  0
   11.2599  -15.0178   23.7587 C   0  0  0  0  0  0  0  0  0  0  0  0
   11.8832  -16.3182   23.4144 C   0  0  0  0  0  0  0  0  0  0  0  0
   12.4472  -16.5381   22.1855 O   0  0  0  0  0  0  0  0  0  0  0  0
   11.9180  -17.2726   24.2422 O   0  0  0  0  0  0  0  0  0  0  0  0
  2  1  1  6
  3  2  1  0
  4  3  1  0
  5  2  1  0
  6  5  2  0
  8  7  1  0
  8  9  1  0
 10  9  1  0
 11 10  1  1
 11 12  1  0
 12  5  1  0
 13 11  1  0
 13 15  1  0
 14 13  2  0
 16 15  1  0
 17 16  1  0
 18 17  1  0
 19 17  2  0
M  END
$$$$
