CMG.pdb
     RDKit          3D

 19 18  0  0  1  0  0  0  0  0999 V2000
    6.2087  -18.2366   20.7792 N   0  0  0  0  0  0  0  0  0  0  0  0
    6.4107  -18.2502   22.1933 C   0  0  1  0  0  0  0  0  0  0  0  0
    6.9645  -19.5580   22.7142 C   0  0  0  0  0  0  0  0  0  0  0  0
    7.0192  -19.4060   24.5408 S   0  0  0  0  0  0  0  0  0  0  0  0
    7.2331  -17.0917   22.6098 C   0  0  0  0  0  0  0  0  0  0  0  0
    8.2772  -16.7354   22.0069 O   0  0  0  0  0  0  0  0  0  0  0  0
    6.4371  -10.7513   27.1725 C   0  0  0  0  0  0  0  0  0  0  0  0
    5.8320  -12.3500   26.5246 S   0  0  0  0  0  0  0  0  0  0  0  0
    7.2475  -13.1740   25.6782 C   0  0  0  0  0  0  0  0  0  0  0  0
    6.6953  -14.3729   25.0018 C   0  0  0  0  0  0  0  0  0  0  0  0
    7.6553  -15.2149   24.2261 C   0  0  2  0  0  0  0  0  0  0  0  0
    6.8322  -16.3478   23.7360 N   0  0  0  0  0  0  0  0  0  0  0  0
    8.7380  -15.8259   25.0241 C   0  0  0  0  0  0  0  0  0  0  0  0
    8.5894  -16.9509   25.6198 O   0  0  0  0  0  0  0  0  0  0  0  0
   10.0212  -15.2405   25.2028 N   0  0  0  0  0  0  0  0  0  0  0  0
   11.0661  -15.3793   24.1834 C   0  0  0  0  0  0  0  0  0  0  0  0
   11.9562  -16.5087   24.5441 C   0  0  0  0  0  0  0  0  0  0  0  0
   13.1024  -16.7692   23.8407 O   0  0  0  0  0  0  0  0  0  0  0  0
   11.6908  -17.2734   25.5148 O   0  0  0  0  0  0  0  0  0  0  0  0
  2  1  1  6
  3  2  1  0
  4  3  1  0
  5  2  1  0
  6  5  2  0
  8  7  1  0
  8  9  1  0
 10  9  1  0
 11 10  1  1
 11 12  1  0
 12  5  1  0
 13 11  1  0
 13 15  1  0
 14 13  2  0
 16 15  1  0
 17 16  1  0
 18 17  1  0
 19 17  2  0
M  END
$$$$
