CMG.pdb
     RDKit          3D

 19 18  0  0  1  0  0  0  0  0999 V2000
    5.0392  -18.8402   21.6897 N   0  0  0  0  0  0  0  0  0  0  0  0
    5.3629  -18.4012   23.0101 C   0  0  1  0  0  0  0  0  0  0  0  0
    5.9516  -19.4874   23.8830 C   0  0  0  0  0  0  0  0  0  0  0  0
    7.4854  -20.0476   23.0483 S   0  0  0  0  0  0  0  0  0  0  0  0
    6.2255  -17.1990   22.9589 C   0  0  0  0  0  0  0  0  0  0  0  0
    6.8377  -16.8336   21.9234 O   0  0  0  0  0  0  0  0  0  0  0  0
    7.4603  -11.8879   28.0591 C   0  0  0  0  0  0  0  0  0  0  0  0
    6.3123  -12.1534   26.6614 S   0  0  0  0  0  0  0  0  0  0  0  0
    7.2612  -12.9872   25.3185 C   0  0  0  0  0  0  0  0  0  0  0  0
    6.5656  -14.2677   25.0422 C   0  0  0  0  0  0  0  0  0  0  0  0
    7.2560  -15.2303   24.1315 C   0  0  2  0  0  0  0  0  0  0  0  0
    6.3722  -16.4219   24.1238 N   0  0  0  0  0  0  0  0  0  0  0  0
    8.5685  -15.7118   24.6090 C   0  0  0  0  0  0  0  0  0  0  0  0
    8.7268  -16.1940   25.7858 O   0  0  0  0  0  0  0  0  0  0  0  0
    9.7556  -15.6901   23.8269 N   0  0  0  0  0  0  0  0  0  0  0  0
   11.0566  -16.0246   24.4150 C   0  0  0  0  0  0  0  0  0  0  0  0
   12.0851  -16.0510   23.3475 C   0  0  0  0  0  0  0  0  0  0  0  0
   13.4125  -16.2254   23.6371 O   0  0  0  0  0  0  0  0  0  0  0  0
   11.7753  -15.9137   22.1298 O   0  0  0  0  0  0  0  0  0  0  0  0
  2  1  1  6
  3  2  1  0
  4  3  1  0
  5  2  1  0
  6  5  2  0
  8  7  1  0
  8  9  1  0
 10  9  1  0
 11 10  1  1
 11 12  1  0
 12  5  1  0
 13 11  1  0
 13 15  1  0
 14 13  2  0
 16 15  1  0
 17 16  1  0
 18 17  1  0
 19 17  2  0
M  END
$$$$
