GTF.pdb
     RDKit          3D

 23 23  0  0  1  0  0  0  0  0999 V2000
    8.0779  -12.6319   17.9348 N   0  0  0  0  0  0  0  0  0  0  0  0
    8.8146  -13.7059   18.5255 C   0  0  0  0  0  0  0  0  0  0  0  0
    8.2685  -14.0710   19.8789 C   0  0  0  0  0  0  0  0  0  0  0  0
    7.7369  -13.1913   20.5698 O   0  0  0  0  0  0  0  0  0  0  0  0
    6.4505  -17.3515   20.4008 C   0  0  0  0  0  0  0  0  0  0  0  0
    7.4860  -17.2756   21.5302 C   0  0  1  0  0  0  0  0  0  0  0  0
    8.5602  -18.0993   21.2965 O   0  0  0  0  0  0  0  0  0  0  0  0
    7.8527  -15.8121   21.6593 C   0  0  2  0  0  0  0  0  0  0  0  0
    8.3678  -15.4099   20.3460 N   0  0  0  0  0  0  0  0  0  0  0  0
    8.9446  -15.6785   22.6868 C   0  0  0  0  0  0  0  0  0  0  0  0
   10.1403  -15.5933   22.3101 O   0  0  0  0  0  0  0  0  0  0  0  0
    8.6448  -15.6478   24.0573 N   0  0  0  0  0  0  0  0  0  0  0  0
    9.6652  -15.5448   25.1108 C   0  0  1  0  0  0  0  0  0  0  0  0
    9.7117  -14.1171   25.5019 C   0  0  0  0  0  0  0  0  0  0  0  0
    8.4701  -13.4900   25.9202 C   0  0  0  0  0  0  0  0  0  0  0  0
    7.6407  -12.9544   24.9517 C   0  0  0  0  0  0  0  0  0  0  0  0
    6.4377  -12.3412   25.2437 C   0  0  0  0  0  0  0  0  0  0  0  0
    6.0469  -12.2592   26.5544 C   0  0  0  0  0  0  0  0  0  0  0  0
    6.8431  -12.7788   27.5418 C   0  0  0  0  0  0  0  0  0  0  0  0
    8.0344  -13.3832   27.2236 C   0  0  0  0  0  0  0  0  0  0  0  0
    9.2773  -16.3722   26.2756 C   0  0  0  0  0  0  0  0  0  0  0  0
    8.1095  -17.1114   26.3328 O   0  0  0  0  0  0  0  0  0  0  0  0
   10.0455  -16.4072   27.2662 O   0  0  0  0  0  0  0  0  0  0  0  0
  2  1  1  0
  3  2  1  0
  3  9  1  0
  4  3  2  0
  6  8  1  0
  6  5  1  6
  7  6  1  0
  8  9  1  6
  8 10  1  0
 10 12  1  0
 11 10  2  0
 12 13  1  0
 13 14  1  1
 14 15  1  0
 15 16  2  0
 15 20  1  0
 16 17  1  0
 17 18  2  0
 19 18  1  0
 20 19  2  0
 21 13  1  0
 21 22  1  0
 23 21  2  0
M  END
$$$$
