GTF.pdb
     RDKit          3D

 23 23  0  0  1  0  0  0  0  0999 V2000
    8.6130  -12.5709   17.8420 N   0  0  0  0  0  0  0  0  0  0  0  0
    9.3517  -13.2979   18.8273 C   0  0  0  0  0  0  0  0  0  0  0  0
    8.5459  -13.5028   20.0812 C   0  0  0  0  0  0  0  0  0  0  0  0
    7.9710  -12.5318   20.5915 O   0  0  0  0  0  0  0  0  0  0  0  0
    5.8614  -15.9004   20.6580 C   0  0  0  0  0  0  0  0  0  0  0  0
    6.9130  -16.2759   21.7100 C   0  0  1  0  0  0  0  0  0  0  0  0
    7.6439  -17.3764   21.3337 O   0  0  0  0  0  0  0  0  0  0  0  0
    7.7473  -15.0307   21.9256 C   0  0  2  0  0  0  0  0  0  0  0  0
    8.4540  -14.7972   20.6616 N   0  0  0  0  0  0  0  0  0  0  0  0
    8.7491  -15.3054   23.0150 C   0  0  0  0  0  0  0  0  0  0  0  0
    9.9268  -15.6167   22.7071 O   0  0  0  0  0  0  0  0  0  0  0  0
    8.3852  -15.2182   24.3675 N   0  0  0  0  0  0  0  0  0  0  0  0
    9.3144  -15.4743   25.4777 C   0  0  1  0  0  0  0  0  0  0  0  0
    9.2484  -14.2823   26.3542 C   0  0  0  0  0  0  0  0  0  0  0  0
    8.0479  -13.4667   26.2967 C   0  0  0  0  0  0  0  0  0  0  0  0
    8.1442  -12.1829   25.7914 C   0  0  0  0  0  0  0  0  0  0  0  0
    7.0629  -11.3290   25.6899 C   0  0  0  0  0  0  0  0  0  0  0  0
    5.8369  -11.7740   26.1094 C   0  0  0  0  0  0  0  0  0  0  0  0
    5.7029  -13.0406   26.6161 C   0  0  0  0  0  0  0  0  0  0  0  0
    6.7946  -13.8689   26.7058 C   0  0  0  0  0  0  0  0  0  0  0  0
    8.8871  -16.6753   26.2304 C   0  0  0  0  0  0  0  0  0  0  0  0
    9.6390  -17.2539   27.2370 O   0  0  0  0  0  0  0  0  0  0  0  0
    7.7851  -17.2003   25.9428 O   0  0  0  0  0  0  0  0  0  0  0  0
  2  1  1  0
  3  2  1  0
  3  9  1  0
  4  3  2  0
  6  8  1  0
  6  5  1  6
  7  6  1  0
  8  9  1  6
  8 10  1  0
 10 12  1  0
 11 10  2  0
 12 13  1  0
 13 14  1  1
 14 15  1  0
 15 16  2  0
 15 20  1  0
 16 17  1  0
 17 18  2  0
 19 18  1  0
 20 19  2  0
 21 13  1  0
 21 22  1  0
 23 21  2  0
M  END
$$$$
