GTF.pdb
     RDKit          3D

 23 23  0  0  1  0  0  0  0  0999 V2000
    8.0057  -12.5765   17.9636 N   0  0  0  0  0  0  0  0  0  0  0  0
    8.8944  -13.1733   18.9117 C   0  0  0  0  0  0  0  0  0  0  0  0
    8.1410  -13.8674   20.0136 C   0  0  0  0  0  0  0  0  0  0  0  0
    6.9254  -13.6622   20.1322 O   0  0  0  0  0  0  0  0  0  0  0  0
    7.2243  -16.9414   20.1499 C   0  0  0  0  0  0  0  0  0  0  0  0
    8.1036  -16.9524   21.4070 C   0  0  1  0  0  0  0  0  0  0  0  0
    9.3529  -17.4643   21.1540 O   0  0  0  0  0  0  0  0  0  0  0  0
    8.1173  -15.5265   21.9164 C   0  0  2  0  0  0  0  0  0  0  0  0
    8.8264  -14.7435   20.8987 N   0  0  0  0  0  0  0  0  0  0  0  0
    8.8898  -15.4842   23.2076 C   0  0  0  0  0  0  0  0  0  0  0  0
   10.0958  -15.1321   23.1947 O   0  0  0  0  0  0  0  0  0  0  0  0
    8.2812  -15.8323   24.4233 N   0  0  0  0  0  0  0  0  0  0  0  0
    8.9561  -15.7397   25.7263 C   0  0  1  0  0  0  0  0  0  0  0  0
    7.9251  -15.3002   26.6944 C   0  0  0  0  0  0  0  0  0  0  0  0
    7.4623  -13.9258   26.6118 C   0  0  0  0  0  0  0  0  0  0  0  0
    6.1828  -13.6859   26.1449 C   0  0  0  0  0  0  0  0  0  0  0  0
    5.6464  -12.4178   26.0320 C   0  0  0  0  0  0  0  0  0  0  0  0
    6.4177  -11.3467   26.3994 C   0  0  0  0  0  0  0  0  0  0  0  0
    7.6909  -11.5457   26.8666 C   0  0  0  0  0  0  0  0  0  0  0  0
    8.1994  -12.8171   26.9689 C   0  0  0  0  0  0  0  0  0  0  0  0
    9.4823  -17.0660   26.1206 C   0  0  0  0  0  0  0  0  0  0  0  0
    9.2614  -18.2224   25.3943 O   0  0  0  0  0  0  0  0  0  0  0  0
   10.1651  -17.1506   27.1691 O   0  0  0  0  0  0  0  0  0  0  0  0
  2  1  1  0
  3  2  1  0
  3  9  1  0
  4  3  2  0
  6  8  1  0
  6  5  1  6
  7  6  1  0
  8  9  1  6
  8 10  1  0
 10 12  1  0
 11 10  2  0
 12 13  1  0
 13 14  1  1
 14 15  1  0
 15 16  2  0
 15 20  1  0
 16 17  1  0
 17 18  2  0
 19 18  1  0
 20 19  2  0
 21 13  1  0
 21 22  1  0
 23 21  2  0
M  END
$$$$
