TQK.pdb
     RDKit          3D

 26 25  0  0  1  0  0  0  0  0999 V2000
   20.1794  -12.8028  -18.8902 C   0  0  0  0  0  0  0  0  0  0  0  0
   20.9163  -12.0182  -17.8614 C   0  0  1  0  0  0  0  0  0  0  0  0
   20.0132  -11.1436  -17.2304 O   0  0  0  0  0  0  0  0  0  0  0  0
   21.6566  -12.8258  -16.8522 C   0  0  2  0  0  0  0  0  0  0  0  0
   20.8743  -13.8060  -16.1834 N   0  0  0  0  0  0  0  0  0  0  0  0
   22.3567  -11.8959  -15.9338 C   0  0  0  0  0  0  0  0  0  0  0  0
   21.9233  -11.8131  -14.7571 O   0  0  0  0  0  0  0  0  0  0  0  0
   28.1342  -10.3141  -16.3639 N   0  0  0  0  0  0  0  0  0  0  0  0
   27.6465  -11.5195  -15.8202 C   0  0  0  0  0  0  0  0  0  0  0  0
   28.3760  -12.5126  -15.6878 O   0  0  0  0  0  0  0  0  0  0  0  0
   26.2012  -11.5544  -15.4054 C   0  0  0  0  0  0  0  0  0  0  0  0
   25.5804  -10.2145  -15.7105 C   0  0  0  0  0  0  0  0  0  0  0  0
   24.1295  -10.1678  -15.4004 C   0  0  2  0  0  0  0  0  0  0  0  0
   23.4620  -11.1102  -16.2927 N   0  0  0  0  0  0  0  0  0  0  0  0
   23.4990   -8.8269  -15.4799 C   0  0  0  0  0  0  0  0  0  0  0  0
   23.8837   -7.9109  -14.7179 O   0  0  0  0  0  0  0  0  0  0  0  0
   22.4610   -8.5278  -16.3963 N   0  0  0  0  0  0  0  0  0  0  0  0
   21.6823   -7.3168  -16.4547 C   0  0  1  0  0  0  0  0  0  0  0  0
   20.7178   -7.2951  -17.5838 C   0  0  0  0  0  0  0  0  0  0  0  0
   19.8506   -6.0831  -17.6967 C   0  0  0  0  0  0  0  0  0  0  0  0
   18.8505   -6.1912  -18.8324 C   0  0  0  0  0  0  0  0  0  0  0  0
   18.0759   -4.8774  -18.9787 C   0  0  0  0  0  0  0  0  0  0  0  0
   17.1987   -4.9514  -20.1076 N   0  0  0  0  0  0  0  0  0  0  0  0
   21.1370   -6.9172  -15.1418 C   0  0  0  0  0  0  0  0  0  0  0  0
   20.5054   -7.8380  -14.3475 O   0  0  0  0  0  0  0  0  0  0  0  0
   21.2467   -5.7450  -14.7485 O   0  0  0  0  0  0  0  0  0  0  0  0
  2  1  1  6
  3  2  1  0
  4  2  1  0
  4  6  1  0
  4  5  1  1
  6  7  2  0
  8  9  1  0
  9 11  1  0
  9 10  2  0
 11 12  1  0
 13 12  1  6
 14  6  1  0
 14 13  1  0
 15 13  1  0
 15 16  2  0
 17 15  1  0
 18 17  1  0
 18 24  1  0
 18 19  1  6
 20 19  1  0
 21 20  1  0
 22 21  1  0
 23 22  1  0
 24 25  1  0
 26 24  2  0
M  END
$$$$
