TQK.pdb
     RDKit          3D

 26 25  0  0  1  0  0  0  0  0999 V2000
   28.2414  -19.0211  -17.2857 C   0  0  0  0  0  0  0  0  0  0  0  0
   27.1887  -19.7698  -16.5452 C   0  0  1  0  0  0  0  0  0  0  0  0
   26.1669  -20.1193  -17.4466 O   0  0  0  0  0  0  0  0  0  0  0  0
   27.6634  -20.9687  -15.7995 C   0  0  2  0  0  0  0  0  0  0  0  0
   28.2674  -21.9712  -16.6059 N   0  0  0  0  0  0  0  0  0  0  0  0
   26.5458  -21.4709  -14.9646 C   0  0  0  0  0  0  0  0  0  0  0  0
   25.9179  -22.4748  -15.3856 O   0  0  0  0  0  0  0  0  0  0  0  0
   25.6925  -20.2902   -9.0431 N   0  0  0  0  0  0  0  0  0  0  0  0
   24.4739  -20.9725   -9.2320 C   0  0  0  0  0  0  0  0  0  0  0  0
   23.7339  -21.2534   -8.2784 O   0  0  0  0  0  0  0  0  0  0  0  0
   24.1046  -21.3480  -10.6408 C   0  0  0  0  0  0  0  0  0  0  0  0
   25.2478  -20.9797  -11.5525 C   0  0  0  0  0  0  0  0  0  0  0  0
   24.9900  -21.3325  -12.9711 C   0  0  2  0  0  0  0  0  0  0  0  0
   26.1490  -20.9009  -13.7458 N   0  0  0  0  0  0  0  0  0  0  0  0
   23.7356  -20.7902  -13.5495 C   0  0  0  0  0  0  0  0  0  0  0  0
   23.6642  -19.5789  -13.8582 O   0  0  0  0  0  0  0  0  0  0  0  0
   22.5915  -21.5947  -13.7735 N   0  0  0  0  0  0  0  0  0  0  0  0
   21.2955  -21.1492  -14.2188 C   0  0  1  0  0  0  0  0  0  0  0  0
   20.4861  -22.2295  -14.8379 C   0  0  0  0  0  0  0  0  0  0  0  0
   19.1391  -21.8403  -15.3556 C   0  0  0  0  0  0  0  0  0  0  0  0
   18.3742  -23.0211  -15.9232 C   0  0  0  0  0  0  0  0  0  0  0  0
   17.0835  -22.5392  -16.5935 C   0  0  0  0  0  0  0  0  0  0  0  0
   16.2978  -23.6634  -17.0037 N   0  0  0  0  0  0  0  0  0  0  0  0
   20.5945  -20.3204  -13.2176 C   0  0  0  0  0  0  0  0  0  0  0  0
   19.9675  -19.1627  -13.5969 O   0  0  0  0  0  0  0  0  0  0  0  0
   20.5684  -20.6664  -12.0258 O   0  0  0  0  0  0  0  0  0  0  0  0
  2  1  1  6
  3  2  1  0
  4  2  1  0
  4  6  1  0
  4  5  1  6
  6  7  2  0
  8  9  1  0
  9 11  1  0
  9 10  2  0
 11 12  1  0
 13 12  1  1
 14  6  1  0
 14 13  1  0
 15 13  1  0
 15 16  2  0
 17 15  1  0
 18 17  1  0
 18 24  1  0
 18 19  1  1
 20 19  1  0
 21 20  1  0
 22 21  1  0
 23 22  1  0
 24 25  1  0
 26 24  2  0
M  END
$$$$
