TQK.pdb
     RDKit          3D

 26 25  0  0  1  0  0  0  0  0999 V2000
   27.0396   -9.9267  -14.9895 C   0  0  0  0  0  0  0  0  0  0  0  0
   27.6105  -10.4796  -16.2487 C   0  0  1  0  0  0  0  0  0  0  0  0
   29.0092  -10.3356  -16.2098 O   0  0  0  0  0  0  0  0  0  0  0  0
   27.2363  -11.8887  -16.5542 C   0  0  2  0  0  0  0  0  0  0  0  0
   27.9537  -12.4753  -17.6318 N   0  0  0  0  0  0  0  0  0  0  0  0
   25.7638  -11.9556  -16.7139 C   0  0  0  0  0  0  0  0  0  0  0  0
   25.2850  -11.5698  -17.8099 O   0  0  0  0  0  0  0  0  0  0  0  0
   22.0599  -16.1430  -14.7984 N   0  0  0  0  0  0  0  0  0  0  0  0
   21.0258  -15.2383  -15.1121 C   0  0  0  0  0  0  0  0  0  0  0  0
   19.8365  -15.5867  -15.1077 O   0  0  0  0  0  0  0  0  0  0  0  0
   21.4227  -13.8284  -15.4537 C   0  0  0  0  0  0  0  0  0  0  0  0
   22.9276  -13.7355  -15.4414 C   0  0  0  0  0  0  0  0  0  0  0  0
   23.4256  -12.3972  -15.8470 C   0  0  2  0  0  0  0  0  0  0  0  0
   24.8799  -12.4182  -15.7277 N   0  0  0  0  0  0  0  0  0  0  0  0
   22.8507  -11.2471  -15.1064 C   0  0  0  0  0  0  0  0  0  0  0  0
   23.5517  -10.6290  -14.2731 O   0  0  0  0  0  0  0  0  0  0  0  0
   21.5188  -10.8061  -15.3015 N   0  0  0  0  0  0  0  0  0  0  0  0
   20.9644   -9.5336  -14.9145 C   0  0  1  0  0  0  0  0  0  0  0  0
   21.8336   -8.3836  -15.2712 C   0  0  0  0  0  0  0  0  0  0  0  0
   21.3163   -7.0245  -14.9262 C   0  0  0  0  0  0  0  0  0  0  0  0
   22.2866   -5.9222  -15.3075 C   0  0  0  0  0  0  0  0  0  0  0  0
   21.7322   -4.5605  -14.8766 C   0  0  0  0  0  0  0  0  0  0  0  0
   22.6562   -3.5247  -15.2268 N   0  0  0  0  0  0  0  0  0  0  0  0
   19.5390   -9.3917  -15.2737 C   0  0  0  0  0  0  0  0  0  0  0  0
   18.7165   -8.5871  -14.5297 O   0  0  0  0  0  0  0  0  0  0  0  0
   19.0760  -10.0001  -16.2516 O   0  0  0  0  0  0  0  0  0  0  0  0
  2  1  1  1
  3  2  1  0
  4  2  1  0
  4  6  1  0
  4  5  1  6
  6  7  2  0
  8  9  1  0
  9 11  1  0
  9 10  2  0
 11 12  1  0
 13 12  1  1
 14  6  1  0
 14 13  1  0
 15 13  1  0
 15 16  2  0
 17 15  1  0
 18 17  1  0
 18 24  1  0
 18 19  1  6
 20 19  1  0
 21 20  1  0
 22 21  1  0
 23 22  1  0
 24 25  1  0
 26 24  2  0
M  END
$$$$
