TQK.pdb
     RDKit          3D

 26 25  0  0  1  0  0  0  0  0999 V2000
   38.4398  -10.5081  -13.2910 C   0  0  0  0  0  0  0  0  0  0  0  0
   38.4581   -9.1483  -12.6848 C   0  0  1  0  0  0  0  0  0  0  0  0
   39.6748   -8.9775  -11.9997 O   0  0  0  0  0  0  0  0  0  0  0  0
   38.2279   -8.0234  -13.6337 C   0  0  2  0  0  0  0  0  0  0  0  0
   38.7518   -6.7713  -13.2118 N   0  0  0  0  0  0  0  0  0  0  0  0
   36.7835   -7.9820  -13.9656 C   0  0  0  0  0  0  0  0  0  0  0  0
   36.1882   -9.0823  -14.0862 O   0  0  0  0  0  0  0  0  0  0  0  0
   33.3702   -2.8665  -14.1194 N   0  0  0  0  0  0  0  0  0  0  0  0
   32.3801   -3.7216  -14.6437 C   0  0  0  0  0  0  0  0  0  0  0  0
   31.2439   -3.3079  -14.9150 O   0  0  0  0  0  0  0  0  0  0  0  0
   32.7571   -5.1612  -14.8622 C   0  0  0  0  0  0  0  0  0  0  0  0
   34.1983   -5.3477  -14.4599 C   0  0  0  0  0  0  0  0  0  0  0  0
   34.6441   -6.7606  -14.5528 C   0  0  2  0  0  0  0  0  0  0  0  0
   36.0466   -6.8030  -14.1517 N   0  0  0  0  0  0  0  0  0  0  0  0
   34.4521   -7.4085  -15.8739 C   0  0  0  0  0  0  0  0  0  0  0  0
   35.4257   -7.5434  -16.6495 O   0  0  0  0  0  0  0  0  0  0  0  0
   33.1932   -7.8917  -16.3081 N   0  0  0  0  0  0  0  0  0  0  0  0
   32.9222   -8.6393  -17.5098 C   0  0  1  0  0  0  0  0  0  0  0  0
   33.5235   -9.9971  -17.5024 C   0  0  0  0  0  0  0  0  0  0  0  0
   33.3262  -10.8204  -18.7341 C   0  0  0  0  0  0  0  0  0  0  0  0
   33.8776  -12.2259  -18.5849 C   0  0  0  0  0  0  0  0  0  0  0  0
   33.7769  -12.9752  -19.9175 C   0  0  0  0  0  0  0  0  0  0  0  0
   34.2144  -14.3281  -19.7508 N   0  0  0  0  0  0  0  0  0  0  0  0
   31.5070   -8.5702  -17.9257 C   0  0  0  0  0  0  0  0  0  0  0  0
   31.1356   -8.9774  -19.1802 O   0  0  0  0  0  0  0  0  0  0  0  0
   30.6441   -8.1429  -17.1424 O   0  0  0  0  0  0  0  0  0  0  0  0
  2  1  1  6
  3  2  1  0
  4  2  1  0
  4  6  1  0
  4  5  1  1
  6  7  2  0
  8  9  1  0
  9 11  1  0
  9 10  2  0
 11 12  1  0
 13 12  1  6
 14  6  1  0
 14 13  1  0
 15 13  1  0
 15 16  2  0
 17 15  1  0
 18 17  1  0
 18 24  1  0
 18 19  1  1
 20 19  1  0
 21 20  1  0
 22 21  1  0
 23 22  1  0
 24 25  1  0
 26 24  2  0
M  END
$$$$
