TQK.pdb
     RDKit          3D

 26 25  0  0  1  0  0  0  0  0999 V2000
   21.4778  -13.7701  -22.2423 C   0  0  0  0  0  0  0  0  0  0  0  0
   22.0006  -13.0643  -21.0399 C   0  0  1  0  0  0  0  0  0  0  0  0
   20.9162  -12.7243  -20.2109 O   0  0  0  0  0  0  0  0  0  0  0  0
   23.0398  -13.8019  -20.2686 C   0  0  2  0  0  0  0  0  0  0  0  0
   22.6380  -15.0828  -19.8017 N   0  0  0  0  0  0  0  0  0  0  0  0
   23.5453  -12.9103  -19.1973 C   0  0  0  0  0  0  0  0  0  0  0  0
   22.9585  -12.9537  -18.0868 O   0  0  0  0  0  0  0  0  0  0  0  0
   28.9869  -10.1294  -19.1049 N   0  0  0  0  0  0  0  0  0  0  0  0
   28.4443   -9.4103  -18.0210 C   0  0  0  0  0  0  0  0  0  0  0  0
   29.1115   -8.5687  -17.4027 O   0  0  0  0  0  0  0  0  0  0  0  0
   27.0188   -9.7048  -17.6422 C   0  0  0  0  0  0  0  0  0  0  0  0
   26.4674  -10.7287  -18.6021 C   0  0  0  0  0  0  0  0  0  0  0  0
   25.0449  -11.0597  -18.3368 C   0  0  2  0  0  0  0  0  0  0  0  0
   24.6273  -12.0296  -19.3441 N   0  0  0  0  0  0  0  0  0  0  0  0
   24.1139   -9.9049  -18.2966 C   0  0  0  0  0  0  0  0  0  0  0  0
   23.6001   -9.4812  -19.3569 O   0  0  0  0  0  0  0  0  0  0  0  0
   23.7719   -9.2454  -17.0905 N   0  0  0  0  0  0  0  0  0  0  0  0
   22.8002   -8.1942  -16.9259 C   0  0  1  0  0  0  0  0  0  0  0  0
   21.5707   -8.4021  -17.7322 C   0  0  0  0  0  0  0  0  0  0  0  0
   20.4727   -7.4059  -17.5431 C   0  0  0  0  0  0  0  0  0  0  0  0
   19.2604   -7.7108  -18.4028 C   0  0  0  0  0  0  0  0  0  0  0  0
   18.1684   -6.6631  -18.1637 C   0  0  0  0  0  0  0  0  0  0  0  0
   17.0383   -6.9371  -18.9987 N   0  0  0  0  0  0  0  0  0  0  0  0
   22.5819   -7.8260  -15.5125 C   0  0  0  0  0  0  0  0  0  0  0  0
   23.1578   -8.5623  -14.5106 O   0  0  0  0  0  0  0  0  0  0  0  0
   21.8754   -6.8477  -15.2221 O   0  0  0  0  0  0  0  0  0  0  0  0
  2  1  1  6
  3  2  1  0
  4  2  1  0
  4  6  1  0
  4  5  1  1
  6  7  2  0
  8  9  1  0
  9 11  1  0
  9 10  2  0
 11 12  1  0
 13 12  1  6
 14  6  1  0
 14 13  1  0
 15 13  1  0
 15 16  2  0
 17 15  1  0
 18 17  1  0
 18 24  1  0
 18 19  1  1
 20 19  1  0
 21 20  1  0
 22 21  1  0
 23 22  1  0
 24 25  1  0
 26 24  2  0
M  END
$$$$
