YML.pdb
     RDKit          3D

 29 29  0  0  1  0  0  0  0  0999 V2000
   12.2782  -11.1947  -20.5766 O   0  0  0  0  0  0  0  0  0  0  0  0
   13.3357  -10.7857  -19.7401 C   0  0  0  0  0  0  0  0  0  0  0  0
   13.1779  -10.7818  -18.3675 C   0  0  0  0  0  0  0  0  0  0  0  0
   14.2153  -10.3798  -17.5271 C   0  0  0  0  0  0  0  0  0  0  0  0
   15.4255   -9.9754  -18.0420 C   0  0  0  0  0  0  0  0  0  0  0  0
   16.4966   -9.5555  -17.1107 C   0  0  0  0  0  0  0  0  0  0  0  0
   17.6248  -10.5587  -17.0602 C   0  0  2  0  0  0  0  0  0  0  0  0
   17.0971  -11.7573  -16.4452 N   0  0  0  0  0  0  0  0  0  0  0  0
   18.7785  -10.0930  -16.2950 C   0  0  0  0  0  0  0  0  0  0  0  0
   19.0523  -10.6860  -15.1995 O   0  0  0  0  0  0  0  0  0  0  0  0
   15.5615   -9.9868  -19.4126 C   0  0  0  0  0  0  0  0  0  0  0  0
   14.5419  -10.3828  -20.2543 C   0  0  0  0  0  0  0  0  0  0  0  0
   25.1173  -10.0148  -13.8997 C   0  0  0  0  0  0  0  0  0  0  0  0
   23.5018  -10.3733  -14.6678 S   0  0  0  0  0  0  0  0  0  0  0  0
   23.2679   -9.2765  -16.1328 C   0  0  0  0  0  0  0  0  0  0  0  0
   21.9024   -9.4411  -16.6914 C   0  0  0  0  0  0  0  0  0  0  0  0
   20.8112   -8.6608  -16.0437 C   0  0  2  0  0  0  0  0  0  0  0  0
   19.5790   -9.0059  -16.7558 N   0  0  0  0  0  0  0  0  0  0  0  0
   20.9567   -7.2066  -16.0541 C   0  0  0  0  0  0  0  0  0  0  0  0
   21.0846   -6.6345  -17.1933 O   0  0  0  0  0  0  0  0  0  0  0  0
   17.7067   -3.4790  -15.0961 C   0  0  0  0  0  0  0  0  0  0  0  0
   18.8725   -4.3206  -15.6258 C   0  0  1  0  0  0  0  0  0  0  0  0
   19.2343   -3.7220  -17.0106 C   0  0  0  0  0  0  0  0  0  0  0  0
   20.0377   -4.1011  -14.7080 C   0  0  0  0  0  0  0  0  0  0  0  0
   21.2067   -4.9186  -15.1167 C   0  0  2  0  0  0  0  0  0  0  0  0
   20.9701   -6.3423  -14.9478 N   0  0  0  0  0  0  0  0  0  0  0  0
   22.4107   -4.5436  -14.3685 C   0  0  0  0  0  0  0  0  0  0  0  0
   22.8991   -3.2240  -14.5018 O   0  0  0  0  0  0  0  0  0  0  0  0
   23.0465   -5.3050  -13.6148 O   0  0  0  0  0  0  0  0  0  0  0  0
  2  1  1  0
  3  2  2  0
  4  3  1  0
  5  4  2  0
  5 11  1  0
  6  5  1  0
  7  9  1  0
  7  6  1  0
  7  8  1  1
  9 10  2  0
 11 12  2  0
 12  2  1  0
 14 15  1  0
 14 13  1  0
 17 16  1  6
 16 15  1  0
 18 17  1  0
 18  9  1  0
 19 20  2  0
 19 17  1  0
 22 21  1  1
 22 24  1  0
 23 22  1  0
 25 24  1  1
 25 27  1  0
 25 26  1  0
 26 19  1  0
 27 28  1  0
 29 27  2  0
M  END
$$$$
