YML.pdb
     RDKit          3D

 29 29  0  0  1  0  0  0  0  0999 V2000
   24.7759  -20.8654   -7.4933 O   0  0  0  0  0  0  0  0  0  0  0  0
   24.9508  -20.6463   -8.8741 C   0  0  0  0  0  0  0  0  0  0  0  0
   23.8928  -20.2160   -9.6516 C   0  0  0  0  0  0  0  0  0  0  0  0
   24.0507  -19.9950  -11.0192 C   0  0  0  0  0  0  0  0  0  0  0  0
   25.2653  -20.1996  -11.6326 C   0  0  0  0  0  0  0  0  0  0  0  0
   25.3844  -19.9535  -13.0872 C   0  0  0  0  0  0  0  0  0  0  0  0
   24.3576  -20.7313  -13.8763 C   0  0  2  0  0  0  0  0  0  0  0  0
   24.7458  -22.1238  -13.8174 N   0  0  0  0  0  0  0  0  0  0  0  0
   24.2664  -20.3158  -15.2736 C   0  0  0  0  0  0  0  0  0  0  0  0
   25.0428  -20.8729  -16.1184 O   0  0  0  0  0  0  0  0  0  0  0  0
   26.3064  -20.6285  -10.8392 C   0  0  0  0  0  0  0  0  0  0  0  0
   26.1621  -20.8505   -9.4847 C   0  0  0  0  0  0  0  0  0  0  0  0
   18.6096  -21.6374  -17.2235 C   0  0  0  0  0  0  0  0  0  0  0  0
   19.6116  -20.2321  -16.6326 S   0  0  0  0  0  0  0  0  0  0  0  0
   21.0264  -19.9659  -17.7864 C   0  0  0  0  0  0  0  0  0  0  0  0
   21.7972  -18.7597  -17.3927 C   0  0  0  0  0  0  0  0  0  0  0  0
   23.2455  -18.9513  -17.1018 C   0  0  2  0  0  0  0  0  0  0  0  0
   23.3371  -19.3153  -15.6863 N   0  0  0  0  0  0  0  0  0  0  0  0
   24.1145  -17.8001  -17.3379 C   0  0  0  0  0  0  0  0  0  0  0  0
   23.9404  -16.7680  -16.5991 O   0  0  0  0  0  0  0  0  0  0  0  0
   29.3093  -17.9291  -17.3195 C   0  0  0  0  0  0  0  0  0  0  0  0
   27.8236  -17.5865  -17.1669 C   0  0  1  0  0  0  0  0  0  0  0  0
   27.7292  -16.6391  -15.9420 C   0  0  0  0  0  0  0  0  0  0  0  0
   27.4146  -16.8119  -18.3838 C   0  0  0  0  0  0  0  0  0  0  0  0
   25.9657  -16.4923  -18.3570 C   0  0  2  0  0  0  0  0  0  0  0  0
   25.1390  -17.6854  -18.2910 N   0  0  0  0  0  0  0  0  0  0  0  0
   25.5696  -15.7022  -19.5270 C   0  0  0  0  0  0  0  0  0  0  0  0
   25.9804  -14.3515  -19.5942 O   0  0  0  0  0  0  0  0  0  0  0  0
   24.8907  -16.1315  -20.4792 O   0  0  0  0  0  0  0  0  0  0  0  0
  2  1  1  0
  3  2  2  0
  4  3  1  0
  5  4  2  0
  5 11  1  0
  6  5  1  0
  7  9  1  0
  7  6  1  0
  7  8  1  6
  9 10  2  0
 11 12  2  0
 12  2  1  0
 14 15  1  0
 14 13  1  0
 17 16  1  1
 16 15  1  0
 18 17  1  0
 18  9  1  0
 19 20  2  0
 19 17  1  0
 22 21  1  6
 22 24  1  0
 23 22  1  0
 25 24  1  6
 25 27  1  0
 25 26  1  0
 26 19  1  0
 27 28  1  0
 29 27  2  0
M  END
$$$$
