YML.pdb
     RDKit          3D

 29 29  0  0  1  0  0  0  0  0999 V2000
   21.0710  -17.9378  -15.9629 O   0  0  0  0  0  0  0  0  0  0  0  0
   21.7137  -18.5761  -14.8837 C   0  0  0  0  0  0  0  0  0  0  0  0
   22.8795  -18.0530  -14.3579 C   0  0  0  0  0  0  0  0  0  0  0  0
   23.5267  -18.6735  -13.2901 C   0  0  0  0  0  0  0  0  0  0  0  0
   23.0220  -19.8246  -12.7302 C   0  0  0  0  0  0  0  0  0  0  0  0
   23.7448  -20.4486  -11.5993 C   0  0  0  0  0  0  0  0  0  0  0  0
   25.0444  -21.0797  -12.0406 C   0  0  2  0  0  0  0  0  0  0  0  0
   24.7024  -22.2304  -12.8482 N   0  0  0  0  0  0  0  0  0  0  0  0
   25.8870  -21.5068  -10.9266 C   0  0  0  0  0  0  0  0  0  0  0  0
   25.4970  -22.4964  -10.2228 O   0  0  0  0  0  0  0  0  0  0  0  0
   21.8592  -20.3290  -13.2695 C   0  0  0  0  0  0  0  0  0  0  0  0
   21.2098  -19.7236  -14.3262 C   0  0  0  0  0  0  0  0  0  0  0  0
   32.3708  -22.9222  -10.7955 C   0  0  0  0  0  0  0  0  0  0  0  0
   32.0691  -21.4372   -9.7797 S   0  0  0  0  0  0  0  0  0  0  0  0
   30.4027  -21.5630   -8.9979 C   0  0  0  0  0  0  0  0  0  0  0  0
   29.3377  -21.3401  -10.0079 C   0  0  0  0  0  0  0  0  0  0  0  0
   27.9347  -21.2978   -9.5089 C   0  0  2  0  0  0  0  0  0  0  0  0
   27.1121  -20.8387  -10.6302 N   0  0  0  0  0  0  0  0  0  0  0  0
   27.6775  -20.4276   -8.3632 C   0  0  0  0  0  0  0  0  0  0  0  0
   27.4083  -19.1985   -8.6043 O   0  0  0  0  0  0  0  0  0  0  0  0
   26.9021  -18.2207   -3.5585 C   0  0  0  0  0  0  0  0  0  0  0  0
   28.0056  -19.2838   -3.5667 C   0  0  1  0  0  0  0  0  0  0  0  0
   27.9337  -19.9821   -2.1832 C   0  0  0  0  0  0  0  0  0  0  0  0
   27.6470  -20.2947   -4.6144 C   0  0  0  0  0  0  0  0  0  0  0  0
   27.9416  -19.7859   -5.9769 C   0  0  2  0  0  0  0  0  0  0  0  0
   27.6857  -20.7809   -7.0044 N   0  0  0  0  0  0  0  0  0  0  0  0
   29.3308  -19.3304   -6.0900 C   0  0  0  0  0  0  0  0  0  0  0  0
   29.6086  -17.9631   -5.8644 O   0  0  0  0  0  0  0  0  0  0  0  0
   30.2989  -20.0616   -6.3730 O   0  0  0  0  0  0  0  0  0  0  0  0
  2  1  1  0
  3  2  2  0
  4  3  1  0
  5  4  2  0
  5 11  1  0
  6  5  1  0
  7  9  1  0
  7  6  1  0
  7  8  1  6
  9 10  2  0
 11 12  2  0
 12  2  1  0
 14 15  1  0
 14 13  1  0
 17 16  1  6
 16 15  1  0
 18 17  1  0
 18  9  1  0
 19 20  2  0
 19 17  1  0
 22 21  1  1
 22 24  1  0
 23 22  1  0
 25 24  1  1
 25 27  1  0
 25 26  1  0
 26 19  1  0
 27 28  1  0
 29 27  2  0
M  END
$$$$
