YML.pdb
     RDKit          3D

 29 29  0  0  1  0  0  0  0  0999 V2000
   26.5733  -23.2170  -21.9495 O   0  0  0  0  0  0  0  0  0  0  0  0
   26.1153  -22.5465  -20.7980 C   0  0  0  0  0  0  0  0  0  0  0  0
   26.7234  -21.3771  -20.3835 C   0  0  0  0  0  0  0  0  0  0  0  0
   26.2812  -20.7025  -19.2462 C   0  0  0  0  0  0  0  0  0  0  0  0
   25.2265  -21.1832  -18.5047 C   0  0  0  0  0  0  0  0  0  0  0  0
   24.7937  -20.4337  -17.3040 C   0  0  0  0  0  0  0  0  0  0  0  0
   23.3737  -19.9347  -17.4326 C   0  0  2  0  0  0  0  0  0  0  0  0
   23.3788  -18.9026  -18.4465 N   0  0  0  0  0  0  0  0  0  0  0  0
   22.8394  -19.3853  -16.1892 C   0  0  0  0  0  0  0  0  0  0  0  0
   23.0968  -18.1675  -15.9104 O   0  0  0  0  0  0  0  0  0  0  0  0
   24.6348  -22.3501  -18.9354 C   0  0  0  0  0  0  0  0  0  0  0  0
   25.0636  -23.0264  -20.0595 C   0  0  0  0  0  0  0  0  0  0  0  0
   17.3594  -16.5057  -16.0432 C   0  0  0  0  0  0  0  0  0  0  0  0
   17.8135  -18.0623  -15.2072 S   0  0  0  0  0  0  0  0  0  0  0  0
   19.6498  -18.1591  -15.0571 C   0  0  0  0  0  0  0  0  0  0  0  0
   20.0469  -19.3939  -14.3348 C   0  0  0  0  0  0  0  0  0  0  0  0
   21.5027  -19.5905  -14.0874 C   0  0  2  0  0  0  0  0  0  0  0  0
   22.0518  -20.1844  -15.3082 N   0  0  0  0  0  0  0  0  0  0  0  0
   21.8610  -20.4462  -12.9581 C   0  0  0  0  0  0  0  0  0  0  0  0
   21.4465  -21.6583  -12.9814 O   0  0  0  0  0  0  0  0  0  0  0  0
   26.3572  -20.1801   -9.7970 C   0  0  0  0  0  0  0  0  0  0  0  0
   25.2029  -20.5461  -10.7360 C   0  0  1  0  0  0  0  0  0  0  0  0
   25.5613  -21.9339  -11.3297 C   0  0  0  0  0  0  0  0  0  0  0  0
   23.9730  -20.7068   -9.8936 C   0  0  0  0  0  0  0  0  0  0  0  0
   22.7877  -21.0276  -10.7267 C   0  0  2  0  0  0  0  0  0  0  0  0
   22.6215  -20.0975  -11.8306 N   0  0  0  0  0  0  0  0  0  0  0  0
   21.5588  -21.0423   -9.9269 C   0  0  0  0  0  0  0  0  0  0  0  0
   20.6111  -20.0145  -10.1349 O   0  0  0  0  0  0  0  0  0  0  0  0
   21.2792  -21.8992   -9.0670 O   0  0  0  0  0  0  0  0  0  0  0  0
  2  1  1  0
  3  2  2  0
  4  3  1  0
  5  4  2  0
  5 11  1  0
  6  5  1  0
  7  9  1  0
  7  6  1  0
  7  8  1  6
  9 10  2  0
 11 12  2  0
 12  2  1  0
 14 15  1  0
 14 13  1  0
 17 16  1  6
 16 15  1  0
 18 17  1  0
 18  9  1  0
 19 20  2  0
 19 17  1  0
 22 21  1  1
 22 24  1  0
 23 22  1  0
 25 24  1  1
 25 27  1  0
 25 26  1  0
 26 19  1  0
 27 28  1  0
 29 27  2  0
M  END
$$$$
