YML.pdb
     RDKit          3D

 29 29  0  0  1  0  0  0  0  0999 V2000
   29.8720  -17.7400  -19.6304 O   0  0  0  0  0  0  0  0  0  0  0  0
   29.2878  -17.7357  -18.3483 C   0  0  0  0  0  0  0  0  0  0  0  0
   27.9460  -17.4443  -18.1940 C   0  0  0  0  0  0  0  0  0  0  0  0
   27.3540  -17.4362  -16.9317 C   0  0  0  0  0  0  0  0  0  0  0  0
   28.0902  -17.7184  -15.8040 C   0  0  0  0  0  0  0  0  0  0  0  0
   27.4186  -17.6960  -14.4852 C   0  0  0  0  0  0  0  0  0  0  0  0
   27.3199  -19.0763  -13.8794 C   0  0  2  0  0  0  0  0  0  0  0  0
   26.6661  -19.9203  -14.8559 N   0  0  0  0  0  0  0  0  0  0  0  0
   26.5611  -19.1070  -12.6317 C   0  0  0  0  0  0  0  0  0  0  0  0
   26.1818  -17.9967  -12.1314 O   0  0  0  0  0  0  0  0  0  0  0  0
   29.4256  -18.0062  -15.9802 C   0  0  0  0  0  0  0  0  0  0  0  0
   30.0225  -18.0173  -17.2246 C   0  0  0  0  0  0  0  0  0  0  0  0
   23.3963  -23.7880  -12.4616 C   0  0  0  0  0  0  0  0  0  0  0  0
   22.6355  -22.2362  -13.0458 S   0  0  0  0  0  0  0  0  0  0  0  0
   23.2272  -20.8367  -11.9993 C   0  0  0  0  0  0  0  0  0  0  0  0
   24.2913  -21.2963  -11.0717 C   0  0  0  0  0  0  0  0  0  0  0  0
   25.4013  -20.3423  -10.7946 C   0  0  2  0  0  0  0  0  0  0  0  0
   26.2512  -20.3412  -11.9872 N   0  0  0  0  0  0  0  0  0  0  0  0
   26.2384  -20.6375   -9.6335 C   0  0  0  0  0  0  0  0  0  0  0  0
   26.8405  -21.7681   -9.6122 O   0  0  0  0  0  0  0  0  0  0  0  0
   29.4238  -20.7693   -5.5078 C   0  0  0  0  0  0  0  0  0  0  0  0
   28.1788  -19.9440   -5.1662 C   0  0  1  0  0  0  0  0  0  0  0  0
   28.6726  -18.7832   -4.2632 C   0  0  0  0  0  0  0  0  0  0  0  0
   27.6691  -19.3506   -6.4453 C   0  0  0  0  0  0  0  0  0  0  0  0
   26.9877  -20.3718   -7.2789 C   0  0  2  0  0  0  0  0  0  0  0  0
   26.4711  -19.8167   -8.5185 N   0  0  0  0  0  0  0  0  0  0  0  0
   25.8888  -21.0126   -6.5495 C   0  0  0  0  0  0  0  0  0  0  0  0
   26.2102  -21.9061   -5.5025 O   0  0  0  0  0  0  0  0  0  0  0  0
   24.6785  -20.8305   -6.7816 O   0  0  0  0  0  0  0  0  0  0  0  0
  2  1  1  0
  3  2  2  0
  4  3  1  0
  5  4  2  0
  5 11  1  0
  6  5  1  0
  7  9  1  0
  7  6  1  0
  7  8  1  6
  9 10  2  0
 11 12  2  0
 12  2  1  0
 14 15  1  0
 14 13  1  0
 17 16  1  6
 16 15  1  0
 18 17  1  0
 18  9  1  0
 19 20  2  0
 19 17  1  0
 22 21  1  6
 22 24  1  0
 23 22  1  0
 25 24  1  1
 25 27  1  0
 25 26  1  0
 26 19  1  0
 27 28  1  0
 29 27  2  0
M  END
$$$$
