YML.pdb
     RDKit          3D

 29 29  0  0  1  0  0  0  0  0999 V2000
   28.7755  -14.3636  -17.7281 O   0  0  0  0  0  0  0  0  0  0  0  0
   28.1204  -15.3610  -16.9791 C   0  0  0  0  0  0  0  0  0  0  0  0
   27.2910  -16.2717  -17.6049 C   0  0  0  0  0  0  0  0  0  0  0  0
   26.6361  -17.2643  -16.8769 C   0  0  0  0  0  0  0  0  0  0  0  0
   26.7979  -17.3642  -15.5141 C   0  0  0  0  0  0  0  0  0  0  0  0
   26.0807  -18.4331  -14.7834 C   0  0  0  0  0  0  0  0  0  0  0  0
   27.0223  -19.5032  -14.2832 C   0  0  2  0  0  0  0  0  0  0  0  0
   27.4010  -20.3017  -15.4287 N   0  0  0  0  0  0  0  0  0  0  0  0
   26.4266  -20.3689  -13.2687 C   0  0  0  0  0  0  0  0  0  0  0  0
   25.7592  -21.3828  -13.6603 O   0  0  0  0  0  0  0  0  0  0  0  0
   27.6288  -16.4465  -14.9103 C   0  0  0  0  0  0  0  0  0  0  0  0
   28.2823  -15.4599  -15.6205 C   0  0  0  0  0  0  0  0  0  0  0  0
   26.2916  -18.9131   -6.3681 C   0  0  0  0  0  0  0  0  0  0  0  0
   26.6776  -20.6353   -6.8296 S   0  0  0  0  0  0  0  0  0  0  0  0
   25.7541  -21.0754   -8.3650 C   0  0  0  0  0  0  0  0  0  0  0  0
   26.4598  -20.5537   -9.5624 C   0  0  0  0  0  0  0  0  0  0  0  0
   25.9008  -20.9305  -10.8908 C   0  0  2  0  0  0  0  0  0  0  0  0
   26.5839  -20.0920  -11.8783 N   0  0  0  0  0  0  0  0  0  0  0  0
   24.4593  -20.7612  -11.0619 C   0  0  0  0  0  0  0  0  0  0  0  0
   24.0330  -19.5878  -11.3498 O   0  0  0  0  0  0  0  0  0  0  0  0
   20.0104  -20.4997  -13.1926 C   0  0  0  0  0  0  0  0  0  0  0  0
   20.1640  -21.9570  -12.7446 C   0  0  1  0  0  0  0  0  0  0  0  0
   19.7482  -22.8225  -13.9631 C   0  0  0  0  0  0  0  0  0  0  0  0
   21.6212  -22.1949  -12.4836 C   0  0  0  0  0  0  0  0  0  0  0  0
   22.0822  -21.4510  -11.2853 C   0  0  2  0  0  0  0  0  0  0  0  0
   23.4652  -21.7463  -10.9511 N   0  0  0  0  0  0  0  0  0  0  0  0
   21.2391  -21.7365  -10.1202 C   0  0  0  0  0  0  0  0  0  0  0  0
   21.7586  -22.5715   -9.1050 O   0  0  0  0  0  0  0  0  0  0  0  0
   20.0859  -21.2965   -9.9509 O   0  0  0  0  0  0  0  0  0  0  0  0
  2  1  1  0
  3  2  2  0
  4  3  1  0
  5  4  2  0
  5 11  1  0
  6  5  1  0
  7  9  1  0
  7  6  1  0
  7  8  1  6
  9 10  2  0
 11 12  2  0
 12  2  1  0
 14 15  1  0
 14 13  1  0
 17 16  1  1
 16 15  1  0
 18 17  1  0
 18  9  1  0
 19 20  2  0
 19 17  1  0
 22 21  1  6
 22 24  1  0
 23 22  1  0
 25 24  1  6
 25 27  1  0
 25 26  1  0
 26 19  1  0
 27 28  1  0
 29 27  2  0
M  END
$$$$
