YML.pdb
     RDKit          3D

 29 29  0  0  1  0  0  0  0  0999 V2000
   22.5144  -15.6573  -18.3246 O   0  0  0  0  0  0  0  0  0  0  0  0
   23.0352  -16.5820  -17.3979 C   0  0  0  0  0  0  0  0  0  0  0  0
   22.3931  -17.7854  -17.1773 C   0  0  0  0  0  0  0  0  0  0  0  0
   22.8965  -18.7104  -16.2635 C   0  0  0  0  0  0  0  0  0  0  0  0
   24.0474  -18.4500  -15.5556 C   0  0  0  0  0  0  0  0  0  0  0  0
   24.5426  -19.4613  -14.5950 C   0  0  0  0  0  0  0  0  0  0  0  0
   25.8773  -20.0310  -15.0145 C   0  0  2  0  0  0  0  0  0  0  0  0
   25.6497  -20.7953  -16.2217 N   0  0  0  0  0  0  0  0  0  0  0  0
   26.4799  -20.8960  -14.0036 C   0  0  0  0  0  0  0  0  0  0  0  0
   26.0754  -22.1032  -13.9268 O   0  0  0  0  0  0  0  0  0  0  0  0
   24.6714  -17.2447  -15.7906 C   0  0  0  0  0  0  0  0  0  0  0  0
   24.1826  -16.3216  -16.6927 C   0  0  0  0  0  0  0  0  0  0  0  0
   32.3838  -22.4674  -12.1029 C   0  0  0  0  0  0  0  0  0  0  0  0
   31.7916  -21.5184  -10.6617 S   0  0  0  0  0  0  0  0  0  0  0  0
   29.9523  -21.6321  -10.5725 C   0  0  0  0  0  0  0  0  0  0  0  0
   29.3350  -21.0021  -11.7667 C   0  0  0  0  0  0  0  0  0  0  0  0
   27.8688  -21.1941  -11.9473 C   0  0  2  0  0  0  0  0  0  0  0  0
   27.4922  -20.4087  -13.1245 N   0  0  0  0  0  0  0  0  0  0  0  0
   27.0171  -20.7877  -10.8313 C   0  0  0  0  0  0  0  0  0  0  0  0
   26.5670  -19.5882  -10.8389 O   0  0  0  0  0  0  0  0  0  0  0  0
   27.8252  -18.7422   -6.5043 C   0  0  0  0  0  0  0  0  0  0  0  0
   27.4973  -20.0365   -7.2562 C   0  0  1  0  0  0  0  0  0  0  0  0
   27.0771  -21.0634   -6.1721 C   0  0  0  0  0  0  0  0  0  0  0  0
   26.3039  -19.7625   -8.1216 C   0  0  0  0  0  0  0  0  0  0  0  0
   25.7591  -21.0157   -8.7002 C   0  0  2  0  0  0  0  0  0  0  0  0
   26.6207  -21.5666   -9.7325 N   0  0  0  0  0  0  0  0  0  0  0  0
   24.4188  -20.8099   -9.2580 C   0  0  0  0  0  0  0  0  0  0  0  0
   23.3014  -21.0930   -8.4401 O   0  0  0  0  0  0  0  0  0  0  0  0
   24.1825  -20.4004  -10.4106 O   0  0  0  0  0  0  0  0  0  0  0  0
  2  1  1  0
  3  2  2  0
  4  3  1  0
  5  4  2  0
  5 11  1  0
  6  5  1  0
  7  9  1  0
  7  6  1  0
  7  8  1  6
  9 10  2  0
 11 12  2  0
 12  2  1  0
 14 15  1  0
 14 13  1  0
 17 16  1  1
 16 15  1  0
 18 17  1  0
 18  9  1  0
 19 20  2  0
 19 17  1  0
 22 21  1  1
 22 24  1  0
 23 22  1  0
 25 24  1  6
 25 27  1  0
 25 26  1  0
 26 19  1  0
 27 28  1  0
 29 27  2  0
M  END
$$$$
