DAG.pdb
     RDKit          3D

 18 17  0  0  1  0  0  0  0  0999 V2000
   18.9659  -12.3594  -17.1011 N   0  0  0  0  0  0  0  0  0  0  0  0
   18.1198  -11.3913  -16.4323 C   0  0  1  0  0  0  0  0  0  0  0  0
   17.9033  -11.8494  -15.0066 C   0  0  0  0  0  0  0  0  0  0  0  0
   17.0589  -13.0357  -14.9097 C   0  0  0  0  0  0  0  0  0  0  0  0
   17.5320  -14.1042  -14.4571 O   0  0  0  0  0  0  0  0  0  0  0  0
   18.8633  -10.0884  -16.3526 C   0  0  0  0  0  0  0  0  0  0  0  0
   20.1131  -10.0843  -16.1784 O   0  0  0  0  0  0  0  0  0  0  0  0
   15.7385  -13.0050  -15.3097 O   0  0  0  0  0  0  0  0  0  0  0  0
   18.0127   -6.4830  -17.0350 C   0  0  0  0  0  0  0  0  0  0  0  0
   18.9625   -7.5820  -16.5778 C   0  0  2  0  0  0  0  0  0  0  0  0
   18.2237   -8.8358  -16.4648 N   0  0  0  0  0  0  0  0  0  0  0  0
   19.5350   -7.2812  -15.2457 C   0  0  0  0  0  0  0  0  0  0  0  0
   19.0160   -7.7378  -14.1700 O   0  0  0  0  0  0  0  0  0  0  0  0
   20.6895   -6.4725  -15.0667 N   0  0  0  0  0  0  0  0  0  0  0  0
   21.2936   -6.3081  -13.7386 C   0  0  0  0  0  0  0  0  0  0  0  0
   22.5312   -5.5128  -13.8154 C   0  0  0  0  0  0  0  0  0  0  0  0
   23.2282   -5.0481  -12.7070 O   0  0  0  0  0  0  0  0  0  0  0  0
   22.9851   -5.2372  -14.9452 O   0  0  0  0  0  0  0  0  0  0  0  0
  2  1  1  6
  2  3  1  0
  3  4  1  0
  4  8  1  0
  5  4  2  0
  6  2  1  0
  7  6  2  0
 10  9  1  1
 10 11  1  0
 11  6  1  0
 12 10  1  0
 12 14  1  0
 13 12  2  0
 15 14  1  0
 16 15  1  0
 17 16  1  0
 18 16  2  0
M  END
$$$$
