DAG.pdb
     RDKit          3D

 18 17  0  0  1  0  0  0  0  0999 V2000
   18.7014  -11.9423  -17.3895 N   0  0  0  0  0  0  0  0  0  0  0  0
   18.2672  -10.9980  -16.3795 C   0  0  1  0  0  0  0  0  0  0  0  0
   18.4885  -11.6190  -15.0175 C   0  0  0  0  0  0  0  0  0  0  0  0
   17.5159  -12.6595  -14.6992 C   0  0  0  0  0  0  0  0  0  0  0  0
   17.8969  -13.8420  -14.5355 O   0  0  0  0  0  0  0  0  0  0  0  0
   19.1583   -9.7905  -16.4466 C   0  0  0  0  0  0  0  0  0  0  0  0
   20.4084   -9.9329  -16.5429 O   0  0  0  0  0  0  0  0  0  0  0  0
   16.1734  -12.3655  -14.5736 O   0  0  0  0  0  0  0  0  0  0  0  0
   18.6561   -6.0819  -16.8527 C   0  0  0  0  0  0  0  0  0  0  0  0
   19.5203   -7.3006  -16.5576 C   0  0  2  0  0  0  0  0  0  0  0  0
   18.6608   -8.4708  -16.4069 N   0  0  0  0  0  0  0  0  0  0  0  0
   20.2728   -7.1354  -15.2931 C   0  0  0  0  0  0  0  0  0  0  0  0
   19.7709   -7.4590  -14.1625 O   0  0  0  0  0  0  0  0  0  0  0  0
   21.5927   -6.6113  -15.2434 N   0  0  0  0  0  0  0  0  0  0  0  0
   22.3295   -6.5490  -13.9750 C   0  0  0  0  0  0  0  0  0  0  0  0
   22.0553   -5.2872  -13.2658 C   0  0  0  0  0  0  0  0  0  0  0  0
   22.5855   -4.9612  -12.0237 O   0  0  0  0  0  0  0  0  0  0  0  0
   21.2999   -4.4568  -13.8118 O   0  0  0  0  0  0  0  0  0  0  0  0
  2  1  1  6
  2  3  1  0
  3  4  1  0
  4  8  1  0
  5  4  2  0
  6  2  1  0
  7  6  2  0
 10  9  1  1
 10 11  1  0
 11  6  1  0
 12 10  1  0
 12 14  1  0
 13 12  2  0
 15 14  1  0
 16 15  1  0
 17 16  1  0
 18 16  2  0
M  END
$$$$
