DAG.pdb
     RDKit          3D

 18 17  0  0  1  0  0  0  0  0999 V2000
   12.8190   -9.9714  -10.4308 N   0  0  0  0  0  0  0  0  0  0  0  0
   14.2539  -10.1724  -10.4014 C   0  0  1  0  0  0  0  0  0  0  0  0
   14.6523  -10.9571  -11.6323 C   0  0  0  0  0  0  0  0  0  0  0  0
   14.2632  -12.3621  -11.5650 C   0  0  0  0  0  0  0  0  0  0  0  0
   13.8563  -12.8466  -10.4833 O   0  0  0  0  0  0  0  0  0  0  0  0
   14.9219   -8.8319  -10.5165 C   0  0  0  0  0  0  0  0  0  0  0  0
   14.5391   -8.0090  -11.3932 O   0  0  0  0  0  0  0  0  0  0  0  0
   14.3346  -13.1753  -12.6776 O   0  0  0  0  0  0  0  0  0  0  0  0
   16.6327   -6.4481   -8.4319 C   0  0  0  0  0  0  0  0  0  0  0  0
   16.6319   -7.1302   -9.7935 C   0  0  2  0  0  0  0  0  0  0  0  0
   15.9819   -8.4318   -9.6756 N   0  0  0  0  0  0  0  0  0  0  0  0
   18.0105   -7.3638  -10.2811 C   0  0  0  0  0  0  0  0  0  0  0  0
   18.7177   -8.3425   -9.8605 O   0  0  0  0  0  0  0  0  0  0  0  0
   18.6416   -6.5274  -11.2408 N   0  0  0  0  0  0  0  0  0  0  0  0
   20.0061   -6.8104  -11.7031 C   0  0  0  0  0  0  0  0  0  0  0  0
   20.4235   -5.8495  -12.7387 C   0  0  0  0  0  0  0  0  0  0  0  0
   21.7293   -5.7130  -13.1932 O   0  0  0  0  0  0  0  0  0  0  0  0
   19.5525   -5.1102  -13.2417 O   0  0  0  0  0  0  0  0  0  0  0  0
  2  1  1  6
  2  3  1  0
  3  4  1  0
  4  8  1  0
  5  4  2  0
  6  2  1  0
  7  6  2  0
 10  9  1  1
 10 11  1  0
 11  6  1  0
 12 10  1  0
 12 14  1  0
 13 12  2  0
 15 14  1  0
 16 15  1  0
 17 16  1  0
 18 16  2  0
M  END
$$$$
