DAG.pdb
     RDKit          3D

 18 17  0  0  1  0  0  0  0  0999 V2000
   17.9525  -10.8879  -16.6365 N   0  0  0  0  0  0  0  0  0  0  0  0
   18.3574   -9.5956  -17.1527 C   0  0  1  0  0  0  0  0  0  0  0  0
   17.5545   -8.5254  -16.4460 C   0  0  0  0  0  0  0  0  0  0  0  0
   16.1394   -8.5439  -16.8025 C   0  0  0  0  0  0  0  0  0  0  0  0
   15.7944   -8.8109  -17.9773 O   0  0  0  0  0  0  0  0  0  0  0  0
   19.7942   -9.3661  -16.7793 C   0  0  0  0  0  0  0  0  0  0  0  0
   20.2221   -9.7437  -15.6538 O   0  0  0  0  0  0  0  0  0  0  0  0
   15.1647   -8.2711  -15.8645 O   0  0  0  0  0  0  0  0  0  0  0  0
   22.8941   -8.6542  -18.7156 C   0  0  0  0  0  0  0  0  0  0  0  0
   22.1534   -8.7276  -17.3870 C   0  0  2  0  0  0  0  0  0  0  0  0
   20.7160   -8.7348  -17.6409 N   0  0  0  0  0  0  0  0  0  0  0  0
   22.4495   -7.5511  -16.5381 C   0  0  0  0  0  0  0  0  0  0  0  0
   23.6203   -7.3326  -16.0730 O   0  0  0  0  0  0  0  0  0  0  0  0
   21.4659   -6.5893  -16.1819 N   0  0  0  0  0  0  0  0  0  0  0  0
   21.8329   -5.3803  -15.4343 C   0  0  0  0  0  0  0  0  0  0  0  0
   21.9178   -5.6572  -13.9898 C   0  0  0  0  0  0  0  0  0  0  0  0
   21.6981   -6.9062  -13.4223 O   0  0  0  0  0  0  0  0  0  0  0  0
   22.2048   -4.7133  -13.2250 O   0  0  0  0  0  0  0  0  0  0  0  0
  2  1  1  1
  2  3  1  0
  3  4  1  0
  4  8  1  0
  5  4  2  0
  6  2  1  0
  7  6  2  0
 10  9  1  6
 10 11  1  0
 11  6  1  0
 12 10  1  0
 12 14  1  0
 13 12  2  0
 15 14  1  0
 16 15  1  0
 17 16  1  0
 18 16  2  0
M  END
$$$$
