DAG.pdb
     RDKit          3D

 18 17  0  0  1  0  0  0  0  0999 V2000
   17.9972  -10.9098  -16.2600 N   0  0  0  0  0  0  0  0  0  0  0  0
   19.2060  -10.1585  -16.5333 C   0  0  1  0  0  0  0  0  0  0  0  0
   18.8169   -8.8395  -17.1645 C   0  0  0  0  0  0  0  0  0  0  0  0
   18.2113   -8.9939  -18.4833 C   0  0  0  0  0  0  0  0  0  0  0  0
   18.7074   -9.7957  -19.3088 O   0  0  0  0  0  0  0  0  0  0  0  0
   19.8628   -9.8264  -15.2238 C   0  0  0  0  0  0  0  0  0  0  0  0
   19.1581   -9.5044  -14.2277 O   0  0  0  0  0  0  0  0  0  0  0  0
   17.0937   -8.2689  -18.8434 O   0  0  0  0  0  0  0  0  0  0  0  0
   23.1725  -10.3537  -13.6253 C   0  0  0  0  0  0  0  0  0  0  0  0
   21.8964   -9.5347  -13.7670 C   0  0  2  0  0  0  0  0  0  0  0  0
   21.2616   -9.8556  -15.0416 N   0  0  0  0  0  0  0  0  0  0  0  0
   22.1842   -8.0822  -13.7664 C   0  0  0  0  0  0  0  0  0  0  0  0
   22.7128   -7.4999  -12.7582 O   0  0  0  0  0  0  0  0  0  0  0  0
   21.8976   -7.2383  -14.8731 N   0  0  0  0  0  0  0  0  0  0  0  0
   22.3234   -5.8332  -14.8771 C   0  0  0  0  0  0  0  0  0  0  0  0
   21.3251   -4.9763  -14.2144 C   0  0  0  0  0  0  0  0  0  0  0  0
   21.6316   -3.7969  -13.5470 O   0  0  0  0  0  0  0  0  0  0  0  0
   20.1281   -5.3285  -14.2529 O   0  0  0  0  0  0  0  0  0  0  0  0
  2  1  1  1
  2  3  1  0
  3  4  1  0
  4  8  1  0
  5  4  2  0
  6  2  1  0
  7  6  2  0
 10  9  1  6
 10 11  1  0
 11  6  1  0
 12 10  1  0
 12 14  1  0
 13 12  2  0
 15 14  1  0
 16 15  1  0
 17 16  1  0
 18 16  2  0
M  END
$$$$
