DAG.pdb
     RDKit          3D

 18 17  0  0  1  0  0  0  0  0999 V2000
   19.3496  -11.9962  -15.2569 N   0  0  0  0  0  0  0  0  0  0  0  0
   20.2158  -11.5180  -16.3157 C   0  0  1  0  0  0  0  0  0  0  0  0
   19.7078  -12.0635  -17.6325 C   0  0  0  0  0  0  0  0  0  0  0  0
   19.6895  -13.5221  -17.6775 C   0  0  0  0  0  0  0  0  0  0  0  0
   20.7600  -14.1642  -17.5675 O   0  0  0  0  0  0  0  0  0  0  0  0
   20.0850  -10.0236  -16.3952 C   0  0  0  0  0  0  0  0  0  0  0  0
   20.7727   -9.3731  -17.2297 O   0  0  0  0  0  0  0  0  0  0  0  0
   18.5073  -14.2151  -17.8403 O   0  0  0  0  0  0  0  0  0  0  0  0
   17.8077   -7.3613  -15.0958 C   0  0  0  0  0  0  0  0  0  0  0  0
   19.1837   -7.8285  -15.5513 C   0  0  2  0  0  0  0  0  0  0  0  0
   19.2123   -9.2879  -15.5659 N   0  0  0  0  0  0  0  0  0  0  0  0
   20.2435   -7.3720  -14.6233 C   0  0  0  0  0  0  0  0  0  0  0  0
   20.7569   -8.1519  -13.7499 O   0  0  0  0  0  0  0  0  0  0  0  0
   20.7619   -6.0490  -14.6350 N   0  0  0  0  0  0  0  0  0  0  0  0
   21.8874   -5.6751  -13.7696 C   0  0  0  0  0  0  0  0  0  0  0  0
   22.2690   -4.2674  -13.9770 C   0  0  0  0  0  0  0  0  0  0  0  0
   21.8676   -3.5044  -15.0665 O   0  0  0  0  0  0  0  0  0  0  0  0
   22.9985   -3.7229  -13.1228 O   0  0  0  0  0  0  0  0  0  0  0  0
  2  1  1  1
  2  3  1  0
  3  4  1  0
  4  8  1  0
  5  4  2  0
  6  2  1  0
  7  6  2  0
 10  9  1  1
 10 11  1  0
 11  6  1  0
 12 10  1  0
 12 14  1  0
 13 12  2  0
 15 14  1  0
 16 15  1  0
 17 16  1  0
 18 16  2  0
M  END
$$$$
