DAG.pdb
     RDKit          3D

 18 17  0  0  1  0  0  0  0  0999 V2000
   24.0165  -11.0099  -15.2950 N   0  0  0  0  0  0  0  0  0  0  0  0
   23.5821   -9.9431  -16.1746 C   0  0  1  0  0  0  0  0  0  0  0  0
   22.5863  -10.5125  -17.1614 C   0  0  0  0  0  0  0  0  0  0  0  0
   23.1726  -11.5053  -18.0562 C   0  0  0  0  0  0  0  0  0  0  0  0
   24.1643  -11.2035  -18.7603 O   0  0  0  0  0  0  0  0  0  0  0  0
   22.8367   -8.9284  -15.3552 C   0  0  0  0  0  0  0  0  0  0  0  0
   22.0411   -9.3074  -14.4521 O   0  0  0  0  0  0  0  0  0  0  0  0
   22.6530  -12.7807  -18.1437 O   0  0  0  0  0  0  0  0  0  0  0  0
   23.0445   -5.2974  -14.6061 C   0  0  0  0  0  0  0  0  0  0  0  0
   22.2072   -6.5557  -14.7923 C   0  0  2  0  0  0  0  0  0  0  0  0
   22.9813   -7.5378  -15.5452 N   0  0  0  0  0  0  0  0  0  0  0  0
   20.9746   -6.2748  -15.5633 C   0  0  0  0  0  0  0  0  0  0  0  0
   20.9506   -6.3313  -16.8405 O   0  0  0  0  0  0  0  0  0  0  0  0
   19.7422   -5.9259  -14.9481 N   0  0  0  0  0  0  0  0  0  0  0  0
   18.5579   -5.6174  -15.7592 C   0  0  0  0  0  0  0  0  0  0  0  0
   17.4062   -5.2780  -14.9056 C   0  0  0  0  0  0  0  0  0  0  0  0
   16.8514   -4.0075  -14.8157 O   0  0  0  0  0  0  0  0  0  0  0  0
   16.8943   -6.1861  -14.2188 O   0  0  0  0  0  0  0  0  0  0  0  0
  2  1  1  1
  2  3  1  0
  3  4  1  0
  4  8  1  0
  5  4  2  0
  6  2  1  0
  7  6  2  0
 10  9  1  6
 10 11  1  0
 11  6  1  0
 12 10  1  0
 12 14  1  0
 13 12  2  0
 15 14  1  0
 16 15  1  0
 17 16  1  0
 18 16  2  0
M  END
$$$$
