DAG.pdb
     RDKit          3D

 18 17  0  0  1  0  0  0  0  0999 V2000
   20.6339  -12.3305  -17.0380 N   0  0  0  0  0  0  0  0  0  0  0  0
   19.6895  -11.2521  -17.2513 C   0  0  1  0  0  0  0  0  0  0  0  0
   18.6655  -11.2859  -16.1378 C   0  0  0  0  0  0  0  0  0  0  0  0
   17.7701  -12.4354  -16.2198 C   0  0  0  0  0  0  0  0  0  0  0  0
   17.3938  -13.0104  -15.1719 O   0  0  0  0  0  0  0  0  0  0  0  0
   20.4224   -9.9479  -17.1162 C   0  0  0  0  0  0  0  0  0  0  0  0
   21.3717   -9.8395  -16.2919 O   0  0  0  0  0  0  0  0  0  0  0  0
   17.3252  -12.9065  -17.4382 O   0  0  0  0  0  0  0  0  0  0  0  0
   20.5245   -6.7181  -19.0473 C   0  0  0  0  0  0  0  0  0  0  0  0
   20.9037   -7.5895  -17.8573 C   0  0  2  0  0  0  0  0  0  0  0  0
   20.0989   -8.8070  -17.8808 N   0  0  0  0  0  0  0  0  0  0  0  0
   20.6313   -6.9006  -16.5752 C   0  0  0  0  0  0  0  0  0  0  0  0
   19.5002   -6.9945  -15.9863 O   0  0  0  0  0  0  0  0  0  0  0  0
   21.5953   -6.0940  -15.9126 N   0  0  0  0  0  0  0  0  0  0  0  0
   21.3369   -5.5662  -14.5671 C   0  0  0  0  0  0  0  0  0  0  0  0
   22.4382   -4.6961  -14.1199 C   0  0  0  0  0  0  0  0  0  0  0  0
   22.2761   -3.6106  -13.2680 O   0  0  0  0  0  0  0  0  0  0  0  0
   23.5904   -4.9465  -14.5299 O   0  0  0  0  0  0  0  0  0  0  0  0
  2  1  1  1
  2  3  1  0
  3  4  1  0
  4  8  1  0
  5  4  2  0
  6  2  1  0
  7  6  2  0
 10  9  1  6
 10 11  1  0
 11  6  1  0
 12 10  1  0
 12 14  1  0
 13 12  2  0
 15 14  1  0
 16 15  1  0
 17 16  1  0
 18 16  2  0
M  END
$$$$
