TTR.pdb
     RDKit          3D

 26 25  0  0  1  0  0  0  0  0999 V2000
    7.4126  -18.2815   16.7782 C   0  0  0  0  0  0  0  0  0  0  0  0
    8.1561  -17.4301   15.7642 C   0  0  1  0  0  0  0  0  0  0  0  0
    7.4160  -17.6328   14.5545 O   0  0  0  0  0  0  0  0  0  0  0  0
    8.0307  -15.9747   16.0574 C   0  0  2  0  0  0  0  0  0  0  0  0
    8.6118  -15.2633   14.8977 N   0  0  0  0  0  0  0  0  0  0  0  0
    8.6941  -15.5052   17.2914 C   0  0  0  0  0  0  0  0  0  0  0  0
    9.9674  -15.3208   17.3198 O   0  0  0  0  0  0  0  0  0  0  0  0
    7.6531  -12.5131   19.7518 C   0  0  0  0  0  0  0  0  0  0  0  0
    8.0062  -13.7519   20.5059 C   0  0  1  0  0  0  0  0  0  0  0  0
    6.7990  -14.3450   20.9149 O   0  0  0  0  0  0  0  0  0  0  0  0
    8.7611  -14.7638   19.7067 C   0  0  2  0  0  0  0  0  0  0  0  0
    8.0698  -15.2115   18.5222 N   0  0  0  0  0  0  0  0  0  0  0  0
    9.2919  -15.8567   20.5502 C   0  0  0  0  0  0  0  0  0  0  0  0
    8.7597  -16.9884   20.4396 O   0  0  0  0  0  0  0  0  0  0  0  0
   14.9399  -21.2877   19.4266 N   0  0  0  0  0  0  0  0  0  0  0  0
   14.6692  -20.0730   18.7291 C   0  0  0  0  0  0  0  0  0  0  0  0
   15.3821  -19.7710   17.6783 N   0  0  0  0  0  0  0  0  0  0  0  0
   13.6548  -19.1726   19.1280 N   0  0  0  0  0  0  0  0  0  0  0  0
   12.8424  -19.5159   20.3360 C   0  0  0  0  0  0  0  0  0  0  0  0
   11.8891  -18.4120   20.5844 C   0  0  0  0  0  0  0  0  0  0  0  0
   12.0007  -17.4615   21.6665 C   0  0  0  0  0  0  0  0  0  0  0  0
   10.8397  -16.8610   22.3036 C   0  0  2  0  0  0  0  0  0  0  0  0
   10.3518  -15.7121   21.4682 N   0  0  0  0  0  0  0  0  0  0  0  0
   11.0183  -16.3300   23.6401 C   0  0  0  0  0  0  0  0  0  0  0  0
   11.0486  -15.0223   23.7211 O   0  0  0  0  0  0  0  0  0  0  0  0
   11.1587  -16.9459   24.8543 O   0  0  0  0  0  0  0  0  0  0  0  0
  2  1  1  1
  2  3  1  0
  4  2  1  0
  4  5  1  6
  6  4  1  0
  6 12  1  0
  7  6  2  0
  9  8  1  6
 10  9  1  0
 11 12  1  6
 11  9  1  0
 13 11  1  0
 14 13  2  0
 16 17  2  0
 16 15  1  0
 18 16  1  0
 19 18  1  0
 20 21  1  0
 20 19  1  0
 22 21  1  6
 22 24  1  0
 22 23  1  0
 23 13  1  0
 24 26  1  0
 25 24  2  0
M  END
$$$$
