TTR.pdb
     RDKit          3D

 26 25  0  0  1  0  0  0  0  0999 V2000
    9.4751  -12.1803   20.3461 C   0  0  0  0  0  0  0  0  0  0  0  0
    8.1048  -12.3997   19.7296 C   0  0  1  0  0  0  0  0  0  0  0  0
    7.8193  -11.1447   19.1006 O   0  0  0  0  0  0  0  0  0  0  0  0
    8.1443  -13.3915   18.6184 C   0  0  2  0  0  0  0  0  0  0  0  0
    6.7536  -13.5315   18.1338 N   0  0  0  0  0  0  0  0  0  0  0  0
    8.6699  -14.7283   18.9646 C   0  0  0  0  0  0  0  0  0  0  0  0
    7.9406  -15.5714   19.6076 O   0  0  0  0  0  0  0  0  0  0  0  0
   11.6426  -18.6183   18.3248 C   0  0  0  0  0  0  0  0  0  0  0  0
   11.2215  -17.2300   17.9738 C   0  0  1  0  0  0  0  0  0  0  0  0
   10.4102  -17.3211   16.8293 O   0  0  0  0  0  0  0  0  0  0  0  0
   10.4304  -16.5403   19.0372 C   0  0  2  0  0  0  0  0  0  0  0  0
    9.9515  -15.2331   18.6586 N   0  0  0  0  0  0  0  0  0  0  0  0
   11.1082  -16.5820   20.3513 C   0  0  0  0  0  0  0  0  0  0  0  0
   11.9367  -15.6744   20.6081 O   0  0  0  0  0  0  0  0  0  0  0  0
   13.6562  -20.7576   27.9431 N   0  0  0  0  0  0  0  0  0  0  0  0
   12.5688  -20.9775   27.0462 C   0  0  0  0  0  0  0  0  0  0  0  0
   11.4044  -21.3147   27.5297 N   0  0  0  0  0  0  0  0  0  0  0  0
   12.6961  -20.8461   25.6442 N   0  0  0  0  0  0  0  0  0  0  0  0
   12.9146  -19.4777   25.0813 C   0  0  0  0  0  0  0  0  0  0  0  0
   11.5930  -18.8630   24.8271 C   0  0  0  0  0  0  0  0  0  0  0  0
   11.0593  -18.5824   23.5142 C   0  0  0  0  0  0  0  0  0  0  0  0
   11.6335  -17.5770   22.6344 C   0  0  2  0  0  0  0  0  0  0  0  0
   10.8871  -17.5711   21.3310 N   0  0  0  0  0  0  0  0  0  0  0  0
   13.0331  -17.7219   22.2877 C   0  0  0  0  0  0  0  0  0  0  0  0
   13.8458  -16.8888   22.8901 O   0  0  0  0  0  0  0  0  0  0  0  0
   13.6777  -18.5816   21.4399 O   0  0  0  0  0  0  0  0  0  0  0  0
  2  1  1  6
  2  3  1  0
  4  2  1  0
  4  5  1  1
  6  4  1  0
  6 12  1  0
  7  6  2  0
  9  8  1  1
 10  9  1  0
 11 12  1  6
 11  9  1  0
 13 11  1  0
 14 13  2  0
 16 17  2  0
 16 15  1  0
 18 16  1  0
 19 18  1  0
 20 21  1  0
 20 19  1  0
 22 21  1  1
 22 24  1  0
 22 23  1  0
 23 13  1  0
 24 26  1  0
 25 24  2  0
M  END
$$$$
