TTR.pdb
     RDKit          3D

 26 25  0  0  1  0  0  0  0  0999 V2000
   -5.4500  -27.7037   26.5234 C   0  0  0  0  0  0  0  0  0  0  0  0
   -3.9397  -27.7553   26.3745 C   0  0  1  0  0  0  0  0  0  0  0  0
   -3.7394  -28.7565   25.3698 O   0  0  0  0  0  0  0  0  0  0  0  0
   -3.3929  -26.5000   25.7869 C   0  0  2  0  0  0  0  0  0  0  0  0
   -1.9392  -26.7163   25.6182 N   0  0  0  0  0  0  0  0  0  0  0  0
   -3.6076  -25.2701   26.5772 C   0  0  0  0  0  0  0  0  0  0  0  0
   -2.8907  -25.0281   27.6182 O   0  0  0  0  0  0  0  0  0  0  0  0
   -4.8632  -20.6173   27.3564 C   0  0  0  0  0  0  0  0  0  0  0  0
   -4.6638  -21.8032   26.4722 C   0  0  1  0  0  0  0  0  0  0  0  0
   -3.3583  -21.7201   25.9573 O   0  0  0  0  0  0  0  0  0  0  0  0
   -4.7940  -23.1184   27.1692 C   0  0  2  0  0  0  0  0  0  0  0  0
   -4.5581  -24.2598   26.3189 N   0  0  0  0  0  0  0  0  0  0  0  0
   -6.0341  -23.2037   27.9709 C   0  0  0  0  0  0  0  0  0  0  0  0
   -7.1086  -23.4225   27.3596 O   0  0  0  0  0  0  0  0  0  0  0  0
   -2.3625  -25.3447   32.7493 N   0  0  0  0  0  0  0  0  0  0  0  0
   -3.1437  -24.3726   33.4419 C   0  0  0  0  0  0  0  0  0  0  0  0
   -2.5780  -23.6419   34.3636 N   0  0  0  0  0  0  0  0  0  0  0  0
   -4.5159  -24.1627   33.1734 N   0  0  0  0  0  0  0  0  0  0  0  0
   -5.1549  -24.9744   32.0918 C   0  0  0  0  0  0  0  0  0  0  0  0
   -6.5908  -24.6226   32.0330 C   0  0  0  0  0  0  0  0  0  0  0  0
   -7.1068  -23.3680   31.5362 C   0  0  0  0  0  0  0  0  0  0  0  0
   -7.3847  -23.1389   30.1274 C   0  0  2  0  0  0  0  0  0  0  0  0
   -6.0894  -23.0549   29.3715 N   0  0  0  0  0  0  0  0  0  0  0  0
   -8.1210  -21.9388   29.7842 C   0  0  0  0  0  0  0  0  0  0  0  0
   -9.4226  -22.0807   29.7263 O   0  0  0  0  0  0  0  0  0  0  0  0
   -7.7077  -20.6633   29.5093 O   0  0  0  0  0  0  0  0  0  0  0  0
  2  1  1  6
  2  3  1  0
  4  2  1  0
  4  5  1  1
  6  4  1  0
  6 12  1  0
  7  6  2  0
  9  8  1  1
 10  9  1  0
 11 12  1  6
 11  9  1  0
 13 11  1  0
 14 13  2  0
 16 17  2  0
 16 15  1  0
 18 16  1  0
 19 18  1  0
 20 21  1  0
 20 19  1  0
 22 21  1  1
 22 24  1  0
 22 23  1  0
 23 13  1  0
 24 26  1  0
 25 24  2  0
M  END
$$$$
