TTR.pdb
     RDKit          3D

 26 25  0  0  1  0  0  0  0  0999 V2000
    8.7764  -16.6373   15.8593 C   0  0  0  0  0  0  0  0  0  0  0  0
    8.4856  -15.1925   15.4934 C   0  0  1  0  0  0  0  0  0  0  0  0
    7.7018  -15.3040   14.2994 O   0  0  0  0  0  0  0  0  0  0  0  0
    7.5904  -14.5340   16.4859 C   0  0  2  0  0  0  0  0  0  0  0  0
    7.1406  -13.2677   15.8672 N   0  0  0  0  0  0  0  0  0  0  0  0
    8.1927  -14.2387   17.8024 C   0  0  0  0  0  0  0  0  0  0  0  0
    9.1611  -13.3973   17.9047 O   0  0  0  0  0  0  0  0  0  0  0  0
    6.5503  -13.9177   21.6060 C   0  0  0  0  0  0  0  0  0  0  0  0
    7.7301  -14.8265   21.5051 C   0  0  1  0  0  0  0  0  0  0  0  0
    7.2373  -16.1430   21.4856 O   0  0  0  0  0  0  0  0  0  0  0  0
    8.5526  -14.6314   20.2731 C   0  0  2  0  0  0  0  0  0  0  0  0
    7.8164  -14.7953   19.0432 N   0  0  0  0  0  0  0  0  0  0  0  0
    9.8232  -15.3867   20.3261 C   0  0  0  0  0  0  0  0  0  0  0  0
    9.9908  -16.3039   19.4853 O   0  0  0  0  0  0  0  0  0  0  0  0
   17.6073  -13.5318   18.1355 N   0  0  0  0  0  0  0  0  0  0  0  0
   16.2523  -13.9341   17.9423 C   0  0  0  0  0  0  0  0  0  0  0  0
   15.8361  -14.2063   16.7356 N   0  0  0  0  0  0  0  0  0  0  0  0
   15.3309  -14.0521   19.0081 N   0  0  0  0  0  0  0  0  0  0  0  0
   15.7231  -14.8791   20.1910 C   0  0  0  0  0  0  0  0  0  0  0  0
   14.5531  -15.6854   20.6034 C   0  0  0  0  0  0  0  0  0  0  0  0
   13.2069  -15.1745   20.7205 C   0  0  0  0  0  0  0  0  0  0  0  0
   12.1157  -15.9629   21.2702 C   0  0  2  0  0  0  0  0  0  0  0  0
   10.8550  -15.1465   21.2560 N   0  0  0  0  0  0  0  0  0  0  0  0
   12.2628  -16.4391   22.6310 C   0  0  0  0  0  0  0  0  0  0  0  0
   11.4428  -15.9025   23.5012 O   0  0  0  0  0  0  0  0  0  0  0  0
   13.1067  -17.3619   23.1874 O   0  0  0  0  0  0  0  0  0  0  0  0
  2  1  1  1
  2  3  1  0
  4  2  1  0
  4  5  1  6
  6  4  1  0
  6 12  1  0
  7  6  2  0
  9  8  1  6
 10  9  1  0
 11 12  1  6
 11  9  1  0
 13 11  1  0
 14 13  2  0
 16 17  2  0
 16 15  1  0
 18 16  1  0
 19 18  1  0
 20 21  1  0
 20 19  1  0
 22 21  1  1
 22 24  1  0
 22 23  1  0
 23 13  1  0
 24 26  1  0
 25 24  2  0
M  END
$$$$
