TTR.pdb
     RDKit          3D

 26 25  0  0  1  0  0  0  0  0999 V2000
    8.7343  -12.4685   19.0935 C   0  0  0  0  0  0  0  0  0  0  0  0
    7.8178  -13.2005   18.1291 C   0  0  1  0  0  0  0  0  0  0  0  0
    7.8073  -12.3535   16.9738 O   0  0  0  0  0  0  0  0  0  0  0  0
    8.4092  -14.4862   17.6632 C   0  0  2  0  0  0  0  0  0  0  0  0
    7.4943  -15.0162   16.6284 N   0  0  0  0  0  0  0  0  0  0  0  0
    8.6103  -15.5182   18.7014 C   0  0  0  0  0  0  0  0  0  0  0  0
    7.6043  -16.1388   19.2102 O   0  0  0  0  0  0  0  0  0  0  0  0
    9.9937  -18.8735   18.6493 C   0  0  0  0  0  0  0  0  0  0  0  0
   10.6747  -18.1931   19.7900 C   0  0  1  0  0  0  0  0  0  0  0  0
   11.9606  -17.8344   19.3492 O   0  0  0  0  0  0  0  0  0  0  0  0
    9.9926  -16.9495   20.2597 C   0  0  2  0  0  0  0  0  0  0  0  0
    9.8445  -15.9397   19.2399 N   0  0  0  0  0  0  0  0  0  0  0  0
   10.5587  -16.4501   21.5317 C   0  0  0  0  0  0  0  0  0  0  0  0
   11.3517  -15.4785   21.4743 O   0  0  0  0  0  0  0  0  0  0  0  0
   10.4709  -16.3798   29.7188 N   0  0  0  0  0  0  0  0  0  0  0  0
   10.0933  -15.0316   29.4452 C   0  0  0  0  0  0  0  0  0  0  0  0
   10.4358  -14.0927   30.2847 N   0  0  0  0  0  0  0  0  0  0  0  0
    9.3578  -14.6624   28.2955 N   0  0  0  0  0  0  0  0  0  0  0  0
   10.0591  -14.6783   26.9746 C   0  0  0  0  0  0  0  0  0  0  0  0
   10.0735  -16.0699   26.4724 C   0  0  0  0  0  0  0  0  0  0  0  0
    9.8049  -16.4496   25.1047 C   0  0  0  0  0  0  0  0  0  0  0  0
   10.8181  -16.3925   24.0632 C   0  0  2  0  0  0  0  0  0  0  0  0
   10.2685  -16.9918   22.8003 N   0  0  0  0  0  0  0  0  0  0  0  0
   12.0676  -17.0815   24.3163 C   0  0  0  0  0  0  0  0  0  0  0  0
   12.1101  -18.3266   23.9097 O   0  0  0  0  0  0  0  0  0  0  0  0
   13.2325  -16.6694   24.9050 O   0  0  0  0  0  0  0  0  0  0  0  0
  2  1  1  1
  2  3  1  0
  4  2  1  0
  4  5  1  6
  6  4  1  0
  6 12  1  0
  7  6  2  0
  9  8  1  6
 10  9  1  0
 11 12  1  6
 11  9  1  0
 13 11  1  0
 14 13  2  0
 16 17  2  0
 16 15  1  0
 18 16  1  0
 19 18  1  0
 20 21  1  0
 20 19  1  0
 22 21  1  1
 22 24  1  0
 22 23  1  0
 23 13  1  0
 24 26  1  0
 25 24  2  0
M  END
$$$$
