TTR.pdb
     RDKit          3D

 26 25  0  0  1  0  0  0  0  0999 V2000
    9.1327  -12.5531   19.9437 C   0  0  0  0  0  0  0  0  0  0  0  0
    8.1728  -13.1661   18.9393 C   0  0  1  0  0  0  0  0  0  0  0  0
    8.1756  -12.2241   17.8601 O   0  0  0  0  0  0  0  0  0  0  0  0
    8.7066  -14.4284   18.3547 C   0  0  2  0  0  0  0  0  0  0  0  0
    7.6982  -14.8959   17.3785 N   0  0  0  0  0  0  0  0  0  0  0  0
    8.9874  -15.5162   19.3145 C   0  0  0  0  0  0  0  0  0  0  0  0
    8.0236  -16.1501   19.8849 O   0  0  0  0  0  0  0  0  0  0  0  0
   11.9582  -18.7686   21.6551 C   0  0  0  0  0  0  0  0  0  0  0  0
   11.7160  -17.7722   20.5705 C   0  0  1  0  0  0  0  0  0  0  0  0
   11.5552  -18.4937   19.3747 O   0  0  0  0  0  0  0  0  0  0  0  0
   10.4922  -16.9374   20.7649 C   0  0  2  0  0  0  0  0  0  0  0  0
   10.2595  -15.9812   19.7098 N   0  0  0  0  0  0  0  0  0  0  0  0
   10.4167  -16.3683   22.1282 C   0  0  0  0  0  0  0  0  0  0  0  0
   11.1410  -15.3757   22.3855 O   0  0  0  0  0  0  0  0  0  0  0  0
    4.9746  -12.2258   26.5228 N   0  0  0  0  0  0  0  0  0  0  0  0
    6.3514  -12.0660   26.1848 C   0  0  0  0  0  0  0  0  0  0  0  0
    6.8095  -10.8699   25.9337 N   0  0  0  0  0  0  0  0  0  0  0  0
    7.2507  -13.1543   26.1082 N   0  0  0  0  0  0  0  0  0  0  0  0
    6.7255  -14.5246   26.3969 C   0  0  0  0  0  0  0  0  0  0  0  0
    7.8308  -15.4926   26.2225 C   0  0  0  0  0  0  0  0  0  0  0  0
    8.1862  -16.1121   24.9668 C   0  0  0  0  0  0  0  0  0  0  0  0
    9.5645  -16.2479   24.5235 C   0  0  2  0  0  0  0  0  0  0  0  0
    9.5888  -16.8659   23.1548 N   0  0  0  0  0  0  0  0  0  0  0  0
   10.4456  -17.0594   25.3392 C   0  0  0  0  0  0  0  0  0  0  0  0
   10.4450  -18.3393   25.0572 O   0  0  0  0  0  0  0  0  0  0  0  0
   11.2957  -16.7359   26.3619 O   0  0  0  0  0  0  0  0  0  0  0  0
  2  1  1  1
  2  3  1  0
  4  2  1  0
  4  5  1  6
  6  4  1  0
  6 12  1  0
  7  6  2  0
  9  8  1  1
 10  9  1  0
 11 12  1  6
 11  9  1  0
 13 11  1  0
 14 13  2  0
 16 17  2  0
 16 15  1  0
 18 16  1  0
 19 18  1  0
 20 21  1  0
 20 19  1  0
 22 21  1  1
 22 24  1  0
 22 23  1  0
 23 13  1  0
 24 26  1  0
 25 24  2  0
M  END
$$$$
