TTR.pdb
     RDKit          3D

 26 25  0  0  1  0  0  0  0  0999 V2000
    9.0519  -12.5817   19.7267 C   0  0  0  0  0  0  0  0  0  0  0  0
    8.0692  -13.3328   18.8456 C   0  0  1  0  0  0  0  0  0  0  0  0
    8.0112  -12.5341   17.6578 O   0  0  0  0  0  0  0  0  0  0  0  0
    8.6088  -14.6492   18.4030 C   0  0  2  0  0  0  0  0  0  0  0  0
    7.6063  -15.2219   17.4780 N   0  0  0  0  0  0  0  0  0  0  0  0
    8.8871  -15.6266   19.4756 C   0  0  0  0  0  0  0  0  0  0  0  0
    7.9225  -16.2302   20.0768 O   0  0  0  0  0  0  0  0  0  0  0  0
   11.8554  -18.8348   21.8456 C   0  0  0  0  0  0  0  0  0  0  0  0
   11.6352  -17.7892   20.8034 C   0  0  1  0  0  0  0  0  0  0  0  0
   11.5454  -18.4510   19.5664 O   0  0  0  0  0  0  0  0  0  0  0  0
   10.3831  -16.9946   20.9851 C   0  0  2  0  0  0  0  0  0  0  0  0
   10.1576  -16.0098   19.9550 N   0  0  0  0  0  0  0  0  0  0  0  0
   10.2483  -16.4742   22.3631 C   0  0  0  0  0  0  0  0  0  0  0  0
   10.8654  -15.4192   22.6500 O   0  0  0  0  0  0  0  0  0  0  0  0
    6.6057  -11.9075   24.6791 N   0  0  0  0  0  0  0  0  0  0  0  0
    6.3593  -11.9771   26.0825 C   0  0  0  0  0  0  0  0  0  0  0  0
    6.1973  -10.8703   26.7550 N   0  0  0  0  0  0  0  0  0  0  0  0
    6.2821  -13.2017   26.7849 N   0  0  0  0  0  0  0  0  0  0  0  0
    6.2295  -14.4680   25.9908 C   0  0  0  0  0  0  0  0  0  0  0  0
    7.6161  -14.9260   25.7532 C   0  0  0  0  0  0  0  0  0  0  0  0
    7.9720  -16.0911   24.9767 C   0  0  0  0  0  0  0  0  0  0  0  0
    9.3523  -16.4858   24.7455 C   0  0  2  0  0  0  0  0  0  0  0  0
    9.4762  -17.0833   23.3730 N   0  0  0  0  0  0  0  0  0  0  0  0
    9.9236  -17.4600   25.6536 C   0  0  0  0  0  0  0  0  0  0  0  0
    9.8420  -18.7065   25.2575 O   0  0  0  0  0  0  0  0  0  0  0  0
   10.5468  -17.3216   26.8644 O   0  0  0  0  0  0  0  0  0  0  0  0
  2  1  1  1
  2  3  1  0
  4  2  1  0
  4  5  1  6
  6  4  1  0
  6 12  1  0
  7  6  2  0
  9  8  1  1
 10  9  1  0
 11 12  1  6
 11  9  1  0
 13 11  1  0
 14 13  2  0
 16 17  2  0
 16 15  1  0
 18 16  1  0
 19 18  1  0
 20 21  1  0
 20 19  1  0
 22 21  1  1
 22 24  1  0
 22 23  1  0
 23 13  1  0
 24 26  1  0
 25 24  2  0
M  END
$$$$
