TTR.pdb
     RDKit          3D

 26 25  0  0  1  0  0  0  0  0999 V2000
    8.8917  -16.9346   16.7840 C   0  0  0  0  0  0  0  0  0  0  0  0
    9.0268  -15.5085   16.2800 C   0  0  1  0  0  0  0  0  0  0  0  0
    8.3313  -15.5319   15.0279 O   0  0  0  0  0  0  0  0  0  0  0  0
    8.2712  -14.5428   17.1264 C   0  0  2  0  0  0  0  0  0  0  0  0
    8.2923  -13.2507   16.4064 N   0  0  0  0  0  0  0  0  0  0  0  0
    8.7906  -14.3394   18.4947 C   0  0  0  0  0  0  0  0  0  0  0  0
    9.8713  -13.6688   18.6911 O   0  0  0  0  0  0  0  0  0  0  0  0
    7.1488  -12.7244   21.5244 C   0  0  0  0  0  0  0  0  0  0  0  0
    7.7714  -14.0037   21.9754 C   0  0  1  0  0  0  0  0  0  0  0  0
    6.7311  -14.9353   22.1369 O   0  0  0  0  0  0  0  0  0  0  0  0
    8.7538  -14.5830   21.0101 C   0  0  2  0  0  0  0  0  0  0  0  0
    8.2151  -14.8151   19.6919 N   0  0  0  0  0  0  0  0  0  0  0  0
    9.4816  -15.7373   21.5810 C   0  0  0  0  0  0  0  0  0  0  0  0
    9.1332  -16.8855   21.2119 O   0  0  0  0  0  0  0  0  0  0  0  0
   13.9043  -13.9416   19.3865 N   0  0  0  0  0  0  0  0  0  0  0  0
   13.7026  -15.2227   18.7920 C   0  0  0  0  0  0  0  0  0  0  0  0
   12.9844  -15.3134   17.7060 N   0  0  0  0  0  0  0  0  0  0  0  0
   14.2498  -16.4098   19.3308 N   0  0  0  0  0  0  0  0  0  0  0  0
   13.4520  -17.1524   20.3550 C   0  0  0  0  0  0  0  0  0  0  0  0
   13.2285  -16.2556   21.5103 C   0  0  0  0  0  0  0  0  0  0  0  0
   12.6935  -16.6786   22.7838 C   0  0  0  0  0  0  0  0  0  0  0  0
   11.2678  -16.8435   23.0178 C   0  0  2  0  0  0  0  0  0  0  0  0
   10.5365  -15.6337   22.5102 N   0  0  0  0  0  0  0  0  0  0  0  0
   10.8378  -17.0180   24.3907 C   0  0  0  0  0  0  0  0  0  0  0  0
   10.1513  -16.0201   24.8910 O   0  0  0  0  0  0  0  0  0  0  0  0
   11.0117  -18.0469   25.2764 O   0  0  0  0  0  0  0  0  0  0  0  0
  2  1  1  1
  2  3  1  0
  4  2  1  0
  4  5  1  6
  6  4  1  0
  6 12  1  0
  7  6  2  0
  9  8  1  6
 10  9  1  0
 11 12  1  6
 11  9  1  0
 13 11  1  0
 14 13  2  0
 16 17  2  0
 16 15  1  0
 18 16  1  0
 19 18  1  0
 20 21  1  0
 20 19  1  0
 22 21  1  1
 22 24  1  0
 22 23  1  0
 23 13  1  0
 24 26  1  0
 25 24  2  0
M  END
$$$$
