TTR.pdb
     RDKit          3D

 26 25  0  0  1  0  0  0  0  0999 V2000
   10.1429  -17.2357   15.8420 C   0  0  0  0  0  0  0  0  0  0  0  0
    9.9054  -17.4494   17.3265 C   0  0  1  0  0  0  0  0  0  0  0  0
    8.4832  -17.3343   17.4550 O   0  0  0  0  0  0  0  0  0  0  0  0
   10.2223  -18.8428   17.7483 C   0  0  2  0  0  0  0  0  0  0  0  0
    9.2402  -19.7178   17.0714 N   0  0  0  0  0  0  0  0  0  0  0  0
   10.1771  -19.1034   19.2020 C   0  0  0  0  0  0  0  0  0  0  0  0
    9.0531  -19.1229   19.8283 O   0  0  0  0  0  0  0  0  0  0  0  0
   12.1564  -20.4579   23.5737 C   0  0  0  0  0  0  0  0  0  0  0  0
   12.2726  -20.2952   22.0945 C   0  0  1  0  0  0  0  0  0  0  0  0
   12.1690  -21.5777   21.5283 O   0  0  0  0  0  0  0  0  0  0  0  0
   11.2082  -19.4424   21.4845 C   0  0  2  0  0  0  0  0  0  0  0  0
   11.2798  -19.3524   20.0464 N   0  0  0  0  0  0  0  0  0  0  0  0
   11.0791  -18.1376   22.1693 C   0  0  0  0  0  0  0  0  0  0  0  0
   11.8908  -17.2327   21.8557 O   0  0  0  0  0  0  0  0  0  0  0  0
    7.4938  -14.2101   18.9410 N   0  0  0  0  0  0  0  0  0  0  0  0
    7.7477  -13.1567   19.8689 C   0  0  0  0  0  0  0  0  0  0  0  0
    7.7215  -11.9207   19.4502 N   0  0  0  0  0  0  0  0  0  0  0  0
    8.0295  -13.3924   21.2342 N   0  0  0  0  0  0  0  0  0  0  0  0
    8.2973  -14.7990   21.6662 C   0  0  0  0  0  0  0  0  0  0  0  0
    8.4321  -14.8154   23.1395 C   0  0  0  0  0  0  0  0  0  0  0  0
    8.7820  -15.9817   23.9169 C   0  0  0  0  0  0  0  0  0  0  0  0
   10.1197  -16.5518   23.9139 C   0  0  2  0  0  0  0  0  0  0  0  0
   10.1086  -17.8442   23.1487 N   0  0  0  0  0  0  0  0  0  0  0  0
   10.7113  -16.8595   25.2005 C   0  0  0  0  0  0  0  0  0  0  0  0
   11.1823  -15.8285   25.8585 O   0  0  0  0  0  0  0  0  0  0  0  0
   10.8694  -18.0419   25.8716 O   0  0  0  0  0  0  0  0  0  0  0  0
  2  1  1  6
  2  3  1  0
  4  2  1  0
  4  5  1  6
  6  4  1  0
  6 12  1  0
  7  6  2  0
  9  8  1  1
 10  9  1  0
 11 12  1  6
 11  9  1  0
 13 11  1  0
 14 13  2  0
 16 17  2  0
 16 15  1  0
 18 16  1  0
 19 18  1  0
 20 21  1  0
 20 19  1  0
 22 21  1  1
 22 24  1  0
 22 23  1  0
 23 13  1  0
 24 26  1  0
 25 24  2  0
M  END
$$$$
