TTR.pdb
     RDKit          3D

 26 25  0  0  1  0  0  0  0  0999 V2000
    8.9017  -17.5956   13.7064 C   0  0  0  0  0  0  0  0  0  0  0  0
    9.1979  -17.2109   15.1452 C   0  0  1  0  0  0  0  0  0  0  0  0
   10.4671  -17.8251   15.3982 O   0  0  0  0  0  0  0  0  0  0  0  0
    9.4372  -15.7479   15.2946 C   0  0  2  0  0  0  0  0  0  0  0  0
   10.6023  -15.4260   14.4417 N   0  0  0  0  0  0  0  0  0  0  0  0
    9.7016  -15.2740   16.6689 C   0  0  0  0  0  0  0  0  0  0  0  0
   10.9071  -15.1910   17.1115 O   0  0  0  0  0  0  0  0  0  0  0  0
    7.3941  -12.5889   18.9452 C   0  0  0  0  0  0  0  0  0  0  0  0
    7.9158  -13.7844   19.6708 C   0  0  1  0  0  0  0  0  0  0  0  0
    6.8514  -14.6956   19.7852 O   0  0  0  0  0  0  0  0  0  0  0  0
    9.0390  -14.4833   18.9762 C   0  0  2  0  0  0  0  0  0  0  0  0
    8.7394  -14.8722   17.6195 N   0  0  0  0  0  0  0  0  0  0  0  0
    9.6201  -15.5630   19.8036 C   0  0  0  0  0  0  0  0  0  0  0  0
    9.7201  -16.7027   19.2868 O   0  0  0  0  0  0  0  0  0  0  0  0
   14.8167  -14.8791   18.3730 N   0  0  0  0  0  0  0  0  0  0  0  0
   15.5379  -14.8132   19.6021 C   0  0  0  0  0  0  0  0  0  0  0  0
   16.4103  -13.8583   19.7767 N   0  0  0  0  0  0  0  0  0  0  0  0
   15.3494  -15.7441   20.6495 N   0  0  0  0  0  0  0  0  0  0  0  0
   14.2862  -16.7833   20.4863 C   0  0  0  0  0  0  0  0  0  0  0  0
   13.0726  -16.3225   21.1962 C   0  0  0  0  0  0  0  0  0  0  0  0
   11.8235  -17.0471   21.2377 C   0  0  0  0  0  0  0  0  0  0  0  0
   10.6451  -16.5369   21.9200 C   0  0  2  0  0  0  0  0  0  0  0  0
   10.0666  -15.3977   21.1303 N   0  0  0  0  0  0  0  0  0  0  0  0
   10.8258  -16.0327   23.2666 C   0  0  0  0  0  0  0  0  0  0  0  0
   10.6234  -14.7460   23.4121 O   0  0  0  0  0  0  0  0  0  0  0  0
   11.1688  -16.6572   24.4352 O   0  0  0  0  0  0  0  0  0  0  0  0
  2  1  1  6
  2  3  1  0
  4  2  1  0
  4  5  1  6
  6  4  1  0
  6 12  1  0
  7  6  2  0
  9  8  1  6
 10  9  1  0
 11 12  1  6
 11  9  1  0
 13 11  1  0
 14 13  2  0
 16 17  2  0
 16 15  1  0
 18 16  1  0
 19 18  1  0
 20 21  1  0
 20 19  1  0
 22 21  1  6
 22 24  1  0
 22 23  1  0
 23 13  1  0
 24 26  1  0
 25 24  2  0
M  END
$$$$
