VTI.pdb
     RDKit          3D

 23 22  0  0  1  0  0  0  0  0999 V2000
    6.0122  -19.7894   24.0259 C   0  0  0  0  0  0  0  0  0  0  0  0
    5.0975  -18.8161   23.3193 C   0  0  2  0  0  0  0  0  0  0  0  0
    3.7059  -19.3799   23.1529 C   0  0  0  0  0  0  0  0  0  0  0  0
    5.7357  -18.5231   21.9552 C   0  0  2  0  0  0  0  0  0  0  0  0
    5.7255  -19.7775   21.2327 N   0  0  0  0  0  0  0  0  0  0  0  0
    7.1175  -18.0158   22.1302 C   0  0  0  0  0  0  0  0  0  0  0  0
    8.0464  -18.8778   22.1877 O   0  0  0  0  0  0  0  0  0  0  0  0
   10.5078  -14.8225   21.2522 C   0  0  0  0  0  0  0  0  0  0  0  0
    9.1242  -15.3850   21.1263 C   0  0  1  0  0  0  0  0  0  0  0  0
    9.1208  -16.2758   20.0544 O   0  0  0  0  0  0  0  0  0  0  0  0
    8.6596  -16.1066   22.3681 C   0  0  2  0  0  0  0  0  0  0  0  0
    7.3236  -16.6363   22.2216 N   0  0  0  0  0  0  0  0  0  0  0  0
    8.7195  -15.2722   23.5724 C   0  0  0  0  0  0  0  0  0  0  0  0
    8.2945  -14.0917   23.5555 O   0  0  0  0  0  0  0  0  0  0  0  0
    6.0010  -13.1822   25.8244 C   0  0  0  0  0  0  0  0  0  0  0  0
    7.3567  -13.6011   25.2355 C   0  0  0  0  0  0  0  0  0  0  0  0
    8.0747  -14.3444   26.3057 C   0  0  2  0  0  0  0  0  0  0  0  0
    8.1170  -13.5631   27.6003 C   0  0  0  0  0  0  0  0  0  0  0  0
    9.4351  -14.8719   25.9228 C   0  0  2  0  0  0  0  0  0  0  0  0
    9.2517  -15.7502   24.7941 N   0  0  0  0  0  0  0  0  0  0  0  0
   10.1664  -15.4986   27.0255 C   0  0  0  0  0  0  0  0  0  0  0  0
   11.0107  -14.7563   27.8117 O   0  0  0  0  0  0  0  0  0  0  0  0
   10.0386  -16.7053   27.2700 O   0  0  0  0  0  0  0  0  0  0  0  0
  2  4  1  0
  2  3  1  6
  2  1  1  0
  4  5  1  6
  6  4  1  0
  6  7  2  0
  9  8  1  1
  9 10  1  0
  9 11  1  0
 11 12  1  6
 12  6  1  0
 13 11  1  0
 14 13  2  0
 15 16  1  0
 17 16  1  0
 17 19  1  0
 17 18  1  1
 19 20  1  6
 19 21  1  0
 20 13  1  0
 21 22  1  0
 23 21  2  0
M  END
$$$$
