VTI.pdb
     RDKit          3D

 23 22  0  0  1  0  0  0  0  0999 V2000
    8.2642  -12.6987   17.8883 C   0  0  0  0  0  0  0  0  0  0  0  0
    7.7253  -13.3618   19.1344 C   0  0  2  0  0  0  0  0  0  0  0  0
    8.0878  -12.5865   20.3792 C   0  0  0  0  0  0  0  0  0  0  0  0
    8.3238  -14.7739   19.1758 C   0  0  2  0  0  0  0  0  0  0  0  0
    7.8760  -15.4321   17.9667 N   0  0  0  0  0  0  0  0  0  0  0  0
    7.8588  -15.4962   20.3839 C   0  0  0  0  0  0  0  0  0  0  0  0
    6.6150  -15.7280   20.4754 O   0  0  0  0  0  0  0  0  0  0  0  0
    8.4941  -18.3868   24.1702 C   0  0  0  0  0  0  0  0  0  0  0  0
    8.8655  -17.8280   22.8299 C   0  0  1  0  0  0  0  0  0  0  0  0
    8.3195  -18.6595   21.8538 O   0  0  0  0  0  0  0  0  0  0  0  0
    8.3666  -16.4199   22.6129 C   0  0  2  0  0  0  0  0  0  0  0  0
    8.7987  -15.8791   21.3450 N   0  0  0  0  0  0  0  0  0  0  0  0
    8.7555  -15.5018   23.6880 C   0  0  0  0  0  0  0  0  0  0  0  0
    9.9245  -15.0503   23.7532 O   0  0  0  0  0  0  0  0  0  0  0  0
    6.5960  -10.8762   26.5896 C   0  0  0  0  0  0  0  0  0  0  0  0
    7.5892  -12.0236   26.8293 C   0  0  0  0  0  0  0  0  0  0  0  0
    7.2902  -13.0657   25.8103 C   0  0  2  0  0  0  0  0  0  0  0  0
    5.8563  -13.5399   25.8964 C   0  0  0  0  0  0  0  0  0  0  0  0
    8.2618  -14.2187   25.7633 C   0  0  2  0  0  0  0  0  0  0  0  0
    7.8452  -15.0862   24.6896 N   0  0  0  0  0  0  0  0  0  0  0  0
    8.4215  -14.9194   27.0388 C   0  0  0  0  0  0  0  0  0  0  0  0
    7.8199  -16.1348   27.2457 O   0  0  0  0  0  0  0  0  0  0  0  0
    9.0995  -14.4319   27.9526 O   0  0  0  0  0  0  0  0  0  0  0  0
  2  4  1  0
  2  3  1  1
  2  1  1  0
  4  5  1  6
  6  4  1  0
  6  7  2  0
  9  8  1  1
  9 10  1  0
  9 11  1  0
 11 12  1  6
 12  6  1  0
 13 11  1  0
 14 13  2  0
 15 16  1  0
 17 16  1  0
 17 19  1  0
 17 18  1  1
 19 20  1  6
 19 21  1  0
 20 13  1  0
 21 22  1  0
 23 21  2  0
M  END
$$$$
