VTI.pdb
     RDKit          3D

 23 22  0  0  1  0  0  0  0  0999 V2000
    8.6095  -12.7792   17.7195 C   0  0  0  0  0  0  0  0  0  0  0  0
    7.9657  -13.3558   18.9589 C   0  0  2  0  0  0  0  0  0  0  0  0
    8.3133  -12.5543   20.1914 C   0  0  0  0  0  0  0  0  0  0  0  0
    8.4689  -14.7996   19.0854 C   0  0  2  0  0  0  0  0  0  0  0  0
    8.0838  -15.4647   17.8586 N   0  0  0  0  0  0  0  0  0  0  0  0
    7.8597  -15.4568   20.2662 C   0  0  0  0  0  0  0  0  0  0  0  0
    6.8318  -16.1719   20.0632 O   0  0  0  0  0  0  0  0  0  0  0  0
    7.3466  -17.9913   21.2861 C   0  0  0  0  0  0  0  0  0  0  0  0
    8.0755  -17.4803   22.4920 C   0  0  1  0  0  0  0  0  0  0  0  0
    9.4214  -17.8137   22.3511 O   0  0  0  0  0  0  0  0  0  0  0  0
    7.9543  -15.9866   22.6725 C   0  0  2  0  0  0  0  0  0  0  0  0
    8.4390  -15.2586   21.5228 N   0  0  0  0  0  0  0  0  0  0  0  0
    8.6338  -15.4975   23.8763 C   0  0  0  0  0  0  0  0  0  0  0  0
    9.8553  -15.2112   23.8506 O   0  0  0  0  0  0  0  0  0  0  0  0
    5.9595  -11.9073   26.4904 C   0  0  0  0  0  0  0  0  0  0  0  0
    6.9908  -12.7710   25.7483 C   0  0  0  0  0  0  0  0  0  0  0  0
    7.6130  -13.6603   26.7660 C   0  0  2  0  0  0  0  0  0  0  0  0
    8.1972  -12.8726   27.9177 C   0  0  0  0  0  0  0  0  0  0  0  0
    8.5905  -14.6738   26.2249 C   0  0  2  0  0  0  0  0  0  0  0  0
    7.9556  -15.3269   25.1073 N   0  0  0  0  0  0  0  0  0  0  0  0
    9.0956  -15.6130   27.2280 C   0  0  0  0  0  0  0  0  0  0  0  0
   10.2540  -15.3446   27.9123 O   0  0  0  0  0  0  0  0  0  0  0  0
    8.4909  -16.6637   27.4781 O   0  0  0  0  0  0  0  0  0  0  0  0
  2  4  1  0
  2  3  1  1
  2  1  1  0
  4  5  1  6
  6  4  1  0
  6  7  2  0
  9  8  1  6
  9 10  1  0
  9 11  1  0
 11 12  1  6
 12  6  1  0
 13 11  1  0
 14 13  2  0
 15 16  1  0
 17 16  1  0
 17 19  1  0
 17 18  1  1
 19 20  1  6
 19 21  1  0
 20 13  1  0
 21 22  1  0
 23 21  2  0
M  END
$$$$
