VTI.pdb
     RDKit          3D

 23 22  0  0  1  0  0  0  0  0999 V2000
    8.2148  -12.7595   18.5027 C   0  0  0  0  0  0  0  0  0  0  0  0
    7.7597  -13.5546   19.7042 C   0  0  2  0  0  0  0  0  0  0  0  0
    7.9057  -12.7641   20.9832 C   0  0  0  0  0  0  0  0  0  0  0  0
    8.6207  -14.8238   19.7443 C   0  0  2  0  0  0  0  0  0  0  0  0
    8.3451  -15.5314   18.5118 N   0  0  0  0  0  0  0  0  0  0  0  0
    8.2707  -15.6477   20.9259 C   0  0  0  0  0  0  0  0  0  0  0  0
    7.4790  -16.6208   20.7377 O   0  0  0  0  0  0  0  0  0  0  0  0
    8.3317  -18.1906   21.7906 C   0  0  0  0  0  0  0  0  0  0  0  0
    9.0764  -17.6213   22.9601 C   0  0  1  0  0  0  0  0  0  0  0  0
   10.4356  -17.6427   22.6530 O   0  0  0  0  0  0  0  0  0  0  0  0
    8.6690  -16.2067   23.2941 C   0  0  2  0  0  0  0  0  0  0  0  0
    8.8216  -15.3162   22.1670 N   0  0  0  0  0  0  0  0  0  0  0  0
    9.3929  -15.6582   24.4453 C   0  0  0  0  0  0  0  0  0  0  0  0
   10.5614  -15.2190   24.3171 O   0  0  0  0  0  0  0  0  0  0  0  0
    6.8286  -12.2740   27.2622 C   0  0  0  0  0  0  0  0  0  0  0  0
    7.8964  -13.0480   26.4740 C   0  0  0  0  0  0  0  0  0  0  0  0
    8.5611  -13.9620   27.4416 C   0  0  2  0  0  0  0  0  0  0  0  0
    9.2001  -13.2026   28.5831 C   0  0  0  0  0  0  0  0  0  0  0  0
    9.5092  -14.9655   26.8334 C   0  0  2  0  0  0  0  0  0  0  0  0
    8.8180  -15.5983   25.7377 N   0  0  0  0  0  0  0  0  0  0  0  0
   10.0636  -15.9228   27.7924 C   0  0  0  0  0  0  0  0  0  0  0  0
    9.4740  -17.1482   27.9729 O   0  0  0  0  0  0  0  0  0  0  0  0
   11.0710  -15.6474   28.4570 O   0  0  0  0  0  0  0  0  0  0  0  0
  2  4  1  0
  2  3  1  1
  2  1  1  0
  4  5  1  6
  6  4  1  0
  6  7  2  0
  9  8  1  6
  9 10  1  0
  9 11  1  0
 11 12  1  6
 12  6  1  0
 13 11  1  0
 14 13  2  0
 15 16  1  0
 17 16  1  0
 17 19  1  0
 17 18  1  1
 19 20  1  6
 19 21  1  0
 20 13  1  0
 21 22  1  0
 23 21  2  0
M  END
$$$$
