VTI.pdb
     RDKit          3D

 23 22  0  0  1  0  0  0  0  0999 V2000
    8.0423  -12.6994   18.5723 C   0  0  0  0  0  0  0  0  0  0  0  0
    7.7109  -13.3917   19.8738 C   0  0  2  0  0  0  0  0  0  0  0  0
    8.1736  -12.5877   21.0661 C   0  0  0  0  0  0  0  0  0  0  0  0
    8.4045  -14.7596   19.8341 C   0  0  2  0  0  0  0  0  0  0  0  0
    7.8179  -15.4716   18.7184 N   0  0  0  0  0  0  0  0  0  0  0  0
    8.1872  -15.4856   21.1080 C   0  0  0  0  0  0  0  0  0  0  0  0
    7.0079  -15.8842   21.3519 O   0  0  0  0  0  0  0  0  0  0  0  0
    9.7394  -18.5281   24.4323 C   0  0  0  0  0  0  0  0  0  0  0  0
    9.9017  -17.7249   23.1773 C   0  0  1  0  0  0  0  0  0  0  0  0
    9.4790  -18.5126   22.1080 O   0  0  0  0  0  0  0  0  0  0  0  0
    9.1096  -16.4400   23.1860 C   0  0  2  0  0  0  0  0  0  0  0  0
    9.2746  -15.6909   21.9619 N   0  0  0  0  0  0  0  0  0  0  0  0
    9.4292  -15.5772   24.3278 C   0  0  0  0  0  0  0  0  0  0  0  0
   10.4648  -14.8686   24.3251 O   0  0  0  0  0  0  0  0  0  0  0  0
    6.1558  -12.2123   26.4497 C   0  0  0  0  0  0  0  0  0  0  0  0
    7.3436  -13.0075   25.8868 C   0  0  0  0  0  0  0  0  0  0  0  0
    7.8665  -13.8400   27.0035 C   0  0  2  0  0  0  0  0  0  0  0  0
    8.1856  -13.0053   28.2241 C   0  0  0  0  0  0  0  0  0  0  0  0
    9.0028  -14.7638   26.6415 C   0  0  2  0  0  0  0  0  0  0  0  0
    8.5979  -15.5025   25.4713 N   0  0  0  0  0  0  0  0  0  0  0  0
    9.4472  -15.6247   27.7391 C   0  0  0  0  0  0  0  0  0  0  0  0
   10.5096  -15.2575   28.5256 O   0  0  0  0  0  0  0  0  0  0  0  0
    8.8764  -16.6966   27.9789 O   0  0  0  0  0  0  0  0  0  0  0  0
  2  4  1  0
  2  3  1  1
  2  1  1  0
  4  5  1  6
  6  4  1  0
  6  7  2  0
  9  8  1  1
  9 10  1  0
  9 11  1  0
 11 12  1  6
 12  6  1  0
 13 11  1  0
 14 13  2  0
 15 16  1  0
 17 16  1  0
 17 19  1  0
 17 18  1  1
 19 20  1  6
 19 21  1  0
 20 13  1  0
 21 22  1  0
 23 21  2  0
M  END
$$$$
