VTI.pdb
     RDKit          3D

 23 22  0  0  1  0  0  0  0  0999 V2000
    8.3644  -12.6448   17.9288 C   0  0  0  0  0  0  0  0  0  0  0  0
    7.8634  -13.3341   19.1765 C   0  0  2  0  0  0  0  0  0  0  0  0
    8.2352  -12.5675   20.4239 C   0  0  0  0  0  0  0  0  0  0  0  0
    8.4903  -14.7344   19.1878 C   0  0  2  0  0  0  0  0  0  0  0  0
    8.0803  -15.3645   17.9506 N   0  0  0  0  0  0  0  0  0  0  0  0
    8.0165  -15.5024   20.3639 C   0  0  0  0  0  0  0  0  0  0  0  0
    7.1040  -16.3606   20.1641 O   0  0  0  0  0  0  0  0  0  0  0  0
    8.0380  -18.1017   21.2573 C   0  0  0  0  0  0  0  0  0  0  0  0
    8.6606  -17.5316   22.4957 C   0  0  1  0  0  0  0  0  0  0  0  0
   10.0447  -17.6215   22.3587 O   0  0  0  0  0  0  0  0  0  0  0  0
    8.2826  -16.0913   22.7434 C   0  0  2  0  0  0  0  0  0  0  0  0
    8.5896  -15.2462   21.6128 N   0  0  0  0  0  0  0  0  0  0  0  0
    8.9066  -15.5337   23.9475 C   0  0  0  0  0  0  0  0  0  0  0  0
   10.1157  -15.1978   23.9454 O   0  0  0  0  0  0  0  0  0  0  0  0
    6.0249  -11.9426   26.2537 C   0  0  0  0  0  0  0  0  0  0  0  0
    7.0989  -12.8266   25.6015 C   0  0  0  0  0  0  0  0  0  0  0  0
    7.7358  -13.6031   26.6992 C   0  0  2  0  0  0  0  0  0  0  0  0
    8.2735  -12.6998   27.7870 C   0  0  0  0  0  0  0  0  0  0  0  0
    8.7570  -14.6224   26.2591 C   0  0  2  0  0  0  0  0  0  0  0  0
    8.1867  -15.3498   25.1526 N   0  0  0  0  0  0  0  0  0  0  0  0
    9.2348  -15.4938   27.3343 C   0  0  0  0  0  0  0  0  0  0  0  0
   10.3270  -15.1388   28.0847 O   0  0  0  0  0  0  0  0  0  0  0  0
    8.6659  -16.5636   27.5872 O   0  0  0  0  0  0  0  0  0  0  0  0
  2  4  1  0
  2  3  1  1
  2  1  1  0
  4  5  1  6
  6  4  1  0
  6  7  2  0
  9  8  1  6
  9 10  1  0
  9 11  1  0
 11 12  1  6
 12  6  1  0
 13 11  1  0
 14 13  2  0
 15 16  1  0
 17 16  1  0
 17 19  1  0
 17 18  1  1
 19 20  1  6
 19 21  1  0
 20 13  1  0
 21 22  1  0
 23 21  2  0
M  END
$$$$
