VTI.pdb
     RDKit          3D

 23 22  0  0  1  0  0  0  0  0999 V2000
    3.2901  -18.2446   19.8708 C   0  0  0  0  0  0  0  0  0  0  0  0
    4.0118  -17.9173   21.1573 C   0  0  2  0  0  0  0  0  0  0  0  0
    4.1464  -16.4259   21.3567 C   0  0  0  0  0  0  0  0  0  0  0  0
    5.3907  -18.5842   21.0707 C   0  0  2  0  0  0  0  0  0  0  0  0
    5.1468  -19.9527   20.6663 N   0  0  0  0  0  0  0  0  0  0  0  0
    6.0751  -18.5268   22.3844 C   0  0  0  0  0  0  0  0  0  0  0  0
    5.5736  -19.2109   23.3275 O   0  0  0  0  0  0  0  0  0  0  0  0
    8.9191  -19.9992   23.4069 C   0  0  0  0  0  0  0  0  0  0  0  0
    9.1974  -18.5573   23.7065 C   0  0  1  0  0  0  0  0  0  0  0  0
   10.0372  -18.0676   22.7079 O   0  0  0  0  0  0  0  0  0  0  0  0
    7.9500  -17.7089   23.7611 C   0  0  2  0  0  0  0  0  0  0  0  0
    7.2195  -17.7349   22.5152 N   0  0  0  0  0  0  0  0  0  0  0  0
    8.2194  -16.3168   24.1348 C   0  0  0  0  0  0  0  0  0  0  0  0
    8.5264  -15.4676   23.2635 O   0  0  0  0  0  0  0  0  0  0  0  0
    5.3531  -12.7922   26.3557 C   0  0  0  0  0  0  0  0  0  0  0  0
    6.4547  -13.4623   25.5204 C   0  0  0  0  0  0  0  0  0  0  0  0
    7.5630  -13.7864   26.4585 C   0  0  2  0  0  0  0  0  0  0  0  0
    8.0667  -12.5553   27.1788 C   0  0  0  0  0  0  0  0  0  0  0  0
    8.6923  -14.5935   25.8678 C   0  0  2  0  0  0  0  0  0  0  0  0
    8.1473  -15.8696   25.4762 N   0  0  0  0  0  0  0  0  0  0  0  0
    9.8631  -14.7116   26.7387 C   0  0  0  0  0  0  0  0  0  0  0  0
   10.1283  -15.8879   27.3931 O   0  0  0  0  0  0  0  0  0  0  0  0
   10.6343  -13.7572   26.9019 O   0  0  0  0  0  0  0  0  0  0  0  0
  2  4  1  0
  2  3  1  6
  2  1  1  0
  4  5  1  1
  6  4  1  0
  6  7  2  0
  9  8  1  6
  9 10  1  0
  9 11  1  0
 11 12  1  6
 12  6  1  0
 13 11  1  0
 14 13  2  0
 15 16  1  0
 17 16  1  0
 17 19  1  0
 17 18  1  6
 19 20  1  1
 19 21  1  0
 20 13  1  0
 21 22  1  0
 23 21  2  0
M  END
$$$$
