QKG.pdb
     RDKit          3D

 23 22  0  0  1  0  0  0  0  0999 V2000
    8.9594  -12.1319   18.2292 N   0  0  0  0  0  0  0  0  0  0  0  0
    8.0081  -13.1822   17.9670 C   0  0  0  0  0  0  0  0  0  0  0  0
    8.1846  -13.8632   16.9361 O   0  0  0  0  0  0  0  0  0  0  0  0
    6.8918  -13.4215   18.8788 C   0  0  0  0  0  0  0  0  0  0  0  0
    7.1812  -13.3271   20.3232 C   0  0  0  0  0  0  0  0  0  0  0  0
    8.0975  -14.3105   20.9194 C   0  0  2  0  0  0  0  0  0  0  0  0
    8.7089  -15.1930   19.9220 N   0  0  0  0  0  0  0  0  0  0  0  0
    7.7057  -15.0760   22.1005 C   0  0  0  0  0  0  0  0  0  0  0  0
    7.0480  -14.5221   23.0543 O   0  0  0  0  0  0  0  0  0  0  0  0
    7.9980  -16.4582   22.2890 N   0  0  0  0  0  0  0  0  0  0  0  0
    7.5886  -17.2439   23.4519 C   0  0  1  0  0  0  0  0  0  0  0  0
    6.8607  -18.4572   23.0041 C   0  0  0  0  0  0  0  0  0  0  0  0
    6.3684  -19.3852   24.0644 C   0  0  0  0  0  0  0  0  0  0  0  0
    5.6858  -20.6070   23.4349 C   0  0  0  0  0  0  0  0  0  0  0  0
    5.1893  -21.5912   24.4325 C   0  0  0  0  0  0  0  0  0  0  0  0
    4.5449  -22.7384   23.8428 N   0  0  0  0  0  0  0  0  0  0  0  0
    8.7561  -17.4611   24.3321 C   0  0  0  0  0  0  0  0  0  0  0  0
    8.5733  -18.0365   25.4682 O   0  0  0  0  0  0  0  0  0  0  0  0
   10.0847  -17.1033   24.0592 N   0  0  0  0  0  0  0  0  0  0  0  0
   11.1618  -17.4359   24.9990 C   0  0  0  0  0  0  0  0  0  0  0  0
   12.4577  -16.9101   24.5302 C   0  0  0  0  0  0  0  0  0  0  0  0
   13.6198  -17.0954   25.2409 O   0  0  0  0  0  0  0  0  0  0  0  0
   12.4838  -16.2822   23.4576 O   0  0  0  0  0  0  0  0  0  0  0  0
  1  2  1  0
  2  3  2  0
  4  2  1  0
  4  5  1  0
  6  7  1  6
  6  5  1  0
  6  8  1  0
  8  9  2  0
 10  8  1  0
 10 11  1  0
 11 17  1  0
 12 13  1  0
 11 12  1  6
 14 13  1  0
 15 14  1  0
 16 15  1  0
 17 18  2  0
 19 17  1  0
 19 20  1  0
 21 20  1  0
 21 22  1  0
 23 21  2  0
M  END
$$$$
