QKG.pdb
     RDKit          3D

 23 22  0  0  1  0  0  0  0  0999 V2000
    9.6586  -18.5150   15.9239 N   0  0  0  0  0  0  0  0  0  0  0  0
    8.3469  -18.5070   15.3269 C   0  0  0  0  0  0  0  0  0  0  0  0
    8.2876  -18.3551   14.0896 O   0  0  0  0  0  0  0  0  0  0  0  0
    7.1516  -18.6686   16.1515 C   0  0  0  0  0  0  0  0  0  0  0  0
    7.3648  -18.8811   17.5967 C   0  0  0  0  0  0  0  0  0  0  0  0
    7.3527  -20.2584   18.1112 C   0  0  2  0  0  0  0  0  0  0  0  0
    6.3144  -21.0860   17.4912 N   0  0  0  0  0  0  0  0  0  0  0  0
    7.4184  -20.5198   19.5471 C   0  0  0  0  0  0  0  0  0  0  0  0
    6.9806  -19.6582   20.3927 O   0  0  0  0  0  0  0  0  0  0  0  0
    7.9451  -21.7151   20.1176 N   0  0  0  0  0  0  0  0  0  0  0  0
    7.9877  -22.0045   21.5499 C   0  0  1  0  0  0  0  0  0  0  0  0
    7.4421  -23.3615   21.8019 C   0  0  0  0  0  0  0  0  0  0  0  0
    7.4126  -23.8305   23.2186 C   0  0  0  0  0  0  0  0  0  0  0  0
    6.9099  -25.2784   23.2953 C   0  0  0  0  0  0  0  0  0  0  0  0
    6.9378  -25.8462   24.6689 C   0  0  0  0  0  0  0  0  0  0  0  0
    6.5753  -27.2406   24.7265 N   0  0  0  0  0  0  0  0  0  0  0  0
    9.3465  -21.7328   22.0645 C   0  0  0  0  0  0  0  0  0  0  0  0
    9.6541  -22.1480   23.2427 O   0  0  0  0  0  0  0  0  0  0  0  0
   10.3735  -21.0552   21.3911 N   0  0  0  0  0  0  0  0  0  0  0  0
   11.7142  -20.9458   21.9783 C   0  0  0  0  0  0  0  0  0  0  0  0
   12.6559  -20.3088   21.0387 C   0  0  0  0  0  0  0  0  0  0  0  0
   13.2017  -19.0704   21.2808 O   0  0  0  0  0  0  0  0  0  0  0  0
   12.9556  -20.9229   20.0001 O   0  0  0  0  0  0  0  0  0  0  0  0
  1  2  1  0
  2  3  2  0
  4  2  1  0
  4  5  1  0
  6  7  1  1
  6  5  1  0
  6  8  1  0
  8  9  2  0
 10  8  1  0
 10 11  1  0
 11 17  1  0
 12 13  1  0
 11 12  1  6
 14 13  1  0
 15 14  1  0
 16 15  1  0
 17 18  2  0
 19 17  1  0
 19 20  1  0
 21 20  1  0
 21 22  1  0
 23 21  2  0
M  END
$$$$
