QKG.pdb
     RDKit          3D

 23 22  0  0  1  0  0  0  0  0999 V2000
    7.6477  -12.3099   18.1460 N   0  0  0  0  0  0  0  0  0  0  0  0
    7.8974  -13.7278   18.2105 C   0  0  0  0  0  0  0  0  0  0  0  0
    8.5154  -14.2391   17.2543 O   0  0  0  0  0  0  0  0  0  0  0  0
    7.4368  -14.5147   19.3521 C   0  0  0  0  0  0  0  0  0  0  0  0
    8.2763  -14.4794   20.5658 C   0  0  0  0  0  0  0  0  0  0  0  0
    8.3168  -15.6726   21.4242 C   0  0  2  0  0  0  0  0  0  0  0  0
    8.6060  -16.8992   20.6764 N   0  0  0  0  0  0  0  0  0  0  0  0
    7.2691  -15.9173   22.4126 C   0  0  0  0  0  0  0  0  0  0  0  0
    6.7490  -14.9466   23.0730 O   0  0  0  0  0  0  0  0  0  0  0  0
    6.7417  -17.2066   22.7142 N   0  0  0  0  0  0  0  0  0  0  0  0
    5.7325  -17.4739   23.7375 C   0  0  1  0  0  0  0  0  0  0  0  0
    4.7218  -18.4224   23.2070 C   0  0  0  0  0  0  0  0  0  0  0  0
    3.9349  -17.9829   22.0172 C   0  0  0  0  0  0  0  0  0  0  0  0
    3.0061  -19.1080   21.5414 C   0  0  0  0  0  0  0  0  0  0  0  0
    2.1401  -18.7208   20.3968 C   0  0  0  0  0  0  0  0  0  0  0  0
    1.3336  -19.8029   19.8890 N   0  0  0  0  0  0  0  0  0  0  0  0
    6.4023  -17.8589   24.9977 C   0  0  0  0  0  0  0  0  0  0  0  0
    5.6800  -18.0642   26.0423 O   0  0  0  0  0  0  0  0  0  0  0  0
    7.7805  -18.0358   25.1895 N   0  0  0  0  0  0  0  0  0  0  0  0
    8.3152  -18.4123   26.5035 C   0  0  0  0  0  0  0  0  0  0  0  0
    9.7828  -18.5527   26.4600 C   0  0  0  0  0  0  0  0  0  0  0  0
   10.5115  -18.9361   27.5609 O   0  0  0  0  0  0  0  0  0  0  0  0
   10.3645  -18.3137   25.3876 O   0  0  0  0  0  0  0  0  0  0  0  0
  1  2  1  0
  2  3  2  0
  4  2  1  0
  4  5  1  0
  6  7  1  6
  6  5  1  0
  6  8  1  0
  8  9  2  0
 10  8  1  0
 10 11  1  0
 11 17  1  0
 12 13  1  0
 11 12  1  6
 14 13  1  0
 15 14  1  0
 16 15  1  0
 17 18  2  0
 19 17  1  0
 19 20  1  0
 21 20  1  0
 21 22  1  0
 23 21  2  0
M  END
$$$$
