QKG.pdb
     RDKit          3D

 23 22  0  0  1  0  0  0  0  0999 V2000
    8.1732  -12.2146   18.5780 N   0  0  0  0  0  0  0  0  0  0  0  0
    7.5224  -13.3675   18.0084 C   0  0  0  0  0  0  0  0  0  0  0  0
    7.4877  -13.4417   16.7631 O   0  0  0  0  0  0  0  0  0  0  0  0
    6.9332  -14.3915   18.8680 C   0  0  0  0  0  0  0  0  0  0  0  0
    7.0377  -14.1771   20.3248 C   0  0  0  0  0  0  0  0  0  0  0  0
    8.0170  -14.9715   21.0810 C   0  0  2  0  0  0  0  0  0  0  0  0
    8.3582  -16.2323   20.4166 N   0  0  0  0  0  0  0  0  0  0  0  0
    7.8572  -15.1832   22.5177 C   0  0  0  0  0  0  0  0  0  0  0  0
    7.3452  -14.2716   23.2634 O   0  0  0  0  0  0  0  0  0  0  0  0
    8.2313  -16.3804   23.1946 N   0  0  0  0  0  0  0  0  0  0  0  0
    8.1876  -16.5646   24.6441 C   0  0  1  0  0  0  0  0  0  0  0  0
    7.5877  -17.8843   24.9623 C   0  0  0  0  0  0  0  0  0  0  0  0
    6.2522  -18.1856   24.3677 C   0  0  0  0  0  0  0  0  0  0  0  0
    6.1296  -19.6824   24.0522 C   0  0  0  0  0  0  0  0  0  0  0  0
    4.8227  -20.0590   23.4519 C   0  0  0  0  0  0  0  0  0  0  0  0
    4.7937  -21.4000   22.9225 N   0  0  0  0  0  0  0  0  0  0  0  0
    9.5243  -16.2922   25.2132 C   0  0  0  0  0  0  0  0  0  0  0  0
    9.6798  -16.3715   26.4879 O   0  0  0  0  0  0  0  0  0  0  0  0
   10.6815  -15.9500   24.4981 N   0  0  0  0  0  0  0  0  0  0  0  0
   11.9577  -15.7345   25.1902 C   0  0  0  0  0  0  0  0  0  0  0  0
   12.9038  -16.8321   24.9151 C   0  0  0  0  0  0  0  0  0  0  0  0
   14.2375  -16.7430   25.2367 O   0  0  0  0  0  0  0  0  0  0  0  0
   12.4667  -17.8633   24.3755 O   0  0  0  0  0  0  0  0  0  0  0  0
  1  2  1  0
  2  3  2  0
  4  2  1  0
  4  5  1  0
  6  7  1  6
  6  5  1  0
  6  8  1  0
  8  9  2  0
 10  8  1  0
 10 11  1  0
 11 17  1  0
 12 13  1  0
 11 12  1  6
 14 13  1  0
 15 14  1  0
 16 15  1  0
 17 18  2  0
 19 17  1  0
 19 20  1  0
 21 20  1  0
 21 22  1  0
 23 21  2  0
M  END
$$$$
