QKG.pdb
     RDKit          3D

 23 22  0  0  1  0  0  0  0  0999 V2000
    7.4620  -13.6614   28.0504 N   0  0  0  0  0  0  0  0  0  0  0  0
    6.5564  -12.5808   27.7514 C   0  0  0  0  0  0  0  0  0  0  0  0
    6.4049  -11.7080   28.6305 O   0  0  0  0  0  0  0  0  0  0  0  0
    5.8545  -12.5292   26.4711 C   0  0  0  0  0  0  0  0  0  0  0  0
    6.1437  -13.6118   25.5103 C   0  0  0  0  0  0  0  0  0  0  0  0
    7.4772  -13.6623   24.8929 C   0  0  2  0  0  0  0  0  0  0  0  0
    7.9259  -12.3553   24.4054 N   0  0  0  0  0  0  0  0  0  0  0  0
    7.8142  -14.7058   23.9274 C   0  0  0  0  0  0  0  0  0  0  0  0
    7.3298  -15.8894   24.0431 O   0  0  0  0  0  0  0  0  0  0  0  0
    8.6708  -14.5087   22.8054 N   0  0  0  0  0  0  0  0  0  0  0  0
    9.0864  -15.5622   21.8811 C   0  0  1  0  0  0  0  0  0  0  0  0
    9.3395  -14.9792   20.5399 C   0  0  0  0  0  0  0  0  0  0  0  0
    8.1468  -14.5916   19.7306 C   0  0  0  0  0  0  0  0  0  0  0  0
    8.5768  -14.0915   18.3449 C   0  0  0  0  0  0  0  0  0  0  0  0
    7.4491  -13.5872   17.5178 C   0  0  0  0  0  0  0  0  0  0  0  0
    7.8693  -12.9283   16.3060 N   0  0  0  0  0  0  0  0  0  0  0  0
   10.1923  -16.3354   22.4847 C   0  0  0  0  0  0  0  0  0  0  0  0
   10.5456  -17.4415   21.9307 O   0  0  0  0  0  0  0  0  0  0  0  0
   10.9271  -15.9870   23.6275 N   0  0  0  0  0  0  0  0  0  0  0  0
   11.9922  -16.8613   24.1329 C   0  0  0  0  0  0  0  0  0  0  0  0
   13.2797  -16.5645   23.4771 C   0  0  0  0  0  0  0  0  0  0  0  0
   14.4458  -17.1951   23.8412 O   0  0  0  0  0  0  0  0  0  0  0  0
   13.2947  -15.7157   22.5690 O   0  0  0  0  0  0  0  0  0  0  0  0
  1  2  1  0
  2  3  2  0
  4  2  1  0
  4  5  1  0
  6  7  1  6
  6  5  1  0
  6  8  1  0
  8  9  2  0
 10  8  1  0
 10 11  1  0
 11 17  1  0
 12 13  1  0
 11 12  1  6
 14 13  1  0
 15 14  1  0
 16 15  1  0
 17 18  2  0
 19 17  1  0
 19 20  1  0
 21 20  1  0
 21 22  1  0
 23 21  2  0
M  END
$$$$
