QKG.pdb
     RDKit          3D

 23 22  0  0  1  0  0  0  0  0999 V2000
   10.5281  -20.6714   15.6231 N   0  0  0  0  0  0  0  0  0  0  0  0
    9.8725  -19.4568   16.0380 C   0  0  0  0  0  0  0  0  0  0  0  0
    8.7168  -19.2611   15.6095 O   0  0  0  0  0  0  0  0  0  0  0  0
   10.5492  -18.5082   16.9194 C   0  0  0  0  0  0  0  0  0  0  0  0
    9.7038  -17.7782   17.8846 C   0  0  0  0  0  0  0  0  0  0  0  0
    9.9837  -17.9354   19.3195 C   0  0  2  0  0  0  0  0  0  0  0  0
    9.1989  -19.0086   19.9358 N   0  0  0  0  0  0  0  0  0  0  0  0
   10.0326  -16.7726   20.2026 C   0  0  0  0  0  0  0  0  0  0  0  0
   10.9275  -15.8651   20.0455 O   0  0  0  0  0  0  0  0  0  0  0  0
    9.1187  -16.5435   21.2721 N   0  0  0  0  0  0  0  0  0  0  0  0
    9.1518  -15.3828   22.1602 C   0  0  1  0  0  0  0  0  0  0  0  0
    7.7725  -14.8790   22.3757 C   0  0  0  0  0  0  0  0  0  0  0  0
    7.3582  -13.6757   21.5958 C   0  0  0  0  0  0  0  0  0  0  0  0
    7.5229  -13.9274   20.0909 C   0  0  0  0  0  0  0  0  0  0  0  0
    7.0532  -12.7997   19.2439 C   0  0  0  0  0  0  0  0  0  0  0  0
    7.2082  -13.0342   17.8296 N   0  0  0  0  0  0  0  0  0  0  0  0
    9.9306  -15.7149   23.3719 C   0  0  0  0  0  0  0  0  0  0  0  0
    9.7927  -14.9754   24.4156 O   0  0  0  0  0  0  0  0  0  0  0  0
   10.8290  -16.7819   23.5196 N   0  0  0  0  0  0  0  0  0  0  0  0
   11.4333  -17.0819   24.8230 C   0  0  0  0  0  0  0  0  0  0  0  0
   12.4533  -18.1408   24.7052 C   0  0  0  0  0  0  0  0  0  0  0  0
   13.1564  -18.6004   25.7936 O   0  0  0  0  0  0  0  0  0  0  0  0
   12.6729  -18.6227   23.5804 O   0  0  0  0  0  0  0  0  0  0  0  0
  1  2  1  0
  2  3  2  0
  4  2  1  0
  4  5  1  0
  6  7  1  1
  6  5  1  0
  6  8  1  0
  8  9  2  0
 10  8  1  0
 10 11  1  0
 11 17  1  0
 12 13  1  0
 11 12  1  1
 14 13  1  0
 15 14  1  0
 16 15  1  0
 17 18  2  0
 19 17  1  0
 19 20  1  0
 21 20  1  0
 21 22  1  0
 23 21  2  0
M  END
$$$$
