QKG.pdb
     RDKit          3D

 23 22  0  0  1  0  0  0  0  0999 V2000
    7.9893  -12.6161   16.5716 N   0  0  0  0  0  0  0  0  0  0  0  0
    8.2187  -14.0379   16.5182 C   0  0  0  0  0  0  0  0  0  0  0  0
    8.2620  -14.5634   15.3870 O   0  0  0  0  0  0  0  0  0  0  0  0
    8.3880  -14.8122   17.7455 C   0  0  0  0  0  0  0  0  0  0  0  0
    9.7403  -15.3369   18.0193 C   0  0  0  0  0  0  0  0  0  0  0  0
    9.9420  -16.1600   19.2209 C   0  0  2  0  0  0  0  0  0  0  0  0
    9.4279  -17.5236   19.0666 N   0  0  0  0  0  0  0  0  0  0  0  0
    9.6110  -15.6410   20.5459 C   0  0  0  0  0  0  0  0  0  0  0  0
   10.0408  -14.4928   20.9281 O   0  0  0  0  0  0  0  0  0  0  0  0
    8.8023  -16.3319   21.4947 N   0  0  0  0  0  0  0  0  0  0  0  0
    8.3780  -15.7835   22.7817 C   0  0  1  0  0  0  0  0  0  0  0  0
    7.0996  -16.4133   23.1961 C   0  0  0  0  0  0  0  0  0  0  0  0
    5.9597  -16.3346   22.2358 C   0  0  0  0  0  0  0  0  0  0  0  0
    5.1722  -17.6517   22.2269 C   0  0  0  0  0  0  0  0  0  0  0  0
    4.0182  -17.6489   21.2897 C   0  0  0  0  0  0  0  0  0  0  0  0
    3.2823  -18.8888   21.2739 N   0  0  0  0  0  0  0  0  0  0  0  0
    9.4977  -15.8670   23.7431 C   0  0  0  0  0  0  0  0  0  0  0  0
    9.2985  -15.4878   24.9562 O   0  0  0  0  0  0  0  0  0  0  0  0
   10.7939  -16.3317   23.4757 N   0  0  0  0  0  0  0  0  0  0  0  0
   11.7980  -16.4164   24.5427 C   0  0  0  0  0  0  0  0  0  0  0  0
   13.1042  -16.8481   24.0107 C   0  0  0  0  0  0  0  0  0  0  0  0
   14.1986  -17.0289   24.8229 O   0  0  0  0  0  0  0  0  0  0  0  0
   13.2028  -17.0508   22.7881 O   0  0  0  0  0  0  0  0  0  0  0  0
  1  2  1  0
  2  3  2  0
  4  2  1  0
  4  5  1  0
  6  7  1  6
  6  5  1  0
  6  8  1  0
  8  9  2  0
 10  8  1  0
 10 11  1  0
 11 17  1  0
 12 13  1  0
 11 12  1  1
 14 13  1  0
 15 14  1  0
 16 15  1  0
 17 18  2  0
 19 17  1  0
 19 20  1  0
 21 20  1  0
 21 22  1  0
 23 21  2  0
M  END
$$$$
