QKG.pdb
     RDKit          3D

 23 22  0  0  1  0  0  0  0  0999 V2000
    8.4996  -12.5945   17.2429 N   0  0  0  0  0  0  0  0  0  0  0  0
    7.8474  -13.8036   16.8071 C   0  0  0  0  0  0  0  0  0  0  0  0
    7.0131  -13.6974   15.8851 O   0  0  0  0  0  0  0  0  0  0  0  0
    8.1612  -15.0865   17.4318 C   0  0  0  0  0  0  0  0  0  0  0  0
    9.1560  -15.0692   18.5223 C   0  0  0  0  0  0  0  0  0  0  0  0
    8.8590  -15.8173   19.7529 C   0  0  2  0  0  0  0  0  0  0  0  0
    7.5368  -16.4487   19.7272 N   0  0  0  0  0  0  0  0  0  0  0  0
    9.1130  -15.2275   21.0652 C   0  0  0  0  0  0  0  0  0  0  0  0
   10.2040  -14.5922   21.3001 O   0  0  0  0  0  0  0  0  0  0  0  0
    8.2020  -15.2923   22.1593 N   0  0  0  0  0  0  0  0  0  0  0  0
    8.4782  -14.7861   23.5027 C   0  0  1  0  0  0  0  0  0  0  0  0
    7.3466  -13.9425   23.9613 C   0  0  0  0  0  0  0  0  0  0  0  0
    7.4789  -13.2961   25.3002 C   0  0  0  0  0  0  0  0  0  0  0  0
    6.2394  -12.4468   25.6121 C   0  0  0  0  0  0  0  0  0  0  0  0
    6.2974  -11.7727   26.9358 C   0  0  0  0  0  0  0  0  0  0  0  0
    5.1111  -11.0170   27.2532 N   0  0  0  0  0  0  0  0  0  0  0  0
    8.8616  -15.9115   24.3811 C   0  0  0  0  0  0  0  0  0  0  0  0
    7.9333  -16.6556   24.8707 O   0  0  0  0  0  0  0  0  0  0  0  0
   10.1651  -16.2749   24.7504 N   0  0  0  0  0  0  0  0  0  0  0  0
   10.4019  -17.3866   25.6789 C   0  0  0  0  0  0  0  0  0  0  0  0
   11.8316  -17.4952   26.0248 C   0  0  0  0  0  0  0  0  0  0  0  0
   12.2838  -18.3591   26.9939 O   0  0  0  0  0  0  0  0  0  0  0  0
   12.6406  -16.7768   25.4124 O   0  0  0  0  0  0  0  0  0  0  0  0
  1  2  1  0
  2  3  2  0
  4  2  1  0
  4  5  1  0
  6  7  1  1
  6  5  1  0
  6  8  1  0
  8  9  2  0
 10  8  1  0
 10 11  1  0
 11 17  1  0
 12 13  1  0
 11 12  1  1
 14 13  1  0
 15 14  1  0
 16 15  1  0
 17 18  2  0
 19 17  1  0
 19 20  1  0
 21 20  1  0
 21 22  1  0
 23 21  2  0
M  END
$$$$
