QKG.pdb
     RDKit          3D

 23 22  0  0  1  0  0  0  0  0999 V2000
   11.2000  -16.1436   14.8221 N   0  0  0  0  0  0  0  0  0  0  0  0
   10.7511  -16.8358   16.0038 C   0  0  0  0  0  0  0  0  0  0  0  0
    9.5222  -16.8489   16.2211 O   0  0  0  0  0  0  0  0  0  0  0  0
   11.7085  -17.4848   16.8964 C   0  0  0  0  0  0  0  0  0  0  0  0
   12.0658  -16.7572   18.1301 C   0  0  0  0  0  0  0  0  0  0  0  0
   11.3770  -17.1155   19.3788 C   0  0  2  0  0  0  0  0  0  0  0  0
   10.2196  -17.9867   19.1577 N   0  0  0  0  0  0  0  0  0  0  0  0
   11.0600  -16.0958   20.3760 C   0  0  0  0  0  0  0  0  0  0  0  0
   11.9219  -15.1993   20.6959 O   0  0  0  0  0  0  0  0  0  0  0  0
    9.8082  -16.0012   21.0509 N   0  0  0  0  0  0  0  0  0  0  0  0
    9.4487  -14.9419   21.9920 C   0  0  1  0  0  0  0  0  0  0  0  0
    8.0803  -14.4513   21.6934 C   0  0  0  0  0  0  0  0  0  0  0  0
    7.9429  -13.4389   20.6053 C   0  0  0  0  0  0  0  0  0  0  0  0
    7.8059  -14.1300   19.2420 C   0  0  0  0  0  0  0  0  0  0  0  0
    7.6731  -13.1818   18.1047 C   0  0  0  0  0  0  0  0  0  0  0  0
    7.5822  -13.8287   16.8192 N   0  0  0  0  0  0  0  0  0  0  0  0
    9.6967  -15.4082   23.3726 C   0  0  0  0  0  0  0  0  0  0  0  0
    9.4620  -14.6019   24.3474 O   0  0  0  0  0  0  0  0  0  0  0  0
   10.1702  -16.6724   23.7538 N   0  0  0  0  0  0  0  0  0  0  0  0
   10.2934  -17.0339   25.1709 C   0  0  0  0  0  0  0  0  0  0  0  0
   11.6951  -17.3260   25.5253 C   0  0  0  0  0  0  0  0  0  0  0  0
   12.0325  -18.3414   26.3884 O   0  0  0  0  0  0  0  0  0  0  0  0
   12.5876  -16.6235   25.0198 O   0  0  0  0  0  0  0  0  0  0  0  0
  1  2  1  0
  2  3  2  0
  4  2  1  0
  4  5  1  0
  6  7  1  6
  6  5  1  0
  6  8  1  0
  8  9  2  0
 10  8  1  0
 10 11  1  0
 11 17  1  0
 12 13  1  0
 11 12  1  1
 14 13  1  0
 15 14  1  0
 16 15  1  0
 17 18  2  0
 19 17  1  0
 19 20  1  0
 21 20  1  0
 21 22  1  0
 23 21  2  0
M  END
$$$$
