QKG.pdb
     RDKit          3D

 23 22  0  0  1  0  0  0  0  0999 V2000
   15.4190  -18.0179   17.1090 N   0  0  0  0  0  0  0  0  0  0  0  0
   14.9887  -17.7114   15.7681 C   0  0  0  0  0  0  0  0  0  0  0  0
   15.8802  -17.5267   14.9146 O   0  0  0  0  0  0  0  0  0  0  0  0
   13.5670  -17.6228   15.4435 C   0  0  0  0  0  0  0  0  0  0  0  0
   12.6165  -17.9146   16.5346 C   0  0  0  0  0  0  0  0  0  0  0  0
   11.6379  -16.8818   16.9056 C   0  0  2  0  0  0  0  0  0  0  0  0
   11.1868  -16.0900   15.7580 N   0  0  0  0  0  0  0  0  0  0  0  0
   11.8675  -16.0156   18.0596 C   0  0  0  0  0  0  0  0  0  0  0  0
   12.7527  -15.0863   18.0180 O   0  0  0  0  0  0  0  0  0  0  0  0
   11.1489  -16.1135   19.2866 N   0  0  0  0  0  0  0  0  0  0  0  0
   11.3633  -15.2507   20.4471 C   0  0  1  0  0  0  0  0  0  0  0  0
   10.0710  -14.6612   20.8771 C   0  0  0  0  0  0  0  0  0  0  0  0
    9.5542  -13.5051   20.0871 C   0  0  0  0  0  0  0  0  0  0  0  0
    8.0591  -13.6824   19.7898 C   0  0  0  0  0  0  0  0  0  0  0  0
    7.4586  -12.5381   19.0550 C   0  0  0  0  0  0  0  0  0  0  0  0
    6.0603  -12.7153   18.7505 N   0  0  0  0  0  0  0  0  0  0  0  0
   12.1258  -15.9914   21.4742 C   0  0  0  0  0  0  0  0  0  0  0  0
   11.5867  -17.0266   22.0154 O   0  0  0  0  0  0  0  0  0  0  0  0
   13.4140  -15.6867   21.9381 N   0  0  0  0  0  0  0  0  0  0  0  0
   14.0490  -16.4983   22.9832 C   0  0  0  0  0  0  0  0  0  0  0  0
   15.3862  -15.9766   23.3227 C   0  0  0  0  0  0  0  0  0  0  0  0
   15.5734  -15.0363   24.3080 O   0  0  0  0  0  0  0  0  0  0  0  0
   16.3643  -16.4101   22.6896 O   0  0  0  0  0  0  0  0  0  0  0  0
  1  2  1  0
  2  3  2  0
  4  2  1  0
  4  5  1  0
  6  7  1  6
  6  5  1  0
  6  8  1  0
  8  9  2  0
 10  8  1  0
 10 11  1  0
 11 17  1  0
 12 13  1  0
 11 12  1  1
 14 13  1  0
 15 14  1  0
 16 15  1  0
 17 18  2  0
 19 17  1  0
 19 20  1  0
 21 20  1  0
 21 22  1  0
 23 21  2  0
M  END
$$$$
