QKG.pdb
     RDKit          3D

 23 22  0  0  1  0  0  0  0  0999 V2000
    8.8386  -20.6514   21.3533 N   0  0  0  0  0  0  0  0  0  0  0  0
    8.0427  -20.3723   20.1847 C   0  0  0  0  0  0  0  0  0  0  0  0
    7.2337  -21.2523   19.8259 O   0  0  0  0  0  0  0  0  0  0  0  0
    8.1932  -19.1101   19.4644 C   0  0  0  0  0  0  0  0  0  0  0  0
    9.1724  -18.1478   20.0069 C   0  0  0  0  0  0  0  0  0  0  0  0
    8.7564  -16.7483   20.1809 C   0  0  2  0  0  0  0  0  0  0  0  0
    9.0018  -15.9317   18.9891 N   0  0  0  0  0  0  0  0  0  0  0  0
    9.1176  -16.0062   21.3864 C   0  0  0  0  0  0  0  0  0  0  0  0
   10.3490  -15.8011   21.6876 O   0  0  0  0  0  0  0  0  0  0  0  0
    8.1709  -15.4541   22.2976 N   0  0  0  0  0  0  0  0  0  0  0  0
    8.5100  -14.8499   23.5849 C   0  0  1  0  0  0  0  0  0  0  0  0
    7.4453  -13.8970   23.9857 C   0  0  0  0  0  0  0  0  0  0  0  0
    7.6068  -13.2104   25.3011 C   0  0  0  0  0  0  0  0  0  0  0  0
    6.4135  -12.2849   25.5746 C   0  0  0  0  0  0  0  0  0  0  0  0
    6.4720  -11.6143   26.9002 C   0  0  0  0  0  0  0  0  0  0  0  0
    5.2981  -10.8352   27.2071 N   0  0  0  0  0  0  0  0  0  0  0  0
    8.8419  -15.9156   24.5541 C   0  0  0  0  0  0  0  0  0  0  0  0
    7.9027  -16.6970   24.9570 O   0  0  0  0  0  0  0  0  0  0  0  0
   10.1063  -16.1832   25.0991 N   0  0  0  0  0  0  0  0  0  0  0  0
   10.2760  -17.2022   26.1417 C   0  0  0  0  0  0  0  0  0  0  0  0
   11.6793  -17.2756   26.5901 C   0  0  0  0  0  0  0  0  0  0  0  0
   12.0697  -18.0792   27.6350 O   0  0  0  0  0  0  0  0  0  0  0  0
   12.5233  -16.5836   25.9950 O   0  0  0  0  0  0  0  0  0  0  0  0
  1  2  1  0
  2  3  2  0
  4  2  1  0
  4  5  1  0
  6  7  1  6
  6  5  1  0
  6  8  1  0
  8  9  2  0
 10  8  1  0
 10 11  1  0
 11 17  1  0
 12 13  1  0
 11 12  1  1
 14 13  1  0
 15 14  1  0
 16 15  1  0
 17 18  2  0
 19 17  1  0
 19 20  1  0
 21 20  1  0
 21 22  1  0
 23 21  2  0
M  END
$$$$
