QKG.pdb
     RDKit          3D

 23 22  0  0  1  0  0  0  0  0999 V2000
    8.0879  -12.7066   17.3147 N   0  0  0  0  0  0  0  0  0  0  0  0
    7.6836  -13.9732   16.7584 C   0  0  0  0  0  0  0  0  0  0  0  0
    6.8330  -13.9463   15.8456 O   0  0  0  0  0  0  0  0  0  0  0  0
    8.2543  -15.2224   17.2569 C   0  0  0  0  0  0  0  0  0  0  0  0
    9.2741  -15.1105   18.3182 C   0  0  0  0  0  0  0  0  0  0  0  0
    9.0418  -15.8121   19.5893 C   0  0  2  0  0  0  0  0  0  0  0  0
    7.7605  -16.5226   19.6186 N   0  0  0  0  0  0  0  0  0  0  0  0
    9.2789  -15.1425   20.8661 C   0  0  0  0  0  0  0  0  0  0  0  0
   10.2781  -14.3502   21.0170 O   0  0  0  0  0  0  0  0  0  0  0  0
    8.4472  -15.2944   22.0135 N   0  0  0  0  0  0  0  0  0  0  0  0
    8.7561  -14.7648   23.3406 C   0  0  1  0  0  0  0  0  0  0  0  0
    7.6397  -13.9062   23.8084 C   0  0  0  0  0  0  0  0  0  0  0  0
    7.8055  -13.2355   25.1315 C   0  0  0  0  0  0  0  0  0  0  0  0
    6.5581  -12.4108   25.4763 C   0  0  0  0  0  0  0  0  0  0  0  0
    6.6138  -11.7818   26.8222 C   0  0  0  0  0  0  0  0  0  0  0  0
    5.3943  -11.1107   27.1985 N   0  0  0  0  0  0  0  0  0  0  0  0
    9.1530  -15.8757   24.2313 C   0  0  0  0  0  0  0  0  0  0  0  0
    8.2328  -16.6159   24.7417 O   0  0  0  0  0  0  0  0  0  0  0  0
   10.4617  -16.2289   24.5921 N   0  0  0  0  0  0  0  0  0  0  0  0
   10.7114  -17.2998   25.5641 C   0  0  0  0  0  0  0  0  0  0  0  0
   12.1566  -17.4806   25.7966 C   0  0  0  0  0  0  0  0  0  0  0  0
   12.6400  -18.3764   26.7207 O   0  0  0  0  0  0  0  0  0  0  0  0
   12.9496  -16.7947   25.1287 O   0  0  0  0  0  0  0  0  0  0  0  0
  1  2  1  0
  2  3  2  0
  4  2  1  0
  4  5  1  0
  6  7  1  1
  6  5  1  0
  6  8  1  0
  8  9  2  0
 10  8  1  0
 10 11  1  0
 11 17  1  0
 12 13  1  0
 11 12  1  1
 14 13  1  0
 15 14  1  0
 16 15  1  0
 17 18  2  0
 19 17  1  0
 19 20  1  0
 21 20  1  0
 21 22  1  0
 23 21  2  0
M  END
$$$$
