QKG.pdb
     RDKit          3D

 23 22  0  0  1  0  0  0  0  0999 V2000
    9.2285  -15.3452   16.6792 N   0  0  0  0  0  0  0  0  0  0  0  0
    8.0332  -15.7714   17.3623 C   0  0  0  0  0  0  0  0  0  0  0  0
    6.9496  -15.6070   16.7655 O   0  0  0  0  0  0  0  0  0  0  0  0
    8.1079  -16.3650   18.6952 C   0  0  0  0  0  0  0  0  0  0  0  0
    9.4581  -16.6231   19.2332 C   0  0  0  0  0  0  0  0  0  0  0  0
    9.5780  -17.1501   20.6007 C   0  0  2  0  0  0  0  0  0  0  0  0
    8.5367  -18.1291   20.9241 N   0  0  0  0  0  0  0  0  0  0  0  0
    9.7962  -16.2507   21.7312 C   0  0  0  0  0  0  0  0  0  0  0  0
   10.9439  -15.7096   21.9286 O   0  0  0  0  0  0  0  0  0  0  0  0
    8.7892  -15.8975   22.6760 N   0  0  0  0  0  0  0  0  0  0  0  0
    8.9852  -14.9785   23.7959 C   0  0  1  0  0  0  0  0  0  0  0  0
    7.7129  -14.2746   24.0933 C   0  0  0  0  0  0  0  0  0  0  0  0
    7.7594  -13.1885   25.1161 C   0  0  0  0  0  0  0  0  0  0  0  0
    6.3500  -12.8843   25.6417 C   0  0  0  0  0  0  0  0  0  0  0  0
    6.3284  -11.8885   26.7453 C   0  0  0  0  0  0  0  0  0  0  0  0
    5.0077  -11.6221   27.2590 N   0  0  0  0  0  0  0  0  0  0  0  0
    9.6177  -15.7024   24.9189 C   0  0  0  0  0  0  0  0  0  0  0  0
    9.9288  -15.0443   25.9797 O   0  0  0  0  0  0  0  0  0  0  0  0
    9.9236  -17.0707   24.9627 N   0  0  0  0  0  0  0  0  0  0  0  0
   10.4773  -17.6795   26.1779 C   0  0  0  0  0  0  0  0  0  0  0  0
   11.8467  -18.1766   25.9471 C   0  0  0  0  0  0  0  0  0  0  0  0
   12.1542  -19.5156   25.9966 O   0  0  0  0  0  0  0  0  0  0  0  0
   12.7394  -17.3471   25.7014 O   0  0  0  0  0  0  0  0  0  0  0  0
  1  2  1  0
  2  3  2  0
  4  2  1  0
  4  5  1  0
  6  7  1  1
  6  5  1  0
  6  8  1  0
  8  9  2  0
 10  8  1  0
 10 11  1  0
 11 17  1  0
 12 13  1  0
 11 12  1  1
 14 13  1  0
 15 14  1  0
 16 15  1  0
 17 18  2  0
 19 17  1  0
 19 20  1  0
 21 20  1  0
 21 22  1  0
 23 21  2  0
M  END
$$$$
