QKG.pdb
     RDKit          3D

 23 22  0  0  1  0  0  0  0  0999 V2000
    7.9663  -12.1332   18.7143 N   0  0  0  0  0  0  0  0  0  0  0  0
    7.8456  -13.3433   17.9410 C   0  0  0  0  0  0  0  0  0  0  0  0
    7.4502  -13.2266   16.7630 O   0  0  0  0  0  0  0  0  0  0  0  0
    8.1740  -14.6397   18.5292 C   0  0  0  0  0  0  0  0  0  0  0  0
    8.6125  -14.6382   19.9388 C   0  0  0  0  0  0  0  0  0  0  0  0
    8.9915  -15.9180   20.5556 C   0  0  2  0  0  0  0  0  0  0  0  0
    8.2695  -17.0582   19.9844 N   0  0  0  0  0  0  0  0  0  0  0  0
    9.0789  -16.0502   22.0080 C   0  0  0  0  0  0  0  0  0  0  0  0
    8.3013  -15.3773   22.7771 O   0  0  0  0  0  0  0  0  0  0  0  0
    9.9941  -16.9139   22.6772 N   0  0  0  0  0  0  0  0  0  0  0  0
   10.1773  -16.9692   24.1265 C   0  0  1  0  0  0  0  0  0  0  0  0
    9.9797  -18.3610   24.6025 C   0  0  0  0  0  0  0  0  0  0  0  0
    8.6790  -19.0145   24.2726 C   0  0  0  0  0  0  0  0  0  0  0  0
    8.6666  -20.4673   24.7669 C   0  0  0  0  0  0  0  0  0  0  0  0
    7.3898  -21.1780   24.4939 C   0  0  0  0  0  0  0  0  0  0  0  0
    7.4046  -22.5658   24.8850 N   0  0  0  0  0  0  0  0  0  0  0  0
   11.4589  -16.3247   24.4833 C   0  0  0  0  0  0  0  0  0  0  0  0
   11.7248  -16.1274   25.7266 O   0  0  0  0  0  0  0  0  0  0  0  0
   12.4524  -15.8934   23.5920 N   0  0  0  0  0  0  0  0  0  0  0  0
   13.6888  -15.2753   24.0851 C   0  0  0  0  0  0  0  0  0  0  0  0
   14.8599  -16.1238   23.7949 C   0  0  0  0  0  0  0  0  0  0  0  0
   16.1454  -15.6982   24.0324 O   0  0  0  0  0  0  0  0  0  0  0  0
   14.6623  -17.2561   23.3213 O   0  0  0  0  0  0  0  0  0  0  0  0
  1  2  1  0
  2  3  2  0
  4  2  1  0
  4  5  1  0
  6  7  1  1
  6  5  1  0
  6  8  1  0
  8  9  2  0
 10  8  1  0
 10 11  1  0
 11 17  1  0
 12 13  1  0
 11 12  1  6
 14 13  1  0
 15 14  1  0
 16 15  1  0
 17 18  2  0
 19 17  1  0
 19 20  1  0
 21 20  1  0
 21 22  1  0
 23 21  2  0
M  END
$$$$
