QKG.pdb
     RDKit          3D

 23 22  0  0  1  0  0  0  0  0999 V2000
    9.5092  -13.5966   16.6516 N   0  0  0  0  0  0  0  0  0  0  0  0
    8.2208  -14.2183   16.8265 C   0  0  0  0  0  0  0  0  0  0  0  0
    7.6796  -14.6978   15.8093 O   0  0  0  0  0  0  0  0  0  0  0  0
    7.5920  -14.2723   18.1442 C   0  0  0  0  0  0  0  0  0  0  0  0
    8.4031  -13.8093   19.2873 C   0  0  0  0  0  0  0  0  0  0  0  0
    8.6373  -14.7392   20.4020 C   0  0  2  0  0  0  0  0  0  0  0  0
    7.6808  -15.8491   20.4247 N   0  0  0  0  0  0  0  0  0  0  0  0
    8.8657  -14.2398   21.7558 C   0  0  0  0  0  0  0  0  0  0  0  0
    9.6766  -13.2672   21.9694 O   0  0  0  0  0  0  0  0  0  0  0  0
    8.2248  -14.7607   22.9175 N   0  0  0  0  0  0  0  0  0  0  0  0
    8.4968  -14.3213   24.2850 C   0  0  1  0  0  0  0  0  0  0  0  0
    7.2379  -13.8602   24.9215 C   0  0  0  0  0  0  0  0  0  0  0  0
    7.3373  -12.7177   25.8767 C   0  0  0  0  0  0  0  0  0  0  0  0
    5.9736  -12.4356   26.5214 C   0  0  0  0  0  0  0  0  0  0  0  0
    6.0009  -11.3262   27.5107 C   0  0  0  0  0  0  0  0  0  0  0  0
    4.7091  -11.0203   28.0734 N   0  0  0  0  0  0  0  0  0  0  0  0
    9.2499  -15.3749   24.9975 C   0  0  0  0  0  0  0  0  0  0  0  0
    9.3352  -15.3120   26.2797 O   0  0  0  0  0  0  0  0  0  0  0  0
    9.8998  -16.4737   24.4164 N   0  0  0  0  0  0  0  0  0  0  0  0
   10.6323  -17.4391   25.2444 C   0  0  0  0  0  0  0  0  0  0  0  0
   11.1405  -18.5596   24.4310 C   0  0  0  0  0  0  0  0  0  0  0  0
   11.1353  -19.8553   24.8905 O   0  0  0  0  0  0  0  0  0  0  0  0
   11.5840  -18.3089   23.2970 O   0  0  0  0  0  0  0  0  0  0  0  0
  1  2  1  0
  2  3  2  0
  4  2  1  0
  4  5  1  0
  6  7  1  1
  6  5  1  0
  6  8  1  0
  8  9  2  0
 10  8  1  0
 10 11  1  0
 11 17  1  0
 12 13  1  0
 11 12  1  1
 14 13  1  0
 15 14  1  0
 16 15  1  0
 17 18  2  0
 19 17  1  0
 19 20  1  0
 21 20  1  0
 21 22  1  0
 23 21  2  0
M  END
$$$$
