QKG.pdb
     RDKit          3D

 23 22  0  0  1  0  0  0  0  0999 V2000
    3.0318  -21.9291   21.8812 N   0  0  0  0  0  0  0  0  0  0  0  0
    3.9640  -22.1607   22.9557 C   0  0  0  0  0  0  0  0  0  0  0  0
    4.2868  -23.3449   23.1813 O   0  0  0  0  0  0  0  0  0  0  0  0
    4.4941  -21.0451   23.7360 C   0  0  0  0  0  0  0  0  0  0  0  0
    5.4217  -20.1299   23.0422 C   0  0  0  0  0  0  0  0  0  0  0  0
    6.3813  -19.3615   23.8489 C   0  0  2  0  0  0  0  0  0  0  0  0
    5.7577  -18.7121   25.0051 N   0  0  0  0  0  0  0  0  0  0  0  0
    7.3351  -18.4559   23.2128 C   0  0  0  0  0  0  0  0  0  0  0  0
    8.0327  -18.8384   22.2048 O   0  0  0  0  0  0  0  0  0  0  0  0
    7.5613  -17.1124   23.6315 N   0  0  0  0  0  0  0  0  0  0  0  0
    8.4183  -16.1565   22.9322 C   0  0  1  0  0  0  0  0  0  0  0  0
    7.6458  -14.9286   22.6193 C   0  0  0  0  0  0  0  0  0  0  0  0
    7.1138  -14.7948   21.2312 C   0  0  0  0  0  0  0  0  0  0  0  0
    7.8218  -13.6515   20.4918 C   0  0  0  0  0  0  0  0  0  0  0  0
    7.3206  -13.4365   19.1089 C   0  0  0  0  0  0  0  0  0  0  0  0
    7.9663  -12.3453   18.4221 N   0  0  0  0  0  0  0  0  0  0  0  0
    9.6711  -15.9724   23.6949 C   0  0  0  0  0  0  0  0  0  0  0  0
    9.5956  -15.6015   24.9245 O   0  0  0  0  0  0  0  0  0  0  0  0
   10.9753  -16.1662   23.2163 N   0  0  0  0  0  0  0  0  0  0  0  0
   12.1388  -15.8284   24.0445 C   0  0  0  0  0  0  0  0  0  0  0  0
   13.3944  -15.9840   23.2863 C   0  0  0  0  0  0  0  0  0  0  0  0
   14.6117  -16.1179   23.9112 O   0  0  0  0  0  0  0  0  0  0  0  0
   13.3339  -15.9925   22.0447 O   0  0  0  0  0  0  0  0  0  0  0  0
  1  2  1  0
  2  3  2  0
  4  2  1  0
  4  5  1  0
  6  7  1  1
  6  5  1  0
  6  8  1  0
  8  9  2  0
 10  8  1  0
 10 11  1  0
 11 17  1  0
 12 13  1  0
 11 12  1  1
 14 13  1  0
 15 14  1  0
 16 15  1  0
 17 18  2  0
 19 17  1  0
 19 20  1  0
 21 20  1  0
 21 22  1  0
 23 21  2  0
M  END
$$$$
