QKG.pdb
     RDKit          3D

 23 22  0  0  1  0  0  0  0  0999 V2000
    8.5970  -13.0824   17.1781 N   0  0  0  0  0  0  0  0  0  0  0  0
    7.7981  -14.2176   16.7904 C   0  0  0  0  0  0  0  0  0  0  0  0
    6.8484  -14.0028   16.0097 O   0  0  0  0  0  0  0  0  0  0  0  0
    8.1014  -15.5521   17.3020 C   0  0  0  0  0  0  0  0  0  0  0  0
    9.2716  -15.6721   18.1938 C   0  0  0  0  0  0  0  0  0  0  0  0
    9.0792  -16.2648   19.5256 C   0  0  2  0  0  0  0  0  0  0  0  0
    7.7975  -16.9632   19.6553 N   0  0  0  0  0  0  0  0  0  0  0  0
    9.3599  -15.4932   20.7341 C   0  0  0  0  0  0  0  0  0  0  0  0
   10.3634  -14.6935   20.7848 O   0  0  0  0  0  0  0  0  0  0  0  0
    8.5685  -15.5483   21.9182 N   0  0  0  0  0  0  0  0  0  0  0  0
    8.9079  -14.8869   23.1769 C   0  0  1  0  0  0  0  0  0  0  0  0
    7.6772  -14.3442   23.8040 C   0  0  0  0  0  0  0  0  0  0  0  0
    7.8518  -13.4762   25.0056 C   0  0  0  0  0  0  0  0  0  0  0  0
    6.4888  -13.0117   25.5360 C   0  0  0  0  0  0  0  0  0  0  0  0
    6.5840  -12.1189   26.7209 C   0  0  0  0  0  0  0  0  0  0  0  0
    5.3032  -11.7253   27.2537 N   0  0  0  0  0  0  0  0  0  0  0  0
    9.7243  -15.7992   24.0053 C   0  0  0  0  0  0  0  0  0  0  0  0
    9.1346  -16.7520   24.6375 O   0  0  0  0  0  0  0  0  0  0  0  0
   11.1146  -15.7453   24.1831 N   0  0  0  0  0  0  0  0  0  0  0  0
   11.7918  -16.6660   25.1040 C   0  0  0  0  0  0  0  0  0  0  0  0
   13.2407  -16.3952   25.1567 C   0  0  0  0  0  0  0  0  0  0  0  0
   14.0799  -17.0792   26.0040 O   0  0  0  0  0  0  0  0  0  0  0  0
   13.7024  -15.5185   24.4058 O   0  0  0  0  0  0  0  0  0  0  0  0
  1  2  1  0
  2  3  2  0
  4  2  1  0
  4  5  1  0
  6  7  1  1
  6  5  1  0
  6  8  1  0
  8  9  2  0
 10  8  1  0
 10 11  1  0
 11 17  1  0
 12 13  1  0
 11 12  1  1
 14 13  1  0
 15 14  1  0
 16 15  1  0
 17 18  2  0
 19 17  1  0
 19 20  1  0
 21 20  1  0
 21 22  1  0
 23 21  2  0
M  END
$$$$
