DTN.pdb
     RDKit          3D

 24 23  0  0  1  0  0  0  0  0999 V2000
   16.2470  -12.3060  -14.7357 N   0  0  0  0  0  0  0  0  0  0  0  0
   17.5779  -12.6843  -15.2227 C   0  0  1  0  0  0  0  0  0  0  0  0
   17.3480  -13.8807  -16.1048 C   0  0  0  0  0  0  0  0  0  0  0  0
   16.9093  -15.0952  -15.4405 C   0  0  0  0  0  0  0  0  0  0  0  0
   16.0593  -15.1202  -14.5329 O   0  0  0  0  0  0  0  0  0  0  0  0
   18.1711  -11.5436  -15.9720 C   0  0  0  0  0  0  0  0  0  0  0  0
   19.2116  -11.6724  -16.6258 O   0  0  0  0  0  0  0  0  0  0  0  0
   17.4726  -16.3190  -15.8398 O   0  0  0  0  0  0  0  0  0  0  0  0
   16.5825   -9.2681  -18.5859 C   0  0  0  0  0  0  0  0  0  0  0  0
   17.0342   -8.4174  -17.4232 C   0  0  1  0  0  0  0  0  0  0  0  0
   15.9359   -8.2671  -16.5330 O   0  0  0  0  0  0  0  0  0  0  0  0
   18.1629   -9.1389  -16.6715 C   0  0  2  0  0  0  0  0  0  0  0  0
   17.5583  -10.2719  -15.9582 N   0  0  0  0  0  0  0  0  0  0  0  0
   18.7317   -8.2174  -15.6592 C   0  0  0  0  0  0  0  0  0  0  0  0
   18.2139   -8.2438  -14.4796 O   0  0  0  0  0  0  0  0  0  0  0  0
   21.1978   -4.7137  -13.0336 N   0  0  0  0  0  0  0  0  0  0  0  0
   22.1322   -5.1654  -14.0246 C   0  0  0  0  0  0  0  0  0  0  0  0
   23.3041   -4.7453  -13.9985 O   0  0  0  0  0  0  0  0  0  0  0  0
   21.6382   -6.1177  -15.0327 C   0  0  0  0  0  0  0  0  0  0  0  0
   20.1847   -6.4073  -14.8229 C   0  0  2  0  0  0  0  0  0  0  0  0
   19.7942   -7.3248  -15.8988 N   0  0  0  0  0  0  0  0  0  0  0  0
   19.3983   -5.1577  -14.9008 C   0  0  0  0  0  0  0  0  0  0  0  0
   19.0637   -4.4133  -13.7958 O   0  0  0  0  0  0  0  0  0  0  0  0
   19.0032   -4.7348  -16.0219 O   0  0  0  0  0  0  0  0  0  0  0  0
  2  1  1  6
  2  6  1  0
  3  2  1  0
  3  4  1  0
  4  8  1  0
  4  5  2  0
  6  7  2  0
 10  9  1  6
 10 12  1  0
 10 11  1  0
 12 14  1  0
 13  6  1  0
 12 13  1  1
 14 15  2  0
 16 17  1  0
 17 18  2  0
 19 17  1  0
 20 19  1  6
 20 22  1  0
 21 20  1  0
 21 14  1  0
 22 24  2  0
 22 23  1  0
M  END
$$$$
