DTN.pdb
     RDKit          3D

 24 23  0  0  1  0  0  0  0  0999 V2000
   19.9174  -11.4473  -17.8260 N   0  0  0  0  0  0  0  0  0  0  0  0
   19.1917  -11.4797  -16.5517 C   0  0  1  0  0  0  0  0  0  0  0  0
   19.0861  -12.9375  -16.1968 C   0  0  0  0  0  0  0  0  0  0  0  0
   18.2132  -13.7419  -17.0331 C   0  0  0  0  0  0  0  0  0  0  0  0
   17.3969  -13.2659  -17.8419 O   0  0  0  0  0  0  0  0  0  0  0  0
   19.9536  -10.7100  -15.5311 C   0  0  0  0  0  0  0  0  0  0  0  0
   19.7008  -10.8106  -14.3258 O   0  0  0  0  0  0  0  0  0  0  0  0
   18.2878  -15.1412  -16.9298 O   0  0  0  0  0  0  0  0  0  0  0  0
   23.5834  -10.7155  -14.8244 C   0  0  0  0  0  0  0  0  0  0  0  0
   23.2286   -9.2865  -15.1587 C   0  0  1  0  0  0  0  0  0  0  0  0
   23.4786   -9.0818  -16.5432 O   0  0  0  0  0  0  0  0  0  0  0  0
   21.7307   -9.0601  -14.9052 C   0  0  2  0  0  0  0  0  0  0  0  0
   20.9949   -9.8364  -15.9123 N   0  0  0  0  0  0  0  0  0  0  0  0
   21.4180   -7.6271  -15.1201 C   0  0  0  0  0  0  0  0  0  0  0  0
   21.3206   -7.2204  -16.3389 O   0  0  0  0  0  0  0  0  0  0  0  0
   18.9900   -5.5808  -16.0806 N   0  0  0  0  0  0  0  0  0  0  0  0
   18.6775   -4.9897  -14.8109 C   0  0  0  0  0  0  0  0  0  0  0  0
   17.5054   -4.6480  -14.5659 O   0  0  0  0  0  0  0  0  0  0  0  0
   19.7845   -4.8197  -13.8556 C   0  0  0  0  0  0  0  0  0  0  0  0
   21.0782   -5.2758  -14.4546 C   0  0  2  0  0  0  0  0  0  0  0  0
   21.2189   -6.6894  -14.0886 N   0  0  0  0  0  0  0  0  0  0  0  0
   22.2018   -4.4873  -13.9052 C   0  0  0  0  0  0  0  0  0  0  0  0
   22.4823   -3.2036  -14.3059 O   0  0  0  0  0  0  0  0  0  0  0  0
   22.9532   -4.9944  -13.0277 O   0  0  0  0  0  0  0  0  0  0  0  0
  2  1  1  6
  2  6  1  0
  3  2  1  0
  3  4  1  0
  4  8  1  0
  4  5  2  0
  6  7  2  0
 10  9  1  6
 10 12  1  0
 10 11  1  0
 12 14  1  0
 13  6  1  0
 12 13  1  6
 14 15  2  0
 16 17  1  0
 17 18  2  0
 19 17  1  0
 20 19  1  1
 20 22  1  0
 21 20  1  0
 21 14  1  0
 22 24  2  0
 22 23  1  0
M  END
$$$$
