DTN.pdb
     RDKit          3D

 24 23  0  0  1  0  0  0  0  0999 V2000
   23.5264  -19.7047  -15.3734 N   0  0  0  0  0  0  0  0  0  0  0  0
   23.0126  -18.6471  -16.2503 C   0  0  1  0  0  0  0  0  0  0  0  0
   21.6301  -19.0953  -16.6380 C   0  0  0  0  0  0  0  0  0  0  0  0
   21.5399  -20.3520  -17.3600 C   0  0  0  0  0  0  0  0  0  0  0  0
   20.9619  -21.3626  -16.9223 O   0  0  0  0  0  0  0  0  0  0  0  0
   22.9941  -17.3573  -15.5082 C   0  0  0  0  0  0  0  0  0  0  0  0
   22.6601  -17.3014  -14.3199 O   0  0  0  0  0  0  0  0  0  0  0  0
   22.1377  -20.4412  -18.6285 O   0  0  0  0  0  0  0  0  0  0  0  0
   25.8640  -15.2180  -14.8469 C   0  0  0  0  0  0  0  0  0  0  0  0
   24.8764  -14.3483  -15.5871 C   0  0  1  0  0  0  0  0  0  0  0  0
   25.1807  -14.4166  -16.9742 O   0  0  0  0  0  0  0  0  0  0  0  0
   23.4574  -14.8994  -15.3817 C   0  0  2  0  0  0  0  0  0  0  0  0
   23.3602  -16.1513  -16.1442 N   0  0  0  0  0  0  0  0  0  0  0  0
   22.4822  -13.9420  -15.9560 C   0  0  0  0  0  0  0  0  0  0  0  0
   22.0511  -14.1812  -17.1465 O   0  0  0  0  0  0  0  0  0  0  0  0
   19.1844  -10.3417  -17.0331 N   0  0  0  0  0  0  0  0  0  0  0  0
   18.7511  -11.1621  -15.9384 C   0  0  0  0  0  0  0  0  0  0  0  0
   17.5721  -11.0863  -15.5449 O   0  0  0  0  0  0  0  0  0  0  0  0
   19.7475  -12.0621  -15.3347 C   0  0  0  0  0  0  0  0  0  0  0  0
   21.0743  -11.9167  -16.0120 C   0  0  2  0  0  0  0  0  0  0  0  0
   21.9973  -12.7996  -15.2906 N   0  0  0  0  0  0  0  0  0  0  0  0
   21.5367  -10.5144  -15.9345 C   0  0  0  0  0  0  0  0  0  0  0  0
   21.0114   -9.5087  -16.7089 O   0  0  0  0  0  0  0  0  0  0  0  0
   22.4557  -10.2012  -15.1288 O   0  0  0  0  0  0  0  0  0  0  0  0
  2  1  1  1
  2  6  1  0
  3  2  1  0
  3  4  1  0
  4  8  1  0
  4  5  2  0
  6  7  2  0
 10  9  1  1
 10 12  1  0
 10 11  1  0
 12 14  1  0
 13  6  1  0
 12 13  1  6
 14 15  2  0
 16 17  1  0
 17 18  2  0
 19 17  1  0
 20 19  1  1
 20 22  1  0
 21 20  1  0
 21 14  1  0
 22 24  2  0
 22 23  1  0
M  END
$$$$
