DTN.pdb
     RDKit          3D

 24 23  0  0  1  0  0  0  0  0999 V2000
   18.3803  -12.5860  -16.1624 N   0  0  0  0  0  0  0  0  0  0  0  0
   17.9950  -11.1995  -15.8785 C   0  0  1  0  0  0  0  0  0  0  0  0
   16.5949  -11.2843  -15.3352 C   0  0  0  0  0  0  0  0  0  0  0  0
   15.5709  -11.7323  -16.2622 C   0  0  0  0  0  0  0  0  0  0  0  0
   14.9171  -12.7806  -16.1188 O   0  0  0  0  0  0  0  0  0  0  0  0
   18.9432  -10.6168  -14.8907 C   0  0  0  0  0  0  0  0  0  0  0  0
   19.2207  -11.2033  -13.8392 O   0  0  0  0  0  0  0  0  0  0  0  0
   15.2954  -10.9416  -17.3906 O   0  0  0  0  0  0  0  0  0  0  0  0
   22.4934  -10.0770  -15.1760 C   0  0  0  0  0  0  0  0  0  0  0  0
   21.8830   -8.7091  -14.9861 C   0  0  1  0  0  0  0  0  0  0  0  0
   21.5795   -8.1790  -16.2698 O   0  0  0  0  0  0  0  0  0  0  0  0
   20.5693   -8.8413  -14.2012 C   0  0  2  0  0  0  0  0  0  0  0  0
   19.5580   -9.3683  -15.1273 N   0  0  0  0  0  0  0  0  0  0  0  0
   20.1297   -7.4931  -13.7693 C   0  0  0  0  0  0  0  0  0  0  0  0
   19.3498   -6.8439  -14.5634 O   0  0  0  0  0  0  0  0  0  0  0  0
   17.7944   -6.4948  -11.1440 N   0  0  0  0  0  0  0  0  0  0  0  0
   18.7618   -5.9724  -10.2218 C   0  0  0  0  0  0  0  0  0  0  0  0
   18.5346   -6.0273   -8.9987 O   0  0  0  0  0  0  0  0  0  0  0  0
   19.9893   -5.3912  -10.7897 C   0  0  0  0  0  0  0  0  0  0  0  0
   20.0030   -5.5302  -12.2799 C   0  0  2  0  0  0  0  0  0  0  0  0
   20.5027   -6.8813  -12.5571 N   0  0  0  0  0  0  0  0  0  0  0  0
   20.8977   -4.5172  -12.8795 C   0  0  0  0  0  0  0  0  0  0  0  0
   20.4709   -3.2640  -13.2460 O   0  0  0  0  0  0  0  0  0  0  0  0
   22.1135   -4.7921  -13.0749 O   0  0  0  0  0  0  0  0  0  0  0  0
  2  1  1  1
  2  6  1  0
  3  2  1  0
  3  4  1  0
  4  8  1  0
  4  5  2  0
  6  7  2  0
 10  9  1  6
 10 12  1  0
 10 11  1  0
 12 14  1  0
 13  6  1  0
 12 13  1  6
 14 15  2  0
 16 17  1  0
 17 18  2  0
 19 17  1  0
 20 19  1  1
 20 22  1  0
 21 20  1  0
 21 14  1  0
 22 24  2  0
 22 23  1  0
M  END
$$$$
