DTN.pdb
     RDKit          3D

 24 23  0  0  1  0  0  0  0  0999 V2000
   26.5754  -22.4440  -17.0177 N   0  0  0  0  0  0  0  0  0  0  0  0
   27.4837  -21.6320  -16.2009 C   0  0  1  0  0  0  0  0  0  0  0  0
   28.7252  -21.4721  -17.0351 C   0  0  0  0  0  0  0  0  0  0  0  0
   29.4907  -22.6799  -17.2876 C   0  0  0  0  0  0  0  0  0  0  0  0
   29.1250  -23.8172  -16.9414 O   0  0  0  0  0  0  0  0  0  0  0  0
   26.8404  -20.3242  -15.9006 C   0  0  0  0  0  0  0  0  0  0  0  0
   27.4026  -19.4736  -15.2027 O   0  0  0  0  0  0  0  0  0  0  0  0
   30.7181  -22.5673  -17.9623 O   0  0  0  0  0  0  0  0  0  0  0  0
   26.2249  -17.3297  -17.6427 C   0  0  0  0  0  0  0  0  0  0  0  0
   24.8568  -17.9040  -17.3629 C   0  0  1  0  0  0  0  0  0  0  0  0
   24.5124  -18.7681  -18.4381 O   0  0  0  0  0  0  0  0  0  0  0  0
   24.9082  -18.7403  -16.0756 C   0  0  2  0  0  0  0  0  0  0  0  0
   25.5599  -20.0143  -16.4079 N   0  0  0  0  0  0  0  0  0  0  0  0
   23.5229  -19.0395  -15.6412 C   0  0  0  0  0  0  0  0  0  0  0  0
   23.1047  -20.2488  -15.7931 O   0  0  0  0  0  0  0  0  0  0  0  0
   18.7956  -19.0388  -13.9290 N   0  0  0  0  0  0  0  0  0  0  0  0
   19.2523  -17.7048  -13.6618 C   0  0  0  0  0  0  0  0  0  0  0  0
   18.4880  -16.8958  -13.1033 O   0  0  0  0  0  0  0  0  0  0  0  0
   20.6250  -17.3672  -14.0727 C   0  0  0  0  0  0  0  0  0  0  0  0
   21.2824  -18.5347  -14.7399 C   0  0  2  0  0  0  0  0  0  0  0  0
   22.6421  -18.0979  -15.0751 N   0  0  0  0  0  0  0  0  0  0  0  0
   20.5436  -18.9052  -15.9658 C   0  0  0  0  0  0  0  0  0  0  0  0
   19.6335  -19.9333  -16.0098 O   0  0  0  0  0  0  0  0  0  0  0  0
   20.7408  -18.2640  -17.0343 O   0  0  0  0  0  0  0  0  0  0  0  0
  2  1  1  6
  2  6  1  0
  3  2  1  0
  3  4  1  0
  4  8  1  0
  4  5  2  0
  6  7  2  0
 10  9  1  6
 10 12  1  0
 10 11  1  0
 12 14  1  0
 13  6  1  0
 12 13  1  6
 14 15  2  0
 16 17  1  0
 17 18  2  0
 19 17  1  0
 20 19  1  6
 20 22  1  0
 21 20  1  0
 21 14  1  0
 22 24  2  0
 22 23  1  0
M  END
$$$$
