DTN.pdb
     RDKit          3D

 24 23  0  0  1  0  0  0  0  0999 V2000
   18.9493  -11.0027  -17.2384 N   0  0  0  0  0  0  0  0  0  0  0  0
   18.1929  -10.7375  -16.0099 C   0  0  1  0  0  0  0  0  0  0  0  0
   17.8029  -12.0933  -15.4883 C   0  0  0  0  0  0  0  0  0  0  0  0
   16.8183  -12.8235  -16.2668 C   0  0  0  0  0  0  0  0  0  0  0  0
   16.1869  -12.3338  -17.2200 O   0  0  0  0  0  0  0  0  0  0  0  0
   19.0558   -9.9968  -15.0501 C   0  0  0  0  0  0  0  0  0  0  0  0
   18.7961   -9.9625  -13.8426 O   0  0  0  0  0  0  0  0  0  0  0  0
   16.5566  -14.1626  -15.9309 O   0  0  0  0  0  0  0  0  0  0  0  0
   22.6447  -10.4173  -14.1918 C   0  0  0  0  0  0  0  0  0  0  0  0
   22.4893   -9.0214  -14.7460 C   0  0  1  0  0  0  0  0  0  0  0  0
   22.7529   -9.0688  -16.1422 O   0  0  0  0  0  0  0  0  0  0  0  0
   21.0398   -8.5528  -14.5492 C   0  0  2  0  0  0  0  0  0  0  0  0
   20.2047   -9.3068  -15.4938 N   0  0  0  0  0  0  0  0  0  0  0  0
   20.9460   -7.1174  -14.9069 C   0  0  0  0  0  0  0  0  0  0  0  0
   20.7987   -6.8281  -16.1540 O   0  0  0  0  0  0  0  0  0  0  0  0
   18.5348   -5.0363  -15.4547 N   0  0  0  0  0  0  0  0  0  0  0  0
   18.6202   -4.1447  -14.3335 C   0  0  0  0  0  0  0  0  0  0  0  0
   17.5917   -3.5744  -13.9243 O   0  0  0  0  0  0  0  0  0  0  0  0
   19.9461   -3.9547  -13.7226 C   0  0  0  0  0  0  0  0  0  0  0  0
   20.9979   -4.6848  -14.4979 C   0  0  2  0  0  0  0  0  0  0  0  0
   21.0034   -6.0578  -13.9812 N   0  0  0  0  0  0  0  0  0  0  0  0
   22.3176   -4.0513  -14.2905 C   0  0  0  0  0  0  0  0  0  0  0  0
   22.7968   -3.0407  -15.0881 O   0  0  0  0  0  0  0  0  0  0  0  0
   23.0575   -4.4394  -13.3451 O   0  0  0  0  0  0  0  0  0  0  0  0
  2  1  1  6
  2  6  1  0
  3  2  1  0
  3  4  1  0
  4  8  1  0
  4  5  2  0
  6  7  2  0
 10  9  1  6
 10 12  1  0
 10 11  1  0
 12 14  1  0
 13  6  1  0
 12 13  1  6
 14 15  2  0
 16 17  1  0
 17 18  2  0
 19 17  1  0
 20 19  1  1
 20 22  1  0
 21 20  1  0
 21 14  1  0
 22 24  2  0
 22 23  1  0
M  END
$$$$
