DTN.pdb
     RDKit          3D

 24 23  0  0  1  0  0  0  0  0999 V2000
   16.4565  -12.0877  -15.5829 N   0  0  0  0  0  0  0  0  0  0  0  0
   17.8456  -12.5204  -15.3961 C   0  0  1  0  0  0  0  0  0  0  0  0
   17.9363  -13.8565  -16.0811 C   0  0  0  0  0  0  0  0  0  0  0  0
   17.1860  -14.9423  -15.4756 C   0  0  0  0  0  0  0  0  0  0  0  0
   15.9438  -14.9854  -15.4305 O   0  0  0  0  0  0  0  0  0  0  0  0
   18.7604  -11.5171  -16.0052 C   0  0  0  0  0  0  0  0  0  0  0  0
   19.9566  -11.7640  -16.1917 O   0  0  0  0  0  0  0  0  0  0  0  0
   17.8964  -16.0118  -14.9047 O   0  0  0  0  0  0  0  0  0  0  0  0
   18.1925   -9.5804  -19.2689 C   0  0  0  0  0  0  0  0  0  0  0  0
   18.4076   -8.5881  -18.1515 C   0  0  1  0  0  0  0  0  0  0  0  0
   17.1336   -8.2042  -17.6506 O   0  0  0  0  0  0  0  0  0  0  0  0
   19.1850   -9.2636  -17.0119 C   0  0  2  0  0  0  0  0  0  0  0  0
   18.2853  -10.2449  -16.3908 N   0  0  0  0  0  0  0  0  0  0  0  0
   19.5202   -8.2447  -15.9888 C   0  0  0  0  0  0  0  0  0  0  0  0
   18.7019   -8.1064  -15.0030 O   0  0  0  0  0  0  0  0  0  0  0  0
   22.7872   -5.6140  -12.6187 N   0  0  0  0  0  0  0  0  0  0  0  0
   22.6364   -5.0907  -13.9464 C   0  0  0  0  0  0  0  0  0  0  0  0
   22.7853   -3.8705  -14.1447 O   0  0  0  0  0  0  0  0  0  0  0  0
   22.3079   -6.0482  -15.0152 C   0  0  0  0  0  0  0  0  0  0  0  0
   20.8823   -6.4924  -14.9110 C   0  0  2  0  0  0  0  0  0  0  0  0
   20.6661   -7.4269  -16.0210 N   0  0  0  0  0  0  0  0  0  0  0  0
   19.9751   -5.3312  -15.0314 C   0  0  0  0  0  0  0  0  0  0  0  0
   19.4655   -4.6631  -13.9446 O   0  0  0  0  0  0  0  0  0  0  0  0
   19.6372   -4.9157  -16.1738 O   0  0  0  0  0  0  0  0  0  0  0  0
  2  1  1  6
  2  6  1  0
  3  2  1  0
  3  4  1  0
  4  8  1  0
  4  5  2  0
  6  7  2  0
 10  9  1  6
 10 12  1  0
 10 11  1  0
 12 14  1  0
 13  6  1  0
 12 13  1  1
 14 15  2  0
 16 17  1  0
 17 18  2  0
 19 17  1  0
 20 19  1  6
 20 22  1  0
 21 20  1  0
 21 14  1  0
 22 24  2  0
 22 23  1  0
M  END
$$$$
