DTN.pdb
     RDKit          3D

 24 23  0  0  1  0  0  0  0  0999 V2000
   18.9320  -12.8692  -15.7876 N   0  0  0  0  0  0  0  0  0  0  0  0
   18.8233  -11.5032  -16.3110 C   0  0  1  0  0  0  0  0  0  0  0  0
   17.3517  -11.1921  -16.2940 C   0  0  0  0  0  0  0  0  0  0  0  0
   16.5165  -11.9826  -17.1806 C   0  0  0  0  0  0  0  0  0  0  0  0
   16.8662  -12.3516  -18.3158 O   0  0  0  0  0  0  0  0  0  0  0  0
   19.5998  -10.5788  -15.4409 C   0  0  0  0  0  0  0  0  0  0  0  0
   19.4246  -10.5437  -14.2183 O   0  0  0  0  0  0  0  0  0  0  0  0
   15.2364  -12.3575  -16.7389 O   0  0  0  0  0  0  0  0  0  0  0  0
   23.2461  -10.5861  -14.9694 C   0  0  0  0  0  0  0  0  0  0  0  0
   22.8836   -9.2169  -15.4924 C   0  0  1  0  0  0  0  0  0  0  0  0
   22.9810   -9.2458  -16.9105 O   0  0  0  0  0  0  0  0  0  0  0  0
   21.4280   -8.8975  -15.1201 C   0  0  2  0  0  0  0  0  0  0  0  0
   20.5663   -9.7088  -15.9904 N   0  0  0  0  0  0  0  0  0  0  0  0
   21.1578   -7.4707  -15.4175 C   0  0  0  0  0  0  0  0  0  0  0  0
   20.6489   -7.1936  -16.5684 O   0  0  0  0  0  0  0  0  0  0  0  0
   20.7870   -2.4654  -15.5615 N   0  0  0  0  0  0  0  0  0  0  0  0
   20.9427   -2.7624  -14.1662 C   0  0  0  0  0  0  0  0  0  0  0  0
   20.8644   -1.8419  -13.3313 O   0  0  0  0  0  0  0  0  0  0  0  0
   21.1909   -4.1662  -13.7993 C   0  0  0  0  0  0  0  0  0  0  0  0
   21.2171   -5.0370  -15.0165 C   0  0  2  0  0  0  0  0  0  0  0  0
   21.4154   -6.4071  -14.5313 N   0  0  0  0  0  0  0  0  0  0  0  0
   22.3297   -4.6394  -15.9054 C   0  0  0  0  0  0  0  0  0  0  0  0
   23.5269   -5.3113  -15.9532 O   0  0  0  0  0  0  0  0  0  0  0  0
   22.1991   -3.6397  -16.6639 O   0  0  0  0  0  0  0  0  0  0  0  0
  2  1  1  1
  2  6  1  0
  3  2  1  0
  3  4  1  0
  4  8  1  0
  4  5  2  0
  6  7  2  0
 10  9  1  1
 10 12  1  0
 10 11  1  0
 12 14  1  0
 13  6  1  0
 12 13  1  6
 14 15  2  0
 16 17  1  0
 17 18  2  0
 19 17  1  0
 20 19  1  1
 20 22  1  0
 21 20  1  0
 21 14  1  0
 22 24  2  0
 22 23  1  0
M  END
$$$$
