DTN.pdb
     RDKit          3D

 24 23  0  0  1  0  0  0  0  0999 V2000
   17.3437  -13.8936  -16.0296 N   0  0  0  0  0  0  0  0  0  0  0  0
   17.1476  -12.4408  -16.0807 C   0  0  1  0  0  0  0  0  0  0  0  0
   16.3981  -12.1011  -14.8216 C   0  0  0  0  0  0  0  0  0  0  0  0
   15.0638  -12.6602  -14.6963 C   0  0  0  0  0  0  0  0  0  0  0  0
   14.4988  -13.3123  -15.5922 O   0  0  0  0  0  0  0  0  0  0  0  0
   18.4729  -11.7665  -16.1410 C   0  0  0  0  0  0  0  0  0  0  0  0
   19.4553  -12.2200  -15.5445 O   0  0  0  0  0  0  0  0  0  0  0  0
   14.3619  -12.4579  -13.4960 O   0  0  0  0  0  0  0  0  0  0  0  0
   20.2492  -10.7743  -19.3706 C   0  0  0  0  0  0  0  0  0  0  0  0
   20.1270   -9.5466  -18.5003 C   0  0  1  0  0  0  0  0  0  0  0  0
   18.9461   -8.8519  -18.8800 O   0  0  0  0  0  0  0  0  0  0  0  0
   19.9782   -9.9746  -17.0326 C   0  0  2  0  0  0  0  0  0  0  0  0
   18.6481  -10.5808  -16.8869 N   0  0  0  0  0  0  0  0  0  0  0  0
   20.0230   -8.7677  -16.1731 C   0  0  0  0  0  0  0  0  0  0  0  0
   18.8994   -8.3107  -15.7381 O   0  0  0  0  0  0  0  0  0  0  0  0
   22.2411   -5.9156  -11.9100 N   0  0  0  0  0  0  0  0  0  0  0  0
   22.4262   -5.6582  -13.3096 C   0  0  0  0  0  0  0  0  0  0  0  0
   22.5882   -4.4873  -13.7011 O   0  0  0  0  0  0  0  0  0  0  0  0
   22.4131   -6.8181  -14.2159 C   0  0  0  0  0  0  0  0  0  0  0  0
   21.0889   -6.9407  -14.9030 C   0  0  2  0  0  0  0  0  0  0  0  0
   21.2028   -8.0950  -15.8011 N   0  0  0  0  0  0  0  0  0  0  0  0
   20.7985   -5.7139  -15.6755 C   0  0  0  0  0  0  0  0  0  0  0  0
   20.0343   -4.6833  -15.1848 O   0  0  0  0  0  0  0  0  0  0  0  0
   21.2613   -5.5836  -16.8419 O   0  0  0  0  0  0  0  0  0  0  0  0
  2  1  1  1
  2  6  1  0
  3  2  1  0
  3  4  1  0
  4  8  1  0
  4  5  2  0
  6  7  2  0
 10  9  1  6
 10 12  1  0
 10 11  1  0
 12 14  1  0
 13  6  1  0
 12 13  1  6
 14 15  2  0
 16 17  1  0
 17 18  2  0
 19 17  1  0
 20 19  1  6
 20 22  1  0
 21 20  1  0
 21 14  1  0
 22 24  2  0
 22 23  1  0
M  END
$$$$
