QWW.pdb
     RDKit          3D

 38 41  0  0  1  0  0  0  0  0999 V2000
   27.3041  -18.7257  -17.4936 N   0  0  0  0  0  0  0  0  0  0  0  0
   28.4141  -18.0772  -16.8740 C   0  0  0  0  0  0  0  0  0  0  0  0
   29.2284  -17.5120  -17.6294 O   0  0  0  0  0  0  0  0  0  0  0  0
   28.5195  -18.1169  -15.4106 C   0  0  0  0  0  0  0  0  0  0  0  0
   27.4307  -18.9010  -14.7244 C   0  0  0  0  0  0  0  0  0  0  0  0
   28.0211  -19.9503  -13.8200 C   0  0  2  0  0  0  0  0  0  0  0  0
   28.8942  -20.8263  -14.5811 N   0  0  0  0  0  0  0  0  0  0  0  0
   27.0029  -20.6871  -13.0558 C   0  0  0  0  0  0  0  0  0  0  0  0
   26.4292  -21.6771  -13.5769 O   0  0  0  0  0  0  0  0  0  0  0  0
   26.5985  -20.3571  -11.7297 N   0  0  0  0  0  0  0  0  0  0  0  0
   25.6222  -21.0992  -10.9642 C   0  0  1  0  0  0  0  0  0  0  0  0
   25.8099  -20.9186   -9.4515 C   0  0  0  0  0  0  0  0  0  0  0  0
   27.1879  -21.0155   -9.0036 C   0  0  0  0  0  0  0  0  0  0  0  0
   28.2390  -21.6597   -9.6284 C   0  0  0  0  0  0  0  0  0  0  0  0
   29.3584  -21.5437   -8.8864 N   0  0  0  0  0  0  0  0  0  0  0  0
   29.0703  -20.8396   -7.7896 C   0  0  0  0  0  0  0  0  0  0  0  0
   29.8747  -20.4582   -6.7465 C   0  0  0  0  0  0  0  0  0  0  0  0
   29.3274  -19.7140   -5.7204 C   0  0  0  0  0  0  0  0  0  0  0  0
   28.0158  -19.3613   -5.7339 C   0  0  0  0  0  0  0  0  0  0  0  0
   27.2287  -19.7556   -6.7895 C   0  0  0  0  0  0  0  0  0  0  0  0
   27.7228  -20.5010   -7.8435 C   0  0  0  0  0  0  0  0  0  0  0  0
   24.2459  -20.6529  -11.3024 C   0  0  0  0  0  0  0  0  0  0  0  0
   23.8656  -19.4748  -10.9366 O   0  0  0  0  0  0  0  0  0  0  0  0
   23.2836  -21.4047  -12.0057 N   0  0  0  0  0  0  0  0  0  0  0  0
   22.0247  -20.7740  -12.4543 C   0  0  1  0  0  0  0  0  0  0  0  0
   22.2830  -20.4187  -13.9158 C   0  0  0  0  0  0  0  0  0  0  0  0
   21.1645  -19.7251  -14.5552 C   0  0  0  0  0  0  0  0  0  0  0  0
   20.4790  -18.6013  -14.2095 C   0  0  0  0  0  0  0  0  0  0  0  0
   19.5300  -18.3727  -15.1467 N   0  0  0  0  0  0  0  0  0  0  0  0
   19.5748  -19.3204  -16.1025 C   0  0  0  0  0  0  0  0  0  0  0  0
   18.8205  -19.5069  -17.2510 C   0  0  0  0  0  0  0  0  0  0  0  0
   19.1164  -20.5851  -18.0430 C   0  0  0  0  0  0  0  0  0  0  0  0
   20.1295  -21.4477  -17.7015 C   0  0  0  0  0  0  0  0  0  0  0  0
   20.8791  -21.2627  -16.5602 C   0  0  0  0  0  0  0  0  0  0  0  0
   20.5948  -20.1753  -15.7444 C   0  0  0  0  0  0  0  0  0  0  0  0
   20.9842  -21.8195  -12.4285 C   0  0  0  0  0  0  0  0  0  0  0  0
   21.2120  -23.0534  -12.5967 O   0  0  0  0  0  0  0  0  0  0  0  0
   19.6346  -21.5085  -12.2086 O   0  0  0  0  0  0  0  0  0  0  0  0
  2  1  1  0
  2  4  1  0
  3  2  2  0
  5  4  1  0
  6  7  1  6
  6  5  1  0
  8  6  1  0
  9  8  2  0
 10  8  1  0
 11 10  1  0
 11 22  1  0
 11 12  1  1
 13 21  1  0
 13 12  1  0
 14 13  2  0
 15 14  1  0
 15 16  1  0
 16 21  2  0
 17 16  1  0
 17 18  2  0
 18 19  1  0
 19 20  2  0
 21 20  1  0
 22 24  1  0
 23 22  2  0
 24 25  1  0
 25 26  1  6
 25 36  1  0
 27 35  1  0
 27 26  1  0
 28 27  2  0
 29 28  1  0
 29 30  1  0
 30 35  2  0
 31 30  1  0
 31 32  2  0
 32 33  1  0
 33 34  2  0
 35 34  1  0
 36 38  1  0
 37 36  2  0
M  END
$$$$
