QWW.pdb
     RDKit          3D

 38 41  0  0  1  0  0  0  0  0999 V2000
   28.1020  -17.0732  -14.7493 N   0  0  0  0  0  0  0  0  0  0  0  0
   29.0003  -17.4484  -15.7929 C   0  0  0  0  0  0  0  0  0  0  0  0
   29.8497  -16.6027  -16.1346 O   0  0  0  0  0  0  0  0  0  0  0  0
   28.8670  -18.7854  -16.3835 C   0  0  0  0  0  0  0  0  0  0  0  0
   27.7625  -19.6243  -15.7937 C   0  0  0  0  0  0  0  0  0  0  0  0
   28.2460  -20.3536  -14.5682 C   0  0  2  0  0  0  0  0  0  0  0  0
   29.4016  -21.1681  -14.8998 N   0  0  0  0  0  0  0  0  0  0  0  0
   27.1829  -21.1205  -13.9009 C   0  0  0  0  0  0  0  0  0  0  0  0
   26.4865  -21.9281  -14.5669 O   0  0  0  0  0  0  0  0  0  0  0  0
   26.8659  -21.0168  -12.5154 N   0  0  0  0  0  0  0  0  0  0  0  0
   25.8313  -21.7799  -11.8542 C   0  0  1  0  0  0  0  0  0  0  0  0
   26.2303  -22.1875  -10.4291 C   0  0  0  0  0  0  0  0  0  0  0  0
   26.4406  -21.0715   -9.5240 C   0  0  0  0  0  0  0  0  0  0  0  0
   25.6601  -19.9404   -9.3773 C   0  0  0  0  0  0  0  0  0  0  0  0
   26.1997  -19.1239   -8.4503 N   0  0  0  0  0  0  0  0  0  0  0  0
   27.3152  -19.6894   -7.9837 C   0  0  0  0  0  0  0  0  0  0  0  0
   28.1995  -19.2484   -7.0328 C   0  0  0  0  0  0  0  0  0  0  0  0
   29.2884  -20.0371   -6.7186 C   0  0  0  0  0  0  0  0  0  0  0  0
   29.4898  -21.2304   -7.3354 C   0  0  0  0  0  0  0  0  0  0  0  0
   28.5904  -21.6513   -8.2858 C   0  0  0  0  0  0  0  0  0  0  0  0
   27.4831  -20.9036   -8.6400 C   0  0  0  0  0  0  0  0  0  0  0  0
   24.5781  -20.9872  -11.7604 C   0  0  0  0  0  0  0  0  0  0  0  0
   24.6070  -19.8453  -11.1590 O   0  0  0  0  0  0  0  0  0  0  0  0
   23.3227  -21.3630  -12.2785 N   0  0  0  0  0  0  0  0  0  0  0  0
   22.1392  -20.5039  -12.0660 C   0  0  1  0  0  0  0  0  0  0  0  0
   22.0934  -19.6149  -13.3056 C   0  0  0  0  0  0  0  0  0  0  0  0
   22.3431  -20.3379  -14.5529 C   0  0  0  0  0  0  0  0  0  0  0  0
   21.8728  -21.5264  -15.0205 C   0  0  0  0  0  0  0  0  0  0  0  0
   22.4073  -21.7476  -16.2438 N   0  0  0  0  0  0  0  0  0  0  0  0
   23.2190  -20.7314  -16.5933 C   0  0  0  0  0  0  0  0  0  0  0  0
   23.9741  -20.5060  -17.7342 C   0  0  0  0  0  0  0  0  0  0  0  0
   24.7080  -19.3507  -17.7982 C   0  0  0  0  0  0  0  0  0  0  0  0
   24.6899  -18.4513  -16.7599 C   0  0  0  0  0  0  0  0  0  0  0  0
   23.9398  -18.6752  -15.6260 C   0  0  0  0  0  0  0  0  0  0  0  0
   23.1886  -19.8403  -15.5423 C   0  0  0  0  0  0  0  0  0  0  0  0
   20.9547  -21.3822  -12.1053 C   0  0  0  0  0  0  0  0  0  0  0  0
   20.9962  -22.6206  -12.3650 O   0  0  0  0  0  0  0  0  0  0  0  0
   19.6663  -20.8912  -11.8494 O   0  0  0  0  0  0  0  0  0  0  0  0
  2  1  1  0
  2  4  1  0
  3  2  2  0
  5  4  1  0
  6  7  1  6
  6  5  1  0
  8  6  1  0
  9  8  2  0
 10  8  1  0
 11 10  1  0
 11 22  1  0
 11 12  1  1
 13 21  1  0
 13 12  1  0
 14 13  2  0
 15 14  1  0
 15 16  1  0
 16 21  2  0
 17 16  1  0
 17 18  2  0
 18 19  1  0
 19 20  2  0
 21 20  1  0
 22 24  1  0
 23 22  2  0
 24 25  1  0
 25 26  1  6
 25 36  1  0
 27 35  1  0
 27 26  1  0
 28 27  2  0
 29 28  1  0
 29 30  1  0
 30 35  2  0
 31 30  1  0
 31 32  2  0
 32 33  1  0
 33 34  2  0
 35 34  1  0
 36 38  1  0
 37 36  2  0
M  END
$$$$
