CVV.pdb
     RDKit          3D

 21 20  0  0  1  0  0  0  0  0999 V2000
   19.4710  -21.1971   -8.4682 N   0  0  0  0  0  0  0  0  0  0  0  0
   20.2398  -22.0159   -9.3769 C   0  0  1  0  0  0  0  0  0  0  0  0
   19.3370  -22.9094  -10.2043 C   0  0  0  0  0  0  0  0  0  0  0  0
   18.7176  -24.3032   -9.2276 S   0  0  0  0  0  0  0  0  0  0  0  0
   21.1607  -21.2301  -10.2056 C   0  0  0  0  0  0  0  0  0  0  0  0
   20.8543  -20.1064  -10.6783 O   0  0  0  0  0  0  0  0  0  0  0  0
   25.0682  -20.6621   -9.5120 C   0  0  0  0  0  0  0  0  0  0  0  0
   24.8237  -21.0724  -10.9252 C   0  0  2  0  0  0  0  0  0  0  0  0
   25.7044  -20.3087  -11.9073 C   0  0  0  0  0  0  0  0  0  0  0  0
   23.3845  -20.9099  -11.3581 C   0  0  2  0  0  0  0  0  0  0  0  0
   22.4859  -21.6955  -10.5357 N   0  0  0  0  0  0  0  0  0  0  0  0
   23.2622  -21.2989  -12.8018 C   0  0  0  0  0  0  0  0  0  0  0  0
   23.4939  -22.4880  -13.1383 O   0  0  0  0  0  0  0  0  0  0  0  0
   20.7199  -19.3273  -15.3418 C   0  0  0  0  0  0  0  0  0  0  0  0
   21.3701  -20.6455  -15.7156 C   0  0  2  0  0  0  0  0  0  0  0  0
   20.5938  -21.7292  -14.9752 C   0  0  0  0  0  0  0  0  0  0  0  0
   22.8005  -20.7202  -15.2175 C   0  0  2  0  0  0  0  0  0  0  0  0
   22.8958  -20.3867  -13.8137 N   0  0  0  0  0  0  0  0  0  0  0  0
   23.5809  -19.7329  -15.9928 C   0  0  0  0  0  0  0  0  0  0  0  0
   24.0039  -19.9677  -17.2958 O   0  0  0  0  0  0  0  0  0  0  0  0
   23.8771  -18.6379  -15.4607 O   0  0  0  0  0  0  0  0  0  0  0  0
  2  1  1  6
  2  3  1  0
  4  3  1  0
  5 11  1  0
  5  2  1  0
  6  5  2  0
  8  7  1  1
  8 10  1  0
  9  8  1  0
 10 11  1  1
 10 12  1  0
 12 18  1  0
 13 12  2  0
 15 14  1  1
 15 16  1  0
 17 19  1  0
 17 15  1  0
 17 18  1  1
 19 20  1  0
 21 19  2  0
M  END
$$$$
