CVV.pdb
     RDKit          3D

 21 20  0  0  1  0  0  0  0  0999 V2000
   24.3607  -12.6154  -16.6092 N   0  0  0  0  0  0  0  0  0  0  0  0
   24.3623  -11.2316  -16.1942 C   0  0  1  0  0  0  0  0  0  0  0  0
   25.5833  -10.5044  -16.7217 C   0  0  0  0  0  0  0  0  0  0  0  0
   27.1084  -11.1889  -16.0246 S   0  0  0  0  0  0  0  0  0  0  0  0
   23.1121  -10.5395  -16.5265 C   0  0  0  0  0  0  0  0  0  0  0  0
   22.5040  -10.7247  -17.6109 O   0  0  0  0  0  0  0  0  0  0  0  0
   19.7522  -10.8809  -15.3612 C   0  0  0  0  0  0  0  0  0  0  0  0
   20.1057   -9.4567  -15.0930 C   0  0  2  0  0  0  0  0  0  0  0  0
   18.9141   -8.5235  -15.2739 C   0  0  0  0  0  0  0  0  0  0  0  0
   21.2390   -8.9462  -15.9534 C   0  0  2  0  0  0  0  0  0  0  0  0
   22.4932   -9.5957  -15.6278 N   0  0  0  0  0  0  0  0  0  0  0  0
   21.3493   -7.4598  -15.7835 C   0  0  0  0  0  0  0  0  0  0  0  0
   21.7831   -6.9971  -14.6980 O   0  0  0  0  0  0  0  0  0  0  0  0
   21.5371   -2.9651  -17.9187 C   0  0  0  0  0  0  0  0  0  0  0  0
   21.4754   -4.4771  -18.0191 C   0  0  2  0  0  0  0  0  0  0  0  0
   20.3193   -4.7954  -18.9610 C   0  0  0  0  0  0  0  0  0  0  0  0
   21.1328   -5.1089  -16.6837 C   0  0  2  0  0  0  0  0  0  0  0  0
   20.9863   -6.5433  -16.7929 N   0  0  0  0  0  0  0  0  0  0  0  0
   19.8423   -4.5328  -16.2506 C   0  0  0  0  0  0  0  0  0  0  0  0
   19.7565   -3.3714  -15.4918 O   0  0  0  0  0  0  0  0  0  0  0  0
   18.7785   -5.1088  -16.5768 O   0  0  0  0  0  0  0  0  0  0  0  0
  2  1  1  6
  2  3  1  0
  4  3  1  0
  5 11  1  0
  5  2  1  0
  6  5  2  0
  8  7  1  6
  8 10  1  0
  9  8  1  0
 10 11  1  1
 10 12  1  0
 12 18  1  0
 13 12  2  0
 15 14  1  1
 15 16  1  0
 17 19  1  0
 17 15  1  0
 17 18  1  6
 19 20  1  0
 21 19  2  0
M  END
$$$$
