CVV.pdb
     RDKit          3D

 21 20  0  0  1  0  0  0  0  0999 V2000
   15.8263  -15.2993  -16.6613 N   0  0  0  0  0  0  0  0  0  0  0  0
   16.3403  -14.4077  -15.6473 C   0  0  1  0  0  0  0  0  0  0  0  0
   17.1564  -15.1638  -14.6176 C   0  0  0  0  0  0  0  0  0  0  0  0
   16.1125  -16.2706  -13.6350 S   0  0  0  0  0  0  0  0  0  0  0  0
   17.0709  -13.2683  -16.2132 C   0  0  0  0  0  0  0  0  0  0  0  0
   17.7951  -13.3693  -17.2356 O   0  0  0  0  0  0  0  0  0  0  0  0
   16.1194  -10.0723  -17.8909 C   0  0  0  0  0  0  0  0  0  0  0  0
   16.8831   -9.7265  -16.6571 C   0  0  2  0  0  0  0  0  0  0  0  0
   17.7397   -8.4790  -16.8405 C   0  0  0  0  0  0  0  0  0  0  0  0
   17.7766  -10.8442  -16.1699 C   0  0  2  0  0  0  0  0  0  0  0  0
   17.0076  -11.9491  -15.6324 N   0  0  0  0  0  0  0  0  0  0  0  0
   18.7200  -10.3004  -15.1380 C   0  0  0  0  0  0  0  0  0  0  0  0
   18.2773   -9.9990  -14.0005 O   0  0  0  0  0  0  0  0  0  0  0  0
   23.3658  -10.1295  -13.4613 C   0  0  0  0  0  0  0  0  0  0  0  0
   22.3551  -10.5193  -14.5226 C   0  0  2  0  0  0  0  0  0  0  0  0
   22.9580  -10.1023  -15.8597 C   0  0  0  0  0  0  0  0  0  0  0  0
   21.0615   -9.7428  -14.3697 C   0  0  2  0  0  0  0  0  0  0  0  0
   20.0961  -10.1075  -15.3824 N   0  0  0  0  0  0  0  0  0  0  0  0
   21.3947   -8.3113  -14.5268 C   0  0  0  0  0  0  0  0  0  0  0  0
   21.8905   -7.5378  -13.4838 O   0  0  0  0  0  0  0  0  0  0  0  0
   21.2262   -7.7660  -15.6422 O   0  0  0  0  0  0  0  0  0  0  0  0
  2  1  1  6
  2  3  1  0
  4  3  1  0
  5 11  1  0
  5  2  1  0
  6  5  2  0
  8  7  1  6
  8 10  1  0
  9  8  1  0
 10 11  1  1
 10 12  1  0
 12 18  1  0
 13 12  2  0
 15 14  1  1
 15 16  1  0
 17 19  1  0
 17 15  1  0
 17 18  1  6
 19 20  1  0
 21 19  2  0
M  END
$$$$
