CVV.pdb
     RDKit          3D

 21 20  0  0  1  0  0  0  0  0999 V2000
   28.6293  -20.0430  -16.2544 N   0  0  0  0  0  0  0  0  0  0  0  0
   28.0086  -19.2636  -15.2082 C   0  0  1  0  0  0  0  0  0  0  0  0
   27.3979  -17.9920  -15.7635 C   0  0  0  0  0  0  0  0  0  0  0  0
   28.6470  -16.6959  -15.9640 S   0  0  0  0  0  0  0  0  0  0  0  0
   27.0526  -20.0425  -14.4135 C   0  0  0  0  0  0  0  0  0  0  0  0
   26.4397  -21.0372  -14.8769 O   0  0  0  0  0  0  0  0  0  0  0  0
   27.5352  -21.0768  -10.5309 C   0  0  0  0  0  0  0  0  0  0  0  0
   26.1769  -20.5207  -10.7971 C   0  0  2  0  0  0  0  0  0  0  0  0
   25.0876  -21.2761  -10.0445 C   0  0  0  0  0  0  0  0  0  0  0  0
   25.8110  -20.5032  -12.2636 C   0  0  2  0  0  0  0  0  0  0  0  0
   26.7498  -19.7185  -13.0406 N   0  0  0  0  0  0  0  0  0  0  0  0
   24.4177  -19.9675  -12.4127 C   0  0  0  0  0  0  0  0  0  0  0  0
   24.2355  -18.7235  -12.4101 O   0  0  0  0  0  0  0  0  0  0  0  0
   20.8977  -19.8485  -15.3442 C   0  0  0  0  0  0  0  0  0  0  0  0
   22.1851  -20.3172  -14.6940 C   0  0  2  0  0  0  0  0  0  0  0  0
   22.4153  -21.7433  -15.1824 C   0  0  0  0  0  0  0  0  0  0  0  0
   22.0500  -20.3925  -13.1854 C   0  0  2  0  0  0  0  0  0  0  0  0
   23.2874  -20.7992  -12.5575 N   0  0  0  0  0  0  0  0  0  0  0  0
   21.0151  -21.4067  -12.8935 C   0  0  0  0  0  0  0  0  0  0  0  0
   19.6761  -21.0811  -12.7119 O   0  0  0  0  0  0  0  0  0  0  0  0
   21.3507  -22.6106  -12.8046 O   0  0  0  0  0  0  0  0  0  0  0  0
  2  1  1  6
  2  3  1  0
  4  3  1  0
  5 11  1  0
  5  2  1  0
  6  5  2  0
  8  7  1  6
  8 10  1  0
  9  8  1  0
 10 11  1  6
 10 12  1  0
 12 18  1  0
 13 12  2  0
 15 14  1  6
 15 16  1  0
 17 19  1  0
 17 15  1  0
 17 18  1  1
 19 20  1  0
 21 19  2  0
M  END
$$$$
