CVV.pdb
     RDKit          3D

 21 20  0  0  1  0  0  0  0  0999 V2000
   27.3370  -19.4893  -17.9807 N   0  0  0  0  0  0  0  0  0  0  0  0
   27.3695  -18.7452  -16.7427 C   0  0  1  0  0  0  0  0  0  0  0  0
   26.3427  -17.6300  -16.7484 C   0  0  0  0  0  0  0  0  0  0  0  0
   26.8133  -16.3089  -17.8945 S   0  0  0  0  0  0  0  0  0  0  0  0
   27.2528  -19.6070  -15.5612 C   0  0  0  0  0  0  0  0  0  0  0  0
   26.4156  -20.5415  -15.4856 O   0  0  0  0  0  0  0  0  0  0  0  0
   30.3975  -20.9948  -13.3279 C   0  0  0  0  0  0  0  0  0  0  0  0
   29.2929  -20.4237  -12.5038 C   0  0  2  0  0  0  0  0  0  0  0  0
   29.0491  -21.2268  -11.2314 C   0  0  0  0  0  0  0  0  0  0  0  0
   27.9825  -20.3121  -13.2491 C   0  0  2  0  0  0  0  0  0  0  0  0
   28.0942  -19.4398  -14.4012 N   0  0  0  0  0  0  0  0  0  0  0  0
   26.9257  -19.8167  -12.3065 C   0  0  0  0  0  0  0  0  0  0  0  0
   26.9057  -18.5993  -11.9928 O   0  0  0  0  0  0  0  0  0  0  0  0
   22.4463  -20.2277  -10.3412 C   0  0  0  0  0  0  0  0  0  0  0  0
   23.5250  -20.6255  -11.3302 C   0  0  2  0  0  0  0  0  0  0  0  0
   23.5201  -22.1496  -11.3769 C   0  0  0  0  0  0  0  0  0  0  0  0
   24.9015  -20.2114  -10.8469 C   0  0  2  0  0  0  0  0  0  0  0  0
   25.9410  -20.6581  -11.7474 N   0  0  0  0  0  0  0  0  0  0  0  0
   25.1086  -20.8506   -9.5304 C   0  0  0  0  0  0  0  0  0  0  0  0
   25.0692  -20.1394   -8.3368 O   0  0  0  0  0  0  0  0  0  0  0  0
   25.3291  -22.0830   -9.4801 O   0  0  0  0  0  0  0  0  0  0  0  0
  2  1  1  6
  2  3  1  0
  4  3  1  0
  5 11  1  0
  5  2  1  0
  6  5  2  0
  8  7  1  6
  8 10  1  0
  9  8  1  0
 10 11  1  6
 10 12  1  0
 12 18  1  0
 13 12  2  0
 15 14  1  1
 15 16  1  0
 17 19  1  0
 17 15  1  0
 17 18  1  6
 19 20  1  0
 21 19  2  0
M  END
$$$$
