YIP.pdb
     RDKit          3D

 28 29  0  0  1  0  0  0  0  0999 V2000
   25.3855  -23.5004  -23.2898 O   0  0  0  0  0  0  0  0  0  0  0  0
   25.0503  -22.2503  -22.7468 C   0  0  0  0  0  0  0  0  0  0  0  0
   26.0075  -21.4111  -22.2125 C   0  0  0  0  0  0  0  0  0  0  0  0
   25.6759  -20.1971  -21.6860 C   0  0  0  0  0  0  0  0  0  0  0  0
   24.3485  -19.8056  -21.6916 C   0  0  0  0  0  0  0  0  0  0  0  0
   23.9997  -18.4783  -21.1142 C   0  0  0  0  0  0  0  0  0  0  0  0
   23.8373  -18.6630  -19.6141 C   0  0  2  0  0  0  0  0  0  0  0  0
   22.6720  -19.4421  -19.3075 N   0  0  0  0  0  0  0  0  0  0  0  0
   23.7553  -17.3407  -18.9874 C   0  0  0  0  0  0  0  0  0  0  0  0
   22.6010  -16.8578  -18.8192 O   0  0  0  0  0  0  0  0  0  0  0  0
   23.3487  -20.6062  -22.2138 C   0  0  0  0  0  0  0  0  0  0  0  0
   23.7398  -21.8221  -22.7325 C   0  0  0  0  0  0  0  0  0  0  0  0
   26.2541  -16.3000  -14.5282 C   0  0  0  0  0  0  0  0  0  0  0  0
   25.2303  -16.2857  -15.7034 C   0  0  0  0  0  0  0  0  0  0  0  0
   25.6847  -15.2982  -16.7305 C   0  0  2  0  0  0  0  0  0  0  0  0
   25.7449  -13.9144  -16.1087 C   0  0  0  0  0  0  0  0  0  0  0  0
   24.8696  -15.3411  -17.9679 C   0  0  2  0  0  0  0  0  0  0  0  0
   24.9231  -16.6478  -18.5935 N   0  0  0  0  0  0  0  0  0  0  0  0
   25.1160  -14.2687  -18.9264 C   0  0  0  0  0  0  0  0  0  0  0  0
   26.2828  -14.2572  -19.4990 O   0  0  0  0  0  0  0  0  0  0  0  0
   24.2662  -13.2249  -19.3330 N   0  0  0  0  0  0  0  0  0  0  0  0
   22.9496  -12.9195  -18.8334 C   0  0  0  0  0  0  0  0  0  0  0  0
   22.5555  -11.5969  -19.4856 C   0  0  0  0  0  0  0  0  0  0  0  0
   23.2696  -11.7387  -20.8150 C   0  0  0  0  0  0  0  0  0  0  0  0
   24.6035  -12.2457  -20.3747 C   0  0  1  0  0  0  0  0  0  0  0  0
   25.4904  -11.1905  -19.8446 C   0  0  0  0  0  0  0  0  0  0  0  0
   26.2283  -10.3165  -20.6284 O   0  0  0  0  0  0  0  0  0  0  0  0
   25.5920  -11.0657  -18.5986 O   0  0  0  0  0  0  0  0  0  0  0  0
  1  2  1  0
  2 12  2  0
  3  4  2  0
  3  2  1  0
  4  5  1  0
  5 11  2  0
  5  6  1  0
  7  6  1  0
  7  8  1  6
  9  7  1  0
  9 10  2  0
 12 11  1  0
 14 15  1  0
 14 13  1  0
 15 17  1  0
 15 16  1  1
 17 18  1  6
 17 19  1  0
 18  9  1  0
 19 21  1  0
 20 19  2  0
 21 25  1  0
 21 22  1  0
 23 22  1  0
 24 25  1  0
 24 23  1  0
 26 27  1  0
 25 26  1  1
 28 26  2  0
M  END
$$$$
