YIP.pdb
     RDKit          3D

 28 29  0  0  1  0  0  0  0  0999 V2000
   11.8123  -28.5459   -1.5158 O   0  0  0  0  0  0  0  0  0  0  0  0
   12.4357  -27.4730   -0.8598 C   0  0  0  0  0  0  0  0  0  0  0  0
   11.7753  -26.7221    0.0921 C   0  0  0  0  0  0  0  0  0  0  0  0
   12.3861  -25.6805    0.7266 C   0  0  0  0  0  0  0  0  0  0  0  0
   13.6969  -25.3761    0.4032 C   0  0  0  0  0  0  0  0  0  0  0  0
   14.3523  -24.2370    1.1029 C   0  0  0  0  0  0  0  0  0  0  0  0
   13.9941  -22.9697    0.3438 C   0  0  2  0  0  0  0  0  0  0  0  0
   14.5998  -22.9517   -0.9569 N   0  0  0  0  0  0  0  0  0  0  0  0
   14.4290  -21.8142    1.1333 C   0  0  0  0  0  0  0  0  0  0  0  0
   15.6229  -21.4332    0.9801 O   0  0  0  0  0  0  0  0  0  0  0  0
   14.4060  -26.0947   -0.5424 C   0  0  0  0  0  0  0  0  0  0  0  0
   13.7404  -27.1365   -1.1523 C   0  0  0  0  0  0  0  0  0  0  0  0
   11.6573  -17.3413    1.2574 C   0  0  0  0  0  0  0  0  0  0  0  0
   12.7625  -18.4400    1.2803 C   0  0  0  0  0  0  0  0  0  0  0  0
   12.9493  -18.9108    2.6875 C   0  0  2  0  0  0  0  0  0  0  0  0
   13.2747  -17.7248    3.5778 C   0  0  0  0  0  0  0  0  0  0  0  0
   13.9411  -20.0068    2.7991 C   0  0  2  0  0  0  0  0  0  0  0  0
   13.5424  -21.1642    2.0224 N   0  0  0  0  0  0  0  0  0  0  0  0
   14.3325  -20.3714    4.1568 C   0  0  0  0  0  0  0  0  0  0  0  0
   13.4998  -21.1151    4.8221 O   0  0  0  0  0  0  0  0  0  0  0  0
   15.4968  -20.0337    4.8691 N   0  0  0  0  0  0  0  0  0  0  0  0
   16.6315  -19.2844    4.3922 C   0  0  0  0  0  0  0  0  0  0  0  0
   17.5205  -19.0577    5.6121 C   0  0  0  0  0  0  0  0  0  0  0  0
   17.2329  -20.3298    6.3844 C   0  0  0  0  0  0  0  0  0  0  0  0
   15.7464  -20.4104    6.2667 C   0  0  1  0  0  0  0  0  0  0  0  0
   15.0313  -19.5114    7.1950 C   0  0  0  0  0  0  0  0  0  0  0  0
   14.7959  -19.7886    8.5331 O   0  0  0  0  0  0  0  0  0  0  0  0
   14.6014  -18.4164    6.7538 O   0  0  0  0  0  0  0  0  0  0  0  0
  1  2  1  0
  2 12  2  0
  3  4  2  0
  3  2  1  0
  4  5  1  0
  5 11  2  0
  5  6  1  0
  7  6  1  0
  7  8  1  6
  9  7  1  0
  9 10  2  0
 12 11  1  0
 14 15  1  0
 14 13  1  0
 15 17  1  0
 15 16  1  1
 17 18  1  1
 17 19  1  0
 18  9  1  0
 19 21  1  0
 20 19  2  0
 21 25  1  0
 21 22  1  0
 23 22  1  0
 24 25  1  0
 24 23  1  0
 26 27  1  0
 25 26  1  1
 28 26  2  0
M  END
$$$$
