YIP.pdb
     RDKit          3D

 28 29  0  0  1  0  0  0  0  0999 V2000
   21.3526  -11.9729  -16.8910 O   0  0  0  0  0  0  0  0  0  0  0  0
   21.7720  -13.2792  -16.5948 C   0  0  0  0  0  0  0  0  0  0  0  0
   22.8087  -13.5270  -15.7174 C   0  0  0  0  0  0  0  0  0  0  0  0
   23.2121  -14.7987  -15.4332 C   0  0  0  0  0  0  0  0  0  0  0  0
   22.5627  -15.8583  -16.0420 C   0  0  0  0  0  0  0  0  0  0  0  0
   23.0124  -17.2414  -15.7233 C   0  0  0  0  0  0  0  0  0  0  0  0
   24.3016  -17.4887  -16.4896 C   0  0  2  0  0  0  0  0  0  0  0  0
   24.0475  -17.6888  -17.8877 N   0  0  0  0  0  0  0  0  0  0  0  0
   24.9704  -18.6582  -15.9126 C   0  0  0  0  0  0  0  0  0  0  0  0
   24.5774  -19.7926  -16.3032 O   0  0  0  0  0  0  0  0  0  0  0  0
   21.5183  -15.6680  -16.9288 C   0  0  0  0  0  0  0  0  0  0  0  0
   21.1519  -14.3629  -17.1796 C   0  0  0  0  0  0  0  0  0  0  0  0
   29.9723  -20.2934  -12.6879 C   0  0  0  0  0  0  0  0  0  0  0  0
   28.5112  -20.6251  -13.1173 C   0  0  0  0  0  0  0  0  0  0  0  0
   27.9385  -19.4470  -13.8390 C   0  0  2  0  0  0  0  0  0  0  0  0
   28.1959  -18.1867  -13.0325 C   0  0  0  0  0  0  0  0  0  0  0  0
   26.5094  -19.6277  -14.1890 C   0  0  2  0  0  0  0  0  0  0  0  0
   26.0072  -18.5094  -14.9629 N   0  0  0  0  0  0  0  0  0  0  0  0
   25.6229  -19.9632  -13.0795 C   0  0  0  0  0  0  0  0  0  0  0  0
   25.2512  -18.9804  -12.3145 O   0  0  0  0  0  0  0  0  0  0  0  0
   25.0990  -21.2130  -12.7045 N   0  0  0  0  0  0  0  0  0  0  0  0
   25.2927  -22.4796  -13.3637 C   0  0  0  0  0  0  0  0  0  0  0  0
   24.6577  -23.5238  -12.4491 C   0  0  0  0  0  0  0  0  0  0  0  0
   23.5286  -22.7023  -11.8598 C   0  0  0  0  0  0  0  0  0  0  0  0
   24.2363  -21.4279  -11.5353 C   0  0  1  0  0  0  0  0  0  0  0  0
   25.0320  -21.4945  -10.2929 C   0  0  0  0  0  0  0  0  0  0  0  0
   24.5156  -21.3190   -9.0181 O   0  0  0  0  0  0  0  0  0  0  0  0
   26.2636  -21.7255  -10.3841 O   0  0  0  0  0  0  0  0  0  0  0  0
  1  2  1  0
  2 12  2  0
  3  4  2  0
  3  2  1  0
  4  5  1  0
  5 11  2  0
  5  6  1  0
  7  6  1  0
  7  8  1  6
  9  7  1  0
  9 10  2  0
 12 11  1  0
 14 15  1  0
 14 13  1  0
 15 17  1  0
 15 16  1  1
 17 18  1  1
 17 19  1  0
 18  9  1  0
 19 21  1  0
 20 19  2  0
 21 25  1  0
 21 22  1  0
 23 22  1  0
 24 25  1  0
 24 23  1  0
 26 27  1  0
 25 26  1  1
 28 26  2  0
M  END
$$$$
