YIP.pdb
     RDKit          3D

 28 29  0  0  1  0  0  0  0  0999 V2000
   22.2274  -22.2927   -8.8022 O   0  0  0  0  0  0  0  0  0  0  0  0
   22.6000  -21.8778  -10.0902 C   0  0  0  0  0  0  0  0  0  0  0  0
   23.7997  -21.2370  -10.3274 C   0  0  0  0  0  0  0  0  0  0  0  0
   24.1567  -20.8360  -11.5814 C   0  0  0  0  0  0  0  0  0  0  0  0
   23.2917  -21.0806  -12.6336 C   0  0  0  0  0  0  0  0  0  0  0  0
   23.6931  -20.6381  -13.9973 C   0  0  0  0  0  0  0  0  0  0  0  0
   23.2771  -19.1835  -14.1446 C   0  0  2  0  0  0  0  0  0  0  0  0
   21.8491  -19.0513  -14.1914 N   0  0  0  0  0  0  0  0  0  0  0  0
   23.8870  -18.6450  -15.3637 C   0  0  0  0  0  0  0  0  0  0  0  0
   23.2090  -18.7244  -16.4258 O   0  0  0  0  0  0  0  0  0  0  0  0
   22.0776  -21.7185  -12.4533 C   0  0  0  0  0  0  0  0  0  0  0  0
   21.7674  -22.1021  -11.1660 C   0  0  0  0  0  0  0  0  0  0  0  0
   26.6644  -14.0478  -14.9289 C   0  0  0  0  0  0  0  0  0  0  0  0
   25.7204  -15.1380  -15.5202 C   0  0  0  0  0  0  0  0  0  0  0  0
   26.5522  -16.2286  -16.1162 C   0  0  2  0  0  0  0  0  0  0  0  0
   27.3698  -15.6688  -17.2666 C   0  0  0  0  0  0  0  0  0  0  0  0
   25.7522  -17.4162  -16.4995 C   0  0  2  0  0  0  0  0  0  0  0  0
   25.1763  -18.0654  -15.3383 N   0  0  0  0  0  0  0  0  0  0  0  0
   26.4166  -18.3697  -17.3821 C   0  0  0  0  0  0  0  0  0  0  0  0
   27.3526  -19.0988  -16.8514 O   0  0  0  0  0  0  0  0  0  0  0  0
   26.1939  -18.6249  -18.7468 N   0  0  0  0  0  0  0  0  0  0  0  0
   25.2092  -18.0158  -19.6046 C   0  0  0  0  0  0  0  0  0  0  0  0
   25.5177  -18.5193  -21.0121 C   0  0  0  0  0  0  0  0  0  0  0  0
   26.0518  -19.8994  -20.6841 C   0  0  0  0  0  0  0  0  0  0  0  0
   26.9618  -19.5936  -19.5402 C   0  0  1  0  0  0  0  0  0  0  0  0
   28.2619  -19.0289  -19.9549 C   0  0  0  0  0  0  0  0  0  0  0  0
   29.3389  -19.7797  -20.4009 O   0  0  0  0  0  0  0  0  0  0  0  0
   28.4153  -17.7829  -19.9046 O   0  0  0  0  0  0  0  0  0  0  0  0
  1  2  1  0
  2 12  2  0
  3  4  2  0
  3  2  1  0
  4  5  1  0
  5 11  2  0
  5  6  1  0
  7  6  1  0
  7  8  1  6
  9  7  1  0
  9 10  2  0
 12 11  1  0
 14 15  1  0
 14 13  1  0
 15 17  1  0
 15 16  1  6
 17 18  1  1
 17 19  1  0
 18  9  1  0
 19 21  1  0
 20 19  2  0
 21 25  1  0
 21 22  1  0
 23 22  1  0
 24 25  1  0
 24 23  1  0
 26 27  1  0
 25 26  1  6
 28 26  2  0
M  END
$$$$
