YIP.pdb
     RDKit          3D

 28 29  0  0  1  0  0  0  0  0999 V2000
   20.6912  -22.7364   -7.2115 O   0  0  0  0  0  0  0  0  0  0  0  0
   21.5978  -22.0323   -8.0192 C   0  0  0  0  0  0  0  0  0  0  0  0
   21.4078  -21.9028   -9.3804 C   0  0  0  0  0  0  0  0  0  0  0  0
   22.2923  -21.2173  -10.1606 C   0  0  0  0  0  0  0  0  0  0  0  0
   23.4020  -20.6420   -9.5666 C   0  0  0  0  0  0  0  0  0  0  0  0
   24.3597  -19.8963  -10.4290 C   0  0  0  0  0  0  0  0  0  0  0  0
   25.2192  -20.9233  -11.1481 C   0  0  2  0  0  0  0  0  0  0  0  0
   26.1430  -21.5526  -10.2484 N   0  0  0  0  0  0  0  0  0  0  0  0
   25.9336  -20.2528  -12.2380 C   0  0  0  0  0  0  0  0  0  0  0  0
   26.9280  -19.5433  -11.9191 O   0  0  0  0  0  0  0  0  0  0  0  0
   23.6418  -20.7404   -8.2079 C   0  0  0  0  0  0  0  0  0  0  0  0
   22.7161  -21.4441   -7.4674 C   0  0  0  0  0  0  0  0  0  0  0  0
   27.9841  -23.0481  -15.8834 C   0  0  0  0  0  0  0  0  0  0  0  0
   27.5598  -21.9452  -14.8671 C   0  0  0  0  0  0  0  0  0  0  0  0
   26.7810  -20.8929  -15.5904 C   0  0  2  0  0  0  0  0  0  0  0  0
   27.6167  -20.3410  -16.7315 C   0  0  0  0  0  0  0  0  0  0  0  0
   26.2671  -19.8364  -14.6865 C   0  0  2  0  0  0  0  0  0  0  0  0
   25.5183  -20.4017  -13.5813 N   0  0  0  0  0  0  0  0  0  0  0  0
   25.5433  -18.7465  -15.3328 C   0  0  0  0  0  0  0  0  0  0  0  0
   24.3405  -19.0124  -15.7471 O   0  0  0  0  0  0  0  0  0  0  0  0
   25.9576  -17.4259  -15.5806 N   0  0  0  0  0  0  0  0  0  0  0  0
   27.2479  -16.8448  -15.3090 C   0  0  0  0  0  0  0  0  0  0  0  0
   27.2134  -15.4507  -15.9295 C   0  0  0  0  0  0  0  0  0  0  0  0
   25.7468  -15.1177  -15.7412 C   0  0  0  0  0  0  0  0  0  0  0  0
   25.1019  -16.3920  -16.1777 C   0  0  1  0  0  0  0  0  0  0  0  0
   25.0296  -16.5445  -17.6449 C   0  0  0  0  0  0  0  0  0  0  0  0
   25.8952  -17.3229  -18.3982 O   0  0  0  0  0  0  0  0  0  0  0  0
   24.1253  -15.9313  -18.2653 O   0  0  0  0  0  0  0  0  0  0  0  0
  1  2  1  0
  2 12  2  0
  3  4  2  0
  3  2  1  0
  4  5  1  0
  5 11  2  0
  5  6  1  0
  7  6  1  0
  7  8  1  1
  9  7  1  0
  9 10  2  0
 12 11  1  0
 14 15  1  0
 14 13  1  0
 15 17  1  0
 15 16  1  6
 17 18  1  1
 17 19  1  0
 18  9  1  0
 19 21  1  0
 20 19  2  0
 21 25  1  0
 21 22  1  0
 23 22  1  0
 24 25  1  0
 24 23  1  0
 26 27  1  0
 25 26  1  6
 28 26  2  0
M  END
$$$$
