YIP.pdb
     RDKit          3D

 28 29  0  0  1  0  0  0  0  0999 V2000
   21.4025  -19.0438  -14.5580 O   0  0  0  0  0  0  0  0  0  0  0  0
   22.1884  -19.5334  -13.5031 C   0  0  0  0  0  0  0  0  0  0  0  0
   22.5719  -18.7279  -12.4496 C   0  0  0  0  0  0  0  0  0  0  0  0
   23.3358  -19.2090  -11.4270 C   0  0  0  0  0  0  0  0  0  0  0  0
   23.7309  -20.5351  -11.4538 C   0  0  0  0  0  0  0  0  0  0  0  0
   24.5643  -21.0481  -10.3317 C   0  0  0  0  0  0  0  0  0  0  0  0
   25.9733  -20.5130  -10.5297 C   0  0  2  0  0  0  0  0  0  0  0  0
   26.5866  -21.0776  -11.6976 N   0  0  0  0  0  0  0  0  0  0  0  0
   26.7610  -20.8189   -9.3322 C   0  0  0  0  0  0  0  0  0  0  0  0
   27.1271  -22.0174   -9.1789 O   0  0  0  0  0  0  0  0  0  0  0  0
   23.3756  -21.3867  -12.4842 C   0  0  0  0  0  0  0  0  0  0  0  0
   22.6033  -20.8482  -13.4912 C   0  0  0  0  0  0  0  0  0  0  0  0
   30.3772  -18.0387   -5.2153 C   0  0  0  0  0  0  0  0  0  0  0  0
   29.5380  -19.2972   -5.5909 C   0  0  0  0  0  0  0  0  0  0  0  0
   28.6879  -18.9765   -6.7789 C   0  0  2  0  0  0  0  0  0  0  0  0
   27.9322  -17.6844   -6.5250 C   0  0  0  0  0  0  0  0  0  0  0  0
   27.8007  -20.0981   -7.1692 C   0  0  2  0  0  0  0  0  0  0  0  0
   27.0896  -19.8090   -8.3990 N   0  0  0  0  0  0  0  0  0  0  0  0
   26.9063  -20.5908   -6.1267 C   0  0  0  0  0  0  0  0  0  0  0  0
   25.6880  -20.1384   -6.1442 O   0  0  0  0  0  0  0  0  0  0  0  0
   27.1672  -21.4987   -5.0852 N   0  0  0  0  0  0  0  0  0  0  0  0
   28.4188  -22.1408   -4.7731 C   0  0  0  0  0  0  0  0  0  0  0  0
   28.1896  -22.8769   -3.4557 C   0  0  0  0  0  0  0  0  0  0  0  0
   26.7259  -23.2390   -3.6106 C   0  0  0  0  0  0  0  0  0  0  0  0
   26.1610  -21.9523   -4.1158 C   0  0  1  0  0  0  0  0  0  0  0  0
   25.9506  -20.9441   -3.0574 C   0  0  0  0  0  0  0  0  0  0  0  0
   24.8713  -20.9314   -2.1869 O   0  0  0  0  0  0  0  0  0  0  0  0
   26.8016  -20.0291   -2.9263 O   0  0  0  0  0  0  0  0  0  0  0  0
  1  2  1  0
  2 12  2  0
  3  4  2  0
  3  2  1  0
  4  5  1  0
  5 11  2  0
  5  6  1  0
  7  6  1  0
  7  8  1  6
  9  7  1  0
  9 10  2  0
 12 11  1  0
 14 15  1  0
 14 13  1  0
 15 17  1  0
 15 16  1  1
 17 18  1  6
 17 19  1  0
 18  9  1  0
 19 21  1  0
 20 19  2  0
 21 25  1  0
 21 22  1  0
 23 22  1  0
 24 25  1  0
 24 23  1  0
 26 27  1  0
 25 26  1  1
 28 26  2  0
M  END
$$$$
