YIP.pdb
     RDKit          3D

 28 29  0  0  1  0  0  0  0  0999 V2000
   20.2361  -18.7319  -14.9077 O   0  0  0  0  0  0  0  0  0  0  0  0
   21.0762  -19.1611  -13.8685 C   0  0  0  0  0  0  0  0  0  0  0  0
   20.7688  -20.2625  -13.0949 C   0  0  0  0  0  0  0  0  0  0  0  0
   21.5891  -20.6751  -12.0861 C   0  0  0  0  0  0  0  0  0  0  0  0
   22.7531  -19.9686  -11.8391 C   0  0  0  0  0  0  0  0  0  0  0  0
   23.6400  -20.4292  -10.7354 C   0  0  0  0  0  0  0  0  0  0  0  0
   24.9778  -20.8033  -11.3525 C   0  0  2  0  0  0  0  0  0  0  0  0
   24.8344  -21.8688  -12.3028 N   0  0  0  0  0  0  0  0  0  0  0  0
   25.8961  -21.1888  -10.2773 C   0  0  0  0  0  0  0  0  0  0  0  0
   25.7192  -22.3236   -9.7532 O   0  0  0  0  0  0  0  0  0  0  0  0
   23.1102  -18.8582  -12.5826 C   0  0  0  0  0  0  0  0  0  0  0  0
   22.2452  -18.4855  -13.5892 C   0  0  0  0  0  0  0  0  0  0  0  0
   30.8805  -21.6895  -11.0086 C   0  0  0  0  0  0  0  0  0  0  0  0
   29.4055  -21.7150  -10.5054 C   0  0  0  0  0  0  0  0  0  0  0  0
   29.2637  -20.7521   -9.3698 C   0  0  2  0  0  0  0  0  0  0  0  0
   30.3016  -21.0677   -8.3075 C   0  0  0  0  0  0  0  0  0  0  0  0
   27.8835  -20.6986   -8.8318 C   0  0  2  0  0  0  0  0  0  0  0  0
   26.9292  -20.3206   -9.8556 N   0  0  0  0  0  0  0  0  0  0  0  0
   27.7091  -19.9184   -7.6110 C   0  0  0  0  0  0  0  0  0  0  0  0
   27.3055  -18.6918   -7.7574 O   0  0  0  0  0  0  0  0  0  0  0  0
   27.9156  -20.2996   -6.2734 N   0  0  0  0  0  0  0  0  0  0  0  0
   28.4017  -21.5655   -5.7861 C   0  0  0  0  0  0  0  0  0  0  0  0
   28.6018  -21.3821   -4.2841 C   0  0  0  0  0  0  0  0  0  0  0  0
   27.4895  -20.3950   -3.9914 C   0  0  0  0  0  0  0  0  0  0  0  0
   27.6547  -19.4297   -5.1189 C   0  0  1  0  0  0  0  0  0  0  0  0
   28.7586  -18.4696   -4.9169 C   0  0  0  0  0  0  0  0  0  0  0  0
   28.7279  -17.4139   -4.0184 O   0  0  0  0  0  0  0  0  0  0  0  0
   29.8034  -18.6082   -5.6006 O   0  0  0  0  0  0  0  0  0  0  0  0
  1  2  1  0
  2 12  2  0
  3  4  2  0
  3  2  1  0
  4  5  1  0
  5 11  2  0
  5  6  1  0
  7  6  1  0
  7  8  1  6
  9  7  1  0
  9 10  2  0
 12 11  1  0
 14 15  1  0
 14 13  1  0
 15 17  1  0
 15 16  1  1
 17 18  1  6
 17 19  1  0
 18  9  1  0
 19 21  1  0
 20 19  2  0
 21 25  1  0
 21 22  1  0
 23 22  1  0
 24 25  1  0
 24 23  1  0
 26 27  1  0
 25 26  1  1
 28 26  2  0
M  END
$$$$
