LEA.pdb
     RDKit          3D

 23 22  0  0  1  0  0  0  0  0999 V2000
    9.5291  -13.5245   19.2510 C   0  0  0  0  0  0  0  0  0  0  0  0
    8.0924  -13.5025   19.7412 C   0  0  2  0  0  0  0  0  0  0  0  0
    7.5865  -12.0518   19.6653 C   0  0  0  0  0  0  0  0  0  0  0  0
    7.9897  -14.0182   21.1573 C   0  0  0  0  0  0  0  0  0  0  0  0
    8.3901  -15.4591   21.1833 C   0  0  2  0  0  0  0  0  0  0  0  0
    7.5122  -16.2499   20.4219 N   0  0  0  0  0  0  0  0  0  0  0  0
    8.5210  -16.0034   22.5468 C   0  0  0  0  0  0  0  0  0  0  0  0
    7.5561  -16.2101   23.3159 O   0  0  0  0  0  0  0  0  0  0  0  0
    9.8266  -16.3170   23.0295 N   0  0  0  0  0  0  0  0  0  0  0  0
   10.0089  -16.8848   24.3558 C   0  0  1  0  0  0  0  0  0  0  0  0
   11.1955  -17.8007   24.3636 C   0  0  0  0  0  0  0  0  0  0  0  0
   11.4771  -18.4854   25.6661 C   0  0  0  0  0  0  0  0  0  0  0  0
   12.6683  -19.3572   25.4193 C   0  0  0  0  0  0  0  0  0  0  0  0
   13.7513  -19.2072   26.0438 O   0  0  0  0  0  0  0  0  0  0  0  0
   10.3465  -15.7917   25.3304 C   0  0  0  0  0  0  0  0  0  0  0  0
   11.3811  -15.1004   25.1312 O   0  0  0  0  0  0  0  0  0  0  0  0
   12.5703  -20.3582   24.4695 O   0  0  0  0  0  0  0  0  0  0  0  0
    8.8685  -13.5231   27.6254 C   0  0  0  0  0  0  0  0  0  0  0  0
   10.0244  -14.5131   27.4668 C   0  0  2  0  0  0  0  0  0  0  0  0
    9.5682  -15.4848   26.4753 N   0  0  0  0  0  0  0  0  0  0  0  0
   10.3459  -15.0886   28.7654 C   0  0  0  0  0  0  0  0  0  0  0  0
   10.1718  -16.4388   29.0013 O   0  0  0  0  0  0  0  0  0  0  0  0
   10.7892  -14.3799   29.7047 O   0  0  0  0  0  0  0  0  0  0  0  0
  2  1  1  1
  2  4  1  0
  2  3  1  0
  5  7  1  0
  5  6  1  6
  5  4  1  0
  7  8  2  0
  9 10  1  0
  9  7  1  0
 10 11  1  6
 12 11  1  0
 13 14  2  0
 13 12  1  0
 15 16  2  0
 15 10  1  0
 17 13  1  0
 19 18  1  1
 19 20  1  0
 19 21  1  0
 20 15  1  0
 21 23  2  0
 21 22  1  0
M  END
$$$$
