LEA.pdb
     RDKit          3D

 23 22  0  0  1  0  0  0  0  0999 V2000
    9.7100  -12.5490   19.2736 C   0  0  0  0  0  0  0  0  0  0  0  0
    8.2878  -13.0716   19.1786 C   0  0  2  0  0  0  0  0  0  0  0  0
    7.3368  -11.9434   19.6133 C   0  0  0  0  0  0  0  0  0  0  0  0
    8.0919  -14.2865   20.0546 C   0  0  0  0  0  0  0  0  0  0  0  0
    9.0359  -15.3615   19.6181 C   0  0  2  0  0  0  0  0  0  0  0  0
    8.6082  -15.9666   18.4237 N   0  0  0  0  0  0  0  0  0  0  0  0
    9.2765  -16.3822   20.6539 C   0  0  0  0  0  0  0  0  0  0  0  0
    8.3695  -16.9937   21.2612 O   0  0  0  0  0  0  0  0  0  0  0  0
   10.6257  -16.6993   20.9932 N   0  0  0  0  0  0  0  0  0  0  0  0
   10.9198  -17.7498   21.9547 C   0  0  1  0  0  0  0  0  0  0  0  0
   12.2159  -18.4172   21.6055 C   0  0  0  0  0  0  0  0  0  0  0  0
   12.5887  -19.5935   22.4551 C   0  0  0  0  0  0  0  0  0  0  0  0
   13.8693  -20.1185   21.8856 C   0  0  0  0  0  0  0  0  0  0  0  0
   14.6678  -19.3877   21.2425 O   0  0  0  0  0  0  0  0  0  0  0  0
   11.1401  -17.1439   23.3123 C   0  0  0  0  0  0  0  0  0  0  0  0
   12.0027  -16.2337   23.4370 O   0  0  0  0  0  0  0  0  0  0  0  0
   14.1787  -21.4537   22.0735 O   0  0  0  0  0  0  0  0  0  0  0  0
    9.4477  -16.4601   26.3567 C   0  0  0  0  0  0  0  0  0  0  0  0
   10.7675  -16.9879   25.7901 C   0  0  2  0  0  0  0  0  0  0  0  0
   10.4333  -17.5359   24.4773 N   0  0  0  0  0  0  0  0  0  0  0  0
   11.3350  -17.9574   26.7169 C   0  0  0  0  0  0  0  0  0  0  0  0
   11.9128  -17.5457   27.9024 O   0  0  0  0  0  0  0  0  0  0  0  0
   11.3162  -19.1900   26.4688 O   0  0  0  0  0  0  0  0  0  0  0  0
  2  1  1  1
  2  4  1  0
  2  3  1  0
  5  7  1  0
  5  6  1  6
  5  4  1  0
  7  8  2  0
  9 10  1  0
  9  7  1  0
 10 11  1  6
 12 11  1  0
 13 14  2  0
 13 12  1  0
 15 16  2  0
 15 10  1  0
 17 13  1  0
 19 18  1  1
 19 20  1  0
 19 21  1  0
 20 15  1  0
 21 23  2  0
 21 22  1  0
M  END
$$$$
