LEA.pdb
     RDKit          3D

 23 22  0  0  1  0  0  0  0  0999 V2000
    8.1425  -12.2749   25.2078 C   0  0  0  0  0  0  0  0  0  0  0  0
    6.6305  -12.2686   25.0713 C   0  0  2  0  0  0  0  0  0  0  0  0
    6.0423  -11.6099   26.3308 C   0  0  0  0  0  0  0  0  0  0  0  0
    6.0897  -13.6702   24.9136 C   0  0  0  0  0  0  0  0  0  0  0  0
    6.9255  -14.4076   23.9162 C   0  0  2  0  0  0  0  0  0  0  0  0
    6.1278  -15.0685   22.9662 N   0  0  0  0  0  0  0  0  0  0  0  0
    7.8756  -15.3497   24.5345 C   0  0  0  0  0  0  0  0  0  0  0  0
    7.5850  -16.1266   25.4711 O   0  0  0  0  0  0  0  0  0  0  0  0
    9.2141  -15.3850   24.0411 N   0  0  0  0  0  0  0  0  0  0  0  0
   10.1682  -16.3530   24.5578 C   0  0  1  0  0  0  0  0  0  0  0  0
   11.2987  -16.5273   23.5889 C   0  0  0  0  0  0  0  0  0  0  0  0
   12.3605  -17.5009   24.0001 C   0  0  0  0  0  0  0  0  0  0  0  0
   13.2887  -17.6100   22.8312 C   0  0  0  0  0  0  0  0  0  0  0  0
   13.2887  -18.6087   22.0645 O   0  0  0  0  0  0  0  0  0  0  0  0
   10.8008  -15.8180   25.8116 C   0  0  0  0  0  0  0  0  0  0  0  0
   11.6576  -14.8991   25.7137 O   0  0  0  0  0  0  0  0  0  0  0  0
   14.1761  -16.5761   22.5923 O   0  0  0  0  0  0  0  0  0  0  0  0
   10.5237  -14.8043   28.9748 C   0  0  0  0  0  0  0  0  0  0  0  0
   11.3083  -15.9121   28.2686 C   0  0  2  0  0  0  0  0  0  0  0  0
   10.4943  -16.2870   27.1143 N   0  0  0  0  0  0  0  0  0  0  0  0
   11.5547  -16.9992   29.2059 C   0  0  0  0  0  0  0  0  0  0  0  0
   10.9940  -18.2457   29.0037 O   0  0  0  0  0  0  0  0  0  0  0  0
   12.2803  -16.8382   30.2201 O   0  0  0  0  0  0  0  0  0  0  0  0
  2  1  1  1
  2  4  1  0
  2  3  1  0
  5  7  1  0
  5  6  1  6
  5  4  1  0
  7  8  2  0
  9 10  1  0
  9  7  1  0
 10 11  1  6
 12 11  1  0
 13 14  2  0
 13 12  1  0
 15 16  2  0
 15 10  1  0
 17 13  1  0
 19 18  1  1
 19 20  1  0
 19 21  1  0
 20 15  1  0
 21 23  2  0
 21 22  1  0
M  END
$$$$
