LEA.pdb
     RDKit          3D

 23 22  0  0  1  0  0  0  0  0999 V2000
    9.4632  -11.9557   19.0680 C   0  0  0  0  0  0  0  0  0  0  0  0
    8.3946  -13.0306   18.9802 C   0  0  2  0  0  0  0  0  0  0  0  0
    7.0726  -12.4290   19.4869 C   0  0  0  0  0  0  0  0  0  0  0  0
    8.7673  -14.2409   19.8037 C   0  0  0  0  0  0  0  0  0  0  0  0
   10.0984  -14.7502   19.3497 C   0  0  2  0  0  0  0  0  0  0  0  0
   10.0796  -15.0923   17.9865 N   0  0  0  0  0  0  0  0  0  0  0  0
   10.5968  -15.8789   20.1561 C   0  0  0  0  0  0  0  0  0  0  0  0
    9.8727  -16.7957   20.6039 O   0  0  0  0  0  0  0  0  0  0  0  0
   11.9917  -15.9382   20.4508 N   0  0  0  0  0  0  0  0  0  0  0  0
   12.5581  -17.0983   21.1199 C   0  0  1  0  0  0  0  0  0  0  0  0
   14.0254  -17.1938   20.8280 C   0  0  0  0  0  0  0  0  0  0  0  0
   14.3845  -17.7772   19.4956 C   0  0  0  0  0  0  0  0  0  0  0  0
   15.7736  -17.3028   19.2037 C   0  0  0  0  0  0  0  0  0  0  0  0
   16.7901  -17.9965   19.4701 O   0  0  0  0  0  0  0  0  0  0  0  0
   12.4620  -16.9188   22.6089 C   0  0  0  0  0  0  0  0  0  0  0  0
   13.0439  -15.9350   23.1395 O   0  0  0  0  0  0  0  0  0  0  0  0
   15.9395  -16.0578   18.6240 O   0  0  0  0  0  0  0  0  0  0  0  0
   10.2935  -17.7859   25.3468 C   0  0  0  0  0  0  0  0  0  0  0  0
   11.7509  -17.6074   24.9161 C   0  0  2  0  0  0  0  0  0  0  0  0
   11.7520  -17.7964   23.4671 N   0  0  0  0  0  0  0  0  0  0  0  0
   12.5865  -18.5525   25.6439 C   0  0  0  0  0  0  0  0  0  0  0  0
   12.8113  -18.3979   26.9983 O   0  0  0  0  0  0  0  0  0  0  0  0
   13.1245  -19.5314   25.0664 O   0  0  0  0  0  0  0  0  0  0  0  0
  2  1  1  1
  2  4  1  0
  2  3  1  0
  5  7  1  0
  5  6  1  6
  5  4  1  0
  7  8  2  0
  9 10  1  0
  9  7  1  0
 10 11  1  1
 12 11  1  0
 13 14  2  0
 13 12  1  0
 15 16  2  0
 15 10  1  0
 17 13  1  0
 19 18  1  1
 19 20  1  0
 19 21  1  0
 20 15  1  0
 21 23  2  0
 21 22  1  0
M  END
$$$$
