LEA.pdb
     RDKit          3D

 23 22  0  0  1  0  0  0  0  0999 V2000
    9.1385  -13.2620   19.2260 C   0  0  0  0  0  0  0  0  0  0  0  0
    7.7325  -13.3634   19.7895 C   0  0  2  0  0  0  0  0  0  0  0  0
    7.1306  -11.9482   19.8231 C   0  0  0  0  0  0  0  0  0  0  0  0
    7.7410  -13.9606   21.1770 C   0  0  0  0  0  0  0  0  0  0  0  0
    8.3134  -15.3409   21.1118 C   0  0  2  0  0  0  0  0  0  0  0  0
    7.5339  -16.1823   20.2993 N   0  0  0  0  0  0  0  0  0  0  0  0
    8.5164  -15.9512   22.4381 C   0  0  0  0  0  0  0  0  0  0  0  0
    7.5888  -16.3496   23.1771 O   0  0  0  0  0  0  0  0  0  0  0  0
    9.8516  -16.1006   22.9188 N   0  0  0  0  0  0  0  0  0  0  0  0
   10.1071  -16.6902   24.2232 C   0  0  1  0  0  0  0  0  0  0  0  0
   11.4161  -17.4206   24.2091 C   0  0  0  0  0  0  0  0  0  0  0  0
   11.4419  -18.6894   23.4128 C   0  0  0  0  0  0  0  0  0  0  0  0
   12.8619  -19.1611   23.4430 C   0  0  0  0  0  0  0  0  0  0  0  0
   13.4922  -19.4617   22.3953 O   0  0  0  0  0  0  0  0  0  0  0  0
   10.2728  -15.6011   25.2454 C   0  0  0  0  0  0  0  0  0  0  0  0
   11.2008  -14.7625   25.0924 O   0  0  0  0  0  0  0  0  0  0  0  0
   13.4968  -19.2707   24.6672 O   0  0  0  0  0  0  0  0  0  0  0  0
    8.4424  -13.6515   27.5723 C   0  0  0  0  0  0  0  0  0  0  0  0
    9.7337  -14.4572   27.4142 C   0  0  2  0  0  0  0  0  0  0  0  0
    9.4439  -15.4549   26.3866 N   0  0  0  0  0  0  0  0  0  0  0  0
   10.1111  -15.0183   28.7040 C   0  0  0  0  0  0  0  0  0  0  0  0
   10.1059  -16.3849   28.9075 O   0  0  0  0  0  0  0  0  0  0  0  0
   10.4513  -14.2819   29.6648 O   0  0  0  0  0  0  0  0  0  0  0  0
  2  1  1  1
  2  4  1  0
  2  3  1  0
  5  7  1  0
  5  6  1  6
  5  4  1  0
  7  8  2  0
  9 10  1  0
  9  7  1  0
 10 11  1  6
 12 11  1  0
 13 14  2  0
 13 12  1  0
 15 16  2  0
 15 10  1  0
 17 13  1  0
 19 18  1  1
 19 20  1  0
 19 21  1  0
 20 15  1  0
 21 23  2  0
 21 22  1  0
M  END
$$$$
