LEA.pdb
     RDKit          3D

 23 22  0  0  1  0  0  0  0  0999 V2000
    9.5714  -12.9388   19.4665 C   0  0  0  0  0  0  0  0  0  0  0  0
    8.1253  -13.3728   19.6255 C   0  0  2  0  0  0  0  0  0  0  0  0
    7.2348  -12.1298   19.4574 C   0  0  0  0  0  0  0  0  0  0  0  0
    7.8895  -14.0055   20.9768 C   0  0  0  0  0  0  0  0  0  0  0  0
    8.6776  -15.2735   21.0673 C   0  0  2  0  0  0  0  0  0  0  0  0
    8.3050  -16.1826   20.0621 N   0  0  0  0  0  0  0  0  0  0  0  0
    8.6022  -15.9136   22.3929 C   0  0  0  0  0  0  0  0  0  0  0  0
    7.5382  -16.2965   22.9282 O   0  0  0  0  0  0  0  0  0  0  0  0
    9.8138  -16.1128   23.1198 N   0  0  0  0  0  0  0  0  0  0  0  0
    9.7976  -16.7578   24.4230 C   0  0  1  0  0  0  0  0  0  0  0  0
   10.7795  -17.8902   24.4477 C   0  0  0  0  0  0  0  0  0  0  0  0
   12.1725  -17.5498   24.0136 C   0  0  0  0  0  0  0  0  0  0  0  0
   12.9570  -18.8191   24.1280 C   0  0  0  0  0  0  0  0  0  0  0  0
   13.2283  -19.3431   25.2403 O   0  0  0  0  0  0  0  0  0  0  0  0
   10.2800  -15.7930   25.4694 C   0  0  0  0  0  0  0  0  0  0  0  0
   11.3804  -15.2055   25.2908 O   0  0  0  0  0  0  0  0  0  0  0  0
   13.3984  -19.4309   22.9684 O   0  0  0  0  0  0  0  0  0  0  0  0
    9.1383  -13.5940   28.0203 C   0  0  0  0  0  0  0  0  0  0  0  0
   10.1658  -14.6875   27.7206 C   0  0  2  0  0  0  0  0  0  0  0  0
    9.5699  -15.4983   26.6609 N   0  0  0  0  0  0  0  0  0  0  0  0
   10.4572  -15.4217   28.9442 C   0  0  0  0  0  0  0  0  0  0  0  0
   11.1574  -14.8251   29.9751 O   0  0  0  0  0  0  0  0  0  0  0  0
   10.0828  -16.6121   29.0991 O   0  0  0  0  0  0  0  0  0  0  0  0
  2  1  1  1
  2  4  1  0
  2  3  1  0
  5  7  1  0
  5  6  1  6
  5  4  1  0
  7  8  2  0
  9 10  1  0
  9  7  1  0
 10 11  1  6
 12 11  1  0
 13 14  2  0
 13 12  1  0
 15 16  2  0
 15 10  1  0
 17 13  1  0
 19 18  1  1
 19 20  1  0
 19 21  1  0
 20 15  1  0
 21 23  2  0
 21 22  1  0
M  END
$$$$
