LEA.pdb
     RDKit          3D

 23 22  0  0  1  0  0  0  0  0999 V2000
    6.7323  -12.1234   23.9075 C   0  0  0  0  0  0  0  0  0  0  0  0
    6.2027  -12.6659   25.2228 C   0  0  2  0  0  0  0  0  0  0  0  0
    6.0195  -11.4810   26.1865 C   0  0  0  0  0  0  0  0  0  0  0  0
    7.1506  -13.6809   25.8171 C   0  0  0  0  0  0  0  0  0  0  0  0
    7.1760  -14.8957   24.9448 C   0  0  2  0  0  0  0  0  0  0  0  0
    5.9052  -15.4893   24.8538 N   0  0  0  0  0  0  0  0  0  0  0  0
    8.1799  -15.8916   25.3611 C   0  0  0  0  0  0  0  0  0  0  0  0
    8.0151  -16.7059   26.2966 O   0  0  0  0  0  0  0  0  0  0  0  0
    9.4215  -15.9372   24.6595 N   0  0  0  0  0  0  0  0  0  0  0  0
   10.4337  -16.9208   25.0094 C   0  0  1  0  0  0  0  0  0  0  0  0
   11.5360  -16.9070   23.9935 C   0  0  0  0  0  0  0  0  0  0  0  0
   11.2041  -17.5226   22.6686 C   0  0  0  0  0  0  0  0  0  0  0  0
   12.3935  -17.2753   21.7946 C   0  0  0  0  0  0  0  0  0  0  0  0
   13.5058  -17.8277   22.0019 O   0  0  0  0  0  0  0  0  0  0  0  0
   11.0864  -16.5336   26.3065 C   0  0  0  0  0  0  0  0  0  0  0  0
   11.4887  -15.3483   26.4524 O   0  0  0  0  0  0  0  0  0  0  0  0
   12.2603  -16.4070   20.7259 O   0  0  0  0  0  0  0  0  0  0  0  0
   10.8260  -15.8833   29.1420 C   0  0  0  0  0  0  0  0  0  0  0  0
   11.8052  -16.9618   28.6735 C   0  0  2  0  0  0  0  0  0  0  0  0
   11.2837  -17.4267   27.3901 N   0  0  0  0  0  0  0  0  0  0  0  0
   11.9016  -17.9986   29.6917 C   0  0  0  0  0  0  0  0  0  0  0  0
   12.5651  -17.7609   30.8801 O   0  0  0  0  0  0  0  0  0  0  0  0
   11.3871  -19.1334   29.5222 O   0  0  0  0  0  0  0  0  0  0  0  0
  2  1  1  6
  2  4  1  0
  2  3  1  0
  5  7  1  0
  5  6  1  1
  5  4  1  0
  7  8  2  0
  9 10  1  0
  9  7  1  0
 10 11  1  6
 12 11  1  0
 13 14  2  0
 13 12  1  0
 15 16  2  0
 15 10  1  0
 17 13  1  0
 19 18  1  1
 19 20  1  0
 19 21  1  0
 20 15  1  0
 21 23  2  0
 21 22  1  0
M  END
$$$$
