GPH.pdb
     RDKit          3D

 22 23  0  0  1  0  0  0  0  0999 V2000
    6.2553  -18.0981   19.1245 N   0  0  0  0  0  0  0  0  0  0  0  0
    6.0215  -16.9384   19.9420 C   0  0  0  0  0  0  0  0  0  0  0  0
    7.3067  -16.4079   20.4689 C   0  0  0  0  0  0  0  0  0  0  0  0
    8.0405  -17.1698   21.1272 O   0  0  0  0  0  0  0  0  0  0  0  0
    7.7012  -15.0463   20.2283 N   0  0  0  0  0  0  0  0  0  0  0  0
    7.0356  -14.1031   19.3661 C   0  0  0  0  0  0  0  0  0  0  0  0
    7.1946  -12.7988   20.1013 C   0  0  0  0  0  0  0  0  0  0  0  0
    8.6965  -12.8968   20.4349 C   0  0  0  0  0  0  0  0  0  0  0  0
    8.8396  -14.3817   20.8035 C   0  0  1  0  0  0  0  0  0  0  0  0
    8.9306  -14.5262   22.2796 C   0  0  0  0  0  0  0  0  0  0  0  0
    8.0888  -13.9601   22.9913 O   0  0  0  0  0  0  0  0  0  0  0  0
    9.9711  -15.3032   22.8435 N   0  0  0  0  0  0  0  0  0  0  0  0
   10.1046  -15.4287   24.2957 C   0  0  1  0  0  0  0  0  0  0  0  0
    8.7965  -16.0758   24.7646 C   0  0  0  0  0  0  0  0  0  0  0  0
    7.8115  -15.0619   25.1924 C   0  0  0  0  0  0  0  0  0  0  0  0
    8.0716  -13.7492   25.5064 C   0  0  0  0  0  0  0  0  0  0  0  0
    6.8855  -13.1937   25.8418 N   0  0  0  0  0  0  0  0  0  0  0  0
    5.9393  -14.1216   25.7390 C   0  0  0  0  0  0  0  0  0  0  0  0
    6.5033  -15.2792   25.3382 N   0  0  0  0  0  0  0  0  0  0  0  0
   11.2696  -16.2731   24.6473 C   0  0  0  0  0  0  0  0  0  0  0  0
   11.5658  -16.4365   25.8376 O   0  0  0  0  0  0  0  0  0  0  0  0
   12.0315  -16.8814   23.6704 O   0  0  0  0  0  0  0  0  0  0  0  0
  2  1  1  0
  2  3  1  0
  3  4  2  0
  5  3  1  0
  5  6  1  0
  7  6  1  0
  8  7  1  0
  9  8  1  0
  9  5  1  0
  9 10  1  1
 11 10  2  0
 12 10  1  0
 13 14  1  6
 13 12  1  0
 14 15  1  0
 15 16  2  0
 17 16  1  0
 18 17  1  0
 19 18  2  0
 19 15  1  0
 20 13  1  0
 20 22  1  0
 21 20  2  0
M  END
$$$$
