GPH.pdb
     RDKit          3D

 22 23  0  0  1  0  0  0  0  0999 V2000
    7.1126  -12.6317   19.6514 N   0  0  0  0  0  0  0  0  0  0  0  0
    8.2718  -13.4824   19.6298 C   0  0  0  0  0  0  0  0  0  0  0  0
    8.2479  -14.4206   20.7831 C   0  0  0  0  0  0  0  0  0  0  0  0
    7.9855  -13.9680   21.9139 O   0  0  0  0  0  0  0  0  0  0  0  0
    8.5206  -15.8211   20.6055 N   0  0  0  0  0  0  0  0  0  0  0  0
    8.6221  -16.5196   19.3495 C   0  0  0  0  0  0  0  0  0  0  0  0
    9.7114  -17.5268   19.6071 C   0  0  0  0  0  0  0  0  0  0  0  0
    9.2193  -18.0652   20.9653 C   0  0  0  0  0  0  0  0  0  0  0  0
    8.7357  -16.7803   21.6554 C   0  0  1  0  0  0  0  0  0  0  0  0
    9.7362  -16.3450   22.6642 C   0  0  0  0  0  0  0  0  0  0  0  0
   10.4280  -15.3439   22.4304 O   0  0  0  0  0  0  0  0  0  0  0  0
    9.8805  -17.0773   23.8672 N   0  0  0  0  0  0  0  0  0  0  0  0
   10.3621  -16.4231   25.0848 C   0  0  1  0  0  0  0  0  0  0  0  0
    9.2210  -15.4970   25.5210 C   0  0  0  0  0  0  0  0  0  0  0  0
    9.4853  -14.8946   26.8434 C   0  0  0  0  0  0  0  0  0  0  0  0
   10.6195  -15.0536   27.6034 C   0  0  0  0  0  0  0  0  0  0  0  0
   10.4309  -14.3283   28.7287 N   0  0  0  0  0  0  0  0  0  0  0  0
    9.2360  -13.7498   28.6641 C   0  0  0  0  0  0  0  0  0  0  0  0
    8.6450  -14.0947   27.5020 N   0  0  0  0  0  0  0  0  0  0  0  0
   10.6654  -17.4218   26.1356 C   0  0  0  0  0  0  0  0  0  0  0  0
   11.7143  -17.3230   26.7847 O   0  0  0  0  0  0  0  0  0  0  0  0
    9.7985  -18.4617   26.4042 O   0  0  0  0  0  0  0  0  0  0  0  0
  2  1  1  0
  2  3  1  0
  3  4  2  0
  5  3  1  0
  5  6  1  0
  7  6  1  0
  8  7  1  0
  9  8  1  0
  9  5  1  0
  9 10  1  1
 11 10  2  0
 12 10  1  0
 13 14  1  1
 13 12  1  0
 14 15  1  0
 15 16  2  0
 17 16  1  0
 18 17  1  0
 19 18  2  0
 19 15  1  0
 20 13  1  0
 20 22  1  0
 21 20  2  0
M  END
$$$$
