GPH.pdb
     RDKit          3D

 22 23  0  0  1  0  0  0  0  0999 V2000
    8.7094  -14.8995   15.1299 N   0  0  0  0  0  0  0  0  0  0  0  0
    7.9545  -15.0364   16.3462 C   0  0  0  0  0  0  0  0  0  0  0  0
    8.8607  -15.0085   17.5247 C   0  0  0  0  0  0  0  0  0  0  0  0
    9.8588  -15.7544   17.5265 O   0  0  0  0  0  0  0  0  0  0  0  0
    8.5978  -14.1426   18.6419 N   0  0  0  0  0  0  0  0  0  0  0  0
    7.6053  -13.0998   18.7003 C   0  0  0  0  0  0  0  0  0  0  0  0
    7.1254  -13.1659   20.1259 C   0  0  0  0  0  0  0  0  0  0  0  0
    8.4937  -13.2261   20.8336 C   0  0  0  0  0  0  0  0  0  0  0  0
    9.2864  -14.1589   19.9046 C   0  0  1  0  0  0  0  0  0  0  0  0
    9.3822  -15.5110   20.5134 C   0  0  0  0  0  0  0  0  0  0  0  0
    8.7853  -16.4549   19.9764 O   0  0  0  0  0  0  0  0  0  0  0  0
   10.1490  -15.6959   21.6891 N   0  0  0  0  0  0  0  0  0  0  0  0
   11.0406  -16.8488   21.8237 C   0  0  1  0  0  0  0  0  0  0  0  0
   12.1556  -16.6160   20.7979 C   0  0  0  0  0  0  0  0  0  0  0  0
   12.1072  -17.6107   19.7073 C   0  0  0  0  0  0  0  0  0  0  0  0
   11.1961  -18.6307   19.5696 C   0  0  0  0  0  0  0  0  0  0  0  0
   11.5267  -19.2885   18.4356 N   0  0  0  0  0  0  0  0  0  0  0  0
   12.5919  -18.7006   17.9003 C   0  0  0  0  0  0  0  0  0  0  0  0
   12.9569  -17.6628   18.6802 N   0  0  0  0  0  0  0  0  0  0  0  0
   11.5917  -16.9321   23.1960 C   0  0  0  0  0  0  0  0  0  0  0  0
   11.3638  -17.9352   23.8837 O   0  0  0  0  0  0  0  0  0  0  0  0
   12.3556  -15.9100   23.7221 O   0  0  0  0  0  0  0  0  0  0  0  0
  2  1  1  0
  2  3  1  0
  3  4  2  0
  5  3  1  0
  5  6  1  0
  7  6  1  0
  8  7  1  0
  9  8  1  0
  9  5  1  0
  9 10  1  1
 11 10  2  0
 12 10  1  0
 13 14  1  6
 13 12  1  0
 14 15  1  0
 15 16  2  0
 17 16  1  0
 18 17  1  0
 19 18  2  0
 19 15  1  0
 20 13  1  0
 20 22  1  0
 21 20  2  0
M  END
$$$$
