GPH.pdb
     RDKit          3D

 22 23  0  0  1  0  0  0  0  0999 V2000
    7.7399  -12.0430   19.4070 N   0  0  0  0  0  0  0  0  0  0  0  0
    8.6452  -13.1222   19.6962 C   0  0  0  0  0  0  0  0  0  0  0  0
    8.1899  -13.8736   20.8958 C   0  0  0  0  0  0  0  0  0  0  0  0
    7.9672  -13.2411   21.9458 O   0  0  0  0  0  0  0  0  0  0  0  0
    8.0083  -15.2992   20.8529 N   0  0  0  0  0  0  0  0  0  0  0  0
    8.1038  -16.1385   19.6857 C   0  0  0  0  0  0  0  0  0  0  0  0
    8.7266  -17.3996   20.2231 C   0  0  0  0  0  0  0  0  0  0  0  0
    7.8387  -17.5896   21.4690 C   0  0  0  0  0  0  0  0  0  0  0  0
    7.6912  -16.1451   21.9721 C   0  0  1  0  0  0  0  0  0  0  0  0
    8.5725  -15.9309   23.1492 C   0  0  0  0  0  0  0  0  0  0  0  0
    9.7830  -15.7397   22.9660 O   0  0  0  0  0  0  0  0  0  0  0  0
    8.0169  -15.9489   24.4513 N   0  0  0  0  0  0  0  0  0  0  0  0
    8.8636  -15.7344   25.6259 C   0  0  1  0  0  0  0  0  0  0  0  0
    7.9134  -15.2331   26.7194 C   0  0  0  0  0  0  0  0  0  0  0  0
    7.3618  -13.9027   26.3920 C   0  0  0  0  0  0  0  0  0  0  0  0
    8.0424  -12.8509   25.8264 C   0  0  0  0  0  0  0  0  0  0  0  0
    7.1529  -11.8398   25.7066 N   0  0  0  0  0  0  0  0  0  0  0  0
    5.9793  -12.2503   26.1767 C   0  0  0  0  0  0  0  0  0  0  0  0
    6.0999  -13.5243   26.6023 N   0  0  0  0  0  0  0  0  0  0  0  0
    9.5259  -16.9942   26.0358 C   0  0  0  0  0  0  0  0  0  0  0  0
    9.1344  -18.0692   25.5642 O   0  0  0  0  0  0  0  0  0  0  0  0
   10.5729  -16.9908   26.9351 O   0  0  0  0  0  0  0  0  0  0  0  0
  2  1  1  0
  2  3  1  0
  3  4  2  0
  5  3  1  0
  5  6  1  0
  7  6  1  0
  8  7  1  0
  9  8  1  0
  9  5  1  0
  9 10  1  1
 11 10  2  0
 12 10  1  0
 13 14  1  1
 13 12  1  0
 14 15  1  0
 15 16  2  0
 17 16  1  0
 18 17  1  0
 19 18  2  0
 19 15  1  0
 20 13  1  0
 20 22  1  0
 21 20  2  0
M  END
$$$$
