GPH.pdb
     RDKit          3D

 22 23  0  0  1  0  0  0  0  0999 V2000
    8.8354  -15.5627   15.3880 N   0  0  0  0  0  0  0  0  0  0  0  0
    8.0251  -15.5135   16.5749 C   0  0  0  0  0  0  0  0  0  0  0  0
    8.8822  -15.3821   17.7828 C   0  0  0  0  0  0  0  0  0  0  0  0
    9.8132  -16.1943   17.9438 O   0  0  0  0  0  0  0  0  0  0  0  0
    8.6482  -14.3430   18.7486 N   0  0  0  0  0  0  0  0  0  0  0  0
    7.7486  -13.2271   18.6027 C   0  0  0  0  0  0  0  0  0  0  0  0
    7.2043  -13.0443   19.9946 C   0  0  0  0  0  0  0  0  0  0  0  0
    8.5308  -13.1089   20.7776 C   0  0  0  0  0  0  0  0  0  0  0  0
    9.2782  -14.2284   20.0365 C   0  0  1  0  0  0  0  0  0  0  0  0
    9.2299  -15.4796   20.8367 C   0  0  0  0  0  0  0  0  0  0  0  0
    8.3612  -16.3246   20.5779 O   0  0  0  0  0  0  0  0  0  0  0  0
   10.1714  -15.6829   21.8743 N   0  0  0  0  0  0  0  0  0  0  0  0
   10.8525  -16.9702   22.0210 C   0  0  1  0  0  0  0  0  0  0  0  0
   11.6805  -17.1343   20.7414 C   0  0  0  0  0  0  0  0  0  0  0  0
   12.4116  -18.4175   20.7280 C   0  0  0  0  0  0  0  0  0  0  0  0
   12.1397  -19.5227   21.4987 C   0  0  0  0  0  0  0  0  0  0  0  0
   13.0533  -20.4598   21.1596 N   0  0  0  0  0  0  0  0  0  0  0  0
   13.8505  -19.9548   20.2236 C   0  0  0  0  0  0  0  0  0  0  0  0
   13.4606  -18.6928   19.9511 N   0  0  0  0  0  0  0  0  0  0  0  0
   11.7227  -16.9730   23.2195 C   0  0  0  0  0  0  0  0  0  0  0  0
   11.5982  -17.8726   24.0600 O   0  0  0  0  0  0  0  0  0  0  0  0
   12.6707  -15.9895   23.4160 O   0  0  0  0  0  0  0  0  0  0  0  0
  2  1  1  0
  2  3  1  0
  3  4  2  0
  5  3  1  0
  5  6  1  0
  7  6  1  0
  8  7  1  0
  9  8  1  0
  9  5  1  0
  9 10  1  1
 11 10  2  0
 12 10  1  0
 13 14  1  6
 13 12  1  0
 14 15  1  0
 15 16  2  0
 17 16  1  0
 18 17  1  0
 19 18  2  0
 19 15  1  0
 20 13  1  0
 20 22  1  0
 21 20  2  0
M  END
$$$$
