GPH.pdb
     RDKit          3D

 22 23  0  0  1  0  0  0  0  0999 V2000
   10.6500  -15.1148   16.1072 N   0  0  0  0  0  0  0  0  0  0  0  0
    9.4934  -15.3439   16.9304 C   0  0  0  0  0  0  0  0  0  0  0  0
    9.7645  -14.9291   18.3324 C   0  0  0  0  0  0  0  0  0  0  0  0
   10.8267  -15.2991   18.8682 O   0  0  0  0  0  0  0  0  0  0  0  0
    8.8262  -14.1189   19.0605 N   0  0  0  0  0  0  0  0  0  0  0  0
    7.6913  -13.4220   18.5107 C   0  0  0  0  0  0  0  0  0  0  0  0
    6.6563  -13.5462   19.5972 C   0  0  0  0  0  0  0  0  0  0  0  0
    7.5309  -13.1500   20.8034 C   0  0  0  0  0  0  0  0  0  0  0  0
    8.8568  -13.8532   20.4738 C   0  0  1  0  0  0  0  0  0  0  0  0
    8.9974  -15.0757   21.3067 C   0  0  0  0  0  0  0  0  0  0  0  0
    8.4863  -16.1333   20.9119 O   0  0  0  0  0  0  0  0  0  0  0  0
    9.7084  -15.0110   22.5293 N   0  0  0  0  0  0  0  0  0  0  0  0
    9.8507  -16.1989   23.3725 C   0  0  1  0  0  0  0  0  0  0  0  0
   10.9397  -15.8407   24.3902 C   0  0  0  0  0  0  0  0  0  0  0  0
   11.1536  -16.9306   25.3636 C   0  0  0  0  0  0  0  0  0  0  0  0
   11.9734  -18.0222   25.2032 C   0  0  0  0  0  0  0  0  0  0  0  0
   11.8621  -18.7539   26.3347 N   0  0  0  0  0  0  0  0  0  0  0  0
   11.0131  -18.1409   27.1534 C   0  0  0  0  0  0  0  0  0  0  0  0
   10.5707  -17.0133   26.5608 N   0  0  0  0  0  0  0  0  0  0  0  0
    8.5744  -16.5192   24.0524 C   0  0  0  0  0  0  0  0  0  0  0  0
    7.7270  -15.6306   24.2062 O   0  0  0  0  0  0  0  0  0  0  0  0
    8.3129  -17.7918   24.5180 O   0  0  0  0  0  0  0  0  0  0  0  0
  2  1  1  0
  2  3  1  0
  3  4  2  0
  5  3  1  0
  5  6  1  0
  7  6  1  0
  8  7  1  0
  9  8  1  0
  9  5  1  0
  9 10  1  1
 11 10  2  0
 12 10  1  0
 13 14  1  1
 13 12  1  0
 14 15  1  0
 15 16  2  0
 17 16  1  0
 18 17  1  0
 19 18  2  0
 19 15  1  0
 20 13  1  0
 20 22  1  0
 21 20  2  0
M  END
$$$$
