GPH.pdb
     RDKit          3D

 22 23  0  0  1  0  0  0  0  0999 V2000
    8.0864  -17.3633   16.8289 N   0  0  0  0  0  0  0  0  0  0  0  0
    7.3196  -16.5982   17.7747 C   0  0  0  0  0  0  0  0  0  0  0  0
    8.1934  -16.1036   18.8714 C   0  0  0  0  0  0  0  0  0  0  0  0
    8.8556  -16.9321   19.5251 O   0  0  0  0  0  0  0  0  0  0  0  0
    8.2776  -14.7012   19.1770 N   0  0  0  0  0  0  0  0  0  0  0  0
    7.7262  -13.6218   18.3980 C   0  0  0  0  0  0  0  0  0  0  0  0
    7.2790  -12.6386   19.4470 C   0  0  0  0  0  0  0  0  0  0  0  0
    8.5465  -12.6360   20.3244 C   0  0  0  0  0  0  0  0  0  0  0  0
    8.9360  -14.1224   20.3173 C   0  0  1  0  0  0  0  0  0  0  0  0
    8.5509  -14.7486   21.6087 C   0  0  0  0  0  0  0  0  0  0  0  0
    7.3488  -14.9071   21.8642 O   0  0  0  0  0  0  0  0  0  0  0  0
    9.5581  -15.1506   22.5188 N   0  0  0  0  0  0  0  0  0  0  0  0
    9.2063  -15.8223   23.7709 C   0  0  1  0  0  0  0  0  0  0  0  0
    8.4281  -17.0741   23.3499 C   0  0  0  0  0  0  0  0  0  0  0  0
    8.1216  -17.9384   24.5076 C   0  0  0  0  0  0  0  0  0  0  0  0
    8.4122  -17.6754   25.8251 C   0  0  0  0  0  0  0  0  0  0  0  0
    7.9548  -18.7307   26.5358 N   0  0  0  0  0  0  0  0  0  0  0  0
    7.4081  -19.6027   25.6946 C   0  0  0  0  0  0  0  0  0  0  0  0
    7.5071  -19.1205   24.4391 N   0  0  0  0  0  0  0  0  0  0  0  0
   10.4224  -16.1858   24.5342 C   0  0  0  0  0  0  0  0  0  0  0  0
   11.5102  -16.2569   23.9485 O   0  0  0  0  0  0  0  0  0  0  0  0
   10.3643  -16.4470   25.8882 O   0  0  0  0  0  0  0  0  0  0  0  0
  2  1  1  0
  2  3  1  0
  3  4  2  0
  5  3  1  0
  5  6  1  0
  7  6  1  0
  8  7  1  0
  9  8  1  0
  9  5  1  0
  9 10  1  1
 11 10  2  0
 12 10  1  0
 13 14  1  6
 13 12  1  0
 14 15  1  0
 15 16  2  0
 17 16  1  0
 18 17  1  0
 19 18  2  0
 19 15  1  0
 20 13  1  0
 20 22  1  0
 21 20  2  0
M  END
$$$$
