FCW.pdb
     RDKit          3D

 32 34  0  0  1  0  0  0  0  0999 V2000
    8.5509  -16.3306   17.3919 N   0  0  0  0  0  0  0  0  0  0  0  0
    9.6360  -16.3779   18.3381 C   0  0  1  0  0  0  0  0  0  0  0  0
   10.1687  -14.9851   18.5533 C   0  0  0  0  0  0  0  0  0  0  0  0
    9.1902  -14.1134   19.2416 C   0  0  0  0  0  0  0  0  0  0  0  0
    8.2216  -13.4229   18.5347 C   0  0  0  0  0  0  0  0  0  0  0  0
    7.3057  -12.6039   19.1522 C   0  0  0  0  0  0  0  0  0  0  0  0
    7.3218  -12.4391   20.5277 C   0  0  0  0  0  0  0  0  0  0  0  0
    8.2721  -13.1142   21.2405 C   0  0  0  0  0  0  0  0  0  0  0  0
    9.2027  -13.9470   20.6089 C   0  0  0  0  0  0  0  0  0  0  0  0
    9.1124  -16.8859   19.6325 C   0  0  0  0  0  0  0  0  0  0  0  0
    7.9690  -17.4160   19.6943 O   0  0  0  0  0  0  0  0  0  0  0  0
    9.8597  -16.7989   20.8349 N   0  0  0  0  0  0  0  0  0  0  0  0
    9.4112  -17.4720   22.0325 C   0  0  1  0  0  0  0  0  0  0  0  0
    9.3056  -18.9465   21.8224 C   0  0  0  0  0  0  0  0  0  0  0  0
   10.8530  -19.7458   21.3937 S   0  0  0  0  0  0  0  0  0  0  0  0
   10.2359  -17.0885   23.2120 C   0  0  0  0  0  0  0  0  0  0  0  0
   11.4935  -16.9829   23.1583 O   0  0  0  0  0  0  0  0  0  0  0  0
    9.5788  -16.8326   24.4400 N   0  0  0  0  0  0  0  0  0  0  0  0
   10.3300  -16.5109   25.6693 C   0  0  1  0  0  0  0  0  0  0  0  0
    9.8992  -15.1978   26.2122 C   0  0  0  0  0  0  0  0  0  0  0  0
    8.4539  -14.9754   26.1820 C   0  0  0  0  0  0  0  0  0  0  0  0
    7.4800  -15.9606   26.1337 C   0  0  0  0  0  0  0  0  0  0  0  0
    6.2712  -15.3807   26.0824 N   0  0  0  0  0  0  0  0  0  0  0  0
    6.4208  -14.0391   26.0962 C   0  0  0  0  0  0  0  0  0  0  0  0
    5.4970  -13.0116   26.0739 C   0  0  0  0  0  0  0  0  0  0  0  0
    5.9543  -11.7242   26.1164 C   0  0  0  0  0  0  0  0  0  0  0  0
    7.2893  -11.4520   26.1794 C   0  0  0  0  0  0  0  0  0  0  0  0
    8.2150  -12.4528   26.2016 C   0  0  0  0  0  0  0  0  0  0  0  0
    7.7851  -13.7775   26.1587 C   0  0  0  0  0  0  0  0  0  0  0  0
   10.4072  -17.6506   26.5682 C   0  0  0  0  0  0  0  0  0  0  0  0
   11.1825  -17.7092   27.5530 O   0  0  0  0  0  0  0  0  0  0  0  0
    9.6039  -18.8036   26.4036 O   0  0  0  0  0  0  0  0  0  0  0  0
  2  1  1  6
  3  4  1  0
  3  2  1  0
  4  9  1  0
  4  5  2  0
  5  6  1  0
  6  7  2  0
  8  7  1  0
  9  8  2  0
 10 12  1  0
 10  2  1  0
 11 10  2  0
 13 14  1  6
 13 12  1  0
 15 14  1  0
 16 13  1  0
 17 16  2  0
 18 16  1  0
 19 18  1  0
 19 20  1  1
 20 21  1  0
 21 22  2  0
 22 23  1  0
 24 25  2  0
 24 23  1  0
 26 25  1  0
 27 26  2  0
 28 27  1  0
 28 29  2  0
 29 21  1  0
 29 24  1  0
 30 32  1  0
 30 19  1  0
 31 30  2  0
M  END
$$$$
