FCW.pdb
     RDKit          3D

 32 34  0  0  1  0  0  0  0  0999 V2000
    6.5867  -17.6892   19.8335 N   0  0  0  0  0  0  0  0  0  0  0  0
    7.4556  -16.6082   20.2230 C   0  0  1  0  0  0  0  0  0  0  0  0
    6.6210  -15.4194   20.6232 C   0  0  0  0  0  0  0  0  0  0  0  0
    7.4519  -14.2399   20.9540 C   0  0  0  0  0  0  0  0  0  0  0  0
    7.5715  -13.7880   22.2563 C   0  0  0  0  0  0  0  0  0  0  0  0
    8.3336  -12.6920   22.5862 C   0  0  0  0  0  0  0  0  0  0  0  0
    9.0199  -11.9902   21.6086 C   0  0  0  0  0  0  0  0  0  0  0  0
    8.9123  -12.4237   20.3173 C   0  0  0  0  0  0  0  0  0  0  0  0
    8.1360  -13.5395   19.9849 C   0  0  0  0  0  0  0  0  0  0  0  0
    8.2506  -17.0421   21.4009 C   0  0  0  0  0  0  0  0  0  0  0  0
    7.7375  -17.7933   22.2753 O   0  0  0  0  0  0  0  0  0  0  0  0
    9.5967  -16.6383   21.5927 N   0  0  0  0  0  0  0  0  0  0  0  0
   10.4304  -17.2930   22.5750 C   0  0  1  0  0  0  0  0  0  0  0  0
   11.7948  -17.5694   22.0353 C   0  0  0  0  0  0  0  0  0  0  0  0
   11.9531  -17.3295   20.2648 S   0  0  0  0  0  0  0  0  0  0  0  0
   10.4316  -16.5516   23.8668 C   0  0  0  0  0  0  0  0  0  0  0  0
   10.7737  -15.3387   23.9556 O   0  0  0  0  0  0  0  0  0  0  0  0
   10.0320  -17.2382   25.0390 N   0  0  0  0  0  0  0  0  0  0  0  0
   10.2842  -16.6868   26.3849 C   0  0  1  0  0  0  0  0  0  0  0  0
    9.0635  -16.7872   27.2240 C   0  0  0  0  0  0  0  0  0  0  0  0
    7.8718  -16.1781   26.6339 C   0  0  0  0  0  0  0  0  0  0  0  0
    6.8330  -16.8562   26.0155 C   0  0  0  0  0  0  0  0  0  0  0  0
    5.9342  -15.9670   25.5666 N   0  0  0  0  0  0  0  0  0  0  0  0
    6.3512  -14.7201   25.8727 C   0  0  0  0  0  0  0  0  0  0  0  0
    5.7845  -13.4804   25.6457 C   0  0  0  0  0  0  0  0  0  0  0  0
    6.4439  -12.3710   26.0961 C   0  0  0  0  0  0  0  0  0  0  0  0
    7.6335  -12.4769   26.7549 C   0  0  0  0  0  0  0  0  0  0  0  0
    8.2076  -13.6915   26.9873 C   0  0  0  0  0  0  0  0  0  0  0  0
    7.5641  -14.8441   26.5415 C   0  0  0  0  0  0  0  0  0  0  0  0
   11.5499  -17.1501   26.9293 C   0  0  0  0  0  0  0  0  0  0  0  0
   12.0157  -16.7684   28.0300 O   0  0  0  0  0  0  0  0  0  0  0  0
   12.3722  -18.0818   26.2527 O   0  0  0  0  0  0  0  0  0  0  0  0
  2  1  1  1
  3  4  1  0
  3  2  1  0
  4  9  1  0
  4  5  2  0
  5  6  1  0
  6  7  2  0
  8  7  1  0
  9  8  2  0
 10 12  1  0
 10  2  1  0
 11 10  2  0
 13 14  1  6
 13 12  1  0
 15 14  1  0
 16 13  1  0
 17 16  2  0
 18 16  1  0
 19 18  1  0
 19 20  1  1
 20 21  1  0
 21 22  2  0
 22 23  1  0
 24 25  2  0
 24 23  1  0
 26 25  1  0
 27 26  2  0
 28 27  1  0
 28 29  2  0
 29 21  1  0
 29 24  1  0
 30 32  1  0
 30 19  1  0
 31 30  2  0
M  END
$$$$
