FCW.pdb
     RDKit          3D

 32 34  0  0  1  0  0  0  0  0999 V2000
    7.4750  -17.3023   20.1252 N   0  0  0  0  0  0  0  0  0  0  0  0
    8.5163  -16.5682   20.7975 C   0  0  1  0  0  0  0  0  0  0  0  0
    7.9026  -15.4271   21.5667 C   0  0  0  0  0  0  0  0  0  0  0  0
    7.7425  -14.2144   20.7332 C   0  0  0  0  0  0  0  0  0  0  0  0
    6.5745  -13.9743   20.0313 C   0  0  0  0  0  0  0  0  0  0  0  0
    6.4053  -12.8575   19.2471 C   0  0  0  0  0  0  0  0  0  0  0  0
    7.4166  -11.9177   19.1308 C   0  0  0  0  0  0  0  0  0  0  0  0
    8.5767  -12.1400   19.8178 C   0  0  0  0  0  0  0  0  0  0  0  0
    8.7456  -13.2776   20.6151 C   0  0  0  0  0  0  0  0  0  0  0  0
    9.1881  -17.4773   21.7618 C   0  0  0  0  0  0  0  0  0  0  0  0
    8.5718  -18.4697   22.2387 O   0  0  0  0  0  0  0  0  0  0  0  0
   10.5272  -17.2740   22.1829 N   0  0  0  0  0  0  0  0  0  0  0  0
   11.0503  -17.9666   23.3385 C   0  0  1  0  0  0  0  0  0  0  0  0
   12.3504  -18.6339   23.0322 C   0  0  0  0  0  0  0  0  0  0  0  0
   13.1287  -18.0774   21.5151 S   0  0  0  0  0  0  0  0  0  0  0  0
   11.0961  -17.0752   24.5309 C   0  0  0  0  0  0  0  0  0  0  0  0
   11.5936  -15.9146   24.4949 O   0  0  0  0  0  0  0  0  0  0  0  0
   10.5588  -17.5525   25.7510 N   0  0  0  0  0  0  0  0  0  0  0  0
   10.7251  -16.8091   27.0153 C   0  0  1  0  0  0  0  0  0  0  0  0
   10.2912  -15.3989   26.8492 C   0  0  0  0  0  0  0  0  0  0  0  0
    8.8530  -15.2286   26.6443 C   0  0  0  0  0  0  0  0  0  0  0  0
    7.9425  -16.2414   26.3860 C   0  0  0  0  0  0  0  0  0  0  0  0
    6.7240  -15.7046   26.2211 N   0  0  0  0  0  0  0  0  0  0  0  0
    6.8054  -14.3647   26.3643 C   0  0  0  0  0  0  0  0  0  0  0  0
    5.8437  -13.3743   26.3027 C   0  0  0  0  0  0  0  0  0  0  0  0
    6.2287  -12.0793   26.5109 C   0  0  0  0  0  0  0  0  0  0  0  0
    7.5295  -11.7643   26.7738 C   0  0  0  0  0  0  0  0  0  0  0  0
    8.4917  -12.7280   26.8378 C   0  0  0  0  0  0  0  0  0  0  0  0
    8.1357  -14.0589   26.6298 C   0  0  0  0  0  0  0  0  0  0  0  0
   10.2323  -17.5653   28.1547 C   0  0  0  0  0  0  0  0  0  0  0  0
   10.3154  -17.1685   29.3421 O   0  0  0  0  0  0  0  0  0  0  0  0
    9.6105  -18.8286   28.0163 O   0  0  0  0  0  0  0  0  0  0  0  0
  2  1  1  1
  3  4  1  0
  3  2  1  0
  4  9  1  0
  4  5  2  0
  5  6  1  0
  6  7  2  0
  8  7  1  0
  9  8  2  0
 10 12  1  0
 10  2  1  0
 11 10  2  0
 13 14  1  6
 13 12  1  0
 15 14  1  0
 16 13  1  0
 17 16  2  0
 18 16  1  0
 19 18  1  0
 19 20  1  6
 20 21  1  0
 21 22  2  0
 22 23  1  0
 24 25  2  0
 24 23  1  0
 26 25  1  0
 27 26  2  0
 28 27  1  0
 28 29  2  0
 29 21  1  0
 29 24  1  0
 30 32  1  0
 30 19  1  0
 31 30  2  0
M  END
$$$$
