FCW.pdb
     RDKit          3D

 32 34  0  0  1  0  0  0  0  0999 V2000
    6.2862  -17.1526   21.2254 N   0  0  0  0  0  0  0  0  0  0  0  0
    7.6993  -16.9926   21.4547 C   0  0  1  0  0  0  0  0  0  0  0  0
    7.9496  -15.6536   22.0988 C   0  0  0  0  0  0  0  0  0  0  0  0
    7.9503  -14.5507   21.1116 C   0  0  0  0  0  0  0  0  0  0  0  0
    7.5352  -13.2769   21.4575 C   0  0  0  0  0  0  0  0  0  0  0  0
    7.5226  -12.2385   20.5561 C   0  0  0  0  0  0  0  0  0  0  0  0
    7.9324  -12.4358   19.2475 C   0  0  0  0  0  0  0  0  0  0  0  0
    8.3455  -13.6881   18.8897 C   0  0  0  0  0  0  0  0  0  0  0  0
    8.3571  -14.7427   19.8096 C   0  0  0  0  0  0  0  0  0  0  0  0
    8.1495  -18.0555   22.3902 C   0  0  0  0  0  0  0  0  0  0  0  0
    7.7922  -19.2529   22.2150 O   0  0  0  0  0  0  0  0  0  0  0  0
    8.9848  -17.7774   23.5023 N   0  0  0  0  0  0  0  0  0  0  0  0
   10.3449  -17.3286   23.3092 C   0  0  1  0  0  0  0  0  0  0  0  0
   10.4447  -16.3625   22.1751 C   0  0  0  0  0  0  0  0  0  0  0  0
   11.9803  -16.4592   21.2533 S   0  0  0  0  0  0  0  0  0  0  0  0
   10.9374  -16.8288   24.5811 C   0  0  0  0  0  0  0  0  0  0  0  0
   12.1626  -16.5436   24.6959 O   0  0  0  0  0  0  0  0  0  0  0  0
   10.0887  -16.6684   25.7033 N   0  0  0  0  0  0  0  0  0  0  0  0
   10.6240  -16.3471   27.0409 C   0  0  1  0  0  0  0  0  0  0  0  0
    9.7872  -15.3129   27.7001 C   0  0  0  0  0  0  0  0  0  0  0  0
    8.4182  -15.2283   27.1923 C   0  0  0  0  0  0  0  0  0  0  0  0
    7.5759  -16.3002   26.9416 C   0  0  0  0  0  0  0  0  0  0  0  0
    6.4146  -15.8405   26.4515 N   0  0  0  0  0  0  0  0  0  0  0  0
    6.4672  -14.4939   26.3728 C   0  0  0  0  0  0  0  0  0  0  0  0
    5.5376  -13.5612   25.9537 C   0  0  0  0  0  0  0  0  0  0  0  0
    5.8750  -12.2376   26.0047 C   0  0  0  0  0  0  0  0  0  0  0  0
    7.0983  -11.8389   26.4573 C   0  0  0  0  0  0  0  0  0  0  0  0
    8.0281  -12.7449   26.8742 C   0  0  0  0  0  0  0  0  0  0  0  0
    7.7190  -14.1029   26.8353 C   0  0  0  0  0  0  0  0  0  0  0  0
   10.9728  -17.5463   27.7847 C   0  0  0  0  0  0  0  0  0  0  0  0
   11.5841  -17.5327   28.8804 O   0  0  0  0  0  0  0  0  0  0  0  0
   10.6477  -18.8452   27.3275 O   0  0  0  0  0  0  0  0  0  0  0  0
  2  1  1  1
  3  4  1  0
  3  2  1  0
  4  9  1  0
  4  5  2  0
  5  6  1  0
  6  7  2  0
  8  7  1  0
  9  8  2  0
 10 12  1  0
 10  2  1  0
 11 10  2  0
 13 14  1  6
 13 12  1  0
 15 14  1  0
 16 13  1  0
 17 16  2  0
 18 16  1  0
 19 18  1  0
 19 20  1  1
 20 21  1  0
 21 22  2  0
 22 23  1  0
 24 25  2  0
 24 23  1  0
 26 25  1  0
 27 26  2  0
 28 27  1  0
 28 29  2  0
 29 21  1  0
 29 24  1  0
 30 32  1  0
 30 19  1  0
 31 30  2  0
M  END
$$$$
