FCW.pdb
     RDKit          3D

 32 34  0  0  1  0  0  0  0  0999 V2000
    8.4226  -18.7420   20.8909 N   0  0  0  0  0  0  0  0  0  0  0  0
    8.5641  -17.4678   20.2339 C   0  0  1  0  0  0  0  0  0  0  0  0
    7.2419  -16.7458   20.2598 C   0  0  0  0  0  0  0  0  0  0  0  0
    7.3350  -15.3896   19.6740 C   0  0  0  0  0  0  0  0  0  0  0  0
    7.0197  -14.2641   20.4147 C   0  0  0  0  0  0  0  0  0  0  0  0
    7.0941  -12.9953   19.8901 C   0  0  0  0  0  0  0  0  0  0  0  0
    7.4941  -12.7968   18.5786 C   0  0  0  0  0  0  0  0  0  0  0  0
    7.8091  -13.8980   17.8336 C   0  0  0  0  0  0  0  0  0  0  0  0
    7.7325  -15.1880   18.3706 C   0  0  0  0  0  0  0  0  0  0  0  0
    9.5571  -16.6568   20.9848 C   0  0  0  0  0  0  0  0  0  0  0  0
   10.3372  -15.8763   20.3728 O   0  0  0  0  0  0  0  0  0  0  0  0
    9.6717  -16.7226   22.3970 N   0  0  0  0  0  0  0  0  0  0  0  0
   10.4514  -15.7440   23.1202 C   0  0  1  0  0  0  0  0  0  0  0  0
   10.0333  -14.3521   22.7777 C   0  0  0  0  0  0  0  0  0  0  0  0
    8.6049  -13.7630   23.6886 S   0  0  0  0  0  0  0  0  0  0  0  0
   10.4592  -16.0288   24.5822 C   0  0  0  0  0  0  0  0  0  0  0  0
   11.1614  -15.3709   25.4005 O   0  0  0  0  0  0  0  0  0  0  0  0
    9.6447  -17.0799   25.0689 N   0  0  0  0  0  0  0  0  0  0  0  0
    9.7100  -17.5243   26.4750 C   0  0  1  0  0  0  0  0  0  0  0  0
    8.3755  -17.4149   27.1166 C   0  0  0  0  0  0  0  0  0  0  0  0
    7.6761  -16.1588   26.8475 C   0  0  0  0  0  0  0  0  0  0  0  0
    6.4858  -16.0238   26.1501 C   0  0  0  0  0  0  0  0  0  0  0  0
    6.1675  -14.7227   26.0731 N   0  0  0  0  0  0  0  0  0  0  0  0
    7.1151  -13.9952   26.7017 C   0  0  0  0  0  0  0  0  0  0  0  0
    7.2407  -12.6350   26.9109 C   0  0  0  0  0  0  0  0  0  0  0  0
    8.3222  -12.1816   27.6132 C   0  0  0  0  0  0  0  0  0  0  0  0
    9.2596  -13.0449   28.0992 C   0  0  0  0  0  0  0  0  0  0  0  0
    9.1524  -14.3898   27.9019 C   0  0  0  0  0  0  0  0  0  0  0  0
    8.0634  -14.8877   27.1896 C   0  0  0  0  0  0  0  0  0  0  0  0
   10.4563  -18.7640   26.6149 C   0  0  0  0  0  0  0  0  0  0  0  0
   10.6964  -19.3112   27.7182 O   0  0  0  0  0  0  0  0  0  0  0  0
   10.9808  -19.4643   25.5031 O   0  0  0  0  0  0  0  0  0  0  0  0
  2  1  1  1
  3  4  1  0
  3  2  1  0
  4  9  1  0
  4  5  2  0
  5  6  1  0
  6  7  2  0
  8  7  1  0
  9  8  2  0
 10 12  1  0
 10  2  1  0
 11 10  2  0
 13 14  1  1
 13 12  1  0
 15 14  1  0
 16 13  1  0
 17 16  2  0
 18 16  1  0
 19 18  1  0
 19 20  1  6
 20 21  1  0
 21 22  2  0
 22 23  1  0
 24 25  2  0
 24 23  1  0
 26 25  1  0
 27 26  2  0
 28 27  1  0
 28 29  2  0
 29 21  1  0
 29 24  1  0
 30 32  1  0
 30 19  1  0
 31 30  2  0
M  END
$$$$
