LIH.pdb
     RDKit          3D

 27 27  0  0  1  0  0  0  0  0999 V2000
    7.4292  -17.5518   19.3424 C   0  0  0  0  0  0  0  0  0  0  0  0
    6.3984  -17.5480   20.4315 C   0  0  1  0  0  0  0  0  0  0  0  0
    5.7799  -18.9272   20.4923 C   0  0  0  0  0  0  0  0  0  0  0  0
    6.9709  -17.1323   21.7690 C   0  0  0  0  0  0  0  0  0  0  0  0
    7.1311  -15.6288   21.7539 C   0  0  2  0  0  0  0  0  0  0  0  0
    7.7719  -15.2374   20.5153 N   0  0  0  0  0  0  0  0  0  0  0  0
    7.9773  -15.1417   22.8662 C   0  0  0  0  0  0  0  0  0  0  0  0
    9.2226  -15.0784   22.7311 O   0  0  0  0  0  0  0  0  0  0  0  0
    5.7819  -11.5504   26.3276 C   0  0  0  0  0  0  0  0  0  0  0  0
    6.8616  -12.2114   25.4686 C   0  0  0  0  0  0  0  0  0  0  0  0
    7.3895  -13.4494   26.1307 C   0  0  2  0  0  0  0  0  0  0  0  0
    8.1344  -13.0084   27.3789 C   0  0  0  0  0  0  0  0  0  0  0  0
    8.2173  -14.3306   25.2547 C   0  0  2  0  0  0  0  0  0  0  0  0
    7.4092  -14.7360   24.1063 N   0  0  0  0  0  0  0  0  0  0  0  0
    8.7278  -15.5148   25.9802 C   0  0  0  0  0  0  0  0  0  0  0  0
    7.9609  -16.4309   26.3653 O   0  0  0  0  0  0  0  0  0  0  0  0
   10.1056  -15.6929   26.2868 N   0  0  0  0  0  0  0  0  0  0  0  0
   10.6929  -16.9888   26.6067 C   0  0  1  0  0  0  0  0  0  0  0  0
   11.8990  -17.2720   25.7914 C   0  0  0  0  0  0  0  0  0  0  0  0
   12.5602  -18.5170   26.2153 C   0  0  0  0  0  0  0  0  0  0  0  0
   12.3339  -19.2392   27.3958 C   0  0  0  0  0  0  0  0  0  0  0  0
   13.1099  -20.3182   27.4529 N   0  0  0  0  0  0  0  0  0  0  0  0
   13.8419  -20.3092   26.3212 C   0  0  0  0  0  0  0  0  0  0  0  0
   13.5090  -19.2330   25.5886 N   0  0  0  0  0  0  0  0  0  0  0  0
   10.9946  -17.0751   28.0443 C   0  0  0  0  0  0  0  0  0  0  0  0
   10.9310  -16.0326   28.7410 O   0  0  0  0  0  0  0  0  0  0  0  0
   11.3364  -18.2600   28.6240 O   0  0  0  0  0  0  0  0  0  0  0  0
  2  3  1  1
  2  1  1  0
  4  2  1  0
  5  6  1  6
  5  4  1  0
  7  5  1  0
  8  7  2  0
 10  9  1  0
 11 10  1  0
 11 13  1  0
 11 12  1  1
 13 14  1  6
 14  7  1  0
 15 13  1  0
 15 16  2  0
 17 15  1  0
 18 17  1  0
 18 19  1  6
 20 19  1  0
 21 20  2  0
 22 21  1  0
 23 22  1  0
 23 24  2  0
 24 20  1  0
 25 18  1  0
 26 25  2  0
 27 25  1  0
M  END
$$$$
