LIH.pdb
     RDKit          3D

 27 27  0  0  1  0  0  0  0  0999 V2000
    7.2831  -12.4386   18.8148 C   0  0  0  0  0  0  0  0  0  0  0  0
    7.5552  -13.7412   19.5058 C   0  0  1  0  0  0  0  0  0  0  0  0
    8.1968  -14.6752   18.5037 C   0  0  0  0  0  0  0  0  0  0  0  0
    8.4117  -13.5730   20.7417 C   0  0  0  0  0  0  0  0  0  0  0  0
    8.3196  -14.8519   21.5433 C   0  0  2  0  0  0  0  0  0  0  0  0
    6.9253  -15.2176   21.6851 N   0  0  0  0  0  0  0  0  0  0  0  0
    8.8819  -14.7048   22.9045 C   0  0  0  0  0  0  0  0  0  0  0  0
   10.0959  -14.4304   23.0597 O   0  0  0  0  0  0  0  0  0  0  0  0
    6.1109  -11.8899   26.3245 C   0  0  0  0  0  0  0  0  0  0  0  0
    7.2315  -12.5799   25.5443 C   0  0  0  0  0  0  0  0  0  0  0  0
    7.6221  -13.8722   26.1977 C   0  0  2  0  0  0  0  0  0  0  0  0
    8.1356  -13.5358   27.5871 C   0  0  0  0  0  0  0  0  0  0  0  0
    8.5858  -14.7072   25.4209 C   0  0  2  0  0  0  0  0  0  0  0  0
    8.0712  -14.8687   24.0625 N   0  0  0  0  0  0  0  0  0  0  0  0
    8.8164  -16.0245   26.0539 C   0  0  0  0  0  0  0  0  0  0  0  0
    7.8647  -16.7894   26.3454 O   0  0  0  0  0  0  0  0  0  0  0  0
   10.1164  -16.5075   26.3711 N   0  0  0  0  0  0  0  0  0  0  0  0
   10.3579  -17.8008   26.9999 C   0  0  1  0  0  0  0  0  0  0  0  0
   11.6140  -18.4283   26.5222 C   0  0  0  0  0  0  0  0  0  0  0  0
   11.5757  -18.6839   25.0730 C   0  0  0  0  0  0  0  0  0  0  0  0
   10.4964  -18.4757   24.2023 C   0  0  0  0  0  0  0  0  0  0  0  0
   10.8143  -18.8160   22.9562 N   0  0  0  0  0  0  0  0  0  0  0  0
   12.0912  -19.2449   23.0028 C   0  0  0  0  0  0  0  0  0  0  0  0
   12.5384  -19.1633   24.2674 N   0  0  0  0  0  0  0  0  0  0  0  0
   10.3580  -17.6675   28.4652 C   0  0  0  0  0  0  0  0  0  0  0  0
   10.3832  -16.5181   28.9697 O   0  0  0  0  0  0  0  0  0  0  0  0
   10.3288  -18.7639   29.2740 O   0  0  0  0  0  0  0  0  0  0  0  0
  2  3  1  6
  2  1  1  0
  4  2  1  0
  5  6  1  1
  5  4  1  0
  7  5  1  0
  8  7  2  0
 10  9  1  0
 11 10  1  0
 11 13  1  0
 11 12  1  1
 13 14  1  6
 14  7  1  0
 15 13  1  0
 15 16  2  0
 17 15  1  0
 18 17  1  0
 18 19  1  6
 20 19  1  0
 21 20  2  0
 22 21  1  0
 23 22  1  0
 23 24  2  0
 24 20  1  0
 25 18  1  0
 26 25  2  0
 27 25  1  0
M  END
$$$$
