LIH.pdb
     RDKit          3D

 27 27  0  0  1  0  0  0  0  0999 V2000
    7.1569  -12.1948   18.7587 C   0  0  0  0  0  0  0  0  0  0  0  0
    7.4670  -13.5349   19.3559 C   0  0  1  0  0  0  0  0  0  0  0  0
    8.0613  -14.4031   18.2690 C   0  0  0  0  0  0  0  0  0  0  0  0
    8.3832  -13.4357   20.5561 C   0  0  0  0  0  0  0  0  0  0  0  0
    8.1976  -14.6889   21.3816 C   0  0  2  0  0  0  0  0  0  0  0  0
    6.7808  -14.9617   21.5089 N   0  0  0  0  0  0  0  0  0  0  0  0
    8.7487  -14.5494   22.7483 C   0  0  0  0  0  0  0  0  0  0  0  0
    9.9824  -14.4025   22.9194 O   0  0  0  0  0  0  0  0  0  0  0  0
    6.0351  -11.6195   26.2874 C   0  0  0  0  0  0  0  0  0  0  0  0
    7.1915  -12.2809   25.5351 C   0  0  0  0  0  0  0  0  0  0  0  0
    7.4557  -13.6594   26.0638 C   0  0  2  0  0  0  0  0  0  0  0  0
    7.8941  -13.5094   27.5103 C   0  0  0  0  0  0  0  0  0  0  0  0
    8.4156  -14.4717   25.2588 C   0  0  2  0  0  0  0  0  0  0  0  0
    7.9046  -14.5775   23.8936 N   0  0  0  0  0  0  0  0  0  0  0  0
    8.6340  -15.8140   25.8420 C   0  0  0  0  0  0  0  0  0  0  0  0
    7.6834  -16.6124   26.0281 O   0  0  0  0  0  0  0  0  0  0  0  0
    9.9203  -16.2846   26.2266 N   0  0  0  0  0  0  0  0  0  0  0  0
   10.2498  -17.6996   26.3519 C   0  0  1  0  0  0  0  0  0  0  0  0
   11.3339  -18.1049   25.4243 C   0  0  0  0  0  0  0  0  0  0  0  0
   11.7284  -19.5079   25.6311 C   0  0  0  0  0  0  0  0  0  0  0  0
   11.2878  -20.3736   26.6424 C   0  0  0  0  0  0  0  0  0  0  0  0
   11.8525  -21.5724   26.5257 N   0  0  0  0  0  0  0  0  0  0  0  0
   12.6584  -21.4998   25.4477 C   0  0  0  0  0  0  0  0  0  0  0  0
   12.5794  -20.2666   24.9198 N   0  0  0  0  0  0  0  0  0  0  0  0
   10.5967  -18.0249   27.7443 C   0  0  0  0  0  0  0  0  0  0  0  0
   10.7905  -19.2255   28.0564 O   0  0  0  0  0  0  0  0  0  0  0  0
   10.7117  -17.0501   28.6895 O   0  0  0  0  0  0  0  0  0  0  0  0
  2  3  1  6
  2  1  1  0
  4  2  1  0
  5  6  1  1
  5  4  1  0
  7  5  1  0
  8  7  2  0
 10  9  1  0
 11 10  1  0
 11 13  1  0
 11 12  1  1
 13 14  1  6
 14  7  1  0
 15 13  1  0
 15 16  2  0
 17 15  1  0
 18 17  1  0
 18 19  1  6
 20 19  1  0
 21 20  2  0
 22 21  1  0
 23 22  1  0
 23 24  2  0
 24 20  1  0
 25 18  1  0
 26 25  2  0
 27 25  1  0
M  END
$$$$
