LIH.pdb
     RDKit          3D

 27 27  0  0  1  0  0  0  0  0999 V2000
    4.8572  -21.5353   20.5021 C   0  0  0  0  0  0  0  0  0  0  0  0
    4.8425  -20.1692   19.8841 C   0  0  1  0  0  0  0  0  0  0  0  0
    3.8089  -19.3392   20.6129 C   0  0  0  0  0  0  0  0  0  0  0  0
    6.2044  -19.5101   19.9040 C   0  0  0  0  0  0  0  0  0  0  0  0
    6.0698  -18.1553   19.2461 C   0  0  2  0  0  0  0  0  0  0  0  0
    5.7880  -18.3432   17.8378 N   0  0  0  0  0  0  0  0  0  0  0  0
    7.3100  -17.3539   19.3490 C   0  0  0  0  0  0  0  0  0  0  0  0
    8.2626  -17.5611   18.5599 O   0  0  0  0  0  0  0  0  0  0  0  0
    7.3582  -12.5450   22.4983 C   0  0  0  0  0  0  0  0  0  0  0  0
    7.5276  -14.0195   22.1275 C   0  0  0  0  0  0  0  0  0  0  0  0
    8.3259  -14.1665   20.8662 C   0  0  2  0  0  0  0  0  0  0  0  0
    7.5538  -13.4658   19.7617 C   0  0  0  0  0  0  0  0  0  0  0  0
    8.6871  -15.5699   20.5069 C   0  0  2  0  0  0  0  0  0  0  0  0
    7.4554  -16.3375   20.3343 N   0  0  0  0  0  0  0  0  0  0  0  0
    9.5577  -16.1983   21.5250 C   0  0  0  0  0  0  0  0  0  0  0  0
    9.0878  -16.6808   22.5843 O   0  0  0  0  0  0  0  0  0  0  0  0
   10.9689  -16.2968   21.3741 N   0  0  0  0  0  0  0  0  0  0  0  0
   11.8367  -16.9285   22.3612 C   0  0  1  0  0  0  0  0  0  0  0  0
   12.8479  -17.8123   21.7317 C   0  0  0  0  0  0  0  0  0  0  0  0
   12.2219  -18.9729   21.0776 C   0  0  0  0  0  0  0  0  0  0  0  0
   11.3600  -19.9133   21.6600 C   0  0  0  0  0  0  0  0  0  0  0  0
   10.9833  -20.8308   20.7734 N   0  0  0  0  0  0  0  0  0  0  0  0
   11.5903  -20.5000   19.6164 C   0  0  0  0  0  0  0  0  0  0  0  0
   12.3267  -19.3919   19.8051 N   0  0  0  0  0  0  0  0  0  0  0  0
   12.4785  -15.9102   23.2074 C   0  0  0  0  0  0  0  0  0  0  0  0
   12.3445  -14.6988   22.9059 O   0  0  0  0  0  0  0  0  0  0  0  0
   13.2072  -16.2607   24.3043 O   0  0  0  0  0  0  0  0  0  0  0  0
  2  3  1  1
  2  1  1  0
  4  2  1  0
  5  6  1  6
  5  4  1  0
  7  5  1  0
  8  7  2  0
 10  9  1  0
 11 10  1  0
 11 13  1  0
 11 12  1  6
 13 14  1  1
 14  7  1  0
 15 13  1  0
 15 16  2  0
 17 15  1  0
 18 17  1  0
 18 19  1  6
 20 19  1  0
 21 20  2  0
 22 21  1  0
 23 22  1  0
 23 24  2  0
 24 20  1  0
 25 18  1  0
 26 25  2  0
 27 25  1  0
M  END
$$$$
