LIH.pdb
     RDKit          3D

 27 27  0  0  1  0  0  0  0  0999 V2000
    6.7618  -18.9389   20.0802 C   0  0  0  0  0  0  0  0  0  0  0  0
    7.0906  -17.4841   20.2349 C   0  0  1  0  0  0  0  0  0  0  0  0
    5.8145  -16.6949   20.0421 C   0  0  0  0  0  0  0  0  0  0  0  0
    7.7430  -17.1764   21.5650 C   0  0  0  0  0  0  0  0  0  0  0  0
    7.9097  -15.6766   21.6600 C   0  0  2  0  0  0  0  0  0  0  0  0
    8.7388  -15.2259   20.5611 N   0  0  0  0  0  0  0  0  0  0  0  0
    8.5725  -15.2623   22.9169 C   0  0  0  0  0  0  0  0  0  0  0  0
    9.8242  -15.2261   22.9882 O   0  0  0  0  0  0  0  0  0  0  0  0
    5.8525  -11.7674   26.1301 C   0  0  0  0  0  0  0  0  0  0  0  0
    6.9427  -12.4841   25.3312 C   0  0  0  0  0  0  0  0  0  0  0  0
    7.4805  -13.6588   26.0931 C   0  0  2  0  0  0  0  0  0  0  0  0
    8.0792  -13.1223   27.3819 C   0  0  0  0  0  0  0  0  0  0  0  0
    8.4371  -14.5191   25.3354 C   0  0  2  0  0  0  0  0  0  0  0  0
    7.8177  -14.8975   24.0668 N   0  0  0  0  0  0  0  0  0  0  0  0
    8.8337  -15.7200   26.1036 C   0  0  0  0  0  0  0  0  0  0  0  0
    7.9797  -16.4966   26.5967 O   0  0  0  0  0  0  0  0  0  0  0  0
   10.1932  -16.0712   26.3325 N   0  0  0  0  0  0  0  0  0  0  0  0
   10.5983  -17.2367   27.1097 C   0  0  1  0  0  0  0  0  0  0  0  0
   11.9358  -17.7375   26.7096 C   0  0  0  0  0  0  0  0  0  0  0  0
   11.9515  -18.1805   25.3059 C   0  0  0  0  0  0  0  0  0  0  0  0
   10.8499  -18.5426   24.5174 C   0  0  0  0  0  0  0  0  0  0  0  0
   11.2326  -18.8920   23.2921 N   0  0  0  0  0  0  0  0  0  0  0  0
   12.5740  -18.7620   23.2711 C   0  0  0  0  0  0  0  0  0  0  0  0
   12.9954  -18.3377   24.4744 N   0  0  0  0  0  0  0  0  0  0  0  0
   10.5563  -16.9342   28.5490 C   0  0  0  0  0  0  0  0  0  0  0  0
   10.6914  -17.8741   29.3705 O   0  0  0  0  0  0  0  0  0  0  0  0
   10.3768  -15.6601   28.9978 O   0  0  0  0  0  0  0  0  0  0  0  0
  2  3  1  1
  2  1  1  0
  4  2  1  0
  5  6  1  6
  5  4  1  0
  7  5  1  0
  8  7  2  0
 10  9  1  0
 11 10  1  0
 11 13  1  0
 11 12  1  1
 13 14  1  6
 14  7  1  0
 15 13  1  0
 15 16  2  0
 17 15  1  0
 18 17  1  0
 18 19  1  6
 20 19  1  0
 21 20  2  0
 22 21  1  0
 23 22  1  0
 23 24  2  0
 24 20  1  0
 25 18  1  0
 26 25  2  0
 27 25  1  0
M  END
$$$$
