LIH.pdb
     RDKit          3D

 27 27  0  0  1  0  0  0  0  0999 V2000
    6.0089  -19.8671   20.8983 C   0  0  0  0  0  0  0  0  0  0  0  0
    5.8802  -18.3732   20.8925 C   0  0  1  0  0  0  0  0  0  0  0  0
    4.4329  -18.0291   21.1670 C   0  0  0  0  0  0  0  0  0  0  0  0
    6.8107  -17.7081   21.8831 C   0  0  0  0  0  0  0  0  0  0  0  0
    6.5702  -16.2170   21.8112 C   0  0  2  0  0  0  0  0  0  0  0  0
    6.7716  -15.7743   20.4468 N   0  0  0  0  0  0  0  0  0  0  0  0
    7.5042  -15.4541   22.6693 C   0  0  0  0  0  0  0  0  0  0  0  0
    8.6398  -15.1380   22.2409 O   0  0  0  0  0  0  0  0  0  0  0  0
    5.6299  -11.8647   26.2985 C   0  0  0  0  0  0  0  0  0  0  0  0
    6.5635  -12.5124   25.2742 C   0  0  0  0  0  0  0  0  0  0  0  0
    7.3543  -13.6240   25.8976 C   0  0  2  0  0  0  0  0  0  0  0  0
    8.2648  -12.9978   26.9398 C   0  0  0  0  0  0  0  0  0  0  0  0
    8.1002  -14.4866   24.9339 C   0  0  2  0  0  0  0  0  0  0  0  0
    7.1449  -15.0621   23.9893 N   0  0  0  0  0  0  0  0  0  0  0  0
    8.8665  -15.5514   25.6184 C   0  0  0  0  0  0  0  0  0  0  0  0
    8.3015  -16.4026   26.3476 O   0  0  0  0  0  0  0  0  0  0  0  0
   10.2781  -15.6808   25.4977 N   0  0  0  0  0  0  0  0  0  0  0  0
   10.9431  -16.9442   25.2010 C   0  0  1  0  0  0  0  0  0  0  0  0
   10.5080  -17.5129   23.9021 C   0  0  0  0  0  0  0  0  0  0  0  0
   11.1063  -18.8362   23.6617 C   0  0  0  0  0  0  0  0  0  0  0  0
   11.9786  -19.5395   24.5048 C   0  0  0  0  0  0  0  0  0  0  0  0
   12.3230  -20.7078   23.9698 N   0  0  0  0  0  0  0  0  0  0  0  0
   11.6845  -20.7759   22.7847 C   0  0  0  0  0  0  0  0  0  0  0  0
   10.9614  -19.6572   22.6078 N   0  0  0  0  0  0  0  0  0  0  0  0
   12.4044  -16.7774   25.2418 C   0  0  0  0  0  0  0  0  0  0  0  0
   12.9029  -15.6969   24.8412 O   0  0  0  0  0  0  0  0  0  0  0  0
   13.2156  -17.7691   25.7060 O   0  0  0  0  0  0  0  0  0  0  0  0
  2  3  1  1
  2  1  1  0
  4  2  1  0
  5  6  1  6
  5  4  1  0
  7  5  1  0
  8  7  2  0
 10  9  1  0
 11 10  1  0
 11 13  1  0
 11 12  1  1
 13 14  1  6
 14  7  1  0
 15 13  1  0
 15 16  2  0
 17 15  1  0
 18 17  1  0
 18 19  1  6
 20 19  1  0
 21 20  2  0
 22 21  1  0
 23 22  1  0
 23 24  2  0
 24 20  1  0
 25 18  1  0
 26 25  2  0
 27 25  1  0
M  END
$$$$
