LIH.pdb
     RDKit          3D

 27 27  0  0  1  0  0  0  0  0999 V2000
    7.5288  -11.8833   19.4431 C   0  0  0  0  0  0  0  0  0  0  0  0
    7.9898  -13.2683   19.0998 C   0  0  1  0  0  0  0  0  0  0  0  0
    9.4805  -13.2143   18.8485 C   0  0  0  0  0  0  0  0  0  0  0  0
    7.6394  -14.2773   20.1715 C   0  0  0  0  0  0  0  0  0  0  0  0
    8.1272  -15.6309   19.7065 C   0  0  2  0  0  0  0  0  0  0  0  0
    7.0898  -16.2564   18.9124 N   0  0  0  0  0  0  0  0  0  0  0  0
    8.4313  -16.5380   20.8358 C   0  0  0  0  0  0  0  0  0  0  0  0
    7.5013  -17.0290   21.5192 O   0  0  0  0  0  0  0  0  0  0  0  0
   12.0477  -20.4179   20.3441 C   0  0  0  0  0  0  0  0  0  0  0  0
   10.8308  -19.6088   20.7969 C   0  0  0  0  0  0  0  0  0  0  0  0
   11.1974  -18.6623   21.9011 C   0  0  2  0  0  0  0  0  0  0  0  0
   11.7117  -19.5003   23.0588 C   0  0  0  0  0  0  0  0  0  0  0  0
   10.1126  -17.7236   22.3150 C   0  0  2  0  0  0  0  0  0  0  0  0
    9.7717  -16.8752   21.1747 N   0  0  0  0  0  0  0  0  0  0  0  0
   10.5035  -16.9014   23.4814 C   0  0  0  0  0  0  0  0  0  0  0  0
   11.5279  -16.1762   23.4608 O   0  0  0  0  0  0  0  0  0  0  0  0
    9.7541  -16.8775   24.6904 N   0  0  0  0  0  0  0  0  0  0  0  0
   10.1848  -16.1600   25.8846 C   0  0  1  0  0  0  0  0  0  0  0  0
    9.0467  -15.8188   26.7722 C   0  0  0  0  0  0  0  0  0  0  0  0
    9.4909  -15.0751   27.9623 C   0  0  0  0  0  0  0  0  0  0  0  0
    9.5253  -13.6833   28.1300 C   0  0  0  0  0  0  0  0  0  0  0  0
    9.9849  -13.3577   29.3352 N   0  0  0  0  0  0  0  0  0  0  0  0
   10.2517  -14.5229   29.9579 C   0  0  0  0  0  0  0  0  0  0  0  0
    9.9549  -15.5420   29.1338 N   0  0  0  0  0  0  0  0  0  0  0  0
   11.2058  -16.9338   26.6084 C   0  0  0  0  0  0  0  0  0  0  0  0
   12.2669  -16.3605   26.9573 O   0  0  0  0  0  0  0  0  0  0  0  0
   11.0160  -18.2504   26.9041 O   0  0  0  0  0  0  0  0  0  0  0  0
  2  3  1  1
  2  1  1  0
  4  2  1  0
  5  6  1  6
  5  4  1  0
  7  5  1  0
  8  7  2  0
 10  9  1  0
 11 10  1  0
 11 13  1  0
 11 12  1  1
 13 14  1  6
 14  7  1  0
 15 13  1  0
 15 16  2  0
 17 15  1  0
 18 17  1  0
 18 19  1  1
 20 19  1  0
 21 20  2  0
 22 21  1  0
 23 22  1  0
 23 24  2  0
 24 20  1  0
 25 18  1  0
 26 25  2  0
 27 25  1  0
M  END
$$$$
