LIH.pdb
     RDKit          3D

 27 27  0  0  1  0  0  0  0  0999 V2000
    7.0673  -17.6066   19.1397 C   0  0  0  0  0  0  0  0  0  0  0  0
    6.4246  -17.7214   20.4896 C   0  0  1  0  0  0  0  0  0  0  0  0
    5.9107  -19.1360   20.6423 C   0  0  0  0  0  0  0  0  0  0  0  0
    7.3657  -17.3441   21.6128 C   0  0  0  0  0  0  0  0  0  0  0  0
    7.4197  -15.8345   21.6805 C   0  0  2  0  0  0  0  0  0  0  0  0
    8.0561  -15.3331   20.4798 N   0  0  0  0  0  0  0  0  0  0  0  0
    8.2068  -15.3506   22.8368 C   0  0  0  0  0  0  0  0  0  0  0  0
    9.4500  -15.2148   22.7417 O   0  0  0  0  0  0  0  0  0  0  0  0
    5.8656  -11.8568   26.3123 C   0  0  0  0  0  0  0  0  0  0  0  0
    6.9306  -12.5338   25.4475 C   0  0  0  0  0  0  0  0  0  0  0  0
    7.4541  -13.7716   26.1134 C   0  0  2  0  0  0  0  0  0  0  0  0
    8.1368  -13.3359   27.3984 C   0  0  0  0  0  0  0  0  0  0  0  0
    8.3352  -14.6235   25.2606 C   0  0  2  0  0  0  0  0  0  0  0  0
    7.5831  -15.0295   24.0750 N   0  0  0  0  0  0  0  0  0  0  0  0
    8.8407  -15.8068   25.9911 C   0  0  0  0  0  0  0  0  0  0  0  0
    8.0603  -16.6337   26.5231 O   0  0  0  0  0  0  0  0  0  0  0  0
   10.2283  -16.0840   26.1382 N   0  0  0  0  0  0  0  0  0  0  0  0
   10.7400  -17.2577   26.8360 C   0  0  1  0  0  0  0  0  0  0  0  0
   12.1172  -17.6052   26.4089 C   0  0  0  0  0  0  0  0  0  0  0  0
   12.1521  -18.0628   25.0102 C   0  0  0  0  0  0  0  0  0  0  0  0
   11.0582  -18.2795   24.1601 C   0  0  0  0  0  0  0  0  0  0  0  0
   11.4586  -18.6926   22.9607 N   0  0  0  0  0  0  0  0  0  0  0  0
   12.8041  -18.7482   23.0174 C   0  0  0  0  0  0  0  0  0  0  0  0
   13.2103  -18.3716   24.2417 N   0  0  0  0  0  0  0  0  0  0  0  0
   10.6727  -17.0593   28.2924 C   0  0  0  0  0  0  0  0  0  0  0  0
   10.4240  -15.9119   28.7373 O   0  0  0  0  0  0  0  0  0  0  0  0
   10.8723  -18.0944   29.1559 O   0  0  0  0  0  0  0  0  0  0  0  0
  2  3  1  1
  2  1  1  0
  4  2  1  0
  5  6  1  6
  5  4  1  0
  7  5  1  0
  8  7  2  0
 10  9  1  0
 11 10  1  0
 11 13  1  0
 11 12  1  1
 13 14  1  6
 14  7  1  0
 15 13  1  0
 15 16  2  0
 17 15  1  0
 18 17  1  0
 18 19  1  6
 20 19  1  0
 21 20  2  0
 22 21  1  0
 23 22  1  0
 23 24  2  0
 24 20  1  0
 25 18  1  0
 26 25  2  0
 27 25  1  0
M  END
$$$$
