LIH.pdb
     RDKit          3D

 27 27  0  0  1  0  0  0  0  0999 V2000
    7.1191  -12.3934   20.1276 C   0  0  0  0  0  0  0  0  0  0  0  0
    7.6030  -13.5810   19.3505 C   0  0  1  0  0  0  0  0  0  0  0  0
    8.2631  -13.0738   18.0874 C   0  0  0  0  0  0  0  0  0  0  0  0
    8.5364  -14.4584   20.1557 C   0  0  0  0  0  0  0  0  0  0  0  0
    7.7486  -15.0268   21.3145 C   0  0  2  0  0  0  0  0  0  0  0  0
    6.3859  -14.5419   21.2385 N   0  0  0  0  0  0  0  0  0  0  0  0
    8.2965  -14.6115   22.6252 C   0  0  0  0  0  0  0  0  0  0  0  0
    9.4254  -14.0693   22.6943 O   0  0  0  0  0  0  0  0  0  0  0  0
    5.7925  -11.5071   25.8420 C   0  0  0  0  0  0  0  0  0  0  0  0
    6.8891  -12.3015   25.1300 C   0  0  0  0  0  0  0  0  0  0  0  0
    7.1769  -13.5838   25.8529 C   0  0  2  0  0  0  0  0  0  0  0  0
    7.6594  -13.2159   27.2454 C   0  0  0  0  0  0  0  0  0  0  0  0
    8.1155  -14.5084   25.1504 C   0  0  2  0  0  0  0  0  0  0  0  0
    7.5671  -14.8131   23.8304 N   0  0  0  0  0  0  0  0  0  0  0  0
    8.3521  -15.7504   25.9190 C   0  0  0  0  0  0  0  0  0  0  0  0
    7.4059  -16.4977   26.2680 O   0  0  0  0  0  0  0  0  0  0  0  0
    9.6521  -16.1763   26.3096 N   0  0  0  0  0  0  0  0  0  0  0  0
   10.2080  -17.4769   25.9548 C   0  0  1  0  0  0  0  0  0  0  0  0
   10.2060  -17.7043   24.4892 C   0  0  0  0  0  0  0  0  0  0  0  0
   10.7073  -19.0455   24.1476 C   0  0  0  0  0  0  0  0  0  0  0  0
   11.0875  -20.0616   25.0361 C   0  0  0  0  0  0  0  0  0  0  0  0
   11.4927  -21.1450   24.3790 N   0  0  0  0  0  0  0  0  0  0  0  0
   11.3812  -20.8479   23.0690 C   0  0  0  0  0  0  0  0  0  0  0  0
   10.9126  -19.5952   22.9387 N   0  0  0  0  0  0  0  0  0  0  0  0
   11.5622  -17.6257   26.5107 C   0  0  0  0  0  0  0  0  0  0  0  0
   12.3874  -16.6923   26.3553 O   0  0  0  0  0  0  0  0  0  0  0  0
   11.9281  -18.7506   27.1872 O   0  0  0  0  0  0  0  0  0  0  0  0
  2  3  1  6
  2  1  1  0
  4  2  1  0
  5  6  1  6
  5  4  1  0
  7  5  1  0
  8  7  2  0
 10  9  1  0
 11 10  1  0
 11 13  1  0
 11 12  1  1
 13 14  1  6
 14  7  1  0
 15 13  1  0
 15 16  2  0
 17 15  1  0
 18 17  1  0
 18 19  1  6
 20 19  1  0
 21 20  2  0
 22 21  1  0
 23 22  1  0
 23 24  2  0
 24 20  1  0
 25 18  1  0
 26 25  2  0
 27 25  1  0
M  END
$$$$
