LIH.pdb
     RDKit          3D

 27 27  0  0  1  0  0  0  0  0999 V2000
    7.7035  -12.3782   18.6140 C   0  0  0  0  0  0  0  0  0  0  0  0
    7.7514  -13.6062   19.4732 C   0  0  1  0  0  0  0  0  0  0  0  0
    8.4298  -14.7025   18.6818 C   0  0  0  0  0  0  0  0  0  0  0  0
    8.4439  -13.3607   20.7959 C   0  0  0  0  0  0  0  0  0  0  0  0
    8.4715  -14.6703   21.5512 C   0  0  2  0  0  0  0  0  0  0  0  0
    7.1201  -15.1812   21.6546 N   0  0  0  0  0  0  0  0  0  0  0  0
    8.9956  -14.5158   22.9268 C   0  0  0  0  0  0  0  0  0  0  0  0
   10.2062  -14.2472   23.1146 O   0  0  0  0  0  0  0  0  0  0  0  0
    5.6309  -12.0255   26.1955 C   0  0  0  0  0  0  0  0  0  0  0  0
    6.9019  -12.4967   25.4862 C   0  0  0  0  0  0  0  0  0  0  0  0
    7.4692  -13.7133   26.1555 C   0  0  2  0  0  0  0  0  0  0  0  0
    7.8548  -13.3100   27.5683 C   0  0  0  0  0  0  0  0  0  0  0  0
    8.5924  -14.3711   25.4241 C   0  0  2  0  0  0  0  0  0  0  0  0
    8.1510  -14.6659   24.0623 N   0  0  0  0  0  0  0  0  0  0  0  0
    9.0533  -15.6020   26.1035 C   0  0  0  0  0  0  0  0  0  0  0  0
    9.4006  -15.5963   27.3098 O   0  0  0  0  0  0  0  0  0  0  0  0
    9.1332  -16.8599   25.4437 N   0  0  0  0  0  0  0  0  0  0  0  0
    9.5767  -18.0824   26.1033 C   0  0  1  0  0  0  0  0  0  0  0  0
    8.9565  -19.2929   25.5117 C   0  0  0  0  0  0  0  0  0  0  0  0
    7.6307  -19.0002   24.9429 C   0  0  0  0  0  0  0  0  0  0  0  0
    6.4547  -18.6956   25.6433 C   0  0  0  0  0  0  0  0  0  0  0  0
    5.4406  -18.4870   24.8080 N   0  0  0  0  0  0  0  0  0  0  0  0
    5.9415  -18.6521   23.5676 C   0  0  0  0  0  0  0  0  0  0  0  0
    7.2471  -18.9578   23.6558 N   0  0  0  0  0  0  0  0  0  0  0  0
   11.0449  -18.1755   26.0790 C   0  0  0  0  0  0  0  0  0  0  0  0
   11.6034  -19.1147   26.6974 O   0  0  0  0  0  0  0  0  0  0  0  0
   11.7989  -17.2664   25.3993 O   0  0  0  0  0  0  0  0  0  0  0  0
  2  3  1  6
  2  1  1  0
  4  2  1  0
  5  6  1  1
  5  4  1  0
  7  5  1  0
  8  7  2  0
 10  9  1  0
 11 10  1  0
 11 13  1  0
 11 12  1  1
 13 14  1  6
 14  7  1  0
 15 13  1  0
 15 16  2  0
 17 15  1  0
 18 17  1  0
 18 19  1  6
 20 19  1  0
 21 20  2  0
 22 21  1  0
 23 22  1  0
 23 24  2  0
 24 20  1  0
 25 18  1  0
 26 25  2  0
 27 25  1  0
M  END
$$$$
