LIH.pdb
     RDKit          3D

 27 27  0  0  1  0  0  0  0  0999 V2000
    6.2348  -18.1424   19.2910 C   0  0  0  0  0  0  0  0  0  0  0  0
    6.6622  -16.7348   19.5819 C   0  0  1  0  0  0  0  0  0  0  0  0
    5.4750  -15.8284   19.3427 C   0  0  0  0  0  0  0  0  0  0  0  0
    7.2147  -16.5752   20.9815 C   0  0  0  0  0  0  0  0  0  0  0  0
    7.5100  -15.1077   21.1952 C   0  0  2  0  0  0  0  0  0  0  0  0
    8.3643  -14.6397   20.1232 N   0  0  0  0  0  0  0  0  0  0  0  0
    8.2176  -14.8558   22.4706 C   0  0  0  0  0  0  0  0  0  0  0  0
    9.4517  -15.0617   22.5591 O   0  0  0  0  0  0  0  0  0  0  0  0
    5.9403  -11.4398   26.1150 C   0  0  0  0  0  0  0  0  0  0  0  0
    7.0122  -12.1557   25.2910 C   0  0  0  0  0  0  0  0  0  0  0  0
    7.2931  -13.5201   25.8470 C   0  0  2  0  0  0  0  0  0  0  0  0
    7.9293  -13.3263   27.2126 C   0  0  0  0  0  0  0  0  0  0  0  0
    8.1032  -14.4087   24.9620 C   0  0  2  0  0  0  0  0  0  0  0  0
    7.5265  -14.3785   23.6194 N   0  0  0  0  0  0  0  0  0  0  0  0
    8.1665  -15.7955   25.4740 C   0  0  0  0  0  0  0  0  0  0  0  0
    7.3051  -16.6525   25.1590 O   0  0  0  0  0  0  0  0  0  0  0  0
    9.1953  -16.2458   26.3474 N   0  0  0  0  0  0  0  0  0  0  0  0
   10.1323  -17.3075   25.9992 C   0  0  1  0  0  0  0  0  0  0  0  0
   10.8591  -17.0200   24.7388 C   0  0  0  0  0  0  0  0  0  0  0  0
   11.8154  -18.0890   24.4080 C   0  0  0  0  0  0  0  0  0  0  0  0
   12.0481  -19.2717   25.1246 C   0  0  0  0  0  0  0  0  0  0  0  0
   12.9843  -20.0114   24.5363 N   0  0  0  0  0  0  0  0  0  0  0  0
   13.3667  -19.3242   23.4416 C   0  0  0  0  0  0  0  0  0  0  0  0
   12.6659  -18.1798   23.3716 N   0  0  0  0  0  0  0  0  0  0  0  0
   11.0704  -17.5483   27.1069 C   0  0  0  0  0  0  0  0  0  0  0  0
   11.7314  -16.5830   27.5626 O   0  0  0  0  0  0  0  0  0  0  0  0
   11.2279  -18.7921   27.6410 O   0  0  0  0  0  0  0  0  0  0  0  0
  2  3  1  1
  2  1  1  0
  4  2  1  0
  5  6  1  6
  5  4  1  0
  7  5  1  0
  8  7  2  0
 10  9  1  0
 11 10  1  0
 11 13  1  0
 11 12  1  1
 13 14  1  6
 14  7  1  0
 15 13  1  0
 15 16  2  0
 17 15  1  0
 18 17  1  0
 18 19  1  6
 20 19  1  0
 21 20  2  0
 22 21  1  0
 23 22  1  0
 23 24  2  0
 24 20  1  0
 25 18  1  0
 26 25  2  0
 27 25  1  0
M  END
$$$$
