LIH.pdb
     RDKit          3D

 27 27  0  0  1  0  0  0  0  0999 V2000
    7.3674  -12.2539   18.3337 C   0  0  0  0  0  0  0  0  0  0  0  0
    7.3735  -13.5173   19.1414 C   0  0  1  0  0  0  0  0  0  0  0  0
    7.9647  -14.6151   18.2848 C   0  0  0  0  0  0  0  0  0  0  0  0
    8.1198  -13.3648   20.4488 C   0  0  0  0  0  0  0  0  0  0  0  0
    7.9946  -14.6682   21.2051 C   0  0  2  0  0  0  0  0  0  0  0  0
    6.5911  -14.9492   21.4270 N   0  0  0  0  0  0  0  0  0  0  0  0
    8.6531  -14.6160   22.5296 C   0  0  0  0  0  0  0  0  0  0  0  0
    9.9014  -14.5257   22.6107 O   0  0  0  0  0  0  0  0  0  0  0  0
    5.8152  -11.9224   26.1342 C   0  0  0  0  0  0  0  0  0  0  0  0
    7.0263  -12.4341   25.3519 C   0  0  0  0  0  0  0  0  0  0  0  0
    7.5148  -13.7367   25.9125 C   0  0  2  0  0  0  0  0  0  0  0  0
    8.0607  -13.4516   27.3010 C   0  0  0  0  0  0  0  0  0  0  0  0
    8.4944  -14.4665   25.0539 C   0  0  2  0  0  0  0  0  0  0  0  0
    7.8979  -14.6663   23.7347 N   0  0  0  0  0  0  0  0  0  0  0  0
    8.8986  -15.7602   25.6476 C   0  0  0  0  0  0  0  0  0  0  0  0
    8.0640  -16.6713   25.8689 O   0  0  0  0  0  0  0  0  0  0  0  0
   10.2441  -16.0552   26.0033 N   0  0  0  0  0  0  0  0  0  0  0  0
   10.7109  -17.3994   26.3222 C   0  0  1  0  0  0  0  0  0  0  0  0
   12.0487  -17.6777   25.7455 C   0  0  0  0  0  0  0  0  0  0  0  0
   12.5334  -19.0160   26.1207 C   0  0  0  0  0  0  0  0  0  0  0  0
   11.8705  -19.9698   26.9064 C   0  0  0  0  0  0  0  0  0  0  0  0
   12.6045  -21.0708   27.0432 N   0  0  0  0  0  0  0  0  0  0  0  0
   13.7413  -20.8470   26.3546 C   0  0  0  0  0  0  0  0  0  0  0  0
   13.6919  -19.6206   25.8076 N   0  0  0  0  0  0  0  0  0  0  0  0
   10.7085  -17.6120   27.7781 C   0  0  0  0  0  0  0  0  0  0  0  0
   10.6090  -16.6162   28.5363 O   0  0  0  0  0  0  0  0  0  0  0  0
   10.8095  -18.8629   28.3092 O   0  0  0  0  0  0  0  0  0  0  0  0
  2  3  1  6
  2  1  1  0
  4  2  1  0
  5  6  1  1
  5  4  1  0
  7  5  1  0
  8  7  2  0
 10  9  1  0
 11 10  1  0
 11 13  1  0
 11 12  1  1
 13 14  1  6
 14  7  1  0
 15 13  1  0
 15 16  2  0
 17 15  1  0
 18 17  1  0
 18 19  1  1
 20 19  1  0
 21 20  2  0
 22 21  1  0
 23 22  1  0
 23 24  2  0
 24 20  1  0
 25 18  1  0
 26 25  2  0
 27 25  1  0
M  END
$$$$
