QLT.pdb
     RDKit          3D

 25 24  0  0  1  0  0  0  0  0999 V2000
    8.0276  -18.9829   19.6710 N   0  0  0  0  0  0  0  0  0  0  0  0
    7.3503  -18.0465   18.8209 C   0  0  0  0  0  0  0  0  0  0  0  0
    6.8280  -18.4512   17.7513 O   0  0  0  0  0  0  0  0  0  0  0  0
    7.2487  -16.6304   19.1640 C   0  0  0  0  0  0  0  0  0  0  0  0
    7.7557  -16.2302   20.4982 C   0  0  0  0  0  0  0  0  0  0  0  0
    7.4995  -14.8105   20.8967 C   0  0  2  0  0  0  0  0  0  0  0  0
    8.1656  -13.9596   19.9252 N   0  0  0  0  0  0  0  0  0  0  0  0
    8.0452  -14.5756   22.2721 C   0  0  0  0  0  0  0  0  0  0  0  0
    9.2763  -14.3786   22.3949 O   0  0  0  0  0  0  0  0  0  0  0  0
    7.8785  -11.5392   25.7265 C   0  0  0  0  0  0  0  0  0  0  0  0
    6.6665  -12.3815   25.5488 C   0  0  2  0  0  0  0  0  0  0  0  0
    5.5789  -11.9559   26.5164 C   0  0  0  0  0  0  0  0  0  0  0  0
    6.9585  -13.8655   25.7851 C   0  0  0  0  0  0  0  0  0  0  0  0
    7.8644  -14.4188   24.7199 C   0  0  2  0  0  0  0  0  0  0  0  0
    7.2665  -14.5611   23.4402 N   0  0  0  0  0  0  0  0  0  0  0  0
    8.3086  -15.7869   25.1585 C   0  0  0  0  0  0  0  0  0  0  0  0
    7.4078  -16.6725   25.2888 O   0  0  0  0  0  0  0  0  0  0  0  0
   10.7274  -18.0260   23.4000 C   0  0  0  0  0  0  0  0  0  0  0  0
   11.1462  -17.9513   24.8354 C   0  0  1  0  0  0  0  0  0  0  0  0
   12.2973  -17.1973   24.9845 O   0  0  0  0  0  0  0  0  0  0  0  0
   10.0406  -17.4406   25.7384 C   0  0  2  0  0  0  0  0  0  0  0  0
    9.6477  -16.1041   25.4197 N   0  0  0  0  0  0  0  0  0  0  0  0
   10.4849  -17.6193   27.1244 C   0  0  0  0  0  0  0  0  0  0  0  0
   10.7782  -18.8920   27.5779 O   0  0  0  0  0  0  0  0  0  0  0  0
   10.6044  -16.6518   27.9030 O   0  0  0  0  0  0  0  0  0  0  0  0
  2  4  1  0
  2  1  1  0
  3  2  2  0
  5  6  1  0
  5  4  1  0
  6  7  1  6
  8  6  1  0
  9  8  2  0
 11 10  1  1
 11 12  1  0
 13 11  1  0
 14 13  1  1
 14 15  1  0
 15  8  1  0
 16 17  2  0
 16 14  1  0
 19 21  1  0
 19 18  1  6
 20 19  1  0
 21 22  1  6
 22 16  1  0
 23 21  1  0
 24 23  1  0
 25 23  2  0
M  END
$$$$
