QLT.pdb
     RDKit          3D

 25 24  0  0  1  0  0  0  0  0999 V2000
    8.4231  -12.0984   18.6170 N   0  0  0  0  0  0  0  0  0  0  0  0
    9.2529  -13.1511   19.1283 C   0  0  0  0  0  0  0  0  0  0  0  0
   10.4427  -13.2450   18.7332 O   0  0  0  0  0  0  0  0  0  0  0  0
    8.7535  -14.1208   20.0999 C   0  0  0  0  0  0  0  0  0  0  0  0
    7.3493  -13.9552   20.5448 C   0  0  0  0  0  0  0  0  0  0  0  0
    6.8469  -14.9745   21.5188 C   0  0  2  0  0  0  0  0  0  0  0  0
    5.4088  -14.7984   21.6290 N   0  0  0  0  0  0  0  0  0  0  0  0
    7.5119  -14.7632   22.8446 C   0  0  0  0  0  0  0  0  0  0  0  0
    8.4157  -13.8992   22.9224 O   0  0  0  0  0  0  0  0  0  0  0  0
    8.0193  -12.2211   25.8302 C   0  0  0  0  0  0  0  0  0  0  0  0
    6.7698  -13.0265   25.8390 C   0  0  2  0  0  0  0  0  0  0  0  0
    5.7592  -12.4263   26.7975 C   0  0  0  0  0  0  0  0  0  0  0  0
    7.0234  -14.4757   26.2621 C   0  0  0  0  0  0  0  0  0  0  0  0
    7.8516  -15.2045   25.2402 C   0  0  2  0  0  0  0  0  0  0  0  0
    7.1895  -15.4715   24.0131 N   0  0  0  0  0  0  0  0  0  0  0  0
    8.2483  -16.5300   25.8296 C   0  0  0  0  0  0  0  0  0  0  0  0
    7.3170  -17.3625   26.0578 O   0  0  0  0  0  0  0  0  0  0  0  0
   10.0864  -19.3084   24.4306 C   0  0  0  0  0  0  0  0  0  0  0  0
   10.7916  -18.9472   25.7009 C   0  0  1  0  0  0  0  0  0  0  0  0
   11.9785  -18.2827   25.4454 O   0  0  0  0  0  0  0  0  0  0  0  0
    9.9148  -18.1503   26.6470 C   0  0  2  0  0  0  0  0  0  0  0  0
    9.5761  -16.8635   26.1257 N   0  0  0  0  0  0  0  0  0  0  0  0
   10.5913  -18.1100   27.9473 C   0  0  0  0  0  0  0  0  0  0  0  0
   10.8006  -19.2918   28.6335 O   0  0  0  0  0  0  0  0  0  0  0  0
   10.9819  -17.0363   28.4485 O   0  0  0  0  0  0  0  0  0  0  0  0
  2  4  1  0
  2  1  1  0
  3  2  2  0
  5  6  1  0
  5  4  1  0
  6  7  1  1
  8  6  1  0
  9  8  2  0
 11 10  1  1
 11 12  1  0
 13 11  1  0
 14 13  1  1
 14 15  1  0
 15  8  1  0
 16 17  2  0
 16 14  1  0
 19 21  1  0
 19 18  1  6
 20 19  1  0
 21 22  1  6
 22 16  1  0
 23 21  1  0
 24 23  1  0
 25 23  2  0
M  END
$$$$
