QLT.pdb
     RDKit          3D

 25 24  0  0  1  0  0  0  0  0999 V2000
    8.2281  -12.5641   18.0176 N   0  0  0  0  0  0  0  0  0  0  0  0
    8.3876  -13.9371   17.6335 C   0  0  0  0  0  0  0  0  0  0  0  0
    8.0944  -14.2874   16.4622 O   0  0  0  0  0  0  0  0  0  0  0  0
    8.8838  -14.9443   18.5679 C   0  0  0  0  0  0  0  0  0  0  0  0
    9.1556  -14.4916   19.9529 C   0  0  0  0  0  0  0  0  0  0  0  0
    8.9099  -15.5002   21.0311 C   0  0  2  0  0  0  0  0  0  0  0  0
    7.5903  -16.0649   20.8051 N   0  0  0  0  0  0  0  0  0  0  0  0
    8.9777  -14.8245   22.3666 C   0  0  0  0  0  0  0  0  0  0  0  0
   10.0801  -14.3614   22.7403 O   0  0  0  0  0  0  0  0  0  0  0  0
    5.7772  -12.0890   26.9053 C   0  0  0  0  0  0  0  0  0  0  0  0
    7.0266  -12.6607   26.3377 C   0  0  2  0  0  0  0  0  0  0  0  0
    8.0811  -11.5815   26.1839 C   0  0  0  0  0  0  0  0  0  0  0  0
    6.7952  -13.2978   24.9652 C   0  0  0  0  0  0  0  0  0  0  0  0
    8.0235  -14.0212   24.4863 C   0  0  2  0  0  0  0  0  0  0  0  0
    7.8836  -14.6739   23.2334 N   0  0  0  0  0  0  0  0  0  0  0  0
    8.3617  -15.0766   25.5028 C   0  0  0  0  0  0  0  0  0  0  0  0
    8.5095  -14.6946   26.7048 O   0  0  0  0  0  0  0  0  0  0  0  0
    6.9362  -18.9700   25.4986 C   0  0  0  0  0  0  0  0  0  0  0  0
    8.4061  -18.8109   25.7341 C   0  0  1  0  0  0  0  0  0  0  0  0
    9.1372  -19.1877   24.6209 O   0  0  0  0  0  0  0  0  0  0  0  0
    8.7759  -17.4095   26.1789 C   0  0  2  0  0  0  0  0  0  0  0  0
    8.5142  -16.4293   25.1725 N   0  0  0  0  0  0  0  0  0  0  0  0
   10.1699  -17.4439   26.6325 C   0  0  0  0  0  0  0  0  0  0  0  0
   10.5069  -18.2408   27.7108 O   0  0  0  0  0  0  0  0  0  0  0  0
   11.0579  -16.7721   26.0694 O   0  0  0  0  0  0  0  0  0  0  0  0
  2  4  1  0
  2  1  1  0
  3  2  2  0
  5  6  1  0
  5  4  1  0
  6  7  1  6
  8  6  1  0
  9  8  2  0
 11 10  1  6
 11 12  1  0
 13 11  1  0
 14 13  1  1
 14 15  1  0
 15  8  1  0
 16 17  2  0
 16 14  1  0
 19 21  1  0
 19 18  1  6
 20 19  1  0
 21 22  1  6
 22 16  1  0
 23 21  1  0
 24 23  1  0
 25 23  2  0
M  END
$$$$
