QLT.pdb
     RDKit          3D

 25 24  0  0  1  0  0  0  0  0999 V2000
   11.1207  -16.2106   18.2072 N   0  0  0  0  0  0  0  0  0  0  0  0
    9.8927  -16.7542   17.7025 C   0  0  0  0  0  0  0  0  0  0  0  0
    9.8907  -17.3467   16.5937 O   0  0  0  0  0  0  0  0  0  0  0  0
    8.6392  -16.6397   18.4436 C   0  0  0  0  0  0  0  0  0  0  0  0
    8.6792  -15.8606   19.7039 C   0  0  0  0  0  0  0  0  0  0  0  0
    8.0675  -16.5197   20.9004 C   0  0  2  0  0  0  0  0  0  0  0  0
    6.6325  -16.5755   20.6794 N   0  0  0  0  0  0  0  0  0  0  0  0
    8.3864  -15.7179   22.1252 C   0  0  0  0  0  0  0  0  0  0  0  0
    9.5893  -15.4768   22.3782 O   0  0  0  0  0  0  0  0  0  0  0  0
    6.1589  -12.3922   26.8776 C   0  0  0  0  0  0  0  0  0  0  0  0
    7.2521  -13.1077   26.1684 C   0  0  2  0  0  0  0  0  0  0  0  0
    8.4331  -12.1828   25.9448 C   0  0  0  0  0  0  0  0  0  0  0  0
    6.8010  -13.6402   24.8059 C   0  0  0  0  0  0  0  0  0  0  0  0
    7.8013  -14.6113   24.2423 C   0  0  2  0  0  0  0  0  0  0  0  0
    7.4232  -15.2150   23.0143 N   0  0  0  0  0  0  0  0  0  0  0  0
    7.9841  -15.7175   25.2446 C   0  0  0  0  0  0  0  0  0  0  0  0
    6.9324  -16.2702   25.6930 O   0  0  0  0  0  0  0  0  0  0  0  0
    9.0897  -18.9662   24.6113 C   0  0  0  0  0  0  0  0  0  0  0  0
    9.9893  -18.4767   25.7033 C   0  0  1  0  0  0  0  0  0  0  0  0
   11.2407  -18.1460   25.2132 O   0  0  0  0  0  0  0  0  0  0  0  0
    9.3869  -17.3225   26.4802 C   0  0  2  0  0  0  0  0  0  0  0  0
    9.2435  -16.1438   25.6851 N   0  0  0  0  0  0  0  0  0  0  0  0
   10.1954  -17.1344   27.6889 C   0  0  0  0  0  0  0  0  0  0  0  0
   10.9206  -15.9668   27.8380 O   0  0  0  0  0  0  0  0  0  0  0  0
   10.2446  -18.0015   28.5847 O   0  0  0  0  0  0  0  0  0  0  0  0
  2  4  1  0
  2  1  1  0
  3  2  2  0
  5  6  1  0
  5  4  1  0
  6  7  1  6
  8  6  1  0
  9  8  2  0
 11 10  1  6
 11 12  1  0
 13 11  1  0
 14 13  1  1
 14 15  1  0
 15  8  1  0
 16 17  2  0
 16 14  1  0
 19 21  1  0
 19 18  1  6
 20 19  1  0
 21 22  1  6
 22 16  1  0
 23 21  1  0
 24 23  1  0
 25 23  2  0
M  END
$$$$
