QLT.pdb
     RDKit          3D

 25 24  0  0  1  0  0  0  0  0999 V2000
    4.8940  -17.6795   22.5803 N   0  0  0  0  0  0  0  0  0  0  0  0
    5.5685  -18.6659   21.7864 C   0  0  0  0  0  0  0  0  0  0  0  0
    4.9664  -19.7254   21.4776 O   0  0  0  0  0  0  0  0  0  0  0  0
    6.9406  -18.4735   21.3236 C   0  0  0  0  0  0  0  0  0  0  0  0
    7.8199  -17.6377   22.1752 C   0  0  0  0  0  0  0  0  0  0  0  0
    7.7123  -16.1586   21.9735 C   0  0  2  0  0  0  0  0  0  0  0  0
    8.4186  -15.8351   20.7456 N   0  0  0  0  0  0  0  0  0  0  0  0
    8.3279  -15.4529   23.1430 C   0  0  0  0  0  0  0  0  0  0  0  0
    9.5544  -15.2006   23.1035 O   0  0  0  0  0  0  0  0  0  0  0  0
    7.4431  -11.5204   24.8190 C   0  0  0  0  0  0  0  0  0  0  0  0
    6.5761  -12.5662   25.4228 C   0  0  2  0  0  0  0  0  0  0  0  0
    5.5403  -11.9351   26.3334 C   0  0  0  0  0  0  0  0  0  0  0  0
    7.3811  -13.5748   26.2462 C   0  0  0  0  0  0  0  0  0  0  0  0
    8.2755  -14.4051   25.3675 C   0  0  2  0  0  0  0  0  0  0  0  0
    7.6200  -15.0523   24.2873 N   0  0  0  0  0  0  0  0  0  0  0  0
    8.8922  -15.4784   26.2215 C   0  0  0  0  0  0  0  0  0  0  0  0
    9.3098  -15.1337   27.3702 O   0  0  0  0  0  0  0  0  0  0  0  0
    7.8426  -19.4504   26.8645 C   0  0  0  0  0  0  0  0  0  0  0  0
    9.2167  -19.1912   26.3295 C   0  0  1  0  0  0  0  0  0  0  0  0
    9.2948  -19.4879   24.9799 O   0  0  0  0  0  0  0  0  0  0  0  0
    9.6910  -17.7776   26.6040 C   0  0  2  0  0  0  0  0  0  0  0  0
    9.0159  -16.8083   25.7997 N   0  0  0  0  0  0  0  0  0  0  0  0
   11.1500  -17.7653   26.4574 C   0  0  0  0  0  0  0  0  0  0  0  0
   11.9123  -18.6071   27.2459 O   0  0  0  0  0  0  0  0  0  0  0  0
   11.7190  -17.0145   25.6393 O   0  0  0  0  0  0  0  0  0  0  0  0
  2  4  1  0
  2  1  1  0
  3  2  2  0
  5  6  1  0
  5  4  1  0
  6  7  1  6
  8  6  1  0
  9  8  2  0
 11 10  1  1
 11 12  1  0
 13 11  1  0
 14 13  1  1
 14 15  1  0
 15  8  1  0
 16 17  2  0
 16 14  1  0
 19 21  1  0
 19 18  1  6
 20 19  1  0
 21 22  1  6
 22 16  1  0
 23 21  1  0
 24 23  1  0
 25 23  2  0
M  END
$$$$
