QLT.pdb
     RDKit          3D

 25 24  0  0  1  0  0  0  0  0999 V2000
    7.1337  -19.1804   19.1673 N   0  0  0  0  0  0  0  0  0  0  0  0
    8.3104  -19.2994   19.9794 C   0  0  0  0  0  0  0  0  0  0  0  0
    9.3945  -19.6472   19.4463 O   0  0  0  0  0  0  0  0  0  0  0  0
    8.2853  -19.0259   21.4141 C   0  0  0  0  0  0  0  0  0  0  0  0
    9.3637  -18.1592   21.9459 C   0  0  0  0  0  0  0  0  0  0  0  0
    9.2709  -16.7078   21.5924 C   0  0  2  0  0  0  0  0  0  0  0  0
   10.4145  -16.3909   20.7540 N   0  0  0  0  0  0  0  0  0  0  0  0
    9.2886  -15.8899   22.8476 C   0  0  0  0  0  0  0  0  0  0  0  0
   10.3991  -15.6008   23.3501 O   0  0  0  0  0  0  0  0  0  0  0  0
    5.8781  -12.4529   26.7470 C   0  0  0  0  0  0  0  0  0  0  0  0
    7.1747  -12.9842   26.2504 C   0  0  2  0  0  0  0  0  0  0  0  0
    8.1484  -11.8503   25.9930 C   0  0  0  0  0  0  0  0  0  0  0  0
    7.0113  -13.7747   24.9497 C   0  0  0  0  0  0  0  0  0  0  0  0
    8.2338  -14.6000   24.6566 C   0  0  2  0  0  0  0  0  0  0  0  0
    8.1386  -15.4223   23.5033 N   0  0  0  0  0  0  0  0  0  0  0  0
    8.4692  -15.5076   25.8324 C   0  0  0  0  0  0  0  0  0  0  0  0
    8.4886  -14.9696   26.9825 O   0  0  0  0  0  0  0  0  0  0  0  0
    6.4639  -18.6818   26.7608 C   0  0  0  0  0  0  0  0  0  0  0  0
    7.9307  -18.9809   26.7425 C   0  0  1  0  0  0  0  0  0  0  0  0
    8.2783  -19.7243   25.6280 O   0  0  0  0  0  0  0  0  0  0  0  0
    8.7811  -17.7302   26.8490 C   0  0  2  0  0  0  0  0  0  0  0  0
    8.6622  -16.8886   25.7001 N   0  0  0  0  0  0  0  0  0  0  0  0
   10.1543  -18.1537   27.1410 C   0  0  0  0  0  0  0  0  0  0  0  0
   10.4243  -18.7766   28.3453 O   0  0  0  0  0  0  0  0  0  0  0  0
   11.0834  -17.9656   26.3297 O   0  0  0  0  0  0  0  0  0  0  0  0
  2  4  1  0
  2  1  1  0
  3  2  2  0
  5  6  1  0
  5  4  1  0
  6  7  1  6
  8  6  1  0
  9  8  2  0
 11 10  1  6
 11 12  1  0
 13 11  1  0
 14 13  1  1
 14 15  1  0
 15  8  1  0
 16 17  2  0
 16 14  1  0
 19 21  1  0
 19 18  1  6
 20 19  1  0
 21 22  1  6
 22 16  1  0
 23 21  1  0
 24 23  1  0
 25 23  2  0
M  END
$$$$
