QLT.pdb
     RDKit          3D

 25 24  0  0  1  0  0  0  0  0999 V2000
    8.2357  -17.5865   18.5033 N   0  0  0  0  0  0  0  0  0  0  0  0
    7.5851  -17.4453   19.7741 C   0  0  0  0  0  0  0  0  0  0  0  0
    7.1309  -18.4660   20.3507 O   0  0  0  0  0  0  0  0  0  0  0  0
    7.4353  -16.1442   20.4209 C   0  0  0  0  0  0  0  0  0  0  0  0
    7.9920  -14.9743   19.7008 C   0  0  0  0  0  0  0  0  0  0  0  0
    7.6829  -13.6344   20.2917 C   0  0  2  0  0  0  0  0  0  0  0  0
    8.4201  -12.6422   19.5279 N   0  0  0  0  0  0  0  0  0  0  0  0
    8.1026  -13.6182   21.7298 C   0  0  0  0  0  0  0  0  0  0  0  0
    9.2947  -13.3398   21.9954 O   0  0  0  0  0  0  0  0  0  0  0  0
    6.0183  -12.5482   27.4222 C   0  0  0  0  0  0  0  0  0  0  0  0
    7.1018  -12.9224   26.4756 C   0  0  2  0  0  0  0  0  0  0  0  0
    8.1601  -11.8372   26.4256 C   0  0  0  0  0  0  0  0  0  0  0  0
    6.5744  -13.1374   25.0546 C   0  0  0  0  0  0  0  0  0  0  0  0
    7.6522  -13.6632   24.1473 C   0  0  2  0  0  0  0  0  0  0  0  0
    7.2459  -13.8954   22.8070 N   0  0  0  0  0  0  0  0  0  0  0  0
    8.1218  -14.9787   24.7045 C   0  0  0  0  0  0  0  0  0  0  0  0
    7.5875  -15.3708   25.7877 O   0  0  0  0  0  0  0  0  0  0  0  0
    8.4262  -18.4930   22.9834 C   0  0  0  0  0  0  0  0  0  0  0  0
    9.7180  -18.0870   23.6219 C   0  0  1  0  0  0  0  0  0  0  0  0
   10.6548  -17.7198   22.6716 O   0  0  0  0  0  0  0  0  0  0  0  0
    9.5372  -16.9949   24.6580 C   0  0  2  0  0  0  0  0  0  0  0  0
    9.1026  -15.7613   24.0821 N   0  0  0  0  0  0  0  0  0  0  0  0
   10.7886  -16.8937   25.4155 C   0  0  0  0  0  0  0  0  0  0  0  0
   11.2311  -17.9896   26.1329 O   0  0  0  0  0  0  0  0  0  0  0  0
   11.4625  -15.8438   25.4282 O   0  0  0  0  0  0  0  0  0  0  0  0
  2  4  1  0
  2  1  1  0
  3  2  2  0
  5  6  1  0
  5  4  1  0
  6  7  1  6
  8  6  1  0
  9  8  2  0
 11 10  1  1
 11 12  1  0
 13 11  1  0
 14 13  1  1
 14 15  1  0
 15  8  1  0
 16 17  2  0
 16 14  1  0
 19 21  1  0
 19 18  1  6
 20 19  1  0
 21 22  1  6
 22 16  1  0
 23 21  1  0
 24 23  1  0
 25 23  2  0
M  END
$$$$
