QLT.pdb
     RDKit          3D

 25 24  0  0  1  0  0  0  0  0999 V2000
    7.2481  -19.8008   20.5887 N   0  0  0  0  0  0  0  0  0  0  0  0
    6.9756  -18.9929   19.4349 C   0  0  0  0  0  0  0  0  0  0  0  0
    6.4581  -19.5233   18.4194 O   0  0  0  0  0  0  0  0  0  0  0  0
    7.2825  -17.5651   19.4062 C   0  0  0  0  0  0  0  0  0  0  0  0
    7.7217  -16.9523   20.6824 C   0  0  0  0  0  0  0  0  0  0  0  0
    7.8928  -15.4655   20.6697 C   0  0  2  0  0  0  0  0  0  0  0  0
    8.9807  -15.1612   19.7558 N   0  0  0  0  0  0  0  0  0  0  0  0
    8.2130  -14.9916   22.0545 C   0  0  0  0  0  0  0  0  0  0  0  0
    9.3971  -15.0842   22.4528 O   0  0  0  0  0  0  0  0  0  0  0  0
    6.0260  -12.2142   27.1911 C   0  0  0  0  0  0  0  0  0  0  0  0
    7.0812  -12.9120   26.4102 C   0  0  2  0  0  0  0  0  0  0  0  0
    8.3362  -12.0634   26.3388 C   0  0  0  0  0  0  0  0  0  0  0  0
    6.6307  -13.2154   24.9790 C   0  0  0  0  0  0  0  0  0  0  0  0
    7.6353  -14.0749   24.2625 C   0  0  2  0  0  0  0  0  0  0  0  0
    7.2710  -14.4473   22.9418 N   0  0  0  0  0  0  0  0  0  0  0  0
    7.8026  -15.3435   25.0526 C   0  0  0  0  0  0  0  0  0  0  0  0
    6.7540  -16.0201   25.2875 O   0  0  0  0  0  0  0  0  0  0  0  0
    9.1702  -18.3698   23.9642 C   0  0  0  0  0  0  0  0  0  0  0  0
    9.9309  -18.0500   25.2134 C   0  0  1  0  0  0  0  0  0  0  0  0
   11.2019  -17.5855   24.9229 O   0  0  0  0  0  0  0  0  0  0  0  0
    9.1902  -17.0810   26.1140 C   0  0  2  0  0  0  0  0  0  0  0  0
    9.0447  -15.7878   25.5234 N   0  0  0  0  0  0  0  0  0  0  0  0
    9.8741  -17.0730   27.4110 C   0  0  0  0  0  0  0  0  0  0  0  0
    9.8390  -18.2098   28.1969 O   0  0  0  0  0  0  0  0  0  0  0  0
   10.4861  -16.0662   27.8217 O   0  0  0  0  0  0  0  0  0  0  0  0
  2  4  1  0
  2  1  1  0
  3  2  2  0
  5  6  1  0
  5  4  1  0
  6  7  1  6
  8  6  1  0
  9  8  2  0
 11 10  1  1
 11 12  1  0
 13 11  1  0
 14 13  1  1
 14 15  1  0
 15  8  1  0
 16 17  2  0
 16 14  1  0
 19 21  1  0
 19 18  1  6
 20 19  1  0
 21 22  1  6
 22 16  1  0
 23 21  1  0
 24 23  1  0
 25 23  2  0
M  END
$$$$
