SGM.pdb
     RDKit          3D

 19 18  0  0  1  0  0  0  0  0999 V2000
   16.7372  -10.3169  -16.8745 O   0  0  0  0  0  0  0  0  0  0  0  0
   17.0123  -10.5541  -15.5149 C   0  0  0  0  0  0  0  0  0  0  0  0
   18.2488   -9.7679  -15.1687 C   0  0  2  0  0  0  0  0  0  0  0  0
   19.4077  -10.5027  -15.6510 N   0  0  0  0  0  0  0  0  0  0  0  0
   18.3217   -9.6317  -13.6973 C   0  0  0  0  0  0  0  0  0  0  0  0
   18.7507  -10.5479  -12.9652 O   0  0  0  0  0  0  0  0  0  0  0  0
   17.8943   -8.4223  -13.0658 N   0  0  0  0  0  0  0  0  0  0  0  0
   17.9448   -8.2900  -11.6596 C   0  0  0  0  0  0  0  0  0  0  0  0
   16.8380   -7.5148  -11.0614 C   0  0  0  0  0  0  0  0  0  0  0  0
   15.9917   -6.9078  -11.8166 O   0  0  0  0  0  0  0  0  0  0  0  0
   11.1888   -7.5347   -5.9040 C   0  0  0  0  0  0  0  0  0  0  0  0
   12.6515   -8.2244   -6.6730 S   0  0  0  0  0  0  0  0  0  0  0  0
   13.5998   -7.0295   -7.5250 C   0  0  0  0  0  0  0  0  0  0  0  0
   14.8606   -7.2588   -8.1843 C   0  0  0  0  0  0  0  0  0  0  0  0
   15.5020   -6.4443   -9.2198 C   0  0  2  0  0  0  0  0  0  0  0  0
   16.6144   -7.3728   -9.6838 N   0  0  0  0  0  0  0  0  0  0  0  0
   16.2279   -5.2259   -8.7659 C   0  0  0  0  0  0  0  0  0  0  0  0
   15.5563   -3.9866   -8.7953 O   0  0  0  0  0  0  0  0  0  0  0  0
   17.3809   -5.1944   -8.3596 O   0  0  0  0  0  0  0  0  0  0  0  0
  1  2  1  0
  3  5  1  0
  3  4  1  1
  3  2  1  0
  5  6  2  0
  7  5  1  0
  7  8  1  0
  9 10  2  0
  9  8  1  0
 11 12  1  0
 13 14  1  0
 13 12  1  0
 15 14  1  1
 15 16  1  0
 15 17  1  0
 16  9  1  0
 17 18  1  0
 19 17  2  0
M  END
$$$$
