SGM.pdb
     RDKit          3D

 19 18  0  0  1  0  0  0  0  0999 V2000
   20.6692   -7.0736  -24.7856 O   0  0  0  0  0  0  0  0  0  0  0  0
   21.7841   -7.8726  -25.0999 C   0  0  0  0  0  0  0  0  0  0  0  0
   22.0320   -8.7727  -23.9188 C   0  0  2  0  0  0  0  0  0  0  0  0
   20.7790   -9.4228  -23.5684 N   0  0  0  0  0  0  0  0  0  0  0  0
   22.4971   -7.9429  -22.7857 C   0  0  0  0  0  0  0  0  0  0  0  0
   23.5854   -7.3312  -22.8123 O   0  0  0  0  0  0  0  0  0  0  0  0
   21.6943   -7.8187  -21.6092 N   0  0  0  0  0  0  0  0  0  0  0  0
   22.1319   -7.0297  -20.5214 C   0  0  0  0  0  0  0  0  0  0  0  0
   22.2203   -7.7377  -19.2272 C   0  0  0  0  0  0  0  0  0  0  0  0
   21.4450   -8.7344  -18.9812 O   0  0  0  0  0  0  0  0  0  0  0  0
   26.9758  -11.3968  -14.5533 C   0  0  0  0  0  0  0  0  0  0  0  0
   26.6272  -10.3267  -15.9460 S   0  0  0  0  0  0  0  0  0  0  0  0
   25.0246   -9.6331  -15.8868 C   0  0  0  0  0  0  0  0  0  0  0  0
   24.4302   -8.7824  -16.8867 C   0  0  0  0  0  0  0  0  0  0  0  0
   23.0741   -8.2281  -16.9135 C   0  0  2  0  0  0  0  0  0  0  0  0
   23.1116   -7.4088  -18.1950 N   0  0  0  0  0  0  0  0  0  0  0  0
   22.7344   -7.2259  -15.8658 C   0  0  0  0  0  0  0  0  0  0  0  0
   22.9267   -5.8581  -16.1487 O   0  0  0  0  0  0  0  0  0  0  0  0
   22.2935   -7.4802  -14.7539 O   0  0  0  0  0  0  0  0  0  0  0  0
  1  2  1  0
  3  5  1  0
  3  4  1  1
  3  2  1  0
  5  6  2  0
  7  5  1  0
  7  8  1  0
  9 10  2  0
  9  8  1  0
 11 12  1  0
 13 14  1  0
 13 12  1  0
 15 14  1  1
 15 16  1  0
 15 17  1  0
 16  9  1  0
 17 18  1  0
 19 17  2  0
M  END
$$$$
