SGM.pdb
     RDKit          3D

 19 18  0  0  1  0  0  0  0  0999 V2000
   21.9255  -21.8057  -14.6258 O   0  0  0  0  0  0  0  0  0  0  0  0
   22.6560  -22.9745  -14.9097 C   0  0  0  0  0  0  0  0  0  0  0  0
   24.0072  -22.5417  -15.4134 C   0  0  2  0  0  0  0  0  0  0  0  0
   24.8849  -23.7015  -15.4223 N   0  0  0  0  0  0  0  0  0  0  0  0
   24.5451  -21.5164  -14.4922 C   0  0  0  0  0  0  0  0  0  0  0  0
   24.0299  -20.3842  -14.3836 O   0  0  0  0  0  0  0  0  0  0  0  0
   25.6913  -21.8042  -13.6874 N   0  0  0  0  0  0  0  0  0  0  0  0
   26.2026  -20.8359  -12.7939 C   0  0  0  0  0  0  0  0  0  0  0  0
   26.1221  -21.1966  -11.3632 C   0  0  0  0  0  0  0  0  0  0  0  0
   25.6151  -22.3245  -11.0082 O   0  0  0  0  0  0  0  0  0  0  0  0
   28.6872  -19.7097   -4.0617 C   0  0  0  0  0  0  0  0  0  0  0  0
   27.8414  -19.1718   -5.5454 S   0  0  0  0  0  0  0  0  0  0  0  0
   27.9636  -20.3235   -6.8537 C   0  0  0  0  0  0  0  0  0  0  0  0
   27.4672  -20.1413   -8.1943 C   0  0  0  0  0  0  0  0  0  0  0  0
   26.4223  -20.9026   -8.8840 C   0  0  2  0  0  0  0  0  0  0  0  0
   26.5673  -20.3865  -10.3079 N   0  0  0  0  0  0  0  0  0  0  0  0
   25.0111  -20.5794   -8.5353 C   0  0  0  0  0  0  0  0  0  0  0  0
   24.3645  -21.3482   -7.5460 O   0  0  0  0  0  0  0  0  0  0  0  0
   24.3402  -19.6886   -9.0371 O   0  0  0  0  0  0  0  0  0  0  0  0
  1  2  1  0
  3  5  1  0
  3  4  1  1
  3  2  1  0
  5  6  2  0
  7  5  1  0
  7  8  1  0
  9 10  2  0
  9  8  1  0
 11 12  1  0
 13 14  1  0
 13 12  1  0
 15 14  1  1
 15 16  1  0
 15 17  1  0
 16  9  1  0
 17 18  1  0
 19 17  2  0
M  END
$$$$
