SGM.pdb
     RDKit          3D

 19 18  0  0  1  0  0  0  0  0999 V2000
   26.0959  -22.5008  -17.9770 O   0  0  0  0  0  0  0  0  0  0  0  0
   26.6292  -22.7503  -16.6989 C   0  0  0  0  0  0  0  0  0  0  0  0
   27.8049  -21.8269  -16.5207 C   0  0  2  0  0  0  0  0  0  0  0  0
   29.0243  -22.6091  -16.6499 N   0  0  0  0  0  0  0  0  0  0  0  0
   27.7345  -21.2331  -15.1674 C   0  0  0  0  0  0  0  0  0  0  0  0
   28.5165  -21.5675  -14.2531 O   0  0  0  0  0  0  0  0  0  0  0  0
   26.7491  -20.2412  -14.8685 N   0  0  0  0  0  0  0  0  0  0  0  0
   26.7031  -19.6367  -13.5919 C   0  0  0  0  0  0  0  0  0  0  0  0
   25.9738  -20.4028  -12.5600 C   0  0  0  0  0  0  0  0  0  0  0  0
   25.3405  -21.4764  -12.8787 O   0  0  0  0  0  0  0  0  0  0  0  0
   29.1212  -19.8408   -6.7040 C   0  0  0  0  0  0  0  0  0  0  0  0
   27.5342  -19.3036   -7.3358 S   0  0  0  0  0  0  0  0  0  0  0  0
   26.7227  -20.5350   -8.2729 C   0  0  0  0  0  0  0  0  0  0  0  0
   25.4648  -20.3875   -8.9603 C   0  0  0  0  0  0  0  0  0  0  0  0
   25.0796  -20.9240  -10.2683 C   0  0  2  0  0  0  0  0  0  0  0  0
   25.9045  -20.0522  -11.2034 N   0  0  0  0  0  0  0  0  0  0  0  0
   23.6778  -20.6837  -10.7095 C   0  0  0  0  0  0  0  0  0  0  0  0
   22.6741  -21.5844  -10.2981 O   0  0  0  0  0  0  0  0  0  0  0  0
   23.3021  -19.7567  -11.4130 O   0  0  0  0  0  0  0  0  0  0  0  0
  1  2  1  0
  3  5  1  0
  3  4  1  1
  3  2  1  0
  5  6  2  0
  7  5  1  0
  7  8  1  0
  9 10  2  0
  9  8  1  0
 11 12  1  0
 13 14  1  0
 13 12  1  0
 15 14  1  1
 15 16  1  0
 15 17  1  0
 16  9  1  0
 17 18  1  0
 19 17  2  0
M  END
$$$$
