SGM.pdb
     RDKit          3D

 19 18  0  0  1  0  0  0  0  0999 V2000
   21.5179  -13.6710  -18.3355 O   0  0  0  0  0  0  0  0  0  0  0  0
   20.1402  -13.9225  -18.4728 C   0  0  0  0  0  0  0  0  0  0  0  0
   19.4541  -13.2917  -17.2904 C   0  0  2  0  0  0  0  0  0  0  0  0
   18.0689  -13.7351  -17.2755 N   0  0  0  0  0  0  0  0  0  0  0  0
   19.5054  -11.8215  -17.4474 C   0  0  0  0  0  0  0  0  0  0  0  0
   18.8382  -11.2219  -18.3161 O   0  0  0  0  0  0  0  0  0  0  0  0
   20.3371  -11.0361  -16.5897 N   0  0  0  0  0  0  0  0  0  0  0  0
   20.3736   -9.6290  -16.7168 C   0  0  0  0  0  0  0  0  0  0  0  0
   21.1585   -8.9248  -15.6815 C   0  0  0  0  0  0  0  0  0  0  0  0
   21.5157   -9.5412  -14.6102 O   0  0  0  0  0  0  0  0  0  0  0  0
   26.7645  -10.7603  -14.9403 C   0  0  0  0  0  0  0  0  0  0  0  0
   26.0612   -9.3331  -15.7618 S   0  0  0  0  0  0  0  0  0  0  0  0
   24.6703   -8.6842  -14.9267 C   0  0  0  0  0  0  0  0  0  0  0  0
   23.8461   -7.5897  -15.3734 C   0  0  0  0  0  0  0  0  0  0  0  0
   22.6095   -7.0836  -14.7721 C   0  0  2  0  0  0  0  0  0  0  0  0
   21.5688   -7.5857  -15.7619 N   0  0  0  0  0  0  0  0  0  0  0  0
   22.4133   -5.6074  -14.7749 C   0  0  0  0  0  0  0  0  0  0  0  0
   22.7602   -4.8756  -13.6208 O   0  0  0  0  0  0  0  0  0  0  0  0
   21.9685   -4.9504  -15.7054 O   0  0  0  0  0  0  0  0  0  0  0  0
  1  2  1  0
  3  5  1  0
  3  4  1  6
  3  2  1  0
  5  6  2  0
  7  5  1  0
  7  8  1  0
  9 10  2  0
  9  8  1  0
 11 12  1  0
 13 14  1  0
 13 12  1  0
 15 14  1  6
 15 16  1  0
 15 17  1  0
 16  9  1  0
 17 18  1  0
 19 17  2  0
M  END
$$$$
