SGM.pdb
     RDKit          3D

 19 18  0  0  1  0  0  0  0  0999 V2000
   22.5980  -22.2017  -13.4154 O   0  0  0  0  0  0  0  0  0  0  0  0
   23.1533  -22.4516  -14.6840 C   0  0  0  0  0  0  0  0  0  0  0  0
   23.9907  -21.2538  -15.0456 C   0  0  2  0  0  0  0  0  0  0  0  0
   24.2879  -21.3161  -16.4680 N   0  0  0  0  0  0  0  0  0  0  0  0
   25.2495  -21.3099  -14.2703 C   0  0  0  0  0  0  0  0  0  0  0  0
   26.1573  -22.1257  -14.5344 O   0  0  0  0  0  0  0  0  0  0  0  0
   25.4610  -20.4121  -13.1778 N   0  0  0  0  0  0  0  0  0  0  0  0
   26.6511  -20.4736  -12.4180 C   0  0  0  0  0  0  0  0  0  0  0  0
   26.4721  -20.8452  -10.9990 C   0  0  0  0  0  0  0  0  0  0  0  0
   26.1084  -22.0383  -10.6840 O   0  0  0  0  0  0  0  0  0  0  0  0
   28.3388  -19.7462   -3.5586 C   0  0  0  0  0  0  0  0  0  0  0  0
   28.5421  -20.0641   -5.3091 S   0  0  0  0  0  0  0  0  0  0  0  0
   27.2640  -19.3725   -6.2792 C   0  0  0  0  0  0  0  0  0  0  0  0
   27.1429  -19.4618   -7.7124 C   0  0  0  0  0  0  0  0  0  0  0  0
   26.5364  -20.5350   -8.5045 C   0  0  2  0  0  0  0  0  0  0  0  0
   26.6707  -19.9782   -9.9141 N   0  0  0  0  0  0  0  0  0  0  0  0
   25.0703  -20.7431   -8.3473 C   0  0  0  0  0  0  0  0  0  0  0  0
   24.1917  -20.0491   -9.2042 O   0  0  0  0  0  0  0  0  0  0  0  0
   24.5398  -21.4766   -7.5253 O   0  0  0  0  0  0  0  0  0  0  0  0
  1  2  1  0
  3  5  1  0
  3  4  1  6
  3  2  1  0
  5  6  2  0
  7  5  1  0
  7  8  1  0
  9 10  2  0
  9  8  1  0
 11 12  1  0
 13 14  1  0
 13 12  1  0
 15 14  1  1
 15 16  1  0
 15 17  1  0
 16  9  1  0
 17 18  1  0
 19 17  2  0
M  END
$$$$
