WCN.pdb
     RDKit          3D

 29 30  0  0  1  0  0  0  0  0999 V2000
    6.6856  -17.0411   25.1779 N   0  0  0  0  0  0  0  0  0  0  0  0
    7.0749  -15.9650   24.3169 C   0  0  1  0  0  0  0  0  0  0  0  0
    8.3463  -15.2735   24.6736 C   0  0  0  0  0  0  0  0  0  0  0  0
    8.2773  -14.6364   26.0061 C   0  0  0  0  0  0  0  0  0  0  0  0
    8.9379  -15.0383   27.1489 C   0  0  0  0  0  0  0  0  0  0  0  0
    8.6017  -14.1594   28.1002 N   0  0  0  0  0  0  0  0  0  0  0  0
    7.7650  -13.2218   27.6291 C   0  0  0  0  0  0  0  0  0  0  0  0
    7.1515  -12.1339   28.2137 C   0  0  0  0  0  0  0  0  0  0  0  0
    6.3187  -11.3334   27.4673 C   0  0  0  0  0  0  0  0  0  0  0  0
    6.0774  -11.5951   26.1278 C   0  0  0  0  0  0  0  0  0  0  0  0
    6.7049  -12.6896   25.5705 C   0  0  0  0  0  0  0  0  0  0  0  0
    7.5486  -13.5099   26.3021 C   0  0  0  0  0  0  0  0  0  0  0  0
    7.0398  -16.4080   22.8989 C   0  0  0  0  0  0  0  0  0  0  0  0
    7.3711  -17.5985   22.6145 O   0  0  0  0  0  0  0  0  0  0  0  0
    6.6573  -15.5849   21.8230 N   0  0  0  0  0  0  0  0  0  0  0  0
    7.5078  -15.2597   20.7036 C   0  0  1  0  0  0  0  0  0  0  0  0
    7.6935  -13.7562   20.7038 C   0  0  0  0  0  0  0  0  0  0  0  0
    8.5792  -13.3309   19.1784 S   0  0  0  0  0  0  0  0  0  0  0  0
    8.8055  -15.9764   20.7545 C   0  0  0  0  0  0  0  0  0  0  0  0
    9.0313  -16.8768   19.9040 O   0  0  0  0  0  0  0  0  0  0  0  0
   13.5661  -16.4250   20.5238 N   0  0  0  0  0  0  0  0  0  0  0  0
   13.4482  -15.5876   21.6644 C   0  0  0  0  0  0  0  0  0  0  0  0
   14.4539  -14.8991   21.9738 O   0  0  0  0  0  0  0  0  0  0  0  0
   12.1779  -15.5854   22.3911 C   0  0  0  0  0  0  0  0  0  0  0  0
   11.0950  -16.3912   21.7437 C   0  0  2  0  0  0  0  0  0  0  0  0
    9.8209  -15.7184   21.7016 N   0  0  0  0  0  0  0  0  0  0  0  0
   10.9809  -17.7626   22.3041 C   0  0  0  0  0  0  0  0  0  0  0  0
   11.6887  -18.8034   21.6739 O   0  0  0  0  0  0  0  0  0  0  0  0
   10.3065  -18.0661   23.2904 O   0  0  0  0  0  0  0  0  0  0  0  0
  2  1  1  1
  2 13  1  0
  3  2  1  0
  3  4  1  0
  4  5  2  0
  4 12  1  0
  5  6  1  0
  6  7  1  0
  7  8  2  0
  8  9  1  0
 10  9  2  0
 11 10  1  0
 12 11  2  0
 12  7  1  0
 13 14  2  0
 15 16  1  0
 15 13  1  0
 16 17  1  1
 17 18  1  0
 19 16  1  0
 19 26  1  0
 20 19  2  0
 22 21  1  0
 23 22  2  0
 24 22  1  0
 25 26  1  0
 25 24  1  1
 27 25  1  0
 28 27  1  0
 29 27  2  0
M  END
$$$$
