WCN.pdb
     RDKit          3D

 29 30  0  0  1  0  0  0  0  0999 V2000
    6.5366  -17.5872   24.6084 N   0  0  0  0  0  0  0  0  0  0  0  0
    6.9137  -16.3538   23.9862 C   0  0  1  0  0  0  0  0  0  0  0  0
    7.9163  -15.5331   24.7232 C   0  0  0  0  0  0  0  0  0  0  0  0
    7.2994  -14.7520   25.8167 C   0  0  0  0  0  0  0  0  0  0  0  0
    6.5854  -15.2507   26.8869 C   0  0  0  0  0  0  0  0  0  0  0  0
    6.2437  -14.1920   27.6305 N   0  0  0  0  0  0  0  0  0  0  0  0
    6.6985  -13.0484   27.0952 C   0  0  0  0  0  0  0  0  0  0  0  0
    6.5995  -11.7283   27.4812 C   0  0  0  0  0  0  0  0  0  0  0  0
    7.1739  -10.7440   26.7114 C   0  0  0  0  0  0  0  0  0  0  0  0
    7.8571  -11.0482   25.5446 C   0  0  0  0  0  0  0  0  0  0  0  0
    7.9400  -12.3767   25.1840 C   0  0  0  0  0  0  0  0  0  0  0  0
    7.3702  -13.3858   25.9437 C   0  0  0  0  0  0  0  0  0  0  0  0
    7.2955  -16.5924   22.5702 C   0  0  0  0  0  0  0  0  0  0  0  0
    7.9789  -17.6200   22.2787 O   0  0  0  0  0  0  0  0  0  0  0  0
    6.9467  -15.7427   21.5036 N   0  0  0  0  0  0  0  0  0  0  0  0
    7.8270  -15.4014   20.4124 C   0  0  1  0  0  0  0  0  0  0  0  0
    7.5761  -13.9466   20.0724 C   0  0  0  0  0  0  0  0  0  0  0  0
    8.5279  -13.5808   18.5715 S   0  0  0  0  0  0  0  0  0  0  0  0
    9.2520  -15.6547   20.7372 C   0  0  0  0  0  0  0  0  0  0  0  0
    9.8474  -14.8542   21.5052 O   0  0  0  0  0  0  0  0  0  0  0  0
   11.2882  -17.3043   22.9836 N   0  0  0  0  0  0  0  0  0  0  0  0
   11.8204  -18.3632   22.2016 C   0  0  0  0  0  0  0  0  0  0  0  0
   12.1525  -19.4120   22.8108 O   0  0  0  0  0  0  0  0  0  0  0  0
   11.9433  -18.1610   20.7574 C   0  0  0  0  0  0  0  0  0  0  0  0
   11.4385  -16.8370   20.2744 C   0  0  2  0  0  0  0  0  0  0  0  0
   10.0004  -16.7445   20.2402 N   0  0  0  0  0  0  0  0  0  0  0  0
   12.0529  -16.4181   18.9880 C   0  0  0  0  0  0  0  0  0  0  0  0
   13.4564  -16.3465   18.9094 O   0  0  0  0  0  0  0  0  0  0  0  0
   11.4230  -16.1241   17.9699 O   0  0  0  0  0  0  0  0  0  0  0  0
  2  1  1  1
  2 13  1  0
  3  2  1  0
  3  4  1  0
  4  5  2  0
  4 12  1  0
  5  6  1  0
  6  7  1  0
  7  8  2  0
  8  9  1  0
 10  9  2  0
 11 10  1  0
 12 11  2  0
 12  7  1  0
 13 14  2  0
 15 16  1  0
 15 13  1  0
 16 17  1  1
 17 18  1  0
 19 16  1  0
 19 26  1  0
 20 19  2  0
 22 21  1  0
 23 22  2  0
 24 22  1  0
 25 26  1  0
 25 24  1  6
 27 25  1  0
 28 27  1  0
 29 27  2  0
M  END
$$$$
