WCN.pdb
     RDKit          3D

 29 30  0  0  1  0  0  0  0  0999 V2000
    6.2511  -18.0068   24.0573 N   0  0  0  0  0  0  0  0  0  0  0  0
    6.6793  -16.6539   23.8643 C   0  0  1  0  0  0  0  0  0  0  0  0
    7.5301  -16.0802   24.9454 C   0  0  0  0  0  0  0  0  0  0  0  0
    6.7938  -15.0982   25.7699 C   0  0  0  0  0  0  0  0  0  0  0  0
    5.6984  -15.3484   26.5708 C   0  0  0  0  0  0  0  0  0  0  0  0
    5.3837  -14.1811   27.1442 N   0  0  0  0  0  0  0  0  0  0  0  0
    6.2151  -13.2024   26.7542 C   0  0  0  0  0  0  0  0  0  0  0  0
    6.2907  -11.8597   27.0592 C   0  0  0  0  0  0  0  0  0  0  0  0
    7.2700  -11.0810   26.4882 C   0  0  0  0  0  0  0  0  0  0  0  0
    8.1930  -11.6171   25.6042 C   0  0  0  0  0  0  0  0  0  0  0  0
    8.0929  -12.9626   25.3184 C   0  0  0  0  0  0  0  0  0  0  0  0
    7.1156  -13.7672   25.8818 C   0  0  0  0  0  0  0  0  0  0  0  0
    7.2811  -16.4969   22.5148 C   0  0  0  0  0  0  0  0  0  0  0  0
    7.4985  -17.5288   21.8107 O   0  0  0  0  0  0  0  0  0  0  0  0
    7.6360  -15.2587   21.9470 N   0  0  0  0  0  0  0  0  0  0  0  0
    8.1487  -15.0935   20.6083 C   0  0  1  0  0  0  0  0  0  0  0  0
    7.8566  -13.6672   20.1895 C   0  0  0  0  0  0  0  0  0  0  0  0
    8.4569  -13.4806   18.4874 S   0  0  0  0  0  0  0  0  0  0  0  0
    9.5945  -15.4113   20.5150 C   0  0  0  0  0  0  0  0  0  0  0  0
   10.1536  -15.3532   19.3884 O   0  0  0  0  0  0  0  0  0  0  0  0
   10.8604  -16.1662   24.7258 N   0  0  0  0  0  0  0  0  0  0  0  0
   12.0183  -15.8682   23.9599 C   0  0  0  0  0  0  0  0  0  0  0  0
   12.7038  -14.8784   24.3227 O   0  0  0  0  0  0  0  0  0  0  0  0
   12.3282  -16.7252   22.8148 C   0  0  0  0  0  0  0  0  0  0  0  0
   11.7614  -16.2468   21.5145 C   0  0  2  0  0  0  0  0  0  0  0  0
   10.4013  -15.7799   21.6140 N   0  0  0  0  0  0  0  0  0  0  0  0
   11.9324  -17.2291   20.4128 C   0  0  0  0  0  0  0  0  0  0  0  0
   10.8665  -18.1016   20.1237 O   0  0  0  0  0  0  0  0  0  0  0  0
   12.9472  -17.3425   19.7221 O   0  0  0  0  0  0  0  0  0  0  0  0
  2  1  1  1
  2 13  1  0
  3  2  1  0
  3  4  1  0
  4  5  2  0
  4 12  1  0
  5  6  1  0
  6  7  1  0
  7  8  2  0
  8  9  1  0
 10  9  2  0
 11 10  1  0
 12 11  2  0
 12  7  1  0
 13 14  2  0
 15 16  1  0
 15 13  1  0
 16 17  1  1
 17 18  1  0
 19 16  1  0
 19 26  1  0
 20 19  2  0
 22 21  1  0
 23 22  2  0
 24 22  1  0
 25 26  1  0
 25 24  1  1
 27 25  1  0
 28 27  1  0
 29 27  2  0
M  END
$$$$
