WCN.pdb
     RDKit          3D

 29 30  0  0  1  0  0  0  0  0999 V2000
    6.5857  -17.9876   24.3388 N   0  0  0  0  0  0  0  0  0  0  0  0
    7.2063  -16.7455   23.9886 C   0  0  1  0  0  0  0  0  0  0  0  0
    8.1828  -16.2047   24.9765 C   0  0  0  0  0  0  0  0  0  0  0  0
    7.5159  -15.4637   26.0685 C   0  0  0  0  0  0  0  0  0  0  0  0
    6.8807  -16.0060   27.1669 C   0  0  0  0  0  0  0  0  0  0  0  0
    6.4515  -14.9696   27.8963 N   0  0  0  0  0  0  0  0  0  0  0  0
    6.7764  -13.7992   27.3256 C   0  0  0  0  0  0  0  0  0  0  0  0
    6.5540  -12.4868   27.6860 C   0  0  0  0  0  0  0  0  0  0  0  0
    7.0084  -11.4684   26.8813 C   0  0  0  0  0  0  0  0  0  0  0  0
    7.6916  -11.7301   25.7042 C   0  0  0  0  0  0  0  0  0  0  0  0
    7.8994  -13.0519   25.3697 C   0  0  0  0  0  0  0  0  0  0  0  0
    7.4517  -14.0947   26.1648 C   0  0  0  0  0  0  0  0  0  0  0  0
    7.7636  -16.8235   22.6133 C   0  0  0  0  0  0  0  0  0  0  0  0
    8.0608  -17.9574   22.1298 O   0  0  0  0  0  0  0  0  0  0  0  0
    7.9913  -15.7059   21.7883 N   0  0  0  0  0  0  0  0  0  0  0  0
    8.4797  -15.7803   20.4325 C   0  0  1  0  0  0  0  0  0  0  0  0
    8.2498  -14.4238   19.7984 C   0  0  0  0  0  0  0  0  0  0  0  0
    6.4826  -14.0500   19.9712 S   0  0  0  0  0  0  0  0  0  0  0  0
    9.9052  -16.1854   20.3681 C   0  0  0  0  0  0  0  0  0  0  0  0
   10.4582  -16.2695   19.2402 O   0  0  0  0  0  0  0  0  0  0  0  0
   12.2393  -15.6393   24.6158 N   0  0  0  0  0  0  0  0  0  0  0  0
   12.8972  -15.9261   23.3906 C   0  0  0  0  0  0  0  0  0  0  0  0
   13.6404  -15.0287   22.9178 O   0  0  0  0  0  0  0  0  0  0  0  0
   12.6657  -17.2319   22.7717 C   0  0  0  0  0  0  0  0  0  0  0  0
   11.9662  -17.1731   21.4496 C   0  0  2  0  0  0  0  0  0  0  0  0
   10.6986  -16.4881   21.4965 N   0  0  0  0  0  0  0  0  0  0  0  0
   11.8556  -18.5020   20.7941 C   0  0  0  0  0  0  0  0  0  0  0  0
   10.8294  -19.3701   21.2119 O   0  0  0  0  0  0  0  0  0  0  0  0
   12.6010  -18.9107   19.9014 O   0  0  0  0  0  0  0  0  0  0  0  0
  2  1  1  1
  2 13  1  0
  3  2  1  0
  3  4  1  0
  4  5  2  0
  4 12  1  0
  5  6  1  0
  6  7  1  0
  7  8  2  0
  8  9  1  0
 10  9  2  0
 11 10  1  0
 12 11  2  0
 12  7  1  0
 13 14  2  0
 15 16  1  0
 15 13  1  0
 16 17  1  1
 17 18  1  0
 19 16  1  0
 19 26  1  0
 20 19  2  0
 22 21  1  0
 23 22  2  0
 24 22  1  0
 25 26  1  0
 25 24  1  1
 27 25  1  0
 28 27  1  0
 29 27  2  0
M  END
$$$$
