WCN.pdb
     RDKit          3D

 29 30  0  0  1  0  0  0  0  0999 V2000
    6.7446  -17.4082   23.8575 N   0  0  0  0  0  0  0  0  0  0  0  0
    7.3016  -16.1350   23.5117 C   0  0  1  0  0  0  0  0  0  0  0  0
    8.0436  -15.4329   24.5972 C   0  0  0  0  0  0  0  0  0  0  0  0
    7.1324  -14.8351   25.5965 C   0  0  0  0  0  0  0  0  0  0  0  0
    6.2398  -15.5069   26.4065 C   0  0  0  0  0  0  0  0  0  0  0  0
    5.6513  -14.5738   27.1637 N   0  0  0  0  0  0  0  0  0  0  0  0
    6.1174  -13.3471   26.8823 C   0  0  0  0  0  0  0  0  0  0  0  0
    5.8231  -12.0954   27.3806 C   0  0  0  0  0  0  0  0  0  0  0  0
    6.4716  -10.9894   26.8829 C   0  0  0  0  0  0  0  0  0  0  0  0
    7.4236  -11.1019   25.8820 C   0  0  0  0  0  0  0  0  0  0  0  0
    7.6972  -12.3661   25.4034 C   0  0  0  0  0  0  0  0  0  0  0  0
    7.0575  -13.4949   25.8897 C   0  0  0  0  0  0  0  0  0  0  0  0
    8.0889  -16.2465   22.2564 C   0  0  0  0  0  0  0  0  0  0  0  0
    8.7276  -17.3162   22.0200 O   0  0  0  0  0  0  0  0  0  0  0  0
    8.1802  -15.2293   21.2878 N   0  0  0  0  0  0  0  0  0  0  0  0
    9.1342  -15.2186   20.2052 C   0  0  1  0  0  0  0  0  0  0  0  0
    9.0244  -13.8696   19.5245 C   0  0  0  0  0  0  0  0  0  0  0  0
    7.3827  -13.7957   18.7552 S   0  0  0  0  0  0  0  0  0  0  0  0
   10.5164  -15.4922   20.6689 C   0  0  0  0  0  0  0  0  0  0  0  0
   10.9884  -14.7940   21.6043 O   0  0  0  0  0  0  0  0  0  0  0  0
   12.2356  -18.5168   22.6117 N   0  0  0  0  0  0  0  0  0  0  0  0
   12.8405  -19.0657   21.4502 C   0  0  0  0  0  0  0  0  0  0  0  0
   13.0733  -20.3014   21.4572 O   0  0  0  0  0  0  0  0  0  0  0  0
   13.1468  -18.1636   20.3393 C   0  0  0  0  0  0  0  0  0  0  0  0
   12.7074  -16.7487   20.5538 C   0  0  2  0  0  0  0  0  0  0  0  0
   11.3536  -16.4935   20.1295 N   0  0  0  0  0  0  0  0  0  0  0  0
   13.6613  -15.7558   19.9952 C   0  0  0  0  0  0  0  0  0  0  0  0
   14.9319  -15.6415   20.5899 O   0  0  0  0  0  0  0  0  0  0  0  0
   13.4256  -15.0139   19.0393 O   0  0  0  0  0  0  0  0  0  0  0  0
  2  1  1  1
  2 13  1  0
  3  2  1  0
  3  4  1  0
  4  5  2  0
  4 12  1  0
  5  6  1  0
  6  7  1  0
  7  8  2  0
  8  9  1  0
 10  9  2  0
 11 10  1  0
 12 11  2  0
 12  7  1  0
 13 14  2  0
 15 16  1  0
 15 13  1  0
 16 17  1  1
 17 18  1  0
 19 16  1  0
 19 26  1  0
 20 19  2  0
 22 21  1  0
 23 22  2  0
 24 22  1  0
 25 26  1  0
 25 24  1  6
 27 25  1  0
 28 27  1  0
 29 27  2  0
M  END
$$$$
