WCN.pdb
     RDKit          3D

 29 30  0  0  1  0  0  0  0  0999 V2000
    6.2966  -18.4755   24.9933 N   0  0  0  0  0  0  0  0  0  0  0  0
    6.7162  -17.1430   24.6784 C   0  0  1  0  0  0  0  0  0  0  0  0
    7.4146  -16.4057   25.7696 C   0  0  0  0  0  0  0  0  0  0  0  0
    6.6841  -15.1844   26.1710 C   0  0  0  0  0  0  0  0  0  0  0  0
    5.3309  -15.0747   26.4172 C   0  0  0  0  0  0  0  0  0  0  0  0
    5.1207  -13.8022   26.7734 N   0  0  0  0  0  0  0  0  0  0  0  0
    6.2617  -13.0955   26.7677 C   0  0  0  0  0  0  0  0  0  0  0  0
    6.5489  -11.7766   27.0498 C   0  0  0  0  0  0  0  0  0  0  0  0
    7.8422  -11.3200   26.9497 C   0  0  0  0  0  0  0  0  0  0  0  0
    8.8759  -12.1608   26.5681 C   0  0  0  0  0  0  0  0  0  0  0  0
    8.5586  -13.4743   26.2925 C   0  0  0  0  0  0  0  0  0  0  0  0
    7.2633  -13.9574   26.3872 C   0  0  0  0  0  0  0  0  0  0  0  0
    7.4765  -17.1358   23.4018 C   0  0  0  0  0  0  0  0  0  0  0  0
    8.2414  -18.1106   23.1320 O   0  0  0  0  0  0  0  0  0  0  0  0
    7.4092  -16.1031   22.4476 N   0  0  0  0  0  0  0  0  0  0  0  0
    8.3229  -15.9560   21.3405 C   0  0  1  0  0  0  0  0  0  0  0  0
    8.0266  -14.6207   20.6893 C   0  0  0  0  0  0  0  0  0  0  0  0
    9.0644  -14.5124   19.2049 S   0  0  0  0  0  0  0  0  0  0  0  0
    9.7411  -16.0622   21.7620 C   0  0  0  0  0  0  0  0  0  0  0  0
   10.1371  -15.3610   22.7298 O   0  0  0  0  0  0  0  0  0  0  0  0
   11.4496  -18.9328   23.3723 N   0  0  0  0  0  0  0  0  0  0  0  0
   12.2927  -19.3428   22.3059 C   0  0  0  0  0  0  0  0  0  0  0  0
   12.6503  -20.5483   22.2916 O   0  0  0  0  0  0  0  0  0  0  0  0
   12.6814  -18.3437   21.3096 C   0  0  0  0  0  0  0  0  0  0  0  0
   12.0815  -16.9895   21.5269 C   0  0  2  0  0  0  0  0  0  0  0  0
   10.6934  -16.9049   21.1475 N   0  0  0  0  0  0  0  0  0  0  0  0
   12.8891  -15.8961   20.9267 C   0  0  0  0  0  0  0  0  0  0  0  0
   12.5514  -15.4465   19.6364 O   0  0  0  0  0  0  0  0  0  0  0  0
   13.8445  -15.3437   21.4760 O   0  0  0  0  0  0  0  0  0  0  0  0
  2  1  1  1
  2 13  1  0
  3  2  1  0
  3  4  1  0
  4  5  2  0
  4 12  1  0
  5  6  1  0
  6  7  1  0
  7  8  2  0
  8  9  1  0
 10  9  2  0
 11 10  1  0
 12 11  2  0
 12  7  1  0
 13 14  2  0
 15 16  1  0
 15 13  1  0
 16 17  1  1
 17 18  1  0
 19 16  1  0
 19 26  1  0
 20 19  2  0
 22 21  1  0
 23 22  2  0
 24 22  1  0
 25 26  1  0
 25 24  1  6
 27 25  1  0
 28 27  1  0
 29 27  2  0
M  END
$$$$
