WCN.pdb
     RDKit          3D

 29 30  0  0  1  0  0  0  0  0999 V2000
    6.4241  -17.9131   24.7044 N   0  0  0  0  0  0  0  0  0  0  0  0
    7.0674  -16.6685   24.4081 C   0  0  1  0  0  0  0  0  0  0  0  0
    7.7313  -15.9895   25.5571 C   0  0  0  0  0  0  0  0  0  0  0  0
    6.8595  -14.9700   26.1792 C   0  0  0  0  0  0  0  0  0  0  0  0
    5.6667  -15.1928   26.8360 C   0  0  0  0  0  0  0  0  0  0  0  0
    5.2436  -13.9941   27.2536 N   0  0  0  0  0  0  0  0  0  0  0  0
    6.0979  -13.0212   26.9002 C   0  0  0  0  0  0  0  0  0  0  0  0
    6.0952  -11.6557   27.0930 C   0  0  0  0  0  0  0  0  0  0  0  0
    7.1269  -10.8917   26.5998 C   0  0  0  0  0  0  0  0  0  0  0  0
    8.1808  -11.4652   25.9061 C   0  0  0  0  0  0  0  0  0  0  0  0
    8.1565  -12.8328   25.7291 C   0  0  0  0  0  0  0  0  0  0  0  0
    7.1285  -13.6232   26.2174 C   0  0  0  0  0  0  0  0  0  0  0  0
    7.9667  -16.8254   23.2357 C   0  0  0  0  0  0  0  0  0  0  0  0
    8.6990  -17.8572   23.1517 O   0  0  0  0  0  0  0  0  0  0  0  0
    8.0682  -15.8920   22.1870 N   0  0  0  0  0  0  0  0  0  0  0  0
    9.1297  -15.8769   21.2098 C   0  0  1  0  0  0  0  0  0  0  0  0
    8.9285  -14.6469   20.3485 C   0  0  0  0  0  0  0  0  0  0  0  0
    7.3581  -14.8677   19.4668 S   0  0  0  0  0  0  0  0  0  0  0  0
   10.4738  -15.8980   21.8368 C   0  0  0  0  0  0  0  0  0  0  0  0
   10.7333  -15.0562   22.7364 O   0  0  0  0  0  0  0  0  0  0  0  0
   15.2250  -17.2213   23.3802 N   0  0  0  0  0  0  0  0  0  0  0  0
   14.3825  -18.3639   23.3526 C   0  0  0  0  0  0  0  0  0  0  0  0
   14.8547  -19.4329   23.8169 O   0  0  0  0  0  0  0  0  0  0  0  0
   13.0388  -18.2176   22.7917 C   0  0  0  0  0  0  0  0  0  0  0  0
   12.7782  -16.8897   22.1517 C   0  0  2  0  0  0  0  0  0  0  0  0
   11.4986  -16.8069   21.4931 N   0  0  0  0  0  0  0  0  0  0  0  0
   13.8874  -16.4458   21.2683 C   0  0  0  0  0  0  0  0  0  0  0  0
   13.6334  -16.3158   19.8901 O   0  0  0  0  0  0  0  0  0  0  0  0
   15.0283  -16.1785   21.6514 O   0  0  0  0  0  0  0  0  0  0  0  0
  2  1  1  1
  2 13  1  0
  3  2  1  0
  3  4  1  0
  4  5  2  0
  4 12  1  0
  5  6  1  0
  6  7  1  0
  7  8  2  0
  8  9  1  0
 10  9  2  0
 11 10  1  0
 12 11  2  0
 12  7  1  0
 13 14  2  0
 15 16  1  0
 15 13  1  0
 16 17  1  1
 17 18  1  0
 19 16  1  0
 19 26  1  0
 20 19  2  0
 22 21  1  0
 23 22  2  0
 24 22  1  0
 25 26  1  0
 25 24  1  6
 27 25  1  0
 28 27  1  0
 29 27  2  0
M  END
$$$$
