WCN.pdb
     RDKit          3D

 29 30  0  0  1  0  0  0  0  0999 V2000
    6.5090  -17.1357   23.3661 N   0  0  0  0  0  0  0  0  0  0  0  0
    7.7530  -16.4539   23.5614 C   0  0  1  0  0  0  0  0  0  0  0  0
    8.0886  -16.1032   24.9708 C   0  0  0  0  0  0  0  0  0  0  0  0
    7.1326  -15.1319   25.5444 C   0  0  0  0  0  0  0  0  0  0  0  0
    5.9592  -15.4225   26.2097 C   0  0  0  0  0  0  0  0  0  0  0  0
    5.4364  -14.2450   26.5712 N   0  0  0  0  0  0  0  0  0  0  0  0
    6.2089  -13.2219   26.1741 C   0  0  0  0  0  0  0  0  0  0  0  0
    6.0923  -11.8540   26.3036 C   0  0  0  0  0  0  0  0  0  0  0  0
    7.0595  -11.0305   25.7766 C   0  0  0  0  0  0  0  0  0  0  0  0
    8.1605  -11.5460   25.1110 C   0  0  0  0  0  0  0  0  0  0  0  0
    8.2503  -12.9175   24.9972 C   0  0  0  0  0  0  0  0  0  0  0  0
    7.2890  -13.7672   25.5206 C   0  0  0  0  0  0  0  0  0  0  0  0
    8.8491  -17.1855   22.8747 C   0  0  0  0  0  0  0  0  0  0  0  0
    8.9237  -18.4453   22.9976 O   0  0  0  0  0  0  0  0  0  0  0  0
    9.8335  -16.5693   22.0793 N   0  0  0  0  0  0  0  0  0  0  0  0
   10.9922  -17.2454   21.5480 C   0  0  1  0  0  0  0  0  0  0  0  0
   11.2139  -16.7191   20.1448 C   0  0  0  0  0  0  0  0  0  0  0  0
   11.2340  -14.9080   20.2545 S   0  0  0  0  0  0  0  0  0  0  0  0
   12.1917  -17.0640   22.4016 C   0  0  0  0  0  0  0  0  0  0  0  0
   12.5406  -15.8947   22.7114 O   0  0  0  0  0  0  0  0  0  0  0  0
   12.7016  -20.8055   25.1420 N   0  0  0  0  0  0  0  0  0  0  0  0
   13.3289  -19.5658   25.4352 C   0  0  0  0  0  0  0  0  0  0  0  0
   12.8749  -18.9123   26.4090 O   0  0  0  0  0  0  0  0  0  0  0  0
   14.4473  -19.1414   24.5922 C   0  0  0  0  0  0  0  0  0  0  0  0
   14.1521  -17.9573   23.7252 C   0  0  2  0  0  0  0  0  0  0  0  0
   12.9823  -18.1232   22.8993 N   0  0  0  0  0  0  0  0  0  0  0  0
   15.3295  -17.5095   22.9372 C   0  0  0  0  0  0  0  0  0  0  0  0
   16.1862  -16.5470   23.5036 O   0  0  0  0  0  0  0  0  0  0  0  0
   15.6201  -17.9191   21.8113 O   0  0  0  0  0  0  0  0  0  0  0  0
  2  1  1  1
  2 13  1  0
  3  2  1  0
  3  4  1  0
  4  5  2  0
  4 12  1  0
  5  6  1  0
  6  7  1  0
  7  8  2  0
  8  9  1  0
 10  9  2  0
 11 10  1  0
 12 11  2  0
 12  7  1  0
 13 14  2  0
 15 16  1  0
 15 13  1  0
 16 17  1  6
 17 18  1  0
 19 16  1  0
 19 26  1  0
 20 19  2  0
 22 21  1  0
 23 22  2  0
 24 22  1  0
 25 26  1  0
 25 24  1  6
 27 25  1  0
 28 27  1  0
 29 27  2  0
M  END
$$$$
