TQP.pdb
     RDKit          3D

 24 24  0  0  1  0  0  0  0  0999 V2000
   26.5052  -20.5311  -17.9450 C   0  0  0  0  0  0  0  0  0  0  0  0
   27.2170  -19.7574  -16.8456 C   0  0  1  0  0  0  0  0  0  0  0  0
   26.4285  -18.7365  -16.3342 O   0  0  0  0  0  0  0  0  0  0  0  0
   27.6062  -20.7243  -15.7673 C   0  0  2  0  0  0  0  0  0  0  0  0
   28.5151  -21.7296  -16.2221 N   0  0  0  0  0  0  0  0  0  0  0  0
   26.3901  -21.3141  -15.1186 C   0  0  0  0  0  0  0  0  0  0  0  0
   25.9428  -22.3827  -15.6215 O   0  0  0  0  0  0  0  0  0  0  0  0
   24.5380  -20.3757   -9.0251 N   0  0  0  0  0  0  0  0  0  0  0  0
   25.6485  -21.0275   -9.5974 C   0  0  0  0  0  0  0  0  0  0  0  0
   26.5956  -21.3405   -8.8381 O   0  0  0  0  0  0  0  0  0  0  0  0
   25.7560  -21.3603  -11.0348 C   0  0  0  0  0  0  0  0  0  0  0  0
   24.6256  -20.9342  -11.8789 C   0  0  0  0  0  0  0  0  0  0  0  0
   24.6605  -21.3431  -13.3263 C   0  0  2  0  0  0  0  0  0  0  0  0
   25.7831  -20.6941  -13.9987 N   0  0  0  0  0  0  0  0  0  0  0  0
   23.4164  -20.8261  -13.9498 C   0  0  0  0  0  0  0  0  0  0  0  0
   23.2616  -19.5529  -13.9116 O   0  0  0  0  0  0  0  0  0  0  0  0
   22.4220  -21.6305  -14.5674 N   0  0  0  0  0  0  0  0  0  0  0  0
   22.4069  -23.0385  -14.7680 C   0  0  0  0  0  0  0  0  0  0  0  0
   20.9007  -23.3552  -14.7613 C   0  0  0  0  0  0  0  0  0  0  0  0
   20.3494  -22.2156  -15.6028 C   0  0  0  0  0  0  0  0  0  0  0  0
   21.2269  -21.0527  -15.1604 C   0  0  1  0  0  0  0  0  0  0  0  0
   20.5350  -20.2427  -14.1223 C   0  0  0  0  0  0  0  0  0  0  0  0
   19.5989  -19.3098  -14.4731 O   0  0  0  0  0  0  0  0  0  0  0  0
   20.7848  -20.3853  -12.8914 O   0  0  0  0  0  0  0  0  0  0  0  0
  2  1  1  6
  2  4  1  0
  3  2  1  0
  4  6  1  0
  4  5  1  6
  6  7  2  0
  8  9  1  0
  9 11  1  0
 10  9  2  0
 11 12  1  0
 13 12  1  1
 13 15  1  0
 14  6  1  0
 14 13  1  0
 15 17  1  0
 15 16  2  0
 17 21  1  0
 18 17  1  0
 19 18  1  0
 19 20  1  0
 20 21  1  0
 21 22  1  1
 22 24  2  0
 22 23  1  0
M  END
$$$$
