TQP.pdb
     RDKit          3D

 24 24  0  0  1  0  0  0  0  0999 V2000
   14.6093   -9.6795  -15.3801 C   0  0  0  0  0  0  0  0  0  0  0  0
   14.8639  -11.1783  -15.3282 C   0  0  1  0  0  0  0  0  0  0  0  0
   14.2648  -11.8444  -16.3878 O   0  0  0  0  0  0  0  0  0  0  0  0
   16.3467  -11.4029  -15.3248 C   0  0  2  0  0  0  0  0  0  0  0  0
   16.7009  -12.7853  -15.4106 N   0  0  0  0  0  0  0  0  0  0  0  0
   16.9833  -10.7287  -14.1468 C   0  0  0  0  0  0  0  0  0  0  0  0
   16.9352  -11.3476  -13.0469 O   0  0  0  0  0  0  0  0  0  0  0  0
   23.1649   -9.9133  -13.8558 N   0  0  0  0  0  0  0  0  0  0  0  0
   22.0609   -9.0418  -13.7721 C   0  0  0  0  0  0  0  0  0  0  0  0
   22.2771   -7.8134  -13.8981 O   0  0  0  0  0  0  0  0  0  0  0  0
   20.6708   -9.4947  -13.5459 C   0  0  0  0  0  0  0  0  0  0  0  0
   19.6523   -8.4318  -13.4775 C   0  0  0  0  0  0  0  0  0  0  0  0
   18.2520   -8.8482  -13.1180 C   0  0  2  0  0  0  0  0  0  0  0  0
   17.6041   -9.4618  -14.2744 N   0  0  0  0  0  0  0  0  0  0  0  0
   17.5017   -7.6071  -12.8011 C   0  0  0  0  0  0  0  0  0  0  0  0
   17.2857   -6.8188  -13.7902 O   0  0  0  0  0  0  0  0  0  0  0  0
   17.0231   -7.2538  -11.5114 N   0  0  0  0  0  0  0  0  0  0  0  0
   17.1325   -7.9716  -10.2883 C   0  0  0  0  0  0  0  0  0  0  0  0
   17.1301   -6.8418   -9.2431 C   0  0  0  0  0  0  0  0  0  0  0  0
   16.0340   -5.9361   -9.7807 C   0  0  0  0  0  0  0  0  0  0  0  0
   16.2580   -6.0388  -11.2831 C   0  0  1  0  0  0  0  0  0  0  0  0
   17.0584   -4.8839  -11.7712 C   0  0  0  0  0  0  0  0  0  0  0  0
   16.4955   -3.6434  -11.8881 O   0  0  0  0  0  0  0  0  0  0  0  0
   18.2747   -5.0062  -12.0928 O   0  0  0  0  0  0  0  0  0  0  0  0
  2  1  1  6
  2  4  1  0
  3  2  1  0
  4  6  1  0
  4  5  1  1
  6  7  2  0
  8  9  1  0
  9 11  1  0
 10  9  2  0
 11 12  1  0
 13 12  1  6
 13 15  1  0
 14  6  1  0
 14 13  1  0
 15 17  1  0
 15 16  2  0
 17 21  1  0
 18 17  1  0
 19 18  1  0
 19 20  1  0
 20 21  1  0
 21 22  1  1
 22 24  2  0
 22 23  1  0
M  END
$$$$
