TQP.pdb
     RDKit          3D

 24 24  0  0  1  0  0  0  0  0999 V2000
   25.1627  -14.5804  -15.0121 C   0  0  0  0  0  0  0  0  0  0  0  0
   24.5318  -13.3572  -15.6600 C   0  0  1  0  0  0  0  0  0  0  0  0
   25.3274  -12.8351  -16.6698 O   0  0  0  0  0  0  0  0  0  0  0  0
   23.1841  -13.7484  -16.1889 C   0  0  2  0  0  0  0  0  0  0  0  0
   23.2591  -14.6849  -17.2665 N   0  0  0  0  0  0  0  0  0  0  0  0
   22.3824  -12.5343  -16.5503 C   0  0  0  0  0  0  0  0  0  0  0  0
   22.2610  -12.2828  -17.7820 O   0  0  0  0  0  0  0  0  0  0  0  0
   16.8731  -10.8950  -14.3912 N   0  0  0  0  0  0  0  0  0  0  0  0
   17.2582   -9.8283  -15.2275 C   0  0  0  0  0  0  0  0  0  0  0  0
   16.3942   -8.9628  -15.5034 O   0  0  0  0  0  0  0  0  0  0  0  0
   18.6167   -9.6754  -15.7928 C   0  0  0  0  0  0  0  0  0  0  0  0
   19.5889  -10.7179  -15.4189 C   0  0  0  0  0  0  0  0  0  0  0  0
   20.9933  -10.5604  -15.9349 C   0  0  2  0  0  0  0  0  0  0  0  0
   21.7961  -11.7188  -15.5513 N   0  0  0  0  0  0  0  0  0  0  0  0
   21.5734   -9.3777  -15.2505 C   0  0  0  0  0  0  0  0  0  0  0  0
   21.7186   -9.4848  -13.9801 O   0  0  0  0  0  0  0  0  0  0  0  0
   21.9659   -8.1759  -15.8976 N   0  0  0  0  0  0  0  0  0  0  0  0
   21.9625   -7.8639  -17.2853 C   0  0  0  0  0  0  0  0  0  0  0  0
   21.7571   -6.3386  -17.2786 C   0  0  0  0  0  0  0  0  0  0  0  0
   22.6908   -5.9137  -16.1568 C   0  0  0  0  0  0  0  0  0  0  0  0
   22.5095   -7.0484  -15.1580 C   0  0  1  0  0  0  0  0  0  0  0  0
   21.5315   -6.6650  -14.1049 C   0  0  0  0  0  0  0  0  0  0  0  0
   20.2368   -7.1008  -14.1618 O   0  0  0  0  0  0  0  0  0  0  0  0
   21.8580   -5.9296  -13.1300 O   0  0  0  0  0  0  0  0  0  0  0  0
  2  1  1  6
  2  4  1  0
  3  2  1  0
  4  6  1  0
  4  5  1  6
  6  7  2  0
  8  9  1  0
  9 11  1  0
 10  9  2  0
 11 12  1  0
 13 12  1  1
 13 15  1  0
 14  6  1  0
 14 13  1  0
 15 17  1  0
 15 16  2  0
 17 21  1  0
 18 17  1  0
 19 18  1  0
 19 20  1  0
 20 21  1  0
 21 22  1  1
 22 24  2  0
 22 23  1  0
M  END
$$$$
