TQP.pdb
     RDKit          3D

 24 24  0  0  1  0  0  0  0  0999 V2000
   19.6298  -37.1138  -12.3985 C   0  0  0  0  0  0  0  0  0  0  0  0
   20.5462  -36.1683  -11.6367 C   0  0  1  0  0  0  0  0  0  0  0  0
   21.4859  -35.5739  -12.4668 O   0  0  0  0  0  0  0  0  0  0  0  0
   19.6968  -35.1326  -10.9623 C   0  0  2  0  0  0  0  0  0  0  0  0
   18.9113  -34.3710  -11.8826 N   0  0  0  0  0  0  0  0  0  0  0  0
   20.5298  -34.2593  -10.0730 C   0  0  0  0  0  0  0  0  0  0  0  0
   20.7930  -33.1014  -10.5032 O   0  0  0  0  0  0  0  0  0  0  0  0
   20.8898  -34.4815   -3.6953 N   0  0  0  0  0  0  0  0  0  0  0  0
   21.6890  -33.4018   -4.1207 C   0  0  0  0  0  0  0  0  0  0  0  0
   22.1617  -32.6444   -3.2408 O   0  0  0  0  0  0  0  0  0  0  0  0
   21.9986  -33.1164   -5.5389 C   0  0  0  0  0  0  0  0  0  0  0  0
   21.3903  -34.0272   -6.5248 C   0  0  0  0  0  0  0  0  0  0  0  0
   21.7876  -33.8416   -7.9640 C   0  0  2  0  0  0  0  0  0  0  0  0
   20.9921  -34.7216   -8.8163 N   0  0  0  0  0  0  0  0  0  0  0  0
   23.2017  -34.2782   -8.0800 C   0  0  0  0  0  0  0  0  0  0  0  0
   23.4383  -35.4945   -7.7470 O   0  0  0  0  0  0  0  0  0  0  0  0
   24.2717  -33.4571   -8.5252 N   0  0  0  0  0  0  0  0  0  0  0  0
   24.2596  -32.0753   -8.8619 C   0  0  0  0  0  0  0  0  0  0  0  0
   25.6999  -31.6441   -8.5322 C   0  0  0  0  0  0  0  0  0  0  0  0
   26.4993  -32.8076   -9.0962 C   0  0  0  0  0  0  0  0  0  0  0  0
   25.6042  -33.9911   -8.7553 C   0  0  1  0  0  0  0  0  0  0  0  0
   26.0658  -34.6508   -7.5045 C   0  0  0  0  0  0  0  0  0  0  0  0
   27.2060  -35.4053   -7.4923 O   0  0  0  0  0  0  0  0  0  0  0  0
   25.4272  -34.5396   -6.4193 O   0  0  0  0  0  0  0  0  0  0  0  0
  2  1  1  6
  2  4  1  0
  3  2  1  0
  4  6  1  0
  4  5  1  6
  6  7  2  0
  8  9  1  0
  9 11  1  0
 10  9  2  0
 11 12  1  0
 13 12  1  1
 13 15  1  0
 14  6  1  0
 14 13  1  0
 15 17  1  0
 15 16  2  0
 17 21  1  0
 18 17  1  0
 19 18  1  0
 19 20  1  0
 20 21  1  0
 21 22  1  1
 22 24  2  0
 22 23  1  0
M  END
$$$$
