TQP.pdb
     RDKit          3D

 24 24  0  0  1  0  0  0  0  0999 V2000
   25.4964  -27.1218  -17.2472 C   0  0  0  0  0  0  0  0  0  0  0  0
   25.5411  -25.9284  -16.3049 C   0  0  1  0  0  0  0  0  0  0  0  0
   25.7997  -26.3090  -14.9959 O   0  0  0  0  0  0  0  0  0  0  0  0
   26.5877  -24.9764  -16.8021 C   0  0  2  0  0  0  0  0  0  0  0  0
   27.8941  -25.5558  -16.8415 N   0  0  0  0  0  0  0  0  0  0  0  0
   26.5597  -23.6992  -16.0176 C   0  0  0  0  0  0  0  0  0  0  0  0
   27.5909  -23.4286  -15.3405 O   0  0  0  0  0  0  0  0  0  0  0  0
   22.0961  -19.4569  -15.5981 N   0  0  0  0  0  0  0  0  0  0  0  0
   23.2475  -18.6990  -15.3059 C   0  0  0  0  0  0  0  0  0  0  0  0
   23.0842  -17.5507  -14.8301 O   0  0  0  0  0  0  0  0  0  0  0  0
   24.6282  -19.1817  -15.5281 C   0  0  0  0  0  0  0  0  0  0  0  0
   24.7510  -20.5187  -16.1354 C   0  0  0  0  0  0  0  0  0  0  0  0
   25.4578  -21.5741  -15.3290 C   0  0  2  0  0  0  0  0  0  0  0  0
   25.4277  -22.8479  -16.0432 N   0  0  0  0  0  0  0  0  0  0  0  0
   24.6792  -21.7533  -14.0778 C   0  0  0  0  0  0  0  0  0  0  0  0
   23.4934  -22.2217  -14.2219 O   0  0  0  0  0  0  0  0  0  0  0  0
   25.1545  -21.4492  -12.7744 N   0  0  0  0  0  0  0  0  0  0  0  0
   26.4553  -21.0420  -12.3682 C   0  0  0  0  0  0  0  0  0  0  0  0
   26.1592  -20.1976  -11.1159 C   0  0  0  0  0  0  0  0  0  0  0  0
   25.1109  -21.0497  -10.4189 C   0  0  0  0  0  0  0  0  0  0  0  0
   24.3079  -21.5782  -11.5995 C   0  0  1  0  0  0  0  0  0  0  0  0
   23.0872  -20.7548  -11.8104 C   0  0  0  0  0  0  0  0  0  0  0  0
   22.0046  -20.8865  -10.9857 O   0  0  0  0  0  0  0  0  0  0  0  0
   23.0068  -19.9130  -12.7499 O   0  0  0  0  0  0  0  0  0  0  0  0
  2  1  1  6
  2  4  1  0
  3  2  1  0
  4  6  1  0
  4  5  1  1
  6  7  2  0
  8  9  1  0
  9 11  1  0
 10  9  2  0
 11 12  1  0
 13 12  1  6
 13 15  1  0
 14  6  1  0
 14 13  1  0
 15 17  1  0
 15 16  2  0
 17 21  1  0
 18 17  1  0
 19 18  1  0
 19 20  1  0
 20 21  1  0
 21 22  1  6
 22 24  2  0
 22 23  1  0
M  END
$$$$
