TQP.pdb
     RDKit          3D

 24 24  0  0  1  0  0  0  0  0999 V2000
   22.9949  -10.6416  -17.5158 C   0  0  0  0  0  0  0  0  0  0  0  0
   22.0430  -11.6776  -18.0942 C   0  0  1  0  0  0  0  0  0  0  0  0
   22.7148  -12.8012  -18.5543 O   0  0  0  0  0  0  0  0  0  0  0  0
   21.0485  -12.0456  -17.0338 C   0  0  2  0  0  0  0  0  0  0  0  0
   20.1862  -13.1162  -17.4263 N   0  0  0  0  0  0  0  0  0  0  0  0
   20.2817  -10.8388  -16.5831 C   0  0  0  0  0  0  0  0  0  0  0  0
   19.5478  -10.2803  -17.4459 O   0  0  0  0  0  0  0  0  0  0  0  0
   17.6695   -9.7044  -10.9548 N   0  0  0  0  0  0  0  0  0  0  0  0
   17.4590   -8.5461  -11.7291 C   0  0  0  0  0  0  0  0  0  0  0  0
   16.6660   -7.6834  -11.2836 O   0  0  0  0  0  0  0  0  0  0  0  0
   18.1186   -8.2948  -13.0292 C   0  0  0  0  0  0  0  0  0  0  0  0
   18.9645   -9.3872  -13.5418 C   0  0  0  0  0  0  0  0  0  0  0  0
   19.6595   -9.1553  -14.8559 C   0  0  2  0  0  0  0  0  0  0  0  0
   20.3839  -10.3596  -15.2539 N   0  0  0  0  0  0  0  0  0  0  0  0
   20.6686   -8.0908  -14.6272 C   0  0  0  0  0  0  0  0  0  0  0  0
   21.5537   -8.3450  -13.7338 O   0  0  0  0  0  0  0  0  0  0  0  0
   20.7120   -6.8504  -15.3176 N   0  0  0  0  0  0  0  0  0  0  0  0
   19.8368   -6.3544  -16.3232 C   0  0  0  0  0  0  0  0  0  0  0  0
   19.9260   -4.8321  -16.1146 C   0  0  0  0  0  0  0  0  0  0  0  0
   21.4194   -4.6440  -15.9020 C   0  0  0  0  0  0  0  0  0  0  0  0
   21.7744   -5.8838  -15.0928 C   0  0  1  0  0  0  0  0  0  0  0  0
   21.8161   -5.5644  -13.6406 C   0  0  0  0  0  0  0  0  0  0  0  0
   22.8793   -4.8936  -13.1030 O   0  0  0  0  0  0  0  0  0  0  0  0
   20.8805   -5.8986  -12.8590 O   0  0  0  0  0  0  0  0  0  0  0  0
  2  1  1  1
  2  4  1  0
  3  2  1  0
  4  6  1  0
  4  5  1  6
  6  7  2  0
  8  9  1  0
  9 11  1  0
 10  9  2  0
 11 12  1  0
 13 12  1  1
 13 15  1  0
 14  6  1  0
 14 13  1  0
 15 17  1  0
 15 16  2  0
 17 21  1  0
 18 17  1  0
 19 18  1  0
 19 20  1  0
 20 21  1  0
 21 22  1  1
 22 24  2  0
 22 23  1  0
M  END
$$$$
