TQP.pdb
     RDKit          3D

 24 24  0  0  1  0  0  0  0  0999 V2000
   26.4120  -10.2269  -15.3758 C   0  0  0  0  0  0  0  0  0  0  0  0
   26.6748  -11.1248  -16.5753 C   0  0  1  0  0  0  0  0  0  0  0  0
   27.7288  -11.9985  -16.3497 O   0  0  0  0  0  0  0  0  0  0  0  0
   25.4141  -11.8757  -16.8849 C   0  0  2  0  0  0  0  0  0  0  0  0
   25.5642  -12.7916  -17.9724 N   0  0  0  0  0  0  0  0  0  0  0  0
   24.2707  -10.9296  -17.0969 C   0  0  0  0  0  0  0  0  0  0  0  0
   24.0892  -10.5171  -18.2768 O   0  0  0  0  0  0  0  0  0  0  0  0
   18.6431  -11.1156  -14.3172 N   0  0  0  0  0  0  0  0  0  0  0  0
   18.6078  -10.0347  -15.2204 C   0  0  0  0  0  0  0  0  0  0  0  0
   17.4971   -9.4980  -15.4440 O   0  0  0  0  0  0  0  0  0  0  0  0
   19.8016   -9.5027  -15.9135 C   0  0  0  0  0  0  0  0  0  0  0  0
   21.0712  -10.1945  -15.6283 C   0  0  0  0  0  0  0  0  0  0  0  0
   22.3140   -9.6330  -16.2637 C   0  0  2  0  0  0  0  0  0  0  0  0
   23.4435  -10.5265  -16.0199 N   0  0  0  0  0  0  0  0  0  0  0  0
   22.6096   -8.3525  -15.5732 C   0  0  0  0  0  0  0  0  0  0  0  0
   22.8778   -8.4434  -14.3218 O   0  0  0  0  0  0  0  0  0  0  0  0
   22.6152   -7.0760  -16.1959 N   0  0  0  0  0  0  0  0  0  0  0  0
   22.3483   -6.7402  -17.5520 C   0  0  0  0  0  0  0  0  0  0  0  0
   21.7918   -5.3102  -17.4330 C   0  0  0  0  0  0  0  0  0  0  0  0
   22.7434   -4.7001  -16.4166 C   0  0  0  0  0  0  0  0  0  0  0  0
   22.9735   -5.8691  -15.4687 C   0  0  1  0  0  0  0  0  0  0  0  0
   22.0862   -5.7590  -14.2800 C   0  0  0  0  0  0  0  0  0  0  0  0
   22.3721   -4.8783  -13.2739 O   0  0  0  0  0  0  0  0  0  0  0  0
   21.0471   -6.4684  -14.1576 O   0  0  0  0  0  0  0  0  0  0  0  0
  2  1  1  1
  2  4  1  0
  3  2  1  0
  4  6  1  0
  4  5  1  6
  6  7  2  0
  8  9  1  0
  9 11  1  0
 10  9  2  0
 11 12  1  0
 13 12  1  1
 13 15  1  0
 14  6  1  0
 14 13  1  0
 15 17  1  0
 15 16  2  0
 17 21  1  0
 18 17  1  0
 19 18  1  0
 19 20  1  0
 20 21  1  0
 21 22  1  1
 22 24  2  0
 22 23  1  0
M  END
$$$$
