TQP.pdb
     RDKit          3D

 24 24  0  0  1  0  0  0  0  0999 V2000
   28.3741  -11.4343  -15.9504 C   0  0  0  0  0  0  0  0  0  0  0  0
   27.1048  -10.6592  -16.2696 C   0  0  1  0  0  0  0  0  0  0  0  0
   27.2065   -9.9654  -17.4670 O   0  0  0  0  0  0  0  0  0  0  0  0
   25.9602  -11.6275  -16.3077 C   0  0  2  0  0  0  0  0  0  0  0  0
   26.1006  -12.6158  -17.3311 N   0  0  0  0  0  0  0  0  0  0  0  0
   24.6523  -10.9005  -16.4001 C   0  0  0  0  0  0  0  0  0  0  0  0
   24.1107  -10.8535  -17.5401 O   0  0  0  0  0  0  0  0  0  0  0  0
   19.9177  -11.5886  -15.8007 N   0  0  0  0  0  0  0  0  0  0  0  0
   19.5385  -10.3921  -15.1604 C   0  0  0  0  0  0  0  0  0  0  0  0
   18.3462  -10.0222  -15.2751 O   0  0  0  0  0  0  0  0  0  0  0  0
   20.4643   -9.5553  -14.3658 C   0  0  0  0  0  0  0  0  0  0  0  0
   21.8561  -10.0335  -14.2884 C   0  0  0  0  0  0  0  0  0  0  0  0
   22.7921   -9.5943  -15.3813 C   0  0  2  0  0  0  0  0  0  0  0  0
   24.0646  -10.3011  -15.2590 N   0  0  0  0  0  0  0  0  0  0  0  0
   23.0672   -8.1525  -15.1592 C   0  0  0  0  0  0  0  0  0  0  0  0
   23.7071   -7.8666  -14.0844 O   0  0  0  0  0  0  0  0  0  0  0  0
   22.6787   -7.1064  -16.0378 N   0  0  0  0  0  0  0  0  0  0  0  0
   21.9788   -7.1885  -17.2733 C   0  0  0  0  0  0  0  0  0  0  0  0
   21.2493   -5.8344  -17.3282 C   0  0  0  0  0  0  0  0  0  0  0  0
   22.3380   -4.8861  -16.8525 C   0  0  0  0  0  0  0  0  0  0  0  0
   23.0246   -5.7183  -15.7784 C   0  0  1  0  0  0  0  0  0  0  0  0
   22.5136   -5.3535  -14.4299 C   0  0  0  0  0  0  0  0  0  0  0  0
   22.9712   -4.2364  -13.7880 O   0  0  0  0  0  0  0  0  0  0  0  0
   21.6475   -6.0558  -13.8345 O   0  0  0  0  0  0  0  0  0  0  0  0
  2  1  1  6
  2  4  1  0
  3  2  1  0
  4  6  1  0
  4  5  1  6
  6  7  2  0
  8  9  1  0
  9 11  1  0
 10  9  2  0
 11 12  1  0
 13 12  1  1
 13 15  1  0
 14  6  1  0
 14 13  1  0
 15 17  1  0
 15 16  2  0
 17 21  1  0
 18 17  1  0
 19 18  1  0
 19 20  1  0
 20 21  1  0
 21 22  1  1
 22 24  2  0
 22 23  1  0
M  END
$$$$
