NPD.pdb
     RDKit          3D

 24 24  0  0  1  0  0  0  0  0999 V2000
   22.8622  -12.6654  -21.2043 N   0  0  0  0  0  0  0  0  0  0  0  0
   21.6270  -12.6344  -20.5160 C   0  0  0  0  0  0  0  0  0  0  0  0
   20.6777  -13.3683  -20.8764 O   0  0  0  0  0  0  0  0  0  0  0  0
   21.4301  -11.7372  -19.3587 C   0  0  0  0  0  0  0  0  0  0  0  0
   21.8739  -12.4309  -18.0706 C   0  0  2  0  0  0  0  0  0  0  0  0
   20.9348  -13.5245  -17.8195 N   0  0  0  0  0  0  0  0  0  0  0  0
   21.7208  -11.4572  -16.9339 C   0  0  0  0  0  0  0  0  0  0  0  0
   20.5274  -11.1311  -16.6827 O   0  0  0  0  0  0  0  0  0  0  0  0
   22.8481  -11.0028  -16.2663 N   0  0  0  0  0  0  0  0  0  0  0  0
   23.9539  -11.8823  -15.8432 C   0  0  0  0  0  0  0  0  0  0  0  0
   25.1286  -11.0966  -16.3905 C   0  0  0  0  0  0  0  0  0  0  0  0
   24.6456   -9.6673  -16.5147 C   0  0  0  0  0  0  0  0  0  0  0  0
   23.2696   -9.7472  -15.7823 C   0  0  1  0  0  0  0  0  0  0  0  0
   22.5025   -8.5535  -16.0231 C   0  0  0  0  0  0  0  0  0  0  0  0
   21.7830   -8.3628  -17.0054 O   0  0  0  0  0  0  0  0  0  0  0  0
   22.5667   -7.4876  -15.0540 N   0  0  0  0  0  0  0  0  0  0  0  0
   21.7836   -6.2796  -15.2768 C   0  0  1  0  0  0  0  0  0  0  0  0
   20.3309   -6.6163  -15.2777 C   0  0  0  0  0  0  0  0  0  0  0  0
   19.5597   -5.3922  -15.5896 C   0  0  0  0  0  0  0  0  0  0  0  0
   19.8795   -4.7258  -16.6001 O   0  0  0  0  0  0  0  0  0  0  0  0
   22.0591   -5.2874  -14.2038 C   0  0  0  0  0  0  0  0  0  0  0  0
   21.8970   -3.9346  -14.4314 O   0  0  0  0  0  0  0  0  0  0  0  0
   18.5114   -4.9675  -14.8094 O   0  0  0  0  0  0  0  0  0  0  0  0
   22.4454   -5.6449  -13.0650 O   0  0  0  0  0  0  0  0  0  0  0  0
  2  3  2  0
  2  1  1  0
  4  2  1  0
  5  7  1  0
  5  4  1  0
  5  6  1  1
  7  8  2  0
  9 13  1  0
  9  7  1  0
 10  9  1  0
 11 10  1  0
 11 12  1  0
 12 13  1  0
 13 14  1  6
 14 15  2  0
 14 16  1  0
 16 17  1  0
 17 21  1  0
 17 18  1  1
 19 18  1  0
 20 19  2  0
 21 24  2  0
 21 22  1  0
 23 19  1  0
M  END
$$$$
