NPD.pdb
     RDKit          3D

 24 24  0  0  1  0  0  0  0  0999 V2000
   20.7907  -22.3143   -7.7221 N   0  0  0  0  0  0  0  0  0  0  0  0
   20.4471  -22.4320   -9.0890 C   0  0  0  0  0  0  0  0  0  0  0  0
   19.9165  -23.4798   -9.5251 O   0  0  0  0  0  0  0  0  0  0  0  0
   20.7064  -21.3233  -10.0306 C   0  0  0  0  0  0  0  0  0  0  0  0
   22.1444  -20.8269   -9.8794 C   0  0  2  0  0  0  0  0  0  0  0  0
   22.1223  -19.7106   -8.9336 N   0  0  0  0  0  0  0  0  0  0  0  0
   22.5914  -20.2667  -11.2023 C   0  0  0  0  0  0  0  0  0  0  0  0
   21.7157  -19.5844  -11.8032 O   0  0  0  0  0  0  0  0  0  0  0  0
   23.8769  -20.5237  -11.6544 N   0  0  0  0  0  0  0  0  0  0  0  0
   25.0733  -20.4449  -10.7954 C   0  0  0  0  0  0  0  0  0  0  0  0
   25.7138  -21.7776  -11.1272 C   0  0  0  0  0  0  0  0  0  0  0  0
   25.1751  -22.1659  -12.4875 C   0  0  0  0  0  0  0  0  0  0  0  0
   24.4351  -20.8568  -12.9057 C   0  0  1  0  0  0  0  0  0  0  0  0
   23.6064  -21.0946  -14.0582 C   0  0  0  0  0  0  0  0  0  0  0  0
   23.0136  -22.1486  -14.2961 O   0  0  0  0  0  0  0  0  0  0  0  0
   23.4445  -20.0323  -15.0198 N   0  0  0  0  0  0  0  0  0  0  0  0
   22.2269  -19.9788  -15.8178 C   0  0  1  0  0  0  0  0  0  0  0  0
   21.0422  -19.8683  -14.9190 C   0  0  0  0  0  0  0  0  0  0  0  0
   19.8140  -19.9217  -15.7431 C   0  0  0  0  0  0  0  0  0  0  0  0
   19.7883  -20.6945  -16.7278 O   0  0  0  0  0  0  0  0  0  0  0  0
   22.2653  -18.8045  -16.7295 C   0  0  0  0  0  0  0  0  0  0  0  0
   21.6712  -18.8554  -17.9755 O   0  0  0  0  0  0  0  0  0  0  0  0
   18.7093  -19.1542  -15.4630 O   0  0  0  0  0  0  0  0  0  0  0  0
   22.8350  -17.7369  -16.3984 O   0  0  0  0  0  0  0  0  0  0  0  0
  2  3  2  0
  2  1  1  0
  4  2  1  0
  5  7  1  0
  5  4  1  0
  5  6  1  1
  7  8  2  0
  9 13  1  0
  9  7  1  0
 10  9  1  0
 11 10  1  0
 11 12  1  0
 12 13  1  0
 13 14  1  6
 14 15  2  0
 14 16  1  0
 16 17  1  0
 17 21  1  0
 17 18  1  1
 19 18  1  0
 20 19  2  0
 21 24  2  0
 21 22  1  0
 23 19  1  0
M  END
$$$$
