NPD.pdb
     RDKit          3D

 24 24  0  0  1  0  0  0  0  0999 V2000
   19.4923  -13.6255  -18.7437 N   0  0  0  0  0  0  0  0  0  0  0  0
   19.4009  -12.2938  -19.2114 C   0  0  0  0  0  0  0  0  0  0  0  0
   19.2272  -12.0564  -20.4293 O   0  0  0  0  0  0  0  0  0  0  0  0
   19.5080  -11.1559  -18.2751 C   0  0  0  0  0  0  0  0  0  0  0  0
   19.7123  -11.6636  -16.8476 C   0  0  2  0  0  0  0  0  0  0  0  0
   18.4414  -12.2370  -16.4036 N   0  0  0  0  0  0  0  0  0  0  0  0
   19.9881  -10.4797  -15.9610 C   0  0  0  0  0  0  0  0  0  0  0  0
   19.1057   -9.5780  -16.0043 O   0  0  0  0  0  0  0  0  0  0  0  0
   21.1399  -10.4571  -15.1891 N   0  0  0  0  0  0  0  0  0  0  0  0
   21.7322  -11.6601  -14.5746 C   0  0  0  0  0  0  0  0  0  0  0  0
   23.1707  -11.4928  -15.0212 C   0  0  0  0  0  0  0  0  0  0  0  0
   23.3464  -10.0149  -15.2980 C   0  0  0  0  0  0  0  0  0  0  0  0
   22.0070   -9.4401  -14.7394 C   0  0  1  0  0  0  0  0  0  0  0  0
   21.8371   -8.0718  -15.1517 C   0  0  0  0  0  0  0  0  0  0  0  0
   21.8916   -7.6734  -16.3167 O   0  0  0  0  0  0  0  0  0  0  0  0
   21.5831   -7.0754  -14.1406 N   0  0  0  0  0  0  0  0  0  0  0  0
   21.3959   -5.6883  -14.5444 C   0  0  1  0  0  0  0  0  0  0  0  0
   19.9703   -5.2968  -14.3493 C   0  0  0  0  0  0  0  0  0  0  0  0
   19.7735   -3.9336  -14.8911 C   0  0  0  0  0  0  0  0  0  0  0  0
   20.7022   -3.4125  -15.5494 O   0  0  0  0  0  0  0  0  0  0  0  0
   22.2672   -4.7981  -13.7320 C   0  0  0  0  0  0  0  0  0  0  0  0
   22.7621   -3.6201  -14.2569 O   0  0  0  0  0  0  0  0  0  0  0  0
   18.6114   -3.2273  -14.6945 O   0  0  0  0  0  0  0  0  0  0  0  0
   22.5790   -5.0867  -12.5515 O   0  0  0  0  0  0  0  0  0  0  0  0
  2  3  2  0
  2  1  1  0
  4  2  1  0
  5  7  1  0
  5  4  1  0
  5  6  1  1
  7  8  2  0
  9 13  1  0
  9  7  1  0
 10  9  1  0
 11 10  1  0
 11 12  1  0
 12 13  1  0
 13 14  1  6
 14 15  2  0
 14 16  1  0
 16 17  1  0
 17 21  1  0
 17 18  1  1
 19 18  1  0
 20 19  2  0
 21 24  2  0
 21 22  1  0
 23 19  1  0
M  END
$$$$
