NPD.pdb
     RDKit          3D

 24 24  0  0  1  0  0  0  0  0999 V2000
   16.5890  -12.2983  -17.9725 N   0  0  0  0  0  0  0  0  0  0  0  0
   17.9181  -11.8147  -17.9623 C   0  0  0  0  0  0  0  0  0  0  0  0
   18.8166  -12.4058  -18.6050 O   0  0  0  0  0  0  0  0  0  0  0  0
   18.2748  -10.6038  -17.1946 C   0  0  0  0  0  0  0  0  0  0  0  0
   19.1885  -10.9698  -16.0248 C   0  0  2  0  0  0  0  0  0  0  0  0
   18.3625  -11.6423  -15.0214 N   0  0  0  0  0  0  0  0  0  0  0  0
   19.6836   -9.6955  -15.3966 C   0  0  0  0  0  0  0  0  0  0  0  0
   18.7709   -8.8964  -15.0473 O   0  0  0  0  0  0  0  0  0  0  0  0
   21.0472   -9.4912  -15.2483 N   0  0  0  0  0  0  0  0  0  0  0  0
   22.0025  -10.5693  -14.9314 C   0  0  0  0  0  0  0  0  0  0  0  0
   23.0448  -10.3089  -16.0003 C   0  0  0  0  0  0  0  0  0  0  0  0
   22.8849   -8.8537  -16.3853 C   0  0  0  0  0  0  0  0  0  0  0  0
   21.8862   -8.3587  -15.2926 C   0  0  1  0  0  0  0  0  0  0  0  0
   21.3740   -7.0575  -15.6329 C   0  0  0  0  0  0  0  0  0  0  0  0
   20.5900   -6.8265  -16.5554 O   0  0  0  0  0  0  0  0  0  0  0  0
   21.7978   -5.9247  -14.8477 N   0  0  0  0  0  0  0  0  0  0  0  0
   21.2936   -4.6003  -15.1855 C   0  0  1  0  0  0  0  0  0  0  0  0
   21.4055   -3.7033  -13.9995 C   0  0  0  0  0  0  0  0  0  0  0  0
   20.8535   -2.3765  -14.3537 C   0  0  0  0  0  0  0  0  0  0  0  0
   21.6515   -1.4435  -14.5994 O   0  0  0  0  0  0  0  0  0  0  0  0
   22.0772   -4.0278  -16.3123 C   0  0  0  0  0  0  0  0  0  0  0  0
   23.4101   -4.3479  -16.4829 O   0  0  0  0  0  0  0  0  0  0  0  0
   19.5018   -2.1387  -14.4201 O   0  0  0  0  0  0  0  0  0  0  0  0
   21.5562   -3.2407  -17.1388 O   0  0  0  0  0  0  0  0  0  0  0  0
  2  3  2  0
  2  1  1  0
  4  2  1  0
  5  7  1  0
  5  4  1  0
  5  6  1  1
  7  8  2  0
  9 13  1  0
  9  7  1  0
 10  9  1  0
 11 10  1  0
 11 12  1  0
 12 13  1  0
 13 14  1  6
 14 15  2  0
 14 16  1  0
 16 17  1  0
 17 21  1  0
 17 18  1  1
 19 18  1  0
 20 19  2  0
 21 24  2  0
 21 22  1  0
 23 19  1  0
M  END
$$$$
