NPD.pdb
     RDKit          3D

 24 24  0  0  1  0  0  0  0  0999 V2000
   24.6993  -13.7694  -20.2360 N   0  0  0  0  0  0  0  0  0  0  0  0
   23.4295  -13.3614  -19.7654 C   0  0  0  0  0  0  0  0  0  0  0  0
   22.3950  -13.9826  -20.1022 O   0  0  0  0  0  0  0  0  0  0  0  0
   23.2962  -12.1954  -18.8677 C   0  0  0  0  0  0  0  0  0  0  0  0
   23.4457  -12.6310  -17.4099 C   0  0  2  0  0  0  0  0  0  0  0  0
   22.3424  -13.5453  -17.1136 N   0  0  0  0  0  0  0  0  0  0  0  0
   23.2551  -11.4221  -16.5347 C   0  0  0  0  0  0  0  0  0  0  0  0
   22.0512  -11.0777  -16.3748 O   0  0  0  0  0  0  0  0  0  0  0  0
   24.3627  -10.7942  -15.9853 N   0  0  0  0  0  0  0  0  0  0  0  0
   25.5360  -11.5207  -15.4646 C   0  0  0  0  0  0  0  0  0  0  0  0
   26.6409  -10.7587  -16.1682 C   0  0  0  0  0  0  0  0  0  0  0  0
   26.0574   -9.4023  -16.5018 C   0  0  0  0  0  0  0  0  0  0  0  0
   24.7069   -9.4525  -15.7210 C   0  0  1  0  0  0  0  0  0  0  0  0
   23.8538   -8.3653  -16.1229 C   0  0  0  0  0  0  0  0  0  0  0  0
   22.9802   -8.4365  -16.9894 O   0  0  0  0  0  0  0  0  0  0  0  0
   24.0173   -7.0873  -15.4754 N   0  0  0  0  0  0  0  0  0  0  0  0
   23.1123   -5.9985  -15.8184 C   0  0  1  0  0  0  0  0  0  0  0  0
   21.7830   -6.2320  -15.1841 C   0  0  0  0  0  0  0  0  0  0  0  0
   20.8839   -5.1112  -15.5388 C   0  0  0  0  0  0  0  0  0  0  0  0
   20.6999   -4.8530  -16.7500 O   0  0  0  0  0  0  0  0  0  0  0  0
   23.6663   -4.7041  -15.3397 C   0  0  0  0  0  0  0  0  0  0  0  0
   23.1206   -3.5040  -15.7524 O   0  0  0  0  0  0  0  0  0  0  0  0
   20.2499   -4.3503  -14.5863 O   0  0  0  0  0  0  0  0  0  0  0  0
   24.6411   -4.6607  -14.5510 O   0  0  0  0  0  0  0  0  0  0  0  0
  2  3  2  0
  2  1  1  0
  4  2  1  0
  5  7  1  0
  5  4  1  0
  5  6  1  1
  7  8  2  0
  9 13  1  0
  9  7  1  0
 10  9  1  0
 11 10  1  0
 11 12  1  0
 12 13  1  0
 13 14  1  6
 14 15  2  0
 14 16  1  0
 16 17  1  0
 17 21  1  0
 17 18  1  1
 19 18  1  0
 20 19  2  0
 21 24  2  0
 21 22  1  0
 23 19  1  0
M  END
$$$$
