NPD.pdb
     RDKit          3D

 24 24  0  0  1  0  0  0  0  0999 V2000
   19.7590  -13.7928  -19.1254 N   0  0  0  0  0  0  0  0  0  0  0  0
   19.6184  -12.4162  -19.4182 C   0  0  0  0  0  0  0  0  0  0  0  0
   19.3007  -12.0385  -20.5697 O   0  0  0  0  0  0  0  0  0  0  0  0
   19.8430  -11.3956  -18.3737 C   0  0  0  0  0  0  0  0  0  0  0  0
   20.3292  -12.0574  -17.0841 C   0  0  2  0  0  0  0  0  0  0  0  0
   19.2337  -12.8865  -16.5806 N   0  0  0  0  0  0  0  0  0  0  0  0
   20.5643  -10.9798  -16.0608 C   0  0  0  0  0  0  0  0  0  0  0  0
   19.5588  -10.2532  -15.8271 O   0  0  0  0  0  0  0  0  0  0  0  0
   21.8121  -10.8606  -15.4677 N   0  0  0  0  0  0  0  0  0  0  0  0
   22.6092  -12.0136  -15.0088 C   0  0  0  0  0  0  0  0  0  0  0  0
   23.9386  -11.6778  -15.6543 C   0  0  0  0  0  0  0  0  0  0  0  0
   23.9203  -10.1810  -15.8795 C   0  0  0  0  0  0  0  0  0  0  0  0
   22.6307   -9.7726  -15.1007 C   0  0  1  0  0  0  0  0  0  0  0  0
   22.2630   -8.4170  -15.4141 C   0  0  0  0  0  0  0  0  0  0  0  0
   21.8098   -8.0406  -16.4966 O   0  0  0  0  0  0  0  0  0  0  0  0
   22.4298   -7.4069  -14.3985 N   0  0  0  0  0  0  0  0  0  0  0  0
   21.9911   -6.0455  -14.6747 C   0  0  1  0  0  0  0  0  0  0  0  0
   20.5070   -6.0154  -14.8165 C   0  0  0  0  0  0  0  0  0  0  0  0
   20.0840   -4.6238  -15.0905 C   0  0  0  0  0  0  0  0  0  0  0  0
   20.9218   -3.8289  -15.5739 O   0  0  0  0  0  0  0  0  0  0  0  0
   22.3988   -5.1428  -13.5654 C   0  0  0  0  0  0  0  0  0  0  0  0
   22.5127   -3.7809  -13.7659 O   0  0  0  0  0  0  0  0  0  0  0  0
   18.8094   -4.1807  -14.8319 O   0  0  0  0  0  0  0  0  0  0  0  0
   22.6509   -5.5865  -12.4192 O   0  0  0  0  0  0  0  0  0  0  0  0
  2  3  2  0
  2  1  1  0
  4  2  1  0
  5  7  1  0
  5  4  1  0
  5  6  1  1
  7  8  2  0
  9 13  1  0
  9  7  1  0
 10  9  1  0
 11 10  1  0
 11 12  1  0
 12 13  1  0
 13 14  1  6
 14 15  2  0
 14 16  1  0
 16 17  1  0
 17 21  1  0
 17 18  1  1
 19 18  1  0
 20 19  2  0
 21 24  2  0
 21 22  1  0
 23 19  1  0
M  END
$$$$
