NPD.pdb
     RDKit          3D

 24 24  0  0  1  0  0  0  0  0999 V2000
   16.9053  -23.2554  -12.6606 N   0  0  0  0  0  0  0  0  0  0  0  0
   15.7577  -22.8666  -11.9309 C   0  0  0  0  0  0  0  0  0  0  0  0
   14.9917  -21.9791  -12.3727 O   0  0  0  0  0  0  0  0  0  0  0  0
   15.4383  -23.4979  -10.6338 C   0  0  0  0  0  0  0  0  0  0  0  0
   16.5424  -24.4783  -10.2372 C   0  0  2  0  0  0  0  0  0  0  0  0
   16.4521  -25.6247  -11.1421 N   0  0  0  0  0  0  0  0  0  0  0  0
   16.2431  -24.9914   -8.8549 C   0  0  0  0  0  0  0  0  0  0  0  0
   15.0255  -25.2516   -8.6467 O   0  0  0  0  0  0  0  0  0  0  0  0
   17.2763  -25.1390   -7.9418 N   0  0  0  0  0  0  0  0  0  0  0  0
   18.6377  -25.5668   -8.3146 C   0  0  0  0  0  0  0  0  0  0  0  0
   19.4439  -24.4930   -7.6121 C   0  0  0  0  0  0  0  0  0  0  0  0
   18.5572  -23.9737   -6.5005 C   0  0  0  0  0  0  0  0  0  0  0  0
   17.3840  -25.0024   -6.5425 C   0  0  1  0  0  0  0  0  0  0  0  0
   16.2793  -24.5370   -5.7462 C   0  0  0  0  0  0  0  0  0  0  0  0
   15.3618  -23.8251   -6.1591 O   0  0  0  0  0  0  0  0  0  0  0  0
   16.2226  -24.9211   -4.3574 N   0  0  0  0  0  0  0  0  0  0  0  0
   15.1126  -24.4536   -3.5379 C   0  0  1  0  0  0  0  0  0  0  0  0
   13.8267  -24.9576   -4.0999 C   0  0  0  0  0  0  0  0  0  0  0  0
   12.7175  -24.4990   -3.2340 C   0  0  0  0  0  0  0  0  0  0  0  0
   12.7292  -23.3160   -2.8244 O   0  0  0  0  0  0  0  0  0  0  0  0
   15.2665  -24.9437   -2.1423 C   0  0  0  0  0  0  0  0  0  0  0  0
   15.9462  -26.1160   -1.8742 O   0  0  0  0  0  0  0  0  0  0  0  0
   11.6831  -25.3261   -2.8679 O   0  0  0  0  0  0  0  0  0  0  0  0
   14.7869  -24.3125   -1.1700 O   0  0  0  0  0  0  0  0  0  0  0  0
  2  3  2  0
  2  1  1  0
  4  2  1  0
  5  7  1  0
  5  4  1  0
  5  6  1  6
  7  8  2  0
  9 13  1  0
  9  7  1  0
 10  9  1  0
 11 10  1  0
 11 12  1  0
 12 13  1  0
 13 14  1  6
 14 15  2  0
 14 16  1  0
 16 17  1  0
 17 21  1  0
 17 18  1  6
 19 18  1  0
 20 19  2  0
 21 24  2  0
 21 22  1  0
 23 19  1  0
M  END
$$$$
