NPD.pdb
     RDKit          3D

 24 24  0  0  1  0  0  0  0  0999 V2000
   29.8724  -32.9506   -4.6369 N   0  0  0  0  0  0  0  0  0  0  0  0
   30.5030  -34.1536   -4.2425 C   0  0  0  0  0  0  0  0  0  0  0  0
   30.4141  -34.5626   -3.0617 O   0  0  0  0  0  0  0  0  0  0  0  0
   31.2790  -34.9525   -5.2135 C   0  0  0  0  0  0  0  0  0  0  0  0
   32.7757  -34.7030   -5.0268 C   0  0  2  0  0  0  0  0  0  0  0  0
   33.4864  -35.6983   -5.8301 N   0  0  0  0  0  0  0  0  0  0  0  0
   33.1235  -34.9766   -3.5888 C   0  0  0  0  0  0  0  0  0  0  0  0
   32.4924  -35.9406   -3.0731 O   0  0  0  0  0  0  0  0  0  0  0  0
   34.0714  -34.1891   -2.9528 N   0  0  0  0  0  0  0  0  0  0  0  0
   34.9972  -33.2913   -3.6685 C   0  0  0  0  0  0  0  0  0  0  0  0
   34.7927  -32.0219   -2.8665 C   0  0  0  0  0  0  0  0  0  0  0  0
   34.2791  -32.4677   -1.5141 C   0  0  0  0  0  0  0  0  0  0  0  0
   34.4700  -34.0138   -1.6116 C   0  0  1  0  0  0  0  0  0  0  0  0
   33.7841  -34.6736   -0.5320 C   0  0  0  0  0  0  0  0  0  0  0  0
   32.5596  -34.7515   -0.4164 O   0  0  0  0  0  0  0  0  0  0  0  0
   34.5706  -35.2969    0.5035 N   0  0  0  0  0  0  0  0  0  0  0  0
   33.8903  -35.9354    1.6223 C   0  0  1  0  0  0  0  0  0  0  0  0
   34.7568  -37.0077    2.1907 C   0  0  0  0  0  0  0  0  0  0  0  0
   34.0468  -37.6413    3.3242 C   0  0  0  0  0  0  0  0  0  0  0  0
   32.8726  -37.2826    3.5694 O   0  0  0  0  0  0  0  0  0  0  0  0
   33.5913  -34.9317    2.6780 C   0  0  0  0  0  0  0  0  0  0  0  0
   32.8215  -35.2658    3.7754 O   0  0  0  0  0  0  0  0  0  0  0  0
   34.6327  -38.6040    4.1103 O   0  0  0  0  0  0  0  0  0  0  0  0
   34.0254  -33.7569    2.6064 O   0  0  0  0  0  0  0  0  0  0  0  0
  2  3  2  0
  2  1  1  0
  4  2  1  0
  5  7  1  0
  5  4  1  0
  5  6  1  6
  7  8  2  0
  9 13  1  0
  9  7  1  0
 10  9  1  0
 11 10  1  0
 11 12  1  0
 12 13  1  0
 13 14  1  1
 14 15  2  0
 14 16  1  0
 16 17  1  0
 17 21  1  0
 17 18  1  1
 19 18  1  0
 20 19  2  0
 21 24  2  0
 21 22  1  0
 23 19  1  0
M  END
$$$$
