NPD.pdb
     RDKit          3D

 24 24  0  0  1  0  0  0  0  0999 V2000
   25.5652  -12.5491  -15.5703 N   0  0  0  0  0  0  0  0  0  0  0  0
   24.9117  -12.0648  -16.7274 C   0  0  0  0  0  0  0  0  0  0  0  0
   24.9467  -12.7140  -17.7983 O   0  0  0  0  0  0  0  0  0  0  0  0
   24.1746  -10.7846  -16.6978 C   0  0  0  0  0  0  0  0  0  0  0  0
   22.7438  -11.0098  -16.2085 C   0  0  2  0  0  0  0  0  0  0  0  0
   22.0364  -11.7465  -17.2564 N   0  0  0  0  0  0  0  0  0  0  0  0
   22.0699   -9.6699  -16.0891 C   0  0  0  0  0  0  0  0  0  0  0  0
   22.2142   -8.9212  -17.0952 O   0  0  0  0  0  0  0  0  0  0  0  0
   21.3661   -9.3589  -14.9354 N   0  0  0  0  0  0  0  0  0  0  0  0
   20.5713  -10.3425  -14.1762 C   0  0  0  0  0  0  0  0  0  0  0  0
   21.1035  -10.0790  -12.7820 C   0  0  0  0  0  0  0  0  0  0  0  0
   21.6498   -8.6675  -12.8100 C   0  0  0  0  0  0  0  0  0  0  0  0
   21.1458   -8.1746  -14.2025 C   0  0  1  0  0  0  0  0  0  0  0  0
   21.7903   -6.9387  -14.5612 C   0  0  0  0  0  0  0  0  0  0  0  0
   22.9054   -6.8481  -15.0782 O   0  0  0  0  0  0  0  0  0  0  0  0
   21.0959   -5.7013  -14.3044 N   0  0  0  0  0  0  0  0  0  0  0  0
   21.6799   -4.4512  -14.7719 C   0  0  1  0  0  0  0  0  0  0  0  0
   21.8147   -4.4845  -16.2566 C   0  0  0  0  0  0  0  0  0  0  0  0
   22.3757   -3.1928  -16.7118 C   0  0  0  0  0  0  0  0  0  0  0  0
   23.2588   -2.6455  -16.0132 O   0  0  0  0  0  0  0  0  0  0  0  0
   20.8152   -3.3061  -14.3810 C   0  0  0  0  0  0  0  0  0  0  0  0
   19.4864   -3.5001  -14.0574 O   0  0  0  0  0  0  0  0  0  0  0  0
   21.9597   -2.5799  -17.8691 O   0  0  0  0  0  0  0  0  0  0  0  0
   21.2619   -2.1348  -14.3331 O   0  0  0  0  0  0  0  0  0  0  0  0
  2  3  2  0
  2  1  1  0
  4  2  1  0
  5  7  1  0
  5  4  1  0
  5  6  1  6
  7  8  2  0
  9 13  1  0
  9  7  1  0
 10  9  1  0
 11 10  1  0
 11 12  1  0
 12 13  1  0
 13 14  1  6
 14 15  2  0
 14 16  1  0
 16 17  1  0
 17 21  1  0
 17 18  1  6
 19 18  1  0
 20 19  2  0
 21 24  2  0
 21 22  1  0
 23 19  1  0
M  END
$$$$
