NPD.pdb
     RDKit          3D

 24 24  0  0  1  0  0  0  0  0999 V2000
   25.9060  -15.5777  -19.3983 N   0  0  0  0  0  0  0  0  0  0  0  0
   24.8861  -14.7648  -19.9455 C   0  0  0  0  0  0  0  0  0  0  0  0
   24.3526  -15.0615  -21.0396 O   0  0  0  0  0  0  0  0  0  0  0  0
   24.4287  -13.5501  -19.2396 C   0  0  0  0  0  0  0  0  0  0  0  0
   25.2763  -13.3149  -17.9891 C   0  0  2  0  0  0  0  0  0  0  0  0
   25.3703  -14.5918  -17.2807 N   0  0  0  0  0  0  0  0  0  0  0  0
   24.5313  -12.3706  -17.0853 C   0  0  0  0  0  0  0  0  0  0  0  0
   23.2771  -12.5132  -17.1007 O   0  0  0  0  0  0  0  0  0  0  0  0
   25.2378  -11.4480  -16.3286 N   0  0  0  0  0  0  0  0  0  0  0  0
   26.5173  -11.7517  -15.6605 C   0  0  0  0  0  0  0  0  0  0  0  0
   27.3382  -10.5680  -16.1313 C   0  0  0  0  0  0  0  0  0  0  0  0
   26.3380   -9.4880  -16.4848 C   0  0  0  0  0  0  0  0  0  0  0  0
   25.0141  -10.1108  -15.9411 C   0  0  1  0  0  0  0  0  0  0  0  0
   23.8769   -9.3703  -16.4204 C   0  0  0  0  0  0  0  0  0  0  0  0
   23.4183   -9.4415  -17.5621 O   0  0  0  0  0  0  0  0  0  0  0  0
   23.2092   -8.4712  -15.5121 N   0  0  0  0  0  0  0  0  0  0  0  0
   22.0187   -7.7631  -15.9635 C   0  0  1  0  0  0  0  0  0  0  0  0
   20.9294   -8.7417  -16.2451 C   0  0  0  0  0  0  0  0  0  0  0  0
   19.7625   -8.0105  -16.7876 C   0  0  0  0  0  0  0  0  0  0  0  0
   19.9682   -7.0250  -17.5319 O   0  0  0  0  0  0  0  0  0  0  0  0
   21.5654   -6.8081  -14.9176 C   0  0  0  0  0  0  0  0  0  0  0  0
   20.7146   -5.7659  -15.2308 O   0  0  0  0  0  0  0  0  0  0  0  0
   18.4696   -8.3772  -16.5011 O   0  0  0  0  0  0  0  0  0  0  0  0
   21.9388   -6.9175  -13.7248 O   0  0  0  0  0  0  0  0  0  0  0  0
  2  3  2  0
  2  1  1  0
  4  2  1  0
  5  7  1  0
  5  4  1  0
  5  6  1  1
  7  8  2  0
  9 13  1  0
  9  7  1  0
 10  9  1  0
 11 10  1  0
 11 12  1  0
 12 13  1  0
 13 14  1  6
 14 15  2  0
 14 16  1  0
 16 17  1  0
 17 21  1  0
 17 18  1  1
 19 18  1  0
 20 19  2  0
 21 24  2  0
 21 22  1  0
 23 19  1  0
M  END
$$$$
