NPD.pdb
     RDKit          3D

 24 24  0  0  1  0  0  0  0  0999 V2000
   21.6384  -18.3370  -16.7693 N   0  0  0  0  0  0  0  0  0  0  0  0
   20.8605  -17.3484  -17.4159 C   0  0  0  0  0  0  0  0  0  0  0  0
   20.0941  -17.6555  -18.3581 O   0  0  0  0  0  0  0  0  0  0  0  0
   20.9350  -15.9342  -16.9943 C   0  0  0  0  0  0  0  0  0  0  0  0
   21.9491  -15.7731  -15.8616 C   0  0  2  0  0  0  0  0  0  0  0  0
   21.5182  -16.6408  -14.7650 N   0  0  0  0  0  0  0  0  0  0  0  0
   21.8685  -14.3591  -15.3542 C   0  0  0  0  0  0  0  0  0  0  0  0
   20.6946  -13.9473  -15.1397 O   0  0  0  0  0  0  0  0  0  0  0  0
   23.0348  -13.6336  -15.1631 N   0  0  0  0  0  0  0  0  0  0  0  0
   24.3090  -14.2389  -14.7322 C   0  0  0  0  0  0  0  0  0  0  0  0
   25.2380  -13.6448  -15.7717 C   0  0  0  0  0  0  0  0  0  0  0  0
   24.5549  -12.3865  -16.2631 C   0  0  0  0  0  0  0  0  0  0  0  0
   23.3731  -12.2675  -15.2505 C   0  0  1  0  0  0  0  0  0  0  0  0
   22.4222  -11.2859  -15.7015 C   0  0  0  0  0  0  0  0  0  0  0  0
   21.6442  -11.4379  -16.6452 O   0  0  0  0  0  0  0  0  0  0  0  0
   22.3589  -10.0216  -15.0107 N   0  0  0  0  0  0  0  0  0  0  0  0
   21.3639   -9.0396  -15.4205 C   0  0  1  0  0  0  0  0  0  0  0  0
   19.9955   -9.5912  -15.2042 C   0  0  0  0  0  0  0  0  0  0  0  0
   19.0028   -8.5827  -15.6376 C   0  0  0  0  0  0  0  0  0  0  0  0
   18.9307   -8.3000  -16.8551 O   0  0  0  0  0  0  0  0  0  0  0  0
   21.5229   -7.7908  -14.6288 C   0  0  0  0  0  0  0  0  0  0  0  0
   21.0393   -6.5862  -15.1012 O   0  0  0  0  0  0  0  0  0  0  0  0
   18.1642   -7.9513  -14.7509 O   0  0  0  0  0  0  0  0  0  0  0  0
   22.0980   -7.7912  -13.5137 O   0  0  0  0  0  0  0  0  0  0  0  0
  2  3  2  0
  2  1  1  0
  4  2  1  0
  5  7  1  0
  5  4  1  0
  5  6  1  1
  7  8  2  0
  9 13  1  0
  9  7  1  0
 10  9  1  0
 11 10  1  0
 11 12  1  0
 12 13  1  0
 13 14  1  6
 14 15  2  0
 14 16  1  0
 16 17  1  0
 17 21  1  0
 17 18  1  1
 19 18  1  0
 20 19  2  0
 21 24  2  0
 21 22  1  0
 23 19  1  0
M  END
$$$$
