TCP.pdb
     RDKit          3D

 21 21  0  0  1  0  0  0  0  0999 V2000
    9.6450  -17.8697   22.8625 C   0  0  0  0  0  0  0  0  0  0  0  0
   10.1099  -17.0124   21.7072 C   0  0  1  0  0  0  0  0  0  0  0  0
   10.1629  -17.7726   20.5392 O   0  0  0  0  0  0  0  0  0  0  0  0
    9.1144  -15.8728   21.5311 C   0  0  2  0  0  0  0  0  0  0  0  0
    9.5124  -15.1090   20.3765 N   0  0  0  0  0  0  0  0  0  0  0  0
    9.0901  -15.0206   22.7532 C   0  0  0  0  0  0  0  0  0  0  0  0
   10.0976  -14.3038   22.9603 O   0  0  0  0  0  0  0  0  0  0  0  0
    7.9594  -15.0576   23.6034 N   0  0  0  0  0  0  0  0  0  0  0  0
    7.9556  -14.3367   24.8521 C   0  0  1  0  0  0  0  0  0  0  0  0
    6.5454  -13.9277   25.1152 C   0  0  0  0  0  0  0  0  0  0  0  0
    6.5197  -13.2532   26.8260 S   0  0  0  0  0  0  0  0  0  0  0  0
    8.5936  -15.1393   25.9324 C   0  0  0  0  0  0  0  0  0  0  0  0
    8.1535  -16.3042   26.0436 O   0  0  0  0  0  0  0  0  0  0  0  0
    9.6039  -14.6474   26.7634 N   0  0  0  0  0  0  0  0  0  0  0  0
   10.3160  -13.3534   26.6269 C   0  0  0  0  0  0  0  0  0  0  0  0
   10.2389  -12.8119   28.0324 C   0  0  0  0  0  0  0  0  0  0  0  0
    9.9367  -14.0057   28.9154 C   0  0  0  0  0  0  0  0  0  0  0  0
   10.2283  -15.1578   27.9346 C   0  0  1  0  0  0  0  0  0  0  0  0
    9.8721  -16.4379   28.4844 C   0  0  0  0  0  0  0  0  0  0  0  0
   10.7297  -16.9638   29.5029 O   0  0  0  0  0  0  0  0  0  0  0  0
    8.9218  -17.1732   28.2112 O   0  0  0  0  0  0  0  0  0  0  0  0
  2  3  1  0
  2  1  1  1
  4  2  1  0
  4  5  1  6
  6  4  1  0
  6  8  1  0
  7  6  2  0
  9  8  1  0
  9 12  1  0
  9 10  1  1
 11 10  1  0
 12 14  1  0
 12 13  2  0
 14 15  1  0
 16 15  1  0
 17 16  1  0
 18 17  1  0
 18 14  1  0
 18 19  1  1
 19 20  1  0
 21 19  2  0
M  END
$$$$
