TCP.pdb
     RDKit          3D

 21 21  0  0  1  0  0  0  0  0999 V2000
    7.0603  -13.7120   18.8604 C   0  0  0  0  0  0  0  0  0  0  0  0
    8.5180  -13.7245   19.2610 C   0  0  1  0  0  0  0  0  0  0  0  0
    8.8443  -12.5360   19.9137 O   0  0  0  0  0  0  0  0  0  0  0  0
    8.7419  -14.9023   20.2008 C   0  0  2  0  0  0  0  0  0  0  0  0
    8.5760  -16.1150   19.4413 N   0  0  0  0  0  0  0  0  0  0  0  0
    7.7755  -14.8448   21.3335 C   0  0  0  0  0  0  0  0  0  0  0  0
    6.5581  -14.8996   21.0388 O   0  0  0  0  0  0  0  0  0  0  0  0
    8.2629  -14.7337   22.6574 N   0  0  0  0  0  0  0  0  0  0  0  0
    7.4041  -15.0110   23.7819 C   0  0  1  0  0  0  0  0  0  0  0  0
    6.9000  -16.4046   23.6125 C   0  0  0  0  0  0  0  0  0  0  0  0
    5.9605  -16.7978   25.1438 S   0  0  0  0  0  0  0  0  0  0  0  0
    8.1073  -14.7445   25.0674 C   0  0  0  0  0  0  0  0  0  0  0  0
    8.9477  -15.6120   25.3899 O   0  0  0  0  0  0  0  0  0  0  0  0
    7.8615  -13.6210   25.8617 N   0  0  0  0  0  0  0  0  0  0  0  0
    7.1010  -12.4077   25.4745 C   0  0  0  0  0  0  0  0  0  0  0  0
    6.1768  -12.2364   26.6540 C   0  0  0  0  0  0  0  0  0  0  0  0
    6.7971  -13.0383   27.7804 C   0  0  0  0  0  0  0  0  0  0  0  0
    8.2029  -13.2891   27.2015 C   0  0  1  0  0  0  0  0  0  0  0  0
    8.9758  -14.1776   28.0268 C   0  0  0  0  0  0  0  0  0  0  0  0
    8.7913  -15.5810   27.8128 O   0  0  0  0  0  0  0  0  0  0  0  0
    9.7926  -13.9164   28.9118 O   0  0  0  0  0  0  0  0  0  0  0  0
  2  3  1  0
  2  1  1  1
  4  2  1  0
  4  5  1  6
  6  4  1  0
  6  8  1  0
  7  6  2  0
  9  8  1  0
  9 12  1  0
  9 10  1  1
 11 10  1  0
 12 14  1  0
 12 13  2  0
 14 15  1  0
 16 15  1  0
 17 16  1  0
 18 17  1  0
 18 14  1  0
 18 19  1  1
 19 20  1  0
 21 19  2  0
M  END
$$$$
