TCP.pdb
     RDKit          3D

 21 21  0  0  1  0  0  0  0  0999 V2000
    6.2648  -21.6924   22.4524 C   0  0  0  0  0  0  0  0  0  0  0  0
    6.5946  -20.2172   22.4800 C   0  0  1  0  0  0  0  0  0  0  0  0
    6.8532  -19.7612   21.1877 O   0  0  0  0  0  0  0  0  0  0  0  0
    5.3957  -19.4735   23.0546 C   0  0  2  0  0  0  0  0  0  0  0  0
    4.2538  -19.7627   22.2254 N   0  0  0  0  0  0  0  0  0  0  0  0
    5.6713  -18.0095   23.0928 C   0  0  0  0  0  0  0  0  0  0  0  0
    5.0542  -17.2983   22.2650 O   0  0  0  0  0  0  0  0  0  0  0  0
    6.5938  -17.5009   24.0377 N   0  0  0  0  0  0  0  0  0  0  0  0
    6.9597  -16.1063   24.0297 C   0  0  1  0  0  0  0  0  0  0  0  0
    7.0926  -15.6820   25.4535 C   0  0  0  0  0  0  0  0  0  0  0  0
    7.7456  -13.9632   25.4157 S   0  0  0  0  0  0  0  0  0  0  0  0
    8.1654  -15.8769   23.1860 C   0  0  0  0  0  0  0  0  0  0  0  0
    9.2195  -16.3728   23.6398 O   0  0  0  0  0  0  0  0  0  0  0  0
    8.1396  -15.1683   21.9816 N   0  0  0  0  0  0  0  0  0  0  0  0
    6.9537  -14.5522   21.3378 C   0  0  0  0  0  0  0  0  0  0  0  0
    7.4646  -13.1708   21.0135 C   0  0  0  0  0  0  0  0  0  0  0  0
    8.9760  -13.2732   21.0526 C   0  0  0  0  0  0  0  0  0  0  0  0
    9.1509  -14.8041   21.0507 C   0  0  1  0  0  0  0  0  0  0  0  0
   10.5235  -15.1908   21.2361 C   0  0  0  0  0  0  0  0  0  0  0  0
   11.0416  -15.1121   22.5683 O   0  0  0  0  0  0  0  0  0  0  0  0
   11.3459  -15.5892   20.4095 O   0  0  0  0  0  0  0  0  0  0  0  0
  2  3  1  0
  2  1  1  6
  4  2  1  0
  4  5  1  6
  6  4  1  0
  6  8  1  0
  7  6  2  0
  9  8  1  0
  9 12  1  0
  9 10  1  1
 11 10  1  0
 12 14  1  0
 12 13  2  0
 14 15  1  0
 16 15  1  0
 17 16  1  0
 18 17  1  0
 18 14  1  0
 18 19  1  1
 19 20  1  0
 21 19  2  0
M  END
$$$$
