TCP.pdb
     RDKit          3D

 21 21  0  0  1  0  0  0  0  0999 V2000
    8.3797  -16.8718   21.9797 C   0  0  0  0  0  0  0  0  0  0  0  0
    8.7723  -15.7494   21.0461 C   0  0  1  0  0  0  0  0  0  0  0  0
    8.6024  -16.1489   19.7207 O   0  0  0  0  0  0  0  0  0  0  0  0
    7.8758  -14.5531   21.3387 C   0  0  2  0  0  0  0  0  0  0  0  0
    8.1223  -13.5552   20.3295 N   0  0  0  0  0  0  0  0  0  0  0  0
    8.1626  -14.0188   22.6999 C   0  0  0  0  0  0  0  0  0  0  0  0
    9.2482  -13.4096   22.8487 O   0  0  0  0  0  0  0  0  0  0  0  0
    7.2207  -14.2181   23.7370 N   0  0  0  0  0  0  0  0  0  0  0  0
    7.4932  -13.7563   25.0754 C   0  0  1  0  0  0  0  0  0  0  0  0
    6.2014  -13.2696   25.6404 C   0  0  0  0  0  0  0  0  0  0  0  0
    6.5622  -12.7507   27.3675 S   0  0  0  0  0  0  0  0  0  0  0  0
    8.1754  -14.8120   25.8743 C   0  0  0  0  0  0  0  0  0  0  0  0
    7.6277  -15.9348   25.8276 O   0  0  0  0  0  0  0  0  0  0  0  0
    9.3348  -14.5846   26.6210 N   0  0  0  0  0  0  0  0  0  0  0  0
   10.1436  -13.3415   26.6509 C   0  0  0  0  0  0  0  0  0  0  0  0
   10.3162  -13.1243   28.1333 C   0  0  0  0  0  0  0  0  0  0  0  0
   10.0252  -14.4634   28.7803 C   0  0  0  0  0  0  0  0  0  0  0  0
   10.0637  -15.3832   27.5446 C   0  0  1  0  0  0  0  0  0  0  0  0
    9.6646  -16.7282   27.8604 C   0  0  0  0  0  0  0  0  0  0  0  0
   10.5682  -17.4983   28.6602 O   0  0  0  0  0  0  0  0  0  0  0  0
    8.6423  -17.3390   27.5438 O   0  0  0  0  0  0  0  0  0  0  0  0
  2  3  1  0
  2  1  1  1
  4  2  1  0
  4  5  1  6
  6  4  1  0
  6  8  1  0
  7  6  2  0
  9  8  1  0
  9 12  1  0
  9 10  1  1
 11 10  1  0
 12 14  1  0
 12 13  2  0
 14 15  1  0
 16 15  1  0
 17 16  1  0
 18 17  1  0
 18 14  1  0
 18 19  1  1
 19 20  1  0
 21 19  2  0
M  END
$$$$
