TCP.pdb
     RDKit          3D

 21 21  0  0  1  0  0  0  0  0999 V2000
    8.0784  -16.0096   19.6405 C   0  0  0  0  0  0  0  0  0  0  0  0
    8.4510  -15.5110   21.0183 C   0  0  1  0  0  0  0  0  0  0  0  0
    9.8311  -15.3291   21.1035 O   0  0  0  0  0  0  0  0  0  0  0  0
    7.7445  -14.1813   21.2490 C   0  0  2  0  0  0  0  0  0  0  0  0
    8.2442  -13.2384   20.2814 N   0  0  0  0  0  0  0  0  0  0  0  0
    7.9929  -13.7035   22.6384 C   0  0  0  0  0  0  0  0  0  0  0  0
    8.9222  -12.8761   22.7920 O   0  0  0  0  0  0  0  0  0  0  0  0
    7.1891  -14.1928   23.6953 N   0  0  0  0  0  0  0  0  0  0  0  0
    7.4320  -13.7791   25.0549 C   0  0  1  0  0  0  0  0  0  0  0  0
    6.1128  -13.3966   25.6368 C   0  0  0  0  0  0  0  0  0  0  0  0
    6.4151  -13.0780   27.4226 S   0  0  0  0  0  0  0  0  0  0  0  0
    8.1744  -14.8290   25.8064 C   0  0  0  0  0  0  0  0  0  0  0  0
    7.6713  -15.9714   25.7377 O   0  0  0  0  0  0  0  0  0  0  0  0
    9.3406  -14.5765   26.5341 N   0  0  0  0  0  0  0  0  0  0  0  0
   10.0993  -13.3028   26.5838 C   0  0  0  0  0  0  0  0  0  0  0  0
   10.2972  -13.1221   28.0679 C   0  0  0  0  0  0  0  0  0  0  0  0
   10.0752  -14.4903   28.6805 C   0  0  0  0  0  0  0  0  0  0  0  0
   10.1220  -15.3713   27.4171 C   0  0  1  0  0  0  0  0  0  0  0  0
    9.7846  -16.7401   27.7008 C   0  0  0  0  0  0  0  0  0  0  0  0
    8.4056  -17.0243   27.9595 O   0  0  0  0  0  0  0  0  0  0  0  0
   10.5124  -17.7328   27.7583 O   0  0  0  0  0  0  0  0  0  0  0  0
  2  3  1  0
  2  1  1  6
  4  2  1  0
  4  5  1  6
  6  4  1  0
  6  8  1  0
  7  6  2  0
  9  8  1  0
  9 12  1  0
  9 10  1  1
 11 10  1  0
 12 14  1  0
 12 13  2  0
 14 15  1  0
 16 15  1  0
 17 16  1  0
 18 17  1  0
 18 14  1  0
 18 19  1  1
 19 20  1  0
 21 19  2  0
M  END
$$$$
