TCP.pdb
     RDKit          3D

 21 21  0  0  1  0  0  0  0  0999 V2000
   -0.7028  -26.7044   33.1632 C   0  0  0  0  0  0  0  0  0  0  0  0
   -1.7169  -26.2114   32.1561 C   0  0  1  0  0  0  0  0  0  0  0  0
   -1.1368  -25.2557   31.3225 O   0  0  0  0  0  0  0  0  0  0  0  0
   -2.1787  -27.4020   31.3256 C   0  0  2  0  0  0  0  0  0  0  0  0
   -1.0217  -27.9727   30.6848 N   0  0  0  0  0  0  0  0  0  0  0  0
   -3.1859  -26.9643   30.3185 C   0  0  0  0  0  0  0  0  0  0  0  0
   -3.1147  -27.4930   29.1839 O   0  0  0  0  0  0  0  0  0  0  0  0
   -4.1530  -25.9961   30.6789 N   0  0  0  0  0  0  0  0  0  0  0  0
   -5.3273  -25.7935   29.8672 C   0  0  1  0  0  0  0  0  0  0  0  0
   -6.0390  -27.1025   29.7953 C   0  0  0  0  0  0  0  0  0  0  0  0
   -7.6786  -26.7520   29.0397 S   0  0  0  0  0  0  0  0  0  0  0  0
   -6.1417  -24.6582   30.3828 C   0  0  0  0  0  0  0  0  0  0  0  0
   -6.7640  -24.9024   31.4393 O   0  0  0  0  0  0  0  0  0  0  0  0
   -6.2159  -23.4137   29.7511 N   0  0  0  0  0  0  0  0  0  0  0  0
   -5.3359  -22.9132   28.6668 C   0  0  0  0  0  0  0  0  0  0  0  0
   -6.3422  -22.3871   27.6743 C   0  0  0  0  0  0  0  0  0  0  0  0
   -7.6263  -22.1945   28.4556 C   0  0  0  0  0  0  0  0  0  0  0  0
   -7.0935  -22.3045   29.8973 C   0  0  1  0  0  0  0  0  0  0  0  0
   -8.1557  -22.3037   30.8667 C   0  0  0  0  0  0  0  0  0  0  0  0
   -8.4577  -21.0517   31.4917 O   0  0  0  0  0  0  0  0  0  0  0  0
   -8.8654  -23.2331   31.2551 O   0  0  0  0  0  0  0  0  0  0  0  0
  2  3  1  0
  2  1  1  1
  4  2  1  0
  4  5  1  6
  6  4  1  0
  6  8  1  0
  7  6  2  0
  9  8  1  0
  9 12  1  0
  9 10  1  1
 11 10  1  0
 12 14  1  0
 12 13  2  0
 14 15  1  0
 16 15  1  0
 17 16  1  0
 18 17  1  0
 18 14  1  0
 18 19  1  1
 19 20  1  0
 21 19  2  0
M  END
$$$$
