TCP.pdb
     RDKit          3D

 21 21  0  0  1  0  0  0  0  0999 V2000
    8.6726  -17.8931   20.5774 C   0  0  0  0  0  0  0  0  0  0  0  0
    8.9551  -17.1553   21.8664 C   0  0  1  0  0  0  0  0  0  0  0  0
   10.2556  -17.4216   22.2941 O   0  0  0  0  0  0  0  0  0  0  0  0
    8.7986  -15.6631   21.6033 C   0  0  2  0  0  0  0  0  0  0  0  0
    9.8435  -15.2590   20.6978 N   0  0  0  0  0  0  0  0  0  0  0  0
    8.8791  -14.9059   22.8842 C   0  0  0  0  0  0  0  0  0  0  0  0
    9.9933  -14.4113   23.1772 O   0  0  0  0  0  0  0  0  0  0  0  0
    7.7237  -14.7824   23.6919 N   0  0  0  0  0  0  0  0  0  0  0  0
    7.7910  -14.1278   24.9748 C   0  0  1  0  0  0  0  0  0  0  0  0
    6.4220  -13.6180   25.2767 C   0  0  0  0  0  0  0  0  0  0  0  0
    6.4849  -12.9728   26.9977 S   0  0  0  0  0  0  0  0  0  0  0  0
    8.3702  -15.0338   26.0052 C   0  0  0  0  0  0  0  0  0  0  0  0
    7.7914  -16.1368   26.1121 O   0  0  0  0  0  0  0  0  0  0  0  0
    9.4712  -14.6960   26.7970 N   0  0  0  0  0  0  0  0  0  0  0  0
   10.3033  -13.4729   26.6875 C   0  0  0  0  0  0  0  0  0  0  0  0
   10.3620  -13.0131   28.1226 C   0  0  0  0  0  0  0  0  0  0  0  0
    9.9897  -14.2229   28.9560 C   0  0  0  0  0  0  0  0  0  0  0  0
   10.1055  -15.3361   27.8969 C   0  0  1  0  0  0  0  0  0  0  0  0
    9.6518  -16.6059   28.3968 C   0  0  0  0  0  0  0  0  0  0  0  0
    8.3103  -16.9852   28.0715 O   0  0  0  0  0  0  0  0  0  0  0  0
   10.2493  -17.4408   29.0781 O   0  0  0  0  0  0  0  0  0  0  0  0
  2  3  1  0
  2  1  1  6
  4  2  1  0
  4  5  1  6
  6  4  1  0
  6  8  1  0
  7  6  2  0
  9  8  1  0
  9 12  1  0
  9 10  1  1
 11 10  1  0
 12 14  1  0
 12 13  2  0
 14 15  1  0
 16 15  1  0
 17 16  1  0
 18 17  1  0
 18 14  1  0
 18 19  1  1
 19 20  1  0
 21 19  2  0
M  END
$$$$
