TCP.pdb
     RDKit          3D

 21 21  0  0  1  0  0  0  0  0999 V2000
   10.2995  -15.3264   21.6093 C   0  0  0  0  0  0  0  0  0  0  0  0
    9.3705  -15.6511   20.4616 C   0  0  1  0  0  0  0  0  0  0  0  0
   10.0906  -16.2158   19.4092 O   0  0  0  0  0  0  0  0  0  0  0  0
    8.3293  -16.6450   20.9603 C   0  0  2  0  0  0  0  0  0  0  0  0
    7.3958  -16.8858   19.8899 N   0  0  0  0  0  0  0  0  0  0  0  0
    7.6359  -16.1007   22.1618 C   0  0  0  0  0  0  0  0  0  0  0  0
    6.8861  -15.1125   21.9801 O   0  0  0  0  0  0  0  0  0  0  0  0
    7.8495  -16.7085   23.4218 N   0  0  0  0  0  0  0  0  0  0  0  0
    7.2451  -16.1634   24.6119 C   0  0  1  0  0  0  0  0  0  0  0  0
    6.6090  -17.3006   25.3380 C   0  0  0  0  0  0  0  0  0  0  0  0
    5.5705  -18.1799   24.1009 S   0  0  0  0  0  0  0  0  0  0  0  0
    8.2366  -15.3830   25.4031 C   0  0  0  0  0  0  0  0  0  0  0  0
    9.3055  -15.9873   25.6382 O   0  0  0  0  0  0  0  0  0  0  0  0
    8.0085  -14.0799   25.8540 N   0  0  0  0  0  0  0  0  0  0  0  0
    7.0503  -13.0986   25.2891 C   0  0  0  0  0  0  0  0  0  0  0  0
    6.3452  -12.6104   26.5296 C   0  0  0  0  0  0  0  0  0  0  0  0
    7.2535  -12.9736   27.6870 C   0  0  0  0  0  0  0  0  0  0  0  0
    8.5485  -13.3180   26.9263 C   0  0  1  0  0  0  0  0  0  0  0  0
    9.5607  -13.8511   27.7977 C   0  0  0  0  0  0  0  0  0  0  0  0
    9.1986  -14.0351   29.1704 O   0  0  0  0  0  0  0  0  0  0  0  0
   10.7200  -14.1833   27.5442 O   0  0  0  0  0  0  0  0  0  0  0  0
  2  3  1  0
  2  1  1  1
  4  2  1  0
  4  5  1  6
  6  4  1  0
  6  8  1  0
  7  6  2  0
  9  8  1  0
  9 12  1  0
  9 10  1  1
 11 10  1  0
 12 14  1  0
 12 13  2  0
 14 15  1  0
 16 15  1  0
 17 16  1  0
 18 17  1  0
 18 14  1  0
 18 19  1  1
 19 20  1  0
 21 19  2  0
M  END
$$$$
