TCP.pdb
     RDKit          3D

 21 21  0  0  1  0  0  0  0  0999 V2000
   10.5000  -13.4945   21.4513 C   0  0  0  0  0  0  0  0  0  0  0  0
    9.8003  -13.1693   20.1512 C   0  0  1  0  0  0  0  0  0  0  0  0
   10.7155  -13.1858   19.0990 O   0  0  0  0  0  0  0  0  0  0  0  0
    8.7276  -14.2243   19.9126 C   0  0  2  0  0  0  0  0  0  0  0  0
    8.1330  -13.9709   18.6252 N   0  0  0  0  0  0  0  0  0  0  0  0
    7.7042  -14.1680   20.9943 C   0  0  0  0  0  0  0  0  0  0  0  0
    6.5045  -14.1233   20.6330 O   0  0  0  0  0  0  0  0  0  0  0  0
    8.1219  -14.1675   22.3463 N   0  0  0  0  0  0  0  0  0  0  0  0
    7.3286  -14.8165   23.3604 C   0  0  1  0  0  0  0  0  0  0  0  0
    7.0188  -16.1874   22.8608 C   0  0  0  0  0  0  0  0  0  0  0  0
    5.9469  -16.9661   24.1363 S   0  0  0  0  0  0  0  0  0  0  0  0
    8.0096  -14.7642   24.6838 C   0  0  0  0  0  0  0  0  0  0  0  0
    8.7040  -15.7689   24.9511 O   0  0  0  0  0  0  0  0  0  0  0  0
    7.8942  -13.6879   25.5679 N   0  0  0  0  0  0  0  0  0  0  0  0
    7.2583  -12.3762   25.2933 C   0  0  0  0  0  0  0  0  0  0  0  0
    6.3751  -12.2048   26.5037 C   0  0  0  0  0  0  0  0  0  0  0  0
    6.9256  -13.1527   27.5501 C   0  0  0  0  0  0  0  0  0  0  0  0
    8.2887  -13.4998   26.9210 C   0  0  1  0  0  0  0  0  0  0  0  0
    8.9774  -14.5254   27.6571 C   0  0  0  0  0  0  0  0  0  0  0  0
    8.5040  -15.8663   27.4919 O   0  0  0  0  0  0  0  0  0  0  0  0
    9.9346  -14.4313   28.4272 O   0  0  0  0  0  0  0  0  0  0  0  0
  2  3  1  0
  2  1  1  1
  4  2  1  0
  4  5  1  6
  6  4  1  0
  6  8  1  0
  7  6  2  0
  9  8  1  0
  9 12  1  0
  9 10  1  6
 11 10  1  0
 12 14  1  0
 12 13  2  0
 14 15  1  0
 16 15  1  0
 17 16  1  0
 18 17  1  0
 18 14  1  0
 18 19  1  1
 19 20  1  0
 21 19  2  0
M  END
$$$$
