DRS.pdb
     RDKit          3D

 26 25  0  0  1  0  0  0  0  0999 V2000
   15.9094  -11.0462  -14.8223 N   0  0  0  0  0  0  0  0  0  0  0  0
   16.9048  -11.0237  -13.7896 C   0  0  1  0  0  0  0  0  0  0  0  0
   18.1525  -11.7341  -14.2551 C   0  0  0  0  0  0  0  0  0  0  0  0
   17.9274  -13.1816  -14.4421 C   0  0  0  0  0  0  0  0  0  0  0  0
   18.3094  -13.7598  -15.4928 O   0  0  0  0  0  0  0  0  0  0  0  0
   17.2735   -9.6412  -13.4233 C   0  0  0  0  0  0  0  0  0  0  0  0
   17.2690   -8.7773  -14.3233 O   0  0  0  0  0  0  0  0  0  0  0  0
   17.2948  -13.9241  -13.4724 O   0  0  0  0  0  0  0  0  0  0  0  0
   14.0730   -6.1294   -6.5134 N   0  0  0  0  0  0  0  0  0  0  0  0
   13.4569   -6.8919   -7.5541 C   0  0  0  0  0  0  0  0  0  0  0  0
   12.2374   -7.2662   -7.4271 N   0  0  0  0  0  0  0  0  0  0  0  0
   14.1723   -7.2340   -8.7179 N   0  0  0  0  0  0  0  0  0  0  0  0
   15.6308   -7.1152   -8.7747 C   0  0  0  0  0  0  0  0  0  0  0  0
   16.0392   -7.5463  -10.1624 C   0  0  0  0  0  0  0  0  0  0  0  0
   17.5298   -7.4838  -10.3713 C   0  0  0  0  0  0  0  0  0  0  0  0
   17.9599   -7.9399  -11.7010 C   0  0  2  0  0  0  0  0  0  0  0  0
   17.6268   -9.2690  -12.1061 N   0  0  0  0  0  0  0  0  0  0  0  0
   19.4127   -7.6331  -11.9818 C   0  0  0  0  0  0  0  0  0  0  0  0
   20.3379   -8.2179  -11.3421 O   0  0  0  0  0  0  0  0  0  0  0  0
   11.7420   -7.8202   -8.1858 O   0  0  0  0  0  0  0  0  0  0  0  0
   20.7438   -6.4118  -15.6555 C   0  0  0  0  0  0  0  0  0  0  0  0
   21.5552   -6.9743  -14.6693 C   0  0  1  0  0  0  0  0  0  0  0  0
   21.2132   -6.4359  -13.2994 N   0  0  0  0  0  0  0  0  0  0  0  0
   19.8259   -6.6968  -12.9527 C   0  0  0  0  0  0  0  0  0  0  0  0
   21.5666   -5.0165  -13.1251 O   0  0  0  0  0  0  0  0  0  0  0  0
   20.6721   -4.1785  -12.9098 O   0  0  0  0  0  0  0  0  0  0  0  0
  2  1  1  6
  2  3  1  0
  3  4  1  0
  4  8  1  0
  5  4  2  0
  6 17  1  0
  6  2  1  0
  7  6  2  0
  9 10  1  0
 10 11  2  0
 10 12  1  0
 12 13  1  0
 14 13  1  0
 16 15  1  1
 15 14  1  0
 16 17  1  0
 18 16  1  0
 19 18  2  0
 20 21  1  0
 22 21  1  1
 22 24  1  0
 22 23  1  0
 23 18  1  0
 24 26  1  0
 25 24  2  0
M  END
$$$$
