DRS.pdb
     RDKit          3D

 26 25  0  0  1  0  0  0  0  0999 V2000
   25.8938  -19.9578  -18.4143 N   0  0  0  0  0  0  0  0  0  0  0  0
   24.9968  -19.1658  -17.6231 C   0  0  1  0  0  0  0  0  0  0  0  0
   23.9422  -18.5401  -18.5031 C   0  0  0  0  0  0  0  0  0  0  0  0
   24.5327  -17.6741  -19.5433 C   0  0  0  0  0  0  0  0  0  0  0  0
   24.1624  -17.7681  -20.7426 O   0  0  0  0  0  0  0  0  0  0  0  0
   24.3145  -19.9819  -16.5985 C   0  0  0  0  0  0  0  0  0  0  0  0
   24.6013  -21.1941  -16.5307 O   0  0  0  0  0  0  0  0  0  0  0  0
   25.4994  -16.7501  -19.2212 O   0  0  0  0  0  0  0  0  0  0  0  0
   25.3039  -20.8235   -8.4496 N   0  0  0  0  0  0  0  0  0  0  0  0
   25.7526  -21.1983   -9.7543 C   0  0  0  0  0  0  0  0  0  0  0  0
   26.9839  -21.5056   -9.9358 N   0  0  0  0  0  0  0  0  0  0  0  0
   24.8580  -21.2371  -10.8412 N   0  0  0  0  0  0  0  0  0  0  0  0
   23.6084  -20.4737  -10.8235 C   0  0  0  0  0  0  0  0  0  0  0  0
   22.9297  -20.7374  -12.1456 C   0  0  0  0  0  0  0  0  0  0  0  0
   23.4568  -19.8596  -13.2506 C   0  0  0  0  0  0  0  0  0  0  0  0
   22.8456  -20.1270  -14.5606 C   0  0  2  0  0  0  0  0  0  0  0  0
   23.3604  -19.4437  -15.7048 N   0  0  0  0  0  0  0  0  0  0  0  0
   21.3361  -20.0667  -14.5237 C   0  0  0  0  0  0  0  0  0  0  0  0
   20.7279  -18.9544  -14.5291 O   0  0  0  0  0  0  0  0  0  0  0  0
   27.3595  -21.7606  -10.8960 O   0  0  0  0  0  0  0  0  0  0  0  0
   18.7082  -21.2128  -12.0483 C   0  0  0  0  0  0  0  0  0  0  0  0
   18.5759  -20.4454  -13.2063 C   0  0  2  0  0  0  0  0  0  0  0  0
   19.0703  -21.1924  -14.4233 N   0  0  0  0  0  0  0  0  0  0  0  0
   20.5225  -21.2183  -14.4822 C   0  0  0  0  0  0  0  0  0  0  0  0
   18.4768  -20.7128  -15.6834 O   0  0  0  0  0  0  0  0  0  0  0  0
   17.2394  -20.6803  -15.8111 O   0  0  0  0  0  0  0  0  0  0  0  0
  2  1  1  6
  2  3  1  0
  3  4  1  0
  4  8  1  0
  5  4  2  0
  6 17  1  0
  6  2  1  0
  7  6  2  0
  9 10  1  0
 10 11  2  0
 10 12  1  0
 12 13  1  0
 14 13  1  0
 16 15  1  1
 15 14  1  0
 16 17  1  0
 18 16  1  0
 19 18  2  0
 20 21  1  0
 22 21  1  1
 22 24  1  0
 22 23  1  0
 23 18  1  0
 24 26  1  0
 25 24  2  0
M  END
$$$$
