DRS.pdb
     RDKit          3D

 26 25  0  0  1  0  0  0  0  0999 V2000
   42.4048  -10.9864   -7.6878 N   0  0  0  0  0  0  0  0  0  0  0  0
   43.7237  -10.5785   -8.0774 C   0  0  1  0  0  0  0  0  0  0  0  0
   44.1817   -9.4192   -7.2263 C   0  0  0  0  0  0  0  0  0  0  0  0
   43.2847   -8.2528   -7.3520 C   0  0  0  0  0  0  0  0  0  0  0  0
   43.5838   -7.1530   -6.8180 O   0  0  0  0  0  0  0  0  0  0  0  0
   44.6986  -11.6768   -7.9198 C   0  0  0  0  0  0  0  0  0  0  0  0
   45.9123  -11.3927   -7.9719 O   0  0  0  0  0  0  0  0  0  0  0  0
   42.1053   -8.3473   -8.0534 O   0  0  0  0  0  0  0  0  0  0  0  0
   43.3717  -20.2574   -7.3476 N   0  0  0  0  0  0  0  0  0  0  0  0
   43.6651  -19.4095   -8.4607 C   0  0  0  0  0  0  0  0  0  0  0  0
   43.3280  -19.7766   -9.6418 N   0  0  0  0  0  0  0  0  0  0  0  0
   44.3169  -18.1750   -8.2750 N   0  0  0  0  0  0  0  0  0  0  0  0
   45.1151  -17.9109   -7.0760 C   0  0  0  0  0  0  0  0  0  0  0  0
   45.7124  -16.5365   -7.2566 C   0  0  0  0  0  0  0  0  0  0  0  0
   44.6636  -15.4599   -7.3595 C   0  0  0  0  0  0  0  0  0  0  0  0
   45.2145  -14.1199   -7.6083 C   0  0  2  0  0  0  0  0  0  0  0  0
   44.3086  -13.0201   -7.7152 N   0  0  0  0  0  0  0  0  0  0  0  0
   46.2256  -14.1036   -8.7311 C   0  0  0  0  0  0  0  0  0  0  0  0
   45.8554  -14.1519   -9.9426 O   0  0  0  0  0  0  0  0  0  0  0  0
   43.5981  -19.2121  -10.4999 O   0  0  0  0  0  0  0  0  0  0  0  0
   50.9272  -13.6452  -10.0714 C   0  0  0  0  0  0  0  0  0  0  0  0
   49.9930  -13.7336   -9.0386 C   0  0  2  0  0  0  0  0  0  0  0  0
   48.6157  -14.0624   -9.5662 N   0  0  0  0  0  0  0  0  0  0  0  0
   47.6172  -14.0347   -8.5101 C   0  0  0  0  0  0  0  0  0  0  0  0
   48.5695  -15.3184  -10.3346 O   0  0  0  0  0  0  0  0  0  0  0  0
   48.8776  -15.3173  -11.5402 O   0  0  0  0  0  0  0  0  0  0  0  0
  2  1  1  1
  2  3  1  0
  3  4  1  0
  4  8  1  0
  5  4  2  0
  6 17  1  0
  6  2  1  0
  7  6  2  0
  9 10  1  0
 10 11  2  0
 10 12  1  0
 12 13  1  0
 14 13  1  0
 16 15  1  6
 15 14  1  0
 16 17  1  0
 18 16  1  0
 19 18  2  0
 20 21  1  0
 22 21  1  6
 22 24  1  0
 22 23  1  0
 23 18  1  0
 24 26  1  0
 25 24  2  0
M  END
$$$$
