DRS.pdb
     RDKit          3D

 26 25  0  0  1  0  0  0  0  0999 V2000
   45.1663   -9.2185  -10.3906 N   0  0  0  0  0  0  0  0  0  0  0  0
   44.7061   -8.7603  -11.6697 C   0  0  1  0  0  0  0  0  0  0  0  0
   45.1647   -9.7035  -12.7552 C   0  0  0  0  0  0  0  0  0  0  0  0
   46.6319   -9.8705  -12.7589 C   0  0  0  0  0  0  0  0  0  0  0  0
   47.3908   -8.8797  -12.5959 O   0  0  0  0  0  0  0  0  0  0  0  0
   43.2319   -8.6854  -11.7195 C   0  0  0  0  0  0  0  0  0  0  0  0
   42.7009   -8.3252  -12.7894 O   0  0  0  0  0  0  0  0  0  0  0  0
   47.1963  -11.1114  -12.9423 O   0  0  0  0  0  0  0  0  0  0  0  0
   37.0986  -11.1596   -5.9551 N   0  0  0  0  0  0  0  0  0  0  0  0
   37.6689   -9.8637   -6.1539 C   0  0  0  0  0  0  0  0  0  0  0  0
   37.6443   -9.0084   -5.1992 N   0  0  0  0  0  0  0  0  0  0  0  0
   38.2598   -9.5167   -7.3842 N   0  0  0  0  0  0  0  0  0  0  0  0
   38.0387  -10.3229   -8.5866 C   0  0  0  0  0  0  0  0  0  0  0  0
   38.7600   -9.6185   -9.7099 C   0  0  0  0  0  0  0  0  0  0  0  0
   40.2576   -9.6650   -9.5535 C   0  0  0  0  0  0  0  0  0  0  0  0
   40.9854   -8.9624  -10.6202 C   0  0  2  0  0  0  0  0  0  0  0  0
   42.4136   -9.0032  -10.6114 N   0  0  0  0  0  0  0  0  0  0  0  0
   40.4822   -7.5548  -10.8410 C   0  0  0  0  0  0  0  0  0  0  0  0
   40.9421   -6.5848  -10.1667 O   0  0  0  0  0  0  0  0  0  0  0  0
   38.0936   -8.0510   -5.2963 O   0  0  0  0  0  0  0  0  0  0  0  0
   38.8325   -6.4546  -14.3379 C   0  0  0  0  0  0  0  0  0  0  0  0
   38.1750   -5.8075  -13.2909 C   0  0  2  0  0  0  0  0  0  0  0  0
   38.9634   -5.8964  -12.0047 N   0  0  0  0  0  0  0  0  0  0  0  0
   39.4898   -7.2344  -11.7910 C   0  0  0  0  0  0  0  0  0  0  0  0
   38.2230   -5.4021  -10.8310 O   0  0  0  0  0  0  0  0  0  0  0  0
   37.5964   -6.2025  -10.1132 O   0  0  0  0  0  0  0  0  0  0  0  0
  2  1  1  1
  2  3  1  0
  3  4  1  0
  4  8  1  0
  5  4  2  0
  6 17  1  0
  6  2  1  0
  7  6  2  0
  9 10  1  0
 10 11  2  0
 10 12  1  0
 12 13  1  0
 14 13  1  0
 16 15  1  1
 15 14  1  0
 16 17  1  0
 18 16  1  0
 19 18  2  0
 20 21  1  0
 22 21  1  6
 22 24  1  0
 22 23  1  0
 23 18  1  0
 24 26  1  0
 25 24  2  0
M  END
$$$$
