DRS.pdb
     RDKit          3D

 26 25  0  0  1  0  0  0  0  0999 V2000
   22.1456  -11.7055  -16.4448 N   0  0  0  0  0  0  0  0  0  0  0  0
   21.3588  -10.8727  -17.3081 C   0  0  1  0  0  0  0  0  0  0  0  0
   20.2430  -11.6767  -17.9299 C   0  0  0  0  0  0  0  0  0  0  0  0
   20.7517  -12.8525  -18.6644 C   0  0  0  0  0  0  0  0  0  0  0  0
   20.9933  -12.7834  -19.8977 O   0  0  0  0  0  0  0  0  0  0  0  0
   20.7554   -9.7449  -16.5696 C   0  0  0  0  0  0  0  0  0  0  0  0
   20.0563   -8.9343  -17.2103 O   0  0  0  0  0  0  0  0  0  0  0  0
   20.9692  -14.0453  -18.0147 O   0  0  0  0  0  0  0  0  0  0  0  0
   16.2605   -7.9527   -8.9267 N   0  0  0  0  0  0  0  0  0  0  0  0
   16.1581   -7.1632  -10.1142 C   0  0  0  0  0  0  0  0  0  0  0  0
   15.0685   -6.5360  -10.3650 N   0  0  0  0  0  0  0  0  0  0  0  0
   17.2403   -7.0637  -11.0098 N   0  0  0  0  0  0  0  0  0  0  0  0
   17.8960   -8.2593  -11.5440 C   0  0  0  0  0  0  0  0  0  0  0  0
   19.0411   -7.7713  -12.3977 C   0  0  0  0  0  0  0  0  0  0  0  0
   19.7716   -8.8968  -13.0823 C   0  0  0  0  0  0  0  0  0  0  0  0
   20.2969   -8.5405  -14.4083 C   0  0  2  0  0  0  0  0  0  0  0  0
   20.9410   -9.5552  -15.1811 N   0  0  0  0  0  0  0  0  0  0  0  0
   21.1132   -7.2691  -14.3905 C   0  0  0  0  0  0  0  0  0  0  0  0
   22.3259   -7.2780  -14.0211 O   0  0  0  0  0  0  0  0  0  0  0  0
   14.9698   -5.9071  -11.2151 O   0  0  0  0  0  0  0  0  0  0  0  0
   21.0675   -4.3406  -17.0800 C   0  0  0  0  0  0  0  0  0  0  0  0
   20.8806   -3.8086  -15.8036 C   0  0  2  0  0  0  0  0  0  0  0  0
   21.3389   -4.7703  -14.7318 N   0  0  0  0  0  0  0  0  0  0  0  0
   20.5915   -6.0162  -14.7756 C   0  0  0  0  0  0  0  0  0  0  0  0
   21.3462   -4.1799  -13.3822 O   0  0  0  0  0  0  0  0  0  0  0  0
   20.5598   -4.6055  -12.5168 O   0  0  0  0  0  0  0  0  0  0  0  0
  2  1  1  1
  2  3  1  0
  3  4  1  0
  4  8  1  0
  5  4  2  0
  6 17  1  0
  6  2  1  0
  7  6  2  0
  9 10  1  0
 10 11  2  0
 10 12  1  0
 12 13  1  0
 14 13  1  0
 16 15  1  1
 15 14  1  0
 16 17  1  0
 18 16  1  0
 19 18  2  0
 20 21  1  0
 22 21  1  6
 22 24  1  0
 22 23  1  0
 23 18  1  0
 24 26  1  0
 25 24  2  0
M  END
$$$$
