VTV.pdb
     RDKit          3D

 22 21  0  0  1  0  0  0  0  0999 V2000
   16.5554  -10.3321  -14.8671 C   0  0  0  0  0  0  0  0  0  0  0  0
   16.6952  -10.6175  -16.3410 C   0  0  2  0  0  0  0  0  0  0  0  0
   15.4761  -11.3716  -16.8241 C   0  0  0  0  0  0  0  0  0  0  0  0
   17.9241  -11.4222  -16.6589 C   0  0  2  0  0  0  0  0  0  0  0  0
   17.8527  -12.7684  -16.0978 N   0  0  0  0  0  0  0  0  0  0  0  0
   19.1644  -10.8066  -16.1640 C   0  0  0  0  0  0  0  0  0  0  0  0
   19.6789  -11.0453  -15.0632 O   0  0  0  0  0  0  0  0  0  0  0  0
   21.4534   -8.3920  -18.9710 C   0  0  0  0  0  0  0  0  0  0  0  0
   21.9645   -9.1815  -17.8058 C   0  0  1  0  0  0  0  0  0  0  0  0
   23.2377   -8.7658  -17.4181 O   0  0  0  0  0  0  0  0  0  0  0  0
   20.9910   -9.1345  -16.6269 C   0  0  2  0  0  0  0  0  0  0  0  0
   19.8277   -9.8623  -17.0150 N   0  0  0  0  0  0  0  0  0  0  0  0
   20.7345   -7.7653  -16.1779 C   0  0  0  0  0  0  0  0  0  0  0  0
   19.7787   -7.0843  -16.6644 O   0  0  0  0  0  0  0  0  0  0  0  0
   22.1792   -6.1722  -12.4762 C   0  0  0  0  0  0  0  0  0  0  0  0
   20.9791   -5.6235  -13.2449 C   0  0  2  0  0  0  0  0  0  0  0  0
   19.8235   -6.5305  -12.8563 C   0  0  0  0  0  0  0  0  0  0  0  0
   21.1871   -5.7715  -14.7064 C   0  0  2  0  0  0  0  0  0  0  0  0
   21.4834   -7.0657  -15.1941 N   0  0  0  0  0  0  0  0  0  0  0  0
   22.2814   -4.8560  -15.1210 C   0  0  0  0  0  0  0  0  0  0  0  0
   22.2251   -3.6034  -15.0480 O   0  0  0  0  0  0  0  0  0  0  0  0
   23.4918   -5.3561  -15.6401 O   0  0  0  0  0  0  0  0  0  0  0  0
  2  1  1  1
  2  3  1  0
  4  5  1  1
  4  6  1  0
  4  2  1  0
  6  7  2  0
  9  8  1  6
  9 11  1  0
 10  9  1  0
 11 13  1  0
 11 12  1  6
 12  6  1  0
 13 14  2  0
 13 19  1  0
 16 17  1  1
 16 15  1  0
 18 16  1  0
 18 19  1  1
 20 18  1  0
 20 22  1  0
 21 20  2  0
M  END
$$$$
