VTV.pdb
     RDKit          3D

 22 21  0  0  1  0  0  0  0  0999 V2000
   14.4546  -13.8398  -17.0389 C   0  0  0  0  0  0  0  0  0  0  0  0
   15.8533  -13.4138  -16.6706 C   0  0  2  0  0  0  0  0  0  0  0  0
   15.8711  -11.9246  -16.4060 C   0  0  0  0  0  0  0  0  0  0  0  0
   16.8548  -13.7301  -17.7457 C   0  0  2  0  0  0  0  0  0  0  0  0
   16.9169  -15.1617  -18.0267 N   0  0  0  0  0  0  0  0  0  0  0  0
   18.2182  -13.2888  -17.4162 C   0  0  0  0  0  0  0  0  0  0  0  0
   19.0076  -13.9166  -16.6979 O   0  0  0  0  0  0  0  0  0  0  0  0
   20.5112  -11.9950  -20.2346 C   0  0  0  0  0  0  0  0  0  0  0  0
   20.4020  -10.9482  -19.1695 C   0  0  1  0  0  0  0  0  0  0  0  0
   19.5255   -9.9275  -19.5355 O   0  0  0  0  0  0  0  0  0  0  0  0
   20.0017  -11.5571  -17.8245 C   0  0  2  0  0  0  0  0  0  0  0  0
   18.6684  -12.0429  -17.9649 N   0  0  0  0  0  0  0  0  0  0  0  0
   20.1987  -10.6223  -16.7156 C   0  0  0  0  0  0  0  0  0  0  0  0
   19.2172  -10.0037  -16.1978 O   0  0  0  0  0  0  0  0  0  0  0  0
   22.4640   -9.0501  -12.6897 C   0  0  0  0  0  0  0  0  0  0  0  0
   22.3971  -10.0513  -13.8408 C   0  0  2  0  0  0  0  0  0  0  0  0
   23.8359  -10.2030  -14.3055 C   0  0  0  0  0  0  0  0  0  0  0  0
   21.6220   -9.4886  -14.9738 C   0  0  2  0  0  0  0  0  0  0  0  0
   21.4462  -10.3080  -16.1131 N   0  0  0  0  0  0  0  0  0  0  0  0
   22.2710   -8.2238  -15.4057 C   0  0  0  0  0  0  0  0  0  0  0  0
   22.3003   -7.1710  -14.7214 O   0  0  0  0  0  0  0  0  0  0  0  0
   22.9161   -8.1258  -16.6543 O   0  0  0  0  0  0  0  0  0  0  0  0
  2  1  1  6
  2  3  1  0
  4  5  1  1
  4  6  1  0
  4  2  1  0
  6  7  2  0
  9  8  1  6
  9 11  1  0
 10  9  1  0
 11 13  1  0
 11 12  1  6
 12  6  1  0
 13 14  2  0
 13 19  1  0
 16 17  1  6
 16 15  1  0
 18 16  1  0
 18 19  1  6
 20 18  1  0
 20 22  1  0
 21 20  2  0
M  END
$$$$
