VTV.pdb
     RDKit          3D

 22 21  0  0  1  0  0  0  0  0999 V2000
   22.7665  -20.6082  -19.1168 C   0  0  0  0  0  0  0  0  0  0  0  0
   21.7492  -19.8794  -18.2756 C   0  0  2  0  0  0  0  0  0  0  0  0
   21.1565  -18.7423  -19.0780 C   0  0  0  0  0  0  0  0  0  0  0  0
   22.3380  -19.3269  -17.0080 C   0  0  2  0  0  0  0  0  0  0  0  0
   23.2594  -18.2252  -17.2715 N   0  0  0  0  0  0  0  0  0  0  0  0
   23.0698  -20.3316  -16.2224 C   0  0  0  0  0  0  0  0  0  0  0  0
   22.6007  -21.4170  -15.8548 O   0  0  0  0  0  0  0  0  0  0  0  0
   26.1746  -22.0693  -17.0382 C   0  0  0  0  0  0  0  0  0  0  0  0
   26.4864  -21.2196  -15.8453 C   0  0  1  0  0  0  0  0  0  0  0  0
   27.1648  -20.0552  -16.2028 O   0  0  0  0  0  0  0  0  0  0  0  0
   25.2245  -20.8937  -15.0444 C   0  0  2  0  0  0  0  0  0  0  0  0
   24.4239  -20.0361  -15.8549 N   0  0  0  0  0  0  0  0  0  0  0  0
   25.5361  -20.3646  -13.7158 C   0  0  0  0  0  0  0  0  0  0  0  0
   25.3898  -19.1307  -13.4510 O   0  0  0  0  0  0  0  0  0  0  0  0
   24.1517  -20.7563  -10.2667 C   0  0  0  0  0  0  0  0  0  0  0  0
   25.6330  -21.1148  -10.1692 C   0  0  2  0  0  0  0  0  0  0  0  0
   26.1361  -20.3525   -8.9547 C   0  0  0  0  0  0  0  0  0  0  0  0
   26.3697  -20.6027  -11.3507 C   0  0  2  0  0  0  0  0  0  0  0  0
   26.0151  -21.1257  -12.6161 N   0  0  0  0  0  0  0  0  0  0  0  0
   27.8211  -20.8398  -11.1392 C   0  0  0  0  0  0  0  0  0  0  0  0
   28.5030  -21.6821  -11.7742 O   0  0  0  0  0  0  0  0  0  0  0  0
   28.5462  -20.1076  -10.1785 O   0  0  0  0  0  0  0  0  0  0  0  0
  2  1  1  6
  2  3  1  0
  4  5  1  6
  4  6  1  0
  4  2  1  0
  6  7  2  0
  9  8  1  6
  9 11  1  0
 10  9  1  0
 11 13  1  0
 11 12  1  6
 12  6  1  0
 13 14  2  0
 13 19  1  0
 16 17  1  1
 16 15  1  0
 18 16  1  0
 18 19  1  6
 20 18  1  0
 20 22  1  0
 21 20  2  0
M  END
$$$$
