VTV.pdb
     RDKit          3D

 22 21  0  0  1  0  0  0  0  0999 V2000
   26.9533  -31.8078  -14.7302 C   0  0  0  0  0  0  0  0  0  0  0  0
   28.2783  -32.5048  -14.5500 C   0  0  2  0  0  0  0  0  0  0  0  0
   29.2428  -32.0323  -15.6151 C   0  0  0  0  0  0  0  0  0  0  0  0
   28.1587  -34.0009  -14.6293 C   0  0  2  0  0  0  0  0  0  0  0  0
   27.6202  -34.4359  -15.9150 N   0  0  0  0  0  0  0  0  0  0  0  0
   27.3006  -34.5704  -13.5798 C   0  0  0  0  0  0  0  0  0  0  0  0
   26.0832  -34.7660  -13.6941 O   0  0  0  0  0  0  0  0  0  0  0  0
   27.0547  -37.2788   -9.5906 C   0  0  0  0  0  0  0  0  0  0  0  0
   27.6350  -36.7869  -10.8803 C   0  0  1  0  0  0  0  0  0  0  0  0
   27.3414  -37.6443  -11.9399 O   0  0  0  0  0  0  0  0  0  0  0  0
   27.1819  -35.3591  -11.1902 C   0  0  2  0  0  0  0  0  0  0  0  0
   27.9150  -34.9259  -12.3339 N   0  0  0  0  0  0  0  0  0  0  0  0
   27.2913  -34.4808  -10.0245 C   0  0  0  0  0  0  0  0  0  0  0  0
   28.4253  -34.1132   -9.5853 O   0  0  0  0  0  0  0  0  0  0  0  0
   23.8916  -33.0742   -7.6367 C   0  0  0  0  0  0  0  0  0  0  0  0
   25.1465  -32.2309   -7.8518 C   0  0  2  0  0  0  0  0  0  0  0  0
   24.8508  -31.4077   -9.0944 C   0  0  0  0  0  0  0  0  0  0  0  0
   26.3088  -33.0995   -8.1613 C   0  0  2  0  0  0  0  0  0  0  0  0
   26.2002  -33.9583   -9.2798 N   0  0  0  0  0  0  0  0  0  0  0  0
   26.6083  -33.9284   -6.9652 C   0  0  0  0  0  0  0  0  0  0  0  0
   26.2348  -35.1181   -6.8141 O   0  0  0  0  0  0  0  0  0  0  0  0
   27.3563  -33.4110   -5.8893 O   0  0  0  0  0  0  0  0  0  0  0  0
  2  1  1  6
  2  3  1  0
  4  5  1  6
  4  6  1  0
  4  2  1  0
  6  7  2  0
  9  8  1  1
  9 11  1  0
 10  9  1  0
 11 13  1  0
 11 12  1  6
 12  6  1  0
 13 14  2  0
 13 19  1  0
 16 17  1  6
 16 15  1  0
 18 16  1  0
 18 19  1  6
 20 18  1  0
 20 22  1  0
 21 20  2  0
M  END
$$$$
