VTV.pdb
     RDKit          3D

 22 21  0  0  1  0  0  0  0  0999 V2000
   30.5363   -6.3912  -19.1422 C   0  0  0  0  0  0  0  0  0  0  0  0
   31.2809   -7.6119  -19.6209 C   0  0  2  0  0  0  0  0  0  0  0  0
   30.6580   -8.1072  -20.9073 C   0  0  0  0  0  0  0  0  0  0  0  0
   31.2699   -8.7266  -18.6129 C   0  0  2  0  0  0  0  0  0  0  0  0
   29.9204   -9.2307  -18.3743 N   0  0  0  0  0  0  0  0  0  0  0  0
   31.8282   -8.3357  -17.3099 C   0  0  0  0  0  0  0  0  0  0  0  0
   31.1536   -8.0432  -16.3136 O   0  0  0  0  0  0  0  0  0  0  0  0
   34.3212  -10.4302  -15.5001 C   0  0  0  0  0  0  0  0  0  0  0  0
   34.9680   -9.1022  -15.7453 C   0  0  1  0  0  0  0  0  0  0  0  0
   35.8633   -9.1523  -16.8129 O   0  0  0  0  0  0  0  0  0  0  0  0
   33.9262   -8.0020  -15.9560 C   0  0  2  0  0  0  0  0  0  0  0  0
   33.2555   -8.2894  -17.1812 N   0  0  0  0  0  0  0  0  0  0  0  0
   34.5144   -6.6640  -15.8797 C   0  0  0  0  0  0  0  0  0  0  0  0
   34.6245   -5.9366  -16.9155 O   0  0  0  0  0  0  0  0  0  0  0  0
   33.5067   -3.3756  -14.5155 C   0  0  0  0  0  0  0  0  0  0  0  0
   34.8249   -3.7334  -13.8326 C   0  0  2  0  0  0  0  0  0  0  0  0
   35.6382   -2.4502  -13.8655 C   0  0  0  0  0  0  0  0  0  0  0  0
   35.5625   -4.7466  -14.6266 C   0  0  2  0  0  0  0  0  0  0  0  0
   35.0085   -6.0459  -14.7000 N   0  0  0  0  0  0  0  0  0  0  0  0
   36.9407   -4.8582  -14.0830 C   0  0  0  0  0  0  0  0  0  0  0  0
   37.8348   -3.9883  -14.2302 O   0  0  0  0  0  0  0  0  0  0  0  0
   37.3424   -5.9876  -13.3428 O   0  0  0  0  0  0  0  0  0  0  0  0
  2  1  1  1
  2  3  1  0
  4  5  1  1
  4  6  1  0
  4  2  1  0
  6  7  2  0
  9  8  1  6
  9 11  1  0
 10  9  1  0
 11 13  1  0
 11 12  1  6
 12  6  1  0
 13 14  2  0
 13 19  1  0
 16 17  1  6
 16 15  1  0
 18 16  1  0
 18 19  1  1
 20 18  1  0
 20 22  1  0
 21 20  2  0
M  END
$$$$
