RPH.pdb
     RDKit          3D

 29 30  0  0  1  0  0  0  0  0999 V2000
   43.8756  -17.8691   -5.3273 N   0  0  0  0  0  0  0  0  0  0  0  0
   43.8263  -18.6525   -6.5312 C   0  0  0  0  0  0  0  0  0  0  0  0
   43.9674  -19.9117   -6.4246 N   0  0  0  0  0  0  0  0  0  0  0  0
   43.6272  -18.0489   -7.7997 N   0  0  0  0  0  0  0  0  0  0  0  0
   43.5156  -16.6121   -7.8766 C   0  0  0  0  0  0  0  0  0  0  0  0
   44.8551  -15.9639   -8.1823 C   0  0  0  0  0  0  0  0  0  0  0  0
   44.7239  -14.4690   -8.2203 C   0  0  0  0  0  0  0  0  0  0  0  0
   44.7925  -13.9035   -9.6485 C   0  0  2  0  0  0  0  0  0  0  0  0
   46.2025  -13.9802  -10.0824 N   0  0  0  0  0  0  0  0  0  0  0  0
   44.4396  -12.4449   -9.6454 C   0  0  0  0  0  0  0  0  0  0  0  0
   45.1899  -11.7686   -8.8714 O   0  0  0  0  0  0  0  0  0  0  0  0
   44.0104  -20.5424   -7.2321 N   0  0  0  0  0  0  0  0  0  0  0  0
   43.3998  -11.9122  -10.4163 C   0  0  0  0  0  0  0  0  0  0  0  0
   43.0182  -12.4472  -11.7321 C   0  0  0  0  0  0  0  0  0  0  0  0
   41.5161  -12.4689  -11.6101 C   0  0  0  0  0  0  0  0  0  0  0  0
   41.1691  -11.5081  -10.4943 C   0  0  2  0  0  0  0  0  0  0  0  0
   42.5340  -10.8142  -10.2573 C   0  0  0  0  0  0  0  0  0  0  0  0
   42.5117  -10.0530   -9.0239 O   0  0  0  0  0  0  0  0  0  0  0  0
   42.3224  -10.4512   -7.8766 N   0  0  0  0  0  0  0  0  0  0  0  0
   42.7420   -8.6350   -9.1499 C   0  0  1  0  0  0  0  0  0  0  0  0
   42.7251   -7.7512   -7.9907 C   0  0  0  0  0  0  0  0  0  0  0  0
   44.0673   -7.1428   -7.7581 C   0  0  0  0  0  0  0  0  0  0  0  0
   44.1030   -6.1499   -6.6663 C   0  0  0  0  0  0  0  0  0  0  0  0
   44.0046   -6.4278   -5.2903 N   0  0  0  0  0  0  0  0  0  0  0  0
   44.0714   -5.3187   -4.5789 C   0  0  0  0  0  0  0  0  0  0  0  0
   44.2135   -4.3083   -5.4784 N   0  0  0  0  0  0  0  0  0  0  0  0
   44.2312   -4.8110   -6.7146 C   0  0  0  0  0  0  0  0  0  0  0  0
   41.7658   -6.6831   -8.3359 O   0  0  0  0  0  0  0  0  0  0  0  0
   41.3543   -6.5146   -9.6415 O   0  0  0  0  0  0  0  0  0  0  0  0
  1  2  1  0
  2  3  2  0
  4  5  1  0
  4  2  1  0
  6  5  1  0
  7  6  1  0
  8  7  1  0
  8  9  1  1
 10 12  1  0
 10  8  1  0
 11 10  2  0
 12 16  1  0
 13 14  1  0
 13 12  1  0
 14 15  1  0
 15 16  1  0
 16 17  1  6
 17 18  2  0
 19 20  1  0
 19 17  1  0
 20 27  1  0
 20 21  1  1
 22 21  1  0
 23 22  2  0
 24 25  1  0
 24 23  1  0
 25 26  2  0
 26 22  1  0
 27 29  2  0
 27 28  1  0
M  END
$$$$
