RPH.pdb
     RDKit          3D

 29 30  0  0  1  0  0  0  0  0999 V2000
   19.2589  -23.1990   -8.5058 N   0  0  0  0  0  0  0  0  0  0  0  0
   18.4810  -23.2952   -9.7104 C   0  0  0  0  0  0  0  0  0  0  0  0
   17.5565  -24.1673   -9.7503 N   0  0  0  0  0  0  0  0  0  0  0  0
   18.7300  -22.4494  -10.8221 N   0  0  0  0  0  0  0  0  0  0  0  0
   19.6989  -21.3886  -10.6859 C   0  0  0  0  0  0  0  0  0  0  0  0
   20.9034  -21.6144  -11.5838 C   0  0  0  0  0  0  0  0  0  0  0  0
   22.0691  -22.1257  -10.7879 C   0  0  0  0  0  0  0  0  0  0  0  0
   22.9142  -20.9944  -10.1797 C   0  0  2  0  0  0  0  0  0  0  0  0
   21.9770  -20.0146   -9.5933 N   0  0  0  0  0  0  0  0  0  0  0  0
   23.6547  -20.2627  -11.2605 C   0  0  0  0  0  0  0  0  0  0  0  0
   22.8895  -19.5121  -11.9465 O   0  0  0  0  0  0  0  0  0  0  0  0
   16.9474  -24.3032  -10.5641 N   0  0  0  0  0  0  0  0  0  0  0  0
   25.0314  -20.4048  -11.4697 C   0  0  0  0  0  0  0  0  0  0  0  0
   26.0132  -20.4298  -10.3749 C   0  0  0  0  0  0  0  0  0  0  0  0
   26.8878  -21.5821  -10.7979 C   0  0  0  0  0  0  0  0  0  0  0  0
   26.6522  -21.7690  -12.2805 C   0  0  2  0  0  0  0  0  0  0  0  0
   25.8370  -20.4960  -12.6201 C   0  0  0  0  0  0  0  0  0  0  0  0
   25.2459  -20.6056  -13.9391 O   0  0  0  0  0  0  0  0  0  0  0  0
   24.3130  -21.3155  -14.3082 N   0  0  0  0  0  0  0  0  0  0  0  0
   25.8244  -19.7724  -14.9642 C   0  0  1  0  0  0  0  0  0  0  0  0
   25.0215  -19.2324  -16.0546 C   0  0  0  0  0  0  0  0  0  0  0  0
   23.9472  -18.3348  -15.5386 C   0  0  0  0  0  0  0  0  0  0  0  0
   23.1248  -17.7051  -16.5903 C   0  0  0  0  0  0  0  0  0  0  0  0
   22.4657  -18.3743  -17.6382 N   0  0  0  0  0  0  0  0  0  0  0  0
   21.8156  -17.5219  -18.4074 C   0  0  0  0  0  0  0  0  0  0  0  0
   22.0420  -16.2918  -17.8728 N   0  0  0  0  0  0  0  0  0  0  0  0
   22.8199  -16.4103  -16.7948 C   0  0  0  0  0  0  0  0  0  0  0  0
   25.9633  -18.4376  -16.8680 O   0  0  0  0  0  0  0  0  0  0  0  0
   25.9117  -18.4956  -18.2450 O   0  0  0  0  0  0  0  0  0  0  0  0
  1  2  1  0
  2  3  2  0
  4  5  1  0
  4  2  1  0
  6  5  1  0
  7  6  1  0
  8  7  1  0
  8  9  1  6
 10 12  1  0
 10  8  1  0
 11 10  2  0
 12 16  1  0
 13 14  1  0
 13 12  1  0
 14 15  1  0
 15 16  1  0
 16 17  1  1
 17 18  2  0
 19 20  1  0
 19 17  1  0
 20 27  1  0
 20 21  1  6
 22 21  1  0
 23 22  2  0
 24 25  1  0
 24 23  1  0
 25 26  2  0
 26 22  1  0
 27 29  2  0
 27 28  1  0
M  END
$$$$
