RPH.pdb
     RDKit          3D

 29 30  0  0  1  0  0  0  0  0999 V2000
   25.6331  -16.6843  -19.7698 N   0  0  0  0  0  0  0  0  0  0  0  0
   24.4138  -17.4433  -19.8223 C   0  0  0  0  0  0  0  0  0  0  0  0
   23.6638  -17.2895  -20.8376 N   0  0  0  0  0  0  0  0  0  0  0  0
   24.0518  -18.3360  -18.7807 N   0  0  0  0  0  0  0  0  0  0  0  0
   25.0774  -19.1513  -18.1755 C   0  0  0  0  0  0  0  0  0  0  0  0
   24.9820  -20.5974  -18.6312 C   0  0  0  0  0  0  0  0  0  0  0  0
   24.9609  -21.5245  -17.4507 C   0  0  0  0  0  0  0  0  0  0  0  0
   26.3448  -21.6902  -16.8015 C   0  0  2  0  0  0  0  0  0  0  0  0
   26.9075  -22.9658  -17.2899 N   0  0  0  0  0  0  0  0  0  0  0  0
   26.2047  -21.8424  -15.3151 C   0  0  0  0  0  0  0  0  0  0  0  0
   25.5447  -22.8827  -14.9967 O   0  0  0  0  0  0  0  0  0  0  0  0
   22.7714  -17.7808  -20.9562 N   0  0  0  0  0  0  0  0  0  0  0  0
   26.7485  -20.9309  -14.4026 C   0  0  0  0  0  0  0  0  0  0  0  0
   28.1107  -20.3892  -14.5214 C   0  0  0  0  0  0  0  0  0  0  0  0
   27.8663  -18.9291  -14.2381 C   0  0  0  0  0  0  0  0  0  0  0  0
   26.5429  -18.8563  -13.5087 C   0  0  2  0  0  0  0  0  0  0  0  0
   26.2807  -20.3533  -13.2075 C   0  0  0  0  0  0  0  0  0  0  0  0
   24.9146  -20.5530  -12.7662 O   0  0  0  0  0  0  0  0  0  0  0  0
   23.8697  -20.3590  -13.3836 N   0  0  0  0  0  0  0  0  0  0  0  0
   24.7486  -21.0462  -11.4211 C   0  0  2  0  0  0  0  0  0  0  0  0
   23.4337  -21.3721  -10.8826 C   0  0  0  0  0  0  0  0  0  0  0  0
   23.5363  -21.8841   -9.4851 C   0  0  0  0  0  0  0  0  0  0  0  0
   22.2358  -22.1357   -8.8336 C   0  0  0  0  0  0  0  0  0  0  0  0
   21.1408  -22.8115   -9.4033 N   0  0  0  0  0  0  0  0  0  0  0  0
   20.1290  -22.8672   -8.5584 C   0  0  0  0  0  0  0  0  0  0  0  0
   20.5500  -22.2312   -7.4321 N   0  0  0  0  0  0  0  0  0  0  0  0
   21.8014  -21.8005   -7.6047 C   0  0  0  0  0  0  0  0  0  0  0  0
   22.6947  -20.0938  -10.8739 O   0  0  0  0  0  0  0  0  0  0  0  0
   21.3909  -20.0424  -11.3206 O   0  0  0  0  0  0  0  0  0  0  0  0
  1  2  1  0
  2  3  2  0
  4  5  1  0
  4  2  1  0
  6  5  1  0
  7  6  1  0
  8  7  1  0
  8  9  1  6
 10 12  1  0
 10  8  1  0
 11 10  2  0
 12 16  1  0
 13 14  1  0
 13 12  1  0
 14 15  1  0
 15 16  1  0
 16 17  1  1
 17 18  2  0
 19 20  1  0
 19 17  1  0
 20 27  1  0
 20 21  1  1
 22 21  1  0
 23 22  2  0
 24 25  1  0
 24 23  1  0
 25 26  2  0
 26 22  1  0
 27 29  2  0
 27 28  1  0
M  END
$$$$
