RPH.pdb
     RDKit          3D

 29 30  0  0  1  0  0  0  0  0999 V2000
   22.0637  -14.9451  -21.9626 N   0  0  0  0  0  0  0  0  0  0  0  0
   21.1380  -13.9082  -21.5975 C   0  0  0  0  0  0  0  0  0  0  0  0
   19.9051  -14.1024  -21.8408 N   0  0  0  0  0  0  0  0  0  0  0  0
   21.5767  -12.7056  -20.9858 N   0  0  0  0  0  0  0  0  0  0  0  0
   22.9763  -12.5581  -20.6661 C   0  0  0  0  0  0  0  0  0  0  0  0
   23.4266  -13.5875  -19.6436 C   0  0  0  0  0  0  0  0  0  0  0  0
   24.8588  -13.3583  -19.2564 C   0  0  0  0  0  0  0  0  0  0  0  0
   25.1139  -13.5957  -17.7588 C   0  0  2  0  0  0  0  0  0  0  0  0
   24.4733  -14.8787  -17.4037 N   0  0  0  0  0  0  0  0  0  0  0  0
   24.4182  -12.5463  -16.9422 C   0  0  0  0  0  0  0  0  0  0  0  0
   23.1519  -12.6114  -17.0506 O   0  0  0  0  0  0  0  0  0  0  0  0
   19.1784  -13.4040  -21.6513 N   0  0  0  0  0  0  0  0  0  0  0  0
   25.1060  -11.6136  -16.1571 C   0  0  0  0  0  0  0  0  0  0  0  0
   26.3827  -11.9095  -15.4897 C   0  0  0  0  0  0  0  0  0  0  0  0
   27.1686  -10.6624  -15.8045 C   0  0  0  0  0  0  0  0  0  0  0  0
   26.1511   -9.6005  -16.1591 C   0  0  2  0  0  0  0  0  0  0  0  0
   24.8304  -10.2965  -15.7448 C   0  0  0  0  0  0  0  0  0  0  0  0
   23.6875   -9.5740  -16.2671 O   0  0  0  0  0  0  0  0  0  0  0  0
   23.4112   -9.3109  -17.4355 N   0  0  0  0  0  0  0  0  0  0  0  0
   22.7403   -9.0949  -15.2909 C   0  0  1  0  0  0  0  0  0  0  0  0
   21.5368   -8.3719  -15.6833 C   0  0  0  0  0  0  0  0  0  0  0  0
   20.3220   -8.9677  -15.0548 C   0  0  0  0  0  0  0  0  0  0  0  0
   19.8693  -10.2257  -15.6807 C   0  0  0  0  0  0  0  0  0  0  0  0
   20.4178  -10.8228  -16.8309 N   0  0  0  0  0  0  0  0  0  0  0  0
   19.7848  -11.9413  -17.1295 C   0  0  0  0  0  0  0  0  0  0  0  0
   18.8199  -12.0865  -16.1818 N   0  0  0  0  0  0  0  0  0  0  0  0
   18.8777  -11.0637  -15.3263 C   0  0  0  0  0  0  0  0  0  0  0  0
   21.7249   -7.0025  -15.1641 O   0  0  0  0  0  0  0  0  0  0  0  0
   20.9200   -5.9746  -15.6086 O   0  0  0  0  0  0  0  0  0  0  0  0
  1  2  1  0
  2  3  2  0
  4  5  1  0
  4  2  1  0
  6  5  1  0
  7  6  1  0
  8  7  1  0
  8  9  1  1
 10 12  1  0
 10  8  1  0
 11 10  2  0
 12 16  1  0
 13 14  1  0
 13 12  1  0
 14 15  1  0
 15 16  1  0
 16 17  1  6
 17 18  2  0
 19 20  1  0
 19 17  1  0
 20 27  1  0
 20 21  1  6
 22 21  1  0
 23 22  2  0
 24 25  1  0
 24 23  1  0
 25 26  2  0
 26 22  1  0
 27 29  2  0
 27 28  1  0
M  END
$$$$
