RPH.pdb
     RDKit          3D

 29 30  0  0  1  0  0  0  0  0999 V2000
   24.0959  -20.2595  -19.6505 N   0  0  0  0  0  0  0  0  0  0  0  0
   23.9434  -18.9162  -19.1630 C   0  0  0  0  0  0  0  0  0  0  0  0
   22.8281  -18.3380  -19.3593 N   0  0  0  0  0  0  0  0  0  0  0  0
   24.9969  -18.2507  -18.4845 N   0  0  0  0  0  0  0  0  0  0  0  0
   26.2894  -18.8885  -18.4111 C   0  0  0  0  0  0  0  0  0  0  0  0
   26.4072  -19.7708  -17.1800 C   0  0  0  0  0  0  0  0  0  0  0  0
   27.6217  -19.4022  -16.3782 C   0  0  0  0  0  0  0  0  0  0  0  0
   28.3833  -20.6315  -15.8559 C   0  0  2  0  0  0  0  0  0  0  0  0
   28.2217  -21.7049  -16.8579 N   0  0  0  0  0  0  0  0  0  0  0  0
   27.7438  -21.1408  -14.5975 C   0  0  0  0  0  0  0  0  0  0  0  0
   26.5359  -21.4970  -14.7801 O   0  0  0  0  0  0  0  0  0  0  0  0
   22.6284  -17.3819  -19.0465 N   0  0  0  0  0  0  0  0  0  0  0  0
   28.4203  -21.2081  -13.3739 C   0  0  0  0  0  0  0  0  0  0  0  0
   29.7606  -21.7953  -13.2269 C   0  0  0  0  0  0  0  0  0  0  0  0
   30.4310  -20.7683  -12.3507 C   0  0  0  0  0  0  0  0  0  0  0  0
   29.3177  -19.9922  -11.6824 C   0  0  2  0  0  0  0  0  0  0  0  0
   28.0837  -20.8520  -12.0546 C   0  0  0  0  0  0  0  0  0  0  0  0
   26.8571  -20.1364  -11.7639 O   0  0  0  0  0  0  0  0  0  0  0  0
   26.3155  -19.2424  -12.4103 N   0  0  0  0  0  0  0  0  0  0  0  0
   26.1719  -20.5186  -10.5538 C   0  0  1  0  0  0  0  0  0  0  0  0
   24.7817  -20.1516  -10.3134 C   0  0  0  0  0  0  0  0  0  0  0  0
   23.8709  -20.8307  -11.2804 C   0  0  0  0  0  0  0  0  0  0  0  0
   22.4356  -20.5871  -11.0364 C   0  0  0  0  0  0  0  0  0  0  0  0
   21.8958  -19.6814  -10.1044 N   0  0  0  0  0  0  0  0  0  0  0  0
   20.5769  -19.7035  -10.1342 C   0  0  0  0  0  0  0  0  0  0  0  0
   20.2420  -20.6200  -11.0820 N   0  0  0  0  0  0  0  0  0  0  0  0
   21.3514  -21.1391  -11.6119 C   0  0  0  0  0  0  0  0  0  0  0  0
   24.4862  -20.6380   -8.9509 O   0  0  0  0  0  0  0  0  0  0  0  0
   23.7224  -19.8759   -8.0918 O   0  0  0  0  0  0  0  0  0  0  0  0
  1  2  1  0
  2  3  2  0
  4  5  1  0
  4  2  1  0
  6  5  1  0
  7  6  1  0
  8  7  1  0
  8  9  1  6
 10 12  1  0
 10  8  1  0
 11 10  2  0
 12 16  1  0
 13 14  1  0
 13 12  1  0
 14 15  1  0
 15 16  1  0
 16 17  1  6
 17 18  2  0
 19 20  1  0
 19 17  1  0
 20 27  1  0
 20 21  1  1
 22 21  1  0
 23 22  2  0
 24 25  1  0
 24 23  1  0
 25 26  2  0
 26 22  1  0
 27 29  2  0
 27 28  1  0
M  END
$$$$
