RPH.pdb
     RDKit          3D

 29 30  0  0  1  0  0  0  0  0999 V2000
   27.1286  -15.0117  -16.7187 N   0  0  0  0  0  0  0  0  0  0  0  0
   25.9342  -15.8091  -16.7739 C   0  0  0  0  0  0  0  0  0  0  0  0
   25.0897  -15.5483  -17.6881 N   0  0  0  0  0  0  0  0  0  0  0  0
   25.6978  -16.8538  -15.8434 N   0  0  0  0  0  0  0  0  0  0  0  0
   26.6735  -17.0975  -14.8084 C   0  0  0  0  0  0  0  0  0  0  0  0
   27.5704  -18.2743  -15.1527 C   0  0  0  0  0  0  0  0  0  0  0  0
   26.7548  -19.5150  -15.3741 C   0  0  0  0  0  0  0  0  0  0  0  0
   27.0378  -20.6056  -14.3279 C   0  0  2  0  0  0  0  0  0  0  0  0
   27.6483  -21.7471  -15.0397 N   0  0  0  0  0  0  0  0  0  0  0  0
   25.7499  -21.1181  -13.7527 C   0  0  0  0  0  0  0  0  0  0  0  0
   24.8906  -21.3825  -14.6533 O   0  0  0  0  0  0  0  0  0  0  0  0
   24.2032  -16.0530  -17.7943 N   0  0  0  0  0  0  0  0  0  0  0  0
   25.5420  -21.2798  -12.3780 C   0  0  0  0  0  0  0  0  0  0  0  0
   26.5128  -21.9358  -11.4891 C   0  0  0  0  0  0  0  0  0  0  0  0
   26.5178  -20.9877  -10.3174 C   0  0  0  0  0  0  0  0  0  0  0  0
   25.2322  -20.1956  -10.4098 C   0  0  2  0  0  0  0  0  0  0  0  0
   24.4743  -20.9765  -11.5126 C   0  0  0  0  0  0  0  0  0  0  0  0
   23.3282  -20.2203  -11.9769 O   0  0  0  0  0  0  0  0  0  0  0  0
   23.2895  -19.0736  -12.4177 N   0  0  0  0  0  0  0  0  0  0  0  0
   22.0560  -20.8969  -11.9176 C   0  0  1  0  0  0  0  0  0  0  0  0
   20.8193  -20.2375  -12.3187 C   0  0  0  0  0  0  0  0  0  0  0  0
   20.2374  -20.8781  -13.5340 C   0  0  0  0  0  0  0  0  0  0  0  0
   18.9423  -20.3109  -13.9583 C   0  0  0  0  0  0  0  0  0  0  0  0
   18.6727  -18.9510  -14.1997 N   0  0  0  0  0  0  0  0  0  0  0  0
   17.4170  -18.7764  -14.5649 C   0  0  0  0  0  0  0  0  0  0  0  0
   16.8547  -20.0150  -14.5661 N   0  0  0  0  0  0  0  0  0  0  0  0
   17.7674  -20.9193  -14.2048 C   0  0  0  0  0  0  0  0  0  0  0  0
   19.8953  -20.4308  -11.1834 O   0  0  0  0  0  0  0  0  0  0  0  0
   20.1302  -21.4266  -10.2585 O   0  0  0  0  0  0  0  0  0  0  0  0
  1  2  1  0
  2  3  2  0
  4  5  1  0
  4  2  1  0
  6  5  1  0
  7  6  1  0
  8  7  1  0
  8  9  1  6
 10 12  1  0
 10  8  1  0
 11 10  2  0
 12 16  1  0
 13 14  1  0
 13 12  1  0
 14 15  1  0
 15 16  1  0
 16 17  1  1
 17 18  2  0
 19 20  1  0
 19 17  1  0
 20 27  1  0
 20 21  1  1
 22 21  1  0
 23 22  2  0
 24 25  1  0
 24 23  1  0
 25 26  2  0
 26 22  1  0
 27 29  2  0
 27 28  1  0
M  END
$$$$
