RPH.pdb
     RDKit          3D

 29 30  0  0  1  0  0  0  0  0999 V2000
   25.0766  -28.6475  -19.8486 N   0  0  0  0  0  0  0  0  0  0  0  0
   25.7407  -29.6027  -19.0049 C   0  0  0  0  0  0  0  0  0  0  0  0
   26.1678  -30.6725  -19.5435 N   0  0  0  0  0  0  0  0  0  0  0  0
   25.9178  -29.3676  -17.6170 N   0  0  0  0  0  0  0  0  0  0  0  0
   25.7831  -28.0206  -17.1168 C   0  0  0  0  0  0  0  0  0  0  0  0
   25.5416  -27.0291  -18.2422 C   0  0  0  0  0  0  0  0  0  0  0  0
   25.2644  -25.6602  -17.6918 C   0  0  0  0  0  0  0  0  0  0  0  0
   26.5425  -24.9278  -17.2513 C   0  0  2  0  0  0  0  0  0  0  0  0
   27.3623  -25.8952  -16.4935 N   0  0  0  0  0  0  0  0  0  0  0  0
   26.2035  -23.8287  -16.2874 C   0  0  0  0  0  0  0  0  0  0  0  0
   25.7685  -24.2765  -15.1786 O   0  0  0  0  0  0  0  0  0  0  0  0
   26.5522  -31.4571  -19.0064 N   0  0  0  0  0  0  0  0  0  0  0  0
   26.3584  -22.4721  -16.5957 C   0  0  0  0  0  0  0  0  0  0  0  0
   27.5119  -21.9424  -17.3384 C   0  0  0  0  0  0  0  0  0  0  0  0
   26.8287  -21.0107  -18.3065 C   0  0  0  0  0  0  0  0  0  0  0  0
   25.4681  -20.7123  -17.7163 C   0  0  2  0  0  0  0  0  0  0  0  0
   25.6153  -21.3149  -16.2966 C   0  0  0  0  0  0  0  0  0  0  0  0
   24.3241  -21.4042  -15.6441 O   0  0  0  0  0  0  0  0  0  0  0  0
   23.3862  -22.1587  -15.8927 N   0  0  0  0  0  0  0  0  0  0  0  0
   24.1000  -20.4873  -14.5538 C   0  0  1  0  0  0  0  0  0  0  0  0
   22.8304  -20.4447  -13.8386 C   0  0  0  0  0  0  0  0  0  0  0  0
   23.0112  -19.9264  -12.4513 C   0  0  0  0  0  0  0  0  0  0  0  0
   23.9160  -20.7375  -11.6132 C   0  0  0  0  0  0  0  0  0  0  0  0
   24.5258  -21.9498  -11.9857 N   0  0  0  0  0  0  0  0  0  0  0  0
   25.2759  -22.4208  -11.0077 C   0  0  0  0  0  0  0  0  0  0  0  0
   25.1649  -21.5252   -9.9900 N   0  0  0  0  0  0  0  0  0  0  0  0
   24.3559  -20.5297  -10.3583 C   0  0  0  0  0  0  0  0  0  0  0  0
   21.9919  -19.4979  -14.6007 O   0  0  0  0  0  0  0  0  0  0  0  0
   20.6241  -19.4845  -14.4246 O   0  0  0  0  0  0  0  0  0  0  0  0
  1  2  1  0
  2  3  2  0
  4  5  1  0
  4  2  1  0
  6  5  1  0
  7  6  1  0
  8  7  1  0
  8  9  1  1
 10 12  1  0
 10  8  1  0
 11 10  2  0
 12 16  1  0
 13 14  1  0
 13 12  1  0
 14 15  1  0
 15 16  1  0
 16 17  1  6
 17 18  2  0
 19 20  1  0
 19 17  1  0
 20 27  1  0
 20 21  1  1
 22 21  1  0
 23 22  2  0
 24 25  1  0
 24 23  1  0
 25 26  2  0
 26 22  1  0
 27 29  2  0
 27 28  1  0
M  END
$$$$
