RPH.pdb
     RDKit          3D

 29 30  0  0  1  0  0  0  0  0999 V2000
   20.8855   -9.2791  -21.5321 N   0  0  0  0  0  0  0  0  0  0  0  0
   20.3653   -9.8389  -20.3149 C   0  0  0  0  0  0  0  0  0  0  0  0
   19.2461   -9.4057  -19.8947 N   0  0  0  0  0  0  0  0  0  0  0  0
   21.0707  -10.8413  -19.6004 N   0  0  0  0  0  0  0  0  0  0  0  0
   21.8368  -11.8147  -20.3409 C   0  0  0  0  0  0  0  0  0  0  0  0
   22.4565  -12.8536  -19.4218 C   0  0  0  0  0  0  0  0  0  0  0  0
   23.8166  -12.4126  -18.9647 C   0  0  0  0  0  0  0  0  0  0  0  0
   24.0937  -12.7707  -17.4953 C   0  0  2  0  0  0  0  0  0  0  0  0
   23.1313  -13.8241  -17.1125 N   0  0  0  0  0  0  0  0  0  0  0  0
   23.7946  -11.5960  -16.6107 C   0  0  0  0  0  0  0  0  0  0  0  0
   22.5452  -11.3808  -16.5005 O   0  0  0  0  0  0  0  0  0  0  0  0
   18.7828   -9.7689  -19.0550 N   0  0  0  0  0  0  0  0  0  0  0  0
   24.7936  -10.8395  -15.9872 C   0  0  0  0  0  0  0  0  0  0  0  0
   26.0022  -11.4338  -15.3964 C   0  0  0  0  0  0  0  0  0  0  0  0
   27.0645  -10.4928  -15.9044 C   0  0  0  0  0  0  0  0  0  0  0  0
   26.3491   -9.2161  -16.2878 C   0  0  2  0  0  0  0  0  0  0  0  0
   24.9395   -9.4700  -15.6972 C   0  0  0  0  0  0  0  0  0  0  0  0
   23.9924   -8.4950  -16.2005 O   0  0  0  0  0  0  0  0  0  0  0  0
   23.6516   -8.2807  -17.3618 N   0  0  0  0  0  0  0  0  0  0  0  0
   23.3587   -7.6578  -15.2119 C   0  0  1  0  0  0  0  0  0  0  0  0
   22.3121   -6.7085  -15.5706 C   0  0  0  0  0  0  0  0  0  0  0  0
   21.0842   -6.9264  -14.7517 C   0  0  0  0  0  0  0  0  0  0  0  0
   20.4176   -8.2218  -14.9894 C   0  0  0  0  0  0  0  0  0  0  0  0
   20.2567   -8.8542  -16.2362 N   0  0  0  0  0  0  0  0  0  0  0  0
   19.6172  -10.0008  -16.1047 C   0  0  0  0  0  0  0  0  0  0  0  0
   19.3545  -10.1295  -14.7764 N   0  0  0  0  0  0  0  0  0  0  0  0
   19.8332   -9.0692  -14.1224 C   0  0  0  0  0  0  0  0  0  0  0  0
   22.8731   -5.3801  -15.2529 O   0  0  0  0  0  0  0  0  0  0  0  0
   22.1678   -4.2362  -15.5630 O   0  0  0  0  0  0  0  0  0  0  0  0
  1  2  1  0
  2  3  2  0
  4  5  1  0
  4  2  1  0
  6  5  1  0
  7  6  1  0
  8  7  1  0
  8  9  1  1
 10 12  1  0
 10  8  1  0
 11 10  2  0
 12 16  1  0
 13 14  1  0
 13 12  1  0
 14 15  1  0
 15 16  1  0
 16 17  1  6
 17 18  2  0
 19 20  1  0
 19 17  1  0
 20 27  1  0
 20 21  1  6
 22 21  1  0
 23 22  2  0
 24 25  1  0
 24 23  1  0
 25 26  2  0
 26 22  1  0
 27 29  2  0
 27 28  1  0
M  END
$$$$
