RPH.pdb
     RDKit          3D

 29 30  0  0  1  0  0  0  0  0999 V2000
   25.9047  -16.9425  -18.5539 N   0  0  0  0  0  0  0  0  0  0  0  0
   26.0300  -17.0609  -19.9807 C   0  0  0  0  0  0  0  0  0  0  0  0
   25.6020  -16.0996  -20.6946 N   0  0  0  0  0  0  0  0  0  0  0  0
   26.6103  -18.2084  -20.5803 N   0  0  0  0  0  0  0  0  0  0  0  0
   27.2148  -19.2064  -19.7312 C   0  0  0  0  0  0  0  0  0  0  0  0
   26.1957  -20.2298  -19.2600 C   0  0  0  0  0  0  0  0  0  0  0  0
   26.8037  -21.1552  -18.2463 C   0  0  0  0  0  0  0  0  0  0  0  0
   27.2445  -20.4260  -16.9664 C   0  0  2  0  0  0  0  0  0  0  0  0
   27.8624  -21.4331  -16.0796 N   0  0  0  0  0  0  0  0  0  0  0  0
   26.0462  -19.9050  -16.2285 C   0  0  0  0  0  0  0  0  0  0  0  0
   25.1255  -20.7775  -16.1261 O   0  0  0  0  0  0  0  0  0  0  0  0
   25.7111  -16.0650  -21.7137 N   0  0  0  0  0  0  0  0  0  0  0  0
   25.9736  -18.6034  -15.7186 C   0  0  0  0  0  0  0  0  0  0  0  0
   27.1584  -17.8271  -15.3229 C   0  0  0  0  0  0  0  0  0  0  0  0
   26.8421  -16.4862  -15.9343 C   0  0  0  0  0  0  0  0  0  0  0  0
   25.3471  -16.4696  -16.1654 C   0  0  2  0  0  0  0  0  0  0  0  0
   24.9082  -17.7417  -15.3975 C   0  0  0  0  0  0  0  0  0  0  0  0
   23.5404  -18.0900  -15.7274 O   0  0  0  0  0  0  0  0  0  0  0  0
   23.0369  -18.2691  -16.8343 N   0  0  0  0  0  0  0  0  0  0  0  0
   22.6404  -18.2504  -14.6120 C   0  0  2  0  0  0  0  0  0  0  0  0
   21.2383  -18.5998  -14.8044 C   0  0  0  0  0  0  0  0  0  0  0  0
   20.5777  -18.9112  -13.5035 C   0  0  0  0  0  0  0  0  0  0  0  0
   19.1341  -19.2008  -13.6093 C   0  0  0  0  0  0  0  0  0  0  0  0
   18.5554  -20.2923  -14.2831 N   0  0  0  0  0  0  0  0  0  0  0  0
   17.2398  -20.2615  -14.1887 C   0  0  0  0  0  0  0  0  0  0  0  0
   16.9457  -19.1542  -13.4554 N   0  0  0  0  0  0  0  0  0  0  0  0
   18.0761  -18.5311  -13.1160 C   0  0  0  0  0  0  0  0  0  0  0  0
   20.6171  -17.3914  -15.3825 O   0  0  0  0  0  0  0  0  0  0  0  0
   21.0593  -16.1386  -15.0125 O   0  0  0  0  0  0  0  0  0  0  0  0
  1  2  1  0
  2  3  2  0
  4  5  1  0
  4  2  1  0
  6  5  1  0
  7  6  1  0
  8  7  1  0
  8  9  1  1
 10 12  1  0
 10  8  1  0
 11 10  2  0
 12 16  1  0
 13 14  1  0
 13 12  1  0
 14 15  1  0
 15 16  1  0
 16 17  1  1
 17 18  2  0
 19 20  1  0
 19 17  1  0
 20 27  1  0
 20 21  1  6
 22 21  1  0
 23 22  2  0
 24 25  1  0
 24 23  1  0
 25 26  2  0
 26 22  1  0
 27 29  2  0
 27 28  1  0
M  END
$$$$
