RPH.pdb
     RDKit          3D

 29 30  0  0  1  0  0  0  0  0999 V2000
   32.0791  -22.4888  -20.0701 N   0  0  0  0  0  0  0  0  0  0  0  0
   30.9989  -23.4009  -19.8117 C   0  0  0  0  0  0  0  0  0  0  0  0
   31.2580  -24.4519  -19.1443 N   0  0  0  0  0  0  0  0  0  0  0  0
   29.6850  -23.1447  -20.2817 N   0  0  0  0  0  0  0  0  0  0  0  0
   28.6648  -22.7773  -19.3294 C   0  0  0  0  0  0  0  0  0  0  0  0
   28.3981  -21.2818  -19.3463 C   0  0  0  0  0  0  0  0  0  0  0  0
   27.1921  -20.9493  -18.5166 C   0  0  0  0  0  0  0  0  0  0  0  0
   27.4381  -21.1367  -17.0104 C   0  0  2  0  0  0  0  0  0  0  0  0
   27.4949  -22.5904  -16.7537 N   0  0  0  0  0  0  0  0  0  0  0  0
   26.2657  -20.6239  -16.2265 C   0  0  0  0  0  0  0  0  0  0  0  0
   25.2691  -21.4136  -16.2767 O   0  0  0  0  0  0  0  0  0  0  0  0
   30.5813  -25.2097  -19.0050 N   0  0  0  0  0  0  0  0  0  0  0  0
   26.2904  -19.4122  -15.5262 C   0  0  0  0  0  0  0  0  0  0  0  0
   27.4806  -18.9154  -14.8195 C   0  0  0  0  0  0  0  0  0  0  0  0
   27.4849  -17.4689  -15.2429 C   0  0  0  0  0  0  0  0  0  0  0  0
   26.0788  -17.1611  -15.7085 C   0  0  2  0  0  0  0  0  0  0  0  0
   25.3218  -18.4308  -15.2445 C   0  0  0  0  0  0  0  0  0  0  0  0
   24.0042  -18.4873  -15.8460 O   0  0  0  0  0  0  0  0  0  0  0  0
   23.7017  -18.5075  -17.0371 N   0  0  0  0  0  0  0  0  0  0  0  0
   22.8905  -18.5256  -14.9306 C   0  0  1  0  0  0  0  0  0  0  0  0
   21.5121  -18.5611  -15.4038 C   0  0  0  0  0  0  0  0  0  0  0  0
   20.5875  -19.0347  -14.3330 C   0  0  0  0  0  0  0  0  0  0  0  0
   19.1590  -18.9945  -14.7027 C   0  0  0  0  0  0  0  0  0  0  0  0
   18.6369  -18.6088  -15.9513 N   0  0  0  0  0  0  0  0  0  0  0  0
   17.3197  -18.6839  -15.9557 C   0  0  0  0  0  0  0  0  0  0  0  0
   16.9681  -19.1176  -14.7153 N   0  0  0  0  0  0  0  0  0  0  0  0
   18.0661  -19.2992  -13.9787 C   0  0  0  0  0  0  0  0  0  0  0  0
   21.1845  -17.1606  -15.7378 O   0  0  0  0  0  0  0  0  0  0  0  0
   20.3805  -16.8749  -16.8214 O   0  0  0  0  0  0  0  0  0  0  0  0
  1  2  1  0
  2  3  2  0
  4  5  1  0
  4  2  1  0
  6  5  1  0
  7  6  1  0
  8  7  1  0
  8  9  1  6
 10 12  1  0
 10  8  1  0
 11 10  2  0
 12 16  1  0
 13 14  1  0
 13 12  1  0
 14 15  1  0
 15 16  1  0
 16 17  1  6
 17 18  2  0
 19 20  1  0
 19 17  1  0
 20 27  1  0
 20 21  1  6
 22 21  1  0
 23 22  2  0
 24 25  1  0
 24 23  1  0
 25 26  2  0
 26 22  1  0
 27 29  2  0
 27 28  1  0
M  END
$$$$
