SIR.pdb
     RDKit          3D

 26 25  0  0  1  0  0  0  0  0999 V2000
    6.1555  -17.3154   20.1970 O   0  0  0  0  0  0  0  0  0  0  0  0
    6.7097  -16.7787   21.3576 C   0  0  0  0  0  0  0  0  0  0  0  0
    6.9620  -15.3086   21.1190 C   0  0  2  0  0  0  0  0  0  0  0  0
    7.6823  -15.1623   19.8793 N   0  0  0  0  0  0  0  0  0  0  0  0
    7.7793  -14.7123   22.2226 C   0  0  0  0  0  0  0  0  0  0  0  0
    8.9701  -14.4602   21.9470 O   0  0  0  0  0  0  0  0  0  0  0  0
    6.7707  -11.1727   27.1456 C   0  0  0  0  0  0  0  0  0  0  0  0
    7.6910  -12.1528   26.4683 C   0  0  0  0  0  0  0  0  0  0  0  0
    6.9900  -12.8411   25.3028 C   0  0  2  0  0  0  0  0  0  0  0  0
    5.8048  -13.6352   25.8560 C   0  0  0  0  0  0  0  0  0  0  0  0
    7.9258  -13.7806   24.5906 C   0  0  2  0  0  0  0  0  0  0  0  0
    7.2575  -14.4495   23.4829 N   0  0  0  0  0  0  0  0  0  0  0  0
    8.4338  -14.8230   25.5055 C   0  0  0  0  0  0  0  0  0  0  0  0
    9.1580  -14.4475   26.5159 O   0  0  0  0  0  0  0  0  0  0  0  0
   12.0289  -19.5763   21.3244 N   0  0  0  0  0  0  0  0  0  0  0  0
   12.9903  -19.9060   22.3167 C   0  0  0  0  0  0  0  0  0  0  0  0
   13.6545  -21.0214   22.2902 N   0  0  0  0  0  0  0  0  0  0  0  0
   13.2217  -18.9826   23.3602 N   0  0  0  0  0  0  0  0  0  0  0  0
   12.4761  -17.7329   23.4690 C   0  0  0  0  0  0  0  0  0  0  0  0
   11.5020  -17.8587   24.6554 C   0  0  0  0  0  0  0  0  0  0  0  0
   10.3025  -17.0102   24.4615 C   0  0  0  0  0  0  0  0  0  0  0  0
    9.3500  -17.1419   25.6163 C   0  0  2  0  0  0  0  0  0  0  0  0
    8.2149  -16.2099   25.4138 N   0  0  0  0  0  0  0  0  0  0  0  0
    9.9570  -16.8935   26.9423 C   0  0  0  0  0  0  0  0  0  0  0  0
    9.9583  -17.8882   27.9424 O   0  0  0  0  0  0  0  0  0  0  0  0
   10.4986  -15.8051   27.2586 O   0  0  0  0  0  0  0  0  0  0  0  0
  2  1  1  0
  3  2  1  0
  3  4  1  6
  5  3  1  0
  6  5  2  0
  7  8  1  0
  8  9  1  0
  9 10  1  1
  9 11  1  0
 11 12  1  6
 12  5  1  0
 13 11  1  0
 13 14  2  0
 16 15  1  0
 17 16  2  0
 18 16  1  0
 19 18  1  0
 20 21  1  0
 20 19  1  0
 22 21  1  6
 22 23  1  0
 23 13  1  0
 24 22  1  0
 25 24  1  0
 26 24  2  0
M  END
$$$$
