SIR.pdb
     RDKit          3D

 26 25  0  0  1  0  0  0  0  0999 V2000
    7.7696  -15.7809   20.5475 O   0  0  0  0  0  0  0  0  0  0  0  0
    6.7407  -14.8834   20.2686 C   0  0  0  0  0  0  0  0  0  0  0  0
    7.2695  -13.4846   20.4820 C   0  0  2  0  0  0  0  0  0  0  0  0
    8.1750  -13.1677   19.4066 N   0  0  0  0  0  0  0  0  0  0  0  0
    8.0082  -13.3761   21.7797 C   0  0  0  0  0  0  0  0  0  0  0  0
    9.2263  -13.1177   21.6960 O   0  0  0  0  0  0  0  0  0  0  0  0
    6.9030  -11.5225   27.3736 C   0  0  0  0  0  0  0  0  0  0  0  0
    7.5121  -12.7288   26.7104 C   0  0  0  0  0  0  0  0  0  0  0  0
    6.9042  -12.9562   25.3311 C   0  0  2  0  0  0  0  0  0  0  0  0
    5.8971  -14.1037   25.4330 C   0  0  0  0  0  0  0  0  0  0  0  0
    7.9662  -13.3178   24.3276 C   0  0  2  0  0  0  0  0  0  0  0  0
    7.3888  -13.5498   23.0109 N   0  0  0  0  0  0  0  0  0  0  0  0
    8.6827  -14.5460   24.7278 C   0  0  0  0  0  0  0  0  0  0  0  0
    9.2926  -14.5501   25.8743 O   0  0  0  0  0  0  0  0  0  0  0  0
   13.2051  -16.2068   19.1636 N   0  0  0  0  0  0  0  0  0  0  0  0
   12.8690  -15.3751   20.2649 C   0  0  0  0  0  0  0  0  0  0  0  0
   13.4114  -14.2082   20.4390 N   0  0  0  0  0  0  0  0  0  0  0  0
   11.9131  -15.8439   21.1932 N   0  0  0  0  0  0  0  0  0  0  0  0
   11.4080  -17.2127   21.1613 C   0  0  0  0  0  0  0  0  0  0  0  0
   10.2686  -17.3262   22.1913 C   0  0  0  0  0  0  0  0  0  0  0  0
   10.7600  -17.0863   23.5688 C   0  0  0  0  0  0  0  0  0  0  0  0
    9.6208  -16.8493   24.5197 C   0  0  2  0  0  0  0  0  0  0  0  0
    8.7795  -15.7453   23.9986 N   0  0  0  0  0  0  0  0  0  0  0  0
   10.0344  -16.5376   25.9054 C   0  0  0  0  0  0  0  0  0  0  0  0
   10.6536  -17.5097   26.7185 O   0  0  0  0  0  0  0  0  0  0  0  0
    9.8650  -15.4125   26.4379 O   0  0  0  0  0  0  0  0  0  0  0  0
  2  1  1  0
  3  2  1  0
  3  4  1  6
  5  3  1  0
  6  5  2  0
  7  8  1  0
  8  9  1  0
  9 10  1  1
  9 11  1  0
 11 12  1  6
 12  5  1  0
 13 11  1  0
 13 14  2  0
 16 15  1  0
 17 16  2  0
 18 16  1  0
 19 18  1  0
 20 21  1  0
 20 19  1  0
 22 21  1  6
 22 23  1  0
 23 13  1  0
 24 22  1  0
 25 24  1  0
 26 24  2  0
M  END
$$$$
