SIR.pdb
     RDKit          3D

 26 25  0  0  1  0  0  0  0  0999 V2000
    9.2581  -19.8911   19.2895 O   0  0  0  0  0  0  0  0  0  0  0  0
    8.0487  -19.2482   19.0321 C   0  0  0  0  0  0  0  0  0  0  0  0
    8.3365  -18.0337   18.1813 C   0  0  2  0  0  0  0  0  0  0  0  0
    9.3280  -18.3877   17.1971 N   0  0  0  0  0  0  0  0  0  0  0  0
    8.8642  -16.9037   19.0098 C   0  0  0  0  0  0  0  0  0  0  0  0
   10.0980  -16.7212   18.9640 O   0  0  0  0  0  0  0  0  0  0  0  0
    7.8622  -12.4314   19.5925 C   0  0  0  0  0  0  0  0  0  0  0  0
    6.8012  -13.3994   20.0434 C   0  0  0  0  0  0  0  0  0  0  0  0
    7.3001  -14.2512   21.2050 C   0  0  2  0  0  0  0  0  0  0  0  0
    7.7572  -13.3151   22.3258 C   0  0  0  0  0  0  0  0  0  0  0  0
    8.4564  -15.1163   20.7805 C   0  0  2  0  0  0  0  0  0  0  0  0
    8.0424  -16.0980   19.7877 N   0  0  0  0  0  0  0  0  0  0  0  0
    9.0239  -15.8502   21.9300 C   0  0  0  0  0  0  0  0  0  0  0  0
    8.2320  -16.6198   22.6133 O   0  0  0  0  0  0  0  0  0  0  0  0
   11.7721  -23.3240   22.2806 N   0  0  0  0  0  0  0  0  0  0  0  0
   12.0584  -22.9161   23.6107 C   0  0  0  0  0  0  0  0  0  0  0  0
   12.5007  -23.7454   24.5066 N   0  0  0  0  0  0  0  0  0  0  0  0
   11.8508  -21.5625   23.9571 N   0  0  0  0  0  0  0  0  0  0  0  0
   11.1820  -20.6263   23.0594 C   0  0  0  0  0  0  0  0  0  0  0  0
   11.2800  -19.2187   23.6767 C   0  0  0  0  0  0  0  0  0  0  0  0
   10.7276  -18.1894   22.7646 C   0  0  0  0  0  0  0  0  0  0  0  0
   10.8139  -16.8188   23.3745 C   0  0  2  0  0  0  0  0  0  0  0  0
   10.3567  -15.8188   22.3799 N   0  0  0  0  0  0  0  0  0  0  0  0
   12.1618  -16.4474   23.8581 C   0  0  0  0  0  0  0  0  0  0  0  0
   12.9279  -15.4628   23.1998 O   0  0  0  0  0  0  0  0  0  0  0  0
   12.7014  -16.9725   24.8637 O   0  0  0  0  0  0  0  0  0  0  0  0
  2  1  1  0
  3  2  1  0
  3  4  1  6
  5  3  1  0
  6  5  2  0
  7  8  1  0
  8  9  1  0
  9 10  1  1
  9 11  1  0
 11 12  1  6
 12  5  1  0
 13 11  1  0
 13 14  2  0
 16 15  1  0
 17 16  2  0
 18 16  1  0
 19 18  1  0
 20 21  1  0
 20 19  1  0
 22 21  1  6
 22 23  1  0
 23 13  1  0
 24 22  1  0
 25 24  1  0
 26 24  2  0
M  END
$$$$
