SIR.pdb
     RDKit          3D

 26 25  0  0  1  0  0  0  0  0999 V2000
    9.0495  -19.3168   26.7517 O   0  0  0  0  0  0  0  0  0  0  0  0
    8.6367  -18.7401   27.9513 C   0  0  0  0  0  0  0  0  0  0  0  0
    7.1684  -18.4070   27.8293 C   0  0  2  0  0  0  0  0  0  0  0  0
    6.4360  -19.6312   27.6241 N   0  0  0  0  0  0  0  0  0  0  0  0
    6.9135  -17.4948   26.6699 C   0  0  0  0  0  0  0  0  0  0  0  0
    6.2639  -17.9824   25.7223 O   0  0  0  0  0  0  0  0  0  0  0  0
    6.5906  -12.0798   27.5847 C   0  0  0  0  0  0  0  0  0  0  0  0
    6.2920  -13.4007   26.9274 C   0  0  0  0  0  0  0  0  0  0  0  0
    7.4332  -13.8214   26.0086 C   0  0  2  0  0  0  0  0  0  0  0  0
    7.4476  -12.8835   24.7996 C   0  0  0  0  0  0  0  0  0  0  0  0
    7.2481  -15.2377   25.5338 C   0  0  2  0  0  0  0  0  0  0  0  0
    7.3664  -16.1820   26.6362 N   0  0  0  0  0  0  0  0  0  0  0  0
    8.2618  -15.5981   24.5216 C   0  0  0  0  0  0  0  0  0  0  0  0
    9.4105  -16.0374   24.9384 O   0  0  0  0  0  0  0  0  0  0  0  0
    7.5240  -14.2460   17.3912 N   0  0  0  0  0  0  0  0  0  0  0  0
    8.5469  -13.4569   17.9817 C   0  0  0  0  0  0  0  0  0  0  0  0
    8.4509  -12.1659   18.0824 N   0  0  0  0  0  0  0  0  0  0  0  0
    9.7001  -14.1095   18.4711 N   0  0  0  0  0  0  0  0  0  0  0  0
    9.8154  -15.5640   18.4971 C   0  0  0  0  0  0  0  0  0  0  0  0
   10.0779  -15.9971   19.9516 C   0  0  0  0  0  0  0  0  0  0  0  0
    8.9660  -15.5931   20.8444 C   0  0  0  0  0  0  0  0  0  0  0  0
    9.2102  -16.0446   22.2567 C   0  0  2  0  0  0  0  0  0  0  0  0
    8.1245  -15.5263   23.1231 N   0  0  0  0  0  0  0  0  0  0  0  0
   10.5183  -15.6353   22.8131 C   0  0  0  0  0  0  0  0  0  0  0  0
   11.6351  -16.4953   22.7608 O   0  0  0  0  0  0  0  0  0  0  0  0
   10.7168  -14.5205   23.3570 O   0  0  0  0  0  0  0  0  0  0  0  0
  2  1  1  0
  3  2  1  0
  3  4  1  6
  5  3  1  0
  6  5  2  0
  7  8  1  0
  8  9  1  0
  9 10  1  6
  9 11  1  0
 11 12  1  1
 12  5  1  0
 13 11  1  0
 13 14  2  0
 16 15  1  0
 17 16  2  0
 18 16  1  0
 19 18  1  0
 20 21  1  0
 20 19  1  0
 22 21  1  6
 22 23  1  0
 23 13  1  0
 24 22  1  0
 25 24  1  0
 26 24  2  0
M  END
$$$$
