SIR.pdb
     RDKit          3D

 26 25  0  0  1  0  0  0  0  0999 V2000
    6.0011  -16.9677   20.1772 O   0  0  0  0  0  0  0  0  0  0  0  0
    5.9065  -16.4356   21.4617 C   0  0  0  0  0  0  0  0  0  0  0  0
    6.1694  -14.9507   21.3734 C   0  0  2  0  0  0  0  0  0  0  0  0
    6.6403  -14.6465   20.0457 N   0  0  0  0  0  0  0  0  0  0  0  0
    7.2102  -14.5244   22.3616 C   0  0  0  0  0  0  0  0  0  0  0  0
    8.3823  -14.4767   21.9357 O   0  0  0  0  0  0  0  0  0  0  0  0
    5.4622  -11.4378   26.4610 C   0  0  0  0  0  0  0  0  0  0  0  0
    6.5416  -11.8582   25.4997 C   0  0  0  0  0  0  0  0  0  0  0  0
    7.1305  -13.2065   25.8987 C   0  0  2  0  0  0  0  0  0  0  0  0
    8.1300  -12.9772   27.0345 C   0  0  0  0  0  0  0  0  0  0  0  0
    7.8403  -13.8490   24.7372 C   0  0  2  0  0  0  0  0  0  0  0  0
    6.9050  -14.1982   23.6770 N   0  0  0  0  0  0  0  0  0  0  0  0
    8.5321  -15.0862   25.1529 C   0  0  0  0  0  0  0  0  0  0  0  0
    7.8047  -16.1066   25.4938 O   0  0  0  0  0  0  0  0  0  0  0  0
   15.2479  -19.0183   21.1359 N   0  0  0  0  0  0  0  0  0  0  0  0
   14.7318  -19.9721   22.0533 C   0  0  0  0  0  0  0  0  0  0  0  0
   15.1182  -21.2117   22.0500 N   0  0  0  0  0  0  0  0  0  0  0  0
   13.7681  -19.5458   22.9939 N   0  0  0  0  0  0  0  0  0  0  0  0
   13.2345  -18.1875   22.9957 C   0  0  0  0  0  0  0  0  0  0  0  0
   12.1301  -18.1088   24.0663 C   0  0  0  0  0  0  0  0  0  0  0  0
   11.5467  -16.7485   24.1414 C   0  0  0  0  0  0  0  0  0  0  0  0
   10.4511  -16.6819   25.1676 C   0  0  2  0  0  0  0  0  0  0  0  0
    9.9215  -15.2980   25.2185 N   0  0  0  0  0  0  0  0  0  0  0  0
   10.8586  -17.1004   26.5267 C   0  0  0  0  0  0  0  0  0  0  0  0
   10.9413  -16.1694   27.5832 O   0  0  0  0  0  0  0  0  0  0  0  0
   11.1518  -18.2854   26.8234 O   0  0  0  0  0  0  0  0  0  0  0  0
  2  1  1  0
  3  2  1  0
  3  4  1  6
  5  3  1  0
  6  5  2  0
  7  8  1  0
  8  9  1  0
  9 10  1  1
  9 11  1  0
 11 12  1  6
 12  5  1  0
 13 11  1  0
 13 14  2  0
 16 15  1  0
 17 16  2  0
 18 16  1  0
 19 18  1  0
 20 21  1  0
 20 19  1  0
 22 21  1  6
 22 23  1  0
 23 13  1  0
 24 22  1  0
 25 24  1  0
 26 24  2  0
M  END
$$$$
