SIR.pdb
     RDKit          3D

 26 25  0  0  1  0  0  0  0  0999 V2000
    8.0679  -19.1622   20.8117 O   0  0  0  0  0  0  0  0  0  0  0  0
    7.3604  -19.1772   19.6111 C   0  0  0  0  0  0  0  0  0  0  0  0
    7.8906  -18.0615   18.7418 C   0  0  2  0  0  0  0  0  0  0  0  0
    8.9494  -18.5865   17.9169 N   0  0  0  0  0  0  0  0  0  0  0  0
    8.4380  -16.9413   19.5707 C   0  0  0  0  0  0  0  0  0  0  0  0
    9.6564  -17.0006   19.8348 O   0  0  0  0  0  0  0  0  0  0  0  0
    8.3264  -12.4418   19.0672 C   0  0  0  0  0  0  0  0  0  0  0  0
    7.0040  -13.0536   19.4456 C   0  0  0  0  0  0  0  0  0  0  0  0
    7.0664  -13.6636   20.8412 C   0  0  2  0  0  0  0  0  0  0  0  0
    7.4973  -12.5726   21.8238 C   0  0  0  0  0  0  0  0  0  0  0  0
    8.0590  -14.7941   20.8908 C   0  0  2  0  0  0  0  0  0  0  0  0
    7.6497  -15.8920   20.0258 N   0  0  0  0  0  0  0  0  0  0  0  0
    8.1928  -15.3270   22.2620 C   0  0  0  0  0  0  0  0  0  0  0  0
    7.1068  -15.5494   22.9385 O   0  0  0  0  0  0  0  0  0  0  0  0
    7.7420  -22.2179   26.5590 N   0  0  0  0  0  0  0  0  0  0  0  0
    7.0961  -21.1559   27.2463 C   0  0  0  0  0  0  0  0  0  0  0  0
    6.4223  -21.3501   28.3392 N   0  0  0  0  0  0  0  0  0  0  0  0
    7.1974  -19.8516   26.7135 N   0  0  0  0  0  0  0  0  0  0  0  0
    7.8367  -19.5866   25.4287 C   0  0  0  0  0  0  0  0  0  0  0  0
    8.5543  -18.2271   25.5228 C   0  0  0  0  0  0  0  0  0  0  0  0
    8.5428  -17.5191   24.2208 C   0  0  0  0  0  0  0  0  0  0  0  0
    9.3254  -16.2382   24.2907 C   0  0  2  0  0  0  0  0  0  0  0  0
    9.3878  -15.6368   22.9370 N   0  0  0  0  0  0  0  0  0  0  0  0
   10.6971  -16.3868   24.8242 C   0  0  0  0  0  0  0  0  0  0  0  0
   10.9276  -16.5774   26.2027 O   0  0  0  0  0  0  0  0  0  0  0  0
   11.7243  -16.3534   24.1018 O   0  0  0  0  0  0  0  0  0  0  0  0
  2  1  1  0
  3  2  1  0
  3  4  1  6
  5  3  1  0
  6  5  2  0
  7  8  1  0
  8  9  1  0
  9 10  1  1
  9 11  1  0
 11 12  1  6
 12  5  1  0
 13 11  1  0
 13 14  2  0
 16 15  1  0
 17 16  2  0
 18 16  1  0
 19 18  1  0
 20 21  1  0
 20 19  1  0
 22 21  1  6
 22 23  1  0
 23 13  1  0
 24 22  1  0
 25 24  1  0
 26 24  2  0
M  END
$$$$
