SIR.pdb
     RDKit          3D

 26 25  0  0  1  0  0  0  0  0999 V2000
    7.6117  -17.5842   20.6982 O   0  0  0  0  0  0  0  0  0  0  0  0
    6.9372  -16.4538   21.1557 C   0  0  0  0  0  0  0  0  0  0  0  0
    7.8791  -15.2767   21.0606 C   0  0  2  0  0  0  0  0  0  0  0  0
    8.9802  -15.6385   20.2040 N   0  0  0  0  0  0  0  0  0  0  0  0
    8.4196  -14.9042   22.4062 C   0  0  0  0  0  0  0  0  0  0  0  0
    9.5379  -15.3760   22.6965 O   0  0  0  0  0  0  0  0  0  0  0  0
    6.8360  -11.1506   27.1584 C   0  0  0  0  0  0  0  0  0  0  0  0
    7.6751  -12.2795   26.6219 C   0  0  0  0  0  0  0  0  0  0  0  0
    7.2240  -12.6740   25.2202 C   0  0  2  0  0  0  0  0  0  0  0  0
    5.7747  -13.1584   25.3003 C   0  0  0  0  0  0  0  0  0  0  0  0
    8.0850  -13.7784   24.6684 C   0  0  2  0  0  0  0  0  0  0  0  0
    7.7295  -14.0837   23.2895 N   0  0  0  0  0  0  0  0  0  0  0  0
    7.9335  -15.0180   25.4573 C   0  0  0  0  0  0  0  0  0  0  0  0
    6.8597  -15.7264   25.2800 O   0  0  0  0  0  0  0  0  0  0  0  0
    6.6523  -21.5694   25.0818 N   0  0  0  0  0  0  0  0  0  0  0  0
    7.8792  -22.1983   25.4236 C   0  0  0  0  0  0  0  0  0  0  0  0
    7.9208  -23.3497   26.0226 N   0  0  0  0  0  0  0  0  0  0  0  0
    9.0852  -21.5400   25.0961 N   0  0  0  0  0  0  0  0  0  0  0  0
    9.1160  -20.1433   24.6740 C   0  0  0  0  0  0  0  0  0  0  0  0
    8.8722  -19.2633   25.9143 C   0  0  0  0  0  0  0  0  0  0  0  0
    8.8966  -17.8226   25.5674 C   0  0  0  0  0  0  0  0  0  0  0  0
    8.7435  -16.9652   26.7919 C   0  0  2  0  0  0  0  0  0  0  0  0
    8.8413  -15.5393   26.3975 N   0  0  0  0  0  0  0  0  0  0  0  0
    9.7252  -17.2454   27.8625 C   0  0  0  0  0  0  0  0  0  0  0  0
   10.7883  -16.3574   28.1288 O   0  0  0  0  0  0  0  0  0  0  0  0
    9.6788  -18.2695   28.5886 O   0  0  0  0  0  0  0  0  0  0  0  0
  2  1  1  0
  3  2  1  0
  3  4  1  6
  5  3  1  0
  6  5  2  0
  7  8  1  0
  8  9  1  0
  9 10  1  1
  9 11  1  0
 11 12  1  6
 12  5  1  0
 13 11  1  0
 13 14  2  0
 16 15  1  0
 17 16  2  0
 18 16  1  0
 19 18  1  0
 20 21  1  0
 20 19  1  0
 22 21  1  6
 22 23  1  0
 23 13  1  0
 24 22  1  0
 25 24  1  0
 26 24  2  0
M  END
$$$$
