SIR.pdb
     RDKit          3D

 26 25  0  0  1  0  0  0  0  0999 V2000
    6.0551  -15.3359   19.4316 O   0  0  0  0  0  0  0  0  0  0  0  0
    6.7994  -15.2878   20.6088 C   0  0  0  0  0  0  0  0  0  0  0  0
    6.9285  -13.8406   21.0218 C   0  0  2  0  0  0  0  0  0  0  0  0
    7.5318  -13.1066   19.9381 N   0  0  0  0  0  0  0  0  0  0  0  0
    7.7909  -13.6981   22.2373 C   0  0  0  0  0  0  0  0  0  0  0  0
    9.0198  -13.6279   22.0312 O   0  0  0  0  0  0  0  0  0  0  0  0
    6.3559  -10.8928   26.6256 C   0  0  0  0  0  0  0  0  0  0  0  0
    7.2194  -11.5884   25.6074 C   0  0  0  0  0  0  0  0  0  0  0  0
    7.3109  -13.0815   25.9007 C   0  0  2  0  0  0  0  0  0  0  0  0
    8.1185  -13.2700   27.1867 C   0  0  0  0  0  0  0  0  0  0  0  0
    7.9951  -13.8103   24.7755 C   0  0  2  0  0  0  0  0  0  0  0  0
    7.2693  -13.6457   23.5236 N   0  0  0  0  0  0  0  0  0  0  0  0
    8.0874  -15.2578   25.0553 C   0  0  0  0  0  0  0  0  0  0  0  0
    7.1557  -16.0305   24.5850 O   0  0  0  0  0  0  0  0  0  0  0  0
   13.0007  -17.6917   19.4195 N   0  0  0  0  0  0  0  0  0  0  0  0
   12.8369  -18.9137   20.1249 C   0  0  0  0  0  0  0  0  0  0  0  0
   13.2703  -20.0443   19.6560 N   0  0  0  0  0  0  0  0  0  0  0  0
   12.1800  -18.8844   21.3750 N   0  0  0  0  0  0  0  0  0  0  0  0
   11.5710  -17.6675   21.9024 C   0  0  0  0  0  0  0  0  0  0  0  0
   11.0345  -17.9738   23.3132 C   0  0  0  0  0  0  0  0  0  0  0  0
   10.3248  -16.8057   23.8864 C   0  0  0  0  0  0  0  0  0  0  0  0
    9.7211  -17.1371   25.2220 C   0  0  2  0  0  0  0  0  0  0  0  0
    9.0946  -15.9166   25.7841 N   0  0  0  0  0  0  0  0  0  0  0  0
   10.6764  -17.6941   26.2047 C   0  0  0  0  0  0  0  0  0  0  0  0
   10.8573  -19.0866   26.3385 O   0  0  0  0  0  0  0  0  0  0  0  0
   11.3736  -16.9804   26.9680 O   0  0  0  0  0  0  0  0  0  0  0  0
  2  1  1  0
  3  2  1  0
  3  4  1  6
  5  3  1  0
  6  5  2  0
  7  8  1  0
  8  9  1  0
  9 10  1  1
  9 11  1  0
 11 12  1  6
 12  5  1  0
 13 11  1  0
 13 14  2  0
 16 15  1  0
 17 16  2  0
 18 16  1  0
 19 18  1  0
 20 21  1  0
 20 19  1  0
 22 21  1  6
 22 23  1  0
 23 13  1  0
 24 22  1  0
 25 24  1  0
 26 24  2  0
M  END
$$$$
