SIR.pdb
     RDKit          3D

 26 25  0  0  1  0  0  0  0  0999 V2000
    6.3371  -17.9239   21.2571 O   0  0  0  0  0  0  0  0  0  0  0  0
    5.9256  -16.7487   21.8829 C   0  0  0  0  0  0  0  0  0  0  0  0
    6.7907  -15.6199   21.3737 C   0  0  2  0  0  0  0  0  0  0  0  0
    7.5752  -16.1068   20.2670 N   0  0  0  0  0  0  0  0  0  0  0  0
    7.7186  -15.1245   22.4390 C   0  0  0  0  0  0  0  0  0  0  0  0
    8.8254  -15.6968   22.5102 O   0  0  0  0  0  0  0  0  0  0  0  0
    7.1569  -11.1724   27.2686 C   0  0  0  0  0  0  0  0  0  0  0  0
    7.9219  -12.2590   26.5613 C   0  0  0  0  0  0  0  0  0  0  0  0
    7.1623  -12.7481   25.3335 C   0  0  2  0  0  0  0  0  0  0  0  0
    5.8029  -13.2817   25.7903 C   0  0  0  0  0  0  0  0  0  0  0  0
    7.9168  -13.8484   24.6365 C   0  0  2  0  0  0  0  0  0  0  0  0
    7.3821  -14.0908   23.3038 N   0  0  0  0  0  0  0  0  0  0  0  0
    7.8329  -15.1147   25.3924 C   0  0  0  0  0  0  0  0  0  0  0  0
    6.8714  -15.9371   25.0998 O   0  0  0  0  0  0  0  0  0  0  0  0
    5.7344  -21.2819   22.6487 N   0  0  0  0  0  0  0  0  0  0  0  0
    6.0363  -21.7442   23.9573 C   0  0  0  0  0  0  0  0  0  0  0  0
    5.7066  -22.9331   24.3622 N   0  0  0  0  0  0  0  0  0  0  0  0
    6.7171  -20.8732   24.8366 N   0  0  0  0  0  0  0  0  0  0  0  0
    6.9614  -19.4730   24.5058 C   0  0  0  0  0  0  0  0  0  0  0  0
    7.6660  -18.8138   25.7063 C   0  0  0  0  0  0  0  0  0  0  0  0
    8.5305  -17.6901   25.2745 C   0  0  0  0  0  0  0  0  0  0  0  0
    9.1188  -16.9709   26.4555 C   0  0  2  0  0  0  0  0  0  0  0  0
    8.6974  -15.5500   26.4136 N   0  0  0  0  0  0  0  0  0  0  0  0
   10.5938  -17.0417   26.5433 C   0  0  0  0  0  0  0  0  0  0  0  0
   11.4074  -16.7106   25.4396 O   0  0  0  0  0  0  0  0  0  0  0  0
   11.2056  -17.3938   27.5824 O   0  0  0  0  0  0  0  0  0  0  0  0
  2  1  1  0
  3  2  1  0
  3  4  1  6
  5  3  1  0
  6  5  2  0
  7  8  1  0
  8  9  1  0
  9 10  1  1
  9 11  1  0
 11 12  1  6
 12  5  1  0
 13 11  1  0
 13 14  2  0
 16 15  1  0
 17 16  2  0
 18 16  1  0
 19 18  1  0
 20 21  1  0
 20 19  1  0
 22 21  1  6
 22 23  1  0
 23 13  1  0
 24 22  1  0
 25 24  1  0
 26 24  2  0
M  END
$$$$
