LAP.pdb
     RDKit          3D

 21 21  0  0  1  0  0  0  0  0999 V2000
   13.2963  -17.9138   22.0873 C   0  0  0  0  0  0  0  0  0  0  0  0
   12.1642  -17.7853   21.0831 C   0  0  2  0  0  0  0  0  0  0  0  0
   12.7646  -17.5117   19.7235 C   0  0  0  0  0  0  0  0  0  0  0  0
   11.2206  -16.6966   21.4760 C   0  0  0  0  0  0  0  0  0  0  0  0
    9.7800  -17.0463   21.2607 C   0  0  2  0  0  0  0  0  0  0  0  0
    9.3377  -16.7909   19.9079 N   0  0  0  0  0  0  0  0  0  0  0  0
    8.9182  -16.2408   22.1750 C   0  0  0  0  0  0  0  0  0  0  0  0
    8.5497  -15.0657   21.8851 O   0  0  0  0  0  0  0  0  0  0  0  0
    6.7525  -17.1808   25.0689 C   0  0  0  0  0  0  0  0  0  0  0  0
    7.5439  -16.1524   24.3094 C   0  0  2  0  0  0  0  0  0  0  0  0
    8.5014  -16.8085   23.4019 N   0  0  0  0  0  0  0  0  0  0  0  0
    8.2233  -15.1573   25.1598 C   0  0  0  0  0  0  0  0  0  0  0  0
    9.4467  -15.3885   25.4043 O   0  0  0  0  0  0  0  0  0  0  0  0
    7.6549  -14.0021   25.7120 N   0  0  0  0  0  0  0  0  0  0  0  0
    6.3146  -13.5191   25.4607 C   0  0  0  0  0  0  0  0  0  0  0  0
    6.0243  -12.4966   26.5381 C   0  0  0  0  0  0  0  0  0  0  0  0
    7.3722  -11.9048   26.7737 C   0  0  0  0  0  0  0  0  0  0  0  0
    8.3061  -13.0933   26.6261 C   0  0  1  0  0  0  0  0  0  0  0  0
    8.4430  -13.6828   28.0003 C   0  0  0  0  0  0  0  0  0  0  0  0
    7.7730  -14.7208   28.2309 O   0  0  0  0  0  0  0  0  0  0  0  0
    9.2345  -13.1684   28.9890 O   0  0  0  0  0  0  0  0  0  0  0  0
  2  1  1  1
  3  2  1  0
  4  2  1  0
  4  5  1  0
  5  6  1  6
  7  5  1  0
  7  8  2  0
 10  9  1  1
 10 11  1  0
 10 12  1  0
 11  7  1  0
 12 14  1  0
 13 12  2  0
 14 18  1  0
 14 15  1  0
 15 16  1  0
 17 16  1  0
 18 17  1  0
 18 19  1  1
 19 21  1  0
 20 19  2  0
M  END
$$$$
