LAP.pdb
     RDKit          3D

 21 21  0  0  1  0  0  0  0  0999 V2000
    6.0421  -11.8293   27.6304 C   0  0  0  0  0  0  0  0  0  0  0  0
    6.7972  -13.0152   27.0559 C   0  0  2  0  0  0  0  0  0  0  0  0
    8.0188  -12.4953   26.3339 C   0  0  0  0  0  0  0  0  0  0  0  0
    5.9303  -13.8058   26.1321 C   0  0  0  0  0  0  0  0  0  0  0  0
    6.6304  -14.9727   25.5059 C   0  0  2  0  0  0  0  0  0  0  0  0
    7.5251  -15.6459   26.4208 N   0  0  0  0  0  0  0  0  0  0  0  0
    7.4413  -14.5142   24.3398 C   0  0  0  0  0  0  0  0  0  0  0  0
    7.1514  -13.4659   23.6936 O   0  0  0  0  0  0  0  0  0  0  0  0
   10.6752  -15.7130   22.7882 C   0  0  0  0  0  0  0  0  0  0  0  0
    9.3722  -14.9636   22.7518 C   0  0  2  0  0  0  0  0  0  0  0  0
    8.5671  -15.2748   23.9459 N   0  0  0  0  0  0  0  0  0  0  0  0
    8.5866  -15.1681   21.5205 C   0  0  0  0  0  0  0  0  0  0  0  0
    7.9926  -16.2855   21.4281 O   0  0  0  0  0  0  0  0  0  0  0  0
    8.4372  -14.2608   20.4637 N   0  0  0  0  0  0  0  0  0  0  0  0
    8.9467  -12.9070   20.4365 C   0  0  0  0  0  0  0  0  0  0  0  0
    8.8853  -12.4607   18.9915 C   0  0  0  0  0  0  0  0  0  0  0  0
    7.6797  -13.1841   18.4957 C   0  0  0  0  0  0  0  0  0  0  0  0
    7.7500  -14.5174   19.2198 C   0  0  1  0  0  0  0  0  0  0  0  0
    8.5349  -15.4318   18.3239 C   0  0  0  0  0  0  0  0  0  0  0  0
    9.7416  -15.6088   18.6274 O   0  0  0  0  0  0  0  0  0  0  0  0
    8.0249  -16.0662   17.2257 O   0  0  0  0  0  0  0  0  0  0  0  0
  2  1  1  6
  3  2  1  0
  4  2  1  0
  4  5  1  0
  5  6  1  1
  7  5  1  0
  7  8  2  0
 10  9  1  6
 10 11  1  0
 10 12  1  0
 11  7  1  0
 12 14  1  0
 13 12  2  0
 14 18  1  0
 14 15  1  0
 15 16  1  0
 17 16  1  0
 18 17  1  0
 18 19  1  6
 19 21  1  0
 20 19  2  0
M  END
$$$$
