LAP.pdb
     RDKit          3D

 21 21  0  0  1  0  0  0  0  0999 V2000
    9.8269  -13.7210   19.2505 C   0  0  0  0  0  0  0  0  0  0  0  0
    8.3121  -13.6271   19.1947 C   0  0  2  0  0  0  0  0  0  0  0  0
    7.9407  -12.2646   18.6566 C   0  0  0  0  0  0  0  0  0  0  0  0
    7.7116  -13.8473   20.5441 C   0  0  0  0  0  0  0  0  0  0  0  0
    7.9496  -15.2225   21.0882 C   0  0  2  0  0  0  0  0  0  0  0  0
    7.2539  -16.2479   20.3429 N   0  0  0  0  0  0  0  0  0  0  0  0
    7.4806  -15.2987   22.5030 C   0  0  0  0  0  0  0  0  0  0  0  0
    6.4522  -14.6787   22.9016 O   0  0  0  0  0  0  0  0  0  0  0  0
    7.1497  -17.4233   25.1780 C   0  0  0  0  0  0  0  0  0  0  0  0
    7.8854  -16.1508   24.8614 C   0  0  2  0  0  0  0  0  0  0  0  0
    8.2076  -16.0875   23.4251 N   0  0  0  0  0  0  0  0  0  0  0  0
    9.0906  -15.9246   25.6807 C   0  0  0  0  0  0  0  0  0  0  0  0
   10.1211  -16.5780   25.3327 O   0  0  0  0  0  0  0  0  0  0  0  0
    9.2020  -15.0713   26.7861 N   0  0  0  0  0  0  0  0  0  0  0  0
    8.1758  -14.1692   27.2616 C   0  0  0  0  0  0  0  0  0  0  0  0
    8.5881  -13.7579   28.6587 C   0  0  0  0  0  0  0  0  0  0  0  0
   10.0754  -13.7634   28.5561 C   0  0  0  0  0  0  0  0  0  0  0  0
   10.3581  -14.9430   27.6420 C   0  0  1  0  0  0  0  0  0  0  0  0
   10.5230  -16.1325   28.5436 C   0  0  0  0  0  0  0  0  0  0  0  0
    9.5255  -16.8886   28.6568 O   0  0  0  0  0  0  0  0  0  0  0  0
   11.6666  -16.4320   29.2299 O   0  0  0  0  0  0  0  0  0  0  0  0
  2  1  1  1
  3  2  1  0
  4  2  1  0
  4  5  1  0
  5  6  1  6
  7  5  1  0
  7  8  2  0
 10  9  1  6
 10 11  1  0
 10 12  1  0
 11  7  1  0
 12 14  1  0
 13 12  2  0
 14 18  1  0
 14 15  1  0
 15 16  1  0
 17 16  1  0
 18 17  1  0
 18 19  1  1
 19 21  1  0
 20 19  2  0
M  END
$$$$
