LAP.pdb
     RDKit          3D

 21 21  0  0  1  0  0  0  0  0999 V2000
    9.9261  -13.7504   19.2961 C   0  0  0  0  0  0  0  0  0  0  0  0
    8.5017  -13.9035   18.7919 C   0  0  2  0  0  0  0  0  0  0  0  0
    8.0846  -12.6023   18.1461 C   0  0  0  0  0  0  0  0  0  0  0  0
    7.5750  -14.2648   19.9058 C   0  0  0  0  0  0  0  0  0  0  0  0
    7.9746  -15.5095   20.6372 C   0  0  2  0  0  0  0  0  0  0  0  0
    7.6002  -16.7166   19.9347 N   0  0  0  0  0  0  0  0  0  0  0  0
    7.3172  -15.5465   21.9765 C   0  0  0  0  0  0  0  0  0  0  0  0
    6.0840  -15.3050   22.1237 O   0  0  0  0  0  0  0  0  0  0  0  0
    7.3230  -17.2723   24.9547 C   0  0  0  0  0  0  0  0  0  0  0  0
    7.5564  -15.8630   24.4855 C   0  0  2  0  0  0  0  0  0  0  0  0
    8.0963  -15.8608   23.1146 N   0  0  0  0  0  0  0  0  0  0  0  0
    8.4009  -15.0542   25.3841 C   0  0  0  0  0  0  0  0  0  0  0  0
    9.6388  -15.3325   25.3715 O   0  0  0  0  0  0  0  0  0  0  0  0
    7.9722  -14.0262   26.2338 N   0  0  0  0  0  0  0  0  0  0  0  0
    6.6457  -13.4494   26.2566 C   0  0  0  0  0  0  0  0  0  0  0  0
    6.5429  -12.6759   27.5535 C   0  0  0  0  0  0  0  0  0  0  0  0
    7.9435  -12.2015   27.7423 C   0  0  0  0  0  0  0  0  0  0  0  0
    8.7777  -13.3640   27.2329 C   0  0  1  0  0  0  0  0  0  0  0  0
    9.0289  -14.2437   28.4237 C   0  0  0  0  0  0  0  0  0  0  0  0
    8.2778  -15.2438   28.5463 O   0  0  0  0  0  0  0  0  0  0  0  0
   10.0029  -14.0243   29.3575 O   0  0  0  0  0  0  0  0  0  0  0  0
  2  1  1  1
  3  2  1  0
  4  2  1  0
  4  5  1  0
  5  6  1  6
  7  5  1  0
  7  8  2  0
 10  9  1  1
 10 11  1  0
 10 12  1  0
 11  7  1  0
 12 14  1  0
 13 12  2  0
 14 18  1  0
 14 15  1  0
 15 16  1  0
 17 16  1  0
 18 17  1  0
 18 19  1  1
 19 21  1  0
 20 19  2  0
M  END
$$$$
