LAP.pdb
     RDKit          3D

 21 21  0  0  1  0  0  0  0  0999 V2000
    7.7017  -12.4526   19.1175 C   0  0  0  0  0  0  0  0  0  0  0  0
    8.3025  -13.5570   19.9696 C   0  0  2  0  0  0  0  0  0  0  0  0
    9.7922  -13.3226   20.0686 C   0  0  0  0  0  0  0  0  0  0  0  0
    8.0138  -14.9009   19.3862 C   0  0  0  0  0  0  0  0  0  0  0  0
    8.3304  -16.0358   20.3113 C   0  0  2  0  0  0  0  0  0  0  0  0
    8.0584  -17.3292   19.7247 N   0  0  0  0  0  0  0  0  0  0  0  0
    7.5107  -15.9242   21.5535 C   0  0  0  0  0  0  0  0  0  0  0  0
    6.2469  -15.8772   21.5195 O   0  0  0  0  0  0  0  0  0  0  0  0
    6.9520  -17.0555   24.5644 C   0  0  0  0  0  0  0  0  0  0  0  0
    7.4511  -15.7207   24.0848 C   0  0  2  0  0  0  0  0  0  0  0  0
    8.1668  -15.8695   22.8056 N   0  0  0  0  0  0  0  0  0  0  0  0
    8.2750  -14.9905   25.0660 C   0  0  0  0  0  0  0  0  0  0  0  0
    9.4659  -15.4070   25.2005 O   0  0  0  0  0  0  0  0  0  0  0  0
    7.8732  -13.9000   25.8483 N   0  0  0  0  0  0  0  0  0  0  0  0
    6.6054  -13.2106   25.7460 C   0  0  0  0  0  0  0  0  0  0  0  0
    6.4693  -12.3858   27.0077 C   0  0  0  0  0  0  0  0  0  0  0  0
    7.8872  -12.0273   27.2971 C   0  0  0  0  0  0  0  0  0  0  0  0
    8.6526  -13.2747   26.8909 C   0  0  1  0  0  0  0  0  0  0  0  0
    8.7299  -14.1300   28.1227 C   0  0  0  0  0  0  0  0  0  0  0  0
    7.8969  -15.0676   28.2034 O   0  0  0  0  0  0  0  0  0  0  0  0
    9.6312  -13.9515   29.1348 O   0  0  0  0  0  0  0  0  0  0  0  0
  2  1  1  6
  3  2  1  0
  4  2  1  0
  4  5  1  0
  5  6  1  6
  7  5  1  0
  7  8  2  0
 10  9  1  1
 10 11  1  0
 10 12  1  0
 11  7  1  0
 12 14  1  0
 13 12  2  0
 14 18  1  0
 14 15  1  0
 15 16  1  0
 17 16  1  0
 18 17  1  0
 18 19  1  1
 19 21  1  0
 20 19  2  0
M  END
$$$$
