MLG.pdb
     RDKit          3D

 21 20  0  0  1  0  0  0  0  0999 V2000
    2.3191  -17.6267   21.0565 C   0  0  0  0  0  0  0  0  0  0  0  0
    3.4300  -19.0513   20.9088 S   0  0  0  0  0  0  0  0  0  0  0  0
    4.5340  -19.1841   22.3293 C   0  0  0  0  0  0  0  0  0  0  0  0
    5.3759  -17.9461   22.4731 C   0  0  0  0  0  0  0  0  0  0  0  0
    6.3304  -18.0219   23.6375 C   0  0  2  0  0  0  0  0  0  0  0  0
    5.6594  -18.4584   24.8395 N   0  0  0  0  0  0  0  0  0  0  0  0
    7.1159  -16.7855   23.8385 C   0  0  0  0  0  0  0  0  0  0  0  0
    7.7717  -16.3107   22.8749 O   0  0  0  0  0  0  0  0  0  0  0  0
    6.8517  -12.2551   24.7544 C   0  0  0  0  0  0  0  0  0  0  0  0
    6.4637  -13.2436   25.8535 C   0  0  2  0  0  0  0  0  0  0  0  0
    5.8807  -12.4186   26.9777 C   0  0  0  0  0  0  0  0  0  0  0  0
    7.6541  -14.0244   26.3044 C   0  0  0  0  0  0  0  0  0  0  0  0
    8.1560  -15.0213   25.3383 C   0  0  2  0  0  0  0  0  0  0  0  0
    7.1827  -16.0838   25.0661 N   0  0  0  0  0  0  0  0  0  0  0  0
    9.4520  -15.6505   25.6119 C   0  0  0  0  0  0  0  0  0  0  0  0
    9.7442  -16.0288   26.7909 O   0  0  0  0  0  0  0  0  0  0  0  0
   10.4655  -15.8939   24.6435 N   0  0  0  0  0  0  0  0  0  0  0  0
   11.7278  -16.5022   24.9681 C   0  0  0  0  0  0  0  0  0  0  0  0
   12.5956  -16.5196   23.7852 C   0  0  0  0  0  0  0  0  0  0  0  0
   12.4458  -17.3624   22.8728 O   0  0  0  0  0  0  0  0  0  0  0  0
   13.6110  -15.5893   23.6563 O   0  0  0  0  0  0  0  0  0  0  0  0
  2  1  1  0
  3  2  1  0
  4  3  1  0
  4  5  1  0
  5  6  1  1
  7  8  2  0
  7  5  1  0
 10  9  1  6
 10 12  1  0
 11 10  1  0
 13 14  1  0
 13 12  1  1
 14  7  1  0
 15 13  1  0
 16 15  2  0
 17 15  1  0
 18 17  1  0
 19 18  1  0
 19 21  1  0
 20 19  2  0
M  END
$$$$
