MLG.pdb
     RDKit          3D

 21 20  0  0  1  0  0  0  0  0999 V2000
   11.2613  -17.0908   31.3323 C   0  0  0  0  0  0  0  0  0  0  0  0
   12.2420  -18.5457   30.8772 S   0  0  0  0  0  0  0  0  0  0  0  0
   11.9815  -19.0109   29.1538 C   0  0  0  0  0  0  0  0  0  0  0  0
   10.7156  -18.4008   28.6180 C   0  0  0  0  0  0  0  0  0  0  0  0
   10.5952  -18.5278   27.1206 C   0  0  2  0  0  0  0  0  0  0  0  0
   11.8920  -18.5077   26.4855 N   0  0  0  0  0  0  0  0  0  0  0  0
    9.6500  -17.5625   26.5203 C   0  0  0  0  0  0  0  0  0  0  0  0
    8.4150  -17.7118   26.7114 O   0  0  0  0  0  0  0  0  0  0  0  0
    7.4502  -14.2933   27.5332 C   0  0  0  0  0  0  0  0  0  0  0  0
    8.9265  -14.1625   27.1598 C   0  0  2  0  0  0  0  0  0  0  0  0
    9.3953  -12.8490   27.7424 C   0  0  0  0  0  0  0  0  0  0  0  0
    9.1005  -14.1999   25.6771 C   0  0  0  0  0  0  0  0  0  0  0  0
    9.0987  -15.5484   25.0768 C   0  0  2  0  0  0  0  0  0  0  0  0
   10.0464  -16.4581   25.7284 N   0  0  0  0  0  0  0  0  0  0  0  0
    9.2897  -15.6546   23.6268 C   0  0  0  0  0  0  0  0  0  0  0  0
    8.5354  -15.0078   22.8322 O   0  0  0  0  0  0  0  0  0  0  0  0
   10.2837  -16.4463   22.9870 N   0  0  0  0  0  0  0  0  0  0  0  0
   10.3787  -16.5781   21.5578 C   0  0  0  0  0  0  0  0  0  0  0  0
   11.5024  -17.4541   21.2080 C   0  0  0  0  0  0  0  0  0  0  0  0
   11.6672  -18.5640   21.7614 O   0  0  0  0  0  0  0  0  0  0  0  0
   12.4139  -17.0617   20.2445 O   0  0  0  0  0  0  0  0  0  0  0  0
  2  1  1  0
  3  2  1  0
  4  3  1  0
  4  5  1  0
  5  6  1  6
  7  8  2  0
  7  5  1  0
 10  9  1  6
 10 12  1  0
 11 10  1  0
 13 14  1  0
 13 12  1  1
 14  7  1  0
 15 13  1  0
 16 15  2  0
 17 15  1  0
 18 17  1  0
 19 18  1  0
 19 21  1  0
 20 19  2  0
M  END
$$$$
