MLG.pdb
     RDKit          3D

 21 20  0  0  1  0  0  0  0  0999 V2000
    5.7515  -12.1204   26.6582 C   0  0  0  0  0  0  0  0  0  0  0  0
    7.4484  -12.5454   27.1329 S   0  0  0  0  0  0  0  0  0  0  0  0
    7.9000  -14.2010   26.5770 C   0  0  0  0  0  0  0  0  0  0  0  0
    6.7599  -14.8505   25.8419 C   0  0  0  0  0  0  0  0  0  0  0  0
    7.1032  -16.2273   25.3327 C   0  0  2  0  0  0  0  0  0  0  0  0
    7.7434  -17.0213   26.3550 N   0  0  0  0  0  0  0  0  0  0  0  0
    7.8585  -16.2155   24.0618 C   0  0  0  0  0  0  0  0  0  0  0  0
    8.1542  -17.3085   23.5124 O   0  0  0  0  0  0  0  0  0  0  0  0
    6.4615  -14.0341   20.2471 C   0  0  0  0  0  0  0  0  0  0  0  0
    7.2332  -13.1727   21.2462 C   0  0  2  0  0  0  0  0  0  0  0  0
    7.2020  -11.7631   20.7017 C   0  0  0  0  0  0  0  0  0  0  0  0
    8.6321  -13.6713   21.4020 C   0  0  0  0  0  0  0  0  0  0  0  0
    8.7598  -15.0056   22.0202 C   0  0  2  0  0  0  0  0  0  0  0  0
    8.2812  -15.0342   23.4060 N   0  0  0  0  0  0  0  0  0  0  0  0
   10.0719  -15.6589   21.9784 C   0  0  0  0  0  0  0  0  0  0  0  0
   10.5761  -16.0128   20.8652 O   0  0  0  0  0  0  0  0  0  0  0  0
   10.8788  -15.9502   23.1134 N   0  0  0  0  0  0  0  0  0  0  0  0
   12.1897  -16.5337   23.0125 C   0  0  0  0  0  0  0  0  0  0  0  0
   12.7551  -16.7328   24.3516 C   0  0  0  0  0  0  0  0  0  0  0  0
   13.5105  -15.8858   24.8783 O   0  0  0  0  0  0  0  0  0  0  0  0
   12.4580  -17.8789   25.0666 O   0  0  0  0  0  0  0  0  0  0  0  0
  2  1  1  0
  3  2  1  0
  4  3  1  0
  4  5  1  0
  5  6  1  1
  7  8  2  0
  7  5  1  0
 10  9  1  6
 10 12  1  0
 11 10  1  0
 13 14  1  0
 13 12  1  1
 14  7  1  0
 15 13  1  0
 16 15  2  0
 17 15  1  0
 18 17  1  0
 19 18  1  0
 19 21  1  0
 20 19  2  0
M  END
$$$$
