MLG.pdb
     RDKit          3D

 21 20  0  0  1  0  0  0  0  0999 V2000
    8.3526  -11.6784   19.4696 C   0  0  0  0  0  0  0  0  0  0  0  0
    7.5477  -13.1009   18.6860 S   0  0  0  0  0  0  0  0  0  0  0  0
    7.4291  -14.5032   19.8147 C   0  0  0  0  0  0  0  0  0  0  0  0
    8.4752  -14.4160   20.8917 C   0  0  0  0  0  0  0  0  0  0  0  0
    8.4056  -15.5637   21.8667 C   0  0  2  0  0  0  0  0  0  0  0  0
    7.1239  -16.2264   21.8078 N   0  0  0  0  0  0  0  0  0  0  0  0
    8.7942  -15.1927   23.2441 C   0  0  0  0  0  0  0  0  0  0  0  0
    9.9369  -14.7071   23.4505 O   0  0  0  0  0  0  0  0  0  0  0  0
    7.7095  -11.9279   26.0822 C   0  0  0  0  0  0  0  0  0  0  0  0
    6.6836  -13.0472   25.9073 C   0  0  2  0  0  0  0  0  0  0  0  0
    5.4339  -12.5913   26.6247 C   0  0  0  0  0  0  0  0  0  0  0  0
    7.2027  -14.3302   26.4679 C   0  0  0  0  0  0  0  0  0  0  0  0
    8.3277  -14.9323   25.7257 C   0  0  2  0  0  0  0  0  0  0  0  0
    7.9519  -15.3493   24.3710 N   0  0  0  0  0  0  0  0  0  0  0  0
    9.0531  -16.0390   26.3577 C   0  0  0  0  0  0  0  0  0  0  0  0
    9.4379  -15.9452   27.5667 O   0  0  0  0  0  0  0  0  0  0  0  0
    9.3854  -17.2687   25.7241 N   0  0  0  0  0  0  0  0  0  0  0  0
    9.9234  -18.3960   26.4373 C   0  0  0  0  0  0  0  0  0  0  0  0
   11.3711  -18.4852   26.2170 C   0  0  0  0  0  0  0  0  0  0  0  0
   12.0004  -19.5496   26.4080 O   0  0  0  0  0  0  0  0  0  0  0  0
   12.0769  -17.3761   25.7872 O   0  0  0  0  0  0  0  0  0  0  0  0
  2  1  1  0
  3  2  1  0
  4  3  1  0
  4  5  1  0
  5  6  1  1
  7  8  2  0
  7  5  1  0
 10  9  1  1
 10 12  1  0
 11 10  1  0
 13 14  1  0
 13 12  1  1
 14  7  1  0
 15 13  1  0
 16 15  2  0
 17 15  1  0
 18 17  1  0
 19 18  1  0
 19 21  1  0
 20 19  2  0
M  END
$$$$
