MLG.pdb
     RDKit          3D

 21 20  0  0  1  0  0  0  0  0999 V2000
    8.3542  -11.5744   19.3476 C   0  0  0  0  0  0  0  0  0  0  0  0
    8.1196  -13.1009   18.3989 S   0  0  0  0  0  0  0  0  0  0  0  0
    7.6865  -14.4884   19.4673 C   0  0  0  0  0  0  0  0  0  0  0  0
    7.9043  -14.1407   20.9142 C   0  0  0  0  0  0  0  0  0  0  0  0
    8.3203  -15.3290   21.7434 C   0  0  2  0  0  0  0  0  0  0  0  0
    7.3184  -16.3686   21.7117 N   0  0  0  0  0  0  0  0  0  0  0  0
    8.7324  -14.9744   23.1183 C   0  0  0  0  0  0  0  0  0  0  0  0
    9.8122  -14.3524   23.2950 O   0  0  0  0  0  0  0  0  0  0  0  0
    7.8500  -11.9114   26.2066 C   0  0  0  0  0  0  0  0  0  0  0  0
    6.7845  -12.9733   25.9367 C   0  0  2  0  0  0  0  0  0  0  0  0
    5.5459  -12.5279   26.6797 C   0  0  0  0  0  0  0  0  0  0  0  0
    7.2494  -14.3155   26.3974 C   0  0  0  0  0  0  0  0  0  0  0  0
    8.3710  -14.8911   25.6296 C   0  0  2  0  0  0  0  0  0  0  0  0
    7.9803  -15.2931   24.2745 N   0  0  0  0  0  0  0  0  0  0  0  0
    9.1207  -15.9969   26.2339 C   0  0  0  0  0  0  0  0  0  0  0  0
    9.4013  -15.9780   27.4747 O   0  0  0  0  0  0  0  0  0  0  0  0
    9.5881  -17.1468   25.5384 N   0  0  0  0  0  0  0  0  0  0  0  0
   10.1827  -18.2753   26.2032 C   0  0  0  0  0  0  0  0  0  0  0  0
   11.5727  -18.4414   25.7642 C   0  0  0  0  0  0  0  0  0  0  0  0
   12.0950  -17.6689   24.9300 O   0  0  0  0  0  0  0  0  0  0  0  0
   12.3424  -19.4717   26.2732 O   0  0  0  0  0  0  0  0  0  0  0  0
  2  1  1  0
  3  2  1  0
  4  3  1  0
  4  5  1  0
  5  6  1  1
  7  8  2  0
  7  5  1  0
 10  9  1  1
 10 12  1  0
 11 10  1  0
 13 14  1  0
 13 12  1  1
 14  7  1  0
 15 13  1  0
 16 15  2  0
 17 15  1  0
 18 17  1  0
 19 18  1  0
 19 21  1  0
 20 19  2  0
M  END
$$$$
