QAG.pdb
     RDKit          3D

 19 18  0  0  1  0  0  0  0  0999 V2000
   17.4733  -10.6405  -14.1708 N   0  0  0  0  0  0  0  0  0  0  0  0
   18.0046  -11.5279  -15.1629 C   0  0  0  0  0  0  0  0  0  0  0  0
   18.7192  -12.4499  -14.6874 O   0  0  0  0  0  0  0  0  0  0  0  0
   17.6958  -11.3073  -16.5785 C   0  0  0  0  0  0  0  0  0  0  0  0
   16.7970  -10.1963  -16.9322 C   0  0  0  0  0  0  0  0  0  0  0  0
   17.1745   -9.3246  -18.0830 C   0  0  2  0  0  0  0  0  0  0  0  0
   17.9919   -9.9652  -19.0766 N   0  0  0  0  0  0  0  0  0  0  0  0
   17.9393   -8.1672  -17.5481 C   0  0  0  0  0  0  0  0  0  0  0  0
   19.1996   -8.2536  -17.6285 O   0  0  0  0  0  0  0  0  0  0  0  0
   17.4037   -4.6306  -16.3477 C   0  0  0  0  0  0  0  0  0  0  0  0
   18.2127   -5.8783  -16.5420 C   0  0  2  0  0  0  0  0  0  0  0  0
   17.4064   -7.0093  -16.9725 N   0  0  0  0  0  0  0  0  0  0  0  0
   18.8990   -6.2580  -15.2709 C   0  0  0  0  0  0  0  0  0  0  0  0
   18.3385   -7.0011  -14.4214 O   0  0  0  0  0  0  0  0  0  0  0  0
   20.2114   -5.7745  -15.0082 N   0  0  0  0  0  0  0  0  0  0  0  0
   20.8967   -6.2670  -13.8388 C   0  0  0  0  0  0  0  0  0  0  0  0
   22.2308   -5.6229  -13.6822 C   0  0  0  0  0  0  0  0  0  0  0  0
   22.7726   -5.1206  -14.6893 O   0  0  0  0  0  0  0  0  0  0  0  0
   22.8889   -5.5608  -12.4668 O   0  0  0  0  0  0  0  0  0  0  0  0
  2  1  1  0
  3  2  2  0
  4  2  1  0
  5  4  1  0
  6  5  1  0
  6  7  1  6
  8  6  1  0
  8 12  1  0
  9  8  2  0
 11 10  1  1
 11 12  1  0
 11 13  1  0
 13 15  1  0
 14 13  2  0
 15 16  1  0
 16 17  1  0
 17 19  1  0
 18 17  2  0
M  END
$$$$
