QAG.pdb
     RDKit          3D

 19 18  0  0  1  0  0  0  0  0999 V2000
   17.8601  -13.3549  -15.4728 N   0  0  0  0  0  0  0  0  0  0  0  0
   19.0150  -14.1129  -15.8545 C   0  0  0  0  0  0  0  0  0  0  0  0
   18.8175  -15.3567  -15.8846 O   0  0  0  0  0  0  0  0  0  0  0  0
   20.2708  -13.4228  -16.1620 C   0  0  0  0  0  0  0  0  0  0  0  0
   20.3071  -11.9555  -16.0488 C   0  0  0  0  0  0  0  0  0  0  0  0
   19.6756  -11.1499  -17.1346 C   0  0  2  0  0  0  0  0  0  0  0  0
   20.3242  -11.2554  -18.4130 N   0  0  0  0  0  0  0  0  0  0  0  0
   19.7153   -9.7209  -16.7258 C   0  0  0  0  0  0  0  0  0  0  0  0
   20.7152   -9.0585  -17.1301 O   0  0  0  0  0  0  0  0  0  0  0  0
   17.4901   -7.0724  -15.2333 C   0  0  0  0  0  0  0  0  0  0  0  0
   18.8143   -7.6220  -15.6727 C   0  0  2  0  0  0  0  0  0  0  0  0
   18.7670   -9.0492  -15.9478 N   0  0  0  0  0  0  0  0  0  0  0  0
   19.8503   -7.3886  -14.6224 C   0  0  0  0  0  0  0  0  0  0  0  0
   20.1216   -8.2701  -13.7637 O   0  0  0  0  0  0  0  0  0  0  0  0
   20.5479   -6.1488  -14.5853 N   0  0  0  0  0  0  0  0  0  0  0  0
   21.5327   -5.9528  -13.5502 C   0  0  0  0  0  0  0  0  0  0  0  0
   22.1708   -4.6110  -13.6577 C   0  0  0  0  0  0  0  0  0  0  0  0
   22.9319   -4.2372  -12.7404 O   0  0  0  0  0  0  0  0  0  0  0  0
   21.9522   -3.7670  -14.7320 O   0  0  0  0  0  0  0  0  0  0  0  0
  2  1  1  0
  3  2  2  0
  4  2  1  0
  5  4  1  0
  6  5  1  0
  6  7  1  6
  8  6  1  0
  8 12  1  0
  9  8  2  0
 11 10  1  1
 11 12  1  0
 11 13  1  0
 13 15  1  0
 14 13  2  0
 15 16  1  0
 16 17  1  0
 17 19  1  0
 18 17  2  0
M  END
$$$$
