QAG.pdb
     RDKit          3D

 19 18  0  0  1  0  0  0  0  0999 V2000
   16.0109  -12.3106  -10.6760 N   0  0  0  0  0  0  0  0  0  0  0  0
   14.8364  -13.1225  -10.8004 C   0  0  0  0  0  0  0  0  0  0  0  0
   15.0610  -14.3577  -10.6965 O   0  0  0  0  0  0  0  0  0  0  0  0
   13.5341  -12.4903  -11.0290 C   0  0  0  0  0  0  0  0  0  0  0  0
   13.4584  -11.0203  -11.0089 C   0  0  0  0  0  0  0  0  0  0  0  0
   13.3573  -10.3387   -9.6854 C   0  0  2  0  0  0  0  0  0  0  0  0
   12.0142  -10.1540   -9.2079 N   0  0  0  0  0  0  0  0  0  0  0  0
   13.9784   -8.9940   -9.8149 C   0  0  0  0  0  0  0  0  0  0  0  0
   13.2791   -8.1171  -10.4018 O   0  0  0  0  0  0  0  0  0  0  0  0
   15.9782   -6.4946   -8.3444 C   0  0  0  0  0  0  0  0  0  0  0  0
   15.8265   -7.3017   -9.5991 C   0  0  2  0  0  0  0  0  0  0  0  0
   15.2435   -8.6118   -9.3575 N   0  0  0  0  0  0  0  0  0  0  0  0
   17.1537   -7.5010  -10.2547 C   0  0  0  0  0  0  0  0  0  0  0  0
   18.1041   -8.0655   -9.6495 O   0  0  0  0  0  0  0  0  0  0  0  0
   17.3552   -7.0469  -11.5882 N   0  0  0  0  0  0  0  0  0  0  0  0
   18.6525   -7.2454  -12.1860 C   0  0  0  0  0  0  0  0  0  0  0  0
   19.3729   -5.9527  -12.3570 C   0  0  0  0  0  0  0  0  0  0  0  0
   18.8148   -4.9034  -11.9725 O   0  0  0  0  0  0  0  0  0  0  0  0
   20.6323   -5.8722  -12.9240 O   0  0  0  0  0  0  0  0  0  0  0  0
  2  1  1  0
  3  2  2  0
  4  2  1  0
  5  4  1  0
  6  5  1  0
  6  7  1  6
  8  6  1  0
  8 12  1  0
  9  8  2  0
 11 10  1  1
 11 12  1  0
 11 13  1  0
 13 15  1  0
 14 13  2  0
 15 16  1  0
 16 17  1  0
 17 19  1  0
 18 17  2  0
M  END
$$$$
