QAG.pdb
     RDKit          3D

 19 18  0  0  1  0  0  0  0  0999 V2000
   23.2785  -33.2158    2.0818 N   0  0  0  0  0  0  0  0  0  0  0  0
   21.8588  -33.4048    2.1340 C   0  0  0  0  0  0  0  0  0  0  0  0
   21.3529  -33.1374    3.2562 O   0  0  0  0  0  0  0  0  0  0  0  0
   21.1415  -33.8716    0.9442 C   0  0  0  0  0  0  0  0  0  0  0  0
   21.9126  -34.1121   -0.2865 C   0  0  0  0  0  0  0  0  0  0  0  0
   22.1280  -32.9660   -1.2174 C   0  0  2  0  0  0  0  0  0  0  0  0
   20.9457  -32.5210   -1.9032 N   0  0  0  0  0  0  0  0  0  0  0  0
   23.1126  -33.3919   -2.2469 C   0  0  0  0  0  0  0  0  0  0  0  0
   22.7168  -34.2829   -3.0542 O   0  0  0  0  0  0  0  0  0  0  0  0
   25.7588  -32.1677   -4.3273 C   0  0  0  0  0  0  0  0  0  0  0  0
   25.3021  -33.3195   -3.4826 C   0  0  2  0  0  0  0  0  0  0  0  0
   24.4156  -32.9093   -2.4052 N   0  0  0  0  0  0  0  0  0  0  0  0
   26.4744  -34.0178   -2.8750 C   0  0  0  0  0  0  0  0  0  0  0  0
   27.4639  -34.3643   -3.5743 O   0  0  0  0  0  0  0  0  0  0  0  0
   26.4800  -34.3001   -1.4803 N   0  0  0  0  0  0  0  0  0  0  0  0
   27.6614  -34.9015   -0.9125 C   0  0  0  0  0  0  0  0  0  0  0  0
   27.5159  -35.0969    0.5572 C   0  0  0  0  0  0  0  0  0  0  0  0
   26.4431  -34.7590    1.1006 O   0  0  0  0  0  0  0  0  0  0  0  0
   28.5215  -35.6367    1.3392 O   0  0  0  0  0  0  0  0  0  0  0  0
  2  1  1  0
  3  2  2  0
  4  2  1  0
  5  4  1  0
  6  5  1  0
  6  7  1  6
  8  6  1  0
  8 12  1  0
  9  8  2  0
 11 10  1  1
 11 12  1  0
 11 13  1  0
 13 15  1  0
 14 13  2  0
 15 16  1  0
 16 17  1  0
 17 19  1  0
 18 17  2  0
M  END
$$$$
