QAG.pdb
     RDKit          3D

 19 18  0  0  1  0  0  0  0  0999 V2000
   28.1114  -17.4414  -15.1013 N   0  0  0  0  0  0  0  0  0  0  0  0
   27.6883  -17.6874  -16.4484 C   0  0  0  0  0  0  0  0  0  0  0  0
   28.3331  -17.0320  -17.3096 O   0  0  0  0  0  0  0  0  0  0  0  0
   26.5961  -18.6292  -16.7089 C   0  0  0  0  0  0  0  0  0  0  0  0
   26.0697  -19.4169  -15.5822 C   0  0  0  0  0  0  0  0  0  0  0  0
   27.0132  -20.3060  -14.8433 C   0  0  2  0  0  0  0  0  0  0  0  0
   27.6061  -21.3446  -15.6407 N   0  0  0  0  0  0  0  0  0  0  0  0
   26.2580  -20.9593  -13.7417 C   0  0  0  0  0  0  0  0  0  0  0  0
   25.6828  -22.0477  -14.0363 O   0  0  0  0  0  0  0  0  0  0  0  0
   25.8149  -20.8133  -10.0118 C   0  0  0  0  0  0  0  0  0  0  0  0
   25.3815  -21.1943  -11.3959 C   0  0  2  0  0  0  0  0  0  0  0  0
   26.1241  -20.4920  -12.4304 N   0  0  0  0  0  0  0  0  0  0  0  0
   23.9302  -20.8983  -11.5880 C   0  0  0  0  0  0  0  0  0  0  0  0
   23.0572  -21.3755  -10.8144 O   0  0  0  0  0  0  0  0  0  0  0  0
   23.5189  -20.0621  -12.6634 N   0  0  0  0  0  0  0  0  0  0  0  0
   22.1405  -19.6402  -12.7086 C   0  0  0  0  0  0  0  0  0  0  0  0
   21.2610  -20.7209  -13.2357 C   0  0  0  0  0  0  0  0  0  0  0  0
   20.0282  -20.5228  -13.2708 O   0  0  0  0  0  0  0  0  0  0  0  0
   21.7577  -21.9312  -13.6859 O   0  0  0  0  0  0  0  0  0  0  0  0
  2  1  1  0
  3  2  2  0
  4  2  1  0
  5  4  1  0
  6  5  1  0
  6  7  1  6
  8  6  1  0
  8 12  1  0
  9  8  2  0
 11 10  1  1
 11 12  1  0
 11 13  1  0
 13 15  1  0
 14 13  2  0
 15 16  1  0
 16 17  1  0
 17 19  1  0
 18 17  2  0
M  END
$$$$
