QAG.pdb
     RDKit          3D

 19 18  0  0  1  0  0  0  0  0999 V2000
   24.0930  -21.2464   -9.5581 N   0  0  0  0  0  0  0  0  0  0  0  0
   25.3953  -20.7038   -9.3052 C   0  0  0  0  0  0  0  0  0  0  0  0
   25.6853  -20.6321   -8.0814 O   0  0  0  0  0  0  0  0  0  0  0  0
   26.2443  -20.2934  -10.4270 C   0  0  0  0  0  0  0  0  0  0  0  0
   25.7178  -20.4452  -11.7933 C   0  0  0  0  0  0  0  0  0  0  0  0
   26.3119  -21.5019  -12.6633 C   0  0  2  0  0  0  0  0  0  0  0  0
   27.6984  -21.3027  -12.9856 N   0  0  0  0  0  0  0  0  0  0  0  0
   25.5510  -21.5239  -13.9405 C   0  0  0  0  0  0  0  0  0  0  0  0
   25.8303  -20.6052  -14.7653 O   0  0  0  0  0  0  0  0  0  0  0  0
   24.1918  -23.8425  -16.3022 C   0  0  0  0  0  0  0  0  0  0  0  0
   23.9833  -22.5131  -15.6404 C   0  0  2  0  0  0  0  0  0  0  0  0
   24.5700  -22.4490  -14.3113 N   0  0  0  0  0  0  0  0  0  0  0  0
   22.5249  -22.2155  -15.5159 C   0  0  0  0  0  0  0  0  0  0  0  0
   21.7414  -22.3637  -16.4917 O   0  0  0  0  0  0  0  0  0  0  0  0
   22.0042  -21.7553  -14.2741 N   0  0  0  0  0  0  0  0  0  0  0  0
   20.5883  -21.4967  -14.1840 C   0  0  0  0  0  0  0  0  0  0  0  0
   20.3017  -20.0353  -14.2232 C   0  0  0  0  0  0  0  0  0  0  0  0
   19.1451  -19.6468  -13.9556 O   0  0  0  0  0  0  0  0  0  0  0  0
   21.2660  -19.0964  -14.5440 O   0  0  0  0  0  0  0  0  0  0  0  0
  2  1  1  0
  3  2  2  0
  4  2  1  0
  5  4  1  0
  6  5  1  0
  6  7  1  6
  8  6  1  0
  8 12  1  0
  9  8  2  0
 11 10  1  1
 11 12  1  0
 11 13  1  0
 13 15  1  0
 14 13  2  0
 15 16  1  0
 16 17  1  0
 17 19  1  0
 18 17  2  0
M  END
$$$$
