QAG.pdb
     RDKit          3D

 19 18  0  0  1  0  0  0  0  0999 V2000
   25.7364  -19.5413   -9.2088 N   0  0  0  0  0  0  0  0  0  0  0  0
   25.5772  -20.9541   -9.0282 C   0  0  0  0  0  0  0  0  0  0  0  0
   25.1672  -21.2753   -7.8812 O   0  0  0  0  0  0  0  0  0  0  0  0
   25.8883  -21.8693  -10.1298 C   0  0  0  0  0  0  0  0  0  0  0  0
   26.4424  -21.3048  -11.3713 C   0  0  0  0  0  0  0  0  0  0  0  0
   25.6143  -20.3210  -12.1282 C   0  0  2  0  0  0  0  0  0  0  0  0
   24.2497  -20.2223  -11.6875 N   0  0  0  0  0  0  0  0  0  0  0  0
   25.5979  -20.7391  -13.5550 C   0  0  0  0  0  0  0  0  0  0  0  0
   26.7302  -20.9332  -14.0865 O   0  0  0  0  0  0  0  0  0  0  0  0
   23.6942  -22.2807  -16.2619 C   0  0  0  0  0  0  0  0  0  0  0  0
   24.5201  -21.1192  -15.7956 C   0  0  2  0  0  0  0  0  0  0  0  0
   24.4669  -20.9347  -14.3541 N   0  0  0  0  0  0  0  0  0  0  0  0
   24.0534  -19.8552  -16.4401 C   0  0  0  0  0  0  0  0  0  0  0  0
   23.6737  -19.8350  -17.6416 O   0  0  0  0  0  0  0  0  0  0  0  0
   24.0349  -18.6471  -15.6883 N   0  0  0  0  0  0  0  0  0  0  0  0
   23.5376  -17.4546  -16.3288 C   0  0  0  0  0  0  0  0  0  0  0  0
   24.5834  -16.8215  -17.1802 C   0  0  0  0  0  0  0  0  0  0  0  0
   25.7816  -17.0926  -16.9538 O   0  0  0  0  0  0  0  0  0  0  0  0
   24.2775  -15.9478  -18.2084 O   0  0  0  0  0  0  0  0  0  0  0  0
  2  1  1  0
  3  2  2  0
  4  2  1  0
  5  4  1  0
  6  5  1  0
  6  7  1  1
  8  6  1  0
  8 12  1  0
  9  8  2  0
 11 10  1  1
 11 12  1  0
 11 13  1  0
 13 15  1  0
 14 13  2  0
 15 16  1  0
 16 17  1  0
 17 19  1  0
 18 17  2  0
M  END
$$$$
