QAG.pdb
     RDKit          3D

 19 18  0  0  1  0  0  0  0  0999 V2000
   25.9601  -14.5690  -19.9151 N   0  0  0  0  0  0  0  0  0  0  0  0
   25.2467  -15.1759  -18.8303 C   0  0  0  0  0  0  0  0  0  0  0  0
   25.1608  -16.4296  -18.9188 O   0  0  0  0  0  0  0  0  0  0  0  0
   24.6986  -14.3388  -17.7595 C   0  0  0  0  0  0  0  0  0  0  0  0
   24.8119  -12.8768  -17.8887 C   0  0  0  0  0  0  0  0  0  0  0  0
   24.9606  -12.0694  -16.6427 C   0  0  2  0  0  0  0  0  0  0  0  0
   24.7681  -12.8074  -15.4244 N   0  0  0  0  0  0  0  0  0  0  0  0
   23.9449  -10.9840  -16.6773 C   0  0  0  0  0  0  0  0  0  0  0  0
   24.0228  -10.1861  -17.6568 O   0  0  0  0  0  0  0  0  0  0  0  0
   20.5535  -10.1422  -15.5769 C   0  0  0  0  0  0  0  0  0  0  0  0
   21.9561   -9.6864  -15.8485 C   0  0  2  0  0  0  0  0  0  0  0  0
   22.9272  -10.7638  -15.7437 N   0  0  0  0  0  0  0  0  0  0  0  0
   22.3513   -8.6138  -14.8871 C   0  0  0  0  0  0  0  0  0  0  0  0
   22.9807   -8.8830  -13.8291 O   0  0  0  0  0  0  0  0  0  0  0  0
   22.0135   -7.2598  -15.1657 N   0  0  0  0  0  0  0  0  0  0  0  0
   22.3995   -6.2516  -14.2095 C   0  0  0  0  0  0  0  0  0  0  0  0
   22.0336   -4.8877  -14.6840 C   0  0  0  0  0  0  0  0  0  0  0  0
   21.5468   -4.7646  -15.8277 O   0  0  0  0  0  0  0  0  0  0  0  0
   22.2128   -3.7568  -13.9074 O   0  0  0  0  0  0  0  0  0  0  0  0
  2  1  1  0
  3  2  2  0
  4  2  1  0
  5  4  1  0
  6  5  1  0
  6  7  1  1
  8  6  1  0
  8 12  1  0
  9  8  2  0
 11 10  1  1
 11 12  1  0
 11 13  1  0
 13 15  1  0
 14 13  2  0
 15 16  1  0
 16 17  1  0
 17 19  1  0
 18 17  2  0
M  END
$$$$
