QAG.pdb
     RDKit          3D

 19 18  0  0  1  0  0  0  0  0999 V2000
   27.3326  -10.5248  -15.3145 N   0  0  0  0  0  0  0  0  0  0  0  0
   26.4386  -11.2686  -16.1522 C   0  0  0  0  0  0  0  0  0  0  0  0
   26.5811  -12.5170  -16.0626 O   0  0  0  0  0  0  0  0  0  0  0  0
   25.4802  -10.5604  -17.0052 C   0  0  0  0  0  0  0  0  0  0  0  0
   25.4729   -9.0886  -16.9747 C   0  0  0  0  0  0  0  0  0  0  0  0
   24.2356   -8.4005  -16.5033 C   0  0  2  0  0  0  0  0  0  0  0  0
   23.0124   -9.0887  -16.8134 N   0  0  0  0  0  0  0  0  0  0  0  0
   24.1788   -7.0650  -17.1546 C   0  0  0  0  0  0  0  0  0  0  0  0
   25.1710   -6.3069  -16.9469 O   0  0  0  0  0  0  0  0  0  0  0  0
   22.7783   -5.1670  -19.9452 C   0  0  0  0  0  0  0  0  0  0  0  0
   23.1090   -5.2168  -18.4834 C   0  0  2  0  0  0  0  0  0  0  0  0
   23.1482   -6.5739  -17.9623 N   0  0  0  0  0  0  0  0  0  0  0  0
   22.1006   -4.4482  -17.6941 C   0  0  0  0  0  0  0  0  0  0  0  0
   21.8565   -3.2379  -17.9464 O   0  0  0  0  0  0  0  0  0  0  0  0
   21.3985   -5.0893  -16.6353 N   0  0  0  0  0  0  0  0  0  0  0  0
   20.4385   -4.3147  -15.8882 C   0  0  0  0  0  0  0  0  0  0  0  0
   21.0586   -3.7060  -14.6781 C   0  0  0  0  0  0  0  0  0  0  0  0
   20.7139   -2.5518  -14.3477 O   0  0  0  0  0  0  0  0  0  0  0  0
   21.9985   -4.3698  -13.9099 O   0  0  0  0  0  0  0  0  0  0  0  0
  2  1  1  0
  3  2  2  0
  4  2  1  0
  5  4  1  0
  6  5  1  0
  6  7  1  6
  8  6  1  0
  8 12  1  0
  9  8  2  0
 11 10  1  6
 11 12  1  0
 11 13  1  0
 13 15  1  0
 14 13  2  0
 15 16  1  0
 16 17  1  0
 17 19  1  0
 18 17  2  0
M  END
$$$$
