QAG.pdb
     RDKit          3D

 19 18  0  0  1  0  0  0  0  0999 V2000
   16.1800  -10.0378  -15.2493 N   0  0  0  0  0  0  0  0  0  0  0  0
   15.0386   -9.6649  -14.4668 C   0  0  0  0  0  0  0  0  0  0  0  0
   13.9649  -10.2012  -14.8493 O   0  0  0  0  0  0  0  0  0  0  0  0
   15.1967   -8.7368  -13.3436 C   0  0  0  0  0  0  0  0  0  0  0  0
   16.5480   -8.2448  -13.0292 C   0  0  0  0  0  0  0  0  0  0  0  0
   17.4577   -9.1351  -12.2503 C   0  0  2  0  0  0  0  0  0  0  0  0
   17.0844   -9.3164  -10.8742 N   0  0  0  0  0  0  0  0  0  0  0  0
   18.8168   -8.5325  -12.2730 C   0  0  0  0  0  0  0  0  0  0  0  0
   19.0937   -7.7586  -11.3103 O   0  0  0  0  0  0  0  0  0  0  0  0
   22.0744   -8.6677  -14.1847 C   0  0  0  0  0  0  0  0  0  0  0  0
   21.0815   -8.0421  -13.2511 C   0  0  2  0  0  0  0  0  0  0  0  0
   19.8035   -8.7360  -13.2429 N   0  0  0  0  0  0  0  0  0  0  0  0
   20.8319   -6.6196  -13.6319 C   0  0  0  0  0  0  0  0  0  0  0  0
   19.8291   -6.2934  -14.3219 O   0  0  0  0  0  0  0  0  0  0  0  0
   21.7403   -5.6085  -13.2106 N   0  0  0  0  0  0  0  0  0  0  0  0
   21.4037   -4.2336  -13.4861 C   0  0  0  0  0  0  0  0  0  0  0  0
   21.7967   -3.8473  -14.8701 C   0  0  0  0  0  0  0  0  0  0  0  0
   22.3532   -4.7010  -15.5925 O   0  0  0  0  0  0  0  0  0  0  0  0
   21.5688   -2.5825  -15.3827 O   0  0  0  0  0  0  0  0  0  0  0  0
  2  1  1  0
  3  2  2  0
  4  2  1  0
  5  4  1  0
  6  5  1  0
  6  7  1  1
  8  6  1  0
  8 12  1  0
  9  8  2  0
 11 10  1  6
 11 12  1  0
 11 13  1  0
 13 15  1  0
 14 13  2  0
 15 16  1  0
 16 17  1  0
 17 19  1  0
 18 17  2  0
M  END
$$$$
