KVC.pdb
     RDKit          3D

 23 22  0  0  1  0  0  0  0  0999 V2000
   22.9550  -20.5066  -14.1547 N   0  0  0  0  0  0  0  0  0  0  0  0
   21.8067  -20.3216  -13.3061 C   0  0  1  0  0  0  0  0  0  0  0  0
   20.5279  -20.3736  -14.0896 C   0  0  0  0  0  0  0  0  0  0  0  0
   20.5045  -19.3073  -15.1385 C   0  0  0  0  0  0  0  0  0  0  0  0
   21.8362  -18.6359  -15.3667 C   0  0  0  0  0  0  0  0  0  0  0  0
   21.6205  -17.6213  -16.4917 C   0  0  0  0  0  0  0  0  0  0  0  0
   21.8321  -18.3398  -17.7467 N   0  0  0  0  0  0  0  0  0  0  0  0
   21.7946  -21.2808  -12.1665 C   0  0  0  0  0  0  0  0  0  0  0  0
   22.1745  -22.4525  -12.4139 O   0  0  0  0  0  0  0  0  0  0  0  0
   21.6740  -19.9622   -8.2390 C   0  0  0  0  0  0  0  0  0  0  0  0
   22.3072  -21.2347   -8.6452 C   0  0  2  0  0  0  0  0  0  0  0  0
   23.7576  -20.9857   -8.9999 C   0  0  0  0  0  0  0  0  0  0  0  0
   21.5534  -21.9184   -9.7413 C   0  0  2  0  0  0  0  0  0  0  0  0
   21.3954  -20.9607  -10.8717 N   0  0  0  0  0  0  0  0  0  0  0  0
   20.1940  -22.3809   -9.3737 C   0  0  0  0  0  0  0  0  0  0  0  0
   19.1922  -21.5725   -9.4622 O   0  0  0  0  0  0  0  0  0  0  0  0
   19.8580  -23.6629   -8.9225 N   0  0  0  0  0  0  0  0  0  0  0  0
   18.5212  -24.0353   -8.4894 C   0  0  1  0  0  0  0  0  0  0  0  0
   18.5027  -25.5714   -8.5239 C   0  0  0  0  0  0  0  0  0  0  0  0
   16.9934  -26.2341   -7.8182 S   0  0  0  0  0  0  0  0  0  0  0  0
   18.3629  -23.6547   -7.0770 C   0  0  0  0  0  0  0  0  0  0  0  0
   19.3341  -23.5994   -6.2640 O   0  0  0  0  0  0  0  0  0  0  0  0
   17.1217  -23.3368   -6.5763 O   0  0  0  0  0  0  0  0  0  0  0  0
  2  1  1  6
  2  3  1  0
  3  4  1  0
  4  5  1  0
  5  6  1  0
  6  7  1  0
  8  2  1  0
  8 14  1  0
  9  8  2  0
 11 10  1  6
 11 13  1  0
 11 12  1  0
 13 14  1  6
 15 17  1  0
 15 13  1  0
 16 15  2  0
 18 17  1  0
 18 21  1  0
 18 19  1  1
 20 19  1  0
 21 23  1  0
 22 21  2  0
M  END
$$$$
