KVC.pdb
     RDKit          3D

 23 22  0  0  1  0  0  0  0  0999 V2000
   17.2321  -12.7034  -17.1911 N   0  0  0  0  0  0  0  0  0  0  0  0
   18.3623  -12.1044  -16.5302 C   0  0  1  0  0  0  0  0  0  0  0  0
   19.6597  -12.6248  -17.0759 C   0  0  0  0  0  0  0  0  0  0  0  0
   19.7507  -14.1081  -16.9041 C   0  0  0  0  0  0  0  0  0  0  0  0
   21.0207  -14.7160  -17.4465 C   0  0  0  0  0  0  0  0  0  0  0  0
   20.8860  -16.2295  -17.2652 C   0  0  0  0  0  0  0  0  0  0  0  0
   22.1016  -16.8247  -17.8167 N   0  0  0  0  0  0  0  0  0  0  0  0
   18.3060  -10.6163  -16.5668 C   0  0  0  0  0  0  0  0  0  0  0  0
   18.0691  -10.0900  -17.6827 O   0  0  0  0  0  0  0  0  0  0  0  0
   15.9759   -8.1948  -15.9253 C   0  0  0  0  0  0  0  0  0  0  0  0
   17.0943   -7.8702  -15.0149 C   0  0  2  0  0  0  0  0  0  0  0  0
   17.0607   -6.3942  -14.6808 C   0  0  0  0  0  0  0  0  0  0  0  0
   18.4157   -8.3091  -15.5613 C   0  0  2  0  0  0  0  0  0  0  0  0
   18.4967   -9.7934  -15.4601 N   0  0  0  0  0  0  0  0  0  0  0  0
   19.5990   -7.7627  -14.8555 C   0  0  0  0  0  0  0  0  0  0  0  0
   19.8910   -8.1787  -13.6695 O   0  0  0  0  0  0  0  0  0  0  0  0
   20.4822   -6.8002  -15.3591 N   0  0  0  0  0  0  0  0  0  0  0  0
   21.6028   -6.2668  -14.6022 C   0  0  1  0  0  0  0  0  0  0  0  0
   22.7909   -6.2897  -15.5764 C   0  0  0  0  0  0  0  0  0  0  0  0
   24.1777   -5.3374  -14.9560 S   0  0  0  0  0  0  0  0  0  0  0  0
   21.3389   -4.8491  -14.3102 C   0  0  0  0  0  0  0  0  0  0  0  0
   20.6029   -4.1193  -15.0403 O   0  0  0  0  0  0  0  0  0  0  0  0
   21.8968   -4.2502  -13.2046 O   0  0  0  0  0  0  0  0  0  0  0  0
  2  1  1  6
  2  3  1  0
  3  4  1  0
  4  5  1  0
  5  6  1  0
  6  7  1  0
  8  2  1  0
  8 14  1  0
  9  8  2  0
 11 10  1  6
 11 13  1  0
 11 12  1  0
 13 14  1  1
 15 17  1  0
 15 13  1  0
 16 15  2  0
 18 17  1  0
 18 21  1  0
 18 19  1  6
 20 19  1  0
 21 23  1  0
 22 21  2  0
M  END
$$$$
