KVC.pdb
     RDKit          3D

 23 22  0  0  1  0  0  0  0  0999 V2000
   17.3173  -11.6834  -17.6932 N   0  0  0  0  0  0  0  0  0  0  0  0
   18.2927  -11.2101  -16.7459 C   0  0  1  0  0  0  0  0  0  0  0  0
   19.6434  -11.8138  -16.9971 C   0  0  0  0  0  0  0  0  0  0  0  0
   19.5595  -13.3071  -17.0292 C   0  0  0  0  0  0  0  0  0  0  0  0
   20.8976  -13.9994  -17.1104 C   0  0  0  0  0  0  0  0  0  0  0  0
   20.6071  -15.5018  -17.1003 C   0  0  0  0  0  0  0  0  0  0  0  0
   21.9012  -16.1766  -17.1783 N   0  0  0  0  0  0  0  0  0  0  0  0
   18.3531   -9.7223  -16.7032 C   0  0  0  0  0  0  0  0  0  0  0  0
   18.3927   -9.1293  -17.8101 O   0  0  0  0  0  0  0  0  0  0  0  0
   15.8576   -7.3535  -15.8981 C   0  0  0  0  0  0  0  0  0  0  0  0
   16.9833   -7.0579  -14.9867 C   0  0  2  0  0  0  0  0  0  0  0  0
   16.9528   -5.5931  -14.6060 C   0  0  0  0  0  0  0  0  0  0  0  0
   18.3001   -7.4796  -15.5570 C   0  0  2  0  0  0  0  0  0  0  0  0
   18.3678   -8.9678  -15.5332 N   0  0  0  0  0  0  0  0  0  0  0  0
   19.4889   -6.9812  -14.8253 C   0  0  0  0  0  0  0  0  0  0  0  0
   19.7552   -7.4313  -13.6457 O   0  0  0  0  0  0  0  0  0  0  0  0
   20.4037   -6.0320  -15.2968 N   0  0  0  0  0  0  0  0  0  0  0  0
   21.5212   -5.5362  -14.5102 C   0  0  1  0  0  0  0  0  0  0  0  0
   22.7168   -5.5266  -15.4753 C   0  0  0  0  0  0  0  0  0  0  0  0
   24.1270   -4.6661  -14.7781 S   0  0  0  0  0  0  0  0  0  0  0  0
   21.2628   -4.1300  -14.1630 C   0  0  0  0  0  0  0  0  0  0  0  0
   20.5492   -3.3627  -14.8766 O   0  0  0  0  0  0  0  0  0  0  0  0
   21.8012   -3.5844  -13.0208 O   0  0  0  0  0  0  0  0  0  0  0  0
  2  1  1  6
  2  3  1  0
  3  4  1  0
  4  5  1  0
  5  6  1  0
  6  7  1  0
  8  2  1  0
  8 14  1  0
  9  8  2  0
 11 10  1  6
 11 13  1  0
 11 12  1  0
 13 14  1  1
 15 17  1  0
 15 13  1  0
 16 15  2  0
 18 17  1  0
 18 21  1  0
 18 19  1  6
 20 19  1  0
 21 23  1  0
 22 21  2  0
M  END
$$$$
