KVC.pdb
     RDKit          3D

 23 22  0  0  1  0  0  0  0  0999 V2000
   19.2240  -18.8886  -17.0862 N   0  0  0  0  0  0  0  0  0  0  0  0
   18.3589  -17.7399  -17.0178 C   0  0  1  0  0  0  0  0  0  0  0  0
   17.6047  -17.6941  -15.7212 C   0  0  0  0  0  0  0  0  0  0  0  0
   16.6219  -18.8188  -15.6390 C   0  0  0  0  0  0  0  0  0  0  0  0
   17.0966  -19.9956  -14.8228 C   0  0  0  0  0  0  0  0  0  0  0  0
   15.9938  -21.0530  -14.9088 C   0  0  0  0  0  0  0  0  0  0  0  0
   16.5073  -22.2457  -14.2380 N   0  0  0  0  0  0  0  0  0  0  0  0
   19.0955  -16.4705  -17.2723 C   0  0  0  0  0  0  0  0  0  0  0  0
   20.2845  -16.4200  -16.8695 O   0  0  0  0  0  0  0  0  0  0  0  0
   20.4290  -15.0867  -20.2135 C   0  0  0  0  0  0  0  0  0  0  0  0
   19.5497  -14.0273  -19.6754 C   0  0  2  0  0  0  0  0  0  0  0  0
   20.0775  -12.6721  -20.0953 C   0  0  0  0  0  0  0  0  0  0  0  0
   19.3640  -14.1420  -18.1957 C   0  0  2  0  0  0  0  0  0  0  0  0
   18.5544  -15.3613  -17.9167 N   0  0  0  0  0  0  0  0  0  0  0  0
   18.6606  -13.0018  -17.5616 C   0  0  0  0  0  0  0  0  0  0  0  0
   17.4299  -13.1273  -17.1945 O   0  0  0  0  0  0  0  0  0  0  0  0
   19.2115  -11.7418  -17.2993 N   0  0  0  0  0  0  0  0  0  0  0  0
   18.4939  -10.6807  -16.6119 C   0  0  1  0  0  0  0  0  0  0  0  0
   18.4029  -11.1419  -15.1489 C   0  0  0  0  0  0  0  0  0  0  0  0
   17.9045   -9.8066  -14.0608 S   0  0  0  0  0  0  0  0  0  0  0  0
   19.3332   -9.4723  -16.6096 C   0  0  0  0  0  0  0  0  0  0  0  0
   18.9136   -8.3410  -16.2205 O   0  0  0  0  0  0  0  0  0  0  0  0
   20.6381   -9.5299  -17.0414 O   0  0  0  0  0  0  0  0  0  0  0  0
  2  1  1  1
  2  3  1  0
  3  4  1  0
  4  5  1  0
  5  6  1  0
  6  7  1  0
  8  2  1  0
  8 14  1  0
  9  8  2  0
 11 10  1  1
 11 13  1  0
 11 12  1  0
 13 14  1  6
 15 17  1  0
 15 13  1  0
 16 15  2  0
 18 17  1  0
 18 21  1  0
 18 19  1  1
 20 19  1  0
 21 23  1  0
 22 21  2  0
M  END
$$$$
