KVC.pdb
     RDKit          3D

 23 22  0  0  1  0  0  0  0  0999 V2000
   44.3325  -15.6035   -7.9336 N   0  0  0  0  0  0  0  0  0  0  0  0
   43.8522  -14.4318   -8.6186 C   0  0  1  0  0  0  0  0  0  0  0  0
   42.8996  -14.7896   -9.7215 C   0  0  0  0  0  0  0  0  0  0  0  0
   43.6416  -15.2696  -10.9285 C   0  0  0  0  0  0  0  0  0  0  0  0
   42.7544  -15.6520  -12.0875 C   0  0  0  0  0  0  0  0  0  0  0  0
   43.6851  -16.1351  -13.2020 C   0  0  0  0  0  0  0  0  0  0  0  0
   42.8384  -16.4126  -14.3605 N   0  0  0  0  0  0  0  0  0  0  0  0
   43.2599  -13.4395   -7.6787 C   0  0  0  0  0  0  0  0  0  0  0  0
   42.5929  -13.9020   -6.7196 O   0  0  0  0  0  0  0  0  0  0  0  0
   44.7992  -11.0252   -5.4386 C   0  0  0  0  0  0  0  0  0  0  0  0
   43.8329  -10.2521   -6.2471 C   0  0  2  0  0  0  0  0  0  0  0  0
   43.2745   -9.1167   -5.4162 C   0  0  0  0  0  0  0  0  0  0  0  0
   42.7644  -11.1182   -6.8346 C   0  0  2  0  0  0  0  0  0  0  0  0
   43.3996  -12.0596   -7.7991 N   0  0  0  0  0  0  0  0  0  0  0  0
   41.7045  -10.3922   -7.5739 C   0  0  0  0  0  0  0  0  0  0  0  0
   41.9647   -9.8669   -8.7234 O   0  0  0  0  0  0  0  0  0  0  0  0
   40.3848  -10.2072   -7.1444 N   0  0  0  0  0  0  0  0  0  0  0  0
   39.4030   -9.4304   -7.8834 C   0  0  1  0  0  0  0  0  0  0  0  0
   38.0785   -9.6426   -7.1339 C   0  0  0  0  0  0  0  0  0  0  0  0
   36.7776   -8.5856   -7.7708 S   0  0  0  0  0  0  0  0  0  0  0  0
   39.7309   -8.0032   -7.7412 C   0  0  0  0  0  0  0  0  0  0  0  0
   40.1607   -7.4980   -6.6608 O   0  0  0  0  0  0  0  0  0  0  0  0
   39.5785   -7.1442   -8.8048 O   0  0  0  0  0  0  0  0  0  0  0  0
  2  1  1  1
  2  3  1  0
  3  4  1  0
  4  5  1  0
  5  6  1  0
  6  7  1  0
  8  2  1  0
  8 14  1  0
  9  8  2  0
 11 10  1  1
 11 13  1  0
 11 12  1  0
 13 14  1  6
 15 17  1  0
 15 13  1  0
 16 15  2  0
 18 17  1  0
 18 21  1  0
 18 19  1  1
 20 19  1  0
 21 23  1  0
 22 21  2  0
M  END
$$$$
