KVC.pdb
     RDKit          3D

 23 22  0  0  1  0  0  0  0  0999 V2000
   26.3804  -22.0782  -11.4333 N   0  0  0  0  0  0  0  0  0  0  0  0
   25.7148  -20.8268  -11.6857 C   0  0  1  0  0  0  0  0  0  0  0  0
   25.7594  -19.9266  -10.4859 C   0  0  0  0  0  0  0  0  0  0  0  0
   24.3915  -19.7437   -9.9086 C   0  0  0  0  0  0  0  0  0  0  0  0
   23.9935  -20.8063   -8.9143 C   0  0  0  0  0  0  0  0  0  0  0  0
   22.5015  -20.6039   -8.6408 C   0  0  0  0  0  0  0  0  0  0  0  0
   22.1147  -21.6227   -7.6668 N   0  0  0  0  0  0  0  0  0  0  0  0
   26.2424  -20.1496  -12.9030 C   0  0  0  0  0  0  0  0  0  0  0  0
   27.4257  -19.7313  -12.8453 O   0  0  0  0  0  0  0  0  0  0  0  0
   26.9096  -21.5564  -16.0849 C   0  0  0  0  0  0  0  0  0  0  0  0
   26.0928  -20.3632  -16.3917 C   0  0  2  0  0  0  0  0  0  0  0  0
   26.5187  -19.7899  -17.7264 C   0  0  0  0  0  0  0  0  0  0  0  0
   26.1301  -19.3521  -15.2901 C   0  0  2  0  0  0  0  0  0  0  0  0
   25.5160  -19.9578  -14.0751 N   0  0  0  0  0  0  0  0  0  0  0  0
   25.3933  -18.0961  -15.5663 C   0  0  0  0  0  0  0  0  0  0  0  0
   24.1169  -18.0443  -15.3843 O   0  0  0  0  0  0  0  0  0  0  0  0
   25.9566  -16.8979  -16.0215 N   0  0  0  0  0  0  0  0  0  0  0  0
   25.1770  -15.7070  -16.3167 C   0  0  1  0  0  0  0  0  0  0  0  0
   26.1599  -14.5363  -16.1607 C   0  0  0  0  0  0  0  0  0  0  0  0
   26.4352  -14.1247  -14.4373 S   0  0  0  0  0  0  0  0  0  0  0  0
   24.7961  -15.7364  -17.7376 C   0  0  0  0  0  0  0  0  0  0  0  0
   25.3275  -16.5222  -18.5786 O   0  0  0  0  0  0  0  0  0  0  0  0
   23.8235  -14.8891  -18.2155 O   0  0  0  0  0  0  0  0  0  0  0  0
  2  1  1  1
  2  3  1  0
  3  4  1  0
  4  5  1  0
  5  6  1  0
  6  7  1  0
  8  2  1  0
  8 14  1  0
  9  8  2  0
 11 10  1  1
 11 13  1  0
 11 12  1  0
 13 14  1  1
 15 17  1  0
 15 13  1  0
 16 15  2  0
 18 17  1  0
 18 21  1  0
 18 19  1  6
 20 19  1  0
 21 23  1  0
 22 21  2  0
M  END
$$$$
