KVC.pdb
     RDKit          3D

 23 22  0  0  1  0  0  0  0  0999 V2000
   25.5137  -19.6476  -14.2661 N   0  0  0  0  0  0  0  0  0  0  0  0
   26.6377  -19.8230  -13.3837 C   0  0  1  0  0  0  0  0  0  0  0  0
   27.8119  -18.9939  -13.8147 C   0  0  0  0  0  0  0  0  0  0  0  0
   28.3847  -19.5110  -15.0962 C   0  0  0  0  0  0  0  0  0  0  0  0
   28.8080  -20.9582  -15.0442 C   0  0  0  0  0  0  0  0  0  0  0  0
   29.4751  -21.2610  -16.3876 C   0  0  0  0  0  0  0  0  0  0  0  0
   29.8583  -22.6711  -16.3539 N   0  0  0  0  0  0  0  0  0  0  0  0
   26.2755  -19.5686  -11.9613 C   0  0  0  0  0  0  0  0  0  0  0  0
   25.7465  -18.4580  -11.7059 O   0  0  0  0  0  0  0  0  0  0  0  0
   23.7986  -21.1174  -10.1805 C   0  0  0  0  0  0  0  0  0  0  0  0
   24.9187  -21.1839   -9.2182 C   0  0  2  0  0  0  0  0  0  0  0  0
   24.3846  -21.0272   -7.8106 C   0  0  0  0  0  0  0  0  0  0  0  0
   26.0004  -20.2018   -9.5386 C   0  0  2  0  0  0  0  0  0  0  0  0
   26.4849  -20.4706  -10.9217 N   0  0  0  0  0  0  0  0  0  0  0  0
   27.1835  -20.2590   -8.6476 C   0  0  0  0  0  0  0  0  0  0  0  0
   28.0175  -21.2388   -8.7457 O   0  0  0  0  0  0  0  0  0  0  0  0
   27.5163  -19.3191   -7.6649 N   0  0  0  0  0  0  0  0  0  0  0  0
   28.4305  -19.5950   -6.5688 C   0  0  1  0  0  0  0  0  0  0  0  0
   28.7771  -18.2185   -5.9805 C   0  0  0  0  0  0  0  0  0  0  0  0
   29.6944  -18.3629   -4.4466 S   0  0  0  0  0  0  0  0  0  0  0  0
   27.6974  -20.3177   -5.5176 C   0  0  0  0  0  0  0  0  0  0  0  0
   26.4441  -20.2168   -5.3560 O   0  0  0  0  0  0  0  0  0  0  0  0
   28.3650  -21.1508   -4.6500 O   0  0  0  0  0  0  0  0  0  0  0  0
  2  1  1  6
  2  3  1  0
  3  4  1  0
  4  5  1  0
  5  6  1  0
  6  7  1  0
  8  2  1  0
  8 14  1  0
  9  8  2  0
 11 10  1  6
 11 13  1  0
 11 12  1  0
 13 14  1  6
 15 17  1  0
 15 13  1  0
 16 15  2  0
 18 17  1  0
 18 21  1  0
 18 19  1  1
 20 19  1  0
 21 23  1  0
 22 21  2  0
M  END
$$$$
