KVC.pdb
     RDKit          3D

 23 22  0  0  1  0  0  0  0  0999 V2000
   26.7447  -18.2571  -18.6388 N   0  0  0  0  0  0  0  0  0  0  0  0
   26.0410  -17.9872  -17.4120 C   0  0  1  0  0  0  0  0  0  0  0  0
   24.8201  -17.1477  -17.6499 C   0  0  0  0  0  0  0  0  0  0  0  0
   25.1220  -16.0279  -18.5947 C   0  0  0  0  0  0  0  0  0  0  0  0
   24.2067  -15.9666  -19.7926 C   0  0  0  0  0  0  0  0  0  0  0  0
   24.5780  -14.6925  -20.5544 C   0  0  0  0  0  0  0  0  0  0  0  0
   23.7285  -14.6554  -21.7431 N   0  0  0  0  0  0  0  0  0  0  0  0
   25.7150  -19.2365  -16.6692 C   0  0  0  0  0  0  0  0  0  0  0  0
   25.3417  -20.2188  -17.3578 O   0  0  0  0  0  0  0  0  0  0  0  0
   26.9098  -20.1339  -12.6724 C   0  0  0  0  0  0  0  0  0  0  0  0
   26.6379  -21.0748  -13.7796 C   0  0  2  0  0  0  0  0  0  0  0  0
   27.8936  -21.2597  -14.6044 C   0  0  0  0  0  0  0  0  0  0  0  0
   25.4618  -20.6559  -14.6034 C   0  0  2  0  0  0  0  0  0  0  0  0
   25.7984  -19.3752  -15.2864 N   0  0  0  0  0  0  0  0  0  0  0  0
   24.2125  -20.4235  -13.8405 C   0  0  0  0  0  0  0  0  0  0  0  0
   24.1109  -19.3947  -13.0683 O   0  0  0  0  0  0  0  0  0  0  0  0
   23.0713  -21.2340  -13.8688 N   0  0  0  0  0  0  0  0  0  0  0  0
   21.8698  -20.9536  -13.1000 C   0  0  1  0  0  0  0  0  0  0  0  0
   21.1213  -19.8797  -13.9048 C   0  0  0  0  0  0  0  0  0  0  0  0
   19.5499  -19.4588  -13.1507 S   0  0  0  0  0  0  0  0  0  0  0  0
   21.0133  -22.1497  -13.1160 C   0  0  0  0  0  0  0  0  0  0  0  0
   21.2414  -23.1523  -13.8577 O   0  0  0  0  0  0  0  0  0  0  0  0
   19.9050  -22.2236  -12.3044 O   0  0  0  0  0  0  0  0  0  0  0  0
  2  1  1  6
  2  3  1  0
  3  4  1  0
  4  5  1  0
  5  6  1  0
  6  7  1  0
  8  2  1  0
  8 14  1  0
  9  8  2  0
 11 10  1  1
 11 13  1  0
 11 12  1  0
 13 14  1  1
 15 17  1  0
 15 13  1  0
 16 15  2  0
 18 17  1  0
 18 21  1  0
 18 19  1  6
 20 19  1  0
 21 23  1  0
 22 21  2  0
M  END
$$$$
