KVC.pdb
     RDKit          3D

 23 22  0  0  1  0  0  0  0  0999 V2000
   19.4333  -14.2767  -17.5149 N   0  0  0  0  0  0  0  0  0  0  0  0
   19.9662  -13.0280  -17.9942 C   0  0  1  0  0  0  0  0  0  0  0  0
   19.1254  -12.4573  -19.0984 C   0  0  0  0  0  0  0  0  0  0  0  0
   19.2476  -13.2834  -20.3395 C   0  0  0  0  0  0  0  0  0  0  0  0
   18.4360  -14.5551  -20.3176 C   0  0  0  0  0  0  0  0  0  0  0  0
   18.5931  -15.1909  -21.7006 C   0  0  0  0  0  0  0  0  0  0  0  0
   17.8753  -16.4633  -21.6579 N   0  0  0  0  0  0  0  0  0  0  0  0
   20.1676  -12.0472  -16.8913 C   0  0  0  0  0  0  0  0  0  0  0  0
   19.2731  -12.0004  -16.0102 O   0  0  0  0  0  0  0  0  0  0  0  0
   23.0943  -11.6872  -14.5915 C   0  0  0  0  0  0  0  0  0  0  0  0
   22.7960  -10.3375  -15.1155 C   0  0  2  0  0  0  0  0  0  0  0  0
   23.0868   -9.3057  -14.0467 C   0  0  0  0  0  0  0  0  0  0  0  0
   21.4052  -10.2338  -15.6558 C   0  0  2  0  0  0  0  0  0  0  0  0
   21.2656  -11.1981  -16.7830 N   0  0  0  0  0  0  0  0  0  0  0  0
   21.0343   -8.8984  -16.1811 C   0  0  0  0  0  0  0  0  0  0  0  0
   21.2832   -8.5977  -17.4110 O   0  0  0  0  0  0  0  0  0  0  0  0
   20.4087   -7.8768  -15.4565 N   0  0  0  0  0  0  0  0  0  0  0  0
   20.0609   -6.5862  -16.0279 C   0  0  1  0  0  0  0  0  0  0  0  0
   18.9177   -6.8791  -17.0120 C   0  0  0  0  0  0  0  0  0  0  0  0
   18.1458   -5.3721  -17.6020 S   0  0  0  0  0  0  0  0  0  0  0  0
   19.4842   -5.7443  -14.9680 C   0  0  0  0  0  0  0  0  0  0  0  0
   18.8208   -6.2160  -13.9961 O   0  0  0  0  0  0  0  0  0  0  0  0
   19.6496   -4.3789  -14.9957 O   0  0  0  0  0  0  0  0  0  0  0  0
  2  1  1  1
  2  3  1  0
  3  4  1  0
  4  5  1  0
  5  6  1  0
  6  7  1  0
  8  2  1  0
  8 14  1  0
  9  8  2  0
 11 10  1  1
 11 13  1  0
 11 12  1  0
 13 14  1  6
 15 17  1  0
 15 13  1  0
 16 15  2  0
 18 17  1  0
 18 21  1  0
 18 19  1  6
 20 19  1  0
 21 23  1  0
 22 21  2  0
M  END
$$$$
