WMQ.pdb
     RDKit          3D

 32 33  0  0  1  0  0  0  0  0999 V2000
   28.3761  -20.9348  -14.7177 N   0  0  0  0  0  0  0  0  0  0  0  0
   27.6128  -20.1378  -13.8062 C   0  0  1  0  0  0  0  0  0  0  0  0
   26.2899  -19.6683  -14.3217 C   0  0  0  0  0  0  0  0  0  0  0  0
   26.3958  -18.7868  -15.4987 C   0  0  0  0  0  0  0  0  0  0  0  0
   26.0567  -19.1363  -16.7757 C   0  0  0  0  0  0  0  0  0  0  0  0
   26.2733  -18.0653  -17.5491 N   0  0  0  0  0  0  0  0  0  0  0  0
   26.7389  -17.0477  -16.8060 C   0  0  0  0  0  0  0  0  0  0  0  0
   27.1133  -15.7643  -17.1064 C   0  0  0  0  0  0  0  0  0  0  0  0
   27.5754  -14.8882  -16.1491 C   0  0  0  0  0  0  0  0  0  0  0  0
   27.6616  -15.3263  -14.8440 C   0  0  0  0  0  0  0  0  0  0  0  0
   27.2882  -16.6154  -14.5263 C   0  0  0  0  0  0  0  0  0  0  0  0
   26.8248  -17.4854  -15.4978 C   0  0  0  0  0  0  0  0  0  0  0  0
   27.3489  -20.9612  -12.5747 C   0  0  0  0  0  0  0  0  0  0  0  0
   26.8629  -22.1148  -12.6839 O   0  0  0  0  0  0  0  0  0  0  0  0
   26.4529  -20.4695   -4.7643 C   0  0  0  0  0  0  0  0  0  0  0  0
   27.2818  -19.7249   -6.2191 S   0  0  0  0  0  0  0  0  0  0  0  0
   26.5535  -20.4621   -7.6894 C   0  0  0  0  0  0  0  0  0  0  0  0
   27.3035  -20.1572   -8.9388 C   0  0  0  0  0  0  0  0  0  0  0  0
   26.7058  -20.7706  -10.1917 C   0  0  2  0  0  0  0  0  0  0  0  0
   27.6274  -20.4901  -11.2749 N   0  0  0  0  0  0  0  0  0  0  0  0
   25.3690  -20.1718  -10.4786 C   0  0  0  0  0  0  0  0  0  0  0  0
   25.2340  -19.1469  -11.1858 O   0  0  0  0  0  0  0  0  0  0  0  0
   24.0929  -24.3577  -13.3989 N   0  0  0  0  0  0  0  0  0  0  0  0
   22.7512  -23.9173  -13.3881 C   0  0  0  0  0  0  0  0  0  0  0  0
   21.9439  -24.4815  -14.1469 O   0  0  0  0  0  0  0  0  0  0  0  0
   22.3354  -22.8224  -12.5015 C   0  0  0  0  0  0  0  0  0  0  0  0
   23.4226  -22.2420  -11.6608 C   0  0  0  0  0  0  0  0  0  0  0  0
   23.0255  -21.0895  -10.7961 C   0  0  2  0  0  0  0  0  0  0  0  0
   24.1707  -20.7440   -9.9571 N   0  0  0  0  0  0  0  0  0  0  0  0
   21.8224  -21.3349   -9.9967 C   0  0  0  0  0  0  0  0  0  0  0  0
   20.5552  -21.2284  -10.5857 O   0  0  0  0  0  0  0  0  0  0  0  0
   21.8376  -21.6444   -8.7814 O   0  0  0  0  0  0  0  0  0  0  0  0
  2  1  1  6
  2 13  1  0
  2  3  1  0
  4  5  2  0
  4  3  1  0
  6  5  1  0
  7 12  2  0
  7  6  1  0
  8  7  1  0
  9  8  2  0
  9 10  1  0
 10 11  2  0
 11 12  1  0
 12  4  1  0
 13 14  2  0
 16 15  1  0
 17 18  1  0
 17 16  1  0
 19 18  1  1
 19 21  1  0
 20 19  1  0
 20 13  1  0
 21 22  2  0
 23 24  1  0
 24 26  1  0
 24 25  2  0
 26 27  1  0
 28 27  1  1
 28 30  1  0
 29 21  1  0
 29 28  1  0
 30 32  2  0
 30 31  1  0
M  END
$$$$
