WMQ.pdb
     RDKit          3D

 32 33  0  0  1  0  0  0  0  0999 V2000
   24.8250  -21.2497   -9.4486 N   0  0  0  0  0  0  0  0  0  0  0  0
   25.2931  -20.4528  -10.5416 C   0  0  1  0  0  0  0  0  0  0  0  0
   26.5449  -20.9412  -11.1978 C   0  0  0  0  0  0  0  0  0  0  0  0
   27.6947  -21.0314  -10.2794 C   0  0  0  0  0  0  0  0  0  0  0  0
   28.8178  -21.7793  -10.4967 C   0  0  0  0  0  0  0  0  0  0  0  0
   29.6321  -21.5816   -9.4528 N   0  0  0  0  0  0  0  0  0  0  0  0
   29.0636  -20.7335   -8.5798 C   0  0  0  0  0  0  0  0  0  0  0  0
   29.4682  -20.2193   -7.3759 C   0  0  0  0  0  0  0  0  0  0  0  0
   28.6875  -19.3502   -6.6460 C   0  0  0  0  0  0  0  0  0  0  0  0
   27.4559  -18.9899   -7.1519 C   0  0  0  0  0  0  0  0  0  0  0  0
   27.0351  -19.4993   -8.3625 C   0  0  0  0  0  0  0  0  0  0  0  0
   27.8297  -20.3713   -9.0862 C   0  0  0  0  0  0  0  0  0  0  0  0
   24.2166  -20.4237  -11.5924 C   0  0  0  0  0  0  0  0  0  0  0  0
   23.0670  -20.8548  -11.3247 O   0  0  0  0  0  0  0  0  0  0  0  0
   20.5739  -16.8619  -16.7896 C   0  0  0  0  0  0  0  0  0  0  0  0
   21.6754  -17.2948  -15.3906 S   0  0  0  0  0  0  0  0  0  0  0  0
   22.8232  -18.5493  -15.9776 C   0  0  0  0  0  0  0  0  0  0  0  0
   23.8564  -18.9235  -14.9733 C   0  0  0  0  0  0  0  0  0  0  0  0
   23.3187  -19.6930  -13.7808 C   0  0  2  0  0  0  0  0  0  0  0  0
   24.4405  -19.9242  -12.8922 N   0  0  0  0  0  0  0  0  0  0  0  0
   22.7283  -20.9912  -14.2211 C   0  0  0  0  0  0  0  0  0  0  0  0
   23.4292  -21.9217  -14.6815 O   0  0  0  0  0  0  0  0  0  0  0  0
   17.0828  -22.8725  -12.3025 N   0  0  0  0  0  0  0  0  0  0  0  0
   18.2695  -22.5075  -11.6298 C   0  0  0  0  0  0  0  0  0  0  0  0
   18.2050  -22.2846  -10.4083 O   0  0  0  0  0  0  0  0  0  0  0  0
   19.5367  -22.3972  -12.3647 C   0  0  0  0  0  0  0  0  0  0  0  0
   19.4460  -22.6780  -13.8270 C   0  0  0  0  0  0  0  0  0  0  0  0
   20.7070  -22.4754  -14.6034 C   0  0  2  0  0  0  0  0  0  0  0  0
   21.3255  -21.2365  -14.1370 N   0  0  0  0  0  0  0  0  0  0  0  0
   20.5150  -22.4721  -16.0559 C   0  0  0  0  0  0  0  0  0  0  0  0
   20.6339  -23.6648  -16.7818 O   0  0  0  0  0  0  0  0  0  0  0  0
   20.2423  -21.4475  -16.7260 O   0  0  0  0  0  0  0  0  0  0  0  0
  2  1  1  1
  2 13  1  0
  2  3  1  0
  4  5  2  0
  4  3  1  0
  6  5  1  0
  7 12  2  0
  7  6  1  0
  8  7  1  0
  9  8  2  0
  9 10  1  0
 10 11  2  0
 11 12  1  0
 12  4  1  0
 13 14  2  0
 16 15  1  0
 17 18  1  0
 17 16  1  0
 19 18  1  6
 19 21  1  0
 20 19  1  0
 20 13  1  0
 21 22  2  0
 23 24  1  0
 24 26  1  0
 24 25  2  0
 26 27  1  0
 28 27  1  1
 28 30  1  0
 29 21  1  0
 29 28  1  0
 30 32  2  0
 30 31  1  0
M  END
$$$$
