WMQ.pdb
     RDKit          3D

 32 33  0  0  1  0  0  0  0  0999 V2000
   26.3253  -36.2221   -5.9229 N   0  0  0  0  0  0  0  0  0  0  0  0
   27.3220  -35.2259   -5.6723 C   0  0  1  0  0  0  0  0  0  0  0  0
   26.8678  -34.0599   -4.8536 C   0  0  0  0  0  0  0  0  0  0  0  0
   25.8737  -33.2122   -5.5367 C   0  0  0  0  0  0  0  0  0  0  0  0
   24.6094  -32.9614   -5.0822 C   0  0  0  0  0  0  0  0  0  0  0  0
   24.0292  -32.1373   -5.9632 N   0  0  0  0  0  0  0  0  0  0  0  0
   24.8826  -31.8566   -6.9620 C   0  0  0  0  0  0  0  0  0  0  0  0
   24.7820  -31.0851   -8.0898 C   0  0  0  0  0  0  0  0  0  0  0  0
   25.8178  -30.9550   -8.9886 C   0  0  0  0  0  0  0  0  0  0  0  0
   26.9947  -31.6290   -8.7371 C   0  0  0  0  0  0  0  0  0  0  0  0
   27.1109  -32.4094   -7.6059 C   0  0  0  0  0  0  0  0  0  0  0  0
   26.0626  -32.5309   -6.7105 C   0  0  0  0  0  0  0  0  0  0  0  0
   28.4586  -35.8787   -4.9333 C   0  0  0  0  0  0  0  0  0  0  0  0
   28.2477  -36.9032   -4.2371 O   0  0  0  0  0  0  0  0  0  0  0  0
   36.2421  -36.8635   -4.6551 C   0  0  0  0  0  0  0  0  0  0  0  0
   34.8297  -36.0819   -5.5224 S   0  0  0  0  0  0  0  0  0  0  0  0
   33.3453  -36.4529   -4.5766 C   0  0  0  0  0  0  0  0  0  0  0  0
   32.1214  -35.7965   -5.1128 C   0  0  0  0  0  0  0  0  0  0  0  0
   30.8517  -36.1220   -4.3479 C   0  0  2  0  0  0  0  0  0  0  0  0
   29.7787  -35.3852   -4.9862 N   0  0  0  0  0  0  0  0  0  0  0  0
   30.9847  -35.7128   -2.9187 C   0  0  0  0  0  0  0  0  0  0  0  0
   30.9493  -34.5128   -2.5614 O   0  0  0  0  0  0  0  0  0  0  0  0
   30.3839  -39.3271    2.9742 N   0  0  0  0  0  0  0  0  0  0  0  0
   30.3529  -37.9439    2.6911 C   0  0  0  0  0  0  0  0  0  0  0  0
   29.4459  -37.2626    3.1998 O   0  0  0  0  0  0  0  0  0  0  0  0
   31.3690  -37.3409    1.8181 C   0  0  0  0  0  0  0  0  0  0  0  0
   31.1283  -37.5120    0.3558 C   0  0  0  0  0  0  0  0  0  0  0  0
   31.4042  -36.3106   -0.4894 C   0  0  2  0  0  0  0  0  0  0  0  0
   31.1591  -36.6775   -1.8823 N   0  0  0  0  0  0  0  0  0  0  0  0
   32.7455  -35.7509   -0.3043 C   0  0  0  0  0  0  0  0  0  0  0  0
   33.8119  -36.2112   -1.0884 O   0  0  0  0  0  0  0  0  0  0  0  0
   33.0252  -34.8588    0.5318 O   0  0  0  0  0  0  0  0  0  0  0  0
  2  1  1  1
  2 13  1  0
  2  3  1  0
  4  5  2  0
  4  3  1  0
  6  5  1  0
  7 12  2  0
  7  6  1  0
  8  7  1  0
  9  8  2  0
  9 10  1  0
 10 11  2  0
 11 12  1  0
 12  4  1  0
 13 14  2  0
 16 15  1  0
 17 18  1  0
 17 16  1  0
 19 18  1  6
 19 21  1  0
 20 19  1  0
 20 13  1  0
 21 22  2  0
 23 24  1  0
 24 26  1  0
 24 25  2  0
 26 27  1  0
 28 27  1  1
 28 30  1  0
 29 21  1  0
 29 28  1  0
 30 32  2  0
 30 31  1  0
M  END
$$$$
