WMQ.pdb
     RDKit          3D

 32 33  0  0  1  0  0  0  0  0999 V2000
   25.0664  -20.7355  -15.1808 N   0  0  0  0  0  0  0  0  0  0  0  0
   24.1171  -20.0949  -14.3222 C   0  0  1  0  0  0  0  0  0  0  0  0
   22.7222  -20.0199  -14.8558 C   0  0  0  0  0  0  0  0  0  0  0  0
   22.5980  -19.1843  -16.0640 C   0  0  0  0  0  0  0  0  0  0  0  0
   23.1583  -19.4689  -17.2777 C   0  0  0  0  0  0  0  0  0  0  0  0
   22.8016  -18.4890  -18.1170 N   0  0  0  0  0  0  0  0  0  0  0  0
   22.0338  -17.5915  -17.4768 C   0  0  0  0  0  0  0  0  0  0  0  0
   21.4273  -16.4280  -17.8716 C   0  0  0  0  0  0  0  0  0  0  0  0
   20.6774  -15.6586  -17.0096 C   0  0  0  0  0  0  0  0  0  0  0  0
   20.5371  -16.0813  -15.7041 C   0  0  0  0  0  0  0  0  0  0  0  0
   21.1416  -17.2504  -15.2921 C   0  0  0  0  0  0  0  0  0  0  0  0
   21.8919  -18.0147  -16.1687 C   0  0  0  0  0  0  0  0  0  0  0  0
   24.0634  -20.8641  -13.0300 C   0  0  0  0  0  0  0  0  0  0  0  0
   23.8193  -22.0967  -13.0436 O   0  0  0  0  0  0  0  0  0  0  0  0
   26.1609  -18.6774   -6.9556 C   0  0  0  0  0  0  0  0  0  0  0  0
   26.4124  -20.4847   -7.1235 S   0  0  0  0  0  0  0  0  0  0  0  0
   25.1382  -21.1049   -8.2314 C   0  0  0  0  0  0  0  0  0  0  0  0
   25.1188  -20.4212   -9.5538 C   0  0  0  0  0  0  0  0  0  0  0  0
   24.1688  -21.0397  -10.5628 C   0  0  2  0  0  0  0  0  0  0  0  0
   24.2793  -20.2548  -11.7766 N   0  0  0  0  0  0  0  0  0  0  0  0
   22.7680  -21.0069  -10.0484 C   0  0  0  0  0  0  0  0  0  0  0  0
   22.0997  -19.9487   -9.9977 O   0  0  0  0  0  0  0  0  0  0  0  0
   18.8473  -25.9398   -9.9416 N   0  0  0  0  0  0  0  0  0  0  0  0
   18.1576  -25.0124   -9.1302 C   0  0  0  0  0  0  0  0  0  0  0  0
   17.0194  -25.3158   -8.7324 O   0  0  0  0  0  0  0  0  0  0  0  0
   18.7788  -23.7295   -8.7749 C   0  0  0  0  0  0  0  0  0  0  0  0
   20.1613  -23.5299   -9.2985 C   0  0  0  0  0  0  0  0  0  0  0  0
   20.7644  -22.1879   -9.0356 C   0  0  2  0  0  0  0  0  0  0  0  0
   22.1177  -22.1897   -9.5867 N   0  0  0  0  0  0  0  0  0  0  0  0
   20.7551  -21.8001   -7.6228 C   0  0  0  0  0  0  0  0  0  0  0  0
   19.6411  -21.1430   -7.0832 O   0  0  0  0  0  0  0  0  0  0  0  0
   21.7007  -22.0181   -6.8282 O   0  0  0  0  0  0  0  0  0  0  0  0
  2  1  1  6
  2 13  1  0
  2  3  1  0
  4  5  2  0
  4  3  1  0
  6  5  1  0
  7 12  2  0
  7  6  1  0
  8  7  1  0
  9  8  2  0
  9 10  1  0
 10 11  2  0
 11 12  1  0
 12  4  1  0
 13 14  2  0
 16 15  1  0
 17 18  1  0
 17 16  1  0
 19 18  1  1
 19 21  1  0
 20 19  1  0
 20 13  1  0
 21 22  2  0
 23 24  1  0
 24 26  1  0
 24 25  2  0
 26 27  1  0
 28 27  1  1
 28 30  1  0
 29 21  1  0
 29 28  1  0
 30 32  2  0
 30 31  1  0
M  END
$$$$
