WMQ.pdb
     RDKit          3D

 32 33  0  0  1  0  0  0  0  0999 V2000
   27.1389  -19.3256  -10.3282 N   0  0  0  0  0  0  0  0  0  0  0  0
   27.0976  -20.7547  -10.2625 C   0  0  1  0  0  0  0  0  0  0  0  0
   27.1847  -21.3337   -8.8865 C   0  0  0  0  0  0  0  0  0  0  0  0
   27.3578  -20.3192   -7.8307 C   0  0  0  0  0  0  0  0  0  0  0  0
   26.6575  -19.1489   -7.7425 C   0  0  0  0  0  0  0  0  0  0  0  0
   27.0839  -18.5153   -6.6432 N   0  0  0  0  0  0  0  0  0  0  0  0
   28.0319  -19.2439   -6.0306 C   0  0  0  0  0  0  0  0  0  0  0  0
   28.7772  -19.0471   -4.8978 C   0  0  0  0  0  0  0  0  0  0  0  0
   29.7149  -19.9587   -4.4651 C   0  0  0  0  0  0  0  0  0  0  0  0
   29.9044  -21.1079   -5.2041 C   0  0  0  0  0  0  0  0  0  0  0  0
   29.1614  -21.3198   -6.3466 C   0  0  0  0  0  0  0  0  0  0  0  0
   28.2219  -20.3960   -6.7700 C   0  0  0  0  0  0  0  0  0  0  0  0
   25.7949  -21.2118  -10.8609 C   0  0  0  0  0  0  0  0  0  0  0  0
   25.6912  -22.3754  -11.3236 O   0  0  0  0  0  0  0  0  0  0  0  0
   18.7956  -22.4458  -11.9539 C   0  0  0  0  0  0  0  0  0  0  0  0
   20.3921  -22.1763  -11.0957 S   0  0  0  0  0  0  0  0  0  0  0  0
   20.9653  -20.5277  -11.5305 C   0  0  0  0  0  0  0  0  0  0  0  0
   22.2852  -20.1828  -10.9345 C   0  0  0  0  0  0  0  0  0  0  0  0
   23.4710  -20.8311  -11.6250 C   0  0  2  0  0  0  0  0  0  0  0  0
   24.6591  -20.3785  -10.9284 N   0  0  0  0  0  0  0  0  0  0  0  0
   23.5241  -20.4256  -13.0605 C   0  0  0  0  0  0  0  0  0  0  0  0
   23.5885  -19.2256  -13.4136 O   0  0  0  0  0  0  0  0  0  0  0  0
   26.6192  -23.4090  -17.2726 N   0  0  0  0  0  0  0  0  0  0  0  0
   26.9799  -22.3467  -16.4150 C   0  0  0  0  0  0  0  0  0  0  0  0
   28.1869  -22.1756  -16.1708 O   0  0  0  0  0  0  0  0  0  0  0  0
   25.9481  -21.4771  -15.8343 C   0  0  0  0  0  0  0  0  0  0  0  0
   24.5465  -21.8176  -16.2153 C   0  0  0  0  0  0  0  0  0  0  0  0
   23.4797  -21.0322  -15.5232 C   0  0  2  0  0  0  0  0  0  0  0  0
   23.5047  -21.3941  -14.1078 N   0  0  0  0  0  0  0  0  0  0  0  0
   22.1455  -21.2049  -16.1034 C   0  0  0  0  0  0  0  0  0  0  0  0
   21.7956  -20.5186  -17.2740 O   0  0  0  0  0  0  0  0  0  0  0  0
   21.2585  -21.9463  -15.6169 O   0  0  0  0  0  0  0  0  0  0  0  0
  2  1  1  1
  2 13  1  0
  2  3  1  0
  4  5  2  0
  4  3  1  0
  6  5  1  0
  7 12  2  0
  7  6  1  0
  8  7  1  0
  9  8  2  0
  9 10  1  0
 10 11  2  0
 11 12  1  0
 12  4  1  0
 13 14  2  0
 16 15  1  0
 17 18  1  0
 17 16  1  0
 19 18  1  1
 19 21  1  0
 20 19  1  0
 20 13  1  0
 21 22  2  0
 23 24  1  0
 24 26  1  0
 24 25  2  0
 26 27  1  0
 28 27  1  6
 28 30  1  0
 29 21  1  0
 29 28  1  0
 30 32  2  0
 30 31  1  0
M  END
$$$$
