WMQ.pdb
     RDKit          3D

 32 33  0  0  1  0  0  0  0  0999 V2000
   27.6756  -18.9442  -19.0402 N   0  0  0  0  0  0  0  0  0  0  0  0
   26.6853  -18.3079  -18.2258 C   0  0  1  0  0  0  0  0  0  0  0  0
   25.3641  -18.0800  -18.8881 C   0  0  0  0  0  0  0  0  0  0  0  0
   25.1234  -16.6720  -19.2530 C   0  0  0  0  0  0  0  0  0  0  0  0
   26.0592  -15.8245  -19.7764 C   0  0  0  0  0  0  0  0  0  0  0  0
   25.4529  -14.6505  -19.9908 N   0  0  0  0  0  0  0  0  0  0  0  0
   24.1636  -14.7239  -19.6207 C   0  0  0  0  0  0  0  0  0  0  0  0
   23.1343  -13.8195  -19.6299 C   0  0  0  0  0  0  0  0  0  0  0  0
   21.8706  -14.1367  -19.1828 C   0  0  0  0  0  0  0  0  0  0  0  0
   21.6414  -15.4122  -18.7103 C   0  0  0  0  0  0  0  0  0  0  0  0
   22.6676  -16.3335  -18.6949 C   0  0  0  0  0  0  0  0  0  0  0  0
   23.9327  -16.0020  -19.1479 C   0  0  0  0  0  0  0  0  0  0  0  0
   26.4410  -19.1783  -17.0229 C   0  0  0  0  0  0  0  0  0  0  0  0
   26.5524  -20.4262  -17.1187 O   0  0  0  0  0  0  0  0  0  0  0  0
   26.3707  -21.8326  -10.3679 C   0  0  0  0  0  0  0  0  0  0  0  0
   26.9007  -21.0816  -11.9532 S   0  0  0  0  0  0  0  0  0  0  0  0
   26.0304  -19.5168  -12.1251 C   0  0  0  0  0  0  0  0  0  0  0  0
   26.3286  -18.8099  -13.4010 C   0  0  0  0  0  0  0  0  0  0  0  0
   25.8558  -19.5399  -14.6447 C   0  0  2  0  0  0  0  0  0  0  0  0
   26.0856  -18.6489  -15.7650 N   0  0  0  0  0  0  0  0  0  0  0  0
   24.4049  -19.8723  -14.5343 C   0  0  0  0  0  0  0  0  0  0  0  0
   23.5116  -18.9974  -14.6087 O   0  0  0  0  0  0  0  0  0  0  0  0
   19.0818  -24.5832  -15.0782 N   0  0  0  0  0  0  0  0  0  0  0  0
   20.4446  -24.2147  -15.1108 C   0  0  0  0  0  0  0  0  0  0  0  0
   21.0837  -24.4275  -16.1558 O   0  0  0  0  0  0  0  0  0  0  0  0
   21.0764  -23.5992  -13.9360 C   0  0  0  0  0  0  0  0  0  0  0  0
   22.4441  -23.0506  -14.1683 C   0  0  0  0  0  0  0  0  0  0  0  0
   22.5634  -21.5623  -14.1010 C   0  0  2  0  0  0  0  0  0  0  0  0
   23.9626  -21.2143  -14.3379 N   0  0  0  0  0  0  0  0  0  0  0  0
   22.0651  -20.9835  -12.8507 C   0  0  0  0  0  0  0  0  0  0  0  0
   20.6956  -20.7337  -12.6902 O   0  0  0  0  0  0  0  0  0  0  0  0
   22.7949  -20.6827  -11.8760 O   0  0  0  0  0  0  0  0  0  0  0  0
  2  1  1  6
  2 13  1  0
  2  3  1  0
  4  5  2  0
  4  3  1  0
  6  5  1  0
  7 12  2  0
  7  6  1  0
  8  7  1  0
  9  8  2  0
  9 10  1  0
 10 11  2  0
 11 12  1  0
 12  4  1  0
 13 14  2  0
 16 15  1  0
 17 18  1  0
 17 16  1  0
 19 18  1  1
 19 21  1  0
 20 19  1  0
 20 13  1  0
 21 22  2  0
 23 24  1  0
 24 26  1  0
 24 25  2  0
 26 27  1  0
 28 27  1  1
 28 30  1  0
 29 21  1  0
 29 28  1  0
 30 32  2  0
 30 31  1  0
M  END
$$$$
