WMQ.pdb
     RDKit          3D

 32 33  0  0  1  0  0  0  0  0999 V2000
   27.4501  -21.1382  -13.6511 N   0  0  0  0  0  0  0  0  0  0  0  0
   26.4480  -20.4579  -12.8885 C   0  0  1  0  0  0  0  0  0  0  0  0
   25.0380  -20.7079  -13.3195 C   0  0  0  0  0  0  0  0  0  0  0  0
   24.7230  -20.1583  -14.6508 C   0  0  0  0  0  0  0  0  0  0  0  0
   25.3213  -20.5375  -15.8196 C   0  0  0  0  0  0  0  0  0  0  0  0
   24.7508  -19.8305  -16.8028 N   0  0  0  0  0  0  0  0  0  0  0  0
   23.8107  -19.0148  -16.2975 C   0  0  0  0  0  0  0  0  0  0  0  0
   22.9603  -18.1023  -16.8646 C   0  0  0  0  0  0  0  0  0  0  0  0
   22.0676  -17.3642  -16.1191 C   0  0  0  0  0  0  0  0  0  0  0  0
   22.0350  -17.5563  -14.7536 C   0  0  0  0  0  0  0  0  0  0  0  0
   22.8849  -18.4714  -14.1684 C   0  0  0  0  0  0  0  0  0  0  0  0
   23.7767  -19.2072  -14.9292 C   0  0  0  0  0  0  0  0  0  0  0  0
   26.5667  -20.9061  -11.4571 C   0  0  0  0  0  0  0  0  0  0  0  0
   26.6183  -22.1320  -11.1860 O   0  0  0  0  0  0  0  0  0  0  0  0
   28.0741  -19.8684   -3.9078 C   0  0  0  0  0  0  0  0  0  0  0  0
   28.3541  -19.2549   -5.6117 S   0  0  0  0  0  0  0  0  0  0  0  0
   27.1168  -20.0203   -6.6694 C   0  0  0  0  0  0  0  0  0  0  0  0
   27.3238  -19.7458   -8.1179 C   0  0  0  0  0  0  0  0  0  0  0  0
   26.3406  -20.4509   -9.0341 C   0  0  2  0  0  0  0  0  0  0  0  0
   26.6245  -19.9963  -10.3811 N   0  0  0  0  0  0  0  0  0  0  0  0
   24.9379  -20.1094   -8.6552 C   0  0  0  0  0  0  0  0  0  0  0  0
   24.3537  -19.0951   -9.1010 O   0  0  0  0  0  0  0  0  0  0  0  0
   21.9300  -22.2311  -12.0152 N   0  0  0  0  0  0  0  0  0  0  0  0
   20.8450  -22.1113  -11.1193 C   0  0  0  0  0  0  0  0  0  0  0  0
   19.7031  -22.3538  -11.5472 O   0  0  0  0  0  0  0  0  0  0  0  0
   21.0733  -21.7098   -9.7248 C   0  0  0  0  0  0  0  0  0  0  0  0
   22.5019  -21.4883   -9.3565 C   0  0  0  0  0  0  0  0  0  0  0  0
   22.7571  -21.1747   -7.9175 C   0  0  2  0  0  0  0  0  0  0  0  0
   24.1889  -20.9297   -7.7600 N   0  0  0  0  0  0  0  0  0  0  0  0
   22.2785  -22.2051   -6.9923 C   0  0  0  0  0  0  0  0  0  0  0  0
   20.9697  -22.1478   -6.4949 O   0  0  0  0  0  0  0  0  0  0  0  0
   22.9739  -23.1705   -6.5954 O   0  0  0  0  0  0  0  0  0  0  0  0
  2  1  1  6
  2 13  1  0
  2  3  1  0
  4  5  2  0
  4  3  1  0
  6  5  1  0
  7 12  2  0
  7  6  1  0
  8  7  1  0
  9  8  2  0
  9 10  1  0
 10 11  2  0
 11 12  1  0
 12  4  1  0
 13 14  2  0
 16 15  1  0
 17 18  1  0
 17 16  1  0
 19 18  1  1
 19 21  1  0
 20 19  1  0
 20 13  1  0
 21 22  2  0
 23 24  1  0
 24 26  1  0
 24 25  2  0
 26 27  1  0
 28 27  1  6
 28 30  1  0
 29 21  1  0
 29 28  1  0
 30 32  2  0
 30 31  1  0
M  END
$$$$
