PFD.pdb
     RDKit          3D

 27 28  0  0  1  0  0  0  0  0999 V2000
   27.8458  -20.3009  -17.0448 N   0  0  0  0  0  0  0  0  0  0  0  0
   29.1043  -20.4201  -17.7637 C   0  0  0  0  0  0  0  0  0  0  0  0
   29.8114  -21.4685  -16.9002 C   0  0  0  0  0  0  0  0  0  0  0  0
   28.7070  -22.5006  -16.7576 C   0  0  0  0  0  0  0  0  0  0  0  0
   27.4538  -21.6821  -16.8356 C   0  0  1  0  0  0  0  0  0  0  0  0
   26.7058  -21.8326  -15.5625 C   0  0  0  0  0  0  0  0  0  0  0  0
   26.2218  -22.9545  -15.2873 O   0  0  0  0  0  0  0  0  0  0  0  0
   26.5650  -20.7077  -14.7055 N   0  0  0  0  0  0  0  0  0  0  0  0
   25.8126  -20.7674  -13.4942 C   0  0  1  0  0  0  0  0  0  0  0  0
   26.4525  -20.0360  -12.3345 C   0  0  0  0  0  0  0  0  0  0  0  0
   25.6988  -20.2734  -11.0773 C   0  0  0  0  0  0  0  0  0  0  0  0
   24.5278  -19.5586  -10.8319 C   0  0  0  0  0  0  0  0  0  0  0  0
   23.8704  -19.8195   -9.6523 C   0  0  0  0  0  0  0  0  0  0  0  0
   24.3337  -20.7395   -8.7468 C   0  0  0  0  0  0  0  0  0  0  0  0
   25.4894  -21.4294   -9.0133 C   0  0  0  0  0  0  0  0  0  0  0  0
   26.1868  -21.1977  -10.1941 C   0  0  0  0  0  0  0  0  0  0  0  0
   24.3999  -20.3420  -13.6698 C   0  0  0  0  0  0  0  0  0  0  0  0
   24.1729  -19.1605  -13.9686 O   0  0  0  0  0  0  0  0  0  0  0  0
   23.3356  -21.2318  -13.5079 N   0  0  0  0  0  0  0  0  0  0  0  0
   21.9260  -20.8768  -13.6522 C   0  0  1  0  0  0  0  0  0  0  0  0
   21.1860  -21.8669  -14.4943 C   0  0  0  0  0  0  0  0  0  0  0  0
   20.3782  -21.1589  -15.5047 C   0  0  0  0  0  0  0  0  0  0  0  0
   20.3833  -19.8794  -15.5793 O   0  0  0  0  0  0  0  0  0  0  0  0
   21.3787  -20.9227  -12.2795 C   0  0  0  0  0  0  0  0  0  0  0  0
   21.7966  -21.7781  -11.4745 O   0  0  0  0  0  0  0  0  0  0  0  0
   19.5592  -21.7697  -16.4406 O   0  0  0  0  0  0  0  0  0  0  0  0
   20.4135  -20.0422  -11.8595 O   0  0  0  0  0  0  0  0  0  0  0  0
  1  2  1  0
  3  2  1  0
  4  5  1  0
  4  3  1  0
  5  6  1  1
  5  1  1  0
  6  7  2  0
  8  9  1  0
  8  6  1  0
 10 11  1  0
  9 10  1  1
 11 16  2  0
 12 13  2  0
 12 11  1  0
 13 14  1  0
 14 15  2  0
 16 15  1  0
 17 18  2  0
 17  9  1  0
 19 17  1  0
 20 24  1  0
 20 19  1  0
 20 21  1  6
 22 21  1  0
 22 26  1  0
 23 22  2  0
 24 27  1  0
 25 24  2  0
M  END
$$$$
