PFD.pdb
     RDKit          3D

 27 28  0  0  1  0  0  0  0  0999 V2000
   34.7123  -16.7451  -20.2409 N   0  0  0  0  0  0  0  0  0  0  0  0
   35.7479  -17.0412  -21.2179 C   0  0  0  0  0  0  0  0  0  0  0  0
   35.5136  -15.9027  -22.2147 C   0  0  0  0  0  0  0  0  0  0  0  0
   35.4231  -14.7194  -21.2676 C   0  0  0  0  0  0  0  0  0  0  0  0
   34.8748  -15.3220  -20.0095 C   0  0  1  0  0  0  0  0  0  0  0  0
   33.5702  -14.6834  -19.7039 C   0  0  0  0  0  0  0  0  0  0  0  0
   32.5387  -15.1574  -20.2329 O   0  0  0  0  0  0  0  0  0  0  0  0
   33.5358  -13.5645  -18.8284 N   0  0  0  0  0  0  0  0  0  0  0  0
   32.3159  -12.9080  -18.4855 C   0  0  1  0  0  0  0  0  0  0  0  0
   32.3392  -12.2319  -17.1321 C   0  0  0  0  0  0  0  0  0  0  0  0
   30.9899  -11.7313  -16.7664 C   0  0  0  0  0  0  0  0  0  0  0  0
   30.1007  -12.5734  -16.1012 C   0  0  0  0  0  0  0  0  0  0  0  0
   28.8654  -12.0571  -15.7865 C   0  0  0  0  0  0  0  0  0  0  0  0
   28.5088  -10.7720  -16.1062 C   0  0  0  0  0  0  0  0  0  0  0  0
   29.4035   -9.9639  -16.7614 C   0  0  0  0  0  0  0  0  0  0  0  0
   30.6641  -10.4446  -17.0992 C   0  0  0  0  0  0  0  0  0  0  0  0
   31.8513  -11.9661  -19.5365 C   0  0  0  0  0  0  0  0  0  0  0  0
   32.6728  -11.1776  -20.0264 O   0  0  0  0  0  0  0  0  0  0  0  0
   30.5267  -11.9493  -19.9793 N   0  0  0  0  0  0  0  0  0  0  0  0
   30.0392  -11.1688  -21.1137 C   0  0  1  0  0  0  0  0  0  0  0  0
   29.5492  -12.0447  -22.2226 C   0  0  0  0  0  0  0  0  0  0  0  0
   29.0421  -11.2129  -23.3297 C   0  0  0  0  0  0  0  0  0  0  0  0
   29.4415  -10.0053  -23.4880 O   0  0  0  0  0  0  0  0  0  0  0  0
   28.8960  -10.3966  -20.5821 C   0  0  0  0  0  0  0  0  0  0  0  0
   28.7848   -9.1858  -20.8580 O   0  0  0  0  0  0  0  0  0  0  0  0
   28.1178  -11.6242  -24.2764 O   0  0  0  0  0  0  0  0  0  0  0  0
   27.9424  -10.9785  -19.7852 O   0  0  0  0  0  0  0  0  0  0  0  0
  1  2  1  0
  3  2  1  0
  4  5  1  0
  4  3  1  0
  5  6  1  6
  5  1  1  0
  6  7  2  0
  8  9  1  0
  8  6  1  0
 10 11  1  0
  9 10  1  1
 11 16  2  0
 12 13  2  0
 12 11  1  0
 13 14  1  0
 14 15  2  0
 16 15  1  0
 17 18  2  0
 17  9  1  0
 19 17  1  0
 20 24  1  0
 20 19  1  0
 20 21  1  6
 22 21  1  0
 22 26  1  0
 23 22  2  0
 24 27  1  0
 25 24  2  0
M  END
$$$$
