PFD.pdb
     RDKit          3D

 27 28  0  0  1  0  0  0  0  0999 V2000
   20.5616  -13.0998  -17.7432 N   0  0  0  0  0  0  0  0  0  0  0  0
   19.9178  -13.9091  -18.7656 C   0  0  0  0  0  0  0  0  0  0  0  0
   18.6560  -13.0779  -19.0144 C   0  0  0  0  0  0  0  0  0  0  0  0
   19.2600  -11.6917  -19.1525 C   0  0  0  0  0  0  0  0  0  0  0  0
   20.4822  -11.7572  -18.2872 C   0  0  1  0  0  0  0  0  0  0  0  0
   20.3523  -10.7533  -17.2017 C   0  0  0  0  0  0  0  0  0  0  0  0
   19.5953  -11.0146  -16.2388 O   0  0  0  0  0  0  0  0  0  0  0  0
   21.0855   -9.5390  -17.2908 N   0  0  0  0  0  0  0  0  0  0  0  0
   20.9911   -8.5221  -16.2939 C   0  0  1  0  0  0  0  0  0  0  0  0
   22.3215   -8.1197  -15.6962 C   0  0  0  0  0  0  0  0  0  0  0  0
   22.9825   -9.2790  -15.0449 C   0  0  0  0  0  0  0  0  0  0  0  0
   22.5928   -9.6620  -13.7628 C   0  0  0  0  0  0  0  0  0  0  0  0
   23.2382  -10.7429  -13.2088 C   0  0  0  0  0  0  0  0  0  0  0  0
   24.2239  -11.4246  -13.8756 C   0  0  0  0  0  0  0  0  0  0  0  0
   24.5883  -11.0263  -15.1370 C   0  0  0  0  0  0  0  0  0  0  0  0
   23.9623   -9.9385  -15.7361 C   0  0  0  0  0  0  0  0  0  0  0  0
   20.2389   -7.3272  -16.7566 C   0  0  0  0  0  0  0  0  0  0  0  0
   20.3342   -6.9953  -17.9472 O   0  0  0  0  0  0  0  0  0  0  0  0
   19.4372   -6.5792  -15.8916 N   0  0  0  0  0  0  0  0  0  0  0  0
   18.6882   -5.3854  -16.2759 C   0  0  1  0  0  0  0  0  0  0  0  0
   17.5332   -5.1338  -15.3595 C   0  0  0  0  0  0  0  0  0  0  0  0
   16.3030   -5.7060  -15.9371 C   0  0  0  0  0  0  0  0  0  0  0  0
   15.9446   -5.4321  -17.1368 O   0  0  0  0  0  0  0  0  0  0  0  0
   19.6503   -4.2711  -16.1392 C   0  0  0  0  0  0  0  0  0  0  0  0
   20.7962   -4.4926  -15.7007 O   0  0  0  0  0  0  0  0  0  0  0  0
   15.4359   -6.5615  -15.2766 O   0  0  0  0  0  0  0  0  0  0  0  0
   19.3166   -2.9855  -16.4842 O   0  0  0  0  0  0  0  0  0  0  0  0
  1  2  1  0
  3  2  1  0
  4  5  1  0
  4  3  1  0
  5  6  1  1
  5  1  1  0
  6  7  2  0
  8  9  1  0
  8  6  1  0
 10 11  1  0
  9 10  1  6
 11 16  2  0
 12 13  2  0
 12 11  1  0
 13 14  1  0
 14 15  2  0
 16 15  1  0
 17 18  2  0
 17  9  1  0
 19 17  1  0
 20 24  1  0
 20 19  1  0
 20 21  1  1
 22 21  1  0
 22 26  1  0
 23 22  2  0
 24 27  1  0
 25 24  2  0
M  END
$$$$
