RVP.pdb
     RDKit          3D

 26 26  0  0  1  0  0  0  0  0999 V2000
   26.6608  -28.0867  -17.8775 N   0  0  0  0  0  0  0  0  0  0  0  0
   27.8516  -28.5280  -17.2305 C   0  0  0  0  0  0  0  0  0  0  0  0
   27.9106  -29.7332  -16.7852 N   0  0  0  0  0  0  0  0  0  0  0  0
   28.9747  -27.6852  -17.0599 N   0  0  0  0  0  0  0  0  0  0  0  0
   29.0884  -26.4961  -17.8636 C   0  0  0  0  0  0  0  0  0  0  0  0
   27.8446  -25.6437  -17.7944 C   0  0  0  0  0  0  0  0  0  0  0  0
   27.9083  -24.6450  -16.6818 C   0  0  0  0  0  0  0  0  0  0  0  0
   28.6594  -23.3908  -17.0453 C   0  0  2  0  0  0  0  0  0  0  0  0
   30.0614  -23.6269  -17.2498 N   0  0  0  0  0  0  0  0  0  0  0  0
   28.4490  -22.4140  -15.9171 C   0  0  0  0  0  0  0  0  0  0  0  0
   29.2908  -22.2854  -15.0189 O   0  0  0  0  0  0  0  0  0  0  0  0
   28.6937  -30.0613  -16.2160 C   0  0  0  0  0  0  0  0  0  0  0  0
   25.9468  -19.0117  -16.3099 C   0  0  1  0  0  0  0  0  0  0  0  0
   26.9615  -19.3222  -15.2378 C   0  0  0  0  0  0  0  0  0  0  0  0
   28.3337  -19.0146  -15.8525 C   0  0  1  0  0  0  0  0  0  0  0  0
   26.9139  -20.7650  -14.7705 N   0  0  0  0  0  0  0  0  0  0  0  0
   27.2632  -21.6117  -15.8638 C   0  0  0  0  0  0  0  0  0  0  0  0
   25.6883  -21.0835  -14.0435 O   0  0  0  0  0  0  0  0  0  0  0  0
   24.7740  -21.6961  -14.7214 N   0  0  0  0  0  0  0  0  0  0  0  0
   25.4117  -20.7899  -12.6891 C   0  0  0  0  0  0  0  0  0  0  0  0
   26.3397  -19.9938  -11.8600 C   0  0  0  0  0  0  0  0  0  0  0  0
   25.7284  -19.8819  -10.5070 C   0  0  0  0  0  0  0  0  0  0  0  0
   24.9166  -21.1646  -10.4423 C   0  0  1  0  0  0  0  0  0  0  0  0
   24.2880  -21.1305  -11.8474 C   0  0  0  0  0  0  0  0  0  0  0  0
   23.2897  -20.0141  -11.7661 O   0  0  0  0  0  0  0  0  0  0  0  0
   22.0759  -20.2838  -11.1800 O   0  0  0  0  0  0  0  0  0  0  0  0
  2  3  2  0
  2  1  1  0
  4  2  1  0
  5  4  1  0
  6  5  1  0
  7  8  1  0
  7  6  1  0
  8 10  1  0
  8  9  1  1
 10 11  2  0
 13 12  1  1
 13 14  1  0
 13 15  1  0
 15 16  1  6
 16 10  1  0
 17 15  1  0
 17 18  2  0
 19 23  1  0
 19 17  1  0
 20 19  1  0
 21 22  1  0
 21 20  1  0
 22 23  1  0
 23 24  1  6
 24 26  2  0
 24 25  1  0
M  END
$$$$
