RVP.pdb
     RDKit          3D

 26 26  0  0  1  0  0  0  0  0999 V2000
   19.9322  -22.3368  -12.2133 N   0  0  0  0  0  0  0  0  0  0  0  0
   19.8825  -21.6460  -10.9677 C   0  0  0  0  0  0  0  0  0  0  0  0
   19.0234  -22.0130  -10.0838 N   0  0  0  0  0  0  0  0  0  0  0  0
   20.7470  -20.5673  -10.6677 N   0  0  0  0  0  0  0  0  0  0  0  0
   21.5911  -20.0349  -11.7054 C   0  0  0  0  0  0  0  0  0  0  0  0
   22.9587  -20.6738  -11.7077 C   0  0  0  0  0  0  0  0  0  0  0  0
   23.7008  -20.4188  -10.4336 C   0  0  0  0  0  0  0  0  0  0  0  0
   25.1276  -20.9008  -10.4650 C   0  0  2  0  0  0  0  0  0  0  0  0
   25.8241  -20.6439   -9.2353 N   0  0  0  0  0  0  0  0  0  0  0  0
   25.8026  -20.1912  -11.6105 C   0  0  0  0  0  0  0  0  0  0  0  0
   26.1363  -19.0029  -11.5175 O   0  0  0  0  0  0  0  0  0  0  0  0
   18.9656  -21.5643   -9.1672 C   0  0  0  0  0  0  0  0  0  0  0  0
   28.3625  -20.8781  -15.8083 C   0  0  1  0  0  0  0  0  0  0  0  0
   27.5430  -21.3945  -14.6519 C   0  0  0  0  0  0  0  0  0  0  0  0
   26.5926  -22.4447  -15.2429 C   0  0  2  0  0  0  0  0  0  0  0  0
   26.7464  -20.3087  -13.9527 N   0  0  0  0  0  0  0  0  0  0  0  0
   26.0717  -20.8838  -12.8354 C   0  0  0  0  0  0  0  0  0  0  0  0
   25.9471  -19.5099  -14.8773 O   0  0  0  0  0  0  0  0  0  0  0  0
   24.7995  -20.0066  -15.2043 N   0  0  0  0  0  0  0  0  0  0  0  0
   26.3043  -18.2636  -15.4399 C   0  0  0  0  0  0  0  0  0  0  0  0
   27.6329  -17.6591  -15.2124 C   0  0  0  0  0  0  0  0  0  0  0  0
   27.6563  -16.3674  -15.9525 C   0  0  0  0  0  0  0  0  0  0  0  0
   26.1852  -15.9883  -15.9324 C   0  0  1  0  0  0  0  0  0  0  0  0
   25.5729  -17.3545  -16.2918 C   0  0  0  0  0  0  0  0  0  0  0  0
   25.9254  -17.5356  -17.7383 O   0  0  0  0  0  0  0  0  0  0  0  0
   25.1918  -16.8363  -18.6671 O   0  0  0  0  0  0  0  0  0  0  0  0
  2  3  2  0
  2  1  1  0
  4  2  1  0
  5  4  1  0
  6  5  1  0
  7  8  1  0
  7  6  1  0
  8 10  1  0
  8  9  1  1
 10 11  2  0
 13 12  1  1
 13 14  1  0
 13 15  1  0
 15 16  1  6
 16 10  1  0
 17 15  1  0
 17 18  2  0
 19 23  1  0
 19 17  1  0
 20 19  1  0
 21 22  1  0
 21 20  1  0
 22 23  1  0
 23 24  1  6
 24 26  2  0
 24 25  1  0
M  END
$$$$
