RVP.pdb
     RDKit          3D

 26 26  0  0  1  0  0  0  0  0999 V2000
   20.6404  -20.1821  -11.2477 N   0  0  0  0  0  0  0  0  0  0  0  0
   21.0587  -20.2253  -12.6094 C   0  0  0  0  0  0  0  0  0  0  0  0
   20.2982  -20.7912  -13.4787 N   0  0  0  0  0  0  0  0  0  0  0  0
   22.2843  -19.6662  -13.0407 N   0  0  0  0  0  0  0  0  0  0  0  0
   23.4349  -19.7480  -12.1791 C   0  0  0  0  0  0  0  0  0  0  0  0
   23.2207  -20.7113  -11.0369 C   0  0  0  0  0  0  0  0  0  0  0  0
   24.3887  -20.7439  -10.1021 C   0  0  0  0  0  0  0  0  0  0  0  0
   25.7106  -20.5147  -10.7872 C   0  0  2  0  0  0  0  0  0  0  0  0
   25.9558  -21.4574  -11.8428 N   0  0  0  0  0  0  0  0  0  0  0  0
   26.7760  -20.6227   -9.7268 C   0  0  0  0  0  0  0  0  0  0  0  0
   27.2859  -21.7142   -9.4432 O   0  0  0  0  0  0  0  0  0  0  0  0
   20.5614  -20.8597  -14.4640 C   0  0  0  0  0  0  0  0  0  0  0  0
   29.9052  -18.0114   -6.8374 C   0  0  1  0  0  0  0  0  0  0  0  0
   28.7779  -18.0807   -7.8373 C   0  0  0  0  0  0  0  0  0  0  0  0
   27.7096  -17.0980   -7.3389 C   0  0  2  0  0  0  0  0  0  0  0  0
   28.1828  -19.4701   -7.9710 N   0  0  0  0  0  0  0  0  0  0  0  0
   27.2204  -19.4563   -9.0235 C   0  0  0  0  0  0  0  0  0  0  0  0
   27.7641  -20.0313   -6.6897 O   0  0  0  0  0  0  0  0  0  0  0  0
   26.4884  -20.0917   -6.4910 N   0  0  0  0  0  0  0  0  0  0  0  0
   28.6092  -20.5075   -5.6619 C   0  0  0  0  0  0  0  0  0  0  0  0
   30.0752  -20.5776   -5.8296 C   0  0  0  0  0  0  0  0  0  0  0  0
   30.6338  -21.1156   -4.5587 C   0  0  0  0  0  0  0  0  0  0  0  0
   29.4761  -21.9658   -4.0634 C   0  0  1  0  0  0  0  0  0  0  0  0
   28.3184  -20.9865   -4.3304 C   0  0  0  0  0  0  0  0  0  0  0  0
   28.5081  -19.9171   -3.2960 O   0  0  0  0  0  0  0  0  0  0  0  0
   28.0384  -20.1642   -2.0280 O   0  0  0  0  0  0  0  0  0  0  0  0
  2  3  2  0
  2  1  1  0
  4  2  1  0
  5  4  1  0
  6  5  1  0
  7  8  1  0
  7  6  1  0
  8 10  1  0
  8  9  1  6
 10 11  2  0
 13 12  1  6
 13 14  1  0
 13 15  1  0
 15 16  1  1
 16 10  1  0
 17 15  1  0
 17 18  2  0
 19 23  1  0
 19 17  1  0
 20 19  1  0
 21 22  1  0
 21 20  1  0
 22 23  1  0
 23 24  1  1
 24 26  2  0
 24 25  1  0
M  END
$$$$
