RVP.pdb
     RDKit          3D

 26 26  0  0  1  0  0  0  0  0999 V2000
   18.7959  -23.3996   -7.3944 N   0  0  0  0  0  0  0  0  0  0  0  0
   19.3941  -22.9183   -8.5950 C   0  0  0  0  0  0  0  0  0  0  0  0
   18.8394  -23.1923   -9.7226 N   0  0  0  0  0  0  0  0  0  0  0  0
   20.5802  -22.1476   -8.5911 N   0  0  0  0  0  0  0  0  0  0  0  0
   20.6000  -20.8864   -9.2853 C   0  0  0  0  0  0  0  0  0  0  0  0
   21.3920  -20.9575  -10.5683 C   0  0  0  0  0  0  0  0  0  0  0  0
   22.7356  -21.5843  -10.3660 C   0  0  0  0  0  0  0  0  0  0  0  0
   23.8756  -20.7253  -10.8475 C   0  0  2  0  0  0  0  0  0  0  0  0
   24.0061  -20.7327  -12.2779 N   0  0  0  0  0  0  0  0  0  0  0  0
   25.1278  -21.2603  -10.2018 C   0  0  0  0  0  0  0  0  0  0  0  0
   25.2799  -22.4739  -10.0125 O   0  0  0  0  0  0  0  0  0  0  0  0
   19.1875  -22.8081  -10.6036 C   0  0  0  0  0  0  0  0  0  0  0  0
   28.9880  -19.5063  -10.1425 C   0  0  1  0  0  0  0  0  0  0  0  0
   28.5105  -20.8125   -9.5581 C   0  0  0  0  0  0  0  0  0  0  0  0
   28.3831  -21.7830  -10.7401 C   0  0  1  0  0  0  0  0  0  0  0  0
   27.1799  -20.6936   -8.8385 N   0  0  0  0  0  0  0  0  0  0  0  0
   26.1712  -20.3677   -9.7928 C   0  0  0  0  0  0  0  0  0  0  0  0
   27.2580  -19.8647   -7.6391 O   0  0  0  0  0  0  0  0  0  0  0  0
   26.5496  -18.7837   -7.6540 N   0  0  0  0  0  0  0  0  0  0  0  0
   28.0234  -20.1288   -6.4808 C   0  0  0  0  0  0  0  0  0  0  0  0
   28.9338  -21.2893   -6.3973 C   0  0  0  0  0  0  0  0  0  0  0  0
   29.5698  -21.2482   -5.0517 C   0  0  0  0  0  0  0  0  0  0  0  0
   28.4932  -20.5512   -4.2370 C   0  0  1  0  0  0  0  0  0  0  0  0
   28.1266  -19.4265   -5.2225 C   0  0  0  0  0  0  0  0  0  0  0  0
   29.3174  -18.5154   -5.1852 O   0  0  0  0  0  0  0  0  0  0  0  0
   29.4625  -17.6982   -4.0893 O   0  0  0  0  0  0  0  0  0  0  0  0
  2  3  2  0
  2  1  1  0
  4  2  1  0
  5  4  1  0
  6  5  1  0
  7  8  1  0
  7  6  1  0
  8 10  1  0
  8  9  1  6
 10 11  2  0
 13 12  1  1
 13 14  1  0
 13 15  1  0
 15 16  1  6
 16 10  1  0
 17 15  1  0
 17 18  2  0
 19 23  1  0
 19 17  1  0
 20 19  1  0
 21 22  1  0
 21 20  1  0
 22 23  1  0
 23 24  1  1
 24 26  2  0
 24 25  1  0
M  END
$$$$
