RVP.pdb
     RDKit          3D

 26 26  0  0  1  0  0  0  0  0999 V2000
   29.6378  -27.2966  -19.1033 N   0  0  0  0  0  0  0  0  0  0  0  0
   29.2474  -26.6817  -20.3282 C   0  0  0  0  0  0  0  0  0  0  0  0
   28.9552  -27.4262  -21.3355 N   0  0  0  0  0  0  0  0  0  0  0  0
   29.1695  -25.2771  -20.4766 N   0  0  0  0  0  0  0  0  0  0  0  0
   29.0429  -24.4533  -19.3026 C   0  0  0  0  0  0  0  0  0  0  0  0
   27.9702  -24.9582  -18.3684 C   0  0  0  0  0  0  0  0  0  0  0  0
   27.7871  -24.0611  -17.1849 C   0  0  0  0  0  0  0  0  0  0  0  0
   28.9483  -23.1295  -16.9544 C   0  0  2  0  0  0  0  0  0  0  0  0
   30.1807  -23.8303  -16.7241 N   0  0  0  0  0  0  0  0  0  0  0  0
   28.5952  -22.2793  -15.7612 C   0  0  0  0  0  0  0  0  0  0  0  0
   28.9898  -22.5766  -14.6264 O   0  0  0  0  0  0  0  0  0  0  0  0
   28.6632  -27.0320  -22.2323 C   0  0  0  0  0  0  0  0  0  0  0  0
   26.8729  -17.9076  -14.1831 C   0  0  1  0  0  0  0  0  0  0  0  0
   27.4590  -18.8433  -15.2111 C   0  0  0  0  0  0  0  0  0  0  0  0
   26.7114  -18.5551  -16.5201 C   0  0  2  0  0  0  0  0  0  0  0  0
   27.3101  -20.3069  -14.8399 N   0  0  0  0  0  0  0  0  0  0  0  0
   27.7912  -21.1041  -15.9203 C   0  0  0  0  0  0  0  0  0  0  0  0
   25.9859  -20.6245  -14.3129 O   0  0  0  0  0  0  0  0  0  0  0  0
   25.0735  -20.8729  -15.1941 N   0  0  0  0  0  0  0  0  0  0  0  0
   25.6134  -20.6851  -12.9510 C   0  0  0  0  0  0  0  0  0  0  0  0
   26.5094  -20.2095  -11.8770 C   0  0  0  0  0  0  0  0  0  0  0  0
   25.7945  -20.4201  -10.5881 C   0  0  0  0  0  0  0  0  0  0  0  0
   24.9147  -21.6109  -10.9291 C   0  0  1  0  0  0  0  0  0  0  0  0
   24.4076  -21.1563  -12.3099 C   0  0  0  0  0  0  0  0  0  0  0  0
   23.4653  -20.0332  -11.9934 O   0  0  0  0  0  0  0  0  0  0  0  0
   22.1841  -20.3607  -11.6178 O   0  0  0  0  0  0  0  0  0  0  0  0
  2  3  2  0
  2  1  1  0
  4  2  1  0
  5  4  1  0
  6  5  1  0
  7  8  1  0
  7  6  1  0
  8 10  1  0
  8  9  1  1
 10 11  2  0
 13 12  1  6
 13 14  1  0
 13 15  1  0
 15 16  1  1
 16 10  1  0
 17 15  1  0
 17 18  2  0
 19 23  1  0
 19 17  1  0
 20 19  1  0
 21 22  1  0
 21 20  1  0
 22 23  1  0
 23 24  1  1
 24 26  2  0
 24 25  1  0
M  END
$$$$
