RVP.pdb
     RDKit          3D

 26 26  0  0  1  0  0  0  0  0999 V2000
   19.0473   -9.6904  -20.3802 N   0  0  0  0  0  0  0  0  0  0  0  0
   18.9218  -10.9659  -21.0034 C   0  0  0  0  0  0  0  0  0  0  0  0
   17.7778  -11.3231  -21.4701 N   0  0  0  0  0  0  0  0  0  0  0  0
   20.0139  -11.8562  -21.1275 N   0  0  0  0  0  0  0  0  0  0  0  0
   21.2604  -11.5320  -20.4840 C   0  0  0  0  0  0  0  0  0  0  0  0
   21.1754  -11.6657  -18.9829 C   0  0  0  0  0  0  0  0  0  0  0  0
   22.5006  -11.4481  -18.3229 C   0  0  0  0  0  0  0  0  0  0  0  0
   23.2491  -12.7258  -18.0470 C   0  0  2  0  0  0  0  0  0  0  0  0
   22.5418  -13.5972  -17.1506 N   0  0  0  0  0  0  0  0  0  0  0  0
   24.5801  -12.3334  -17.4590 C   0  0  0  0  0  0  0  0  0  0  0  0
   24.6464  -11.6675  -16.4178 O   0  0  0  0  0  0  0  0  0  0  0  0
   17.6494  -12.2060  -21.9691 C   0  0  0  0  0  0  0  0  0  0  0  0
   27.7291  -14.8518  -17.7698 C   0  0  1  0  0  0  0  0  0  0  0  0
   27.6622  -13.6251  -16.8944 C   0  0  0  0  0  0  0  0  0  0  0  0
   26.7594  -13.9991  -15.7109 C   0  0  1  0  0  0  0  0  0  0  0  0
   27.1023  -12.4103  -17.6105 N   0  0  0  0  0  0  0  0  0  0  0  0
   25.8001  -12.7268  -18.0988 C   0  0  0  0  0  0  0  0  0  0  0  0
   28.0479  -11.8271  -18.5580 O   0  0  0  0  0  0  0  0  0  0  0  0
   28.0742  -12.3668  -19.7322 N   0  0  0  0  0  0  0  0  0  0  0  0
   28.9237  -10.7447  -18.3162 C   0  0  0  0  0  0  0  0  0  0  0  0
   29.0639  -10.1416  -16.9749 C   0  0  0  0  0  0  0  0  0  0  0  0
   30.0637   -9.0446  -17.0929 C   0  0  0  0  0  0  0  0  0  0  0  0
   29.8782   -8.6301  -18.5427 C   0  0  1  0  0  0  0  0  0  0  0  0
   29.8182  -10.0246  -19.1928 C   0  0  0  0  0  0  0  0  0  0  0  0
   31.2275  -10.5277  -19.0918 O   0  0  0  0  0  0  0  0  0  0  0  0
   32.1799   -9.9220  -19.8765 O   0  0  0  0  0  0  0  0  0  0  0  0
  2  3  2  0
  2  1  1  0
  4  2  1  0
  5  4  1  0
  6  5  1  0
  7  8  1  0
  7  6  1  0
  8 10  1  0
  8  9  1  1
 10 11  2  0
 13 12  1  1
 13 14  1  0
 13 15  1  0
 15 16  1  6
 16 10  1  0
 17 15  1  0
 17 18  2  0
 19 23  1  0
 19 17  1  0
 20 19  1  0
 21 22  1  0
 21 20  1  0
 22 23  1  0
 23 24  1  6
 24 26  2  0
 24 25  1  0
M  END
$$$$
