RVP.pdb
     RDKit          3D

 26 26  0  0  1  0  0  0  0  0999 V2000
   20.6457  -23.2239   -8.7053 N   0  0  0  0  0  0  0  0  0  0  0  0
   20.1405  -21.9026   -8.8789 C   0  0  0  0  0  0  0  0  0  0  0  0
   18.9555  -21.7444   -9.3534 N   0  0  0  0  0  0  0  0  0  0  0  0
   20.8980  -20.7551   -8.5472 N   0  0  0  0  0  0  0  0  0  0  0  0
   22.3350  -20.8428   -8.5325 C   0  0  0  0  0  0  0  0  0  0  0  0
   22.9522  -20.2496   -9.7757 C   0  0  0  0  0  0  0  0  0  0  0  0
   24.4468  -20.3151   -9.7480 C   0  0  0  0  0  0  0  0  0  0  0  0
   25.0164  -21.3797  -10.6487 C   0  0  2  0  0  0  0  0  0  0  0  0
   25.9403  -22.2429   -9.9672 N   0  0  0  0  0  0  0  0  0  0  0  0
   25.7022  -20.6676  -11.7862 C   0  0  0  0  0  0  0  0  0  0  0  0
   26.7158  -19.9842  -11.5929 O   0  0  0  0  0  0  0  0  0  0  0  0
   18.5245  -20.8211   -9.4342 C   0  0  0  0  0  0  0  0  0  0  0  0
   24.6460  -21.7603  -15.8040 C   0  0  1  0  0  0  0  0  0  0  0  0
   25.9367  -21.1130  -15.3672 C   0  0  0  0  0  0  0  0  0  0  0  0
   26.8445  -22.2568  -14.8949 C   0  0  1  0  0  0  0  0  0  0  0  0
   25.7502  -20.1034  -14.2499 N   0  0  0  0  0  0  0  0  0  0  0  0
   25.1897  -20.7696  -13.1202 C   0  0  0  0  0  0  0  0  0  0  0  0
   25.0925  -18.8794  -14.6982 O   0  0  0  0  0  0  0  0  0  0  0  0
   23.8053  -18.8564  -14.5824 N   0  0  0  0  0  0  0  0  0  0  0  0
   25.7208  -17.7346  -15.2385 C   0  0  0  0  0  0  0  0  0  0  0  0
   27.1883  -17.6482  -15.3849 C   0  0  0  0  0  0  0  0  0  0  0  0
   27.4887  -16.3197  -15.9861 C   0  0  0  0  0  0  0  0  0  0  0  0
   26.3181  -15.4943  -15.4794 C   0  0  1  0  0  0  0  0  0  0  0  0
   25.1777  -16.4946  -15.7432 C   0  0  0  0  0  0  0  0  0  0  0  0
   25.0497  -16.5058  -17.2375 O   0  0  0  0  0  0  0  0  0  0  0  0
   24.4127  -15.4426  -17.8321 O   0  0  0  0  0  0  0  0  0  0  0  0
  2  3  2  0
  2  1  1  0
  4  2  1  0
  5  4  1  0
  6  5  1  0
  7  8  1  0
  7  6  1  0
  8 10  1  0
  8  9  1  1
 10 11  2  0
 13 12  1  6
 13 14  1  0
 13 15  1  0
 15 16  1  1
 16 10  1  0
 17 15  1  0
 17 18  2  0
 19 23  1  0
 19 17  1  0
 20 19  1  0
 21 22  1  0
 21 20  1  0
 22 23  1  0
 23 24  1  6
 24 26  2  0
 24 25  1  0
M  END
$$$$
