RVP.pdb
     RDKit          3D

 26 26  0  0  1  0  0  0  0  0999 V2000
   28.4248  -27.6815  -16.5677 N   0  0  0  0  0  0  0  0  0  0  0  0
   27.0807  -27.7053  -17.0408 C   0  0  0  0  0  0  0  0  0  0  0  0
   26.2509  -28.5404  -16.5228 N   0  0  0  0  0  0  0  0  0  0  0  0
   26.6248  -26.8405  -18.0631 N   0  0  0  0  0  0  0  0  0  0  0  0
   27.4954  -25.7977  -18.5403 C   0  0  0  0  0  0  0  0  0  0  0  0
   28.0811  -24.9865  -17.4102 C   0  0  0  0  0  0  0  0  0  0  0  0
   27.6118  -23.5658  -17.4354 C   0  0  0  0  0  0  0  0  0  0  0  0
   28.6940  -22.5718  -17.1039 C   0  0  2  0  0  0  0  0  0  0  0  0
   29.9805  -23.1899  -16.9424 N   0  0  0  0  0  0  0  0  0  0  0  0
   28.2776  -21.8821  -15.8303 C   0  0  0  0  0  0  0  0  0  0  0  0
   28.4825  -22.4027  -14.7262 O   0  0  0  0  0  0  0  0  0  0  0  0
   25.2753  -28.5902  -16.8239 C   0  0  0  0  0  0  0  0  0  0  0  0
   26.3965  -17.6452  -13.9257 C   0  0  1  0  0  0  0  0  0  0  0  0
   27.0520  -18.4435  -15.0251 C   0  0  0  0  0  0  0  0  0  0  0  0
   26.2240  -18.1802  -16.2902 C   0  0  2  0  0  0  0  0  0  0  0  0
   27.0983  -19.9323  -14.7357 N   0  0  0  0  0  0  0  0  0  0  0  0
   27.6330  -20.6034  -15.8750 C   0  0  0  0  0  0  0  0  0  0  0  0
   25.8439  -20.4409  -14.1881 O   0  0  0  0  0  0  0  0  0  0  0  0
   24.9579  -20.8069  -15.0551 N   0  0  0  0  0  0  0  0  0  0  0  0
   25.5122  -20.5689  -12.8204 C   0  0  0  0  0  0  0  0  0  0  0  0
   26.3724  -20.0135  -11.7555 C   0  0  0  0  0  0  0  0  0  0  0  0
   25.7161  -20.3284  -10.4567 C   0  0  0  0  0  0  0  0  0  0  0  0
   24.9707  -21.6059  -10.8042 C   0  0  1  0  0  0  0  0  0  0  0  0
   24.3833  -21.1872  -12.1644 C   0  0  0  0  0  0  0  0  0  0  0  0
   23.3262  -20.1857  -11.8049 O   0  0  0  0  0  0  0  0  0  0  0  0
   22.1107  -20.6651  -11.3777 O   0  0  0  0  0  0  0  0  0  0  0  0
  2  3  2  0
  2  1  1  0
  4  2  1  0
  5  4  1  0
  6  5  1  0
  7  8  1  0
  7  6  1  0
  8 10  1  0
  8  9  1  1
 10 11  2  0
 13 12  1  6
 13 14  1  0
 13 15  1  0
 15 16  1  1
 16 10  1  0
 17 15  1  0
 17 18  2  0
 19 23  1  0
 19 17  1  0
 20 19  1  0
 21 22  1  0
 21 20  1  0
 22 23  1  0
 23 24  1  1
 24 26  2  0
 24 25  1  0
M  END
$$$$
