SCR.pdb
     RDKit          3D

 24 23  0  0  1  0  0  0  0  0999 V2000
    6.9613  -15.4566   20.9338 O   0  0  0  0  0  0  0  0  0  0  0  0
    6.3284  -14.2395   20.8980 C   0  0  0  0  0  0  0  0  0  0  0  0
    7.2332  -13.0740   21.2931 C   0  0  2  0  0  0  0  0  0  0  0  0
    8.2588  -13.0013   20.2644 N   0  0  0  0  0  0  0  0  0  0  0  0
    7.8103  -13.3486   22.6192 C   0  0  0  0  0  0  0  0  0  0  0  0
    8.9595  -13.8785   22.7824 O   0  0  0  0  0  0  0  0  0  0  0  0
    7.1279  -13.0416   23.8344 N   0  0  0  0  0  0  0  0  0  0  0  0
    7.6011  -13.4669   25.1232 C   0  0  1  0  0  0  0  0  0  0  0  0
    6.7891  -12.8581   26.2547 C   0  0  0  0  0  0  0  0  0  0  0  0
    6.8666  -11.0457   26.2038 S   0  0  0  0  0  0  0  0  0  0  0  0
    7.7067  -14.9404   25.2733 C   0  0  0  0  0  0  0  0  0  0  0  0
    6.9622  -15.7167   24.5796 O   0  0  0  0  0  0  0  0  0  0  0  0
    9.7409  -19.5382   20.4007 N   0  0  0  0  0  0  0  0  0  0  0  0
   10.4901  -18.3210   20.4301 C   0  0  0  0  0  0  0  0  0  0  0  0
   10.7888  -17.7564   19.2887 N   0  0  0  0  0  0  0  0  0  0  0  0
   10.9003  -17.7415   21.6548 N   0  0  0  0  0  0  0  0  0  0  0  0
   10.5757  -18.3800   22.9019 C   0  0  0  0  0  0  0  0  0  0  0  0
   11.0303  -17.6060   24.1156 C   0  0  0  0  0  0  0  0  0  0  0  0
   10.1017  -16.5011   24.4887 C   0  0  0  0  0  0  0  0  0  0  0  0
    9.3456  -16.7662   25.7741 C   0  0  2  0  0  0  0  0  0  0  0  0
    8.6030  -15.5875   26.1588 N   0  0  0  0  0  0  0  0  0  0  0  0
   10.2191  -17.1909   26.8680 C   0  0  0  0  0  0  0  0  0  0  0  0
   10.9156  -16.3283   27.4971 O   0  0  0  0  0  0  0  0  0  0  0  0
   10.3661  -18.4986   27.3028 O   0  0  0  0  0  0  0  0  0  0  0  0
  1  2  1  0
  2  3  1  0
  3  5  1  0
  3  4  1  6
  5  6  2  0
  7  8  1  0
  7  5  1  0
  8 11  1  0
  8  9  1  1
 10  9  1  0
 11 12  2  0
 11 21  1  0
 14 13  1  0
 15 14  2  0
 16 14  1  0
 17 16  1  0
 18 17  1  0
 19 18  1  0
 20 19  1  6
 21 20  1  0
 22 24  1  0
 22 20  1  0
 23 22  2  0
M  END
$$$$
