SCR.pdb
     RDKit          3D

 24 23  0  0  1  0  0  0  0  0999 V2000
    8.0571  -19.5503   21.1893 O   0  0  0  0  0  0  0  0  0  0  0  0
    6.7158  -19.3086   21.0299 C   0  0  0  0  0  0  0  0  0  0  0  0
    6.3932  -18.4749   19.7913 C   0  0  2  0  0  0  0  0  0  0  0  0
    6.4952  -19.3858   18.6621 N   0  0  0  0  0  0  0  0  0  0  0  0
    7.3655  -17.3741   19.6929 C   0  0  0  0  0  0  0  0  0  0  0  0
    7.8003  -16.9265   18.5799 O   0  0  0  0  0  0  0  0  0  0  0  0
    7.9015  -16.7153   20.8397 N   0  0  0  0  0  0  0  0  0  0  0  0
    8.6470  -15.4893   20.7573 C   0  0  1  0  0  0  0  0  0  0  0  0
    7.7919  -14.3383   20.2528 C   0  0  0  0  0  0  0  0  0  0  0  0
    6.3982  -14.0288   21.3732 S   0  0  0  0  0  0  0  0  0  0  0  0
    9.3501  -15.1229   22.0128 C   0  0  0  0  0  0  0  0  0  0  0  0
    8.7046  -14.6035   22.9883 O   0  0  0  0  0  0  0  0  0  0  0  0
    6.6987  -18.3154   26.2981 N   0  0  0  0  0  0  0  0  0  0  0  0
    7.8892  -19.0740   26.0722 C   0  0  0  0  0  0  0  0  0  0  0  0
    7.7716  -20.2455   25.5026 N   0  0  0  0  0  0  0  0  0  0  0  0
    9.1587  -18.5775   26.4536 N   0  0  0  0  0  0  0  0  0  0  0  0
   10.3138  -18.8423   25.6386 C   0  0  0  0  0  0  0  0  0  0  0  0
   11.0476  -17.5968   25.2041 C   0  0  0  0  0  0  0  0  0  0  0  0
   10.5246  -17.0210   23.9323 C   0  0  0  0  0  0  0  0  0  0  0  0
   11.2602  -15.7706   23.4970 C   0  0  2  0  0  0  0  0  0  0  0  0
   10.7372  -15.3092   22.2311 N   0  0  0  0  0  0  0  0  0  0  0  0
   12.7066  -15.9678   23.4029 C   0  0  0  0  0  0  0  0  0  0  0  0
   13.2460  -16.1873   22.2690 O   0  0  0  0  0  0  0  0  0  0  0  0
   13.5822  -15.9367   24.4768 O   0  0  0  0  0  0  0  0  0  0  0  0
  1  2  1  0
  2  3  1  0
  3  5  1  0
  3  4  1  6
  5  6  2  0
  7  8  1  0
  7  5  1  0
  8 11  1  0
  8  9  1  1
 10  9  1  0
 11 12  2  0
 11 21  1  0
 14 13  1  0
 15 14  2  0
 16 14  1  0
 17 16  1  0
 18 17  1  0
 19 18  1  0
 20 19  1  6
 21 20  1  0
 22 24  1  0
 22 20  1  0
 23 22  2  0
M  END
$$$$
