SCR.pdb
     RDKit          3D

 24 23  0  0  1  0  0  0  0  0999 V2000
    9.0299  -16.1170   17.8797 O   0  0  0  0  0  0  0  0  0  0  0  0
    8.8432  -14.9244   17.2272 C   0  0  0  0  0  0  0  0  0  0  0  0
    8.0421  -13.9083   18.0390 C   0  0  2  0  0  0  0  0  0  0  0  0
    7.9435  -12.7218   17.2036 N   0  0  0  0  0  0  0  0  0  0  0  0
    8.7586  -13.6323   19.2949 C   0  0  0  0  0  0  0  0  0  0  0  0
    9.2221  -12.4816   19.5938 O   0  0  0  0  0  0  0  0  0  0  0  0
    8.9923  -14.6339   20.2841 N   0  0  0  0  0  0  0  0  0  0  0  0
    9.2087  -14.3247   21.6710 C   0  0  1  0  0  0  0  0  0  0  0  0
    8.0310  -13.5780   22.2760 C   0  0  0  0  0  0  0  0  0  0  0  0
    6.6072  -14.6824   22.4920 S   0  0  0  0  0  0  0  0  0  0  0  0
    9.5820  -15.4976   22.5016 C   0  0  0  0  0  0  0  0  0  0  0  0
    9.5532  -15.4217   23.7789 O   0  0  0  0  0  0  0  0  0  0  0  0
   15.2473  -13.7796   17.3405 N   0  0  0  0  0  0  0  0  0  0  0  0
   15.9188  -14.8700   17.9759 C   0  0  0  0  0  0  0  0  0  0  0  0
   17.1847  -15.0543   17.7030 N   0  0  0  0  0  0  0  0  0  0  0  0
   15.2382  -15.7283   18.8725 N   0  0  0  0  0  0  0  0  0  0  0  0
   13.8870  -15.4360   19.2690 C   0  0  0  0  0  0  0  0  0  0  0  0
   13.3254  -16.4123   20.2741 C   0  0  0  0  0  0  0  0  0  0  0  0
   11.9114  -16.1227   20.6468 C   0  0  0  0  0  0  0  0  0  0  0  0
   11.3703  -17.0599   21.7065 C   0  0  2  0  0  0  0  0  0  0  0  0
    9.9844  -16.7493   21.9750 N   0  0  0  0  0  0  0  0  0  0  0  0
   12.1449  -17.0207   22.9467 C   0  0  0  0  0  0  0  0  0  0  0  0
   12.8716  -18.0156   23.2743 O   0  0  0  0  0  0  0  0  0  0  0  0
   12.1635  -15.9582   23.8364 O   0  0  0  0  0  0  0  0  0  0  0  0
  1  2  1  0
  2  3  1  0
  3  5  1  0
  3  4  1  6
  5  6  2  0
  7  8  1  0
  7  5  1  0
  8 11  1  0
  8  9  1  1
 10  9  1  0
 11 12  2  0
 11 21  1  0
 14 13  1  0
 15 14  2  0
 16 14  1  0
 17 16  1  0
 18 17  1  0
 19 18  1  0
 20 19  1  6
 21 20  1  0
 22 24  1  0
 22 20  1  0
 23 22  2  0
M  END
$$$$
