SCR.pdb
     RDKit          3D

 24 23  0  0  1  0  0  0  0  0999 V2000
    6.9648  -15.4896   21.1655 O   0  0  0  0  0  0  0  0  0  0  0  0
    6.5568  -14.2898   20.6392 C   0  0  0  0  0  0  0  0  0  0  0  0
    7.4525  -13.1179   21.0360 C   0  0  2  0  0  0  0  0  0  0  0  0
    8.4634  -13.0207   19.9948 N   0  0  0  0  0  0  0  0  0  0  0  0
    8.0503  -13.4006   22.3511 C   0  0  0  0  0  0  0  0  0  0  0  0
    9.2050  -13.9248   22.4930 O   0  0  0  0  0  0  0  0  0  0  0  0
    7.3838  -13.1087   23.5787 N   0  0  0  0  0  0  0  0  0  0  0  0
    7.9518  -13.4077   24.8646 C   0  0  1  0  0  0  0  0  0  0  0  0
    7.3212  -12.5769   25.9704 C   0  0  0  0  0  0  0  0  0  0  0  0
    5.5122  -12.7163   25.9321 S   0  0  0  0  0  0  0  0  0  0  0  0
    7.9425  -14.8520   25.2094 C   0  0  0  0  0  0  0  0  0  0  0  0
    7.0996  -15.6432   24.6601 O   0  0  0  0  0  0  0  0  0  0  0  0
    8.9208  -19.0128   20.0169 N   0  0  0  0  0  0  0  0  0  0  0  0
    9.2687  -17.6390   20.2051 C   0  0  0  0  0  0  0  0  0  0  0  0
    9.1466  -16.8296   19.1849 N   0  0  0  0  0  0  0  0  0  0  0  0
    9.7337  -17.1647   21.4551 N   0  0  0  0  0  0  0  0  0  0  0  0
   10.2411  -18.0865   22.4355 C   0  0  0  0  0  0  0  0  0  0  0  0
    9.5373  -18.0023   23.7683 C   0  0  0  0  0  0  0  0  0  0  0  0
   10.0576  -16.9097   24.6388 C   0  0  0  0  0  0  0  0  0  0  0  0
    9.3252  -16.8002   25.9600 C   0  0  2  0  0  0  0  0  0  0  0  0
    8.8286  -15.4543   26.1358 N   0  0  0  0  0  0  0  0  0  0  0  0
   10.1554  -17.1842   27.1016 C   0  0  0  0  0  0  0  0  0  0  0  0
   10.3683  -18.4169   27.3470 O   0  0  0  0  0  0  0  0  0  0  0  0
   10.7574  -16.2955   27.9783 O   0  0  0  0  0  0  0  0  0  0  0  0
  1  2  1  0
  2  3  1  0
  3  5  1  0
  3  4  1  6
  5  6  2  0
  7  8  1  0
  7  5  1  0
  8 11  1  0
  8  9  1  1
 10  9  1  0
 11 12  2  0
 11 21  1  0
 14 13  1  0
 15 14  2  0
 16 14  1  0
 17 16  1  0
 18 17  1  0
 19 18  1  0
 20 19  1  6
 21 20  1  0
 22 24  1  0
 22 20  1  0
 23 22  2  0
M  END
$$$$
