SCR.pdb
     RDKit          3D

 24 23  0  0  1  0  0  0  0  0999 V2000
    5.1316  -22.2931   23.1318 O   0  0  0  0  0  0  0  0  0  0  0  0
    5.6396  -21.0233   23.0188 C   0  0  0  0  0  0  0  0  0  0  0  0
    4.7694  -19.9608   23.6873 C   0  0  2  0  0  0  0  0  0  0  0  0
    3.7229  -19.6438   22.7283 N   0  0  0  0  0  0  0  0  0  0  0  0
    5.6032  -18.7864   23.9919 C   0  0  0  0  0  0  0  0  0  0  0  0
    5.1311  -17.6057   24.0971 O   0  0  0  0  0  0  0  0  0  0  0  0
    7.0127  -18.8750   24.1960 N   0  0  0  0  0  0  0  0  0  0  0  0
    7.8140  -17.7527   24.6011 C   0  0  1  0  0  0  0  0  0  0  0  0
    7.3522  -17.1761   25.9295 C   0  0  0  0  0  0  0  0  0  0  0  0
    7.3726  -18.4448   27.2270 S   0  0  0  0  0  0  0  0  0  0  0  0
    9.2737  -18.0245   24.6146 C   0  0  0  0  0  0  0  0  0  0  0  0
    9.7101  -19.2060   24.8420 O   0  0  0  0  0  0  0  0  0  0  0  0
    7.1515  -12.9732   19.8750 N   0  0  0  0  0  0  0  0  0  0  0  0
    8.0844  -13.4224   18.8893 C   0  0  0  0  0  0  0  0  0  0  0  0
    8.3452  -12.6276   17.8837 N   0  0  0  0  0  0  0  0  0  0  0  0
    8.7081  -14.6889   18.9930 N   0  0  0  0  0  0  0  0  0  0  0  0
    8.5938  -15.4547   20.2049 C   0  0  0  0  0  0  0  0  0  0  0  0
    9.5666  -15.0361   21.2806 C   0  0  0  0  0  0  0  0  0  0  0  0
    9.3313  -15.7211   22.5836 C   0  0  0  0  0  0  0  0  0  0  0  0
   10.5311  -16.5078   23.0688 C   0  0  2  0  0  0  0  0  0  0  0  0
   10.2679  -17.0419   24.3858 N   0  0  0  0  0  0  0  0  0  0  0  0
   11.7605  -15.7152   23.0829 C   0  0  0  0  0  0  0  0  0  0  0  0
   12.3777  -15.4796   21.9926 O   0  0  0  0  0  0  0  0  0  0  0  0
   12.3414  -15.1736   24.2187 O   0  0  0  0  0  0  0  0  0  0  0  0
  1  2  1  0
  2  3  1  0
  3  5  1  0
  3  4  1  6
  5  6  2  0
  7  8  1  0
  7  5  1  0
  8 11  1  0
  8  9  1  1
 10  9  1  0
 11 12  2  0
 11 21  1  0
 14 13  1  0
 15 14  2  0
 16 14  1  0
 17 16  1  0
 18 17  1  0
 19 18  1  0
 20 19  1  1
 21 20  1  0
 22 24  1  0
 22 20  1  0
 23 22  2  0
M  END
$$$$
