DQE.pdb
     RDKit          3D

 27 26  0  0  1  0  0  0  0  0999 V2000
    9.1760  -19.3013   17.6742 N   0  0  0  0  0  0  0  0  0  0  0  0
   10.4231  -18.5971   17.5905 C   0  0  1  0  0  0  0  0  0  0  0  0
   10.6042  -17.9093   16.2560 C   0  0  0  0  0  0  0  0  0  0  0  0
   10.5380  -18.9096   15.1340 C   0  0  0  0  0  0  0  0  0  0  0  0
   10.2294  -20.1064   15.3619 O   0  0  0  0  0  0  0  0  0  0  0  0
   10.5707  -17.6675   18.7227 C   0  0  0  0  0  0  0  0  0  0  0  0
   11.6994  -17.1291   18.9599 O   0  0  0  0  0  0  0  0  0  0  0  0
   10.8260  -18.4722   13.8519 O   0  0  0  0  0  0  0  0  0  0  0  0
    5.9216  -14.6422   21.6001 N   0  0  0  0  0  0  0  0  0  0  0  0
    7.0219  -14.1990   22.3674 C   0  0  0  0  0  0  0  0  0  0  0  0
    6.8848  -13.3158   23.2411 O   0  0  0  0  0  0  0  0  0  0  0  0
    8.4065  -14.7842   22.1524 C   0  0  0  0  0  0  0  0  0  0  0  0
    8.3375  -15.7536   21.0171 C   0  0  0  0  0  0  0  0  0  0  0  0
    9.6735  -16.3101   20.6740 C   0  0  2  0  0  0  0  0  0  0  0  0
    9.5194  -17.3128   19.5992 N   0  0  0  0  0  0  0  0  0  0  0  0
   10.4046  -16.8667   21.7962 C   0  0  0  0  0  0  0  0  0  0  0  0
    9.9678  -17.9503   22.3249 O   0  0  0  0  0  0  0  0  0  0  0  0
   11.5780  -16.3240   22.3674 N   0  0  0  0  0  0  0  0  0  0  0  0
   12.3550  -17.0752   23.3465 C   0  0  1  0  0  0  0  0  0  0  0  0
   13.8142  -16.6498   23.2773 C   0  0  0  0  0  0  0  0  0  0  0  0
   14.6947  -17.3531   24.2479 C   0  0  0  0  0  0  0  0  0  0  0  0
   16.1088  -16.9517   24.1903 C   0  0  0  0  0  0  0  0  0  0  0  0
   17.0734  -17.6541   23.8542 O   0  0  0  0  0  0  0  0  0  0  0  0
   11.8426  -16.7564   24.6958 C   0  0  0  0  0  0  0  0  0  0  0  0
   12.1275  -17.5825   25.7976 O   0  0  0  0  0  0  0  0  0  0  0  0
   16.3930  -15.6300   24.5561 O   0  0  0  0  0  0  0  0  0  0  0  0
   11.1485  -15.7524   24.8908 O   0  0  0  0  0  0  0  0  0  0  0  0
  2  3  1  0
  2  6  1  0
  2  1  1  6
  4  5  2  0
  4  3  1  0
  6  7  2  0
  8  4  1  0
 10  9  1  0
 10 12  1  0
 11 10  2  0
 13 12  1  0
 14 13  1  1
 15 14  1  0
 15  6  1  0
 16 17  2  0
 16 14  1  0
 18 16  1  0
 19 18  1  0
 19 20  1  1
 21 20  1  0
 21 22  1  0
 22 26  1  0
 23 22  2  0
 24 19  1  0
 25 24  1  0
 27 24  2  0
M  END
$$$$
