DQE.pdb
     RDKit          3D

 27 26  0  0  1  0  0  0  0  0999 V2000
   10.1588  -17.9651   16.5737 N   0  0  0  0  0  0  0  0  0  0  0  0
   11.1546  -16.9522   16.7761 C   0  0  1  0  0  0  0  0  0  0  0  0
   11.2116  -15.9677   15.6298 C   0  0  0  0  0  0  0  0  0  0  0  0
   11.6946  -16.6454   14.3762 C   0  0  0  0  0  0  0  0  0  0  0  0
   10.8752  -17.1145   13.5467 O   0  0  0  0  0  0  0  0  0  0  0  0
   10.9607  -16.2867   18.0750 C   0  0  0  0  0  0  0  0  0  0  0  0
   11.9408  -15.7086   18.6455 O   0  0  0  0  0  0  0  0  0  0  0  0
   13.0609  -16.7349   14.1677 O   0  0  0  0  0  0  0  0  0  0  0  0
    8.3457  -12.6909   21.1581 N   0  0  0  0  0  0  0  0  0  0  0  0
    7.7736  -12.8712   19.8790 C   0  0  0  0  0  0  0  0  0  0  0  0
    7.3939  -11.8938   19.1988 O   0  0  0  0  0  0  0  0  0  0  0  0
    7.6031  -14.2612   19.2919 C   0  0  0  0  0  0  0  0  0  0  0  0
    8.1203  -15.2567   20.2792 C   0  0  0  0  0  0  0  0  0  0  0  0
    9.5610  -15.5594   20.0668 C   0  0  2  0  0  0  0  0  0  0  0  0
    9.7269  -16.2371   18.7639 N   0  0  0  0  0  0  0  0  0  0  0  0
   10.1820  -16.3273   21.1290 C   0  0  0  0  0  0  0  0  0  0  0  0
    9.8302  -17.5519   21.2752 O   0  0  0  0  0  0  0  0  0  0  0  0
   11.1612  -15.8490   22.0290 N   0  0  0  0  0  0  0  0  0  0  0  0
   11.7842  -16.7364   23.0043 C   0  0  1  0  0  0  0  0  0  0  0  0
   13.2975  -16.6751   22.8589 C   0  0  0  0  0  0  0  0  0  0  0  0
   13.8662  -15.3124   23.0358 C   0  0  0  0  0  0  0  0  0  0  0  0
   15.2419  -15.1564   22.5384 C   0  0  0  0  0  0  0  0  0  0  0  0
   16.2919  -15.3237   23.1758 O   0  0  0  0  0  0  0  0  0  0  0  0
   11.4293  -16.2659   24.3598 C   0  0  0  0  0  0  0  0  0  0  0  0
   11.8168  -16.9839   25.5053 O   0  0  0  0  0  0  0  0  0  0  0  0
   15.3764  -14.7772   21.1970 O   0  0  0  0  0  0  0  0  0  0  0  0
   10.7808  -15.2263   24.5218 O   0  0  0  0  0  0  0  0  0  0  0  0
  2  3  1  0
  2  6  1  0
  2  1  1  6
  4  5  2  0
  4  3  1  0
  6  7  2  0
  8  4  1  0
 10  9  1  0
 10 12  1  0
 11 10  2  0
 13 12  1  0
 14 13  1  1
 15 14  1  0
 15  6  1  0
 16 17  2  0
 16 14  1  0
 18 16  1  0
 19 18  1  0
 19 20  1  1
 21 20  1  0
 21 22  1  0
 22 26  1  0
 23 22  2  0
 24 19  1  0
 25 24  1  0
 27 24  2  0
M  END
$$$$
