DQE.pdb
     RDKit          3D

 27 26  0  0  1  0  0  0  0  0999 V2000
    9.7529  -17.2443   16.1840 N   0  0  0  0  0  0  0  0  0  0  0  0
   10.8867  -16.4057   16.4479 C   0  0  1  0  0  0  0  0  0  0  0  0
   11.1545  -15.4331   15.3214 C   0  0  0  0  0  0  0  0  0  0  0  0
   11.2668  -16.1629   14.0103 C   0  0  0  0  0  0  0  0  0  0  0  0
   11.4827  -15.5330   12.9444 O   0  0  0  0  0  0  0  0  0  0  0  0
   10.7398  -15.7290   17.7472 C   0  0  0  0  0  0  0  0  0  0  0  0
   11.7138  -15.0699   18.2341 O   0  0  0  0  0  0  0  0  0  0  0  0
   11.1257  -17.5406   14.0161 O   0  0  0  0  0  0  0  0  0  0  0  0
    8.7429  -12.1349   20.3062 N   0  0  0  0  0  0  0  0  0  0  0  0
    7.9166  -12.5215   19.2275 C   0  0  0  0  0  0  0  0  0  0  0  0
    7.5068  -11.6829   18.3964 O   0  0  0  0  0  0  0  0  0  0  0  0
    7.5013  -13.9708   19.0461 C   0  0  0  0  0  0  0  0  0  0  0  0
    8.0828  -14.7715   20.1659 C   0  0  0  0  0  0  0  0  0  0  0  0
    9.4834  -15.1880   19.8881 C   0  0  2  0  0  0  0  0  0  0  0  0
    9.5594  -15.7542   18.5251 N   0  0  0  0  0  0  0  0  0  0  0  0
   10.0465  -16.1065   20.8592 C   0  0  0  0  0  0  0  0  0  0  0  0
    9.6320  -17.3201   20.8548 O   0  0  0  0  0  0  0  0  0  0  0  0
   11.0319  -15.7884   21.8212 N   0  0  0  0  0  0  0  0  0  0  0  0
   11.9824  -16.7925   22.2849 C   0  0  1  0  0  0  0  0  0  0  0  0
   12.8228  -17.2809   21.1144 C   0  0  0  0  0  0  0  0  0  0  0  0
   13.8591  -18.2792   21.4903 C   0  0  0  0  0  0  0  0  0  0  0  0
   14.6538  -18.7878   20.3616 C   0  0  0  0  0  0  0  0  0  0  0  0
   14.5546  -18.4626   19.1694 O   0  0  0  0  0  0  0  0  0  0  0  0
   12.8844  -16.1631   23.2724 C   0  0  0  0  0  0  0  0  0  0  0  0
   13.0042  -14.7647   23.3627 O   0  0  0  0  0  0  0  0  0  0  0  0
   15.6286  -19.7444   20.6715 O   0  0  0  0  0  0  0  0  0  0  0  0
   13.5584  -16.8516   24.0465 O   0  0  0  0  0  0  0  0  0  0  0  0
  2  3  1  0
  2  6  1  0
  2  1  1  6
  4  5  2  0
  4  3  1  0
  6  7  2  0
  8  4  1  0
 10  9  1  0
 10 12  1  0
 11 10  2  0
 13 12  1  0
 14 13  1  1
 15 14  1  0
 15  6  1  0
 16 17  2  0
 16 14  1  0
 18 16  1  0
 19 18  1  0
 19 20  1  6
 21 20  1  0
 21 22  1  0
 22 26  1  0
 23 22  2  0
 24 19  1  0
 25 24  1  0
 27 24  2  0
M  END
$$$$
