DQE.pdb
     RDKit          3D

 27 26  0  0  1  0  0  0  0  0999 V2000
    9.7023  -18.4007   18.6541 N   0  0  0  0  0  0  0  0  0  0  0  0
   10.7834  -17.4578   18.6336 C   0  0  1  0  0  0  0  0  0  0  0  0
   11.2536  -17.1557   17.2285 C   0  0  0  0  0  0  0  0  0  0  0  0
   10.0781  -16.9617   16.3094 C   0  0  0  0  0  0  0  0  0  0  0  0
    8.9032  -17.0668   16.7433 O   0  0  0  0  0  0  0  0  0  0  0  0
   10.4223  -16.2388   19.3761 C   0  0  0  0  0  0  0  0  0  0  0  0
   11.2574  -15.2832   19.4735 O   0  0  0  0  0  0  0  0  0  0  0  0
   10.3307  -16.6659   14.9803 O   0  0  0  0  0  0  0  0  0  0  0  0
    8.9442  -12.4196   19.4042 N   0  0  0  0  0  0  0  0  0  0  0  0
    8.0218  -13.2299   18.7053 C   0  0  0  0  0  0  0  0  0  0  0  0
    7.7957  -13.0480   17.4896 O   0  0  0  0  0  0  0  0  0  0  0  0
    7.2764  -14.3480   19.4124 C   0  0  0  0  0  0  0  0  0  0  0  0
    7.6741  -14.3422   20.8530 C   0  0  0  0  0  0  0  0  0  0  0  0
    8.9703  -15.0359   21.0789 C   0  0  2  0  0  0  0  0  0  0  0  0
    9.1757  -16.0384   20.0127 N   0  0  0  0  0  0  0  0  0  0  0  0
    9.1133  -15.6413   22.3891 C   0  0  0  0  0  0  0  0  0  0  0  0
    8.0499  -16.0067   23.0058 O   0  0  0  0  0  0  0  0  0  0  0  0
   10.3348  -15.8790   23.0594 N   0  0  0  0  0  0  0  0  0  0  0  0
   10.3748  -16.6386   24.3036 C   0  0  1  0  0  0  0  0  0  0  0  0
   10.7656  -18.0797   24.0112 C   0  0  0  0  0  0  0  0  0  0  0  0
   10.8112  -18.9493   25.2168 C   0  0  0  0  0  0  0  0  0  0  0  0
   11.1958  -20.3437   24.9487 C   0  0  0  0  0  0  0  0  0  0  0  0
   10.4394  -21.3175   24.8203 O   0  0  0  0  0  0  0  0  0  0  0  0
   11.4070  -16.0472   25.1807 C   0  0  0  0  0  0  0  0  0  0  0  0
   12.4393  -15.2491   24.6560 O   0  0  0  0  0  0  0  0  0  0  0  0
   12.5680  -20.5952   24.8255 O   0  0  0  0  0  0  0  0  0  0  0  0
   11.3895  -16.2394   26.4016 O   0  0  0  0  0  0  0  0  0  0  0  0
  2  3  1  0
  2  6  1  0
  2  1  1  6
  4  5  2  0
  4  3  1  0
  6  7  2  0
  8  4  1  0
 10  9  1  0
 10 12  1  0
 11 10  2  0
 13 12  1  0
 14 13  1  1
 15 14  1  0
 15  6  1  0
 16 17  2  0
 16 14  1  0
 18 16  1  0
 19 18  1  0
 19 20  1  6
 21 20  1  0
 21 22  1  0
 22 26  1  0
 23 22  2  0
 24 19  1  0
 25 24  1  0
 27 24  2  0
M  END
$$$$
