DQE.pdb
     RDKit          3D

 27 26  0  0  1  0  0  0  0  0999 V2000
   10.3530  -17.5714   16.0160 N   0  0  0  0  0  0  0  0  0  0  0  0
   11.6442  -16.9869   16.2386 C   0  0  1  0  0  0  0  0  0  0  0  0
   12.0843  -16.1137   15.0852 C   0  0  0  0  0  0  0  0  0  0  0  0
   12.1229  -16.9076   13.8076 C   0  0  0  0  0  0  0  0  0  0  0  0
   11.0687  -17.1280   13.1598 O   0  0  0  0  0  0  0  0  0  0  0  0
   11.6744  -16.2709   17.5247 C   0  0  0  0  0  0  0  0  0  0  0  0
   12.7893  -15.9359   18.0395 O   0  0  0  0  0  0  0  0  0  0  0  0
   13.3482  -17.3840   13.3720 O   0  0  0  0  0  0  0  0  0  0  0  0
    6.6595  -13.7210   20.1951 N   0  0  0  0  0  0  0  0  0  0  0  0
    7.3514  -13.1357   19.1113 C   0  0  0  0  0  0  0  0  0  0  0  0
    6.8192  -12.2485   18.4101 O   0  0  0  0  0  0  0  0  0  0  0  0
    8.7653  -13.5685   18.7660 C   0  0  0  0  0  0  0  0  0  0  0  0
    9.2142  -14.5672   19.7831 C   0  0  0  0  0  0  0  0  0  0  0  0
   10.5739  -15.0937   19.4889 C   0  0  2  0  0  0  0  0  0  0  0  0
   10.5209  -15.9129   18.2600 N   0  0  0  0  0  0  0  0  0  0  0  0
   11.1851  -15.8347   20.5755 C   0  0  0  0  0  0  0  0  0  0  0  0
   10.9818  -17.0995   20.6345 O   0  0  0  0  0  0  0  0  0  0  0  0
   12.0049  -15.2878   21.5888 N   0  0  0  0  0  0  0  0  0  0  0  0
   12.6375  -16.1418   22.5874 C   0  0  1  0  0  0  0  0  0  0  0  0
   14.1031  -15.7604   22.7327 C   0  0  0  0  0  0  0  0  0  0  0  0
   14.8324  -16.5471   23.7627 C   0  0  0  0  0  0  0  0  0  0  0  0
   16.2489  -16.1822   23.9190 C   0  0  0  0  0  0  0  0  0  0  0  0
   16.8753  -15.3226   23.2821 O   0  0  0  0  0  0  0  0  0  0  0  0
   11.9691  -15.9178   23.8866 C   0  0  0  0  0  0  0  0  0  0  0  0
   12.1362  -16.8152   24.9565 O   0  0  0  0  0  0  0  0  0  0  0  0
   16.9657  -16.8851   24.8955 O   0  0  0  0  0  0  0  0  0  0  0  0
   11.2440  -14.9332   24.0665 O   0  0  0  0  0  0  0  0  0  0  0  0
  2  3  1  0
  2  6  1  0
  2  1  1  6
  4  5  2  0
  4  3  1  0
  6  7  2  0
  8  4  1  0
 10  9  1  0
 10 12  1  0
 11 10  2  0
 13 12  1  0
 14 13  1  1
 15 14  1  0
 15  6  1  0
 16 17  2  0
 16 14  1  0
 18 16  1  0
 19 18  1  0
 19 20  1  1
 21 20  1  0
 21 22  1  0
 22 26  1  0
 23 22  2  0
 24 19  1  0
 25 24  1  0
 27 24  2  0
M  END
$$$$
