DQE.pdb
     RDKit          3D

 27 26  0  0  1  0  0  0  0  0999 V2000
    8.8877  -15.2506   17.9223 N   0  0  0  0  0  0  0  0  0  0  0  0
    9.2348  -16.5564   18.4047 C   0  0  1  0  0  0  0  0  0  0  0  0
    9.0893  -17.6186   17.3382 C   0  0  0  0  0  0  0  0  0  0  0  0
    7.7737  -17.4708   16.6230 C   0  0  0  0  0  0  0  0  0  0  0  0
    7.5627  -16.4875   15.8693 O   0  0  0  0  0  0  0  0  0  0  0  0
   10.5795  -16.5472   19.0042 C   0  0  0  0  0  0  0  0  0  0  0  0
   11.0789  -17.6251   19.4612 O   0  0  0  0  0  0  0  0  0  0  0  0
    6.8103  -18.4460   16.8206 O   0  0  0  0  0  0  0  0  0  0  0  0
   15.1084  -12.8314   17.2543 N   0  0  0  0  0  0  0  0  0  0  0  0
   15.7850  -13.5357   18.2751 C   0  0  0  0  0  0  0  0  0  0  0  0
   17.0218  -13.4301   18.4206 O   0  0  0  0  0  0  0  0  0  0  0  0
   15.0273  -14.4437   19.2275 C   0  0  0  0  0  0  0  0  0  0  0  0
   13.5773  -14.3985   18.8686 C   0  0  0  0  0  0  0  0  0  0  0  0
   12.7906  -15.4385   19.5842 C   0  0  2  0  0  0  0  0  0  0  0  0
   11.3895  -15.3937   19.1164 N   0  0  0  0  0  0  0  0  0  0  0  0
   12.8531  -15.3570   21.0310 C   0  0  0  0  0  0  0  0  0  0  0  0
   11.9833  -14.6327   21.6340 O   0  0  0  0  0  0  0  0  0  0  0  0
   13.7922  -16.0179   21.8549 N   0  0  0  0  0  0  0  0  0  0  0  0
   13.6915  -15.9577   23.3085 C   0  0  1  0  0  0  0  0  0  0  0  0
   12.7228  -17.0234   23.7991 C   0  0  0  0  0  0  0  0  0  0  0  0
   12.7102  -17.1936   25.2765 C   0  0  0  0  0  0  0  0  0  0  0  0
   11.8077  -18.2496   25.7610 C   0  0  0  0  0  0  0  0  0  0  0  0
   11.0701  -18.9754   25.0783 O   0  0  0  0  0  0  0  0  0  0  0  0
   15.0235  -16.2423   23.8826 C   0  0  0  0  0  0  0  0  0  0  0  0
   15.3462  -15.8638   25.1981 O   0  0  0  0  0  0  0  0  0  0  0  0
   11.7813  -18.4546   27.1461 O   0  0  0  0  0  0  0  0  0  0  0  0
   15.8905  -16.8219   23.2193 O   0  0  0  0  0  0  0  0  0  0  0  0
  2  3  1  0
  2  6  1  0
  2  1  1  6
  4  5  2  0
  4  3  1  0
  6  7  2  0
  8  4  1  0
 10  9  1  0
 10 12  1  0
 11 10  2  0
 13 12  1  0
 14 13  1  6
 15 14  1  0
 15  6  1  0
 16 17  2  0
 16 14  1  0
 18 16  1  0
 19 18  1  0
 19 20  1  1
 21 20  1  0
 21 22  1  0
 22 26  1  0
 23 22  2  0
 24 19  1  0
 25 24  1  0
 27 24  2  0
M  END
$$$$
