DQE.pdb
     RDKit          3D

 27 26  0  0  1  0  0  0  0  0999 V2000
   10.5259  -15.3695   15.4559 N   0  0  0  0  0  0  0  0  0  0  0  0
   10.2660  -15.3159   16.8658 C   0  0  1  0  0  0  0  0  0  0  0  0
    9.1369  -16.2345   17.2756 C   0  0  0  0  0  0  0  0  0  0  0  0
    8.4840  -16.8408   16.0631 C   0  0  0  0  0  0  0  0  0  0  0  0
    9.1401  -17.0208   15.0064 O   0  0  0  0  0  0  0  0  0  0  0  0
   11.4984  -15.5700   17.6302 C   0  0  0  0  0  0  0  0  0  0  0  0
   11.7835  -16.7538   18.0009 O   0  0  0  0  0  0  0  0  0  0  0  0
    7.1469  -17.1913   16.1486 O   0  0  0  0  0  0  0  0  0  0  0  0
   16.7054  -12.5344   16.7102 N   0  0  0  0  0  0  0  0  0  0  0  0
   17.1015  -13.2658   17.8522 C   0  0  0  0  0  0  0  0  0  0  0  0
   18.2686  -13.1909   18.2931 O   0  0  0  0  0  0  0  0  0  0  0  0
   16.1184  -14.1665   18.5788 C   0  0  0  0  0  0  0  0  0  0  0  0
   14.7695  -13.9875   17.9609 C   0  0  0  0  0  0  0  0  0  0  0  0
   13.7466  -14.8695   18.5840 C   0  0  2  0  0  0  0  0  0  0  0  0
   12.4240  -14.5665   17.9985 N   0  0  0  0  0  0  0  0  0  0  0  0
   13.6947  -14.8083   20.0321 C   0  0  0  0  0  0  0  0  0  0  0  0
   13.3291  -13.7070   20.5781 O   0  0  0  0  0  0  0  0  0  0  0  0
   14.0058  -15.8677   20.9145 N   0  0  0  0  0  0  0  0  0  0  0  0
   13.9169  -15.6938   22.3597 C   0  0  1  0  0  0  0  0  0  0  0  0
   13.3314  -16.9481   22.9911 C   0  0  0  0  0  0  0  0  0  0  0  0
   13.4226  -16.9758   24.4753 C   0  0  0  0  0  0  0  0  0  0  0  0
   12.8155  -18.1604   25.1016 C   0  0  0  0  0  0  0  0  0  0  0  0
   12.2829  -19.1210   24.5269 O   0  0  0  0  0  0  0  0  0  0  0  0
   15.2817  -15.4999   22.8932 C   0  0  0  0  0  0  0  0  0  0  0  0
   16.4164  -15.7553   22.1026 O   0  0  0  0  0  0  0  0  0  0  0  0
   12.8440  -18.2044   26.5011 O   0  0  0  0  0  0  0  0  0  0  0  0
   15.4612  -15.1072   24.0512 O   0  0  0  0  0  0  0  0  0  0  0  0
  2  3  1  0
  2  6  1  0
  2  1  1  6
  4  5  2  0
  4  3  1  0
  6  7  2  0
  8  4  1  0
 10  9  1  0
 10 12  1  0
 11 10  2  0
 13 12  1  0
 14 13  1  6
 15 14  1  0
 15  6  1  0
 16 17  2  0
 16 14  1  0
 18 16  1  0
 19 18  1  0
 19 20  1  1
 21 20  1  0
 21 22  1  0
 22 26  1  0
 23 22  2  0
 24 19  1  0
 25 24  1  0
 27 24  2  0
M  END
$$$$
