DQE.pdb
     RDKit          3D

 27 26  0  0  1  0  0  0  0  0999 V2000
    9.8330  -18.8899   19.2342 N   0  0  0  0  0  0  0  0  0  0  0  0
   10.6734  -17.8990   18.6257 C   0  0  1  0  0  0  0  0  0  0  0  0
   10.2667  -17.5998   17.2003 C   0  0  0  0  0  0  0  0  0  0  0  0
   10.5364  -18.7863   16.3151 C   0  0  0  0  0  0  0  0  0  0  0  0
   10.2292  -19.9461   16.6893 O   0  0  0  0  0  0  0  0  0  0  0  0
   10.7293  -16.6852   19.4571 C   0  0  0  0  0  0  0  0  0  0  0  0
   11.4837  -15.7174   19.1188 O   0  0  0  0  0  0  0  0  0  0  0  0
   11.1296  -18.5607   15.0841 O   0  0  0  0  0  0  0  0  0  0  0  0
    7.1796  -12.4941   20.1925 N   0  0  0  0  0  0  0  0  0  0  0  0
    6.7068  -13.7666   20.5836 C   0  0  0  0  0  0  0  0  0  0  0  0
    5.4892  -14.0447   20.5360 O   0  0  0  0  0  0  0  0  0  0  0  0
    7.6665  -14.8361   21.0744 C   0  0  0  0  0  0  0  0  0  0  0  0
    9.0577  -14.2975   20.9862 C   0  0  0  0  0  0  0  0  0  0  0  0
   10.0689  -15.2771   21.4661 C   0  0  2  0  0  0  0  0  0  0  0  0
    9.9841  -16.5029   20.6449 N   0  0  0  0  0  0  0  0  0  0  0  0
    9.9807  -15.5965   22.8782 C   0  0  0  0  0  0  0  0  0  0  0  0
   10.1543  -14.6488   23.7245 O   0  0  0  0  0  0  0  0  0  0  0  0
    9.7085  -16.8732   23.4200 N   0  0  0  0  0  0  0  0  0  0  0  0
   10.5924  -17.4732   24.4127 C   0  0  1  0  0  0  0  0  0  0  0  0
   12.0256  -17.4499   23.9028 C   0  0  0  0  0  0  0  0  0  0  0  0
   12.9547  -16.6548   24.7493 C   0  0  0  0  0  0  0  0  0  0  0  0
   14.3737  -17.0131   24.5998 C   0  0  0  0  0  0  0  0  0  0  0  0
   15.1644  -16.5969   23.7405 O   0  0  0  0  0  0  0  0  0  0  0  0
   10.5267  -16.6645   25.6483 C   0  0  0  0  0  0  0  0  0  0  0  0
   10.9483  -17.1864   26.8843 O   0  0  0  0  0  0  0  0  0  0  0  0
   14.8840  -17.9249   25.5323 O   0  0  0  0  0  0  0  0  0  0  0  0
   10.0982  -15.5054   25.6267 O   0  0  0  0  0  0  0  0  0  0  0  0
  2  3  1  0
  2  6  1  0
  2  1  1  1
  4  5  2  0
  4  3  1  0
  6  7  2  0
  8  4  1  0
 10  9  1  0
 10 12  1  0
 11 10  2  0
 13 12  1  0
 14 13  1  6
 15 14  1  0
 15  6  1  0
 16 17  2  0
 16 14  1  0
 18 16  1  0
 19 18  1  0
 19 20  1  6
 21 20  1  0
 21 22  1  0
 22 26  1  0
 23 22  2  0
 24 19  1  0
 25 24  1  0
 27 24  2  0
M  END
$$$$
