DQE.pdb
     RDKit          3D

 27 26  0  0  1  0  0  0  0  0999 V2000
   11.4113  -17.0501   18.5966 N   0  0  0  0  0  0  0  0  0  0  0  0
   12.2370  -15.9158   18.8961 C   0  0  1  0  0  0  0  0  0  0  0  0
   12.7698  -15.2492   17.6477 C   0  0  0  0  0  0  0  0  0  0  0  0
   13.8686  -14.2815   17.9947 C   0  0  0  0  0  0  0  0  0  0  0  0
   14.5442  -14.4307   19.0439 O   0  0  0  0  0  0  0  0  0  0  0  0
   11.5233  -14.9718   19.7721 C   0  0  0  0  0  0  0  0  0  0  0  0
   12.1685  -14.2922   20.6336 O   0  0  0  0  0  0  0  0  0  0  0  0
   14.1094  -13.2292   17.1271 O   0  0  0  0  0  0  0  0  0  0  0  0
    7.5420  -14.6053   17.5139 N   0  0  0  0  0  0  0  0  0  0  0  0
    8.3854  -13.5021   17.7736 C   0  0  0  0  0  0  0  0  0  0  0  0
    9.3108  -13.1994   16.9899 O   0  0  0  0  0  0  0  0  0  0  0  0
    8.1918  -12.6500   19.0154 C   0  0  0  0  0  0  0  0  0  0  0  0
    8.0794  -13.5578   20.1972 C   0  0  0  0  0  0  0  0  0  0  0  0
    9.4112  -13.9413   20.7373 C   0  0  2  0  0  0  0  0  0  0  0  0
   10.1271  -14.7526   19.7307 N   0  0  0  0  0  0  0  0  0  0  0  0
    9.3726  -14.6245   22.0162 C   0  0  0  0  0  0  0  0  0  0  0  0
    8.7565  -14.0564   22.9869 O   0  0  0  0  0  0  0  0  0  0  0  0
    9.9521  -15.8826   22.2974 N   0  0  0  0  0  0  0  0  0  0  0  0
    9.8454  -16.4805   23.6232 C   0  0  1  0  0  0  0  0  0  0  0  0
    9.3341  -17.9083   23.5012 C   0  0  0  0  0  0  0  0  0  0  0  0
   10.2701  -18.8268   22.7998 C   0  0  0  0  0  0  0  0  0  0  0  0
    9.7973  -20.2160   22.6949 C   0  0  0  0  0  0  0  0  0  0  0  0
    8.9668  -20.7810   23.4215 O   0  0  0  0  0  0  0  0  0  0  0  0
   11.1931  -16.5209   24.2289 C   0  0  0  0  0  0  0  0  0  0  0  0
   12.3424  -16.2390   23.4690 O   0  0  0  0  0  0  0  0  0  0  0  0
   10.3481  -20.9813   21.6595 O   0  0  0  0  0  0  0  0  0  0  0  0
   11.3450  -16.8042   25.4223 O   0  0  0  0  0  0  0  0  0  0  0  0
  2  3  1  0
  2  6  1  0
  2  1  1  6
  4  5  2  0
  4  3  1  0
  6  7  2  0
  8  4  1  0
 10  9  1  0
 10 12  1  0
 11 10  2  0
 13 12  1  0
 14 13  1  6
 15 14  1  0
 15  6  1  0
 16 17  2  0
 16 14  1  0
 18 16  1  0
 19 18  1  0
 19 20  1  6
 21 20  1  0
 21 22  1  0
 22 26  1  0
 23 22  2  0
 24 19  1  0
 25 24  1  0
 27 24  2  0
M  END
$$$$
