VMQ.pdb
     RDKit          3D

 25 24  0  0  1  0  0  0  0  0999 V2000
    7.6025  -18.7945   21.5755 C   0  0  0  0  0  0  0  0  0  0  0  0
    8.4755  -18.2238   20.5063 C   0  0  1  0  0  0  0  0  0  0  0  0
    8.0459  -18.8323   19.1827 C   0  0  0  0  0  0  0  0  0  0  0  0
    8.3849  -16.7391   20.3718 C   0  0  2  0  0  0  0  0  0  0  0  0
    9.1647  -16.3240   19.2305 N   0  0  0  0  0  0  0  0  0  0  0  0
    8.7884  -16.0187   21.6093 C   0  0  0  0  0  0  0  0  0  0  0  0
   10.0114  -15.8626   21.8582 O   0  0  0  0  0  0  0  0  0  0  0  0
    6.6471  -11.3961   27.7107 C   0  0  0  0  0  0  0  0  0  0  0  0
    6.1734  -12.3044   26.2021 S   0  0  0  0  0  0  0  0  0  0  0  0
    7.5601  -13.3832   25.6957 C   0  0  0  0  0  0  0  0  0  0  0  0
    7.1753  -14.0032   24.3893 C   0  0  0  0  0  0  0  0  0  0  0  0
    8.2423  -14.8654   23.7847 C   0  0  2  0  0  0  0  0  0  0  0  0
    7.8567  -15.4870   22.5437 N   0  0  0  0  0  0  0  0  0  0  0  0
    8.8013  -15.8419   24.7539 C   0  0  0  0  0  0  0  0  0  0  0  0
    8.3447  -17.0121   24.7985 O   0  0  0  0  0  0  0  0  0  0  0  0
    8.5907  -20.1150   28.1086 N   0  0  0  0  0  0  0  0  0  0  0  0
    8.0025  -18.8604   27.8278 C   0  0  0  0  0  0  0  0  0  0  0  0
    6.7688  -18.7837   27.6733 O   0  0  0  0  0  0  0  0  0  0  0  0
    8.8251  -17.6266   27.7123 C   0  0  0  0  0  0  0  0  0  0  0  0
    9.7409  -17.7391   26.5277 C   0  0  0  0  0  0  0  0  0  0  0  0
   10.6314  -16.5604   26.3388 C   0  0  2  0  0  0  0  0  0  0  0  0
    9.8479  -15.5126   25.6518 N   0  0  0  0  0  0  0  0  0  0  0  0
   11.7684  -16.8734   25.4485 C   0  0  0  0  0  0  0  0  0  0  0  0
   11.5978  -16.9505   24.1875 O   0  0  0  0  0  0  0  0  0  0  0  0
   13.0475  -17.0954   25.8938 O   0  0  0  0  0  0  0  0  0  0  0  0
  2  1  1  1
  3  2  1  0
  4  2  1  0
  4  5  1  6
  6  4  1  0
  7  6  2  0
  9 10  1  0
  9  8  1  0
 11 10  1  0
 12 11  1  1
 12 13  1  0
 13  6  1  0
 14 12  1  0
 14 15  2  0
 17 16  1  0
 17 19  1  0
 18 17  2  0
 19 20  1  0
 21 20  1  6
 21 22  1  0
 22 14  1  0
 23 21  1  0
 24 23  2  0
 25 23  1  0
M  END
$$$$
