VMQ.pdb
     RDKit          3D

 25 24  0  0  1  0  0  0  0  0999 V2000
    7.4732  -18.6332   19.3982 C   0  0  0  0  0  0  0  0  0  0  0  0
    8.0158  -17.9588   20.6155 C   0  0  1  0  0  0  0  0  0  0  0  0
    9.3200  -18.6447   20.9833 C   0  0  0  0  0  0  0  0  0  0  0  0
    8.3060  -16.5056   20.4301 C   0  0  2  0  0  0  0  0  0  0  0  0
    9.2722  -16.3527   19.3689 N   0  0  0  0  0  0  0  0  0  0  0  0
    8.7503  -15.8382   21.6833 C   0  0  0  0  0  0  0  0  0  0  0  0
    9.9808  -15.6925   21.8988 O   0  0  0  0  0  0  0  0  0  0  0  0
    6.6452  -11.6636   28.1374 C   0  0  0  0  0  0  0  0  0  0  0  0
    6.1793  -12.4398   26.5544 S   0  0  0  0  0  0  0  0  0  0  0  0
    7.5975  -13.4071   25.9248 C   0  0  0  0  0  0  0  0  0  0  0  0
    7.2085  -13.9225   24.5749 C   0  0  0  0  0  0  0  0  0  0  0  0
    8.2771  -14.7261   23.8969 C   0  0  2  0  0  0  0  0  0  0  0  0
    7.8500  -15.3467   22.6691 N   0  0  0  0  0  0  0  0  0  0  0  0
    8.9336  -15.6899   24.8165 C   0  0  0  0  0  0  0  0  0  0  0  0
    8.3198  -16.7235   25.1835 O   0  0  0  0  0  0  0  0  0  0  0  0
   15.0623  -16.1885   25.2854 N   0  0  0  0  0  0  0  0  0  0  0  0
   14.2383  -16.6786   24.2463 C   0  0  0  0  0  0  0  0  0  0  0  0
   14.7479  -16.9730   23.1483 O   0  0  0  0  0  0  0  0  0  0  0  0
   12.7730  -16.8513   24.4344 C   0  0  0  0  0  0  0  0  0  0  0  0
   12.3901  -16.4373   25.8260 C   0  0  0  0  0  0  0  0  0  0  0  0
   10.9311  -16.5399   26.1067 C   0  0  2  0  0  0  0  0  0  0  0  0
   10.2478  -15.4979   25.3123 N   0  0  0  0  0  0  0  0  0  0  0  0
   10.6261  -16.2439   27.5219 C   0  0  0  0  0  0  0  0  0  0  0  0
   10.0895  -15.1342   27.8473 O   0  0  0  0  0  0  0  0  0  0  0  0
   10.8858  -17.1087   28.5553 O   0  0  0  0  0  0  0  0  0  0  0  0
  2  1  1  6
  3  2  1  0
  4  2  1  0
  4  5  1  6
  6  4  1  0
  7  6  2  0
  9 10  1  0
  9  8  1  0
 11 10  1  0
 12 11  1  1
 12 13  1  0
 13  6  1  0
 14 12  1  0
 14 15  2  0
 17 16  1  0
 17 19  1  0
 18 17  2  0
 19 20  1  0
 21 20  1  1
 21 22  1  0
 22 14  1  0
 23 21  1  0
 24 23  2  0
 25 23  1  0
M  END
$$$$
