VMQ.pdb
     RDKit          3D

 25 24  0  0  1  0  0  0  0  0999 V2000
    8.1485  -12.2710   19.6592 C   0  0  0  0  0  0  0  0  0  0  0  0
    7.3696  -13.5427   19.5755 C   0  0  1  0  0  0  0  0  0  0  0  0
    7.1135  -13.8340   18.1071 C   0  0  0  0  0  0  0  0  0  0  0  0
    8.0701  -14.7271   20.1559 C   0  0  2  0  0  0  0  0  0  0  0  0
    7.2490  -15.8981   19.9618 N   0  0  0  0  0  0  0  0  0  0  0  0
    8.4388  -14.5405   21.5850 C   0  0  0  0  0  0  0  0  0  0  0  0
    9.5352  -13.9942   21.8703 O   0  0  0  0  0  0  0  0  0  0  0  0
    7.4180  -11.9091   28.2672 C   0  0  0  0  0  0  0  0  0  0  0  0
    6.6678  -12.4396   26.6921 S   0  0  0  0  0  0  0  0  0  0  0  0
    7.1471  -14.1720   26.3573 C   0  0  0  0  0  0  0  0  0  0  0  0
    6.7824  -14.4579   24.9344 C   0  0  0  0  0  0  0  0  0  0  0  0
    7.9565  -14.7558   24.0511 C   0  0  2  0  0  0  0  0  0  0  0  0
    7.6104  -14.9505   22.6664 N   0  0  0  0  0  0  0  0  0  0  0  0
    8.8016  -15.8562   24.5805 C   0  0  0  0  0  0  0  0  0  0  0  0
    8.3576  -17.0318   24.6039 O   0  0  0  0  0  0  0  0  0  0  0  0
   14.9228  -16.6142   22.3553 N   0  0  0  0  0  0  0  0  0  0  0  0
   14.2374  -16.3339   23.5598 C   0  0  0  0  0  0  0  0  0  0  0  0
   14.8106  -15.6808   24.4524 O   0  0  0  0  0  0  0  0  0  0  0  0
   12.8440  -16.8022   23.7862 C   0  0  0  0  0  0  0  0  0  0  0  0
   12.3883  -16.3882   25.1558 C   0  0  0  0  0  0  0  0  0  0  0  0
   10.9828  -16.7707   25.4658 C   0  0  2  0  0  0  0  0  0  0  0  0
   10.1141  -15.6420   25.0721 N   0  0  0  0  0  0  0  0  0  0  0  0
   10.7770  -16.9609   26.9167 C   0  0  0  0  0  0  0  0  0  0  0  0
   10.2153  -16.0524   27.6128 O   0  0  0  0  0  0  0  0  0  0  0  0
   11.1589  -18.0880   27.6001 O   0  0  0  0  0  0  0  0  0  0  0  0
  2  1  1  6
  3  2  1  0
  4  2  1  0
  4  5  1  1
  6  4  1  0
  7  6  2  0
  9 10  1  0
  9  8  1  0
 11 10  1  0
 12 11  1  1
 12 13  1  0
 13  6  1  0
 14 12  1  0
 14 15  2  0
 17 16  1  0
 17 19  1  0
 18 17  2  0
 19 20  1  0
 21 20  1  1
 21 22  1  0
 22 14  1  0
 23 21  1  0
 24 23  2  0
 25 23  1  0
M  END
$$$$
