VMQ.pdb
     RDKit          3D

 25 24  0  0  1  0  0  0  0  0999 V2000
    6.9766  -18.0794   21.2419 C   0  0  0  0  0  0  0  0  0  0  0  0
    7.9068  -17.4528   20.2555 C   0  0  1  0  0  0  0  0  0  0  0  0
    7.3902  -17.7718   18.8633 C   0  0  0  0  0  0  0  0  0  0  0  0
    8.0084  -15.9672   20.3704 C   0  0  2  0  0  0  0  0  0  0  0  0
    8.8524  -15.4722   19.3094 N   0  0  0  0  0  0  0  0  0  0  0  0
    8.4813  -15.5197   21.7081 C   0  0  0  0  0  0  0  0  0  0  0  0
    9.6885  -15.6853   22.0199 O   0  0  0  0  0  0  0  0  0  0  0  0
    6.8706  -10.6385   26.6915 C   0  0  0  0  0  0  0  0  0  0  0  0
    6.2288  -12.3341   26.8871 S   0  0  0  0  0  0  0  0  0  0  0  0
    7.4451  -13.5146   26.2011 C   0  0  0  0  0  0  0  0  0  0  0  0
    7.0925  -13.7159   24.7609 C   0  0  0  0  0  0  0  0  0  0  0  0
    8.0539  -14.5901   24.0132 C   0  0  2  0  0  0  0  0  0  0  0  0
    7.6342  -14.9051   22.6717 N   0  0  0  0  0  0  0  0  0  0  0  0
    8.4375  -15.8012   24.7824 C   0  0  0  0  0  0  0  0  0  0  0  0
    7.5837  -16.6948   25.0113 O   0  0  0  0  0  0  0  0  0  0  0  0
   12.5513  -19.1324   21.9718 N   0  0  0  0  0  0  0  0  0  0  0  0
   12.4633  -18.6399   23.2941 C   0  0  0  0  0  0  0  0  0  0  0  0
   13.4869  -18.6037   24.0032 O   0  0  0  0  0  0  0  0  0  0  0  0
   11.1731  -18.1625   23.8597 C   0  0  0  0  0  0  0  0  0  0  0  0
   11.3655  -17.7709   25.2965 C   0  0  0  0  0  0  0  0  0  0  0  0
   10.1295  -17.2641   25.9549 C   0  0  2  0  0  0  0  0  0  0  0  0
    9.7484  -16.0044   25.2828 N   0  0  0  0  0  0  0  0  0  0  0  0
   10.3692  -16.9178   27.3713 C   0  0  0  0  0  0  0  0  0  0  0  0
   10.4398  -15.6976   27.7337 O   0  0  0  0  0  0  0  0  0  0  0  0
   10.5267  -17.8481   28.3679 O   0  0  0  0  0  0  0  0  0  0  0  0
  2  1  1  1
  3  2  1  0
  4  2  1  0
  4  5  1  6
  6  4  1  0
  7  6  2  0
  9 10  1  0
  9  8  1  0
 11 10  1  0
 12 11  1  1
 12 13  1  0
 13  6  1  0
 14 12  1  0
 14 15  2  0
 17 16  1  0
 17 19  1  0
 18 17  2  0
 19 20  1  0
 21 20  1  6
 21 22  1  0
 22 14  1  0
 23 21  1  0
 24 23  2  0
 25 23  1  0
M  END
$$$$
