VMQ.pdb
     RDKit          3D

 25 24  0  0  1  0  0  0  0  0999 V2000
    6.7475  -17.4620   18.8595 C   0  0  0  0  0  0  0  0  0  0  0  0
    7.2987  -17.0149   20.1737 C   0  0  1  0  0  0  0  0  0  0  0  0
    8.4704  -17.9184   20.5169 C   0  0  0  0  0  0  0  0  0  0  0  0
    7.7968  -15.6070   20.1798 C   0  0  2  0  0  0  0  0  0  0  0  0
    8.8039  -15.4622   19.1561 N   0  0  0  0  0  0  0  0  0  0  0  0
    8.2961  -15.1738   21.5125 C   0  0  0  0  0  0  0  0  0  0  0  0
    9.5254  -15.2583   21.7651 O   0  0  0  0  0  0  0  0  0  0  0  0
    6.8315  -11.1626   28.2130 C   0  0  0  0  0  0  0  0  0  0  0  0
    6.2170  -11.8187   26.6265 S   0  0  0  0  0  0  0  0  0  0  0  0
    7.4465  -12.9909   25.9501 C   0  0  0  0  0  0  0  0  0  0  0  0
    6.9679  -13.3873   24.5889 C   0  0  0  0  0  0  0  0  0  0  0  0
    7.9292  -14.2533   23.8317 C   0  0  2  0  0  0  0  0  0  0  0  0
    7.4509  -14.6611   22.5355 N   0  0  0  0  0  0  0  0  0  0  0  0
    8.4180  -15.4004   24.6382 C   0  0  0  0  0  0  0  0  0  0  0  0
    7.6381  -16.3442   24.9224 O   0  0  0  0  0  0  0  0  0  0  0  0
   13.6758  -16.8577   23.2929 N   0  0  0  0  0  0  0  0  0  0  0  0
   13.6708  -15.9524   24.3788 C   0  0  0  0  0  0  0  0  0  0  0  0
   14.5111  -15.0335   24.4135 O   0  0  0  0  0  0  0  0  0  0  0  0
   12.6824  -16.0722   25.4839 C   0  0  0  0  0  0  0  0  0  0  0  0
   11.5892  -17.0204   25.0831 C   0  0  0  0  0  0  0  0  0  0  0  0
   10.2741  -16.7289   25.7186 C   0  0  2  0  0  0  0  0  0  0  0  0
    9.7506  -15.4860   25.1146 N   0  0  0  0  0  0  0  0  0  0  0  0
   10.4158  -16.4556   27.1638 C   0  0  0  0  0  0  0  0  0  0  0  0
   10.8458  -17.3605   27.9520 O   0  0  0  0  0  0  0  0  0  0  0  0
   10.1082  -15.2516   27.7463 O   0  0  0  0  0  0  0  0  0  0  0  0
  2  1  1  6
  3  2  1  0
  4  2  1  0
  4  5  1  6
  6  4  1  0
  7  6  2  0
  9 10  1  0
  9  8  1  0
 11 10  1  0
 12 11  1  1
 12 13  1  0
 13  6  1  0
 14 12  1  0
 14 15  2  0
 17 16  1  0
 17 19  1  0
 18 17  2  0
 19 20  1  0
 21 20  1  6
 21 22  1  0
 22 14  1  0
 23 21  1  0
 24 23  2  0
 25 23  1  0
M  END
$$$$
