VMQ.pdb
     RDKit          3D

 25 24  0  0  1  0  0  0  0  0999 V2000
    7.7899  -18.2706   20.0410 C   0  0  0  0  0  0  0  0  0  0  0  0
    8.2629  -17.6387   21.3091 C   0  0  1  0  0  0  0  0  0  0  0  0
    9.6415  -18.1957   21.6189 C   0  0  0  0  0  0  0  0  0  0  0  0
    8.3808  -16.1513   21.2431 C   0  0  2  0  0  0  0  0  0  0  0  0
    9.2708  -15.7997   20.1627 N   0  0  0  0  0  0  0  0  0  0  0  0
    8.8093  -15.5454   22.5325 C   0  0  0  0  0  0  0  0  0  0  0  0
   10.0343  -15.3546   22.7445 O   0  0  0  0  0  0  0  0  0  0  0  0
    6.0016  -12.4111   27.7341 C   0  0  0  0  0  0  0  0  0  0  0  0
    6.1182  -11.5469   26.1326 S   0  0  0  0  0  0  0  0  0  0  0  0
    6.6782  -12.7303   24.8561 C   0  0  0  0  0  0  0  0  0  0  0  0
    7.2280  -13.9209   25.5768 C   0  0  0  0  0  0  0  0  0  0  0  0
    8.3146  -14.6371   24.8327 C   0  0  2  0  0  0  0  0  0  0  0  0
    7.8998  -15.1628   23.5573 N   0  0  0  0  0  0  0  0  0  0  0  0
    8.9980  -15.6578   25.6673 C   0  0  0  0  0  0  0  0  0  0  0  0
    8.4080  -16.7298   25.9545 O   0  0  0  0  0  0  0  0  0  0  0  0
   14.9328  -16.1455   25.6639 N   0  0  0  0  0  0  0  0  0  0  0  0
   13.9873  -16.6287   24.7304 C   0  0  0  0  0  0  0  0  0  0  0  0
   14.3368  -16.8245   23.5508 O   0  0  0  0  0  0  0  0  0  0  0  0
   12.5810  -16.9095   25.1254 C   0  0  0  0  0  0  0  0  0  0  0  0
   12.3923  -16.5924   26.5809 C   0  0  0  0  0  0  0  0  0  0  0  0
   10.9658  -16.5101   27.0009 C   0  0  2  0  0  0  0  0  0  0  0  0
   10.3124  -15.4793   26.1678 N   0  0  0  0  0  0  0  0  0  0  0  0
   10.8350  -16.0516   28.3996 C   0  0  0  0  0  0  0  0  0  0  0  0
   11.3096  -16.7506   29.3543 O   0  0  0  0  0  0  0  0  0  0  0  0
   10.2174  -14.8816   28.7643 O   0  0  0  0  0  0  0  0  0  0  0  0
  2  1  1  6
  3  2  1  0
  4  2  1  0
  4  5  1  6
  6  4  1  0
  7  6  2  0
  9 10  1  0
  9  8  1  0
 11 10  1  0
 12 11  1  1
 12 13  1  0
 13  6  1  0
 14 12  1  0
 14 15  2  0
 17 16  1  0
 17 19  1  0
 18 17  2  0
 19 20  1  0
 21 20  1  6
 21 22  1  0
 22 14  1  0
 23 21  1  0
 24 23  2  0
 25 23  1  0
M  END
$$$$
