VMQ.pdb
     RDKit          3D

 25 24  0  0  1  0  0  0  0  0999 V2000
    7.5020  -16.3410   20.1253 C   0  0  0  0  0  0  0  0  0  0  0  0
    8.2514  -15.1802   19.5579 C   0  0  1  0  0  0  0  0  0  0  0  0
    7.8716  -15.0543   18.0927 C   0  0  0  0  0  0  0  0  0  0  0  0
    7.9467  -13.8754   20.2175 C   0  0  2  0  0  0  0  0  0  0  0  0
    8.6292  -12.8208   19.5067 N   0  0  0  0  0  0  0  0  0  0  0  0
    8.2758  -13.8678   21.6683 C   0  0  0  0  0  0  0  0  0  0  0  0
    9.4659  -13.6764   22.0273 O   0  0  0  0  0  0  0  0  0  0  0  0
    7.9621  -11.4045   27.9970 C   0  0  0  0  0  0  0  0  0  0  0  0
    6.5706  -11.8422   26.9029 S   0  0  0  0  0  0  0  0  0  0  0  0
    6.7233  -13.5984   26.4177 C   0  0  0  0  0  0  0  0  0  0  0  0
    6.4173  -13.6747   24.9549 C   0  0  0  0  0  0  0  0  0  0  0  0
    7.6074  -13.9841   24.0973 C   0  0  2  0  0  0  0  0  0  0  0  0
    7.3072  -14.0678   22.6909 N   0  0  0  0  0  0  0  0  0  0  0  0
    8.3663  -15.1648   24.5825 C   0  0  0  0  0  0  0  0  0  0  0  0
    8.7471  -15.2165   25.7792 O   0  0  0  0  0  0  0  0  0  0  0  0
   10.5523  -18.5721   19.9819 N   0  0  0  0  0  0  0  0  0  0  0  0
   11.3049  -18.4571   21.1732 C   0  0  0  0  0  0  0  0  0  0  0  0
   12.3555  -19.1145   21.2993 O   0  0  0  0  0  0  0  0  0  0  0  0
   10.8698  -17.5669   22.2826 C   0  0  0  0  0  0  0  0  0  0  0  0
    9.8374  -18.2681   23.1176 C   0  0  0  0  0  0  0  0  0  0  0  0
    9.3546  -17.4687   24.2777 C   0  0  2  0  0  0  0  0  0  0  0  0
    8.6901  -16.2614   23.7443 N   0  0  0  0  0  0  0  0  0  0  0  0
   10.4752  -16.9864   25.1115 C   0  0  0  0  0  0  0  0  0  0  0  0
   10.7846  -15.7497   25.1231 O   0  0  0  0  0  0  0  0  0  0  0  0
   11.2392  -17.8017   25.9084 O   0  0  0  0  0  0  0  0  0  0  0  0
  2  1  1  1
  3  2  1  0
  4  2  1  0
  4  5  1  6
  6  4  1  0
  7  6  2  0
  9 10  1  0
  9  8  1  0
 11 10  1  0
 12 11  1  1
 12 13  1  0
 13  6  1  0
 14 12  1  0
 14 15  2  0
 17 16  1  0
 17 19  1  0
 18 17  2  0
 19 20  1  0
 21 20  1  6
 21 22  1  0
 22 14  1  0
 23 21  1  0
 24 23  2  0
 25 23  1  0
M  END
$$$$
