LMP.pdb
     RDKit          3D

 24 24  0  0  1  0  0  0  0  0999 V2000
    8.9914  -14.5307   17.9930 C   0  0  0  0  0  0  0  0  0  0  0  0
    7.9601  -13.9197   18.8960 C   0  0  2  0  0  0  0  0  0  0  0  0
    7.2479  -12.8376   18.1082 C   0  0  0  0  0  0  0  0  0  0  0  0
    8.5214  -13.3885   20.1828 C   0  0  0  0  0  0  0  0  0  0  0  0
    9.0072  -14.5365   21.0536 C   0  0  2  0  0  0  0  0  0  0  0  0
    8.0444  -15.6112   20.8999 N   0  0  0  0  0  0  0  0  0  0  0  0
    8.9756  -14.1280   22.4915 C   0  0  0  0  0  0  0  0  0  0  0  0
    9.2204  -12.9270   22.8548 O   0  0  0  0  0  0  0  0  0  0  0  0
    6.8892  -11.3847   26.7623 C   0  0  0  0  0  0  0  0  0  0  0  0
    5.7546  -12.7747   26.4790 S   0  0  0  0  0  0  0  0  0  0  0  0
    6.6685  -14.3699   26.5953 C   0  0  0  0  0  0  0  0  0  0  0  0
    7.1085  -14.7038   25.2294 C   0  0  0  0  0  0  0  0  0  0  0  0
    8.6112  -14.6154   24.9610 C   0  0  2  0  0  0  0  0  0  0  0  0
    8.6758  -15.0354   23.5319 N   0  0  0  0  0  0  0  0  0  0  0  0
    9.4082  -15.5109   25.7902 C   0  0  0  0  0  0  0  0  0  0  0  0
    9.6599  -16.6743   25.3207 O   0  0  0  0  0  0  0  0  0  0  0  0
    9.9130  -15.1803   27.0464 N   0  0  0  0  0  0  0  0  0  0  0  0
    9.6697  -13.9741   27.8101 C   0  0  0  0  0  0  0  0  0  0  0  0
   11.0524  -13.7638   28.4695 C   0  0  0  0  0  0  0  0  0  0  0  0
   11.2936  -15.1684   28.9788 C   0  0  0  0  0  0  0  0  0  0  0  0
   10.8283  -16.0265   27.8275 C   0  0  1  0  0  0  0  0  0  0  0  0
   10.0724  -17.1733   28.3938 C   0  0  0  0  0  0  0  0  0  0  0  0
    8.8228  -17.2252   28.2782 O   0  0  0  0  0  0  0  0  0  0  0  0
   10.6867  -18.2199   29.0623 O   0  0  0  0  0  0  0  0  0  0  0  0
  2  1  1  6
  2  3  1  0
  4  2  1  0
  4  5  1  0
  5  6  1  1
  7  5  1  0
  7  8  2  0
 10 11  1  0
 10  9  1  0
 11 12  1  0
 13 12  1  1
 14 13  1  0
 14  7  1  0
 15 16  2  0
 15 13  1  0
 17 15  1  0
 18 17  1  0
 19 18  1  0
 19 20  1  0
 20 21  1  0
 21 17  1  0
 21 22  1  1
 23 22  2  0
 24 22  1  0
M  END
$$$$
