LMP.pdb
     RDKit          3D

 24 24  0  0  1  0  0  0  0  0999 V2000
    3.2099  -20.0923   20.6134 C   0  0  0  0  0  0  0  0  0  0  0  0
    2.7158  -18.8695   21.3295 C   0  0  2  0  0  0  0  0  0  0  0  0
    1.5141  -18.3483   20.5660 C   0  0  0  0  0  0  0  0  0  0  0  0
    3.7621  -17.8077   21.5059 C   0  0  0  0  0  0  0  0  0  0  0  0
    4.9784  -18.3857   22.2121 C   0  0  2  0  0  0  0  0  0  0  0  0
    4.4915  -19.0327   23.4163 N   0  0  0  0  0  0  0  0  0  0  0  0
    5.8820  -17.2780   22.6498 C   0  0  0  0  0  0  0  0  0  0  0  0
    6.4684  -16.5161   21.8072 O   0  0  0  0  0  0  0  0  0  0  0  0
    7.5527  -11.7556   25.7348 C   0  0  0  0  0  0  0  0  0  0  0  0
    6.6979  -12.9929   26.7538 S   0  0  0  0  0  0  0  0  0  0  0  0
    7.4873  -14.6432   26.5381 C   0  0  0  0  0  0  0  0  0  0  0  0
    6.5889  -15.4303   25.6755 C   0  0  0  0  0  0  0  0  0  0  0  0
    7.2249  -16.0735   24.4427 C   0  0  2  0  0  0  0  0  0  0  0  0
    6.1436  -17.0047   24.0108 N   0  0  0  0  0  0  0  0  0  0  0  0
    8.4469  -16.8133   24.7325 C   0  0  0  0  0  0  0  0  0  0  0  0
    8.3257  -17.9179   25.3668 O   0  0  0  0  0  0  0  0  0  0  0  0
    9.7247  -16.4002   24.3602 N   0  0  0  0  0  0  0  0  0  0  0  0
   10.1026  -15.1595   23.7158 C   0  0  0  0  0  0  0  0  0  0  0  0
   11.2393  -15.6481   22.7883 C   0  0  0  0  0  0  0  0  0  0  0  0
   12.0278  -16.4702   23.7846 C   0  0  0  0  0  0  0  0  0  0  0  0
   10.9477  -17.1955   24.5497 C   0  0  1  0  0  0  0  0  0  0  0  0
   11.3233  -17.1815   25.9871 C   0  0  0  0  0  0  0  0  0  0  0  0
   10.7368  -16.4100   26.7860 O   0  0  0  0  0  0  0  0  0  0  0  0
   12.3139  -17.9960   26.5114 O   0  0  0  0  0  0  0  0  0  0  0  0
  2  1  1  6
  2  3  1  0
  4  2  1  0
  4  5  1  0
  5  6  1  1
  7  5  1  0
  7  8  2  0
 10 11  1  0
 10  9  1  0
 11 12  1  0
 13 12  1  1
 14 13  1  0
 14  7  1  0
 15 16  2  0
 15 13  1  0
 17 15  1  0
 18 17  1  0
 19 18  1  0
 19 20  1  0
 20 21  1  0
 21 17  1  0
 21 22  1  1
 23 22  2  0
 24 22  1  0
M  END
$$$$
