LMP.pdb
     RDKit          3D

 24 24  0  0  1  0  0  0  0  0999 V2000
   10.9661  -20.4021   21.6512 C   0  0  0  0  0  0  0  0  0  0  0  0
   10.6802  -19.1435   20.8854 C   0  0  2  0  0  0  0  0  0  0  0  0
   11.3668  -19.2632   19.5389 C   0  0  0  0  0  0  0  0  0  0  0  0
   11.0890  -17.8914   21.6054 C   0  0  0  0  0  0  0  0  0  0  0  0
   10.0457  -16.8051   21.3968 C   0  0  2  0  0  0  0  0  0  0  0  0
   10.5371  -15.9566   20.3270 N   0  0  0  0  0  0  0  0  0  0  0  0
    9.9541  -15.9512   22.6206 C   0  0  0  0  0  0  0  0  0  0  0  0
   10.8657  -15.1066   22.9208 O   0  0  0  0  0  0  0  0  0  0  0  0
    5.7321  -11.9421   25.4081 C   0  0  0  0  0  0  0  0  0  0  0  0
    7.1167  -12.7671   26.2458 S   0  0  0  0  0  0  0  0  0  0  0  0
    6.8417  -14.5883   26.2766 C   0  0  0  0  0  0  0  0  0  0  0  0
    7.2858  -15.1035   24.9697 C   0  0  0  0  0  0  0  0  0  0  0  0
    8.7969  -15.1982   24.7566 C   0  0  2  0  0  0  0  0  0  0  0  0
    8.8639  -16.0224   23.5160 N   0  0  0  0  0  0  0  0  0  0  0  0
    9.5018  -15.8618   25.8463 C   0  0  0  0  0  0  0  0  0  0  0  0
    9.7124  -17.1184   25.7275 O   0  0  0  0  0  0  0  0  0  0  0  0
    9.9613  -15.2190   26.9941 N   0  0  0  0  0  0  0  0  0  0  0  0
    9.7327  -13.8455   27.3925 C   0  0  0  0  0  0  0  0  0  0  0  0
   11.0910  -13.5029   28.0472 C   0  0  0  0  0  0  0  0  0  0  0  0
   11.2507  -14.7244   28.9263 C   0  0  0  0  0  0  0  0  0  0  0  0
   10.8042  -15.8480   28.0226 C   0  0  1  0  0  0  0  0  0  0  0  0
    9.9766  -16.7789   28.8324 C   0  0  0  0  0  0  0  0  0  0  0  0
    8.7353  -16.8415   28.6511 O   0  0  0  0  0  0  0  0  0  0  0  0
   10.5131  -17.6067   29.8053 O   0  0  0  0  0  0  0  0  0  0  0  0
  2  1  1  1
  2  3  1  0
  4  2  1  0
  4  5  1  0
  5  6  1  6
  7  5  1  0
  7  8  2  0
 10 11  1  0
 10  9  1  0
 11 12  1  0
 13 12  1  1
 14 13  1  0
 14  7  1  0
 15 16  2  0
 15 13  1  0
 17 15  1  0
 18 17  1  0
 19 18  1  0
 19 20  1  0
 20 21  1  0
 21 17  1  0
 21 22  1  1
 23 22  2  0
 24 22  1  0
M  END
$$$$
