LMP.pdb
     RDKit          3D

 24 24  0  0  1  0  0  0  0  0999 V2000
    2.8485  -20.7888   21.3073 C   0  0  0  0  0  0  0  0  0  0  0  0
    2.2438  -20.2403   22.5666 C   0  0  2  0  0  0  0  0  0  0  0  0
    0.7607  -20.0510   22.3154 C   0  0  0  0  0  0  0  0  0  0  0  0
    2.8899  -18.9728   23.0456 C   0  0  0  0  0  0  0  0  0  0  0  0
    4.4032  -19.0927   22.9575 C   0  0  2  0  0  0  0  0  0  0  0  0
    4.8395  -19.7525   24.1741 N   0  0  0  0  0  0  0  0  0  0  0  0
    5.0186  -17.7302   22.9582 C   0  0  0  0  0  0  0  0  0  0  0  0
    4.9347  -16.9541   21.9458 O   0  0  0  0  0  0  0  0  0  0  0  0
    7.1427  -11.7960   27.2717 C   0  0  0  0  0  0  0  0  0  0  0  0
    6.3948  -13.4347   27.0372 S   0  0  0  0  0  0  0  0  0  0  0  0
    7.4098  -14.4307   25.8662 C   0  0  0  0  0  0  0  0  0  0  0  0
    6.6102  -15.6191   25.5213 C   0  0  0  0  0  0  0  0  0  0  0  0
    6.4207  -15.8988   24.0300 C   0  0  2  0  0  0  0  0  0  0  0  0
    5.7262  -17.2175   24.0682 N   0  0  0  0  0  0  0  0  0  0  0  0
    7.6720  -16.0047   23.2901 C   0  0  0  0  0  0  0  0  0  0  0  0
    8.3476  -17.0819   23.4341 O   0  0  0  0  0  0  0  0  0  0  0  0
    8.1701  -15.0193   22.4399 N   0  0  0  0  0  0  0  0  0  0  0  0
    7.6038  -13.7145   22.1676 C   0  0  0  0  0  0  0  0  0  0  0  0
    7.9388  -13.5599   20.6660 C   0  0  0  0  0  0  0  0  0  0  0  0
    9.3965  -13.9655   20.7004 C   0  0  0  0  0  0  0  0  0  0  0  0
    9.3916  -15.1536   21.6313 C   0  0  1  0  0  0  0  0  0  0  0  0
   10.5798  -15.0410   22.5160 C   0  0  0  0  0  0  0  0  0  0  0  0
   10.4423  -14.7087   23.7194 O   0  0  0  0  0  0  0  0  0  0  0  0
   11.8696  -15.2892   22.0750 O   0  0  0  0  0  0  0  0  0  0  0  0
  2  1  1  6
  2  3  1  0
  4  2  1  0
  4  5  1  0
  5  6  1  1
  7  5  1  0
  7  8  2  0
 10 11  1  0
 10  9  1  0
 11 12  1  0
 13 12  1  1
 14 13  1  0
 14  7  1  0
 15 16  2  0
 15 13  1  0
 17 15  1  0
 18 17  1  0
 19 18  1  0
 19 20  1  0
 20 21  1  0
 21 17  1  0
 21 22  1  1
 23 22  2  0
 24 22  1  0
M  END
$$$$
