LMP.pdb
     RDKit          3D

 24 24  0  0  1  0  0  0  0  0999 V2000
    5.8366  -19.8197   20.3633 C   0  0  0  0  0  0  0  0  0  0  0  0
    6.5684  -19.9022   21.6709 C   0  0  2  0  0  0  0  0  0  0  0  0
    7.6530  -20.9509   21.5211 C   0  0  0  0  0  0  0  0  0  0  0  0
    5.6785  -20.1905   22.8449 C   0  0  0  0  0  0  0  0  0  0  0  0
    6.2603  -19.5705   24.1055 C   0  0  2  0  0  0  0  0  0  0  0  0
    5.3819  -19.9470   25.1976 N   0  0  0  0  0  0  0  0  0  0  0  0
    6.2116  -18.0797   24.0039 C   0  0  0  0  0  0  0  0  0  0  0  0
    5.1435  -17.4633   23.6667 O   0  0  0  0  0  0  0  0  0  0  0  0
    6.3704  -11.6786   26.2737 C   0  0  0  0  0  0  0  0  0  0  0  0
    7.3870  -13.1236   26.6955 S   0  0  0  0  0  0  0  0  0  0  0  0
    8.2260  -13.7677   25.1874 C   0  0  0  0  0  0  0  0  0  0  0  0
    8.0196  -15.2265   25.1810 C   0  0  0  0  0  0  0  0  0  0  0  0
    7.3615  -15.8123   23.9313 C   0  0  2  0  0  0  0  0  0  0  0  0
    7.3331  -17.2636   24.2717 N   0  0  0  0  0  0  0  0  0  0  0  0
    8.1247  -15.5918   22.7092 C   0  0  0  0  0  0  0  0  0  0  0  0
    8.9605  -16.4992   22.3695 O   0  0  0  0  0  0  0  0  0  0  0  0
    7.9977  -14.4694   21.8931 N   0  0  0  0  0  0  0  0  0  0  0  0
    7.1694  -13.3021   22.1138 C   0  0  0  0  0  0  0  0  0  0  0  0
    6.7266  -12.9822   20.6672 C   0  0  0  0  0  0  0  0  0  0  0  0
    8.0716  -13.0661   19.9784 C   0  0  0  0  0  0  0  0  0  0  0  0
    8.6967  -14.2853   20.6119 C   0  0  1  0  0  0  0  0  0  0  0  0
   10.1264  -13.9772   20.8735 C   0  0  0  0  0  0  0  0  0  0  0  0
   10.5109  -13.7026   22.0373 O   0  0  0  0  0  0  0  0  0  0  0  0
   11.0881  -13.9756   19.8762 O   0  0  0  0  0  0  0  0  0  0  0  0
  2  1  1  6
  2  3  1  0
  4  2  1  0
  4  5  1  0
  5  6  1  1
  7  5  1  0
  7  8  2  0
 10 11  1  0
 10  9  1  0
 11 12  1  0
 13 12  1  1
 14 13  1  0
 14  7  1  0
 15 16  2  0
 15 13  1  0
 17 15  1  0
 18 17  1  0
 19 18  1  0
 19 20  1  0
 20 21  1  0
 21 17  1  0
 21 22  1  1
 23 22  2  0
 24 22  1  0
M  END
$$$$
