LMP.pdb
     RDKit          3D

 24 24  0  0  1  0  0  0  0  0999 V2000
    8.4681  -20.5182   21.3105 C   0  0  0  0  0  0  0  0  0  0  0  0
    7.9909  -20.0596   22.6574 C   0  0  2  0  0  0  0  0  0  0  0  0
    8.7274  -20.8734   23.7033 C   0  0  0  0  0  0  0  0  0  0  0  0
    6.5029  -20.1483   22.8344 C   0  0  0  0  0  0  0  0  0  0  0  0
    6.0504  -19.1993   23.9328 C   0  0  2  0  0  0  0  0  0  0  0  0
    4.6293  -19.4264   24.1190 N   0  0  0  0  0  0  0  0  0  0  0  0
    6.2074  -17.7849   23.4745 C   0  0  0  0  0  0  0  0  0  0  0  0
    5.6008  -17.3422   22.4399 O   0  0  0  0  0  0  0  0  0  0  0  0
    6.3328  -11.8798   27.7078 C   0  0  0  0  0  0  0  0  0  0  0  0
    7.5425  -12.8345   26.7461 S   0  0  0  0  0  0  0  0  0  0  0  0
    6.6747  -14.0524   25.6705 C   0  0  0  0  0  0  0  0  0  0  0  0
    7.7180  -14.7567   24.9049 C   0  0  0  0  0  0  0  0  0  0  0  0
    7.2587  -15.4745   23.6354 C   0  0  2  0  0  0  0  0  0  0  0  0
    7.0291  -16.8550   24.1496 N   0  0  0  0  0  0  0  0  0  0  0  0
    8.2586  -15.4870   22.5750 C   0  0  0  0  0  0  0  0  0  0  0  0
    9.0433  -16.4964   22.5223 O   0  0  0  0  0  0  0  0  0  0  0  0
    8.4078  -14.4819   21.6212 N   0  0  0  0  0  0  0  0  0  0  0  0
    7.6631  -13.2444   21.5137 C   0  0  0  0  0  0  0  0  0  0  0  0
    7.5613  -13.0991   19.9776 C   0  0  0  0  0  0  0  0  0  0  0  0
    9.0063  -13.3635   19.6134 C   0  0  0  0  0  0  0  0  0  0  0  0
    9.3712  -14.5214   20.5103 C   0  0  1  0  0  0  0  0  0  0  0  0
   10.7377  -14.2728   21.0376 C   0  0  0  0  0  0  0  0  0  0  0  0
   10.8963  -13.8686   22.2161 O   0  0  0  0  0  0  0  0  0  0  0  0
   11.8811  -14.4677   20.2798 O   0  0  0  0  0  0  0  0  0  0  0  0
  2  1  1  6
  2  3  1  0
  4  2  1  0
  4  5  1  0
  5  6  1  6
  7  5  1  0
  7  8  2  0
 10 11  1  0
 10  9  1  0
 11 12  1  0
 13 12  1  1
 14 13  1  0
 14  7  1  0
 15 16  2  0
 15 13  1  0
 17 15  1  0
 18 17  1  0
 19 18  1  0
 19 20  1  0
 20 21  1  0
 21 17  1  0
 21 22  1  1
 23 22  2  0
 24 22  1  0
M  END
$$$$
