LMP.pdb
     RDKit          3D

 24 24  0  0  1  0  0  0  0  0999 V2000
    8.0251  -20.4552   24.8424 C   0  0  0  0  0  0  0  0  0  0  0  0
    7.3915  -21.0578   23.6227 C   0  0  2  0  0  0  0  0  0  0  0  0
    8.5006  -21.6625   22.7843 C   0  0  0  0  0  0  0  0  0  0  0  0
    6.5641  -20.0885   22.8294 C   0  0  0  0  0  0  0  0  0  0  0  0
    5.7476  -19.2113   23.7653 C   0  0  2  0  0  0  0  0  0  0  0  0
    4.3519  -19.5078   23.5008 N   0  0  0  0  0  0  0  0  0  0  0  0
    5.9582  -17.7719   23.4203 C   0  0  0  0  0  0  0  0  0  0  0  0
    5.4549  -17.2526   22.3661 O   0  0  0  0  0  0  0  0  0  0  0  0
    6.9888  -11.5469   26.6946 C   0  0  0  0  0  0  0  0  0  0  0  0
    7.2177  -13.2695   27.2239 S   0  0  0  0  0  0  0  0  0  0  0  0
    6.4313  -14.4125   26.0121 C   0  0  0  0  0  0  0  0  0  0  0  0
    7.5074  -14.8960   25.1296 C   0  0  0  0  0  0  0  0  0  0  0  0
    7.0683  -15.5157   23.8025 C   0  0  2  0  0  0  0  0  0  0  0  0
    6.7206  -16.9010   24.2302 N   0  0  0  0  0  0  0  0  0  0  0  0
    8.1194  -15.5444   22.7930 C   0  0  0  0  0  0  0  0  0  0  0  0
    8.8524  -16.5920   22.7410 O   0  0  0  0  0  0  0  0  0  0  0  0
    8.3692  -14.5158   21.8866 N   0  0  0  0  0  0  0  0  0  0  0  0
    7.7470  -13.2091   21.8353 C   0  0  0  0  0  0  0  0  0  0  0  0
    7.6677  -12.9848   20.3074 C   0  0  0  0  0  0  0  0  0  0  0  0
    9.0825  -13.3696   19.9327 C   0  0  0  0  0  0  0  0  0  0  0  0
    9.3302  -14.5969   20.7758 C   0  0  1  0  0  0  0  0  0  0  0  0
   10.7115  -14.5048   21.3152 C   0  0  0  0  0  0  0  0  0  0  0  0
   10.9005  -14.2066   22.5205 O   0  0  0  0  0  0  0  0  0  0  0  0
   11.8363  -14.7363   20.5401 O   0  0  0  0  0  0  0  0  0  0  0  0
  2  1  1  1
  2  3  1  0
  4  2  1  0
  4  5  1  0
  5  6  1  6
  7  5  1  0
  7  8  2  0
 10 11  1  0
 10  9  1  0
 11 12  1  0
 13 12  1  1
 14 13  1  0
 14  7  1  0
 15 16  2  0
 15 13  1  0
 17 15  1  0
 18 17  1  0
 19 18  1  0
 19 20  1  0
 20 21  1  0
 21 17  1  0
 21 22  1  1
 23 22  2  0
 24 22  1  0
M  END
$$$$
