LMP.pdb
     RDKit          3D

 24 24  0  0  1  0  0  0  0  0999 V2000
    9.1729  -14.1979   18.1197 C   0  0  0  0  0  0  0  0  0  0  0  0
    7.9182  -13.9280   18.8975 C   0  0  2  0  0  0  0  0  0  0  0  0
    7.1452  -12.8540   18.1575 C   0  0  0  0  0  0  0  0  0  0  0  0
    8.1638  -13.5463   20.3283 C   0  0  0  0  0  0  0  0  0  0  0  0
    8.8959  -14.6671   21.0492 C   0  0  2  0  0  0  0  0  0  0  0  0
    8.0430  -15.8385   20.9712 N   0  0  0  0  0  0  0  0  0  0  0  0
    9.0362  -14.3283   22.4986 C   0  0  0  0  0  0  0  0  0  0  0  0
    9.7479  -13.3422   22.8927 O   0  0  0  0  0  0  0  0  0  0  0  0
    5.8135  -11.7187   26.2224 C   0  0  0  0  0  0  0  0  0  0  0  0
    6.9756  -12.7972   27.1091 S   0  0  0  0  0  0  0  0  0  0  0  0
    6.6072  -14.5634   26.7378 C   0  0  0  0  0  0  0  0  0  0  0  0
    6.9431  -14.7745   25.3188 C   0  0  0  0  0  0  0  0  0  0  0  0
    8.4203  -14.6454   24.9458 C   0  0  2  0  0  0  0  0  0  0  0  0
    8.3968  -15.0700   23.5168 N   0  0  0  0  0  0  0  0  0  0  0  0
    9.2981  -15.5144   25.7197 C   0  0  0  0  0  0  0  0  0  0  0  0
    9.6335  -16.6296   25.1893 O   0  0  0  0  0  0  0  0  0  0  0  0
    9.7947  -15.2071   26.9850 N   0  0  0  0  0  0  0  0  0  0  0  0
    9.4788  -14.0564   27.8057 C   0  0  0  0  0  0  0  0  0  0  0  0
   10.8520  -13.7813   28.4612 C   0  0  0  0  0  0  0  0  0  0  0  0
   11.1951  -15.1875   28.9030 C   0  0  0  0  0  0  0  0  0  0  0  0
   10.7754  -16.0226   27.7178 C   0  0  1  0  0  0  0  0  0  0  0  0
   10.1068  -17.2433   28.2378 C   0  0  0  0  0  0  0  0  0  0  0  0
    8.8594  -17.3642   28.1555 O   0  0  0  0  0  0  0  0  0  0  0  0
   10.8028  -18.2870   28.8259 O   0  0  0  0  0  0  0  0  0  0  0  0
  2  1  1  6
  2  3  1  0
  4  2  1  0
  4  5  1  0
  5  6  1  1
  7  5  1  0
  7  8  2  0
 10 11  1  0
 10  9  1  0
 11 12  1  0
 13 12  1  1
 14 13  1  0
 14  7  1  0
 15 16  2  0
 15 13  1  0
 17 15  1  0
 18 17  1  0
 19 18  1  0
 19 20  1  0
 20 21  1  0
 21 17  1  0
 21 22  1  1
 23 22  2  0
 24 22  1  0
M  END
$$$$
