LMP.pdb
     RDKit          3D

 24 24  0  0  1  0  0  0  0  0999 V2000
    3.1416  -21.5960   23.0990 C   0  0  0  0  0  0  0  0  0  0  0  0
    4.5051  -21.0551   22.7818 C   0  0  2  0  0  0  0  0  0  0  0  0
    5.4408  -22.2382   22.6296 C   0  0  0  0  0  0  0  0  0  0  0  0
    5.0163  -20.0720   23.7944 C   0  0  0  0  0  0  0  0  0  0  0  0
    6.3782  -19.5458   23.3696 C   0  0  2  0  0  0  0  0  0  0  0  0
    7.2750  -19.7609   24.4900 N   0  0  0  0  0  0  0  0  0  0  0  0
    6.3032  -18.0686   23.1513 C   0  0  0  0  0  0  0  0  0  0  0  0
    5.5862  -17.5619   22.2221 O   0  0  0  0  0  0  0  0  0  0  0  0
    6.1587  -12.0781   26.9800 C   0  0  0  0  0  0  0  0  0  0  0  0
    7.6405  -13.0903   26.6984 S   0  0  0  0  0  0  0  0  0  0  0  0
    7.7144  -13.6257   24.9373 C   0  0  0  0  0  0  0  0  0  0  0  0
    7.4930  -15.0823   24.9303 C   0  0  0  0  0  0  0  0  0  0  0  0
    7.1513  -15.7091   23.5781 C   0  0  2  0  0  0  0  0  0  0  0  0
    7.0137  -17.1461   23.9510 N   0  0  0  0  0  0  0  0  0  0  0  0
    8.1950  -15.5422   22.5744 C   0  0  0  0  0  0  0  0  0  0  0  0
    9.1122  -16.4334   22.5302 O   0  0  0  0  0  0  0  0  0  0  0  0
    8.2522  -14.4875   21.6655 N   0  0  0  0  0  0  0  0  0  0  0  0
    7.4105  -13.3098   21.6202 C   0  0  0  0  0  0  0  0  0  0  0  0
    7.2785  -13.1056   20.0931 C   0  0  0  0  0  0  0  0  0  0  0  0
    8.7352  -13.2376   19.7047 C   0  0  0  0  0  0  0  0  0  0  0  0
    9.2018  -14.4011   20.5453 C   0  0  1  0  0  0  0  0  0  0  0  0
   10.5508  -14.0678   21.0712 C   0  0  0  0  0  0  0  0  0  0  0  0
   10.6928  -13.7140   22.2679 O   0  0  0  0  0  0  0  0  0  0  0  0
   11.6951  -14.1272   20.2924 O   0  0  0  0  0  0  0  0  0  0  0  0
  2  1  1  1
  2  3  1  0
  4  2  1  0
  4  5  1  0
  5  6  1  1
  7  5  1  0
  7  8  2  0
 10 11  1  0
 10  9  1  0
 11 12  1  0
 13 12  1  1
 14 13  1  0
 14  7  1  0
 15 16  2  0
 15 13  1  0
 17 15  1  0
 18 17  1  0
 19 18  1  0
 19 20  1  0
 20 21  1  0
 21 17  1  0
 21 22  1  1
 23 22  2  0
 24 22  1  0
M  END
$$$$
