TNV.pdb
     RDKit          3D

 23 22  0  0  1  0  0  0  0  0999 V2000
    8.5883  -12.5371   20.2621 C   0  0  0  0  0  0  0  0  0  0  0  0
    8.1483  -13.3873   19.0912 C   0  0  1  0  0  0  0  0  0  0  0  0
    8.7789  -12.9945   17.9199 O   0  0  0  0  0  0  0  0  0  0  0  0
    8.3432  -14.8630   19.3813 C   0  0  2  0  0  0  0  0  0  0  0  0
    7.8658  -15.6572   18.2673 N   0  0  0  0  0  0  0  0  0  0  0  0
    7.6503  -15.3093   20.6083 C   0  0  0  0  0  0  0  0  0  0  0  0
    6.3964  -15.4845   20.6058 O   0  0  0  0  0  0  0  0  0  0  0  0
    6.0279  -18.1127   24.7815 N   0  0  0  0  0  0  0  0  0  0  0  0
    7.4476  -17.9811   24.4829 C   0  0  0  0  0  0  0  0  0  0  0  0
    8.1908  -18.4202   25.3558 O   0  0  0  0  0  0  0  0  0  0  0  0
    7.8426  -17.3704   23.2366 C   0  0  0  0  0  0  0  0  0  0  0  0
    7.5423  -15.9156   23.0694 C   0  0  2  0  0  0  0  0  0  0  0  0
    8.3128  -15.5628   21.8257 N   0  0  0  0  0  0  0  0  0  0  0  0
    8.1100  -15.0523   24.1017 C   0  0  0  0  0  0  0  0  0  0  0  0
    9.3871  -14.9112   24.1460 O   0  0  0  0  0  0  0  0  0  0  0  0
    5.9818  -12.9501   27.1984 C   0  0  0  0  0  0  0  0  0  0  0  0
    7.2297  -12.4171   26.5492 C   0  0  2  0  0  0  0  0  0  0  0  0
    6.9730  -11.4213   25.4679 C   0  0  0  0  0  0  0  0  0  0  0  0
    8.1555  -13.5448   26.1051 C   0  0  2  0  0  0  0  0  0  0  0  0
    7.4385  -14.3126   25.0973 N   0  0  0  0  0  0  0  0  0  0  0  0
    8.6242  -14.3512   27.2201 C   0  0  0  0  0  0  0  0  0  0  0  0
    9.5920  -13.8700   28.0750 O   0  0  0  0  0  0  0  0  0  0  0  0
    8.1730  -15.4943   27.4413 O   0  0  0  0  0  0  0  0  0  0  0  0
  2  1  1  1
  3  2  1  0
  4  2  1  0
  4  6  1  0
  4  5  1  6
  6  7  2  0
  8  9  1  0
  9 11  1  0
 10  9  2  0
 12 11  1  1
 12 14  1  0
 13 12  1  0
 13  6  1  0
 14 20  1  0
 14 15  2  0
 17 16  1  6
 17 19  1  0
 18 17  1  0
 19 21  1  0
 19 20  1  6
 21 23  2  0
 21 22  1  0
M  END
$$$$
