TNV.pdb
     RDKit          3D

 23 22  0  0  1  0  0  0  0  0999 V2000
    8.7311  -12.3827   20.1874 C   0  0  0  0  0  0  0  0  0  0  0  0
    8.1320  -13.1332   19.0189 C   0  0  1  0  0  0  0  0  0  0  0  0
    8.4374  -12.5154   17.8151 O   0  0  0  0  0  0  0  0  0  0  0  0
    8.5432  -14.5929   19.0359 C   0  0  2  0  0  0  0  0  0  0  0  0
    7.9344  -15.2950   17.9242 N   0  0  0  0  0  0  0  0  0  0  0  0
    8.1734  -15.2849   20.2886 C   0  0  0  0  0  0  0  0  0  0  0  0
    7.0258  -15.8039   20.4167 O   0  0  0  0  0  0  0  0  0  0  0  0
    8.5553  -19.0795   24.0330 N   0  0  0  0  0  0  0  0  0  0  0  0
    9.6414  -18.1314   23.8243 C   0  0  0  0  0  0  0  0  0  0  0  0
   10.4934  -18.1358   24.7082 O   0  0  0  0  0  0  0  0  0  0  0  0
    9.6233  -17.3017   22.6439 C   0  0  0  0  0  0  0  0  0  0  0  0
    8.6318  -16.1833   22.6165 C   0  0  2  0  0  0  0  0  0  0  0  0
    9.0417  -15.4120   21.3909 N   0  0  0  0  0  0  0  0  0  0  0  0
    8.7650  -15.2222   23.7081 C   0  0  0  0  0  0  0  0  0  0  0  0
    9.8744  -14.5838   23.8282 O   0  0  0  0  0  0  0  0  0  0  0  0
    6.2950  -12.5396   24.8025 C   0  0  0  0  0  0  0  0  0  0  0  0
    6.8613  -13.1469   26.0568 C   0  0  2  0  0  0  0  0  0  0  0  0
    7.0309  -12.1764   27.1776 C   0  0  0  0  0  0  0  0  0  0  0  0
    8.1295  -13.9442   25.7699 C   0  0  2  0  0  0  0  0  0  0  0  0
    7.8161  -14.8688   24.6900 N   0  0  0  0  0  0  0  0  0  0  0  0
    8.6550  -14.5992   26.9565 C   0  0  0  0  0  0  0  0  0  0  0  0
    9.5502  -13.9485   27.7778 O   0  0  0  0  0  0  0  0  0  0  0  0
    8.3190  -15.7598   27.2712 O   0  0  0  0  0  0  0  0  0  0  0  0
  2  1  1  1
  3  2  1  0
  4  2  1  0
  4  6  1  0
  4  5  1  6
  6  7  2  0
  8  9  1  0
  9 11  1  0
 10  9  2  0
 12 11  1  1
 12 14  1  0
 13 12  1  0
 13  6  1  0
 14 20  1  0
 14 15  2  0
 17 16  1  6
 17 19  1  0
 18 17  1  0
 19 21  1  0
 19 20  1  6
 21 23  2  0
 21 22  1  0
M  END
$$$$
