TNV.pdb
     RDKit          3D

 23 22  0  0  1  0  0  0  0  0999 V2000
    8.9806  -12.5064   20.3170 C   0  0  0  0  0  0  0  0  0  0  0  0
    8.0593  -13.2065   19.3431 C   0  0  1  0  0  0  0  0  0  0  0  0
    8.2074  -12.7015   18.0597 O   0  0  0  0  0  0  0  0  0  0  0  0
    8.2483  -14.7104   19.3938 C   0  0  2  0  0  0  0  0  0  0  0  0
    7.4041  -15.3523   18.4066 N   0  0  0  0  0  0  0  0  0  0  0  0
    7.9446  -15.2885   20.7199 C   0  0  0  0  0  0  0  0  0  0  0  0
    6.7447  -15.4961   21.0664 O   0  0  0  0  0  0  0  0  0  0  0  0
    8.4787  -18.0550   25.1901 N   0  0  0  0  0  0  0  0  0  0  0  0
    9.6036  -18.1752   24.2723 C   0  0  0  0  0  0  0  0  0  0  0  0
   10.4722  -18.9622   24.6373 O   0  0  0  0  0  0  0  0  0  0  0  0
    9.6003  -17.3904   23.0614 C   0  0  0  0  0  0  0  0  0  0  0  0
    8.5705  -16.3120   22.9553 C   0  0  2  0  0  0  0  0  0  0  0  0
    8.9343  -15.6378   21.6599 N   0  0  0  0  0  0  0  0  0  0  0  0
    8.6876  -15.2552   23.9565 C   0  0  0  0  0  0  0  0  0  0  0  0
    9.7553  -14.5390   23.9672 O   0  0  0  0  0  0  0  0  0  0  0  0
    6.1721  -12.5940   24.9438 C   0  0  0  0  0  0  0  0  0  0  0  0
    6.7874  -13.0962   26.2213 C   0  0  2  0  0  0  0  0  0  0  0  0
    6.9525  -12.0461   27.2686 C   0  0  0  0  0  0  0  0  0  0  0  0
    8.0731  -13.8726   25.9563 C   0  0  2  0  0  0  0  0  0  0  0  0
    7.7627  -14.8812   24.9535 N   0  0  0  0  0  0  0  0  0  0  0  0
    8.6497  -14.4246   27.1712 C   0  0  0  0  0  0  0  0  0  0  0  0
    9.5269  -13.6814   27.9312 O   0  0  0  0  0  0  0  0  0  0  0  0
    8.3751  -15.5770   27.5657 O   0  0  0  0  0  0  0  0  0  0  0  0
  2  1  1  1
  3  2  1  0
  4  2  1  0
  4  6  1  0
  4  5  1  6
  6  7  2  0
  8  9  1  0
  9 11  1  0
 10  9  2  0
 12 11  1  1
 12 14  1  0
 13 12  1  0
 13  6  1  0
 14 20  1  0
 14 15  2  0
 17 16  1  6
 17 19  1  0
 18 17  1  0
 19 21  1  0
 19 20  1  6
 21 23  2  0
 21 22  1  0
M  END
$$$$
