TNV.pdb
     RDKit          3D

 23 22  0  0  1  0  0  0  0  0999 V2000
    9.7681  -13.7921   18.5129 C   0  0  0  0  0  0  0  0  0  0  0  0
    8.9903  -13.8868   19.8065 C   0  0  1  0  0  0  0  0  0  0  0  0
    8.3992  -12.6737   20.1274 O   0  0  0  0  0  0  0  0  0  0  0  0
    7.9847  -15.0211   19.7599 C   0  0  2  0  0  0  0  0  0  0  0  0
    6.9426  -14.7240   18.7979 N   0  0  0  0  0  0  0  0  0  0  0  0
    7.3534  -15.2906   21.0690 C   0  0  0  0  0  0  0  0  0  0  0  0
    6.2249  -14.7897   21.3490 O   0  0  0  0  0  0  0  0  0  0  0  0
    5.9698  -17.8407   25.5822 N   0  0  0  0  0  0  0  0  0  0  0  0
    7.1555  -18.3345   24.8949 C   0  0  0  0  0  0  0  0  0  0  0  0
    7.7881  -19.1798   25.5213 O   0  0  0  0  0  0  0  0  0  0  0  0
    7.4720  -17.8086   23.5889 C   0  0  0  0  0  0  0  0  0  0  0  0
    7.2434  -16.3472   23.3728 C   0  0  2  0  0  0  0  0  0  0  0  0
    7.9421  -16.0962   22.0638 N   0  0  0  0  0  0  0  0  0  0  0  0
    7.9309  -15.4748   24.3211 C   0  0  0  0  0  0  0  0  0  0  0  0
    9.1835  -15.2459   24.1435 O   0  0  0  0  0  0  0  0  0  0  0  0
    6.1964  -13.2739   27.6068 C   0  0  0  0  0  0  0  0  0  0  0  0
    7.3130  -12.7850   26.7254 C   0  0  2  0  0  0  0  0  0  0  0  0
    6.8595  -11.9284   25.5907 C   0  0  0  0  0  0  0  0  0  0  0  0
    8.2144  -13.9305   26.2763 C   0  0  2  0  0  0  0  0  0  0  0  0
    7.4034  -14.8113   25.4484 N   0  0  0  0  0  0  0  0  0  0  0  0
    8.8483  -14.6102   27.3940 C   0  0  0  0  0  0  0  0  0  0  0  0
    9.8283  -13.9821   28.1318 O   0  0  0  0  0  0  0  0  0  0  0  0
    8.5323  -15.7727   27.7224 O   0  0  0  0  0  0  0  0  0  0  0  0
  2  1  1  6
  3  2  1  0
  4  2  1  0
  4  6  1  0
  4  5  1  6
  6  7  2  0
  8  9  1  0
  9 11  1  0
 10  9  2  0
 12 11  1  1
 12 14  1  0
 13 12  1  0
 13  6  1  0
 14 20  1  0
 14 15  2  0
 17 16  1  6
 17 19  1  0
 18 17  1  0
 19 21  1  0
 19 20  1  1
 21 23  2  0
 21 22  1  0
M  END
$$$$
