TNV.pdb
     RDKit          3D

 23 22  0  0  1  0  0  0  0  0999 V2000
    8.3650  -12.9652   17.0599 C   0  0  0  0  0  0  0  0  0  0  0  0
    7.8451  -13.7712   18.2293 C   0  0  1  0  0  0  0  0  0  0  0  0
    7.7884  -15.1228   17.9225 O   0  0  0  0  0  0  0  0  0  0  0  0
    8.6528  -13.5006   19.4840 C   0  0  2  0  0  0  0  0  0  0  0  0
   10.0144  -13.9648   19.3100 N   0  0  0  0  0  0  0  0  0  0  0  0
    8.0867  -14.1444   20.6882 C   0  0  0  0  0  0  0  0  0  0  0  0
    6.8855  -13.9267   21.0238 O   0  0  0  0  0  0  0  0  0  0  0  0
    6.9670  -18.6956   21.9799 N   0  0  0  0  0  0  0  0  0  0  0  0
    8.2371  -18.0649   21.6467 C   0  0  0  0  0  0  0  0  0  0  0  0
    8.7152  -18.4257   20.5751 O   0  0  0  0  0  0  0  0  0  0  0  0
    8.8017  -17.1086   22.5681 C   0  0  0  0  0  0  0  0  0  0  0  0
    8.1471  -15.7665   22.6379 C   0  0  2  0  0  0  0  0  0  0  0  0
    8.8180  -15.0160   21.5192 N   0  0  0  0  0  0  0  0  0  0  0  0
    8.4676  -14.9922   23.8341 C   0  0  0  0  0  0  0  0  0  0  0  0
    9.6879  -14.6330   24.0207 O   0  0  0  0  0  0  0  0  0  0  0  0
    7.5765  -11.7665   27.3569 C   0  0  0  0  0  0  0  0  0  0  0  0
    7.0802  -12.7076   26.2935 C   0  0  2  0  0  0  0  0  0  0  0  0
    5.7000  -13.2214   26.5345 C   0  0  0  0  0  0  0  0  0  0  0  0
    8.0848  -13.8218   26.0185 C   0  0  2  0  0  0  0  0  0  0  0  0
    7.6011  -14.5544   24.8573 N   0  0  0  0  0  0  0  0  0  0  0  0
    8.3114  -14.6655   27.1804 C   0  0  0  0  0  0  0  0  0  0  0  0
    9.1285  -14.2415   28.2059 O   0  0  0  0  0  0  0  0  0  0  0  0
    7.7808  -15.7904   27.2905 O   0  0  0  0  0  0  0  0  0  0  0  0
  2  1  1  6
  3  2  1  0
  4  2  1  0
  4  6  1  0
  4  5  1  6
  6  7  2  0
  8  9  1  0
  9 11  1  0
 10  9  2  0
 12 11  1  1
 12 14  1  0
 13 12  1  0
 13  6  1  0
 14 20  1  0
 14 15  2  0
 17 16  1  1
 17 19  1  0
 18 17  1  0
 19 21  1  0
 19 20  1  6
 21 23  2  0
 21 22  1  0
M  END
$$$$
