TNV.pdb
     RDKit          3D

 23 22  0  0  1  0  0  0  0  0999 V2000
    8.3761  -12.5659   20.2176 C   0  0  0  0  0  0  0  0  0  0  0  0
    7.8686  -13.4777   19.1228 C   0  0  1  0  0  0  0  0  0  0  0  0
    8.2091  -12.9942   17.8681 O   0  0  0  0  0  0  0  0  0  0  0  0
    8.3383  -14.9039   19.3355 C   0  0  2  0  0  0  0  0  0  0  0  0
    7.8662  -15.7500   18.2580 N   0  0  0  0  0  0  0  0  0  0  0  0
    7.8833  -15.4790   20.6189 C   0  0  0  0  0  0  0  0  0  0  0  0
    6.6766  -15.8317   20.7686 O   0  0  0  0  0  0  0  0  0  0  0  0
   11.1919  -18.0362   24.1871 N   0  0  0  0  0  0  0  0  0  0  0  0
   10.4362  -17.4271   23.1008 C   0  0  0  0  0  0  0  0  0  0  0  0
   11.1270  -16.8538   22.2634 O   0  0  0  0  0  0  0  0  0  0  0  0
    8.9980  -17.5453   23.1023 C   0  0  0  0  0  0  0  0  0  0  0  0
    8.2135  -16.2766   23.0045 C   0  0  2  0  0  0  0  0  0  0  0  0
    8.7306  -15.6690   21.7285 N   0  0  0  0  0  0  0  0  0  0  0  0
    8.5272  -15.2841   24.0290 C   0  0  0  0  0  0  0  0  0  0  0  0
    9.5772  -14.5583   23.8755 O   0  0  0  0  0  0  0  0  0  0  0  0
    6.5062  -12.4756   25.0765 C   0  0  0  0  0  0  0  0  0  0  0  0
    7.0449  -13.0318   26.3662 C   0  0  2  0  0  0  0  0  0  0  0  0
    7.2997  -11.9988   27.4126 C   0  0  0  0  0  0  0  0  0  0  0  0
    8.2481  -13.9378   26.1261 C   0  0  2  0  0  0  0  0  0  0  0  0
    7.8173  -14.9842   25.2103 N   0  0  0  0  0  0  0  0  0  0  0  0
    8.8141  -14.4501   27.3632 C   0  0  0  0  0  0  0  0  0  0  0  0
    8.6563  -15.7743   27.7106 O   0  0  0  0  0  0  0  0  0  0  0  0
    9.4556  -13.7188   28.1460 O   0  0  0  0  0  0  0  0  0  0  0  0
  2  1  1  1
  3  2  1  0
  4  2  1  0
  4  6  1  0
  4  5  1  6
  6  7  2  0
  8  9  1  0
  9 11  1  0
 10  9  2  0
 12 11  1  1
 12 14  1  0
 13 12  1  0
 13  6  1  0
 14 20  1  0
 14 15  2  0
 17 16  1  6
 17 19  1  0
 18 17  1  0
 19 21  1  0
 19 20  1  6
 21 23  2  0
 21 22  1  0
M  END
$$$$
