KQA.pdb
     RDKit          3D

 24 23  0  0  1  0  0  0  0  0999 V2000
    6.3874  -17.3662   20.6176 N   0  0  0  0  0  0  0  0  0  0  0  0
    7.4268  -16.5184   21.1700 C   0  0  1  0  0  0  0  0  0  0  0  0
    7.3305  -15.1946   20.4874 C   0  0  0  0  0  0  0  0  0  0  0  0
    7.9872  -15.1316   19.1417 C   0  0  0  0  0  0  0  0  0  0  0  0
    7.9081  -13.7107   18.6002 C   0  0  0  0  0  0  0  0  0  0  0  0
    8.6307  -13.6584   17.2532 C   0  0  0  0  0  0  0  0  0  0  0  0
    8.5715  -12.3014   16.7543 N   0  0  0  0  0  0  0  0  0  0  0  0
    7.3398  -16.4438   22.6511 C   0  0  0  0  0  0  0  0  0  0  0  0
    6.2283  -16.4059   23.2360 O   0  0  0  0  0  0  0  0  0  0  0  0
   11.5089  -18.1324   27.0043 N   0  0  0  0  0  0  0  0  0  0  0  0
   10.6752  -17.2750   27.7689 C   0  0  0  0  0  0  0  0  0  0  0  0
   10.8794  -17.1396   28.9934 O   0  0  0  0  0  0  0  0  0  0  0  0
    9.5801  -16.5560   27.1096 C   0  0  0  0  0  0  0  0  0  0  0  0
    9.5913  -16.8660   25.6451 C   0  0  0  0  0  0  0  0  0  0  0  0
    8.4058  -16.2558   24.9284 C   0  0  2  0  0  0  0  0  0  0  0  0
    8.4912  -16.4107   23.4998 N   0  0  0  0  0  0  0  0  0  0  0  0
    8.3328  -14.8067   25.2370 C   0  0  0  0  0  0  0  0  0  0  0  0
    9.2261  -13.9882   24.8646 O   0  0  0  0  0  0  0  0  0  0  0  0
    5.7558  -12.3989   26.5613 C   0  0  0  0  0  0  0  0  0  0  0  0
    7.1771  -12.8157   26.2829 C   0  0  2  0  0  0  0  0  0  0  0  0
    7.2520  -14.2372   25.9744 N   0  0  0  0  0  0  0  0  0  0  0  0
    8.0817  -12.4752   27.4160 C   0  0  0  0  0  0  0  0  0  0  0  0
    8.6514  -13.3278   28.1127 O   0  0  0  0  0  0  0  0  0  0  0  0
    8.2996  -11.1394   27.7087 O   0  0  0  0  0  0  0  0  0  0  0  0
  2  1  1  6
  3  2  1  0
  4  5  1  0
  4  3  1  0
  6  5  1  0
  7  6  1  0
  8  9  2  0
  8  2  1  0
 11 10  1  0
 12 11  2  0
 13 11  1  0
 14 13  1  0
 15 14  1  1
 15 16  1  0
 16  8  1  0
 17 15  1  0
 18 17  2  0
 20 19  1  1
 20 21  1  0
 21 17  1  0
 22 20  1  0
 22 24  1  0
 23 22  2  0
M  END
$$$$
