KQA.pdb
     RDKit          3D

 24 23  0  0  1  0  0  0  0  0999 V2000
    3.8361  -18.0065   23.5073 N   0  0  0  0  0  0  0  0  0  0  0  0
    4.2738  -18.8626   22.4211 C   0  0  1  0  0  0  0  0  0  0  0  0
    3.0926  -19.1035   21.5411 C   0  0  0  0  0  0  0  0  0  0  0  0
    1.7960  -19.2962   22.2675 C   0  0  0  0  0  0  0  0  0  0  0  0
    0.7561  -19.8693   21.3143 C   0  0  0  0  0  0  0  0  0  0  0  0
   -0.5721  -20.0034   22.0606 C   0  0  0  0  0  0  0  0  0  0  0  0
   -1.5583  -20.5396   21.1475 N   0  0  0  0  0  0  0  0  0  0  0  0
    5.4484  -18.2897   21.7148 C   0  0  0  0  0  0  0  0  0  0  0  0
    5.9175  -18.8355   20.6848 O   0  0  0  0  0  0  0  0  0  0  0  0
    7.8003  -12.2690   19.8810 N   0  0  0  0  0  0  0  0  0  0  0  0
    7.8500  -13.5705   19.3166 C   0  0  0  0  0  0  0  0  0  0  0  0
    7.5552  -13.7384   18.1148 O   0  0  0  0  0  0  0  0  0  0  0  0
    8.2484  -14.7064   20.1544 C   0  0  0  0  0  0  0  0  0  0  0  0
    7.0638  -15.1930   20.9296 C   0  0  0  0  0  0  0  0  0  0  0  0
    7.2879  -16.5793   21.4948 C   0  0  2  0  0  0  0  0  0  0  0  0
    6.1154  -17.1001   22.1475 N   0  0  0  0  0  0  0  0  0  0  0  0
    8.3929  -16.5381   22.4837 C   0  0  0  0  0  0  0  0  0  0  0  0
    8.3314  -15.8410   23.5405 O   0  0  0  0  0  0  0  0  0  0  0  0
   11.5559  -18.4744   23.1528 C   0  0  0  0  0  0  0  0  0  0  0  0
   10.6817  -17.2539   23.2853 C   0  0  2  0  0  0  0  0  0  0  0  0
    9.5994  -17.2803   22.3110 N   0  0  0  0  0  0  0  0  0  0  0  0
   11.4705  -15.9968   23.1611 C   0  0  0  0  0  0  0  0  0  0  0  0
   11.4998  -15.3101   22.1292 O   0  0  0  0  0  0  0  0  0  0  0  0
   12.2098  -15.5704   24.2516 O   0  0  0  0  0  0  0  0  0  0  0  0
  2  1  1  1
  3  2  1  0
  4  5  1  0
  4  3  1  0
  6  5  1  0
  7  6  1  0
  8  9  2  0
  8  2  1  0
 11 10  1  0
 12 11  2  0
 13 11  1  0
 14 13  1  0
 15 14  1  1
 15 16  1  0
 16  8  1  0
 17 15  1  0
 18 17  2  0
 20 19  1  6
 20 21  1  0
 21 17  1  0
 22 20  1  0
 22 24  1  0
 23 22  2  0
M  END
$$$$
