KQA.pdb
     RDKit          3D

 24 23  0  0  1  0  0  0  0  0999 V2000
    6.1254  -15.9297   21.4104 N   0  0  0  0  0  0  0  0  0  0  0  0
    7.4990  -16.2721   21.0937 C   0  0  1  0  0  0  0  0  0  0  0  0
    7.6624  -16.1349   19.6166 C   0  0  0  0  0  0  0  0  0  0  0  0
    7.9904  -17.4090   18.8989 C   0  0  0  0  0  0  0  0  0  0  0  0
    9.4207  -17.3501   18.3800 C   0  0  0  0  0  0  0  0  0  0  0  0
    9.6584  -18.5485   17.4601 C   0  0  0  0  0  0  0  0  0  0  0  0
   10.9739  -18.4200   16.8711 N   0  0  0  0  0  0  0  0  0  0  0  0
    8.4595  -15.4628   21.8871 C   0  0  0  0  0  0  0  0  0  0  0  0
    8.8053  -14.3140   21.5138 O   0  0  0  0  0  0  0  0  0  0  0  0
    5.8879  -13.2994   25.8351 N   0  0  0  0  0  0  0  0  0  0  0  0
    7.1237  -12.8960   26.4051 C   0  0  0  0  0  0  0  0  0  0  0  0
    7.1366  -12.0624   27.3348 O   0  0  0  0  0  0  0  0  0  0  0  0
    8.3751  -13.4649   25.8936 C   0  0  0  0  0  0  0  0  0  0  0  0
    8.0695  -14.4265   24.7877 C   0  0  0  0  0  0  0  0  0  0  0  0
    9.3250  -15.0530   24.2196 C   0  0  2  0  0  0  0  0  0  0  0  0
    9.0468  -15.9238   23.1076 N   0  0  0  0  0  0  0  0  0  0  0  0
   10.0039  -15.8452   25.2742 C   0  0  0  0  0  0  0  0  0  0  0  0
   10.4845  -15.3121   26.3190 O   0  0  0  0  0  0  0  0  0  0  0  0
   12.3900  -17.7641   26.0448 C   0  0  0  0  0  0  0  0  0  0  0  0
   10.9115  -18.0302   26.1659 C   0  0  2  0  0  0  0  0  0  0  0  0
   10.1615  -17.2604   25.1829 N   0  0  0  0  0  0  0  0  0  0  0  0
   10.4140  -17.7525   27.5419 C   0  0  0  0  0  0  0  0  0  0  0  0
    9.5281  -16.9217   27.7913 O   0  0  0  0  0  0  0  0  0  0  0  0
   10.9668  -18.4563   28.5987 O   0  0  0  0  0  0  0  0  0  0  0  0
  2  1  1  6
  3  2  1  0
  4  5  1  0
  4  3  1  0
  6  5  1  0
  7  6  1  0
  8  9  2  0
  8  2  1  0
 11 10  1  0
 12 11  2  0
 13 11  1  0
 14 13  1  0
 15 14  1  1
 15 16  1  0
 16  8  1  0
 17 15  1  0
 18 17  2  0
 20 19  1  1
 20 21  1  0
 21 17  1  0
 22 20  1  0
 22 24  1  0
 23 22  2  0
M  END
$$$$
