KQA.pdb
     RDKit          3D

 24 23  0  0  1  0  0  0  0  0999 V2000
   10.6164  -17.2942   21.4600 N   0  0  0  0  0  0  0  0  0  0  0  0
   10.7592  -16.1262   22.3085 C   0  0  1  0  0  0  0  0  0  0  0  0
    9.4858  -15.3529   22.2188 C   0  0  0  0  0  0  0  0  0  0  0  0
    9.1155  -14.9093   20.8360 C   0  0  0  0  0  0  0  0  0  0  0  0
    7.7621  -14.2123   20.8678 C   0  0  0  0  0  0  0  0  0  0  0  0
    7.4287  -13.7241   19.4573 C   0  0  0  0  0  0  0  0  0  0  0  0
    6.1516  -13.0449   19.4978 N   0  0  0  0  0  0  0  0  0  0  0  0
   11.1431  -16.5022   23.6935 C   0  0  0  0  0  0  0  0  0  0  0  0
   10.7405  -17.5738   24.2116 O   0  0  0  0  0  0  0  0  0  0  0  0
   15.1918  -17.5857   23.7677 N   0  0  0  0  0  0  0  0  0  0  0  0
   15.2893  -16.8723   24.9910 C   0  0  0  0  0  0  0  0  0  0  0  0
   15.8572  -17.3959   25.9722 O   0  0  0  0  0  0  0  0  0  0  0  0
   14.7201  -15.5241   25.0884 C   0  0  0  0  0  0  0  0  0  0  0  0
   13.7390  -15.4782   26.2181 C   0  0  0  0  0  0  0  0  0  0  0  0
   12.4065  -16.0862   25.8356 C   0  0  2  0  0  0  0  0  0  0  0  0
   11.9814  -15.6881   24.5192 N   0  0  0  0  0  0  0  0  0  0  0  0
   11.3708  -15.6613   26.8088 C   0  0  0  0  0  0  0  0  0  0  0  0
   11.4909  -15.8569   28.0555 O   0  0  0  0  0  0  0  0  0  0  0  0
    9.8765  -13.4431   28.2612 C   0  0  0  0  0  0  0  0  0  0  0  0
    9.2170  -14.4585   27.3638 C   0  0  2  0  0  0  0  0  0  0  0  0
   10.1697  -15.0043   26.4067 N   0  0  0  0  0  0  0  0  0  0  0  0
    8.0353  -13.8858   26.6612 C   0  0  0  0  0  0  0  0  0  0  0  0
    7.1304  -13.2687   27.2420 O   0  0  0  0  0  0  0  0  0  0  0  0
    7.9394  -14.0492   25.2894 O   0  0  0  0  0  0  0  0  0  0  0  0
  2  1  1  6
  3  2  1  0
  4  5  1  0
  4  3  1  0
  6  5  1  0
  7  6  1  0
  8  9  2  0
  8  2  1  0
 11 10  1  0
 12 11  2  0
 13 11  1  0
 14 13  1  0
 15 14  1  1
 15 16  1  0
 16  8  1  0
 17 15  1  0
 18 17  2  0
 20 19  1  6
 20 21  1  0
 21 17  1  0
 22 20  1  0
 22 24  1  0
 23 22  2  0
M  END
$$$$
