KQA.pdb
     RDKit          3D

 24 23  0  0  1  0  0  0  0  0999 V2000
    7.7158  -16.1862   20.4124 N   0  0  0  0  0  0  0  0  0  0  0  0
    8.9092  -15.3645   20.4823 C   0  0  1  0  0  0  0  0  0  0  0  0
    8.7026  -14.2016   19.5699 C   0  0  0  0  0  0  0  0  0  0  0  0
    8.1697  -14.5530   18.2139 C   0  0  0  0  0  0  0  0  0  0  0  0
    8.0295  -13.2891   17.3764 C   0  0  0  0  0  0  0  0  0  0  0  0
    7.3529  -13.6503   16.0532 C   0  0  0  0  0  0  0  0  0  0  0  0
    8.2381  -14.5198   15.3086 N   0  0  0  0  0  0  0  0  0  0  0  0
    9.2294  -14.9862   21.8827 C   0  0  0  0  0  0  0  0  0  0  0  0
   10.3236  -14.4423   22.1753 O   0  0  0  0  0  0  0  0  0  0  0  0
    5.6421  -12.6448   26.2139 N   0  0  0  0  0  0  0  0  0  0  0  0
    6.7921  -12.9299   26.9956 C   0  0  0  0  0  0  0  0  0  0  0  0
    6.8852  -12.4726   28.1539 O   0  0  0  0  0  0  0  0  0  0  0  0
    7.8611  -13.7607   26.4317 C   0  0  0  0  0  0  0  0  0  0  0  0
    7.5256  -14.1101   25.0152 C   0  0  0  0  0  0  0  0  0  0  0  0
    8.6531  -14.8559   24.3339 C   0  0  2  0  0  0  0  0  0  0  0  0
    8.3332  -15.2090   22.9757 N   0  0  0  0  0  0  0  0  0  0  0  0
    8.9463  -16.1020   25.0834 C   0  0  0  0  0  0  0  0  0  0  0  0
    8.0636  -16.9847   25.3032 O   0  0  0  0  0  0  0  0  0  0  0  0
   11.9549  -18.0650   26.0799 C   0  0  0  0  0  0  0  0  0  0  0  0
   10.5381  -17.6177   26.3333 C   0  0  2  0  0  0  0  0  0  0  0  0
   10.2419  -16.3903   25.6074 N   0  0  0  0  0  0  0  0  0  0  0  0
   10.2675  -17.4467   27.7878 C   0  0  0  0  0  0  0  0  0  0  0  0
   10.0668  -16.3444   28.3183 O   0  0  0  0  0  0  0  0  0  0  0  0
   10.2380  -18.5743   28.5911 O   0  0  0  0  0  0  0  0  0  0  0  0
  2  1  1  1
  3  2  1  0
  4  5  1  0
  4  3  1  0
  6  5  1  0
  7  6  1  0
  8  9  2  0
  8  2  1  0
 11 10  1  0
 12 11  2  0
 13 11  1  0
 14 13  1  0
 15 14  1  1
 15 16  1  0
 16  8  1  0
 17 15  1  0
 18 17  2  0
 20 19  1  1
 20 21  1  0
 21 17  1  0
 22 20  1  0
 22 24  1  0
 23 22  2  0
M  END
$$$$
