FWS.pdb
     RDKit          3D

 32 34  0  0  1  0  0  0  0  0999 V2000
   24.7453  -19.6193   -7.7033 N   0  0  0  0  0  0  0  0  0  0  0  0
   26.0102  -19.9407   -8.3253 C   0  0  1  0  0  0  0  0  0  0  0  0
   26.6937  -21.1294   -7.6622 C   0  0  0  0  0  0  0  0  0  0  0  0
   27.4166  -20.6438   -6.4843 C   0  0  0  0  0  0  0  0  0  0  0  0
   26.8620  -20.7017   -5.2189 C   0  0  0  0  0  0  0  0  0  0  0  0
   27.5308  -20.2473   -4.1020 C   0  0  0  0  0  0  0  0  0  0  0  0
   28.7908  -19.7204   -4.2590 C   0  0  0  0  0  0  0  0  0  0  0  0
   29.3736  -19.6500   -5.5232 C   0  0  0  0  0  0  0  0  0  0  0  0
   28.6732  -20.1163   -6.6271 C   0  0  0  0  0  0  0  0  0  0  0  0
   25.7522  -20.3505   -9.7304 C   0  0  0  0  0  0  0  0  0  0  0  0
   24.6317  -20.8428  -10.0516 O   0  0  0  0  0  0  0  0  0  0  0  0
   26.7430  -20.1937  -10.6964 N   0  0  0  0  0  0  0  0  0  0  0  0
   26.4013  -19.6541  -12.0296 C   0  0  1  0  0  0  0  0  0  0  0  0
   27.5883  -18.9268  -12.5347 C   0  0  0  0  0  0  0  0  0  0  0  0
   27.4526  -18.3711  -13.8781 C   0  0  0  0  0  0  0  0  0  0  0  0
   26.7572  -17.2010  -14.2068 C   0  0  0  0  0  0  0  0  0  0  0  0
   26.8797  -17.0618  -15.5228 N   0  0  0  0  0  0  0  0  0  0  0  0
   27.6036  -18.0586  -16.0582 C   0  0  0  0  0  0  0  0  0  0  0  0
   28.0231  -18.3479  -17.3525 C   0  0  0  0  0  0  0  0  0  0  0  0
   28.7974  -19.4594  -17.5920 C   0  0  0  0  0  0  0  0  0  0  0  0
   29.1860  -20.3219  -16.5825 C   0  0  0  0  0  0  0  0  0  0  0  0
   28.7674  -20.0316  -15.3017 C   0  0  0  0  0  0  0  0  0  0  0  0
   27.9895  -18.9164  -15.0513 C   0  0  0  0  0  0  0  0  0  0  0  0
   25.8738  -20.7652  -12.8178 C   0  0  0  0  0  0  0  0  0  0  0  0
   26.4779  -21.9002  -12.8421 O   0  0  0  0  0  0  0  0  0  0  0  0
   22.1207  -21.1775  -13.8903 O   0  0  0  0  0  0  0  0  0  0  0  0
   22.8763  -22.3400  -14.0154 C   0  0  0  0  0  0  0  0  0  0  0  0
   24.2899  -21.8815  -14.4185 C   0  0  2  0  0  0  0  0  0  0  0  0
   24.6829  -20.7444  -13.6096 N   0  0  0  0  0  0  0  0  0  0  0  0
   24.2548  -21.6262  -15.8597 C   0  0  0  0  0  0  0  0  0  0  0  0
   24.0189  -22.6506  -16.7464 O   0  0  0  0  0  0  0  0  0  0  0  0
   24.4413  -20.4741  -16.2978 O   0  0  0  0  0  0  0  0  0  0  0  0
  2  1  1  1
  2 10  1  0
  3  2  1  0
  3  4  1  0
  4  9  1  0
  4  5  2  0
  5  6  1  0
  6  7  2  0
  8  7  1  0
  9  8  2  0
 10 11  2  0
 12 10  1  0
 12 13  1  0
 13 14  1  6
 15 14  1  0
 16 15  2  0
 17 18  1  0
 17 16  1  0
 18 23  2  0
 19 20  2  0
 19 18  1  0
 20 21  1  0
 21 22  2  0
 23 22  1  0
 23 15  1  0
 24 13  1  0
 24 25  2  0
 26 27  1  0
 28 27  1  1
 28 30  1  0
 29 28  1  0
 29 24  1  0
 30 32  2  0
 30 31  1  0
M  END
$$$$
