FWS.pdb
     RDKit          3D

 32 34  0  0  1  0  0  0  0  0999 V2000
   19.3014  -21.9902  -12.5437 N   0  0  0  0  0  0  0  0  0  0  0  0
   19.8312  -23.3246  -12.3743 C   0  0  1  0  0  0  0  0  0  0  0  0
   18.7364  -24.3515  -12.1161 C   0  0  0  0  0  0  0  0  0  0  0  0
   18.5098  -24.4260  -10.6707 C   0  0  0  0  0  0  0  0  0  0  0  0
   17.4019  -23.8462  -10.0802 C   0  0  0  0  0  0  0  0  0  0  0  0
   17.1769  -23.9079   -8.7211 C   0  0  0  0  0  0  0  0  0  0  0  0
   18.0886  -24.5695   -7.9330 C   0  0  0  0  0  0  0  0  0  0  0  0
   19.2139  -25.1630   -8.5022 C   0  0  0  0  0  0  0  0  0  0  0  0
   19.4107  -25.0826   -9.8740 C   0  0  0  0  0  0  0  0  0  0  0  0
   20.4842  -23.7357  -13.6445 C   0  0  0  0  0  0  0  0  0  0  0  0
   20.2651  -23.0872  -14.7087 O   0  0  0  0  0  0  0  0  0  0  0  0
   21.3386  -24.8352  -13.6662 N   0  0  0  0  0  0  0  0  0  0  0  0
   22.0182  -25.2227  -14.9205 C   0  0  1  0  0  0  0  0  0  0  0  0
   23.4137  -25.5825  -14.5796 C   0  0  0  0  0  0  0  0  0  0  0  0
   24.4182  -24.5837  -14.9335 C   0  0  0  0  0  0  0  0  0  0  0  0
   24.2512  -23.1964  -14.8433 C   0  0  0  0  0  0  0  0  0  0  0  0
   25.3947  -22.6638  -15.2620 N   0  0  0  0  0  0  0  0  0  0  0  0
   26.2799  -23.6112  -15.6128 C   0  0  0  0  0  0  0  0  0  0  0  0
   27.5894  -23.5708  -16.0800 C   0  0  0  0  0  0  0  0  0  0  0  0
   28.2650  -24.7419  -16.3346 C   0  0  0  0  0  0  0  0  0  0  0  0
   27.6887  -25.9850  -16.1435 C   0  0  0  0  0  0  0  0  0  0  0  0
   26.3907  -26.0200  -15.6810 C   0  0  0  0  0  0  0  0  0  0  0  0
   25.7041  -24.8484  -15.4219 C   0  0  0  0  0  0  0  0  0  0  0  0
   21.1764  -26.2240  -15.5707 C   0  0  0  0  0  0  0  0  0  0  0  0
   20.7430  -27.2438  -14.9182 O   0  0  0  0  0  0  0  0  0  0  0  0
   20.0658  -25.9463  -19.4167 O   0  0  0  0  0  0  0  0  0  0  0  0
   19.1612  -26.7415  -18.7186 C   0  0  0  0  0  0  0  0  0  0  0  0
   19.9231  -27.2624  -17.4860 C   0  0  2  0  0  0  0  0  0  0  0  0
   20.7394  -26.1998  -16.9324 N   0  0  0  0  0  0  0  0  0  0  0  0
   20.6683  -28.4453  -17.9205 C   0  0  0  0  0  0  0  0  0  0  0  0
   20.0062  -29.5615  -18.3756 O   0  0  0  0  0  0  0  0  0  0  0  0
   21.9143  -28.4524  -17.8796 O   0  0  0  0  0  0  0  0  0  0  0  0
  2  1  1  6
  2 10  1  0
  3  2  1  0
  3  4  1  0
  4  9  1  0
  4  5  2  0
  5  6  1  0
  6  7  2  0
  8  7  1  0
  9  8  2  0
 10 11  2  0
 12 10  1  0
 12 13  1  0
 13 14  1  1
 15 14  1  0
 16 15  2  0
 17 18  1  0
 17 16  1  0
 18 23  2  0
 19 20  2  0
 19 18  1  0
 20 21  1  0
 21 22  2  0
 23 22  1  0
 23 15  1  0
 24 13  1  0
 24 25  2  0
 26 27  1  0
 28 27  1  6
 28 30  1  0
 29 28  1  0
 29 24  1  0
 30 32  2  0
 30 31  1  0
M  END
$$$$
