FWS.pdb
     RDKit          3D

 32 34  0  0  1  0  0  0  0  0999 V2000
   24.8632  -20.7522  -14.1297 N   0  0  0  0  0  0  0  0  0  0  0  0
   24.2208  -20.0250  -13.0579 C   0  0  1  0  0  0  0  0  0  0  0  0
   22.7020  -20.1117  -13.1312 C   0  0  0  0  0  0  0  0  0  0  0  0
   22.2587  -19.3869  -14.3245 C   0  0  0  0  0  0  0  0  0  0  0  0
   21.7268  -20.0468  -15.4172 C   0  0  0  0  0  0  0  0  0  0  0  0
   21.3067  -19.3771  -16.5470 C   0  0  0  0  0  0  0  0  0  0  0  0
   21.4235  -18.0077  -16.5813 C   0  0  0  0  0  0  0  0  0  0  0  0
   21.9560  -17.3175  -15.4938 C   0  0  0  0  0  0  0  0  0  0  0  0
   22.3696  -18.0220  -14.3716 C   0  0  0  0  0  0  0  0  0  0  0  0
   24.6033  -20.6551  -11.7673 C   0  0  0  0  0  0  0  0  0  0  0  0
   24.6324  -21.9157  -11.6614 O   0  0  0  0  0  0  0  0  0  0  0  0
   24.9303  -19.8597  -10.6720 N   0  0  0  0  0  0  0  0  0  0  0  0
   25.3967  -20.4824   -9.4151 C   0  0  1  0  0  0  0  0  0  0  0  0
   26.4652  -19.6207   -8.8593 C   0  0  0  0  0  0  0  0  0  0  0  0
   27.1926  -20.1841   -7.7256 C   0  0  0  0  0  0  0  0  0  0  0  0
   27.4934  -21.5399   -7.5462 C   0  0  0  0  0  0  0  0  0  0  0  0
   28.1549  -21.6172   -6.3960 N   0  0  0  0  0  0  0  0  0  0  0  0
   28.2984  -20.4083   -5.8282 C   0  0  0  0  0  0  0  0  0  0  0  0
   28.9171  -19.9659   -4.6636 C   0  0  0  0  0  0  0  0  0  0  0  0
   28.9197  -18.6258   -4.3529 C   0  0  0  0  0  0  0  0  0  0  0  0
   28.3215  -17.6773   -5.1632 C   0  0  0  0  0  0  0  0  0  0  0  0
   27.7091  -18.1205   -6.3158 C   0  0  0  0  0  0  0  0  0  0  0  0
   27.7019  -19.4653   -6.6365 C   0  0  0  0  0  0  0  0  0  0  0  0
   24.2117  -20.7405   -8.6008 C   0  0  0  0  0  0  0  0  0  0  0  0
   23.2193  -19.9227   -8.6048 O   0  0  0  0  0  0  0  0  0  0  0  0
   21.4157  -23.5923   -5.9237 O   0  0  0  0  0  0  0  0  0  0  0  0
   22.3523  -23.4846   -6.9479 C   0  0  0  0  0  0  0  0  0  0  0  0
   22.8026  -22.0121   -6.9532 C   0  0  2  0  0  0  0  0  0  0  0  0
   24.0046  -21.8727   -7.7516 N   0  0  0  0  0  0  0  0  0  0  0  0
   22.9466  -21.6108   -5.5526 C   0  0  0  0  0  0  0  0  0  0  0  0
   21.8375  -21.4059   -4.7656 O   0  0  0  0  0  0  0  0  0  0  0  0
   24.0800  -21.4486   -5.0594 O   0  0  0  0  0  0  0  0  0  0  0  0
  2  1  1  6
  2 10  1  0
  3  2  1  0
  3  4  1  0
  4  9  1  0
  4  5  2  0
  5  6  1  0
  6  7  2  0
  8  7  1  0
  9  8  2  0
 10 11  2  0
 12 10  1  0
 12 13  1  0
 13 14  1  1
 15 14  1  0
 16 15  2  0
 17 18  1  0
 17 16  1  0
 18 23  2  0
 19 20  2  0
 19 18  1  0
 20 21  1  0
 21 22  2  0
 23 22  1  0
 23 15  1  0
 24 13  1  0
 24 25  2  0
 26 27  1  0
 28 27  1  1
 28 30  1  0
 29 28  1  0
 29 24  1  0
 30 32  2  0
 30 31  1  0
M  END
$$$$
