FWS.pdb
     RDKit          3D

 32 34  0  0  1  0  0  0  0  0999 V2000
   15.5990  -22.5606  -20.2353 N   0  0  0  0  0  0  0  0  0  0  0  0
   14.5028  -22.1152  -19.4045 C   0  0  1  0  0  0  0  0  0  0  0  0
   13.3632  -23.1248  -19.3629 C   0  0  0  0  0  0  0  0  0  0  0  0
   12.5319  -22.9267  -20.5526 C   0  0  0  0  0  0  0  0  0  0  0  0
   11.6570  -21.8609  -20.6560 C   0  0  0  0  0  0  0  0  0  0  0  0
   10.8680  -21.6631  -21.7695 C   0  0  0  0  0  0  0  0  0  0  0  0
   10.9595  -22.5595  -22.8078 C   0  0  0  0  0  0  0  0  0  0  0  0
   11.8331  -23.6428  -22.7299 C   0  0  0  0  0  0  0  0  0  0  0  0
   12.6134  -23.8129  -21.5946 C   0  0  0  0  0  0  0  0  0  0  0  0
   14.9919  -21.9946  -18.0063 C   0  0  0  0  0  0  0  0  0  0  0  0
   16.0493  -22.5917  -17.6508 O   0  0  0  0  0  0  0  0  0  0  0  0
   14.2874  -21.2242  -17.0844 N   0  0  0  0  0  0  0  0  0  0  0  0
   14.8213  -21.0265  -15.7202 C   0  0  1  0  0  0  0  0  0  0  0  0
   15.2395  -19.6105  -15.6051 C   0  0  0  0  0  0  0  0  0  0  0  0
   16.4898  -19.2741  -16.2799 C   0  0  0  0  0  0  0  0  0  0  0  0
   17.7684  -19.3730  -15.7177 C   0  0  0  0  0  0  0  0  0  0  0  0
   18.6134  -18.9696  -16.6609 N   0  0  0  0  0  0  0  0  0  0  0  0
   17.9664  -18.6206  -17.7852 C   0  0  0  0  0  0  0  0  0  0  0  0
   18.3889  -18.1667  -19.0303 C   0  0  0  0  0  0  0  0  0  0  0  0
   17.4662  -17.9101  -20.0179 C   0  0  0  0  0  0  0  0  0  0  0  0
   16.1076  -18.0862  -19.8248 C   0  0  0  0  0  0  0  0  0  0  0  0
   15.6937  -18.5355  -18.5892 C   0  0  0  0  0  0  0  0  0  0  0  0
   16.6137  -18.7965  -17.5909 C   0  0  0  0  0  0  0  0  0  0  0  0
   13.8170  -21.5372  -14.7903 C   0  0  0  0  0  0  0  0  0  0  0  0
   12.6218  -21.0628  -14.7864 O   0  0  0  0  0  0  0  0  0  0  0  0
   12.3738  -24.6347  -11.3582 O   0  0  0  0  0  0  0  0  0  0  0  0
   13.4760  -23.9778  -11.8982 C   0  0  0  0  0  0  0  0  0  0  0  0
   12.9211  -23.0715  -13.0125 C   0  0  2  0  0  0  0  0  0  0  0  0
   14.0132  -22.5764  -13.8273 N   0  0  0  0  0  0  0  0  0  0  0  0
   12.1273  -22.0325  -12.3540 C   0  0  0  0  0  0  0  0  0  0  0  0
   10.7599  -22.1482  -12.2637 O   0  0  0  0  0  0  0  0  0  0  0  0
   12.6855  -21.0287  -11.8693 O   0  0  0  0  0  0  0  0  0  0  0  0
  2  1  1  6
  2 10  1  0
  3  2  1  0
  3  4  1  0
  4  9  1  0
  4  5  2  0
  5  6  1  0
  6  7  2  0
  8  7  1  0
  9  8  2  0
 10 11  2  0
 12 10  1  0
 12 13  1  0
 13 14  1  1
 15 14  1  0
 16 15  2  0
 17 18  1  0
 17 16  1  0
 18 23  2  0
 19 20  2  0
 19 18  1  0
 20 21  1  0
 21 22  2  0
 23 22  1  0
 23 15  1  0
 24 13  1  0
 24 25  2  0
 26 27  1  0
 28 27  1  1
 28 30  1  0
 29 28  1  0
 29 24  1  0
 30 32  2  0
 30 31  1  0
M  END
$$$$
