FWS.pdb
     RDKit          3D

 32 34  0  0  1  0  0  0  0  0999 V2000
   18.1943   -8.8176  -17.1537 N   0  0  0  0  0  0  0  0  0  0  0  0
   19.1080   -7.7330  -17.4346 C   0  0  1  0  0  0  0  0  0  0  0  0
   18.7456   -6.9899  -18.7137 C   0  0  0  0  0  0  0  0  0  0  0  0
   18.9542   -7.8967  -19.8452 C   0  0  0  0  0  0  0  0  0  0  0  0
   17.8921   -8.4214  -20.5585 C   0  0  0  0  0  0  0  0  0  0  0  0
   18.0741   -9.2767  -21.6247 C   0  0  0  0  0  0  0  0  0  0  0  0
   19.3570   -9.6147  -21.9851 C   0  0  0  0  0  0  0  0  0  0  0  0
   20.4458   -9.1002  -21.2832 C   0  0  0  0  0  0  0  0  0  0  0  0
   20.2278   -8.2415  -20.2146 C   0  0  0  0  0  0  0  0  0  0  0  0
   19.0025   -6.7342  -16.3391 C   0  0  0  0  0  0  0  0  0  0  0  0
   17.9339   -6.6397  -15.6681 O   0  0  0  0  0  0  0  0  0  0  0  0
   20.0793   -5.9002  -16.0488 N   0  0  0  0  0  0  0  0  0  0  0  0
   20.0233   -4.9943  -14.8820 C   0  0  1  0  0  0  0  0  0  0  0  0
   21.1815   -5.3105  -14.0150 C   0  0  0  0  0  0  0  0  0  0  0  0
   21.1351   -6.6180  -13.3668 C   0  0  0  0  0  0  0  0  0  0  0  0
   20.3840   -6.9338  -12.2280 C   0  0  0  0  0  0  0  0  0  0  0  0
   20.6296   -8.2150  -11.9734 N   0  0  0  0  0  0  0  0  0  0  0  0
   21.4832   -8.7400  -12.8679 C   0  0  0  0  0  0  0  0  0  0  0  0
   22.0218  -10.0102  -13.0447 C   0  0  0  0  0  0  0  0  0  0  0  0
   22.8726  -10.2557  -14.0975 C   0  0  0  0  0  0  0  0  0  0  0  0
   23.2252   -9.2754  -15.0079 C   0  0  0  0  0  0  0  0  0  0  0  0
   22.6895   -8.0182  -14.8282 C   0  0  0  0  0  0  0  0  0  0  0  0
   21.8332   -7.7623  -13.7734 C   0  0  0  0  0  0  0  0  0  0  0  0
   19.8888   -3.6358  -15.4019 C   0  0  0  0  0  0  0  0  0  0  0  0
   20.8348   -3.0958  -16.0853 O   0  0  0  0  0  0  0  0  0  0  0  0
   16.5449   -1.4306  -14.9365 O   0  0  0  0  0  0  0  0  0  0  0  0
   17.2368   -1.0613  -16.0867 C   0  0  0  0  0  0  0  0  0  0  0  0
   18.7030   -1.4640  -15.8431 C   0  0  2  0  0  0  0  0  0  0  0  0
   18.7530   -2.7816  -15.2403 N   0  0  0  0  0  0  0  0  0  0  0  0
   19.3043   -0.3985  -15.0392 C   0  0  0  0  0  0  0  0  0  0  0  0
   19.8019   -0.6639  -13.7848 O   0  0  0  0  0  0  0  0  0  0  0  0
   19.3690    0.7640  -15.4851 O   0  0  0  0  0  0  0  0  0  0  0  0
  2  1  1  1
  2 10  1  0
  3  2  1  0
  3  4  1  0
  4  9  1  0
  4  5  2  0
  5  6  1  0
  6  7  2  0
  8  7  1  0
  9  8  2  0
 10 11  2  0
 12 10  1  0
 12 13  1  0
 13 14  1  6
 15 14  1  0
 16 15  2  0
 17 18  1  0
 17 16  1  0
 18 23  2  0
 19 20  2  0
 19 18  1  0
 20 21  1  0
 21 22  2  0
 23 22  1  0
 23 15  1  0
 24 13  1  0
 24 25  2  0
 26 27  1  0
 28 27  1  1
 28 30  1  0
 29 28  1  0
 29 24  1  0
 30 32  2  0
 30 31  1  0
M  END
$$$$
