FWS.pdb
     RDKit          3D

 32 34  0  0  1  0  0  0  0  0999 V2000
   27.2253  -36.1783  -14.4428 N   0  0  0  0  0  0  0  0  0  0  0  0
   26.2383  -36.4105  -13.4123 C   0  0  1  0  0  0  0  0  0  0  0  0
   26.6027  -37.5894  -12.5195 C   0  0  0  0  0  0  0  0  0  0  0  0
   26.4634  -38.8186  -13.3041 C   0  0  0  0  0  0  0  0  0  0  0  0
   27.5668  -39.5111  -13.7679 C   0  0  0  0  0  0  0  0  0  0  0  0
   27.4500  -40.6686  -14.5083 C   0  0  0  0  0  0  0  0  0  0  0  0
   26.1915  -41.1443  -14.7909 C   0  0  0  0  0  0  0  0  0  0  0  0
   25.0622  -40.4660  -14.3357 C   0  0  0  0  0  0  0  0  0  0  0  0
   25.2147  -39.3035  -13.5927 C   0  0  0  0  0  0  0  0  0  0  0  0
   26.1999  -35.2213  -12.5218 C   0  0  0  0  0  0  0  0  0  0  0  0
   27.1778  -34.4187  -12.4935 O   0  0  0  0  0  0  0  0  0  0  0  0
   25.0880  -34.9877  -11.7166 N   0  0  0  0  0  0  0  0  0  0  0  0
   24.9803  -33.7310  -10.9457 C   0  0  1  0  0  0  0  0  0  0  0  0
   23.8907  -32.9293  -11.5483 C   0  0  0  0  0  0  0  0  0  0  0  0
   23.5811  -31.6809  -10.8572 C   0  0  0  0  0  0  0  0  0  0  0  0
   24.3385  -31.1147   -9.8245 C   0  0  0  0  0  0  0  0  0  0  0  0
   23.7086  -29.9956   -9.4822 N   0  0  0  0  0  0  0  0  0  0  0  0
   22.6037  -29.8062  -10.2222 C   0  0  0  0  0  0  0  0  0  0  0  0
   21.6416  -28.8025  -10.2653 C   0  0  0  0  0  0  0  0  0  0  0  0
   20.6117  -28.8758  -11.1744 C   0  0  0  0  0  0  0  0  0  0  0  0
   20.4861  -29.9255  -12.0669 C   0  0  0  0  0  0  0  0  0  0  0  0
   21.4414  -30.9180  -12.0200 C   0  0  0  0  0  0  0  0  0  0  0  0
   22.4802  -30.8525  -11.1102 C   0  0  0  0  0  0  0  0  0  0  0  0
   24.8791  -34.1017   -9.5363 C   0  0  0  0  0  0  0  0  0  0  0  0
   24.0735  -35.0289   -9.1558 O   0  0  0  0  0  0  0  0  0  0  0  0
   27.8290  -34.1349   -7.0817 O   0  0  0  0  0  0  0  0  0  0  0  0
   26.7671  -33.6813   -6.3043 C   0  0  0  0  0  0  0  0  0  0  0  0
   25.4913  -34.0131   -7.1002 C   0  0  2  0  0  0  0  0  0  0  0  0
   25.6242  -33.5265   -8.4594 N   0  0  0  0  0  0  0  0  0  0  0  0
   24.3686  -33.4445   -6.3523 C   0  0  0  0  0  0  0  0  0  0  0  0
   24.1445  -33.8054   -5.0442 O   0  0  0  0  0  0  0  0  0  0  0  0
   23.6013  -32.6267   -6.8969 O   0  0  0  0  0  0  0  0  0  0  0  0
  2  1  1  6
  2 10  1  0
  3  2  1  0
  3  4  1  0
  4  9  1  0
  4  5  2  0
  5  6  1  0
  6  7  2  0
  8  7  1  0
  9  8  2  0
 10 11  2  0
 12 10  1  0
 12 13  1  0
 13 14  1  6
 15 14  1  0
 16 15  2  0
 17 18  1  0
 17 16  1  0
 18 23  2  0
 19 20  2  0
 19 18  1  0
 20 21  1  0
 21 22  2  0
 23 22  1  0
 23 15  1  0
 24 13  1  0
 24 25  2  0
 26 27  1  0
 28 27  1  1
 28 30  1  0
 29 28  1  0
 29 24  1  0
 30 32  2  0
 30 31  1  0
M  END
$$$$
