FWS.pdb
     RDKit          3D

 32 34  0  0  1  0  0  0  0  0999 V2000
   19.0178  -27.0722  -15.7558 N   0  0  0  0  0  0  0  0  0  0  0  0
   19.7174  -26.5183  -14.6183 C   0  0  1  0  0  0  0  0  0  0  0  0
   19.2086  -25.1315  -14.2474 C   0  0  0  0  0  0  0  0  0  0  0  0
   19.5308  -24.2165  -15.3451 C   0  0  0  0  0  0  0  0  0  0  0  0
   20.8287  -23.8072  -15.5900 C   0  0  0  0  0  0  0  0  0  0  0  0
   21.1458  -22.9457  -16.6189 C   0  0  0  0  0  0  0  0  0  0  0  0
   20.1326  -22.4822  -17.4243 C   0  0  0  0  0  0  0  0  0  0  0  0
   18.8154  -22.8787  -17.1998 C   0  0  0  0  0  0  0  0  0  0  0  0
   18.5302  -23.7472  -16.1552 C   0  0  0  0  0  0  0  0  0  0  0  0
   19.4501  -27.3799  -13.4372 C   0  0  0  0  0  0  0  0  0  0  0  0
   18.3984  -28.0819  -13.3896 O   0  0  0  0  0  0  0  0  0  0  0  0
   20.3564  -27.4165  -12.3804 N   0  0  0  0  0  0  0  0  0  0  0  0
   20.1667  -28.3767  -11.2726 C   0  0  1  0  0  0  0  0  0  0  0  0
   21.4446  -29.1014  -11.0860 C   0  0  0  0  0  0  0  0  0  0  0  0
   21.7373  -30.1166  -12.0937 C   0  0  0  0  0  0  0  0  0  0  0  0
   22.1039  -29.8618  -13.4209 C   0  0  0  0  0  0  0  0  0  0  0  0
   22.2723  -31.0523  -13.9874 N   0  0  0  0  0  0  0  0  0  0  0  0
   22.0400  -32.0490  -13.1173 C   0  0  0  0  0  0  0  0  0  0  0  0
   22.1020  -33.4353  -13.2121 C   0  0  0  0  0  0  0  0  0  0  0  0
   21.8249  -34.2127  -12.1115 C   0  0  0  0  0  0  0  0  0  0  0  0
   21.4793  -33.6668  -10.8882 C   0  0  0  0  0  0  0  0  0  0  0  0
   21.4185  -32.2927  -10.7993 C   0  0  0  0  0  0  0  0  0  0  0  0
   21.6958  -31.5033  -11.8998 C   0  0  0  0  0  0  0  0  0  0  0  0
   19.6170  -27.6263  -10.1462 C   0  0  0  0  0  0  0  0  0  0  0  0
   20.3630  -26.8444   -9.4494 O   0  0  0  0  0  0  0  0  0  0  0  0
   15.6838  -27.6589   -9.1369 O   0  0  0  0  0  0  0  0  0  0  0  0
   16.3184  -26.4661   -8.8014 C   0  0  0  0  0  0  0  0  0  0  0  0
   17.8036  -26.8211   -8.6033 C   0  0  2  0  0  0  0  0  0  0  0  0
   18.2575  -27.6505   -9.7024 N   0  0  0  0  0  0  0  0  0  0  0  0
   17.9159  -27.4397   -7.2811 C   0  0  0  0  0  0  0  0  0  0  0  0
   17.5716  -26.7389   -6.1490 O   0  0  0  0  0  0  0  0  0  0  0  0
   18.3283  -28.6108   -7.1689 O   0  0  0  0  0  0  0  0  0  0  0  0
  2  1  1  6
  2 10  1  0
  3  2  1  0
  3  4  1  0
  4  9  1  0
  4  5  2  0
  5  6  1  0
  6  7  2  0
  8  7  1  0
  9  8  2  0
 10 11  2  0
 12 10  1  0
 12 13  1  0
 13 14  1  1
 15 14  1  0
 16 15  2  0
 17 18  1  0
 17 16  1  0
 18 23  2  0
 19 20  2  0
 19 18  1  0
 20 21  1  0
 21 22  2  0
 23 22  1  0
 23 15  1  0
 24 13  1  0
 24 25  2  0
 26 27  1  0
 28 27  1  6
 28 30  1  0
 29 28  1  0
 29 24  1  0
 30 32  2  0
 30 31  1  0
M  END
$$$$
