RTT.pdb
     RDKit          3D

 26 25  0  0  1  0  0  0  0  0999 V2000
   22.7610  -20.9257   -8.2990 N   0  0  0  0  0  0  0  0  0  0  0  0
   23.9655  -21.2442   -7.5497 C   0  0  0  0  0  0  0  0  0  0  0  0
   23.8744  -21.7800   -6.3983 N   0  0  0  0  0  0  0  0  0  0  0  0
   25.2399  -20.9672   -8.0793 N   0  0  0  0  0  0  0  0  0  0  0  0
   25.5071  -20.3179   -9.2930 C   0  0  0  0  0  0  0  0  0  0  0  0
   25.7871  -21.0958  -10.5201 C   0  0  0  0  0  0  0  0  0  0  0  0
   26.2142  -20.2403  -11.6962 C   0  0  0  0  0  0  0  0  0  0  0  0
   26.4194  -21.1538  -12.9027 C   0  0  2  0  0  0  0  0  0  0  0  0
   27.8040  -21.4946  -13.0573 N   0  0  0  0  0  0  0  0  0  0  0  0
   25.8243  -20.5920  -14.1325 C   0  0  0  0  0  0  0  0  0  0  0  0
   26.6038  -20.3263  -15.1048 O   0  0  0  0  0  0  0  0  0  0  0  0
   24.6532  -21.9559   -5.7818 C   0  0  0  0  0  0  0  0  0  0  0  0
   25.5263  -21.4218  -16.6366 C   0  0  2  0  0  0  0  0  0  0  0  0
   24.1269  -20.9058  -16.5739 O   0  0  0  0  0  0  0  0  0  0  0  0
   23.3315  -21.9865  -16.0995 C   0  0  2  0  0  0  0  0  0  0  0  0
   23.8951  -19.7953  -15.5742 N   0  0  0  0  0  0  0  0  0  0  0  0
   24.4446  -20.3281  -14.3056 C   0  0  0  0  0  0  0  0  0  0  0  0
   22.4361  -19.5014  -15.3697 O   0  0  0  0  0  0  0  0  0  0  0  0
   21.9073  -19.9432  -14.3357 C   0  0  0  0  0  0  0  0  0  0  0  0
   18.7177  -16.7670  -17.3029 C   0  0  2  0  0  0  0  0  0  0  0  0
   19.9834  -17.5776  -17.5362 O   0  0  0  0  0  0  0  0  0  0  0  0
   20.9965  -16.6260  -17.7814 C   0  0  1  0  0  0  0  0  0  0  0  0
   20.3356  -18.3759  -16.3100 N   0  0  0  0  0  0  0  0  0  0  0  0
   21.7084  -18.7627  -16.3014 C   0  0  0  0  0  0  0  0  0  0  0  0
   19.3333  -19.3725  -15.9350 O   0  0  0  0  0  0  0  0  0  0  0  0
   18.3005  -19.1231  -15.0768 O   0  0  0  0  0  0  0  0  0  0  0  0
  1  2  1  0
  2  3  2  0
  4  2  1  0
  4  5  1  0
  5  6  1  0
  7  6  1  0
  8  7  1  0
  8  9  1  6
 10  8  1  0
 11 10  2  0
 13 12  1  6
 13 15  1  0
 14 13  1  0
 15 16  1  6
 16 10  1  0
 17 23  1  0
 17 15  1  0
 18 17  2  0
 20 19  1  6
 20 22  1  0
 21 20  1  0
 22 24  1  0
 22 23  1  6
 24 25  1  0
 26 24  2  0
M  END
$$$$
