RTT.pdb
     RDKit          3D

 26 25  0  0  1  0  0  0  0  0999 V2000
   28.0376  -21.2215  -10.6945 N   0  0  0  0  0  0  0  0  0  0  0  0
   26.6482  -21.6167  -10.5298 C   0  0  0  0  0  0  0  0  0  0  0  0
   26.0389  -21.3582   -9.4421 N   0  0  0  0  0  0  0  0  0  0  0  0
   25.9606  -22.2859  -11.5596 N   0  0  0  0  0  0  0  0  0  0  0  0
   26.3411  -22.3394  -12.9082 C   0  0  0  0  0  0  0  0  0  0  0  0
   26.2643  -21.1341  -13.7630 C   0  0  0  0  0  0  0  0  0  0  0  0
   25.0709  -21.1286  -14.6975 C   0  0  0  0  0  0  0  0  0  0  0  0
   23.8451  -20.6790  -13.9054 C   0  0  2  0  0  0  0  0  0  0  0  0
   23.5846  -21.5727  -12.8142 N   0  0  0  0  0  0  0  0  0  0  0  0
   22.6678  -20.4721  -14.7734 C   0  0  0  0  0  0  0  0  0  0  0  0
   21.8106  -21.4118  -14.8499 O   0  0  0  0  0  0  0  0  0  0  0  0
   25.0770  -21.5942   -9.2507 C   0  0  0  0  0  0  0  0  0  0  0  0
   20.1506  -20.2544  -14.3382 C   0  0  2  0  0  0  0  0  0  0  0  0
   20.0750  -19.1568  -15.3472 O   0  0  0  0  0  0  0  0  0  0  0  0
   20.2115  -17.9429  -14.6168 C   0  0  2  0  0  0  0  0  0  0  0  0
   21.2059  -19.1265  -16.3504 N   0  0  0  0  0  0  0  0  0  0  0  0
   22.4260  -19.2992  -15.5277 C   0  0  0  0  0  0  0  0  0  0  0  0
   21.3030  -17.8099  -17.0675 O   0  0  0  0  0  0  0  0  0  0  0  0
   21.8677  -16.8782  -16.4699 C   0  0  0  0  0  0  0  0  0  0  0  0
   20.5778  -15.7168  -21.5423 C   0  0  2  0  0  0  0  0  0  0  0  0
   20.1939  -16.8079  -20.5544 O   0  0  0  0  0  0  0  0  0  0  0  0
   20.8227  -17.9791  -21.0286 C   0  0  1  0  0  0  0  0  0  0  0  0
   20.7133  -16.4850  -19.1793 N   0  0  0  0  0  0  0  0  0  0  0  0
   20.7820  -17.6432  -18.3496 C   0  0  0  0  0  0  0  0  0  0  0  0
   20.1694  -15.2544  -18.6065 O   0  0  0  0  0  0  0  0  0  0  0  0
   19.2601  -15.2298  -17.5878 O   0  0  0  0  0  0  0  0  0  0  0  0
  1  2  1  0
  2  3  2  0
  4  2  1  0
  4  5  1  0
  5  6  1  0
  7  6  1  0
  8  7  1  0
  8  9  1  1
 10  8  1  0
 11 10  2  0
 13 12  1  1
 13 15  1  0
 14 13  1  0
 15 16  1  6
 16 10  1  0
 17 23  1  0
 17 15  1  0
 18 17  2  0
 20 19  1  6
 20 22  1  0
 21 20  1  0
 22 24  1  0
 22 23  1  6
 24 25  1  0
 26 24  2  0
M  END
$$$$
