RTT.pdb
     RDKit          3D

 26 25  0  0  1  0  0  0  0  0999 V2000
   20.4105  -21.4072  -11.6213 N   0  0  0  0  0  0  0  0  0  0  0  0
   20.0404  -20.9608  -10.2881 C   0  0  0  0  0  0  0  0  0  0  0  0
   18.8379  -21.0838   -9.8880 N   0  0  0  0  0  0  0  0  0  0  0  0
   20.9958  -20.3900   -9.4263 N   0  0  0  0  0  0  0  0  0  0  0  0
   22.3722  -20.2847   -9.6724 C   0  0  0  0  0  0  0  0  0  0  0  0
   23.1154  -21.4013  -10.2971 C   0  0  0  0  0  0  0  0  0  0  0  0
   23.6417  -21.0799  -11.6817 C   0  0  0  0  0  0  0  0  0  0  0  0
   25.1677  -21.0698  -11.6230 C   0  0  2  0  0  0  0  0  0  0  0  0
   25.6279  -21.0879  -10.2646 N   0  0  0  0  0  0  0  0  0  0  0  0
   25.7469  -19.9634  -12.4120 C   0  0  0  0  0  0  0  0  0  0  0  0
   26.0162  -18.8755  -11.8057 O   0  0  0  0  0  0  0  0  0  0  0  0
   18.4899  -20.7547   -9.0002 C   0  0  0  0  0  0  0  0  0  0  0  0
   28.8744  -19.5829  -13.5671 C   0  0  2  0  0  0  0  0  0  0  0  0
   28.0547  -19.3437  -14.7917 O   0  0  0  0  0  0  0  0  0  0  0  0
   27.9240  -20.6095  -15.4292 C   0  0  2  0  0  0  0  0  0  0  0  0
   26.6327  -18.8975  -14.5366 N   0  0  0  0  0  0  0  0  0  0  0  0
   26.0239  -20.0287  -13.7985 C   0  0  0  0  0  0  0  0  0  0  0  0
   25.8581  -18.6920  -15.8074 O   0  0  0  0  0  0  0  0  0  0  0  0
   25.1753  -19.6461  -16.2167 C   0  0  0  0  0  0  0  0  0  0  0  0
   23.7117  -15.5246  -16.4004 C   0  0  2  0  0  0  0  0  0  0  0  0
   24.7113  -15.6396  -17.5411 O   0  0  0  0  0  0  0  0  0  0  0  0
   25.7838  -14.7943  -17.1846 C   0  0  2  0  0  0  0  0  0  0  0  0
   25.2116  -17.0533  -17.6674 N   0  0  0  0  0  0  0  0  0  0  0  0
   25.9039  -17.4809  -16.4959 C   0  0  0  0  0  0  0  0  0  0  0  0
   25.7958  -17.3686  -18.9704 O   0  0  0  0  0  0  0  0  0  0  0  0
   25.1415  -17.1944  -20.1565 O   0  0  0  0  0  0  0  0  0  0  0  0
  1  2  1  0
  2  3  2  0
  4  2  1  0
  4  5  1  0
  5  6  1  0
  7  6  1  0
  8  7  1  0
  8  9  1  1
 10  8  1  0
 11 10  2  0
 13 12  1  6
 13 15  1  0
 14 13  1  0
 15 16  1  6
 16 10  1  0
 17 23  1  0
 17 15  1  0
 18 17  2  0
 20 19  1  6
 20 22  1  0
 21 20  1  0
 22 24  1  0
 22 23  1  6
 24 25  1  0
 26 24  2  0
M  END
$$$$
