RTT.pdb
     RDKit          3D

 26 25  0  0  1  0  0  0  0  0999 V2000
   20.0308  -23.2882   -7.8014 N   0  0  0  0  0  0  0  0  0  0  0  0
   19.2713  -23.6006   -9.0011 C   0  0  0  0  0  0  0  0  0  0  0  0
   18.5374  -24.6405   -9.0355 N   0  0  0  0  0  0  0  0  0  0  0  0
   19.3349  -22.7674  -10.1337 N   0  0  0  0  0  0  0  0  0  0  0  0
   20.4659  -22.0726  -10.5859 C   0  0  0  0  0  0  0  0  0  0  0  0
   20.9526  -20.8736   -9.8683 C   0  0  0  0  0  0  0  0  0  0  0  0
   22.1324  -20.2013  -10.5418 C   0  0  0  0  0  0  0  0  0  0  0  0
   23.4031  -20.9433  -10.1331 C   0  0  2  0  0  0  0  0  0  0  0  0
   23.5201  -21.0101   -8.7051 N   0  0  0  0  0  0  0  0  0  0  0  0
   24.6061  -20.3850  -10.7835 C   0  0  0  0  0  0  0  0  0  0  0  0
   25.1673  -19.3797  -10.2374 O   0  0  0  0  0  0  0  0  0  0  0  0
   18.0026  -24.9417   -9.8361 C   0  0  0  0  0  0  0  0  0  0  0  0
   27.9153  -21.6680  -11.4670 C   0  0  2  0  0  0  0  0  0  0  0  0
   27.3791  -21.1999  -12.7792 O   0  0  0  0  0  0  0  0  0  0  0  0
   26.7775  -22.3385  -13.3854 C   0  0  2  0  0  0  0  0  0  0  0  0
   26.2645  -20.1819  -12.6922 N   0  0  0  0  0  0  0  0  0  0  0  0
   25.1798  -20.8911  -11.9743 C   0  0  0  0  0  0  0  0  0  0  0  0
   25.7492  -19.7768  -14.0441 O   0  0  0  0  0  0  0  0  0  0  0  0
   24.6726  -20.2749  -14.4140 C   0  0  0  0  0  0  0  0  0  0  0  0
   28.5251  -17.6128  -16.5290 C   0  0  2  0  0  0  0  0  0  0  0  0
   27.0479  -17.2506  -16.5493 O   0  0  0  0  0  0  0  0  0  0  0  0
   26.7735  -16.8758  -17.8820 C   0  0  1  0  0  0  0  0  0  0  0  0
   26.2046  -18.4419  -16.1827 N   0  0  0  0  0  0  0  0  0  0  0  0
   26.4502  -18.8787  -14.8473 C   0  0  0  0  0  0  0  0  0  0  0  0
   26.1056  -19.4530  -17.2345 O   0  0  0  0  0  0  0  0  0  0  0  0
   26.6663  -20.6952  -17.1469 O   0  0  0  0  0  0  0  0  0  0  0  0
  1  2  1  0
  2  3  2  0
  4  2  1  0
  4  5  1  0
  5  6  1  0
  7  6  1  0
  8  7  1  0
  8  9  1  1
 10  8  1  0
 11 10  2  0
 13 12  1  6
 13 15  1  0
 14 13  1  0
 15 16  1  6
 16 10  1  0
 17 23  1  0
 17 15  1  0
 18 17  2  0
 20 19  1  1
 20 22  1  0
 21 20  1  0
 22 24  1  0
 22 23  1  1
 24 25  1  0
 26 24  2  0
M  END
$$$$
