RTT.pdb
     RDKit          3D

 26 25  0  0  1  0  0  0  0  0999 V2000
   47.1474   -9.6328   -0.5439 N   0  0  0  0  0  0  0  0  0  0  0  0
   46.9400  -10.5916   -1.6170 C   0  0  0  0  0  0  0  0  0  0  0  0
   47.7047  -11.6044   -1.7204 N   0  0  0  0  0  0  0  0  0  0  0  0
   45.9014  -10.4172   -2.5507 N   0  0  0  0  0  0  0  0  0  0  0  0
   45.1124   -9.2682   -2.7041 C   0  0  0  0  0  0  0  0  0  0  0  0
   44.1209   -9.1732   -3.7983 C   0  0  0  0  0  0  0  0  0  0  0  0
   44.6674   -9.5892   -5.1495 C   0  0  0  0  0  0  0  0  0  0  0  0
   43.5639   -9.4054   -6.1890 C   0  0  2  0  0  0  0  0  0  0  0  0
   42.4033  -10.1748   -5.8452 N   0  0  0  0  0  0  0  0  0  0  0  0
   44.0434   -9.6692   -7.5611 C   0  0  0  0  0  0  0  0  0  0  0  0
   43.8109  -10.8167   -8.0639 O   0  0  0  0  0  0  0  0  0  0  0  0
   47.6415  -12.3018   -2.4466 C   0  0  0  0  0  0  0  0  0  0  0  0
   43.2117   -7.9227  -10.6869 C   0  0  2  0  0  0  0  0  0  0  0  0
   44.7008   -7.9738  -10.5940 O   0  0  0  0  0  0  0  0  0  0  0  0
   45.0955   -6.7640   -9.9565 C   0  0  2  0  0  0  0  0  0  0  0  0
   45.2527   -9.0681   -9.7084 N   0  0  0  0  0  0  0  0  0  0  0  0
   44.7450   -8.7328   -8.3575 C   0  0  0  0  0  0  0  0  0  0  0  0
   46.7543   -9.0671   -9.6617 O   0  0  0  0  0  0  0  0  0  0  0  0
   47.2940   -8.4008   -8.7622 C   0  0  0  0  0  0  0  0  0  0  0  0
   48.6850  -12.3831  -10.6315 C   0  0  2  0  0  0  0  0  0  0  0  0
   49.3080  -11.2139  -11.3789 O   0  0  0  0  0  0  0  0  0  0  0  0
   48.7682  -11.2731  -12.6816 C   0  0  2  0  0  0  0  0  0  0  0  0
   48.9215   -9.9083  -10.7380 N   0  0  0  0  0  0  0  0  0  0  0  0
   47.5084   -9.7851  -10.5884 C   0  0  0  0  0  0  0  0  0  0  0  0
   49.6685   -8.7528  -11.2333 O   0  0  0  0  0  0  0  0  0  0  0  0
   51.0323   -8.6871  -11.2610 O   0  0  0  0  0  0  0  0  0  0  0  0
  1  2  1  0
  2  3  2  0
  4  2  1  0
  4  5  1  0
  5  6  1  0
  7  6  1  0
  8  7  1  0
  8  9  1  1
 10  8  1  0
 11 10  2  0
 13 12  1  6
 13 15  1  0
 14 13  1  0
 15 16  1  6
 16 10  1  0
 17 23  1  0
 17 15  1  0
 18 17  2  0
 20 19  1  6
 20 22  1  0
 21 20  1  0
 22 24  1  0
 22 23  1  1
 24 25  1  0
 26 24  2  0
M  END
$$$$
