RTT.pdb
     RDKit          3D

 26 25  0  0  1  0  0  0  0  0999 V2000
   22.3399  -30.0066  -10.0728 N   0  0  0  0  0  0  0  0  0  0  0  0
   21.3525  -30.7839  -10.8040 C   0  0  0  0  0  0  0  0  0  0  0  0
   21.7124  -31.8183  -11.4534 N   0  0  0  0  0  0  0  0  0  0  0  0
   19.9958  -30.4090  -10.8068 N   0  0  0  0  0  0  0  0  0  0  0  0
   19.4748  -29.1892  -10.3521 C   0  0  0  0  0  0  0  0  0  0  0  0
   19.6344  -27.9546  -11.1521 C   0  0  0  0  0  0  0  0  0  0  0  0
   20.0189  -26.7429  -10.3267 C   0  0  0  0  0  0  0  0  0  0  0  0
   18.7907  -25.8449  -10.1943 C   0  0  2  0  0  0  0  0  0  0  0  0
   18.8346  -24.7737  -11.1471 N   0  0  0  0  0  0  0  0  0  0  0  0
   18.5932  -25.3744   -8.8081 C   0  0  0  0  0  0  0  0  0  0  0  0
   19.4068  -24.5066   -8.3511 O   0  0  0  0  0  0  0  0  0  0  0  0
   21.0948  -32.3982  -12.0011 C   0  0  0  0  0  0  0  0  0  0  0  0
   16.2240  -23.2966   -7.4551 C   0  0  2  0  0  0  0  0  0  0  0  0
   16.1711  -24.4990   -6.5719 O   0  0  0  0  0  0  0  0  0  0  0  0
   15.1764  -25.3510   -7.1291 C   0  0  2  0  0  0  0  0  0  0  0  0
   17.4271  -25.3408   -6.5556 N   0  0  0  0  0  0  0  0  0  0  0  0
   17.5601  -25.8220   -7.9505 C   0  0  0  0  0  0  0  0  0  0  0  0
   17.3061  -26.5362   -5.6536 O   0  0  0  0  0  0  0  0  0  0  0  0
   16.9024  -27.5944   -6.1646 C   0  0  0  0  0  0  0  0  0  0  0  0
   19.3032  -26.3728   -1.7918 C   0  0  2  0  0  0  0  0  0  0  0  0
   18.9954  -27.5973   -2.6402 O   0  0  0  0  0  0  0  0  0  0  0  0
   18.9761  -28.6820   -1.7373 C   0  0  1  0  0  0  0  0  0  0  0  0
   17.6447  -27.4660   -3.2907 N   0  0  0  0  0  0  0  0  0  0  0  0
   17.6349  -26.4594   -4.3012 C   0  0  0  0  0  0  0  0  0  0  0  0
   16.5213  -27.5195   -2.3561 O   0  0  0  0  0  0  0  0  0  0  0  0
   16.1119  -28.6608   -1.7276 O   0  0  0  0  0  0  0  0  0  0  0  0
  1  2  1  0
  2  3  2  0
  4  2  1  0
  4  5  1  0
  5  6  1  0
  7  6  1  0
  8  7  1  0
  8  9  1  6
 10  8  1  0
 11 10  2  0
 13 12  1  1
 13 15  1  0
 14 13  1  0
 15 16  1  1
 16 10  1  0
 17 23  1  0
 17 15  1  0
 18 17  2  0
 20 19  1  6
 20 22  1  0
 21 20  1  0
 22 24  1  0
 22 23  1  6
 24 25  1  0
 26 24  2  0
M  END
$$$$
