RTT.pdb
     RDKit          3D

 26 25  0  0  1  0  0  0  0  0999 V2000
   10.2399   -7.5489   -5.6653 N   0  0  0  0  0  0  0  0  0  0  0  0
   11.2571   -6.7759   -4.9713 C   0  0  0  0  0  0  0  0  0  0  0  0
   10.9499   -6.1133   -3.9284 N   0  0  0  0  0  0  0  0  0  0  0  0
   12.5850   -6.7467   -5.4371 N   0  0  0  0  0  0  0  0  0  0  0  0
   13.0237   -7.1441   -6.7083 C   0  0  0  0  0  0  0  0  0  0  0  0
   14.4391   -6.9760   -7.1055 C   0  0  0  0  0  0  0  0  0  0  0  0
   14.7204   -7.3893   -8.5364 C   0  0  0  0  0  0  0  0  0  0  0  0
   15.3889   -6.2164   -9.2505 C   0  0  2  0  0  0  0  0  0  0  0  0
   14.6218   -5.0151   -9.0901 N   0  0  0  0  0  0  0  0  0  0  0  0
   15.6879   -6.5239  -10.6640 C   0  0  0  0  0  0  0  0  0  0  0  0
   14.7209   -6.5151  -11.4938 O   0  0  0  0  0  0  0  0  0  0  0  0
   11.6035   -5.5905   -3.3651 C   0  0  0  0  0  0  0  0  0  0  0  0
   15.4243   -5.2479  -13.0752 C   0  0  2  0  0  0  0  0  0  0  0  0
   16.8762   -5.5829  -13.1660 O   0  0  0  0  0  0  0  0  0  0  0  0
   17.5470   -4.6492  -12.3270 C   0  0  2  0  0  0  0  0  0  0  0  0
   17.2598   -6.9363  -12.6117 N   0  0  0  0  0  0  0  0  0  0  0  0
   16.9776   -6.8282  -11.1613 C   0  0  0  0  0  0  0  0  0  0  0  0
   18.7216   -7.2359  -12.7868 O   0  0  0  0  0  0  0  0  0  0  0  0
   19.4807   -6.9242  -11.8537 C   0  0  0  0  0  0  0  0  0  0  0  0
   21.9178   -9.9020  -15.4970 C   0  0  2  0  0  0  0  0  0  0  0  0
   20.5447   -9.2553  -15.3967 O   0  0  0  0  0  0  0  0  0  0  0  0
   19.6650  -10.2999  -15.0406 C   0  0  1  0  0  0  0  0  0  0  0  0
   20.5311   -8.2034  -14.3205 N   0  0  0  0  0  0  0  0  0  0  0  0
   19.2035   -7.8393  -13.9473 C   0  0  0  0  0  0  0  0  0  0  0  0
   21.5135   -7.1373  -14.5116 O   0  0  0  0  0  0  0  0  0  0  0  0
   22.8012   -7.2035  -14.0616 O   0  0  0  0  0  0  0  0  0  0  0  0
  1  2  1  0
  2  3  2  0
  4  2  1  0
  4  5  1  0
  5  6  1  0
  7  6  1  0
  8  7  1  0
  8  9  1  6
 10  8  1  0
 11 10  2  0
 13 12  1  6
 13 15  1  0
 14 13  1  0
 15 16  1  6
 16 10  1  0
 17 23  1  0
 17 15  1  0
 18 17  2  0
 20 19  1  6
 20 22  1  0
 21 20  1  0
 22 24  1  0
 22 23  1  6
 24 25  1  0
 26 24  2  0
M  END
$$$$
