RTT.pdb
     RDKit          3D

 26 25  0  0  1  0  0  0  0  0999 V2000
   25.7440  -20.8870  -10.9052 N   0  0  0  0  0  0  0  0  0  0  0  0
   26.9842  -21.1216  -11.6267 C   0  0  0  0  0  0  0  0  0  0  0  0
   27.6288  -22.2047  -11.4466 N   0  0  0  0  0  0  0  0  0  0  0  0
   27.4884  -20.1640  -12.5267 N   0  0  0  0  0  0  0  0  0  0  0  0
   26.8767  -18.9498  -12.8698 C   0  0  0  0  0  0  0  0  0  0  0  0
   25.9477  -18.8702  -14.0188 C   0  0  0  0  0  0  0  0  0  0  0  0
   25.4285  -17.4709  -14.2829 C   0  0  0  0  0  0  0  0  0  0  0  0
   24.4547  -17.5358  -15.4576 C   0  0  2  0  0  0  0  0  0  0  0  0
   24.7049  -18.6935  -16.2666 N   0  0  0  0  0  0  0  0  0  0  0  0
   24.4402  -16.2812  -16.2372 C   0  0  0  0  0  0  0  0  0  0  0  0
   25.2892  -16.1541  -17.1788 O   0  0  0  0  0  0  0  0  0  0  0  0
   28.5105  -22.4293  -11.8822 C   0  0  0  0  0  0  0  0  0  0  0  0
   22.4162  -15.1863  -18.6308 C   0  0  2  0  0  0  0  0  0  0  0  0
   22.4358  -14.0077  -17.7148 O   0  0  0  0  0  0  0  0  0  0  0  0
   21.3083  -14.1575  -16.8592 C   0  0  2  0  0  0  0  0  0  0  0  0
   23.6195  -13.9422  -16.7762 N   0  0  0  0  0  0  0  0  0  0  0  0
   23.5458  -15.2080  -16.0098 C   0  0  0  0  0  0  0  0  0  0  0  0
   23.5224  -12.7979  -15.8076 O   0  0  0  0  0  0  0  0  0  0  0  0
   22.8122  -12.9642  -14.8016 C   0  0  0  0  0  0  0  0  0  0  0  0
   26.7019  -10.6129  -15.0806 C   0  0  2  0  0  0  0  0  0  0  0  0
   25.5459   -9.6771  -15.3993 O   0  0  0  0  0  0  0  0  0  0  0  0
   25.7363   -9.2927  -16.7439 C   0  0  2  0  0  0  0  0  0  0  0  0
   24.2301  -10.3957  -15.2679 N   0  0  0  0  0  0  0  0  0  0  0  0
   24.2024  -11.6015  -16.0293 C   0  0  0  0  0  0  0  0  0  0  0  0
   23.0606   -9.5192  -15.3169 O   0  0  0  0  0  0  0  0  0  0  0  0
   22.8527   -8.4837  -14.4510 O   0  0  0  0  0  0  0  0  0  0  0  0
  1  2  1  0
  2  3  2  0
  4  2  1  0
  4  5  1  0
  5  6  1  0
  7  6  1  0
  8  7  1  0
  8  9  1  6
 10  8  1  0
 11 10  2  0
 13 12  1  6
 13 15  1  0
 14 13  1  0
 15 16  1  6
 16 10  1  0
 17 23  1  0
 17 15  1  0
 18 17  2  0
 20 19  1  1
 20 22  1  0
 21 20  1  0
 22 24  1  0
 22 23  1  1
 24 25  1  0
 26 24  2  0
M  END
$$$$
