RTT.pdb
     RDKit          3D

 26 25  0  0  1  0  0  0  0  0999 V2000
   18.4291  -22.8553  -15.3658 N   0  0  0  0  0  0  0  0  0  0  0  0
   18.3573  -23.0565  -13.9277 C   0  0  0  0  0  0  0  0  0  0  0  0
   17.7588  -24.0776  -13.4583 N   0  0  0  0  0  0  0  0  0  0  0  0
   18.9416  -22.1343  -13.0393 N   0  0  0  0  0  0  0  0  0  0  0  0
   19.5780  -20.9359  -13.3927 C   0  0  0  0  0  0  0  0  0  0  0  0
   20.7449  -20.9402  -14.3025 C   0  0  0  0  0  0  0  0  0  0  0  0
   22.0382  -20.5221  -13.6318 C   0  0  0  0  0  0  0  0  0  0  0  0
   23.1679  -20.6458  -14.6520 C   0  0  2  0  0  0  0  0  0  0  0  0
   23.8388  -21.9069  -14.5226 N   0  0  0  0  0  0  0  0  0  0  0  0
   24.0919  -19.4944  -14.6002 C   0  0  0  0  0  0  0  0  0  0  0  0
   25.0846  -19.5616  -13.8041 O   0  0  0  0  0  0  0  0  0  0  0  0
   17.6381  -24.2734  -12.4761 C   0  0  0  0  0  0  0  0  0  0  0  0
   26.6170  -19.2404  -15.3470 C   0  0  2  0  0  0  0  0  0  0  0  0
   26.1901  -17.9963  -16.0531 O   0  0  0  0  0  0  0  0  0  0  0  0
   25.7326  -18.4109  -17.3355 C   0  0  2  0  0  0  0  0  0  0  0  0
   25.0068  -17.2824  -15.4396 N   0  0  0  0  0  0  0  0  0  0  0  0
   23.9502  -18.3190  -15.3758 C   0  0  0  0  0  0  0  0  0  0  0  0
   24.5090  -16.1535  -16.2969 O   0  0  0  0  0  0  0  0  0  0  0  0
   23.7185  -16.4411  -17.2116 C   0  0  0  0  0  0  0  0  0  0  0  0
   23.8898  -12.6396  -14.4427 C   0  0  2  0  0  0  0  0  0  0  0  0
   24.6709  -12.4460  -15.7335 O   0  0  0  0  0  0  0  0  0  0  0  0
   26.0263  -12.3855  -15.3444 C   0  0  2  0  0  0  0  0  0  0  0  0
   24.4690  -13.6174  -16.6565 N   0  0  0  0  0  0  0  0  0  0  0  0
   24.9167  -14.8395  -16.0730 C   0  0  0  0  0  0  0  0  0  0  0  0
   24.8157  -13.3485  -18.0514 O   0  0  0  0  0  0  0  0  0  0  0  0
   24.2513  -12.3508  -18.7939 O   0  0  0  0  0  0  0  0  0  0  0  0
  1  2  1  0
  2  3  2  0
  4  2  1  0
  4  5  1  0
  5  6  1  0
  7  6  1  0
  8  7  1  0
  8  9  1  1
 10  8  1  0
 11 10  2  0
 13 12  1  6
 13 15  1  0
 14 13  1  0
 15 16  1  1
 16 10  1  0
 17 23  1  0
 17 15  1  0
 18 17  2  0
 20 19  1  1
 20 22  1  0
 21 20  1  0
 22 24  1  0
 22 23  1  6
 24 25  1  0
 26 24  2  0
M  END
$$$$
