RTT.pdb
     RDKit          3D

 26 25  0  0  1  0  0  0  0  0999 V2000
   25.4866  -20.5086   -8.9262 N   0  0  0  0  0  0  0  0  0  0  0  0
   24.6655  -20.8531  -10.0756 C   0  0  0  0  0  0  0  0  0  0  0  0
   23.4140  -21.0362   -9.9301 N   0  0  0  0  0  0  0  0  0  0  0  0
   25.2353  -20.9894  -11.3554 N   0  0  0  0  0  0  0  0  0  0  0  0
   26.5952  -20.8619  -11.6723 C   0  0  0  0  0  0  0  0  0  0  0  0
   27.0515  -20.9174  -13.0788 C   0  0  0  0  0  0  0  0  0  0  0  0
   26.4104  -22.0326  -13.8806 C   0  0  0  0  0  0  0  0  0  0  0  0
   26.2931  -21.5718  -15.3319 C   0  0  2  0  0  0  0  0  0  0  0  0
   27.5621  -21.1291  -15.8327 N   0  0  0  0  0  0  0  0  0  0  0  0
   25.2222  -20.5704  -15.5122 C   0  0  0  0  0  0  0  0  0  0  0  0
   25.5056  -19.5014  -16.1450 O   0  0  0  0  0  0  0  0  0  0  0  0
   22.7896  -21.3506  -10.6574 C   0  0  0  0  0  0  0  0  0  0  0  0
   23.8839  -19.9234  -17.6681 C   0  0  2  0  0  0  0  0  0  0  0  0
   22.6293  -19.9311  -16.8590 O   0  0  0  0  0  0  0  0  0  0  0  0
   22.0809  -21.2371  -16.9987 C   0  0  2  0  0  0  0  0  0  0  0  0
   22.8236  -19.7575  -15.3696 N   0  0  0  0  0  0  0  0  0  0  0  0
   23.8999  -20.7170  -15.0292 C   0  0  0  0  0  0  0  0  0  0  0  0
   21.5975  -20.1256  -14.5832 O   0  0  0  0  0  0  0  0  0  0  0  0
   21.4653  -21.3189  -14.2632 C   0  0  0  0  0  0  0  0  0  0  0  0
   20.0868  -17.2844  -12.1178 C   0  0  2  0  0  0  0  0  0  0  0  0
   18.9903  -17.9528  -12.9331 O   0  0  0  0  0  0  0  0  0  0  0  0
   18.7482  -17.0827  -14.0177 C   0  0  2  0  0  0  0  0  0  0  0  0
   19.4558  -19.2847  -13.4567 N   0  0  0  0  0  0  0  0  0  0  0  0
   20.6501  -19.1669  -14.2276 C   0  0  0  0  0  0  0  0  0  0  0  0
   18.3827  -20.1361  -13.9686 O   0  0  0  0  0  0  0  0  0  0  0  0
   17.2829  -20.4895  -13.2402 O   0  0  0  0  0  0  0  0  0  0  0  0
  1  2  1  0
  2  3  2  0
  4  2  1  0
  4  5  1  0
  5  6  1  0
  7  6  1  0
  8  7  1  0
  8  9  1  1
 10  8  1  0
 11 10  2  0
 13 12  1  6
 13 15  1  0
 14 13  1  0
 15 16  1  1
 16 10  1  0
 17 23  1  0
 17 15  1  0
 18 17  2  0
 20 19  1  1
 20 22  1  0
 21 20  1  0
 22 24  1  0
 22 23  1  1
 24 25  1  0
 26 24  2  0
M  END
$$$$
