RTT.pdb
     RDKit          3D

 26 25  0  0  1  0  0  0  0  0999 V2000
   31.2056  -24.9459  -16.1985 N   0  0  0  0  0  0  0  0  0  0  0  0
   31.1794  -24.9545  -17.6522 C   0  0  0  0  0  0  0  0  0  0  0  0
   31.9509  -25.7358  -18.2968 N   0  0  0  0  0  0  0  0  0  0  0  0
   30.3099  -24.1068  -18.3639 N   0  0  0  0  0  0  0  0  0  0  0  0
   29.1805  -23.4576  -17.8451 C   0  0  0  0  0  0  0  0  0  0  0  0
   28.1822  -24.2019  -17.0458 C   0  0  0  0  0  0  0  0  0  0  0  0
   26.9750  -23.3714  -16.6578 C   0  0  0  0  0  0  0  0  0  0  0  0
   26.0367  -24.2483  -15.8314 C   0  0  2  0  0  0  0  0  0  0  0  0
   26.2993  -25.6392  -16.0629 N   0  0  0  0  0  0  0  0  0  0  0  0
   24.6183  -23.8890  -16.0338 C   0  0  0  0  0  0  0  0  0  0  0  0
   23.9238  -24.6180  -16.8147 O   0  0  0  0  0  0  0  0  0  0  0  0
   31.9512  -25.8467  -19.2995 C   0  0  0  0  0  0  0  0  0  0  0  0
   22.4076  -25.0365  -15.4976 C   0  0  2  0  0  0  0  0  0  0  0  0
   21.8393  -23.7283  -15.0567 O   0  0  0  0  0  0  0  0  0  0  0  0
   22.0592  -23.6588  -13.6523 C   0  0  2  0  0  0  0  0  0  0  0  0
   22.5344  -22.5055  -15.6115 N   0  0  0  0  0  0  0  0  0  0  0  0
   23.9759  -22.7881  -15.4184 C   0  0  0  0  0  0  0  0  0  0  0  0
   22.1927  -21.2556  -14.8512 O   0  0  0  0  0  0  0  0  0  0  0  0
   22.7329  -21.0995  -13.7432 C   0  0  0  0  0  0  0  0  0  0  0  0
   22.5353  -17.8171  -16.1307 C   0  0  2  0  0  0  0  0  0  0  0  0
   21.0646  -17.9250  -15.7576 O   0  0  0  0  0  0  0  0  0  0  0  0
   20.3879  -18.1677  -16.9722 C   0  0  2  0  0  0  0  0  0  0  0  0
   20.8383  -19.0812  -14.8212 N   0  0  0  0  0  0  0  0  0  0  0  0
   21.3078  -20.3114  -15.3695 C   0  0  0  0  0  0  0  0  0  0  0  0
   19.5341  -19.0712  -14.1601 O   0  0  0  0  0  0  0  0  0  0  0  0
   19.0597  -18.0151  -13.4356 O   0  0  0  0  0  0  0  0  0  0  0  0
  1  2  1  0
  2  3  2  0
  4  2  1  0
  4  5  1  0
  5  6  1  0
  7  6  1  0
  8  7  1  0
  8  9  1  6
 10  8  1  0
 11 10  2  0
 13 12  1  1
 13 15  1  0
 14 13  1  0
 15 16  1  6
 16 10  1  0
 17 23  1  0
 17 15  1  0
 18 17  2  0
 20 19  1  6
 20 22  1  0
 21 20  1  0
 22 24  1  0
 22 23  1  1
 24 25  1  0
 26 24  2  0
M  END
$$$$
