WAS.pdb
     RDKit          3D

 26 27  0  0  1  0  0  0  0  0999 V2000
    5.8520  -17.3484   23.9123 N   0  0  0  0  0  0  0  0  0  0  0  0
    6.5700  -16.1237   23.6506 C   0  0  1  0  0  0  0  0  0  0  0  0
    7.5837  -15.7772   24.7265 C   0  0  0  0  0  0  0  0  0  0  0  0
    7.0643  -14.8752   25.7650 C   0  0  0  0  0  0  0  0  0  0  0  0
    6.2920  -15.2247   26.8496 C   0  0  0  0  0  0  0  0  0  0  0  0
    5.9848  -14.1353   27.5742 N   0  0  0  0  0  0  0  0  0  0  0  0
    6.5462  -13.0604   26.9830 C   0  0  0  0  0  0  0  0  0  0  0  0
    6.5100  -11.7317   27.3647 C   0  0  0  0  0  0  0  0  0  0  0  0
    7.1890  -10.8173   26.5681 C   0  0  0  0  0  0  0  0  0  0  0  0
    7.8659  -11.2426   25.4458 C   0  0  0  0  0  0  0  0  0  0  0  0
    7.8874  -12.5706   25.0862 C   0  0  0  0  0  0  0  0  0  0  0  0
    7.2203  -13.4915   25.8615 C   0  0  0  0  0  0  0  0  0  0  0  0
    7.2119  -16.2203   22.3298 C   0  0  0  0  0  0  0  0  0  0  0  0
    7.7875  -17.2919   22.0130 O   0  0  0  0  0  0  0  0  0  0  0  0
    8.0149  -13.8218   19.5867 C   0  0  0  0  0  0  0  0  0  0  0  0
    8.0376  -15.2033   20.2495 C   0  0  2  0  0  0  0  0  0  0  0  0
    7.1962  -15.1223   21.3939 N   0  0  0  0  0  0  0  0  0  0  0  0
    9.4418  -15.5521   20.5430 C   0  0  0  0  0  0  0  0  0  0  0  0
   10.1971  -14.9459   21.3268 O   0  0  0  0  0  0  0  0  0  0  0  0
   10.4142  -19.1471   19.3546 O   0  0  0  0  0  0  0  0  0  0  0  0
   11.3809  -18.5903   20.2009 C   0  0  0  0  0  0  0  0  0  0  0  0
   11.3914  -17.0631   20.0610 C   0  0  2  0  0  0  0  0  0  0  0  0
    9.9970  -16.6846   19.8748 N   0  0  0  0  0  0  0  0  0  0  0  0
   12.1900  -16.7462   18.8630 C   0  0  0  0  0  0  0  0  0  0  0  0
   13.5435  -16.9098   18.7612 O   0  0  0  0  0  0  0  0  0  0  0  0
   11.5696  -16.2857   17.8482 O   0  0  0  0  0  0  0  0  0  0  0  0
  2  1  1  1
  3  2  1  0
  3  4  1  0
  4 12  1  0
  5  4  2  0
  5  6  1  0
  6  7  1  0
  7  8  1  0
  8  9  2  0
 10  9  1  0
 11 10  2  0
 12  7  2  0
 12 11  1  0
 13  2  1  0
 13 14  2  0
 16 15  1  1
 16 18  1  0
 16 17  1  0
 17 13  1  0
 18 23  1  0
 19 18  2  0
 21 20  1  0
 22 21  1  6
 22 24  1  0
 23 22  1  0
 24 26  2  0
 24 25  1  0
M  END
$$$$
