WAS.pdb
     RDKit          3D

 26 27  0  0  1  0  0  0  0  0999 V2000
    6.7678  -18.3908   24.2763 N   0  0  0  0  0  0  0  0  0  0  0  0
    6.8873  -16.9641   24.0917 C   0  0  1  0  0  0  0  0  0  0  0  0
    7.6547  -16.2741   25.2054 C   0  0  0  0  0  0  0  0  0  0  0  0
    6.9077  -15.1897   25.8595 C   0  0  0  0  0  0  0  0  0  0  0  0
    5.6756  -15.2863   26.4659 C   0  0  0  0  0  0  0  0  0  0  0  0
    5.2921  -14.0877   26.9372 N   0  0  0  0  0  0  0  0  0  0  0  0
    6.2583  -13.1905   26.6513 C   0  0  0  0  0  0  0  0  0  0  0  0
    6.3127  -11.8392   26.9404 C   0  0  0  0  0  0  0  0  0  0  0  0
    7.4431  -11.1414   26.5317 C   0  0  0  0  0  0  0  0  0  0  0  0
    8.4582  -11.7932   25.8657 C   0  0  0  0  0  0  0  0  0  0  0  0
    8.3810  -13.1389   25.5893 C   0  0  0  0  0  0  0  0  0  0  0  0
    7.2694  -13.8474   25.9849 C   0  0  0  0  0  0  0  0  0  0  0  0
    7.5056  -16.7030   22.7820 C   0  0  0  0  0  0  0  0  0  0  0  0
    8.2326  -17.5900   22.2678 O   0  0  0  0  0  0  0  0  0  0  0  0
    7.4987  -13.9207   20.2840 C   0  0  0  0  0  0  0  0  0  0  0  0
    7.8560  -15.3278   20.7745 C   0  0  2  0  0  0  0  0  0  0  0  0
    7.2983  -15.4615   22.0766 N   0  0  0  0  0  0  0  0  0  0  0  0
    9.3235  -15.4788   20.7164 C   0  0  0  0  0  0  0  0  0  0  0  0
   10.0182  -15.4756   19.6823 O   0  0  0  0  0  0  0  0  0  0  0  0
   13.2338  -15.8678   23.6213 O   0  0  0  0  0  0  0  0  0  0  0  0
   11.8567  -15.6708   23.4622 C   0  0  0  0  0  0  0  0  0  0  0  0
   11.4704  -15.7976   21.9834 C   0  0  2  0  0  0  0  0  0  0  0  0
   10.0221  -15.6445   21.9501 N   0  0  0  0  0  0  0  0  0  0  0  0
   11.8697  -17.1484   21.5487 C   0  0  0  0  0  0  0  0  0  0  0  0
   13.0739  -17.4624   20.9826 O   0  0  0  0  0  0  0  0  0  0  0  0
   11.0274  -18.0919   21.7142 O   0  0  0  0  0  0  0  0  0  0  0  0
  2  1  1  1
  3  2  1  0
  3  4  1  0
  4 12  1  0
  5  4  2  0
  5  6  1  0
  6  7  1  0
  7  8  1  0
  8  9  2  0
 10  9  1  0
 11 10  2  0
 12  7  2  0
 12 11  1  0
 13  2  1  0
 13 14  2  0
 16 15  1  1
 16 18  1  0
 16 17  1  0
 17 13  1  0
 18 23  1  0
 19 18  2  0
 21 20  1  0
 22 21  1  1
 22 24  1  0
 23 22  1  0
 24 26  2  0
 24 25  1  0
M  END
$$$$
