WAS.pdb
     RDKit          3D

 26 27  0  0  1  0  0  0  0  0999 V2000
    6.3806  -17.4691   23.8090 N   0  0  0  0  0  0  0  0  0  0  0  0
    7.3833  -16.4512   23.6033 C   0  0  1  0  0  0  0  0  0  0  0  0
    8.0358  -15.9785   24.8902 C   0  0  0  0  0  0  0  0  0  0  0  0
    7.2274  -15.0108   25.6466 C   0  0  0  0  0  0  0  0  0  0  0  0
    6.1647  -15.2931   26.4748 C   0  0  0  0  0  0  0  0  0  0  0  0
    5.6532  -14.1581   26.9809 N   0  0  0  0  0  0  0  0  0  0  0  0
    6.3658  -13.1193   26.4981 C   0  0  0  0  0  0  0  0  0  0  0  0
    6.2156  -11.7659   26.7396 C   0  0  0  0  0  0  0  0  0  0  0  0
    7.1023  -10.9002   26.1103 C   0  0  0  0  0  0  0  0  0  0  0  0
    8.0858  -11.3955   25.2819 C   0  0  0  0  0  0  0  0  0  0  0  0
    8.2152  -12.7467   25.0568 C   0  0  0  0  0  0  0  0  0  0  0  0
    7.3464  -13.6203   25.6701 C   0  0  0  0  0  0  0  0  0  0  0  0
    8.3885  -16.9570   22.6548 C   0  0  0  0  0  0  0  0  0  0  0  0
    8.9145  -18.0780   22.8703 O   0  0  0  0  0  0  0  0  0  0  0  0
   10.0837  -15.6860   19.5745 C   0  0  0  0  0  0  0  0  0  0  0  0
    9.8389  -16.7134   20.6848 C   0  0  2  0  0  0  0  0  0  0  0  0
    8.7823  -16.2030   21.4893 N   0  0  0  0  0  0  0  0  0  0  0  0
   11.1101  -16.9281   21.4044 C   0  0  0  0  0  0  0  0  0  0  0  0
   11.5938  -16.1778   22.2734 O   0  0  0  0  0  0  0  0  0  0  0  0
   13.1183  -20.0777   20.0105 O   0  0  0  0  0  0  0  0  0  0  0  0
   13.5194  -19.7873   21.3203 C   0  0  0  0  0  0  0  0  0  0  0  0
   13.1764  -18.3339   21.6698 C   0  0  2  0  0  0  0  0  0  0  0  0
   11.8633  -18.0977   21.0847 N   0  0  0  0  0  0  0  0  0  0  0  0
   14.1997  -17.4852   21.0329 C   0  0  0  0  0  0  0  0  0  0  0  0
   15.4763  -17.3221   21.4942 O   0  0  0  0  0  0  0  0  0  0  0  0
   13.8666  -16.8581   19.9733 O   0  0  0  0  0  0  0  0  0  0  0  0
  2  1  1  1
  3  2  1  0
  3  4  1  0
  4 12  1  0
  5  4  2  0
  5  6  1  0
  6  7  1  0
  7  8  1  0
  8  9  2  0
 10  9  1  0
 11 10  2  0
 12  7  2  0
 12 11  1  0
 13  2  1  0
 13 14  2  0
 16 15  1  6
 16 18  1  0
 16 17  1  0
 17 13  1  0
 18 23  1  0
 19 18  2  0
 21 20  1  0
 22 21  1  6
 22 24  1  0
 23 22  1  0
 24 26  2  0
 24 25  1  0
M  END
$$$$
