WAS.pdb
     RDKit          3D

 26 27  0  0  1  0  0  0  0  0999 V2000
    6.5500  -18.1438   24.7363 N   0  0  0  0  0  0  0  0  0  0  0  0
    7.1809  -16.9812   24.1581 C   0  0  1  0  0  0  0  0  0  0  0  0
    7.9821  -16.1689   25.1600 C   0  0  0  0  0  0  0  0  0  0  0  0
    7.2195  -15.0809   25.7895 C   0  0  0  0  0  0  0  0  0  0  0  0
    6.1287  -15.2112   26.6191 C   0  0  0  0  0  0  0  0  0  0  0  0
    5.6761  -14.0010   26.9886 N   0  0  0  0  0  0  0  0  0  0  0  0
    6.4560  -13.0625   26.4131 C   0  0  0  0  0  0  0  0  0  0  0  0
    6.3812  -11.6846   26.5043 C   0  0  0  0  0  0  0  0  0  0  0  0
    7.3272  -10.9437   25.8057 C   0  0  0  0  0  0  0  0  0  0  0  0
    8.2934  -11.5806   25.0577 C   0  0  0  0  0  0  0  0  0  0  0  0
    8.3474  -12.9534   24.9822 C   0  0  0  0  0  0  0  0  0  0  0  0
    7.4190  -13.7049   25.6661 C   0  0  0  0  0  0  0  0  0  0  0  0
    8.0223  -17.4076   23.0285 C   0  0  0  0  0  0  0  0  0  0  0  0
    8.7930  -18.3883   23.1837 O   0  0  0  0  0  0  0  0  0  0  0  0
    8.5490  -16.3535   19.4813 C   0  0  0  0  0  0  0  0  0  0  0  0
    8.8818  -17.1647   20.7381 C   0  0  2  0  0  0  0  0  0  0  0  0
    7.9840  -16.7327   21.7538 N   0  0  0  0  0  0  0  0  0  0  0  0
   10.3097  -16.9628   21.0539 C   0  0  0  0  0  0  0  0  0  0  0  0
   10.8437  -15.8811   21.3651 O   0  0  0  0  0  0  0  0  0  0  0  0
   12.3680  -20.3597   20.9761 O   0  0  0  0  0  0  0  0  0  0  0  0
   13.0856  -19.3555   21.6375 C   0  0  0  0  0  0  0  0  0  0  0  0
   12.6079  -17.9724   21.1780 C   0  0  2  0  0  0  0  0  0  0  0  0
   11.1677  -18.1024   21.0015 N   0  0  0  0  0  0  0  0  0  0  0  0
   13.2749  -17.6917   19.8936 C   0  0  0  0  0  0  0  0  0  0  0  0
   14.5932  -17.3569   19.7553 O   0  0  0  0  0  0  0  0  0  0  0  0
   12.5673  -17.7676   18.8351 O   0  0  0  0  0  0  0  0  0  0  0  0
  2  1  1  1
  3  2  1  0
  3  4  1  0
  4 12  1  0
  5  4  2  0
  5  6  1  0
  6  7  1  0
  7  8  1  0
  8  9  2  0
 10  9  1  0
 11 10  2  0
 12  7  2  0
 12 11  1  0
 13  2  1  0
 13 14  2  0
 16 15  1  6
 16 18  1  0
 16 17  1  0
 17 13  1  0
 18 23  1  0
 19 18  2  0
 21 20  1  0
 22 21  1  6
 22 24  1  0
 23 22  1  0
 24 26  2  0
 24 25  1  0
M  END
$$$$
