WAS.pdb
     RDKit          3D

 26 27  0  0  1  0  0  0  0  0999 V2000
    8.0399  -16.6424   23.6222 N   0  0  0  0  0  0  0  0  0  0  0  0
    9.2036  -16.4700   24.4589 C   0  0  1  0  0  0  0  0  0  0  0  0
    8.8655  -16.1335   25.9003 C   0  0  0  0  0  0  0  0  0  0  0  0
    7.6725  -15.2872   26.0496 C   0  0  0  0  0  0  0  0  0  0  0  0
    6.3660  -15.7120   26.1378 C   0  0  0  0  0  0  0  0  0  0  0  0
    5.5389  -14.6582   26.2452 N   0  0  0  0  0  0  0  0  0  0  0  0
    6.2820  -13.5323   26.2301 C   0  0  0  0  0  0  0  0  0  0  0  0
    5.8762  -12.2133   26.3194 C   0  0  0  0  0  0  0  0  0  0  0  0
    6.8633  -11.2353   26.2850 C   0  0  0  0  0  0  0  0  0  0  0  0
    8.1891  -11.5912   26.1663 C   0  0  0  0  0  0  0  0  0  0  0  0
    8.5684  -12.9110   26.0790 C   0  0  0  0  0  0  0  0  0  0  0  0
    7.6059  -13.8943   26.1103 C   0  0  0  0  0  0  0  0  0  0  0  0
   10.0323  -17.6835   24.3789 C   0  0  0  0  0  0  0  0  0  0  0  0
   10.9868  -17.8194   25.1853 O   0  0  0  0  0  0  0  0  0  0  0  0
    9.9793  -20.9524   22.6384 C   0  0  0  0  0  0  0  0  0  0  0  0
   10.7178  -19.7775   23.2884 C   0  0  2  0  0  0  0  0  0  0  0  0
    9.7773  -18.7162   23.4040 N   0  0  0  0  0  0  0  0  0  0  0  0
   11.9013  -19.4623   22.4640 C   0  0  0  0  0  0  0  0  0  0  0  0
   12.8386  -20.2405   22.2031 O   0  0  0  0  0  0  0  0  0  0  0  0
   11.3899  -16.1407   20.6990 O   0  0  0  0  0  0  0  0  0  0  0  0
   12.6296  -16.5923   20.2302 C   0  0  0  0  0  0  0  0  0  0  0  0
   13.1354  -17.7500   21.0997 C   0  0  2  0  0  0  0  0  0  0  0  0
   11.9924  -18.1503   21.9094 N   0  0  0  0  0  0  0  0  0  0  0  0
   14.2189  -17.2133   21.9430 C   0  0  0  0  0  0  0  0  0  0  0  0
   15.4461  -16.8236   21.4832 O   0  0  0  0  0  0  0  0  0  0  0  0
   13.9918  -17.1056   23.1936 O   0  0  0  0  0  0  0  0  0  0  0  0
  2  1  1  6
  3  2  1  0
  3  4  1  0
  4 12  1  0
  5  4  2  0
  5  6  1  0
  6  7  1  0
  7  8  1  0
  8  9  2  0
 10  9  1  0
 11 10  2  0
 12  7  2  0
 12 11  1  0
 13  2  1  0
 13 14  2  0
 16 15  1  6
 16 18  1  0
 16 17  1  0
 17 13  1  0
 18 23  1  0
 19 18  2  0
 21 20  1  0
 22 21  1  6
 22 24  1  0
 23 22  1  0
 24 26  2  0
 24 25  1  0
M  END
$$$$
