WAS.pdb
     RDKit          3D

 26 27  0  0  1  0  0  0  0  0999 V2000
    7.0543  -17.1458   22.8776 N   0  0  0  0  0  0  0  0  0  0  0  0
    7.2419  -15.7292   22.6724 C   0  0  1  0  0  0  0  0  0  0  0  0
    8.2627  -15.1135   23.6126 C   0  0  0  0  0  0  0  0  0  0  0  0
    7.7233  -14.7760   24.9381 C   0  0  0  0  0  0  0  0  0  0  0  0
    7.4282  -15.6543   25.9562 C   0  0  0  0  0  0  0  0  0  0  0  0
    6.9324  -14.9917   27.0151 N   0  0  0  0  0  0  0  0  0  0  0  0
    6.8942  -13.6773   26.7132 C   0  0  0  0  0  0  0  0  0  0  0  0
    6.4684  -12.6127   27.4863 C   0  0  0  0  0  0  0  0  0  0  0  0
    6.5438  -11.3431   26.9259 C   0  0  0  0  0  0  0  0  0  0  0  0
    7.0284  -11.1766   25.6468 C   0  0  0  0  0  0  0  0  0  0  0  0
    7.4463  -12.2519   24.8967 C   0  0  0  0  0  0  0  0  0  0  0  0
    7.3788  -13.5174   25.4335 C   0  0  0  0  0  0  0  0  0  0  0  0
    7.6085  -15.4956   21.2664 C   0  0  0  0  0  0  0  0  0  0  0  0
    7.7051  -16.4823   20.4937 O   0  0  0  0  0  0  0  0  0  0  0  0
    7.9074  -12.5244   19.0467 C   0  0  0  0  0  0  0  0  0  0  0  0
    8.0630  -14.0173   19.3555 C   0  0  2  0  0  0  0  0  0  0  0  0
    7.8571  -14.1695   20.7550 N   0  0  0  0  0  0  0  0  0  0  0  0
    9.3912  -14.4518   18.8791 C   0  0  0  0  0  0  0  0  0  0  0  0
    9.7539  -14.5223   17.6894 O   0  0  0  0  0  0  0  0  0  0  0  0
   12.9808  -13.4636   19.2884 O   0  0  0  0  0  0  0  0  0  0  0  0
   12.7058  -14.5613   20.1131 C   0  0  0  0  0  0  0  0  0  0  0  0
   11.6218  -15.4420   19.4793 C   0  0  2  0  0  0  0  0  0  0  0  0
   10.3567  -14.8284   19.8606 N   0  0  0  0  0  0  0  0  0  0  0  0
   11.7579  -16.7851   20.0716 C   0  0  0  0  0  0  0  0  0  0  0  0
   12.7986  -17.6401   19.8367 O   0  0  0  0  0  0  0  0  0  0  0  0
   10.8353  -17.1754   20.8610 O   0  0  0  0  0  0  0  0  0  0  0  0
  2  1  1  6
  3  2  1  0
  3  4  1  0
  4 12  1  0
  5  4  2  0
  5  6  1  0
  6  7  1  0
  7  8  1  0
  8  9  2  0
 10  9  1  0
 11 10  2  0
 12  7  2  0
 12 11  1  0
 13  2  1  0
 13 14  2  0
 16 15  1  1
 16 18  1  0
 16 17  1  0
 17 13  1  0
 18 23  1  0
 19 18  2  0
 21 20  1  0
 22 21  1  1
 22 24  1  0
 23 22  1  0
 24 26  2  0
 24 25  1  0
M  END
$$$$
