NLA.pdb
     RDKit          3D

 22 21  0  0  1  0  0  0  0  0999 V2000
    7.0418  -12.8320   18.8784 N   0  0  0  0  0  0  0  0  0  0  0  0
    7.9251  -13.7408   19.5063 C   0  0  0  0  0  0  0  0  0  0  0  0
    8.3120  -14.7579   18.8447 O   0  0  0  0  0  0  0  0  0  0  0  0
    8.4213  -13.5793   20.8745 C   0  0  0  0  0  0  0  0  0  0  0  0
    8.3972  -14.8593   21.6792 C   0  0  2  0  0  0  0  0  0  0  0  0
    7.0536  -15.3666   21.7392 N   0  0  0  0  0  0  0  0  0  0  0  0
    8.9155  -14.6896   23.0496 C   0  0  0  0  0  0  0  0  0  0  0  0
   10.0807  -14.2715   23.2117 O   0  0  0  0  0  0  0  0  0  0  0  0
    7.6952  -11.7488   25.7890 C   0  0  0  0  0  0  0  0  0  0  0  0
    6.7451  -12.9213   25.6905 C   0  0  2  0  0  0  0  0  0  0  0  0
    5.5143  -12.5667   26.5325 C   0  0  0  0  0  0  0  0  0  0  0  0
    7.3437  -14.1677   26.3058 C   0  0  0  0  0  0  0  0  0  0  0  0
    8.5071  -14.7132   25.5364 C   0  0  2  0  0  0  0  0  0  0  0  0
    8.1080  -14.9949   24.1742 N   0  0  0  0  0  0  0  0  0  0  0  0
    8.9763  -15.9450   26.2170 C   0  0  0  0  0  0  0  0  0  0  0  0
    9.1304  -16.0309   27.4692 O   0  0  0  0  0  0  0  0  0  0  0  0
    9.3274  -19.4709   25.1384 C   0  0  0  0  0  0  0  0  0  0  0  0
    9.7275  -18.3329   26.0632 C   0  0  2  0  0  0  0  0  0  0  0  0
    9.2757  -17.1017   25.4545 N   0  0  0  0  0  0  0  0  0  0  0  0
   11.2245  -18.2972   26.1248 C   0  0  0  0  0  0  0  0  0  0  0  0
   11.9704  -19.2709   26.7681 O   0  0  0  0  0  0  0  0  0  0  0  0
   11.8232  -17.3440   25.5682 O   0  0  0  0  0  0  0  0  0  0  0  0
  1  2  1  0
  2  4  1  0
  3  2  2  0
  4  5  1  0
  5  6  1  1
  7  5  1  0
  7  8  2  0
 10  9  1  1
 10 12  1  0
 11 10  1  0
 13 12  1  1
 13 14  1  0
 14  7  1  0
 15 13  1  0
 16 15  2  0
 18 19  1  0
 18 17  1  6
 19 15  1  0
 20 18  1  0
 21 20  1  0
 22 20  2  0
M  END
$$$$
