NLA.pdb
     RDKit          3D

 22 21  0  0  1  0  0  0  0  0999 V2000
   10.3560  -16.1350   14.6330 N   0  0  0  0  0  0  0  0  0  0  0  0
   11.6159  -16.2738   15.2606 C   0  0  0  0  0  0  0  0  0  0  0  0
   12.4280  -17.1370   14.7946 O   0  0  0  0  0  0  0  0  0  0  0  0
   12.0409  -15.4812   16.4162 C   0  0  0  0  0  0  0  0  0  0  0  0
   11.8958  -16.2100   17.7330 C   0  0  2  0  0  0  0  0  0  0  0  0
   10.8625  -17.2032   17.6238 N   0  0  0  0  0  0  0  0  0  0  0  0
   11.5891  -15.3099   18.8604 C   0  0  0  0  0  0  0  0  0  0  0  0
   12.4545  -14.4939   19.2400 O   0  0  0  0  0  0  0  0  0  0  0  0
    8.8933  -11.9408   19.4728 C   0  0  0  0  0  0  0  0  0  0  0  0
    8.2433  -13.3043   19.3970 C   0  0  2  0  0  0  0  0  0  0  0  0
    6.7280  -13.0752   19.4207 C   0  0  0  0  0  0  0  0  0  0  0  0
    8.5721  -14.1390   20.6157 C   0  0  0  0  0  0  0  0  0  0  0  0
   10.0056  -14.5688   20.6756 C   0  0  2  0  0  0  0  0  0  0  0  0
   10.3304  -15.3635   19.5107 N   0  0  0  0  0  0  0  0  0  0  0  0
   10.2041  -15.3487   21.9218 C   0  0  0  0  0  0  0  0  0  0  0  0
    9.9804  -14.8826   23.0758 O   0  0  0  0  0  0  0  0  0  0  0  0
   10.7507  -18.9569   22.5945 C   0  0  0  0  0  0  0  0  0  0  0  0
   10.8525  -17.5038   23.0285 C   0  0  2  0  0  0  0  0  0  0  0  0
   10.6668  -16.6865   21.8504 N   0  0  0  0  0  0  0  0  0  0  0  0
   12.2432  -17.2738   23.5374 C   0  0  0  0  0  0  0  0  0  0  0  0
   12.7145  -17.8413   24.7097 O   0  0  0  0  0  0  0  0  0  0  0  0
   13.0097  -16.5363   22.8701 O   0  0  0  0  0  0  0  0  0  0  0  0
  1  2  1  0
  2  4  1  0
  3  2  2  0
  4  5  1  0
  5  6  1  6
  7  5  1  0
  7  8  2  0
 10  9  1  1
 10 12  1  0
 11 10  1  0
 13 12  1  6
 13 14  1  0
 14  7  1  0
 15 13  1  0
 16 15  2  0
 18 19  1  0
 18 17  1  6
 19 15  1  0
 20 18  1  0
 21 20  1  0
 22 20  2  0
M  END
$$$$
