NLA.pdb
     RDKit          3D

 22 21  0  0  1  0  0  0  0  0999 V2000
    9.0461  -16.1793   18.5452 N   0  0  0  0  0  0  0  0  0  0  0  0
    8.1149  -15.8533   19.5586 C   0  0  0  0  0  0  0  0  0  0  0  0
    6.8927  -16.1598   19.3735 O   0  0  0  0  0  0  0  0  0  0  0  0
    8.4753  -15.1833   20.8097 C   0  0  0  0  0  0  0  0  0  0  0  0
    8.3765  -16.0797   22.0235 C   0  0  2  0  0  0  0  0  0  0  0  0
    7.0060  -16.4587   22.2335 N   0  0  0  0  0  0  0  0  0  0  0  0
    8.9016  -15.4509   23.2499 C   0  0  0  0  0  0  0  0  0  0  0  0
   10.0786  -15.0348   23.2641 O   0  0  0  0  0  0  0  0  0  0  0  0
    7.9532  -11.7184   25.3404 C   0  0  0  0  0  0  0  0  0  0  0  0
    6.9339  -12.8298   25.4558 C   0  0  2  0  0  0  0  0  0  0  0  0
    5.7282  -12.2497   26.2036 C   0  0  0  0  0  0  0  0  0  0  0  0
    7.4572  -13.9707   26.3011 C   0  0  0  0  0  0  0  0  0  0  0  0
    8.5598  -14.7429   25.6444 C   0  0  2  0  0  0  0  0  0  0  0  0
    8.0873  -15.3165   24.4027 N   0  0  0  0  0  0  0  0  0  0  0  0
    9.0061  -15.8022   26.5821 C   0  0  0  0  0  0  0  0  0  0  0  0
    9.3342  -15.5746   27.7819 O   0  0  0  0  0  0  0  0  0  0  0  0
    8.6982  -19.4439   26.6886 C   0  0  0  0  0  0  0  0  0  0  0  0
    9.5391  -18.2168   27.0009 C   0  0  2  0  0  0  0  0  0  0  0  0
    9.0795  -17.1478   26.1428 N   0  0  0  0  0  0  0  0  0  0  0  0
   10.9582  -18.5282   26.6337 C   0  0  0  0  0  0  0  0  0  0  0  0
   11.7427  -19.4097   27.3589 O   0  0  0  0  0  0  0  0  0  0  0  0
   11.4523  -17.9653   25.6258 O   0  0  0  0  0  0  0  0  0  0  0  0
  1  2  1  0
  2  4  1  0
  3  2  2  0
  4  5  1  0
  5  6  1  1
  7  5  1  0
  7  8  2  0
 10  9  1  1
 10 12  1  0
 11 10  1  0
 13 12  1  1
 13 14  1  0
 14  7  1  0
 15 13  1  0
 16 15  2  0
 18 19  1  0
 18 17  1  6
 19 15  1  0
 20 18  1  0
 21 20  1  0
 22 20  2  0
M  END
$$$$
