NLA.pdb
     RDKit          3D

 22 21  0  0  1  0  0  0  0  0999 V2000
    8.5089  -17.0123   19.3599 N   0  0  0  0  0  0  0  0  0  0  0  0
    8.7419  -15.6295   19.5446 C   0  0  0  0  0  0  0  0  0  0  0  0
    8.8117  -14.8881   18.5115 O   0  0  0  0  0  0  0  0  0  0  0  0
    8.9073  -15.0004   20.8566 C   0  0  0  0  0  0  0  0  0  0  0  0
    8.7842  -15.9706   22.0098 C   0  0  2  0  0  0  0  0  0  0  0  0
    7.4479  -16.4979   22.0567 N   0  0  0  0  0  0  0  0  0  0  0  0
    9.1144  -15.3636   23.3128 C   0  0  0  0  0  0  0  0  0  0  0  0
   10.2515  -14.8784   23.4871 O   0  0  0  0  0  0  0  0  0  0  0  0
    7.8301  -11.8408   25.6244 C   0  0  0  0  0  0  0  0  0  0  0  0
    6.8015  -12.9446   25.5195 C   0  0  2  0  0  0  0  0  0  0  0  0
    5.5343  -12.4376   26.2170 C   0  0  0  0  0  0  0  0  0  0  0  0
    7.2426  -14.1810   26.2725 C   0  0  0  0  0  0  0  0  0  0  0  0
    8.4566  -14.8345   25.6875 C   0  0  2  0  0  0  0  0  0  0  0  0
    8.1590  -15.3270   24.3597 N   0  0  0  0  0  0  0  0  0  0  0  0
    8.8645  -15.9428   26.5852 C   0  0  0  0  0  0  0  0  0  0  0  0
    9.1010  -15.7871   27.8176 O   0  0  0  0  0  0  0  0  0  0  0  0
    8.9879  -19.6447   26.1180 C   0  0  0  0  0  0  0  0  0  0  0  0
    9.3153  -18.3886   26.9088 C   0  0  2  0  0  0  0  0  0  0  0  0
    9.0055  -17.2545   26.0671 N   0  0  0  0  0  0  0  0  0  0  0  0
   10.7911  -18.3827   27.1693 C   0  0  0  0  0  0  0  0  0  0  0  0
   11.3906  -19.2182   28.0972 O   0  0  0  0  0  0  0  0  0  0  0  0
   11.5103  -17.5867   26.5166 O   0  0  0  0  0  0  0  0  0  0  0  0
  1  2  1  0
  2  4  1  0
  3  2  2  0
  4  5  1  0
  5  6  1  1
  7  5  1  0
  7  8  2  0
 10  9  1  1
 10 12  1  0
 11 10  1  0
 13 12  1  1
 13 14  1  0
 14  7  1  0
 15 13  1  0
 16 15  2  0
 18 19  1  0
 18 17  1  6
 19 15  1  0
 20 18  1  0
 21 20  1  0
 22 20  2  0
M  END
$$$$
