NLA.pdb
     RDKit          3D

 22 21  0  0  1  0  0  0  0  0999 V2000
   -3.1784  -29.3116   26.3350 N   0  0  0  0  0  0  0  0  0  0  0  0
   -2.9283  -29.4215   27.7228 C   0  0  0  0  0  0  0  0  0  0  0  0
   -2.9461  -30.5820   28.2471 O   0  0  0  0  0  0  0  0  0  0  0  0
   -2.6494  -28.2768   28.5924 C   0  0  0  0  0  0  0  0  0  0  0  0
   -2.6300  -26.9542   27.8598 C   0  0  2  0  0  0  0  0  0  0  0  0
   -1.4602  -26.8802   27.0278 N   0  0  0  0  0  0  0  0  0  0  0  0
   -2.6572  -25.7914   28.7667 C   0  0  0  0  0  0  0  0  0  0  0  0
   -1.5841  -25.3652   29.2416 O   0  0  0  0  0  0  0  0  0  0  0  0
   -6.7152  -21.3506   30.3330 C   0  0  0  0  0  0  0  0  0  0  0  0
   -5.3622  -21.9943   30.5389 C   0  0  2  0  0  0  0  0  0  0  0  0
   -4.3130  -20.9822   30.0656 C   0  0  0  0  0  0  0  0  0  0  0  0
   -5.1993  -23.2224   29.6699 C   0  0  0  0  0  0  0  0  0  0  0  0
   -3.9688  -24.0165   29.9837 C   0  0  2  0  0  0  0  0  0  0  0  0
   -3.8817  -25.1593   29.1002 N   0  0  0  0  0  0  0  0  0  0  0  0
   -4.0439  -24.4467   31.4015 C   0  0  0  0  0  0  0  0  0  0  0  0
   -4.9366  -25.2248   31.8448 O   0  0  0  0  0  0  0  0  0  0  0  0
   -1.8657  -23.7705   34.3796 C   0  0  0  0  0  0  0  0  0  0  0  0
   -3.0891  -24.3856   33.7197 C   0  0  2  0  0  0  0  0  0  0  0  0
   -3.0817  -23.9803   32.3319 N   0  0  0  0  0  0  0  0  0  0  0  0
   -4.3047  -23.7960   34.3682 C   0  0  0  0  0  0  0  0  0  0  0  0
   -5.1616  -22.9325   33.7061 O   0  0  0  0  0  0  0  0  0  0  0  0
   -4.5533  -24.1007   35.5608 O   0  0  0  0  0  0  0  0  0  0  0  0
  1  2  1  0
  2  4  1  0
  3  2  2  0
  4  5  1  0
  5  6  1  1
  7  5  1  0
  7  8  2  0
 10  9  1  6
 10 12  1  0
 11 10  1  0
 13 12  1  6
 13 14  1  0
 14  7  1  0
 15 13  1  0
 16 15  2  0
 18 19  1  0
 18 17  1  1
 19 15  1  0
 20 18  1  0
 21 20  1  0
 22 20  2  0
M  END
$$$$
