NLA.pdb
     RDKit          3D

 22 21  0  0  1  0  0  0  0  0999 V2000
    8.1210  -16.1389   18.9967 N   0  0  0  0  0  0  0  0  0  0  0  0
    8.2520  -14.7871   19.3918 C   0  0  0  0  0  0  0  0  0  0  0  0
    8.0810  -13.8837   18.5106 O   0  0  0  0  0  0  0  0  0  0  0  0
    8.5731  -14.3660   20.7570 C   0  0  0  0  0  0  0  0  0  0  0  0
    8.7092  -15.5183   21.7267 C   0  0  2  0  0  0  0  0  0  0  0  0
    7.4559  -16.2148   21.8278 N   0  0  0  0  0  0  0  0  0  0  0  0
    9.1402  -15.0932   23.0716 C   0  0  0  0  0  0  0  0  0  0  0  0
   10.2938  -14.6415   23.2262 O   0  0  0  0  0  0  0  0  0  0  0  0
    8.0015  -11.8095   25.8629 C   0  0  0  0  0  0  0  0  0  0  0  0
    6.9929  -12.9132   25.6352 C   0  0  2  0  0  0  0  0  0  0  0  0
    5.7217  -12.5155   26.3937 C   0  0  0  0  0  0  0  0  0  0  0  0
    7.4624  -14.2202   26.2364 C   0  0  0  0  0  0  0  0  0  0  0  0
    8.6390  -14.8152   25.5259 C   0  0  2  0  0  0  0  0  0  0  0  0
    8.2624  -15.1926   24.1806 N   0  0  0  0  0  0  0  0  0  0  0  0
    9.0991  -15.9950   26.2986 C   0  0  0  0  0  0  0  0  0  0  0  0
    9.2781  -15.9787   27.5502 O   0  0  0  0  0  0  0  0  0  0  0  0
    9.5909  -19.5870   25.4114 C   0  0  0  0  0  0  0  0  0  0  0  0
    9.8194  -18.3971   26.3292 C   0  0  2  0  0  0  0  0  0  0  0  0
    9.3601  -17.2175   25.6305 N   0  0  0  0  0  0  0  0  0  0  0  0
   11.2962  -18.2619   26.5452 C   0  0  0  0  0  0  0  0  0  0  0  0
   12.0432  -17.2368   25.9889 O   0  0  0  0  0  0  0  0  0  0  0  0
   11.8762  -19.1149   27.2614 O   0  0  0  0  0  0  0  0  0  0  0  0
  1  2  1  0
  2  4  1  0
  3  2  2  0
  4  5  1  0
  5  6  1  1
  7  5  1  0
  7  8  2  0
 10  9  1  1
 10 12  1  0
 11 10  1  0
 13 12  1  1
 13 14  1  0
 14  7  1  0
 15 13  1  0
 16 15  2  0
 18 19  1  0
 18 17  1  6
 19 15  1  0
 20 18  1  0
 21 20  1  0
 22 20  2  0
M  END
$$$$
