NLA.pdb
     RDKit          3D

 22 21  0  0  1  0  0  0  0  0999 V2000
    9.7905  -16.2784   18.1718 N   0  0  0  0  0  0  0  0  0  0  0  0
   10.1139  -16.7892   19.4505 C   0  0  0  0  0  0  0  0  0  0  0  0
   10.3321  -18.0390   19.5612 O   0  0  0  0  0  0  0  0  0  0  0  0
   10.2127  -15.9631   20.6555 C   0  0  0  0  0  0  0  0  0  0  0  0
    9.4644  -16.5327   21.8396 C   0  0  2  0  0  0  0  0  0  0  0  0
    8.0973  -16.7819   21.4722 N   0  0  0  0  0  0  0  0  0  0  0  0
    9.4984  -15.6519   23.0221 C   0  0  0  0  0  0  0  0  0  0  0  0
   10.5952  -15.2037   23.4154 O   0  0  0  0  0  0  0  0  0  0  0  0
    5.4829  -12.4334   26.4855 C   0  0  0  0  0  0  0  0  0  0  0  0
    6.8895  -12.9584   26.3031 C   0  0  2  0  0  0  0  0  0  0  0  0
    7.8027  -11.7368   26.1519 C   0  0  0  0  0  0  0  0  0  0  0  0
    7.0180  -13.7538   25.0221 C   0  0  0  0  0  0  0  0  0  0  0  0
    8.2882  -14.5425   24.9343 C   0  0  2  0  0  0  0  0  0  0  0  0
    8.3056  -15.3131   23.7095 N   0  0  0  0  0  0  0  0  0  0  0  0
    8.3658  -15.4300   26.1204 C   0  0  0  0  0  0  0  0  0  0  0  0
    8.4969  -14.9998   27.3022 O   0  0  0  0  0  0  0  0  0  0  0  0
    7.7200  -19.0560   26.6329 C   0  0  0  0  0  0  0  0  0  0  0  0
    8.3601  -17.7497   27.0737 C   0  0  2  0  0  0  0  0  0  0  0  0
    8.2923  -16.8358   25.9554 N   0  0  0  0  0  0  0  0  0  0  0  0
    9.8052  -18.0220   27.3625 C   0  0  0  0  0  0  0  0  0  0  0  0
   10.8313  -17.5382   26.5678 O   0  0  0  0  0  0  0  0  0  0  0  0
   10.0933  -18.7171   28.3678 O   0  0  0  0  0  0  0  0  0  0  0  0
  1  2  1  0
  2  4  1  0
  3  2  2  0
  4  5  1  0
  5  6  1  6
  7  5  1  0
  7  8  2  0
 10  9  1  6
 10 12  1  0
 11 10  1  0
 13 12  1  1
 13 14  1  0
 14  7  1  0
 15 13  1  0
 16 15  2  0
 18 19  1  0
 18 17  1  6
 19 15  1  0
 20 18  1  0
 21 20  1  0
 22 20  2  0
M  END
$$$$
