NLA.pdb
     RDKit          3D

 22 21  0  0  1  0  0  0  0  0999 V2000
    9.2038  -16.1836   13.2540 N   0  0  0  0  0  0  0  0  0  0  0  0
   10.3019  -16.4324   14.1100 C   0  0  0  0  0  0  0  0  0  0  0  0
   11.1866  -17.2645   13.7268 O   0  0  0  0  0  0  0  0  0  0  0  0
   10.4807  -15.7877   15.4125 C   0  0  0  0  0  0  0  0  0  0  0  0
   10.3081  -16.7318   16.5809 C   0  0  2  0  0  0  0  0  0  0  0  0
    8.9709  -17.2592   16.5821 N   0  0  0  0  0  0  0  0  0  0  0  0
   10.5819  -16.0953   17.8829 C   0  0  0  0  0  0  0  0  0  0  0  0
   11.7538  -15.7722   18.1675 O   0  0  0  0  0  0  0  0  0  0  0  0
    8.8458  -12.3992   19.4336 C   0  0  0  0  0  0  0  0  0  0  0  0
    7.9798  -13.6317   19.5686 C   0  0  2  0  0  0  0  0  0  0  0  0
    6.6201  -13.1625   20.0981 C   0  0  0  0  0  0  0  0  0  0  0  0
    8.5385  -14.5863   20.6015 C   0  0  0  0  0  0  0  0  0  0  0  0
    9.7558  -15.3240   20.1355 C   0  0  2  0  0  0  0  0  0  0  0  0
    9.5339  -15.8496   18.8057 N   0  0  0  0  0  0  0  0  0  0  0  0
   10.0320  -16.4178   21.0989 C   0  0  0  0  0  0  0  0  0  0  0  0
    9.1977  -17.3268   21.3755 O   0  0  0  0  0  0  0  0  0  0  0  0
   12.8173  -18.2731   22.1292 C   0  0  0  0  0  0  0  0  0  0  0  0
   11.6178  -17.5289   22.6928 C   0  0  2  0  0  0  0  0  0  0  0  0
   11.2846  -16.4759   21.7597 N   0  0  0  0  0  0  0  0  0  0  0  0
   12.0389  -16.8900   23.9813 C   0  0  0  0  0  0  0  0  0  0  0  0
   12.1800  -17.6041   25.1597 O   0  0  0  0  0  0  0  0  0  0  0  0
   12.2734  -15.6563   23.9884 O   0  0  0  0  0  0  0  0  0  0  0  0
  1  2  1  0
  2  4  1  0
  3  2  2  0
  4  5  1  0
  5  6  1  1
  7  5  1  0
  7  8  2  0
 10  9  1  1
 10 12  1  0
 11 10  1  0
 13 12  1  1
 13 14  1  0
 14  7  1  0
 15 13  1  0
 16 15  2  0
 18 19  1  0
 18 17  1  6
 19 15  1  0
 20 18  1  0
 21 20  1  0
 22 20  2  0
M  END
$$$$
