GPV.pdb
     RDKit          3D

 19 19  0  0  1  0  0  0  0  0999 V2000
    6.4404  -18.1099   20.4486 N   0  0  0  0  0  0  0  0  0  0  0  0
    5.9189  -17.0908   21.2886 C   0  0  0  0  0  0  0  0  0  0  0  0
    6.8991  -16.2223   21.9488 C   0  0  0  0  0  0  0  0  0  0  0  0
    7.3690  -16.5348   23.1005 O   0  0  0  0  0  0  0  0  0  0  0  0
    7.3954  -15.0019   21.3910 N   0  0  0  0  0  0  0  0  0  0  0  0
    7.1500  -14.6647   20.0107 C   0  0  0  0  0  0  0  0  0  0  0  0
    7.9896  -13.4340   19.7238 C   0  0  0  0  0  0  0  0  0  0  0  0
    8.0796  -12.7951   21.0783 C   0  0  0  0  0  0  0  0  0  0  0  0
    8.1516  -13.9681   22.0069 C   0  0  1  0  0  0  0  0  0  0  0  0
    7.7104  -13.5899   23.3733 C   0  0  0  0  0  0  0  0  0  0  0  0
    6.8455  -12.7243   23.5233 O   0  0  0  0  0  0  0  0  0  0  0  0
    6.2580  -14.3030   26.5815 C   0  0  0  0  0  0  0  0  0  0  0  0
    7.1980  -13.1436   26.3841 C   0  0  2  0  0  0  0  0  0  0  0  0
    6.5197  -12.0382   25.6066 C   0  0  0  0  0  0  0  0  0  0  0  0
    8.4975  -13.5678   25.7420 C   0  0  2  0  0  0  0  0  0  0  0  0
    8.2879  -14.2274   24.4857 N   0  0  0  0  0  0  0  0  0  0  0  0
    9.2222  -14.4329   26.7104 C   0  0  0  0  0  0  0  0  0  0  0  0
    9.7031  -13.8762   27.8795 O   0  0  0  0  0  0  0  0  0  0  0  0
    9.4255  -15.6606   26.5235 O   0  0  0  0  0  0  0  0  0  0  0  0
  2  1  1  0
  3  4  2  0
  3  2  1  0
  5  3  1  0
  6  5  1  0
  7  6  1  0
  8  7  1  0
  8  9  1  0
  9  5  1  0
  9 10  1  1
 10 16  1  0
 11 10  2  0
 13 12  1  6
 13 15  1  0
 14 13  1  0
 15 16  1  6
 17 15  1  0
 18 17  1  0
 19 17  2  0
M  END
$$$$
