GPV.pdb
     RDKit          3D

 19 19  0  0  1  0  0  0  0  0999 V2000
    7.5531  -16.8175   15.9068 N   0  0  0  0  0  0  0  0  0  0  0  0
    7.1658  -16.1208   17.0819 C   0  0  0  0  0  0  0  0  0  0  0  0
    8.2388  -15.7725   18.0192 C   0  0  0  0  0  0  0  0  0  0  0  0
    9.1959  -16.5965   18.2428 O   0  0  0  0  0  0  0  0  0  0  0  0
    8.3088  -14.5369   18.7369 N   0  0  0  0  0  0  0  0  0  0  0  0
    7.4564  -13.4277   18.3871 C   0  0  0  0  0  0  0  0  0  0  0  0
    7.9497  -12.2464   19.2012 C   0  0  0  0  0  0  0  0  0  0  0  0
    8.5451  -12.9215   20.4014 C   0  0  0  0  0  0  0  0  0  0  0  0
    9.1388  -14.1732   19.8317 C   0  0  1  0  0  0  0  0  0  0  0  0
    9.2923  -15.2120   20.8815 C   0  0  0  0  0  0  0  0  0  0  0  0
    8.2938  -15.7375   21.3782 O   0  0  0  0  0  0  0  0  0  0  0  0
   10.9036  -18.3778   20.4064 C   0  0  0  0  0  0  0  0  0  0  0  0
   11.6140  -17.7802   21.5917 C   0  0  2  0  0  0  0  0  0  0  0  0
   11.9641  -18.8548   22.5964 C   0  0  0  0  0  0  0  0  0  0  0  0
   10.8248  -16.6569   22.2210 C   0  0  2  0  0  0  0  0  0  0  0  0
   10.5822  -15.5858   21.2985 N   0  0  0  0  0  0  0  0  0  0  0  0
   11.5682  -16.1972   23.4242 C   0  0  0  0  0  0  0  0  0  0  0  0
   11.2036  -16.6818   24.6652 O   0  0  0  0  0  0  0  0  0  0  0  0
   12.5242  -15.3802   23.3761 O   0  0  0  0  0  0  0  0  0  0  0  0
  2  1  1  0
  3  4  2  0
  3  2  1  0
  5  3  1  0
  6  5  1  0
  7  6  1  0
  8  7  1  0
  8  9  1  0
  9  5  1  0
  9 10  1  1
 10 16  1  0
 11 10  2  0
 13 12  1  6
 13 15  1  0
 14 13  1  0
 15 16  1  6
 17 15  1  0
 18 17  1  0
 19 17  2  0
M  END
$$$$
