GPV.pdb
     RDKit          3D

 19 19  0  0  1  0  0  0  0  0999 V2000
    8.6151  -15.0877   14.1765 N   0  0  0  0  0  0  0  0  0  0  0  0
    8.0699  -15.0425   15.4868 C   0  0  0  0  0  0  0  0  0  0  0  0
    8.9930  -14.6788   16.5670 C   0  0  0  0  0  0  0  0  0  0  0  0
   10.2344  -14.9920   16.4905 O   0  0  0  0  0  0  0  0  0  0  0  0
    8.6067  -13.9743   17.7507 N   0  0  0  0  0  0  0  0  0  0  0  0
    7.2794  -13.4275   17.8873 C   0  0  0  0  0  0  0  0  0  0  0  0
    7.3008  -12.5844   19.1485 C   0  0  0  0  0  0  0  0  0  0  0  0
    8.3688  -13.2600   19.9572 C   0  0  0  0  0  0  0  0  0  0  0  0
    9.3609  -13.6931   18.9220 C   0  0  1  0  0  0  0  0  0  0  0  0
   10.1933  -14.8159   19.4230 C   0  0  0  0  0  0  0  0  0  0  0  0
    9.7995  -15.9775   19.2984 O   0  0  0  0  0  0  0  0  0  0  0  0
   14.1315  -14.5856   19.0147 C   0  0  0  0  0  0  0  0  0  0  0  0
   13.7769  -15.1136   20.3793 C   0  0  2  0  0  0  0  0  0  0  0  0
   14.7342  -16.2104   20.7881 C   0  0  0  0  0  0  0  0  0  0  0  0
   12.3376  -15.5642   20.4586 C   0  0  2  0  0  0  0  0  0  0  0  0
   11.4277  -14.5388   20.0370 N   0  0  0  0  0  0  0  0  0  0  0  0
   12.0743  -16.0017   21.8553 C   0  0  0  0  0  0  0  0  0  0  0  0
   12.2960  -17.3209   22.1993 O   0  0  0  0  0  0  0  0  0  0  0  0
   11.6552  -15.2280   22.7549 O   0  0  0  0  0  0  0  0  0  0  0  0
  2  1  1  0
  3  4  2  0
  3  2  1  0
  5  3  1  0
  6  5  1  0
  7  6  1  0
  8  7  1  0
  8  9  1  0
  9  5  1  0
  9 10  1  1
 10 16  1  0
 11 10  2  0
 13 12  1  6
 13 15  1  0
 14 13  1  0
 15 16  1  1
 17 15  1  0
 18 17  1  0
 19 17  2  0
M  END
$$$$
