GPV.pdb
     RDKit          3D

 19 19  0  0  1  0  0  0  0  0999 V2000
    9.5292  -17.0882   16.6577 N   0  0  0  0  0  0  0  0  0  0  0  0
    8.5670  -16.2709   17.3075 C   0  0  0  0  0  0  0  0  0  0  0  0
    8.9061  -15.8089   18.6576 C   0  0  0  0  0  0  0  0  0  0  0  0
    9.6602  -16.5187   19.4142 O   0  0  0  0  0  0  0  0  0  0  0  0
    8.4447  -14.5796   19.2255 N   0  0  0  0  0  0  0  0  0  0  0  0
    7.9157  -13.5301   18.3901 C   0  0  0  0  0  0  0  0  0  0  0  0
    7.7328  -12.3259   19.2946 C   0  0  0  0  0  0  0  0  0  0  0  0
    7.5119  -12.9703   20.6312 C   0  0  0  0  0  0  0  0  0  0  0  0
    8.4076  -14.1701   20.5860 C   0  0  1  0  0  0  0  0  0  0  0  0
    7.9530  -15.2071   21.5465 C   0  0  0  0  0  0  0  0  0  0  0  0
    6.9947  -15.9296   21.2644 O   0  0  0  0  0  0  0  0  0  0  0  0
    9.5895  -15.3409   25.6314 C   0  0  0  0  0  0  0  0  0  0  0  0
    9.3362  -16.5546   24.7773 C   0  0  2  0  0  0  0  0  0  0  0  0
   10.6185  -17.0206   24.1254 C   0  0  0  0  0  0  0  0  0  0  0  0
    8.2427  -16.3181   23.7629 C   0  0  2  0  0  0  0  0  0  0  0  0
    8.6250  -15.3531   22.7731 N   0  0  0  0  0  0  0  0  0  0  0  0
    7.0197  -15.9038   24.5006 C   0  0  0  0  0  0  0  0  0  0  0  0
    6.2816  -16.8610   25.1691 O   0  0  0  0  0  0  0  0  0  0  0  0
    6.6127  -14.7141   24.5517 O   0  0  0  0  0  0  0  0  0  0  0  0
  2  1  1  0
  3  4  2  0
  3  2  1  0
  5  3  1  0
  6  5  1  0
  7  6  1  0
  8  7  1  0
  8  9  1  0
  9  5  1  0
  9 10  1  1
 10 16  1  0
 11 10  2  0
 13 12  1  6
 13 15  1  0
 14 13  1  0
 15 16  1  6
 17 15  1  0
 18 17  1  0
 19 17  2  0
M  END
$$$$
