GPV.pdb
     RDKit          3D

 19 19  0  0  1  0  0  0  0  0999 V2000
   11.7872  -17.4674   20.7241 N   0  0  0  0  0  0  0  0  0  0  0  0
   10.3915  -17.2118   20.7781 C   0  0  0  0  0  0  0  0  0  0  0  0
    9.9776  -15.9845   21.4663 C   0  0  0  0  0  0  0  0  0  0  0  0
   10.7000  -15.4940   22.4057 O   0  0  0  0  0  0  0  0  0  0  0  0
    8.7825  -15.2583   21.1645 N   0  0  0  0  0  0  0  0  0  0  0  0
    8.0806  -15.4701   19.9228 C   0  0  0  0  0  0  0  0  0  0  0  0
    7.0094  -14.3977   19.8581 C   0  0  0  0  0  0  0  0  0  0  0  0
    6.7470  -14.1309   21.3110 C   0  0  0  0  0  0  0  0  0  0  0  0
    8.0995  -14.2804   21.9371 C   0  0  1  0  0  0  0  0  0  0  0  0
    7.9819  -14.5874   23.3851 C   0  0  0  0  0  0  0  0  0  0  0  0
    8.2059  -15.7292   23.7924 O   0  0  0  0  0  0  0  0  0  0  0  0
    7.1695  -11.3187   25.9750 C   0  0  0  0  0  0  0  0  0  0  0  0
    6.6191  -12.6758   26.3244 C   0  0  2  0  0  0  0  0  0  0  0  0
    6.5311  -12.8415   27.8248 C   0  0  0  0  0  0  0  0  0  0  0  0
    7.4062  -13.7920   25.6800 C   0  0  2  0  0  0  0  0  0  0  0  0
    7.6143  -13.5660   24.2790 N   0  0  0  0  0  0  0  0  0  0  0  0
    6.6827  -15.0657   25.9366 C   0  0  0  0  0  0  0  0  0  0  0  0
    7.1387  -15.9089   26.9310 O   0  0  0  0  0  0  0  0  0  0  0  0
    5.6642  -15.4247   25.2905 O   0  0  0  0  0  0  0  0  0  0  0  0
  2  1  1  0
  3  4  2  0
  3  2  1  0
  5  3  1  0
  6  5  1  0
  7  6  1  0
  8  7  1  0
  8  9  1  0
  9  5  1  0
  9 10  1  1
 10 16  1  0
 11 10  2  0
 13 12  1  1
 13 15  1  0
 14 13  1  0
 15 16  1  6
 17 15  1  0
 18 17  1  0
 19 17  2  0
M  END
$$$$
