GPV.pdb
     RDKit          3D

 19 19  0  0  1  0  0  0  0  0999 V2000
   11.5758  -17.6812   20.2917 N   0  0  0  0  0  0  0  0  0  0  0  0
   10.2031  -17.5259   20.6202 C   0  0  0  0  0  0  0  0  0  0  0  0
    9.8368  -16.2992   21.3359 C   0  0  0  0  0  0  0  0  0  0  0  0
   10.6401  -15.7856   22.1936 O   0  0  0  0  0  0  0  0  0  0  0  0
    8.6037  -15.5981   21.1493 N   0  0  0  0  0  0  0  0  0  0  0  0
    7.7334  -15.9115   20.0431 C   0  0  0  0  0  0  0  0  0  0  0  0
    6.6534  -14.8460   20.0440 C   0  0  0  0  0  0  0  0  0  0  0  0
    6.5990  -14.4582   21.4922 C   0  0  0  0  0  0  0  0  0  0  0  0
    8.0286  -14.5576   21.9281 C   0  0  1  0  0  0  0  0  0  0  0  0
    8.1225  -14.7423   23.3984 C   0  0  0  0  0  0  0  0  0  0  0  0
    8.5121  -15.8170   23.8602 O   0  0  0  0  0  0  0  0  0  0  0  0
    7.5442  -12.5370   27.8368 C   0  0  0  0  0  0  0  0  0  0  0  0
    7.2745  -12.5442   26.3556 C   0  0  2  0  0  0  0  0  0  0  0  0
    5.7954  -12.3832   26.0857 C   0  0  0  0  0  0  0  0  0  0  0  0
    7.8397  -13.7712   25.6804 C   0  0  2  0  0  0  0  0  0  0  0  0
    7.7638  -13.6830   24.2509 N   0  0  0  0  0  0  0  0  0  0  0  0
    7.1089  -14.9558   26.2042 C   0  0  0  0  0  0  0  0  0  0  0  0
    7.6116  -15.6230   27.3042 O   0  0  0  0  0  0  0  0  0  0  0  0
    6.0436  -15.3916   25.6956 O   0  0  0  0  0  0  0  0  0  0  0  0
  2  1  1  0
  3  4  2  0
  3  2  1  0
  5  3  1  0
  6  5  1  0
  7  6  1  0
  8  7  1  0
  8  9  1  0
  9  5  1  0
  9 10  1  1
 10 16  1  0
 11 10  2  0
 13 12  1  1
 13 15  1  0
 14 13  1  0
 15 16  1  6
 17 15  1  0
 18 17  1  0
 19 17  2  0
M  END
$$$$
