GPV.pdb
     RDKit          3D

 19 19  0  0  1  0  0  0  0  0999 V2000
   11.7982  -17.3071   20.5068 N   0  0  0  0  0  0  0  0  0  0  0  0
   10.4052  -17.1991   20.7601 C   0  0  0  0  0  0  0  0  0  0  0  0
    9.9714  -16.0387   21.5452 C   0  0  0  0  0  0  0  0  0  0  0  0
   10.7348  -15.5484   22.4517 O   0  0  0  0  0  0  0  0  0  0  0  0
    8.7122  -15.3806   21.3774 N   0  0  0  0  0  0  0  0  0  0  0  0
    7.9269  -15.5772   20.1842 C   0  0  0  0  0  0  0  0  0  0  0  0
    6.7882  -14.5775   20.2619 C   0  0  0  0  0  0  0  0  0  0  0  0
    6.6280  -14.4018   21.7432 C   0  0  0  0  0  0  0  0  0  0  0  0
    8.0335  -14.4907   22.2533 C   0  0  1  0  0  0  0  0  0  0  0  0
    8.0533  -14.8767   23.6870 C   0  0  0  0  0  0  0  0  0  0  0  0
    8.3370  -16.0323   24.0095 O   0  0  0  0  0  0  0  0  0  0  0  0
    5.5929  -13.0185   26.6028 C   0  0  0  0  0  0  0  0  0  0  0  0
    7.0722  -13.1057   26.8691 C   0  0  2  0  0  0  0  0  0  0  0  0
    7.7324  -11.7656   26.6351 C   0  0  0  0  0  0  0  0  0  0  0  0
    7.7303  -14.2047   26.0692 C   0  0  2  0  0  0  0  0  0  0  0  0
    7.7464  -13.9138   24.6648 N   0  0  0  0  0  0  0  0  0  0  0  0
    7.0149  -15.4742   26.3661 C   0  0  0  0  0  0  0  0  0  0  0  0
    7.4456  -16.2577   27.4190 O   0  0  0  0  0  0  0  0  0  0  0  0
    6.0255  -15.8816   25.7038 O   0  0  0  0  0  0  0  0  0  0  0  0
  2  1  1  0
  3  4  2  0
  3  2  1  0
  5  3  1  0
  6  5  1  0
  7  6  1  0
  8  7  1  0
  8  9  1  0
  9  5  1  0
  9 10  1  1
 10 16  1  0
 11 10  2  0
 13 12  1  6
 13 15  1  0
 14 13  1  0
 15 16  1  6
 17 15  1  0
 18 17  1  0
 19 17  2  0
M  END
$$$$
