GPV.pdb
     RDKit          3D

 19 19  0  0  1  0  0  0  0  0999 V2000
    8.0967  -17.0870   16.5857 N   0  0  0  0  0  0  0  0  0  0  0  0
    7.4618  -16.4122   17.6617 C   0  0  0  0  0  0  0  0  0  0  0  0
    8.3289  -15.9692   18.7584 C   0  0  0  0  0  0  0  0  0  0  0  0
    9.3004  -16.7072   19.1541 O   0  0  0  0  0  0  0  0  0  0  0  0
    8.1736  -14.7291   19.4546 N   0  0  0  0  0  0  0  0  0  0  0  0
    7.3292  -13.6852   18.9288 C   0  0  0  0  0  0  0  0  0  0  0  0
    7.5734  -12.4685   19.8016 C   0  0  0  0  0  0  0  0  0  0  0  0
    7.9725  -13.0947   21.1051 C   0  0  0  0  0  0  0  0  0  0  0  0
    8.7503  -14.3028   20.6816 C   0  0  1  0  0  0  0  0  0  0  0  0
    8.7710  -15.3240   21.7593 C   0  0  0  0  0  0  0  0  0  0  0  0
    7.7477  -15.9576   22.0268 O   0  0  0  0  0  0  0  0  0  0  0  0
   11.2176  -18.7319   24.0801 C   0  0  0  0  0  0  0  0  0  0  0  0
   11.1472  -17.6018   23.0878 C   0  0  2  0  0  0  0  0  0  0  0  0
   12.5084  -16.9677   22.9098 C   0  0  0  0  0  0  0  0  0  0  0  0
   10.0959  -16.5832   23.4592 C   0  0  2  0  0  0  0  0  0  0  0  0
    9.9644  -15.5573   22.4655 N   0  0  0  0  0  0  0  0  0  0  0  0
   10.4533  -16.0255   24.7906 C   0  0  0  0  0  0  0  0  0  0  0  0
   10.0412  -16.6891   25.9297 O   0  0  0  0  0  0  0  0  0  0  0  0
   11.1193  -14.9685   24.9415 O   0  0  0  0  0  0  0  0  0  0  0  0
  2  1  1  0
  3  4  2  0
  3  2  1  0
  5  3  1  0
  6  5  1  0
  7  6  1  0
  8  7  1  0
  8  9  1  0
  9  5  1  0
  9 10  1  1
 10 16  1  0
 11 10  2  0
 13 12  1  1
 13 15  1  0
 14 13  1  0
 15 16  1  6
 17 15  1  0
 18 17  1  0
 19 17  2  0
M  END
$$$$
