MCQ.pdb
     RDKit          3D

 24 23  0  0  1  0  0  0  0  0999 V2000
   26.6894  -13.9621  -14.6859 C   0  0  0  0  0  0  0  0  0  0  0  0
   25.4294  -15.2387  -14.7995 S   0  0  0  0  0  0  0  0  0  0  0  0
   24.6644  -15.1933  -16.4554 C   0  0  0  0  0  0  0  0  0  0  0  0
   23.9912  -13.8871  -16.7116 C   0  0  0  0  0  0  0  0  0  0  0  0
   22.5779  -13.8275  -16.2521 C   0  0  2  0  0  0  0  0  0  0  0  0
   21.8007  -14.9328  -16.8240 N   0  0  0  0  0  0  0  0  0  0  0  0
   21.8884  -12.5360  -16.5231 C   0  0  0  0  0  0  0  0  0  0  0  0
   21.4720  -12.2117  -17.6616 O   0  0  0  0  0  0  0  0  0  0  0  0
   21.6611  -11.5821  -15.4816 N   0  0  0  0  0  0  0  0  0  0  0  0
   20.9598  -10.3149  -15.7025 C   0  0  1  0  0  0  0  0  0  0  0  0
   19.5101  -10.4577  -15.3141 C   0  0  0  0  0  0  0  0  0  0  0  0
   18.6945   -8.9049  -14.9284 S   0  0  0  0  0  0  0  0  0  0  0  0
   21.6718   -9.2125  -15.0123 C   0  0  0  0  0  0  0  0  0  0  0  0
   22.1668   -9.4339  -13.8488 O   0  0  0  0  0  0  0  0  0  0  0  0
   25.4976   -5.3112  -17.4902 N   0  0  0  0  0  0  0  0  0  0  0  0
   24.1897   -4.8399  -17.6863 C   0  0  0  0  0  0  0  0  0  0  0  0
   23.9009   -4.0412  -18.5877 O   0  0  0  0  0  0  0  0  0  0  0  0
   23.1003   -5.3253  -16.7647 C   0  0  0  0  0  0  0  0  0  0  0  0
   23.6673   -6.3096  -15.7848 C   0  0  0  0  0  0  0  0  0  0  0  0
   22.6420   -6.8738  -14.8865 C   0  0  2  0  0  0  0  0  0  0  0  0
   21.8566   -7.9267  -15.5309 N   0  0  0  0  0  0  0  0  0  0  0  0
   21.8037   -5.9192  -14.1682 C   0  0  0  0  0  0  0  0  0  0  0  0
   20.5963   -5.7945  -14.4154 O   0  0  0  0  0  0  0  0  0  0  0  0
   22.3359   -5.1121  -13.1787 O   0  0  0  0  0  0  0  0  0  0  0  0
  2  1  1  0
  2  3  1  0
  4  3  1  0
  5  7  1  0
  5  4  1  0
  5  6  1  6
  7  8  2  0
  9  7  1  0
  9 10  1  0
 10 11  1  1
 11 12  1  0
 13 21  1  0
 13 10  1  0
 14 13  2  0
 16 15  1  0
 17 16  2  0
 18 16  1  0
 20 19  1  6
 19 18  1  0
 20 22  1  0
 20 21  1  0
 22 24  1  0
 23 22  2  0
M  END
$$$$
