MCQ.pdb
     RDKit          3D

 24 23  0  0  1  0  0  0  0  0999 V2000
   17.4041  -15.3256  -13.7384 C   0  0  0  0  0  0  0  0  0  0  0  0
   18.1575  -16.7092  -14.6035 S   0  0  0  0  0  0  0  0  0  0  0  0
   18.6255  -16.1910  -16.2893 C   0  0  0  0  0  0  0  0  0  0  0  0
   19.1271  -14.7864  -16.3105 C   0  0  0  0  0  0  0  0  0  0  0  0
   19.5297  -14.3016  -17.6578 C   0  0  2  0  0  0  0  0  0  0  0  0
   20.6560  -15.0868  -18.1751 N   0  0  0  0  0  0  0  0  0  0  0  0
   19.8559  -12.8504  -17.7261 C   0  0  0  0  0  0  0  0  0  0  0  0
   21.0331  -12.4159  -17.7251 O   0  0  0  0  0  0  0  0  0  0  0  0
   18.8263  -11.8599  -17.7981 N   0  0  0  0  0  0  0  0  0  0  0  0
   19.1067  -10.4315  -17.9633 C   0  0  1  0  0  0  0  0  0  0  0  0
   18.1021   -9.8184  -18.9055 C   0  0  0  0  0  0  0  0  0  0  0  0
   18.0785   -8.0227  -18.8906 S   0  0  0  0  0  0  0  0  0  0  0  0
   19.1835   -9.7715  -16.6378 C   0  0  0  0  0  0  0  0  0  0  0  0
   18.3674  -10.1415  -15.7187 O   0  0  0  0  0  0  0  0  0  0  0  0
   21.9135   -6.1058  -12.5544 N   0  0  0  0  0  0  0  0  0  0  0  0
   22.3810   -5.7356  -13.8255 C   0  0  0  0  0  0  0  0  0  0  0  0
   22.9574   -4.6592  -14.0323 O   0  0  0  0  0  0  0  0  0  0  0  0
   22.1722   -6.6848  -14.9776 C   0  0  0  0  0  0  0  0  0  0  0  0
   21.5075   -7.9372  -14.4877 C   0  0  0  0  0  0  0  0  0  0  0  0
   20.1309   -8.0876  -14.9965 C   0  0  2  0  0  0  0  0  0  0  0  0
   20.0884   -8.7617  -16.2945 N   0  0  0  0  0  0  0  0  0  0  0  0
   19.2866   -6.8977  -14.9631 C   0  0  0  0  0  0  0  0  0  0  0  0
   19.0932   -6.2051  -15.9717 O   0  0  0  0  0  0  0  0  0  0  0  0
   18.6698   -6.4985  -13.7909 O   0  0  0  0  0  0  0  0  0  0  0  0
  2  1  1  0
  2  3  1  0
  4  3  1  0
  5  7  1  0
  5  4  1  0
  5  6  1  1
  7  8  2  0
  9  7  1  0
  9 10  1  0
 10 11  1  6
 11 12  1  0
 13 21  1  0
 13 10  1  0
 14 13  2  0
 16 15  1  0
 17 16  2  0
 18 16  1  0
 20 19  1  6
 19 18  1  0
 20 22  1  0
 20 21  1  0
 22 24  1  0
 23 22  2  0
M  END
$$$$
