MCQ.pdb
     RDKit          3D

 24 23  0  0  1  0  0  0  0  0999 V2000
   28.4500  -18.0642   -4.6396 C   0  0  0  0  0  0  0  0  0  0  0  0
   28.3067  -19.8555   -4.6105 S   0  0  0  0  0  0  0  0  0  0  0  0
   26.9155  -20.3723   -5.6720 C   0  0  0  0  0  0  0  0  0  0  0  0
   27.0139  -19.7718   -7.0339 C   0  0  0  0  0  0  0  0  0  0  0  0
   25.9490  -20.2120   -7.9743 C   0  0  2  0  0  0  0  0  0  0  0  0
   25.6288  -21.6288   -7.7670 N   0  0  0  0  0  0  0  0  0  0  0  0
   26.2487  -19.9703   -9.4126 C   0  0  0  0  0  0  0  0  0  0  0  0
   26.3305  -18.8201   -9.9075 O   0  0  0  0  0  0  0  0  0  0  0  0
   26.4629  -21.0556  -10.3196 N   0  0  0  0  0  0  0  0  0  0  0  0
   26.8266  -20.8579  -11.7249 C   0  0  1  0  0  0  0  0  0  0  0  0
   28.1093  -21.5893  -12.0294 C   0  0  0  0  0  0  0  0  0  0  0  0
   29.5287  -21.0072  -11.0956 S   0  0  0  0  0  0  0  0  0  0  0  0
   25.6894  -21.2275  -12.6015 C   0  0  0  0  0  0  0  0  0  0  0  0
   25.2064  -22.4137  -12.5145 O   0  0  0  0  0  0  0  0  0  0  0  0
   20.7452  -22.7991  -13.5862 N   0  0  0  0  0  0  0  0  0  0  0  0
   20.7719  -21.5978  -12.8601 C   0  0  0  0  0  0  0  0  0  0  0  0
   20.3754  -21.5218  -11.6893 O   0  0  0  0  0  0  0  0  0  0  0  0
   21.3028  -20.3578  -13.5327 C   0  0  0  0  0  0  0  0  0  0  0  0
   22.7041  -20.0906  -13.0687 C   0  0  0  0  0  0  0  0  0  0  0  0
   23.7205  -20.5357  -14.0409 C   0  0  2  0  0  0  0  0  0  0  0  0
   25.0833  -20.3775  -13.5324 N   0  0  0  0  0  0  0  0  0  0  0  0
   23.5793  -20.0436  -15.4076 C   0  0  0  0  0  0  0  0  0  0  0  0
   23.7772  -18.8558  -15.6982 O   0  0  0  0  0  0  0  0  0  0  0  0
   23.2136  -20.8960  -16.4340 O   0  0  0  0  0  0  0  0  0  0  0  0
  2  1  1  0
  2  3  1  0
  4  3  1  0
  5  7  1  0
  5  4  1  0
  5  6  1  6
  7  8  2  0
  9  7  1  0
  9 10  1  0
 10 11  1  6
 11 12  1  0
 13 21  1  0
 13 10  1  0
 14 13  2  0
 16 15  1  0
 17 16  2  0
 18 16  1  0
 20 19  1  1
 19 18  1  0
 20 22  1  0
 20 21  1  0
 22 24  1  0
 23 22  2  0
M  END
$$$$
