MCQ.pdb
     RDKit          3D

 24 23  0  0  1  0  0  0  0  0999 V2000
   17.0541  -12.5117  -21.6993 C   0  0  0  0  0  0  0  0  0  0  0  0
   16.7558  -14.1008  -20.9146 S   0  0  0  0  0  0  0  0  0  0  0  0
   18.0929  -14.4522  -19.7237 C   0  0  0  0  0  0  0  0  0  0  0  0
   18.2188  -13.3682  -18.7067 C   0  0  0  0  0  0  0  0  0  0  0  0
   19.3282  -13.5667  -17.7362 C   0  0  2  0  0  0  0  0  0  0  0  0
   19.1664  -14.8356  -17.0176 N   0  0  0  0  0  0  0  0  0  0  0  0
   19.5087  -12.4566  -16.7605 C   0  0  0  0  0  0  0  0  0  0  0  0
   18.6645  -12.1861  -15.8724 O   0  0  0  0  0  0  0  0  0  0  0  0
   20.6741  -11.6274  -16.7855 N   0  0  0  0  0  0  0  0  0  0  0  0
   20.8863  -10.5247  -15.8446 C   0  0  1  0  0  0  0  0  0  0  0  0
   22.1525  -10.7577  -15.0602 C   0  0  0  0  0  0  0  0  0  0  0  0
   22.5980   -9.4079  -13.9625 S   0  0  0  0  0  0  0  0  0  0  0  0
   20.8418   -9.2280  -16.5621 C   0  0  0  0  0  0  0  0  0  0  0  0
   21.4447   -9.1291  -17.6911 O   0  0  0  0  0  0  0  0  0  0  0  0
   16.4066   -5.2578  -17.5291 N   0  0  0  0  0  0  0  0  0  0  0  0
   17.4689   -4.4095  -17.8801 C   0  0  0  0  0  0  0  0  0  0  0  0
   17.2865   -3.2773  -18.3477 O   0  0  0  0  0  0  0  0  0  0  0  0
   18.8807   -4.8974  -17.6792 C   0  0  0  0  0  0  0  0  0  0  0  0
   18.8610   -6.2625  -17.0575 C   0  0  0  0  0  0  0  0  0  0  0  0
   20.2139   -6.7815  -16.7803 C   0  0  2  0  0  0  0  0  0  0  0  0
   20.1841   -8.0804  -16.1073 N   0  0  0  0  0  0  0  0  0  0  0  0
   21.1552   -5.8568  -16.1569 C   0  0  0  0  0  0  0  0  0  0  0  0
   21.7358   -4.9774  -16.8081 O   0  0  0  0  0  0  0  0  0  0  0  0
   21.4349   -5.9342  -14.8043 O   0  0  0  0  0  0  0  0  0  0  0  0
  2  1  1  0
  2  3  1  0
  4  3  1  0
  5  7  1  0
  5  4  1  0
  5  6  1  1
  7  8  2  0
  9  7  1  0
  9 10  1  0
 10 11  1  6
 11 12  1  0
 13 21  1  0
 13 10  1  0
 14 13  2  0
 16 15  1  0
 17 16  2  0
 18 16  1  0
 20 19  1  1
 19 18  1  0
 20 22  1  0
 20 21  1  0
 22 24  1  0
 23 22  2  0
M  END
$$$$
