MCQ.pdb
     RDKit          3D

 24 23  0  0  1  0  0  0  0  0999 V2000
   28.8144  -20.9595   -4.2884 C   0  0  0  0  0  0  0  0  0  0  0  0
   28.9009  -19.2373   -4.7953 S   0  0  0  0  0  0  0  0  0  0  0  0
   29.2262  -19.1462   -6.5884 C   0  0  0  0  0  0  0  0  0  0  0  0
   28.4695  -20.1920   -7.3358 C   0  0  0  0  0  0  0  0  0  0  0  0
   27.3591  -19.6627   -8.1719 C   0  0  2  0  0  0  0  0  0  0  0  0
   26.2193  -19.2749   -7.3334 N   0  0  0  0  0  0  0  0  0  0  0  0
   26.8996  -20.5800   -9.2510 C   0  0  0  0  0  0  0  0  0  0  0  0
   27.3194  -21.7565   -9.3697 O   0  0  0  0  0  0  0  0  0  0  0  0
   25.9391  -20.1600  -10.2244 N   0  0  0  0  0  0  0  0  0  0  0  0
   24.9183  -21.0562  -10.7730 C   0  0  1  0  0  0  0  0  0  0  0  0
   24.1544  -21.7103   -9.6499 C   0  0  0  0  0  0  0  0  0  0  0  0
   23.2856  -20.5579   -8.5809 S   0  0  0  0  0  0  0  0  0  0  0  0
   24.0699  -20.3261  -11.7453 C   0  0  0  0  0  0  0  0  0  0  0  0
   23.5875  -19.1860  -11.4057 O   0  0  0  0  0  0  0  0  0  0  0  0
   23.3452  -17.9784  -16.5289 N   0  0  0  0  0  0  0  0  0  0  0  0
   24.5591  -18.6652  -16.3674 C   0  0  0  0  0  0  0  0  0  0  0  0
   25.6443  -18.1862  -16.7233 O   0  0  0  0  0  0  0  0  0  0  0  0
   24.5371  -20.0344  -15.7379 C   0  0  0  0  0  0  0  0  0  0  0  0
   23.1311  -20.3948  -15.3586 C   0  0  0  0  0  0  0  0  0  0  0  0
   22.8295  -20.1005  -13.9448 C   0  0  2  0  0  0  0  0  0  0  0  0
   23.7449  -20.7802  -13.0277 N   0  0  0  0  0  0  0  0  0  0  0  0
   21.4357  -20.2296  -13.5318 C   0  0  0  0  0  0  0  0  0  0  0  0
   20.5407  -19.5289  -14.0242 O   0  0  0  0  0  0  0  0  0  0  0  0
   21.0645  -21.1467  -12.5649 O   0  0  0  0  0  0  0  0  0  0  0  0
  2  1  1  0
  2  3  1  0
  4  3  1  0
  5  7  1  0
  5  4  1  0
  5  6  1  1
  7  8  2  0
  9  7  1  0
  9 10  1  0
 10 11  1  1
 11 12  1  0
 13 21  1  0
 13 10  1  0
 14 13  2  0
 16 15  1  0
 17 16  2  0
 18 16  1  0
 20 19  1  6
 19 18  1  0
 20 22  1  0
 20 21  1  0
 22 24  1  0
 23 22  2  0
M  END
$$$$
