MCQ.pdb
     RDKit          3D

 24 23  0  0  1  0  0  0  0  0999 V2000
   14.1952  -12.1170  -18.5719 C   0  0  0  0  0  0  0  0  0  0  0  0
   15.5979  -11.9553  -19.6839 S   0  0  0  0  0  0  0  0  0  0  0  0
   17.1351  -12.3584  -18.7872 C   0  0  0  0  0  0  0  0  0  0  0  0
   17.1857  -11.6844  -17.4575 C   0  0  0  0  0  0  0  0  0  0  0  0
   18.5461  -11.2460  -17.0459 C   0  0  2  0  0  0  0  0  0  0  0  0
   19.4734  -12.3830  -17.0292 N   0  0  0  0  0  0  0  0  0  0  0  0
   18.6027  -10.5328  -15.7401 C   0  0  0  0  0  0  0  0  0  0  0  0
   18.5802  -11.1294  -14.6364 O   0  0  0  0  0  0  0  0  0  0  0  0
   18.6872   -9.1062  -15.6756 N   0  0  0  0  0  0  0  0  0  0  0  0
   18.8021   -8.3724  -14.4129 C   0  0  1  0  0  0  0  0  0  0  0  0
   19.9148   -7.3598  -14.5087 C   0  0  0  0  0  0  0  0  0  0  0  0
   21.2408   -7.6079  -13.3232 S   0  0  0  0  0  0  0  0  0  0  0  0
   17.4869   -7.8014  -14.0350 C   0  0  0  0  0  0  0  0  0  0  0  0
   16.7090   -7.3811  -14.9655 O   0  0  0  0  0  0  0  0  0  0  0  0
   14.3235   -8.4790   -8.6813 N   0  0  0  0  0  0  0  0  0  0  0  0
   13.4337   -7.6476   -9.3799 C   0  0  0  0  0  0  0  0  0  0  0  0
   12.3301   -7.3234   -8.9208 O   0  0  0  0  0  0  0  0  0  0  0  0
   13.8393   -7.1327  -10.7371 C   0  0  0  0  0  0  0  0  0  0  0  0
   15.1756   -7.7000  -11.1153 C   0  0  0  0  0  0  0  0  0  0  0  0
   15.7090   -7.1185  -12.3618 C   0  0  2  0  0  0  0  0  0  0  0  0
   17.0098   -7.6809  -12.7257 N   0  0  0  0  0  0  0  0  0  0  0  0
   15.6862   -5.6632  -12.4678 C   0  0  0  0  0  0  0  0  0  0  0  0
   16.6722   -4.9714  -12.1787 O   0  0  0  0  0  0  0  0  0  0  0  0
   14.5498   -5.0010  -12.8967 O   0  0  0  0  0  0  0  0  0  0  0  0
  2  1  1  0
  2  3  1  0
  4  3  1  0
  5  7  1  0
  5  4  1  0
  5  6  1  1
  7  8  2  0
  9  7  1  0
  9 10  1  0
 10 11  1  6
 11 12  1  0
 13 21  1  0
 13 10  1  0
 14 13  2  0
 16 15  1  0
 17 16  2  0
 18 16  1  0
 20 19  1  1
 19 18  1  0
 20 22  1  0
 20 21  1  0
 22 24  1  0
 23 22  2  0
M  END
$$$$
