SQQ.pdb
     RDKit          3D

 25 24  0  0  1  0  0  0  0  0999 V2000
   17.0683  -13.2084  -16.2147 O   0  0  0  0  0  0  0  0  0  0  0  0
   18.1583  -12.6878  -15.5122 C   0  0  0  0  0  0  0  0  0  0  0  0
   18.7754  -11.5470  -16.2900 C   0  0  2  0  0  0  0  0  0  0  0  0
   19.1567  -11.9350  -17.6103 N   0  0  0  0  0  0  0  0  0  0  0  0
   19.8987  -10.9332  -15.5745 C   0  0  0  0  0  0  0  0  0  0  0  0
   19.7574  -10.4485  -14.4000 O   0  0  0  0  0  0  0  0  0  0  0  0
   25.7764  -11.8571  -16.9740 N   0  0  0  0  0  0  0  0  0  0  0  0
   25.9888  -10.9305  -15.9313 C   0  0  0  0  0  0  0  0  0  0  0  0
   27.1214  -10.6290  -15.5318 O   0  0  0  0  0  0  0  0  0  0  0  0
   24.7785  -10.3229  -15.3315 C   0  0  0  0  0  0  0  0  0  0  0  0
   23.5302  -10.8271  -15.9389 C   0  0  0  0  0  0  0  0  0  0  0  0
   22.2504  -10.2011  -15.3212 C   0  0  2  0  0  0  0  0  0  0  0  0
   21.2038  -10.8385  -16.1316 N   0  0  0  0  0  0  0  0  0  0  0  0
   22.3084   -8.7403  -15.5746 C   0  0  0  0  0  0  0  0  0  0  0  0
   22.1957   -8.3795  -16.7830 O   0  0  0  0  0  0  0  0  0  0  0  0
   18.0656   -5.9606  -16.4986 N   0  0  0  0  0  0  0  0  0  0  0  0
   18.8292   -4.8115  -16.1145 C   0  0  0  0  0  0  0  0  0  0  0  0
   18.2698   -3.6834  -16.2520 O   0  0  0  0  0  0  0  0  0  0  0  0
   20.1955   -4.8803  -15.5779 C   0  0  0  0  0  0  0  0  0  0  0  0
   20.7870   -6.2448  -15.4799 C   0  0  0  0  0  0  0  0  0  0  0  0
   22.1562   -6.3269  -14.8425 C   0  0  2  0  0  0  0  0  0  0  0  0
   22.4659   -7.7549  -14.5922 N   0  0  0  0  0  0  0  0  0  0  0  0
   22.4742   -5.5552  -13.6961 C   0  0  0  0  0  0  0  0  0  0  0  0
   22.6819   -4.3043  -13.6065 O   0  0  0  0  0  0  0  0  0  0  0  0
   22.5951   -6.2116  -12.4442 O   0  0  0  0  0  0  0  0  0  0  0  0
  2  1  1  0
  2  3  1  0
  3  4  1  6
  5  3  1  0
  5  6  2  0
  8  7  1  0
  8 10  1  0
  9  8  2  0
 11 10  1  0
 12 11  1  6
 13 12  1  0
 13  5  1  0
 14 15  2  0
 14 12  1  0
 16 17  1  0
 17 19  1  0
 18 17  2  0
 19 20  1  0
 21 20  1  1
 21 22  1  0
 21 23  1  0
 22 14  1  0
 23 25  1  0
 24 23  2  0
M  END
$$$$
