SQQ.pdb
     RDKit          3D

 25 24  0  0  1  0  0  0  0  0999 V2000
   11.1315   -9.2473  -10.6491 O   0  0  0  0  0  0  0  0  0  0  0  0
   11.0782  -10.6076  -10.3340 C   0  0  0  0  0  0  0  0  0  0  0  0
   12.2375  -11.3322  -10.9807 C   0  0  2  0  0  0  0  0  0  0  0  0
   12.1724  -12.7448  -10.7823 N   0  0  0  0  0  0  0  0  0  0  0  0
   13.5335  -10.7975  -10.5505 C   0  0  0  0  0  0  0  0  0  0  0  0
   14.0138  -11.0598   -9.3952 O   0  0  0  0  0  0  0  0  0  0  0  0
   18.4275  -10.4490  -13.8249 N   0  0  0  0  0  0  0  0  0  0  0  0
   17.6128  -11.5230  -13.4082 C   0  0  0  0  0  0  0  0  0  0  0  0
   17.7403  -12.6679  -13.8624 O   0  0  0  0  0  0  0  0  0  0  0  0
   16.5871  -11.2151  -12.3850 C   0  0  0  0  0  0  0  0  0  0  0  0
   16.5752   -9.7879  -12.0053 C   0  0  0  0  0  0  0  0  0  0  0  0
   15.6057   -9.4722  -10.8342 C   0  0  2  0  0  0  0  0  0  0  0  0
   14.3330   -9.9633  -11.3797 N   0  0  0  0  0  0  0  0  0  0  0  0
   15.5829   -7.9981  -10.6664 C   0  0  0  0  0  0  0  0  0  0  0  0
   14.5668   -7.4004  -11.1284 O   0  0  0  0  0  0  0  0  0  0  0  0
   12.9222   -4.2487   -9.4649 N   0  0  0  0  0  0  0  0  0  0  0  0
   13.7028   -3.9109   -8.3127 C   0  0  0  0  0  0  0  0  0  0  0  0
   13.4034   -2.8338   -7.7172 O   0  0  0  0  0  0  0  0  0  0  0  0
   14.8042   -4.7380   -7.8005 C   0  0  0  0  0  0  0  0  0  0  0  0
   15.1123   -5.9674   -8.5847 C   0  0  0  0  0  0  0  0  0  0  0  0
   16.3212   -5.8874   -9.4902 C   0  0  2  0  0  0  0  0  0  0  0  0
   16.5793   -7.2402  -10.0391 N   0  0  0  0  0  0  0  0  0  0  0  0
   17.5347   -5.3100   -9.0372 C   0  0  0  0  0  0  0  0  0  0  0  0
   18.4765   -5.8464   -8.3729 O   0  0  0  0  0  0  0  0  0  0  0  0
   17.7922   -3.9461   -9.3307 O   0  0  0  0  0  0  0  0  0  0  0  0
  2  1  1  0
  2  3  1  0
  3  4  1  1
  5  3  1  0
  5  6  2  0
  8  7  1  0
  8 10  1  0
  9  8  2  0
 11 10  1  0
 12 11  1  6
 13 12  1  0
 13  5  1  0
 14 15  2  0
 14 12  1  0
 16 17  1  0
 17 19  1  0
 18 17  2  0
 19 20  1  0
 21 20  1  1
 21 22  1  0
 21 23  1  0
 22 14  1  0
 23 25  1  0
 24 23  2  0
M  END
$$$$
