SQQ.pdb
     RDKit          3D

 25 24  0  0  1  0  0  0  0  0999 V2000
   26.6591  -18.5397  -16.3950 O   0  0  0  0  0  0  0  0  0  0  0  0
   27.8475  -18.9792  -15.8058 C   0  0  0  0  0  0  0  0  0  0  0  0
   27.8442  -20.4880  -15.7025 C   0  0  2  0  0  0  0  0  0  0  0  0
   27.8284  -21.1189  -16.9834 N   0  0  0  0  0  0  0  0  0  0  0  0
   26.7531  -20.9824  -14.8565 C   0  0  0  0  0  0  0  0  0  0  0  0
   25.8132  -21.7054  -15.3339 O   0  0  0  0  0  0  0  0  0  0  0  0
   26.4661  -20.2345   -8.7296 N   0  0  0  0  0  0  0  0  0  0  0  0
   25.2401  -20.9120   -8.8997 C   0  0  0  0  0  0  0  0  0  0  0  0
   24.5289  -21.2474   -7.9431 O   0  0  0  0  0  0  0  0  0  0  0  0
   24.8347  -21.2033  -10.2941 C   0  0  0  0  0  0  0  0  0  0  0  0
   25.8673  -20.8179  -11.2773 C   0  0  0  0  0  0  0  0  0  0  0  0
   25.4764  -21.1541  -12.7420 C   0  0  2  0  0  0  0  0  0  0  0  0
   26.6696  -20.6954  -13.4661 N   0  0  0  0  0  0  0  0  0  0  0  0
   24.2926  -20.3270  -13.0827 C   0  0  0  0  0  0  0  0  0  0  0  0
   24.5328  -19.1592  -13.5090 O   0  0  0  0  0  0  0  0  0  0  0  0
   23.0458  -20.0578  -18.0614 N   0  0  0  0  0  0  0  0  0  0  0  0
   21.7789  -19.5598  -17.6166 C   0  0  0  0  0  0  0  0  0  0  0  0
   20.9993  -19.1086  -18.5072 O   0  0  0  0  0  0  0  0  0  0  0  0
   21.3514  -19.5526  -16.2107 C   0  0  0  0  0  0  0  0  0  0  0  0
   22.3393  -20.0828  -15.2287 C   0  0  0  0  0  0  0  0  0  0  0  0
   21.8743  -20.1423  -13.7906 C   0  0  2  0  0  0  0  0  0  0  0  0
   22.9592  -20.7415  -12.9772 N   0  0  0  0  0  0  0  0  0  0  0  0
   20.6315  -20.7345  -13.4501 C   0  0  0  0  0  0  0  0  0  0  0  0
   20.3755  -21.9452  -13.1595 O   0  0  0  0  0  0  0  0  0  0  0  0
   19.4732  -19.9161  -13.4144 O   0  0  0  0  0  0  0  0  0  0  0  0
  2  1  1  0
  2  3  1  0
  3  4  1  6
  5  3  1  0
  5  6  2  0
  8  7  1  0
  8 10  1  0
  9  8  2  0
 11 10  1  0
 12 11  1  1
 13 12  1  0
 13  5  1  0
 14 15  2  0
 14 12  1  0
 16 17  1  0
 17 19  1  0
 18 17  2  0
 19 20  1  0
 21 20  1  6
 21 22  1  0
 21 23  1  0
 22 14  1  0
 23 25  1  0
 24 23  2  0
M  END
$$$$
