SQQ.pdb
     RDKit          3D

 25 24  0  0  1  0  0  0  0  0999 V2000
   16.0183  -11.7135  -17.5220 O   0  0  0  0  0  0  0  0  0  0  0  0
   16.1735  -10.4501  -16.9454 C   0  0  0  0  0  0  0  0  0  0  0  0
   16.9612  -10.5638  -15.6594 C   0  0  2  0  0  0  0  0  0  0  0  0
   16.2753  -11.3313  -14.6697 N   0  0  0  0  0  0  0  0  0  0  0  0
   17.3534   -9.2525  -15.1329 C   0  0  0  0  0  0  0  0  0  0  0  0
   16.5902   -8.5927  -14.3479 O   0  0  0  0  0  0  0  0  0  0  0  0
   22.8684   -7.7340  -13.5618 N   0  0  0  0  0  0  0  0  0  0  0  0
   22.3328   -6.4360  -13.4231 C   0  0  0  0  0  0  0  0  0  0  0  0
   22.9763   -5.5022  -12.9260 O   0  0  0  0  0  0  0  0  0  0  0  0
   20.9483   -6.2377  -13.9104 C   0  0  0  0  0  0  0  0  0  0  0  0
   20.3612   -7.4724  -14.4691 C   0  0  0  0  0  0  0  0  0  0  0  0
   18.8719   -7.3133  -14.8789 C   0  0  2  0  0  0  0  0  0  0  0  0
   18.5938   -8.6358  -15.4552 N   0  0  0  0  0  0  0  0  0  0  0  0
   18.8112   -6.2540  -15.9160 C   0  0  0  0  0  0  0  0  0  0  0  0
   19.3183   -6.5443  -17.0393 O   0  0  0  0  0  0  0  0  0  0  0  0
   15.9753   -4.4866  -20.0473 N   0  0  0  0  0  0  0  0  0  0  0  0
   16.2202   -3.1243  -19.6796 C   0  0  0  0  0  0  0  0  0  0  0  0
   16.0381   -2.2499  -20.5776 O   0  0  0  0  0  0  0  0  0  0  0  0
   16.6579   -2.7052  -18.3408 C   0  0  0  0  0  0  0  0  0  0  0  0
   16.8568   -3.8006  -17.3499 C   0  0  0  0  0  0  0  0  0  0  0  0
   18.2612   -3.9558  -16.8100 C   0  0  2  0  0  0  0  0  0  0  0  0
   18.2372   -4.9881  -15.7463 N   0  0  0  0  0  0  0  0  0  0  0  0
   19.0031   -2.8289  -16.3733 C   0  0  0  0  0  0  0  0  0  0  0  0
   19.1433   -2.3712  -15.1957 O   0  0  0  0  0  0  0  0  0  0  0  0
   19.7069   -2.0609  -17.3364 O   0  0  0  0  0  0  0  0  0  0  0  0
  2  1  1  0
  2  3  1  0
  3  4  1  1
  5  3  1  0
  5  6  2  0
  8  7  1  0
  8 10  1  0
  9  8  2  0
 11 10  1  0
 12 11  1  6
 13 12  1  0
 13  5  1  0
 14 15  2  0
 14 12  1  0
 16 17  1  0
 17 19  1  0
 18 17  2  0
 19 20  1  0
 21 20  1  1
 21 22  1  0
 21 23  1  0
 22 14  1  0
 23 25  1  0
 24 23  2  0
M  END
$$$$
