SQQ.pdb
     RDKit          3D

 25 24  0  0  1  0  0  0  0  0999 V2000
   18.7835  -13.8876  -17.2009 O   0  0  0  0  0  0  0  0  0  0  0  0
   19.4740  -12.9800  -16.3934 C   0  0  0  0  0  0  0  0  0  0  0  0
   20.9363  -12.9569  -16.7781 C   0  0  2  0  0  0  0  0  0  0  0  0
   21.5054  -14.2657  -16.8243 N   0  0  0  0  0  0  0  0  0  0  0  0
   21.7218  -12.0694  -15.9144 C   0  0  0  0  0  0  0  0  0  0  0  0
   21.4143  -11.8886  -14.6868 O   0  0  0  0  0  0  0  0  0  0  0  0
   27.6388  -10.9504  -16.3067 N   0  0  0  0  0  0  0  0  0  0  0  0
   27.0645  -11.9846  -15.5376 C   0  0  0  0  0  0  0  0  0  0  0  0
   27.7216  -12.9516  -15.1297 O   0  0  0  0  0  0  0  0  0  0  0  0
   25.6209  -11.8564  -15.2322 C   0  0  0  0  0  0  0  0  0  0  0  0
   25.0193  -10.6484  -15.8324 C   0  0  0  0  0  0  0  0  0  0  0  0
   23.5301  -10.4454  -15.4419 C   0  0  2  0  0  0  0  0  0  0  0  0
   22.8643  -11.3608  -16.3784 N   0  0  0  0  0  0  0  0  0  0  0  0
   23.1858   -9.0329  -15.7380 C   0  0  0  0  0  0  0  0  0  0  0  0
   23.0593   -8.7351  -16.9621 O   0  0  0  0  0  0  0  0  0  0  0  0
   18.6160   -7.2233  -17.3417 N   0  0  0  0  0  0  0  0  0  0  0  0
   19.0352   -5.9458  -16.8483 C   0  0  0  0  0  0  0  0  0  0  0  0
   18.2466   -4.9736  -17.0409 O   0  0  0  0  0  0  0  0  0  0  0  0
   20.3042   -5.7185  -16.1429 C   0  0  0  0  0  0  0  0  0  0  0  0
   21.1415   -6.9284  -15.9059 C   0  0  0  0  0  0  0  0  0  0  0  0
   22.4162   -6.7064  -15.1226 C   0  0  2  0  0  0  0  0  0  0  0  0
   22.9863   -8.0313  -14.7800 N   0  0  0  0  0  0  0  0  0  0  0  0
   22.4340   -5.8631  -13.9826 C   0  0  0  0  0  0  0  0  0  0  0  0
   22.4525   -6.1819  -12.7522 O   0  0  0  0  0  0  0  0  0  0  0  0
   22.4278   -4.4573  -14.1740 O   0  0  0  0  0  0  0  0  0  0  0  0
  2  1  1  0
  2  3  1  0
  3  4  1  1
  5  3  1  0
  5  6  2  0
  8  7  1  0
  8 10  1  0
  9  8  2  0
 11 10  1  0
 12 11  1  6
 13 12  1  0
 13  5  1  0
 14 15  2  0
 14 12  1  0
 16 17  1  0
 17 19  1  0
 18 17  2  0
 19 20  1  0
 21 20  1  1
 21 22  1  0
 21 23  1  0
 22 14  1  0
 23 25  1  0
 24 23  2  0
M  END
$$$$
