SQQ.pdb
     RDKit          3D

 25 24  0  0  1  0  0  0  0  0999 V2000
   13.0981   -9.5094  -10.6210 O   0  0  0  0  0  0  0  0  0  0  0  0
   14.0234   -8.5022  -10.9073 C   0  0  0  0  0  0  0  0  0  0  0  0
   15.2672   -8.6915  -10.0681 C   0  0  2  0  0  0  0  0  0  0  0  0
   15.0291   -8.4428   -8.6823 N   0  0  0  0  0  0  0  0  0  0  0  0
   16.3946   -7.8941  -10.5619 C   0  0  0  0  0  0  0  0  0  0  0  0
   16.6571   -6.7392  -10.0806 O   0  0  0  0  0  0  0  0  0  0  0  0
   20.7356   -9.9640  -14.4337 N   0  0  0  0  0  0  0  0  0  0  0  0
   21.2606   -8.6744  -14.2051 C   0  0  0  0  0  0  0  0  0  0  0  0
   22.3819   -8.3339  -14.6052 O   0  0  0  0  0  0  0  0  0  0  0  0
   20.3954   -7.7322  -13.4588 C   0  0  0  0  0  0  0  0  0  0  0  0
   19.1845   -8.3816  -12.9169 C   0  0  0  0  0  0  0  0  0  0  0  0
   18.3020   -7.4255  -12.0696 C   0  0  2  0  0  0  0  0  0  0  0  0
   17.2609   -8.3470  -11.5949 N   0  0  0  0  0  0  0  0  0  0  0  0
   17.7380   -6.4113  -12.9942 C   0  0  0  0  0  0  0  0  0  0  0  0
   16.5723   -6.6426  -13.4310 O   0  0  0  0  0  0  0  0  0  0  0  0
   13.8534   -3.1757  -12.1490 N   0  0  0  0  0  0  0  0  0  0  0  0
   14.4281   -2.3219  -13.1450 C   0  0  0  0  0  0  0  0  0  0  0  0
   13.7932   -1.2615  -13.4220 O   0  0  0  0  0  0  0  0  0  0  0  0
   15.6906   -2.6108  -13.8393 C   0  0  0  0  0  0  0  0  0  0  0  0
   16.3902   -3.8591  -13.4226 C   0  0  0  0  0  0  0  0  0  0  0  0
   17.6874   -4.1601  -14.1399 C   0  0  2  0  0  0  0  0  0  0  0  0
   18.3862   -5.2386  -13.4009 N   0  0  0  0  0  0  0  0  0  0  0  0
   18.6007   -3.1236  -14.4605 C   0  0  0  0  0  0  0  0  0  0  0  0
   18.4994   -2.2125  -15.3412 O   0  0  0  0  0  0  0  0  0  0  0  0
   19.8177   -3.0389  -13.7363 O   0  0  0  0  0  0  0  0  0  0  0  0
  2  1  1  0
  2  3  1  0
  3  4  1  1
  5  3  1  0
  5  6  2  0
  8  7  1  0
  8 10  1  0
  9  8  2  0
 11 10  1  0
 12 11  1  6
 13 12  1  0
 13  5  1  0
 14 15  2  0
 14 12  1  0
 16 17  1  0
 17 19  1  0
 18 17  2  0
 19 20  1  0
 21 20  1  1
 21 22  1  0
 21 23  1  0
 22 14  1  0
 23 25  1  0
 24 23  2  0
M  END
$$$$
