SQQ.pdb
     RDKit          3D

 25 24  0  0  1  0  0  0  0  0999 V2000
   20.6159  -12.7366  -14.9491 O   0  0  0  0  0  0  0  0  0  0  0  0
   19.4389  -13.4554  -14.7241 C   0  0  0  0  0  0  0  0  0  0  0  0
   18.6068  -13.4897  -15.9864 C   0  0  2  0  0  0  0  0  0  0  0  0
   19.3141  -14.0633  -17.0863 N   0  0  0  0  0  0  0  0  0  0  0  0
   18.0723  -12.1688  -16.3330 C   0  0  0  0  0  0  0  0  0  0  0  0
   18.5595  -11.4829  -17.2955 O   0  0  0  0  0  0  0  0  0  0  0  0
   12.5638  -10.0843  -14.6903 N   0  0  0  0  0  0  0  0  0  0  0  0
   12.9677   -8.9735  -15.4609 C   0  0  0  0  0  0  0  0  0  0  0  0
   12.2117   -8.0228  -15.7019 O   0  0  0  0  0  0  0  0  0  0  0  0
   14.3579   -8.9944  -15.9712 C   0  0  0  0  0  0  0  0  0  0  0  0
   15.0811  -10.2266  -15.5968 C   0  0  0  0  0  0  0  0  0  0  0  0
   16.5698  -10.2230  -16.0383 C   0  0  2  0  0  0  0  0  0  0  0  0
   16.9892  -11.5709  -15.6315 N   0  0  0  0  0  0  0  0  0  0  0  0
   17.2635   -9.1826  -15.2397 C   0  0  0  0  0  0  0  0  0  0  0  0
   17.6509   -9.5320  -14.0860 O   0  0  0  0  0  0  0  0  0  0  0  0
   22.5505   -6.8878  -15.9798 N   0  0  0  0  0  0  0  0  0  0  0  0
   22.0459   -6.0506  -14.9331 C   0  0  0  0  0  0  0  0  0  0  0  0
   22.8865   -5.3137  -14.3375 O   0  0  0  0  0  0  0  0  0  0  0  0
   20.6329   -6.0056  -14.5320 C   0  0  0  0  0  0  0  0  0  0  0  0
   19.7233   -6.9418  -15.2514 C   0  0  0  0  0  0  0  0  0  0  0  0
   18.2698   -6.9007  -14.8352 C   0  0  2  0  0  0  0  0  0  0  0  0
   17.5221   -7.8742  -15.6664 N   0  0  0  0  0  0  0  0  0  0  0  0
   17.5629   -5.6727  -14.7756 C   0  0  0  0  0  0  0  0  0  0  0  0
   16.7511   -5.1756  -15.6180 O   0  0  0  0  0  0  0  0  0  0  0  0
   17.7462   -4.8345  -13.6458 O   0  0  0  0  0  0  0  0  0  0  0  0
  2  1  1  0
  2  3  1  0
  3  4  1  6
  5  3  1  0
  5  6  2  0
  8  7  1  0
  8 10  1  0
  9  8  2  0
 11 10  1  0
 12 11  1  1
 13 12  1  0
 13  5  1  0
 14 15  2  0
 14 12  1  0
 16 17  1  0
 17 19  1  0
 18 17  2  0
 19 20  1  0
 21 20  1  6
 21 22  1  0
 21 23  1  0
 22 14  1  0
 23 25  1  0
 24 23  2  0
M  END
$$$$
