SQQ.pdb
     RDKit          3D

 25 24  0  0  1  0  0  0  0  0999 V2000
   20.4529  -13.1075  -15.2935 O   0  0  0  0  0  0  0  0  0  0  0  0
   20.3342  -11.7610  -15.6476 C   0  0  0  0  0  0  0  0  0  0  0  0
   19.0638  -11.5464  -16.4395 C   0  0  2  0  0  0  0  0  0  0  0  0
   19.0901  -12.2187  -17.6990 N   0  0  0  0  0  0  0  0  0  0  0  0
   18.7493  -10.1238  -16.6063 C   0  0  0  0  0  0  0  0  0  0  0  0
   19.2579   -9.4344  -17.5552 O   0  0  0  0  0  0  0  0  0  0  0  0
   13.3921   -5.3227  -15.7331 N   0  0  0  0  0  0  0  0  0  0  0  0
   14.0793   -6.5121  -15.4106 C   0  0  0  0  0  0  0  0  0  0  0  0
   13.5318   -7.4577  -14.8279 O   0  0  0  0  0  0  0  0  0  0  0  0
   15.5037   -6.5807  -15.8106 C   0  0  0  0  0  0  0  0  0  0  0  0
   16.0860   -7.9227  -15.6069 C   0  0  0  0  0  0  0  0  0  0  0  0
   17.5733   -8.0191  -16.0425 C   0  0  2  0  0  0  0  0  0  0  0  0
   17.8678   -9.4254  -15.7359 N   0  0  0  0  0  0  0  0  0  0  0  0
   18.3488   -7.1065  -15.1665 C   0  0  0  0  0  0  0  0  0  0  0  0
   19.0653   -7.6595  -14.2810 O   0  0  0  0  0  0  0  0  0  0  0  0
   23.4036   -6.4731  -15.7510 N   0  0  0  0  0  0  0  0  0  0  0  0
   23.2553   -5.3576  -14.8652 C   0  0  0  0  0  0  0  0  0  0  0  0
   24.3200   -4.8557  -14.3975 O   0  0  0  0  0  0  0  0  0  0  0  0
   21.9575   -4.7811  -14.4874 C   0  0  0  0  0  0  0  0  0  0  0  0
   20.7549   -5.4913  -15.0077 C   0  0  0  0  0  0  0  0  0  0  0  0
   19.4195   -4.8766  -14.6520 C   0  0  2  0  0  0  0  0  0  0  0  0
   18.3510   -5.7090  -15.2546 N   0  0  0  0  0  0  0  0  0  0  0  0
   19.1597   -3.5043  -14.8979 C   0  0  0  0  0  0  0  0  0  0  0  0
   18.7092   -2.9518  -15.9504 O   0  0  0  0  0  0  0  0  0  0  0  0
   19.4213   -2.5654  -13.8671 O   0  0  0  0  0  0  0  0  0  0  0  0
  2  1  1  0
  2  3  1  0
  3  4  1  6
  5  3  1  0
  5  6  2  0
  8  7  1  0
  8 10  1  0
  9  8  2  0
 11 10  1  0
 12 11  1  1
 13 12  1  0
 13  5  1  0
 14 15  2  0
 14 12  1  0
 16 17  1  0
 17 19  1  0
 18 17  2  0
 19 20  1  0
 21 20  1  6
 21 22  1  0
 21 23  1  0
 22 14  1  0
 23 25  1  0
 24 23  2  0
M  END
$$$$
