SQQ.pdb
     RDKit          3D

 25 24  0  0  1  0  0  0  0  0999 V2000
   18.7923  -14.4765  -15.4755 O   0  0  0  0  0  0  0  0  0  0  0  0
   18.1757  -13.2409  -15.6893 C   0  0  0  0  0  0  0  0  0  0  0  0
   16.6867  -13.3604  -15.4534 C   0  0  2  0  0  0  0  0  0  0  0  0
   16.0413  -14.1509  -16.4522 N   0  0  0  0  0  0  0  0  0  0  0  0
   16.0411  -12.0507  -15.3174 C   0  0  0  0  0  0  0  0  0  0  0  0
   15.7909  -11.3206  -16.3366 O   0  0  0  0  0  0  0  0  0  0  0  0
   12.3699  -10.6675  -10.8041 N   0  0  0  0  0  0  0  0  0  0  0  0
   11.8700  -11.0820  -12.0567 C   0  0  0  0  0  0  0  0  0  0  0  0
   10.7514  -11.5968  -12.1876 O   0  0  0  0  0  0  0  0  0  0  0  0
   12.7547  -10.8660  -13.2248 C   0  0  0  0  0  0  0  0  0  0  0  0
   14.0671  -10.3042  -12.8461 C   0  0  0  0  0  0  0  0  0  0  0  0
   15.0478  -10.1745  -14.0430 C   0  0  2  0  0  0  0  0  0  0  0  0
   15.6538  -11.5127  -14.0592 N   0  0  0  0  0  0  0  0  0  0  0  0
   16.0473   -9.1386  -13.6832 C   0  0  0  0  0  0  0  0  0  0  0  0
   16.7874   -9.3998  -12.6896 O   0  0  0  0  0  0  0  0  0  0  0  0
   21.1600   -9.3431  -14.4933 N   0  0  0  0  0  0  0  0  0  0  0  0
   21.1596   -7.9385  -14.2138 C   0  0  0  0  0  0  0  0  0  0  0  0
   22.2906   -7.3807  -14.0947 O   0  0  0  0  0  0  0  0  0  0  0  0
   19.9382   -7.1348  -14.0670 C   0  0  0  0  0  0  0  0  0  0  0  0
   18.6524   -7.8763  -14.2025 C   0  0  0  0  0  0  0  0  0  0  0  0
   17.3949   -7.0423  -14.0989 C   0  0  2  0  0  0  0  0  0  0  0  0
   16.2314   -7.9243  -14.3558 N   0  0  0  0  0  0  0  0  0  0  0  0
   17.2578   -5.8357  -14.8314 C   0  0  0  0  0  0  0  0  0  0  0  0
   17.6859   -4.6735  -14.5454 O   0  0  0  0  0  0  0  0  0  0  0  0
   16.5522   -5.8614  -16.0619 O   0  0  0  0  0  0  0  0  0  0  0  0
  2  1  1  0
  2  3  1  0
  3  4  1  6
  5  3  1  0
  5  6  2  0
  8  7  1  0
  8 10  1  0
  9  8  2  0
 11 10  1  0
 12 11  1  1
 13 12  1  0
 13  5  1  0
 14 15  2  0
 14 12  1  0
 16 17  1  0
 17 19  1  0
 18 17  2  0
 19 20  1  0
 21 20  1  6
 21 22  1  0
 21 23  1  0
 22 14  1  0
 23 25  1  0
 24 23  2  0
M  END
$$$$
