HCM.pdb
     RDKit          3D

 25 25  0  0  1  0  0  0  0  0999 V2000
   10.8629  -18.9421   19.6116 N   0  0  0  0  0  0  0  0  0  0  0  0
   10.2222  -18.6489   20.8802 C   0  0  1  0  0  0  0  0  0  0  0  0
   11.0861  -19.1964   21.9792 C   0  0  0  0  0  0  0  0  0  0  0  0
   11.0431  -20.6713   21.8974 C   0  0  0  0  0  0  0  0  0  0  0  0
    9.9267  -21.4088   21.5670 C   0  0  0  0  0  0  0  0  0  0  0  0
   10.2193  -22.7185   21.5787 N   0  0  0  0  0  0  0  0  0  0  0  0
   11.5090  -22.8275   21.9125 C   0  0  0  0  0  0  0  0  0  0  0  0
   12.0135  -21.5752   22.1076 N   0  0  0  0  0  0  0  0  0  0  0  0
   10.0384  -17.1787   20.9531 C   0  0  0  0  0  0  0  0  0  0  0  0
   10.9916  -16.3898   20.7485 O   0  0  0  0  0  0  0  0  0  0  0  0
    8.7779  -16.6028   21.2571 N   0  0  0  0  0  0  0  0  0  0  0  0
    8.5158  -15.1865   21.3727 C   0  0  1  0  0  0  0  0  0  0  0  0
    7.0808  -14.9480   20.9611 C   0  0  0  0  0  0  0  0  0  0  0  0
    5.9047  -15.9295   21.8951 S   0  0  0  0  0  0  0  0  0  0  0  0
    8.7700  -14.6735   22.7314 C   0  0  0  0  0  0  0  0  0  0  0  0
    8.7120  -13.4623   23.0079 O   0  0  0  0  0  0  0  0  0  0  0  0
    6.4738  -11.3897   26.5852 C   0  0  0  0  0  0  0  0  0  0  0  0
    7.5792  -12.4944   27.4420 S   0  0  0  0  0  0  0  0  0  0  0  0
    7.5412  -14.2038   26.9632 C   0  0  0  0  0  0  0  0  0  0  0  0
    7.8429  -14.5277   25.5614 C   0  0  0  0  0  0  0  0  0  0  0  0
    9.0141  -15.3188   25.1757 C   0  0  2  0  0  0  0  0  0  0  0  0
    9.0923  -15.5950   23.7618 N   0  0  0  0  0  0  0  0  0  0  0  0
    9.3334  -16.5237   25.9385 C   0  0  0  0  0  0  0  0  0  0  0  0
    9.1412  -17.6569   25.4497 O   0  0  0  0  0  0  0  0  0  0  0  0
    9.8525  -16.4284   27.2121 O   0  0  0  0  0  0  0  0  0  0  0  0
  2  9  1  0
  2  1  1  6
  3  2  1  0
  4  3  1  0
  5  4  2  0
  6  7  1  0
  6  5  1  0
  7  8  2  0
  8  4  1  0
  9 10  2  0
 11 12  1  0
 11  9  1  0
 12 13  1  1
 14 13  1  0
 15 12  1  0
 15 16  2  0
 17 18  1  0
 19 18  1  0
 20 19  1  0
 21 22  1  0
 21 20  1  6
 22 15  1  0
 23 21  1  0
 24 23  2  0
 25 23  1  0
M  END
$$$$
