HCM.pdb
     RDKit          3D

 25 25  0  0  1  0  0  0  0  0999 V2000
    9.4496  -15.9563   20.2725 N   0  0  0  0  0  0  0  0  0  0  0  0
    8.6413  -14.9563   20.9453 C   0  0  1  0  0  0  0  0  0  0  0  0
    7.3454  -14.8217   20.1994 C   0  0  0  0  0  0  0  0  0  0  0  0
    7.6640  -14.5268   18.7868 C   0  0  0  0  0  0  0  0  0  0  0  0
    8.2089  -13.3450   18.3334 C   0  0  0  0  0  0  0  0  0  0  0  0
    8.3783  -13.3959   17.0030 N   0  0  0  0  0  0  0  0  0  0  0  0
    7.9485  -14.5957   16.6003 C   0  0  0  0  0  0  0  0  0  0  0  0
    7.5113  -15.2880   17.6913 N   0  0  0  0  0  0  0  0  0  0  0  0
    8.4685  -15.4000   22.3502 C   0  0  0  0  0  0  0  0  0  0  0  0
    7.6476  -14.8409   23.1161 O   0  0  0  0  0  0  0  0  0  0  0  0
    9.2236  -16.4745   22.8870 N   0  0  0  0  0  0  0  0  0  0  0  0
    9.1882  -16.9105   24.2642 C   0  0  1  0  0  0  0  0  0  0  0  0
    9.9010  -18.2413   24.3451 C   0  0  0  0  0  0  0  0  0  0  0  0
   11.6678  -18.1158   24.0592 S   0  0  0  0  0  0  0  0  0  0  0  0
    9.7923  -15.9288   25.1837 C   0  0  0  0  0  0  0  0  0  0  0  0
   10.7332  -15.1896   24.8446 O   0  0  0  0  0  0  0  0  0  0  0  0
    5.8196  -12.1821   27.4283 C   0  0  0  0  0  0  0  0  0  0  0  0
    7.4330  -11.4813   27.1419 S   0  0  0  0  0  0  0  0  0  0  0  0
    8.7714  -12.6192   26.8836 C   0  0  0  0  0  0  0  0  0  0  0  0
    8.8573  -13.7865   27.7731 C   0  0  0  0  0  0  0  0  0  0  0  0
    9.7637  -14.9066   27.5086 C   0  0  2  0  0  0  0  0  0  0  0  0
    9.2816  -15.8232   26.5039 N   0  0  0  0  0  0  0  0  0  0  0  0
   10.3147  -15.6500   28.6397 C   0  0  0  0  0  0  0  0  0  0  0  0
   10.0992  -16.8740   28.7635 O   0  0  0  0  0  0  0  0  0  0  0  0
   11.0822  -15.0107   29.5898 O   0  0  0  0  0  0  0  0  0  0  0  0
  2  9  1  0
  2  1  1  6
  3  2  1  0
  4  3  1  0
  5  4  2  0
  6  7  1  0
  6  5  1  0
  7  8  2  0
  8  4  1  0
  9 10  2  0
 11 12  1  0
 11  9  1  0
 12 13  1  6
 14 13  1  0
 15 12  1  0
 15 16  2  0
 17 18  1  0
 19 18  1  0
 20 19  1  0
 21 22  1  0
 21 20  1  1
 22 15  1  0
 23 21  1  0
 24 23  2  0
 25 23  1  0
M  END
$$$$
