HCM.pdb
     RDKit          3D

 25 25  0  0  1  0  0  0  0  0999 V2000
    8.8894  -16.9893   18.2864 N   0  0  0  0  0  0  0  0  0  0  0  0
    8.4130  -16.0661   19.2997 C   0  0  1  0  0  0  0  0  0  0  0  0
    7.1230  -15.4674   18.8188 C   0  0  0  0  0  0  0  0  0  0  0  0
    7.4220  -14.6400   17.6315 C   0  0  0  0  0  0  0  0  0  0  0  0
    7.8642  -13.3353   17.6728 C   0  0  0  0  0  0  0  0  0  0  0  0
    8.0444  -12.8699   16.4269 N   0  0  0  0  0  0  0  0  0  0  0  0
    7.7230  -13.8610   15.5896 C   0  0  0  0  0  0  0  0  0  0  0  0
    7.3422  -14.9442   16.3262 N   0  0  0  0  0  0  0  0  0  0  0  0
    8.2722  -16.8308   20.5630 C   0  0  0  0  0  0  0  0  0  0  0  0
    7.7542  -17.9728   20.5817 O   0  0  0  0  0  0  0  0  0  0  0  0
    8.7169  -16.3035   21.8028 N   0  0  0  0  0  0  0  0  0  0  0  0
    8.9014  -17.0686   23.0147 C   0  0  1  0  0  0  0  0  0  0  0  0
    9.9792  -18.0957   22.7520 C   0  0  0  0  0  0  0  0  0  0  0  0
   10.3672  -19.0971   24.1892 S   0  0  0  0  0  0  0  0  0  0  0  0
    9.2468  -16.2215   24.1710 C   0  0  0  0  0  0  0  0  0  0  0  0
   10.2738  -15.5206   24.2003 O   0  0  0  0  0  0  0  0  0  0  0  0
    6.9633  -10.5833   25.9135 C   0  0  0  0  0  0  0  0  0  0  0  0
    7.1288  -12.3427   25.6826 S   0  0  0  0  0  0  0  0  0  0  0  0
    7.1425  -13.3496   27.1450 C   0  0  0  0  0  0  0  0  0  0  0  0
    7.3115  -14.7999   26.9746 C   0  0  0  0  0  0  0  0  0  0  0  0
    8.5537  -15.3887   26.4682 C   0  0  2  0  0  0  0  0  0  0  0  0
    8.3758  -16.2049   25.2917 N   0  0  0  0  0  0  0  0  0  0  0  0
    9.4521  -16.0560   27.4079 C   0  0  0  0  0  0  0  0  0  0  0  0
   10.0413  -15.4060   28.2970 O   0  0  0  0  0  0  0  0  0  0  0  0
    9.6643  -17.4157   27.3276 O   0  0  0  0  0  0  0  0  0  0  0  0
  2  9  1  0
  2  1  1  6
  3  2  1  0
  4  3  1  0
  5  4  2  0
  6  7  1  0
  6  5  1  0
  7  8  2  0
  8  4  1  0
  9 10  2  0
 11 12  1  0
 11  9  1  0
 12 13  1  6
 14 13  1  0
 15 12  1  0
 15 16  2  0
 17 18  1  0
 19 18  1  0
 20 19  1  0
 21 22  1  0
 21 20  1  1
 22 15  1  0
 23 21  1  0
 24 23  2  0
 25 23  1  0
M  END
$$$$
