HCM.pdb
     RDKit          3D

 25 25  0  0  1  0  0  0  0  0999 V2000
    9.9548  -17.8783   18.5412 N   0  0  0  0  0  0  0  0  0  0  0  0
    8.6025  -17.3528   18.5733 C   0  0  1  0  0  0  0  0  0  0  0  0
    7.7499  -18.1976   17.6715 C   0  0  0  0  0  0  0  0  0  0  0  0
    8.1669  -17.9365   16.2780 C   0  0  0  0  0  0  0  0  0  0  0  0
    8.8506  -18.8290   15.4811 C   0  0  0  0  0  0  0  0  0  0  0  0
    9.0752  -18.2899   14.2727 N   0  0  0  0  0  0  0  0  0  0  0  0
    8.5435  -17.0637   14.2873 C   0  0  0  0  0  0  0  0  0  0  0  0
    7.9876  -16.8470   15.5141 N   0  0  0  0  0  0  0  0  0  0  0  0
    8.1564  -17.3668   19.9880 C   0  0  0  0  0  0  0  0  0  0  0  0
    6.9870  -17.0461   20.3080 O   0  0  0  0  0  0  0  0  0  0  0  0
    9.0328  -17.7431   21.0384 N   0  0  0  0  0  0  0  0  0  0  0  0
    8.6760  -17.8082   22.4372 C   0  0  1  0  0  0  0  0  0  0  0  0
    9.3027  -19.0566   23.0153 C   0  0  0  0  0  0  0  0  0  0  0  0
   11.0899  -18.9587   23.1392 S   0  0  0  0  0  0  0  0  0  0  0  0
    9.0970  -16.6088   23.1845 C   0  0  0  0  0  0  0  0  0  0  0  0
   10.1094  -15.9546   22.8784 O   0  0  0  0  0  0  0  0  0  0  0  0
    6.3981  -10.6154   27.6771 C   0  0  0  0  0  0  0  0  0  0  0  0
    6.2172  -12.0292   26.6072 S   0  0  0  0  0  0  0  0  0  0  0  0
    7.6577  -13.0350   26.3504 C   0  0  0  0  0  0  0  0  0  0  0  0
    7.5407  -14.1735   25.4277 C   0  0  0  0  0  0  0  0  0  0  0  0
    8.6539  -15.0908   25.1719 C   0  0  2  0  0  0  0  0  0  0  0  0
    8.3187  -16.1851   24.2933 N   0  0  0  0  0  0  0  0  0  0  0  0
    9.4379  -15.5810   26.3036 C   0  0  0  0  0  0  0  0  0  0  0  0
    9.3133  -16.7579   26.7030 O   0  0  0  0  0  0  0  0  0  0  0  0
   10.3288  -14.7507   26.9495 O   0  0  0  0  0  0  0  0  0  0  0  0
  2  9  1  0
  2  1  1  1
  3  2  1  0
  4  3  1  0
  5  4  2  0
  6  7  1  0
  6  5  1  0
  7  8  2  0
  8  4  1  0
  9 10  2  0
 11 12  1  0
 11  9  1  0
 12 13  1  1
 14 13  1  0
 15 12  1  0
 15 16  2  0
 17 18  1  0
 19 18  1  0
 20 19  1  0
 21 22  1  0
 21 20  1  1
 22 15  1  0
 23 21  1  0
 24 23  2  0
 25 23  1  0
M  END
$$$$
