HCM.pdb
     RDKit          3D

 25 25  0  0  1  0  0  0  0  0999 V2000
   10.0234  -16.0355   19.8965 N   0  0  0  0  0  0  0  0  0  0  0  0
   10.1186  -16.9218   21.0417 C   0  0  1  0  0  0  0  0  0  0  0  0
   11.4657  -17.5839   21.0111 C   0  0  0  0  0  0  0  0  0  0  0  0
   11.4045  -18.6910   20.0342 C   0  0  0  0  0  0  0  0  0  0  0  0
   10.2851  -19.4527   19.7773 C   0  0  0  0  0  0  0  0  0  0  0  0
   10.5582  -20.3714   18.8377 N   0  0  0  0  0  0  0  0  0  0  0  0
   11.8383  -20.2063   18.4906 C   0  0  0  0  0  0  0  0  0  0  0  0
   12.3566  -19.1783   19.2224 N   0  0  0  0  0  0  0  0  0  0  0  0
    9.8940  -16.1002   22.2562 C   0  0  0  0  0  0  0  0  0  0  0  0
   10.7852  -15.3411   22.7060 O   0  0  0  0  0  0  0  0  0  0  0  0
    8.6628  -16.1382   22.9602 N   0  0  0  0  0  0  0  0  0  0  0  0
    8.4664  -15.6869   24.3188 C   0  0  1  0  0  0  0  0  0  0  0  0
    6.9830  -15.7270   24.6082 C   0  0  0  0  0  0  0  0  0  0  0  0
    6.5524  -15.0097   26.1953 S   0  0  0  0  0  0  0  0  0  0  0  0
    9.2193  -16.4934   25.2969 C   0  0  0  0  0  0  0  0  0  0  0  0
    9.4693  -17.6981   25.1153 O   0  0  0  0  0  0  0  0  0  0  0  0
    9.0616  -12.2964   27.6121 C   0  0  0  0  0  0  0  0  0  0  0  0
   10.1563  -12.9572   28.8536 S   0  0  0  0  0  0  0  0  0  0  0  0
   11.2578  -14.2550   28.3484 C   0  0  0  0  0  0  0  0  0  0  0  0
   10.8474  -15.6415   28.6134 C   0  0  0  0  0  0  0  0  0  0  0  0
   10.3920  -16.5396   27.5493 C   0  0  2  0  0  0  0  0  0  0  0  0
    9.6758  -15.8727   26.4890 N   0  0  0  0  0  0  0  0  0  0  0  0
    9.7042  -17.7757   27.9162 C   0  0  0  0  0  0  0  0  0  0  0  0
    8.5826  -18.0468   27.4382 O   0  0  0  0  0  0  0  0  0  0  0  0
   10.2834  -18.6635   28.7976 O   0  0  0  0  0  0  0  0  0  0  0  0
  2  9  1  0
  2  1  1  6
  3  2  1  0
  4  3  1  0
  5  4  2  0
  6  7  1  0
  6  5  1  0
  7  8  2  0
  8  4  1  0
  9 10  2  0
 11 12  1  0
 11  9  1  0
 12 13  1  1
 14 13  1  0
 15 12  1  0
 15 16  2  0
 17 18  1  0
 19 18  1  0
 20 19  1  0
 21 22  1  0
 21 20  1  1
 22 15  1  0
 23 21  1  0
 24 23  2  0
 25 23  1  0
M  END
$$$$
