HCM.pdb
     RDKit          3D

 25 25  0  0  1  0  0  0  0  0999 V2000
    8.9463  -17.2308   18.0760 N   0  0  0  0  0  0  0  0  0  0  0  0
    8.7189  -16.2212   19.0933 C   0  0  1  0  0  0  0  0  0  0  0  0
    7.5211  -15.4109   18.6899 C   0  0  0  0  0  0  0  0  0  0  0  0
    7.8573  -14.6957   17.4412 C   0  0  0  0  0  0  0  0  0  0  0  0
    8.5001  -13.4781   17.3806 C   0  0  0  0  0  0  0  0  0  0  0  0
    8.6582  -13.1035   16.1015 N   0  0  0  0  0  0  0  0  0  0  0  0
    8.1245  -14.0665   15.3437 C   0  0  0  0  0  0  0  0  0  0  0  0
    7.6343  -15.0409   16.1630 N   0  0  0  0  0  0  0  0  0  0  0  0
    8.5434  -16.9278   20.3858 C   0  0  0  0  0  0  0  0  0  0  0  0
    7.9380  -18.0240   20.4546 O   0  0  0  0  0  0  0  0  0  0  0  0
    9.0524  -16.3942   21.5979 N   0  0  0  0  0  0  0  0  0  0  0  0
    9.0430  -17.0716   22.8743 C   0  0  1  0  0  0  0  0  0  0  0  0
    9.8334  -18.3515   22.7229 C   0  0  0  0  0  0  0  0  0  0  0  0
   10.1099  -19.2002   24.2793 S   0  0  0  0  0  0  0  0  0  0  0  0
    9.5880  -16.2374   23.9611 C   0  0  0  0  0  0  0  0  0  0  0  0
   10.7479  -15.7892   23.9393 O   0  0  0  0  0  0  0  0  0  0  0  0
    5.1470  -11.7236   28.0300 C   0  0  0  0  0  0  0  0  0  0  0  0
    6.2888  -11.6468   26.6637 S   0  0  0  0  0  0  0  0  0  0  0  0
    7.7384  -12.6671   26.7667 C   0  0  0  0  0  0  0  0  0  0  0  0
    7.8126  -13.8401   25.8837 C   0  0  0  0  0  0  0  0  0  0  0  0
    8.9221  -14.7948   25.9426 C   0  0  2  0  0  0  0  0  0  0  0  0
    8.7589  -15.9343   25.0727 N   0  0  0  0  0  0  0  0  0  0  0  0
    9.4092  -15.2301   27.2499 C   0  0  0  0  0  0  0  0  0  0  0  0
    9.7670  -14.3949   28.1070 O   0  0  0  0  0  0  0  0  0  0  0  0
    9.4818  -16.5717   27.5583 O   0  0  0  0  0  0  0  0  0  0  0  0
  2  9  1  0
  2  1  1  6
  3  2  1  0
  4  3  1  0
  5  4  2  0
  6  7  1  0
  6  5  1  0
  7  8  2  0
  8  4  1  0
  9 10  2  0
 11 12  1  0
 11  9  1  0
 12 13  1  6
 14 13  1  0
 15 12  1  0
 15 16  2  0
 17 18  1  0
 19 18  1  0
 20 19  1  0
 21 22  1  0
 21 20  1  1
 22 15  1  0
 23 21  1  0
 24 23  2  0
 25 23  1  0
M  END
$$$$
