HCM.pdb
     RDKit          3D

 25 25  0  0  1  0  0  0  0  0999 V2000
    9.3221  -16.4794   19.0077 N   0  0  0  0  0  0  0  0  0  0  0  0
    8.2318  -15.5219   18.9865 C   0  0  1  0  0  0  0  0  0  0  0  0
    7.2979  -15.8996   17.8734 C   0  0  0  0  0  0  0  0  0  0  0  0
    8.0361  -15.7721   16.5995 C   0  0  0  0  0  0  0  0  0  0  0  0
    9.3818  -15.4943   16.4944 C   0  0  0  0  0  0  0  0  0  0  0  0
    9.7436  -15.4485   15.2028 N   0  0  0  0  0  0  0  0  0  0  0  0
    8.6458  -15.6937   14.4808 C   0  0  0  0  0  0  0  0  0  0  0  0
    7.6007  -15.8918   15.3350 N   0  0  0  0  0  0  0  0  0  0  0  0
    7.5934  -15.5495   20.3253 C   0  0  0  0  0  0  0  0  0  0  0  0
    6.4556  -15.0581   20.5173 O   0  0  0  0  0  0  0  0  0  0  0  0
    8.2421  -16.1322   21.4445 N   0  0  0  0  0  0  0  0  0  0  0  0
    7.6376  -16.3439   22.7398 C   0  0  1  0  0  0  0  0  0  0  0  0
    6.4028  -17.1929   22.5392 C   0  0  0  0  0  0  0  0  0  0  0  0
    5.7075  -17.8043   24.0761 S   0  0  0  0  0  0  0  0  0  0  0  0
    8.5633  -16.9730   23.6998 C   0  0  0  0  0  0  0  0  0  0  0  0
    9.4249  -17.7992   23.3507 O   0  0  0  0  0  0  0  0  0  0  0  0
   11.0085  -12.8642   30.1303 C   0  0  0  0  0  0  0  0  0  0  0  0
    9.7845  -13.4412   28.9705 S   0  0  0  0  0  0  0  0  0  0  0  0
   10.2927  -14.6937   27.8190 C   0  0  0  0  0  0  0  0  0  0  0  0
    9.2872  -15.2027   26.8751 C   0  0  0  0  0  0  0  0  0  0  0  0
    9.5833  -16.2709   25.9173 C   0  0  2  0  0  0  0  0  0  0  0  0
    8.4682  -16.6230   25.0721 N   0  0  0  0  0  0  0  0  0  0  0  0
   10.2501  -17.4807   26.3942 C   0  0  0  0  0  0  0  0  0  0  0  0
    9.6069  -18.5378   26.5647 O   0  0  0  0  0  0  0  0  0  0  0  0
   11.6019  -17.4743   26.6644 O   0  0  0  0  0  0  0  0  0  0  0  0
  2  9  1  0
  2  1  1  1
  3  2  1  0
  4  3  1  0
  5  4  2  0
  6  7  1  0
  6  5  1  0
  7  8  2  0
  8  4  1  0
  9 10  2  0
 11 12  1  0
 11  9  1  0
 12 13  1  6
 14 13  1  0
 15 12  1  0
 15 16  2  0
 17 18  1  0
 19 18  1  0
 20 19  1  0
 21 22  1  0
 21 20  1  1
 22 15  1  0
 23 21  1  0
 24 23  2  0
 25 23  1  0
M  END
$$$$
