HCM.pdb
     RDKit          3D

 25 25  0  0  1  0  0  0  0  0999 V2000
    8.2653  -17.3834   18.7465 N   0  0  0  0  0  0  0  0  0  0  0  0
    8.3955  -16.2709   19.6693 C   0  0  1  0  0  0  0  0  0  0  0  0
    7.3010  -15.2866   19.3741 C   0  0  0  0  0  0  0  0  0  0  0  0
    7.6933  -14.5189   18.1739 C   0  0  0  0  0  0  0  0  0  0  0  0
    8.4112  -13.3427   18.1922 C   0  0  0  0  0  0  0  0  0  0  0  0
    8.6049  -12.9012   16.9396 N   0  0  0  0  0  0  0  0  0  0  0  0
    8.0197  -13.7808   16.1208 C   0  0  0  0  0  0  0  0  0  0  0  0
    7.4618  -14.7708   16.8755 N   0  0  0  0  0  0  0  0  0  0  0  0
    8.3326  -16.8267   21.0432 C   0  0  0  0  0  0  0  0  0  0  0  0
    7.2854  -17.3549   21.4874 O   0  0  0  0  0  0  0  0  0  0  0  0
    9.4530  -16.7846   21.9125 N   0  0  0  0  0  0  0  0  0  0  0  0
    9.4658  -17.2581   23.2777 C   0  0  1  0  0  0  0  0  0  0  0  0
   10.5394  -18.3167   23.3886 C   0  0  0  0  0  0  0  0  0  0  0  0
   10.7732  -18.9140   25.0642 S   0  0  0  0  0  0  0  0  0  0  0  0
    9.6888  -16.1727   24.2505 C   0  0  0  0  0  0  0  0  0  0  0  0
   10.5818  -15.3196   24.1036 O   0  0  0  0  0  0  0  0  0  0  0  0
    6.3907  -11.2288   25.7939 C   0  0  0  0  0  0  0  0  0  0  0  0
    6.6423  -11.8640   27.4399 S   0  0  0  0  0  0  0  0  0  0  0  0
    7.8302  -13.1705   27.6265 C   0  0  0  0  0  0  0  0  0  0  0  0
    7.8902  -14.1952   26.5741 C   0  0  0  0  0  0  0  0  0  0  0  0
    9.0011  -15.1443   26.4686 C   0  0  2  0  0  0  0  0  0  0  0  0
    8.8542  -16.0983   25.3962 N   0  0  0  0  0  0  0  0  0  0  0  0
    9.4690  -15.8194   27.6772 C   0  0  0  0  0  0  0  0  0  0  0  0
    9.4270  -17.0644   27.7684 O   0  0  0  0  0  0  0  0  0  0  0  0
    9.9645  -15.0916   28.7379 O   0  0  0  0  0  0  0  0  0  0  0  0
  2  9  1  0
  2  1  1  6
  3  2  1  0
  4  3  1  0
  5  4  2  0
  6  7  1  0
  6  5  1  0
  7  8  2  0
  8  4  1  0
  9 10  2  0
 11 12  1  0
 11  9  1  0
 12 13  1  6
 14 13  1  0
 15 12  1  0
 15 16  2  0
 17 18  1  0
 19 18  1  0
 20 19  1  0
 21 22  1  0
 21 20  1  1
 22 15  1  0
 23 21  1  0
 24 23  2  0
 25 23  1  0
M  END
$$$$
