HCM.pdb
     RDKit          3D

 25 25  0  0  1  0  0  0  0  0999 V2000
   10.2625  -17.9738   19.1445 N   0  0  0  0  0  0  0  0  0  0  0  0
    9.1067  -17.8677   20.0156 C   0  0  1  0  0  0  0  0  0  0  0  0
    8.7905  -19.2371   20.5436 C   0  0  0  0  0  0  0  0  0  0  0  0
    7.9652  -19.9327   19.5342 C   0  0  0  0  0  0  0  0  0  0  0  0
    7.9624  -19.6449   18.1864 C   0  0  0  0  0  0  0  0  0  0  0  0
    7.1080  -20.4562   17.5436 N   0  0  0  0  0  0  0  0  0  0  0  0
    6.5647  -21.2591   18.4638 C   0  0  0  0  0  0  0  0  0  0  0  0
    7.0888  -20.9391   19.6819 N   0  0  0  0  0  0  0  0  0  0  0  0
    9.4434  -16.8901   21.0793 C   0  0  0  0  0  0  0  0  0  0  0  0
   10.6341  -16.6221   21.3679 O   0  0  0  0  0  0  0  0  0  0  0  0
    8.4338  -16.2172   21.8148 N   0  0  0  0  0  0  0  0  0  0  0  0
    8.6687  -15.3273   22.9289 C   0  0  1  0  0  0  0  0  0  0  0  0
    7.4347  -14.4716   23.1036 C   0  0  0  0  0  0  0  0  0  0  0  0
    7.5350  -13.3650   24.5123 S   0  0  0  0  0  0  0  0  0  0  0  0
    8.9924  -16.0511   24.1721 C   0  0  0  0  0  0  0  0  0  0  0  0
    8.2665  -16.9532   24.6260 O   0  0  0  0  0  0  0  0  0  0  0  0
    9.2051  -12.8093   29.7104 C   0  0  0  0  0  0  0  0  0  0  0  0
    9.8301  -13.4462   28.1677 S   0  0  0  0  0  0  0  0  0  0  0  0
    8.9181  -14.7702   27.4139 C   0  0  0  0  0  0  0  0  0  0  0  0
    9.6094  -16.0532   27.2214 C   0  0  0  0  0  0  0  0  0  0  0  0
   10.5788  -16.2658   26.1438 C   0  0  2  0  0  0  0  0  0  0  0  0
   10.1753  -15.7062   24.8766 N   0  0  0  0  0  0  0  0  0  0  0  0
   11.1307  -17.6043   25.9458 C   0  0  0  0  0  0  0  0  0  0  0  0
   11.1538  -18.1223   24.8094 O   0  0  0  0  0  0  0  0  0  0  0  0
   11.6350  -18.3180   27.0119 O   0  0  0  0  0  0  0  0  0  0  0  0
  2  9  1  0
  2  1  1  6
  3  2  1  0
  4  3  1  0
  5  4  2  0
  6  7  1  0
  6  5  1  0
  7  8  2  0
  8  4  1  0
  9 10  2  0
 11 12  1  0
 11  9  1  0
 12 13  1  1
 14 13  1  0
 15 12  1  0
 15 16  2  0
 17 18  1  0
 19 18  1  0
 20 19  1  0
 21 22  1  0
 21 20  1  1
 22 15  1  0
 23 21  1  0
 24 23  2  0
 25 23  1  0
M  END
$$$$
