HCM.pdb
     RDKit          3D

 25 25  0  0  1  0  0  0  0  0999 V2000
   10.7261  -18.0716   19.2712 N   0  0  0  0  0  0  0  0  0  0  0  0
   10.8872  -18.4617   20.6597 C   0  0  1  0  0  0  0  0  0  0  0  0
   12.3350  -18.3068   21.0252 C   0  0  0  0  0  0  0  0  0  0  0  0
   13.0788  -19.4296   20.4169 C   0  0  0  0  0  0  0  0  0  0  0  0
   14.2095  -19.2956   19.6407 C   0  0  0  0  0  0  0  0  0  0  0  0
   14.6430  -20.5026   19.2452 N   0  0  0  0  0  0  0  0  0  0  0  0
   13.8033  -21.4067   19.7590 C   0  0  0  0  0  0  0  0  0  0  0  0
   12.8460  -20.7506   20.4761 N   0  0  0  0  0  0  0  0  0  0  0  0
    9.9817  -17.6075   21.4666 C   0  0  0  0  0  0  0  0  0  0  0  0
    9.7096  -16.4333   21.1201 O   0  0  0  0  0  0  0  0  0  0  0  0
    9.3857  -18.0818   22.6636 N   0  0  0  0  0  0  0  0  0  0  0  0
    8.5039  -17.3161   23.5145 C   0  0  1  0  0  0  0  0  0  0  0  0
    7.2851  -18.1645   23.7980 C   0  0  0  0  0  0  0  0  0  0  0  0
    7.6597  -19.6520   24.7286 S   0  0  0  0  0  0  0  0  0  0  0  0
    9.1557  -16.8896   24.7664 C   0  0  0  0  0  0  0  0  0  0  0  0
   10.2039  -17.4131   25.1836 O   0  0  0  0  0  0  0  0  0  0  0  0
    6.3155  -10.7123   25.6270 C   0  0  0  0  0  0  0  0  0  0  0  0
    7.0272  -11.7433   26.8946 S   0  0  0  0  0  0  0  0  0  0  0  0
    8.1833  -12.9842   26.3691 C   0  0  0  0  0  0  0  0  0  0  0  0
    8.3980  -14.1374   27.2552 C   0  0  0  0  0  0  0  0  0  0  0  0
    9.0498  -15.3664   26.7960 C   0  0  2  0  0  0  0  0  0  0  0  0
    8.5661  -15.8433   25.5231 N   0  0  0  0  0  0  0  0  0  0  0  0
    9.1863  -16.4830   27.7288 C   0  0  0  0  0  0  0  0  0  0  0  0
    8.4008  -17.4530   27.6808 O   0  0  0  0  0  0  0  0  0  0  0  0
   10.1856  -16.4833   28.6784 O   0  0  0  0  0  0  0  0  0  0  0  0
  2  9  1  0
  2  1  1  6
  3  2  1  0
  4  3  1  0
  5  4  2  0
  6  7  1  0
  6  5  1  0
  7  8  2  0
  8  4  1  0
  9 10  2  0
 11 12  1  0
 11  9  1  0
 12 13  1  1
 14 13  1  0
 15 12  1  0
 15 16  2  0
 17 18  1  0
 19 18  1  0
 20 19  1  0
 21 22  1  0
 21 20  1  1
 22 15  1  0
 23 21  1  0
 24 23  2  0
 25 23  1  0
M  END
$$$$
