HCM.pdb
     RDKit          3D

 25 25  0  0  1  0  0  0  0  0999 V2000
    8.5754  -16.1484   19.7455 N   0  0  0  0  0  0  0  0  0  0  0  0
    8.0559  -15.1363   20.6465 C   0  0  1  0  0  0  0  0  0  0  0  0
    6.9043  -14.4521   19.9687 C   0  0  0  0  0  0  0  0  0  0  0  0
    7.3984  -13.8865   18.6960 C   0  0  0  0  0  0  0  0  0  0  0  0
    8.2871  -12.8382   18.5934 C   0  0  0  0  0  0  0  0  0  0  0  0
    8.5349  -12.5685   17.3022 N   0  0  0  0  0  0  0  0  0  0  0  0
    7.8156  -13.4315   16.5781 C   0  0  0  0  0  0  0  0  0  0  0  0
    7.1200  -14.2381   17.4304 N   0  0  0  0  0  0  0  0  0  0  0  0
    7.6753  -15.8201   21.9067 C   0  0  0  0  0  0  0  0  0  0  0  0
    6.6082  -15.5427   22.5045 O   0  0  0  0  0  0  0  0  0  0  0  0
    8.5012  -16.8159   22.4890 N   0  0  0  0  0  0  0  0  0  0  0  0
    8.3193  -17.3829   23.8057 C   0  0  1  0  0  0  0  0  0  0  0  0
    7.7247  -18.7624   23.6356 C   0  0  0  0  0  0  0  0  0  0  0  0
    7.6384  -19.6895   25.1692 S   0  0  0  0  0  0  0  0  0  0  0  0
    9.5754  -17.4382   24.5759 C   0  0  0  0  0  0  0  0  0  0  0  0
   10.6295  -17.8946   24.0993 O   0  0  0  0  0  0  0  0  0  0  0  0
    9.4278  -14.0811   30.4306 C   0  0  0  0  0  0  0  0  0  0  0  0
   10.0373  -13.3545   28.9217 S   0  0  0  0  0  0  0  0  0  0  0  0
   10.2492  -14.4402   27.5328 C   0  0  0  0  0  0  0  0  0  0  0  0
   10.6264  -15.8345   27.8065 C   0  0  0  0  0  0  0  0  0  0  0  0
   10.7542  -16.8336   26.7428 C   0  0  2  0  0  0  0  0  0  0  0  0
    9.5822  -16.9531   25.9098 N   0  0  0  0  0  0  0  0  0  0  0  0
   11.2649  -18.1608   27.0798 C   0  0  0  0  0  0  0  0  0  0  0  0
   10.4814  -19.1098   27.2932 O   0  0  0  0  0  0  0  0  0  0  0  0
   12.6220  -18.3866   27.1679 O   0  0  0  0  0  0  0  0  0  0  0  0
  2  9  1  0
  2  1  1  6
  3  2  1  0
  4  3  1  0
  5  4  2  0
  6  7  1  0
  6  5  1  0
  7  8  2  0
  8  4  1  0
  9 10  2  0
 11 12  1  0
 11  9  1  0
 12 13  1  6
 14 13  1  0
 15 12  1  0
 15 16  2  0
 17 18  1  0
 19 18  1  0
 20 19  1  0
 21 22  1  0
 21 20  1  1
 22 15  1  0
 23 21  1  0
 24 23  2  0
 25 23  1  0
M  END
$$$$
