HCM.pdb
     RDKit          3D

 25 25  0  0  1  0  0  0  0  0999 V2000
    9.0941  -17.8187   20.1221 N   0  0  0  0  0  0  0  0  0  0  0  0
   10.0396  -16.7252   20.2496 C   0  0  1  0  0  0  0  0  0  0  0  0
    9.8073  -15.7701   19.1149 C   0  0  0  0  0  0  0  0  0  0  0  0
   10.0042  -16.5108   17.8514 C   0  0  0  0  0  0  0  0  0  0  0  0
    9.0967  -16.5542   16.8152 C   0  0  0  0  0  0  0  0  0  0  0  0
    9.5761  -17.3082   15.8137 N   0  0  0  0  0  0  0  0  0  0  0  0
   10.7789  -17.7473   16.1968 C   0  0  0  0  0  0  0  0  0  0  0  0
   11.0414  -17.2597   17.4435 N   0  0  0  0  0  0  0  0  0  0  0  0
    9.8312  -16.1143   21.5852 C   0  0  0  0  0  0  0  0  0  0  0  0
   10.4707  -15.0975   21.9460 O   0  0  0  0  0  0  0  0  0  0  0  0
    8.9008  -16.6537   22.5106 N   0  0  0  0  0  0  0  0  0  0  0  0
    8.7701  -16.2486   23.8915 C   0  0  1  0  0  0  0  0  0  0  0  0
    7.3374  -16.4908   24.3094 C   0  0  0  0  0  0  0  0  0  0  0  0
    6.9901  -15.9570   25.9868 S   0  0  0  0  0  0  0  0  0  0  0  0
    9.7087  -16.9580   24.7802 C   0  0  0  0  0  0  0  0  0  0  0  0
    9.9694  -18.1665   24.6453 O   0  0  0  0  0  0  0  0  0  0  0  0
   10.0425  -12.4802   29.7278 C   0  0  0  0  0  0  0  0  0  0  0  0
   10.8729  -13.3566   28.4169 S   0  0  0  0  0  0  0  0  0  0  0  0
   11.2470  -15.0686   28.7030 C   0  0  0  0  0  0  0  0  0  0  0  0
   11.9236  -15.8092   27.6283 C   0  0  0  0  0  0  0  0  0  0  0  0
   11.2303  -16.8054   26.8080 C   0  0  2  0  0  0  0  0  0  0  0  0
   10.3379  -16.2358   25.8277 N   0  0  0  0  0  0  0  0  0  0  0  0
   10.5880  -17.9396   27.4690 C   0  0  0  0  0  0  0  0  0  0  0  0
   11.2679  -18.7843   28.0889 O   0  0  0  0  0  0  0  0  0  0  0  0
    9.2192  -18.0954   27.4183 O   0  0  0  0  0  0  0  0  0  0  0  0
  2  9  1  0
  2  1  1  6
  3  2  1  0
  4  3  1  0
  5  4  2  0
  6  7  1  0
  6  5  1  0
  7  8  2  0
  8  4  1  0
  9 10  2  0
 11 12  1  0
 11  9  1  0
 12 13  1  1
 14 13  1  0
 15 12  1  0
 15 16  2  0
 17 18  1  0
 19 18  1  0
 20 19  1  0
 21 22  1  0
 21 20  1  1
 22 15  1  0
 23 21  1  0
 24 23  2  0
 25 23  1  0
M  END
$$$$
