HCM.pdb
     RDKit          3D

 25 25  0  0  1  0  0  0  0  0999 V2000
    6.9893  -16.6159   19.9488 N   0  0  0  0  0  0  0  0  0  0  0  0
    7.5374  -15.6201   20.8511 C   0  0  1  0  0  0  0  0  0  0  0  0
    7.0574  -14.2692   20.4054 C   0  0  0  0  0  0  0  0  0  0  0  0
    7.7416  -13.9406   19.1375 C   0  0  0  0  0  0  0  0  0  0  0  0
    7.1171  -13.4534   18.0097 C   0  0  0  0  0  0  0  0  0  0  0  0
    8.0166  -13.2561   17.0334 N   0  0  0  0  0  0  0  0  0  0  0  0
    9.2085  -13.6111   17.5231 C   0  0  0  0  0  0  0  0  0  0  0  0
    9.0408  -14.0300   18.8104 N   0  0  0  0  0  0  0  0  0  0  0  0
    7.0992  -15.9775   22.2225 C   0  0  0  0  0  0  0  0  0  0  0  0
    5.9827  -15.6183   22.6665 O   0  0  0  0  0  0  0  0  0  0  0  0
    7.9237  -16.7400   23.0895 N   0  0  0  0  0  0  0  0  0  0  0  0
    7.6702  -16.9659   24.4941 C   0  0  1  0  0  0  0  0  0  0  0  0
    7.5920  -18.4596   24.7141 C   0  0  0  0  0  0  0  0  0  0  0  0
    7.4535  -18.9134   26.4444 S   0  0  0  0  0  0  0  0  0  0  0  0
    8.6965  -16.3556   25.3592 C   0  0  0  0  0  0  0  0  0  0  0  0
    9.9136  -16.5349   25.1771 O   0  0  0  0  0  0  0  0  0  0  0  0
    6.3282  -12.2126   25.6681 C   0  0  0  0  0  0  0  0  0  0  0  0
    7.1217  -11.6457   27.1598 S   0  0  0  0  0  0  0  0  0  0  0  0
    8.6466  -12.4355   27.6115 C   0  0  0  0  0  0  0  0  0  0  0  0
    8.5768  -13.8078   28.1340 C   0  0  0  0  0  0  0  0  0  0  0  0
    9.1600  -14.9470   27.4211 C   0  0  2  0  0  0  0  0  0  0  0  0
    8.2807  -15.5334   26.4389 N   0  0  0  0  0  0  0  0  0  0  0  0
    9.8197  -15.9985   28.1922 C   0  0  0  0  0  0  0  0  0  0  0  0
    9.4003  -17.1745   28.1550 O   0  0  0  0  0  0  0  0  0  0  0  0
   10.9172  -15.7087   28.9744 O   0  0  0  0  0  0  0  0  0  0  0  0
  2  9  1  0
  2  1  1  6
  3  2  1  0
  4  3  1  0
  5  4  2  0
  6  7  1  0
  6  5  1  0
  7  8  2  0
  8  4  1  0
  9 10  2  0
 11 12  1  0
 11  9  1  0
 12 13  1  6
 14 13  1  0
 15 12  1  0
 15 16  2  0
 17 18  1  0
 19 18  1  0
 20 19  1  0
 21 22  1  0
 21 20  1  1
 22 15  1  0
 23 21  1  0
 24 23  2  0
 25 23  1  0
M  END
$$$$
