HCM.pdb
     RDKit          3D

 25 25  0  0  1  0  0  0  0  0999 V2000
   11.5347  -16.2665   18.0783 N   0  0  0  0  0  0  0  0  0  0  0  0
   11.7813  -15.8208   19.4372 C   0  0  1  0  0  0  0  0  0  0  0  0
   12.0846  -14.3509   19.4005 C   0  0  0  0  0  0  0  0  0  0  0  0
   13.5275  -14.1926   19.1234 C   0  0  0  0  0  0  0  0  0  0  0  0
   14.5387  -14.5510   19.9885 C   0  0  0  0  0  0  0  0  0  0  0  0
   15.7329  -14.2812   19.4387 N   0  0  0  0  0  0  0  0  0  0  0  0
   15.4977  -13.7547   18.2329 C   0  0  0  0  0  0  0  0  0  0  0  0
   14.1485  -13.7003   18.0395 N   0  0  0  0  0  0  0  0  0  0  0  0
   10.5769  -16.1535   20.2368 C   0  0  0  0  0  0  0  0  0  0  0  0
    9.4297  -15.8091   19.8651 O   0  0  0  0  0  0  0  0  0  0  0  0
   10.6713  -16.8746   21.4550 N   0  0  0  0  0  0  0  0  0  0  0  0
    9.5603  -17.1921   22.3227 C   0  0  1  0  0  0  0  0  0  0  0  0
    9.6251  -18.6704   22.6327 C   0  0  0  0  0  0  0  0  0  0  0  0
    8.4524  -19.1813   23.8908 S   0  0  0  0  0  0  0  0  0  0  0  0
    9.5621  -16.3903   23.5601 C   0  0  0  0  0  0  0  0  0  0  0  0
   10.5935  -16.1982   24.2279 O   0  0  0  0  0  0  0  0  0  0  0  0
    6.0120  -10.8897   27.6552 C   0  0  0  0  0  0  0  0  0  0  0  0
    7.0069  -12.3001   27.2114 S   0  0  0  0  0  0  0  0  0  0  0  0
    6.8895  -12.8736   25.5350 C   0  0  0  0  0  0  0  0  0  0  0  0
    6.9195  -14.3254   25.3057 C   0  0  0  0  0  0  0  0  0  0  0  0
    8.1728  -15.0806   25.2350 C   0  0  2  0  0  0  0  0  0  0  0  0
    8.3427  -15.8164   24.0056 N   0  0  0  0  0  0  0  0  0  0  0  0
    8.5600  -15.9123   26.3725 C   0  0  0  0  0  0  0  0  0  0  0  0
    8.1004  -17.0663   26.5038 O   0  0  0  0  0  0  0  0  0  0  0  0
    9.4399  -15.4354   27.3206 O   0  0  0  0  0  0  0  0  0  0  0  0
  2  9  1  0
  2  1  1  6
  3  2  1  0
  4  3  1  0
  5  4  2  0
  6  7  1  0
  6  5  1  0
  7  8  2  0
  8  4  1  0
  9 10  2  0
 11 12  1  0
 11  9  1  0
 12 13  1  1
 14 13  1  0
 15 12  1  0
 15 16  2  0
 17 18  1  0
 19 18  1  0
 20 19  1  0
 21 22  1  0
 21 20  1  1
 22 15  1  0
 23 21  1  0
 24 23  2  0
 25 23  1  0
M  END
$$$$
