KVR.pdb
     RDKit          3D

 28 27  0  0  1  0  0  0  0  0999 V2000
    3.8316  -16.8429   23.0243 N   0  0  0  0  0  0  0  0  0  0  0  0
    4.9474  -17.6025   23.4775 C   0  0  1  0  0  0  0  0  0  0  0  0
    5.1520  -18.8669   22.6850 C   0  0  0  0  0  0  0  0  0  0  0  0
    4.4071  -20.0495   23.1986 C   0  0  0  0  0  0  0  0  0  0  0  0
    4.6224  -21.3271   22.4702 C   0  0  0  0  0  0  0  0  0  0  0  0
    3.7599  -22.4584   22.9845 C   0  0  0  0  0  0  0  0  0  0  0  0
    4.1728  -23.6455   22.2272 N   0  0  0  0  0  0  0  0  0  0  0  0
    6.2358  -16.8411   23.4740 C   0  0  0  0  0  0  0  0  0  0  0  0
    6.8987  -16.7449   22.3885 O   0  0  0  0  0  0  0  0  0  0  0  0
    7.5338  -14.1576   26.5703 C   0  0  0  0  0  0  0  0  0  0  0  0
    7.8667  -14.0993   25.1098 C   0  0  2  0  0  0  0  0  0  0  0  0
    6.7583  -13.3027   24.4525 C   0  0  0  0  0  0  0  0  0  0  0  0
    8.0451  -15.4547   24.5220 C   0  0  2  0  0  0  0  0  0  0  0  0
    6.7840  -16.2119   24.5923 N   0  0  0  0  0  0  0  0  0  0  0  0
    9.1222  -16.2736   25.1502 C   0  0  0  0  0  0  0  0  0  0  0  0
    8.9098  -16.8555   26.2715 O   0  0  0  0  0  0  0  0  0  0  0  0
   10.5825  -18.5747   20.2125 N   0  0  0  0  0  0  0  0  0  0  0  0
   11.9176  -19.1007   20.0168 C   0  0  0  0  0  0  0  0  0  0  0  0
   12.3672  -19.1353   18.8206 N   0  0  0  0  0  0  0  0  0  0  0  0
   12.6881  -19.5565   21.0952 N   0  0  0  0  0  0  0  0  0  0  0  0
   13.1330  -18.6532   22.1229 C   0  0  0  0  0  0  0  0  0  0  0  0
   12.0750  -18.4482   23.1683 C   0  0  0  0  0  0  0  0  0  0  0  0
   12.4966  -17.5666   24.3096 C   0  0  0  0  0  0  0  0  0  0  0  0
   11.3808  -17.3359   25.3164 C   0  0  2  0  0  0  0  0  0  0  0  0
   10.4074  -16.4825   24.6027 N   0  0  0  0  0  0  0  0  0  0  0  0
   11.9438  -16.6138   26.4748 C   0  0  0  0  0  0  0  0  0  0  0  0
   12.7448  -17.2243   27.2255 O   0  0  0  0  0  0  0  0  0  0  0  0
   11.6406  -15.3018   26.7822 O   0  0  0  0  0  0  0  0  0  0  0  0
  2  1  1  6
  2  3  1  0
  4  3  1  0
  4  5  1  0
  6  5  1  0
  7  6  1  0
  8  2  1  0
  9  8  2  0
 11 13  1  0
 11 10  1  1
 11 12  1  0
 13 14  1  1
 14  8  1  0
 15 25  1  0
 15 13  1  0
 16 15  2  0
 17 18  1  0
 18 19  2  0
 20 21  1  0
 20 18  1  0
 21 22  1  0
 23 22  1  0
 24 23  1  6
 24 25  1  0
 26 28  1  0
 26 24  1  0
 27 26  2  0
M  END
$$$$
