KVR.pdb
     RDKit          3D

 28 27  0  0  1  0  0  0  0  0999 V2000
    8.5140  -14.8499   20.6516 N   0  0  0  0  0  0  0  0  0  0  0  0
    7.7554  -15.3175   21.7620 C   0  0  1  0  0  0  0  0  0  0  0  0
    7.7423  -16.8200   21.8674 C   0  0  0  0  0  0  0  0  0  0  0  0
    7.2342  -17.5233   20.6572 C   0  0  0  0  0  0  0  0  0  0  0  0
    6.9437  -18.9724   20.8144 C   0  0  0  0  0  0  0  0  0  0  0  0
    6.4450  -19.6212   19.5423 C   0  0  0  0  0  0  0  0  0  0  0  0
    6.1250  -21.0067   19.9047 N   0  0  0  0  0  0  0  0  0  0  0  0
    8.2094  -14.7658   23.0770 C   0  0  0  0  0  0  0  0  0  0  0  0
    9.4590  -14.6900   23.3218 O   0  0  0  0  0  0  0  0  0  0  0  0
    6.6241  -11.6619   25.1280 C   0  0  0  0  0  0  0  0  0  0  0  0
    6.8644  -12.8744   25.9762 C   0  0  2  0  0  0  0  0  0  0  0  0
    7.2814  -12.3633   27.3401 C   0  0  0  0  0  0  0  0  0  0  0  0
    7.8588  -13.7971   25.3646 C   0  0  2  0  0  0  0  0  0  0  0  0
    7.3529  -14.3162   24.0826 N   0  0  0  0  0  0  0  0  0  0  0  0
    8.2494  -14.9547   26.2206 C   0  0  0  0  0  0  0  0  0  0  0  0
    7.3792  -15.8430   26.5287 O   0  0  0  0  0  0  0  0  0  0  0  0
   12.5651  -17.4003   21.3519 N   0  0  0  0  0  0  0  0  0  0  0  0
   12.3476  -17.9609   22.6694 C   0  0  0  0  0  0  0  0  0  0  0  0
   11.7012  -19.0614   22.7414 N   0  0  0  0  0  0  0  0  0  0  0  0
   12.8247  -17.3226   23.8224 N   0  0  0  0  0  0  0  0  0  0  0  0
   12.5157  -17.8301   25.1328 C   0  0  0  0  0  0  0  0  0  0  0  0
   11.1893  -17.3216   25.6189 C   0  0  0  0  0  0  0  0  0  0  0  0
   11.1921  -16.8553   27.0472 C   0  0  0  0  0  0  0  0  0  0  0  0
    9.8192  -16.4050   27.5204 C   0  0  2  0  0  0  0  0  0  0  0  0
    9.5424  -15.1785   26.7431 N   0  0  0  0  0  0  0  0  0  0  0  0
    9.9053  -16.0911   28.9607 C   0  0  0  0  0  0  0  0  0  0  0  0
    9.9890  -14.8856   29.3038 O   0  0  0  0  0  0  0  0  0  0  0  0
    9.8988  -17.0485   29.9562 O   0  0  0  0  0  0  0  0  0  0  0  0
  2  1  1  6
  2  3  1  0
  4  3  1  0
  4  5  1  0
  6  5  1  0
  7  6  1  0
  8  2  1  0
  9  8  2  0
 11 13  1  0
 11 10  1  6
 11 12  1  0
 13 14  1  6
 14  8  1  0
 15 25  1  0
 15 13  1  0
 16 15  2  0
 17 18  1  0
 18 19  2  0
 20 21  1  0
 20 18  1  0
 21 22  1  0
 23 22  1  0
 24 23  1  6
 24 25  1  0
 26 28  1  0
 26 24  1  0
 27 26  2  0
M  END
$$$$
