KVR.pdb
     RDKit          3D

 28 27  0  0  1  0  0  0  0  0999 V2000
    9.1094  -13.3539   17.4513 N   0  0  0  0  0  0  0  0  0  0  0  0
    9.7339  -14.0826   18.5030 C   0  0  1  0  0  0  0  0  0  0  0  0
   11.1682  -13.6773   18.7207 C   0  0  0  0  0  0  0  0  0  0  0  0
   12.1695  -14.7197   18.3628 C   0  0  0  0  0  0  0  0  0  0  0  0
   13.5972  -14.3165   18.4544 C   0  0  0  0  0  0  0  0  0  0  0  0
   14.5520  -15.4000   18.0046 C   0  0  0  0  0  0  0  0  0  0  0  0
   15.8856  -14.7884   18.0338 N   0  0  0  0  0  0  0  0  0  0  0  0
    9.0202  -13.9789   19.8143 C   0  0  0  0  0  0  0  0  0  0  0  0
    8.0934  -13.1132   19.9515 O   0  0  0  0  0  0  0  0  0  0  0  0
    6.7291  -16.3547   21.2040 C   0  0  0  0  0  0  0  0  0  0  0  0
    7.0002  -14.9675   21.7034 C   0  0  2  0  0  0  0  0  0  0  0  0
    6.5717  -14.0259   20.5965 C   0  0  0  0  0  0  0  0  0  0  0  0
    8.4197  -14.7874   22.1121 C   0  0  2  0  0  0  0  0  0  0  0  0
    9.2945  -14.7742   20.9276 N   0  0  0  0  0  0  0  0  0  0  0  0
    8.9326  -15.8138   23.0654 C   0  0  0  0  0  0  0  0  0  0  0  0
    9.6360  -16.7927   22.6317 O   0  0  0  0  0  0  0  0  0  0  0  0
   10.0459  -16.9500   29.6505 N   0  0  0  0  0  0  0  0  0  0  0  0
   10.3538  -15.8595   30.5526 C   0  0  0  0  0  0  0  0  0  0  0  0
   10.3758  -16.1192   31.8040 N   0  0  0  0  0  0  0  0  0  0  0  0
   10.6161  -14.5684   30.0745 N   0  0  0  0  0  0  0  0  0  0  0  0
   10.0201  -14.0943   28.8538 C   0  0  0  0  0  0  0  0  0  0  0  0
   10.4201  -14.9439   27.6823 C   0  0  0  0  0  0  0  0  0  0  0  0
    9.3863  -15.0231   26.5949 C   0  0  0  0  0  0  0  0  0  0  0  0
    9.8643  -15.8131   25.3869 C   0  0  2  0  0  0  0  0  0  0  0  0
    8.7124  -15.8083   24.4606 N   0  0  0  0  0  0  0  0  0  0  0  0
   10.1657  -17.1910   25.8238 C   0  0  0  0  0  0  0  0  0  0  0  0
    9.2809  -18.0702   25.6749 O   0  0  0  0  0  0  0  0  0  0  0  0
   11.3675  -17.5712   26.3883 O   0  0  0  0  0  0  0  0  0  0  0  0
  2  1  1  6
  2  3  1  0
  4  3  1  0
  4  5  1  0
  6  5  1  0
  7  6  1  0
  8  2  1  0
  9  8  2  0
 11 13  1  0
 11 10  1  6
 11 12  1  0
 13 14  1  6
 14  8  1  0
 15 25  1  0
 15 13  1  0
 16 15  2  0
 17 18  1  0
 18 19  2  0
 20 21  1  0
 20 18  1  0
 21 22  1  0
 23 22  1  0
 24 23  1  1
 24 25  1  0
 26 28  1  0
 26 24  1  0
 27 26  2  0
M  END
$$$$
