KVR.pdb
     RDKit          3D

 28 27  0  0  1  0  0  0  0  0999 V2000
   11.8536  -20.9319   15.5647 N   0  0  0  0  0  0  0  0  0  0  0  0
   12.6956  -20.9061   16.7126 C   0  0  1  0  0  0  0  0  0  0  0  0
   14.0603  -20.3391   16.4215 C   0  0  0  0  0  0  0  0  0  0  0  0
   14.7886  -21.0120   15.3106 C   0  0  0  0  0  0  0  0  0  0  0  0
   16.1394  -20.4787   14.9942 C   0  0  0  0  0  0  0  0  0  0  0  0
   16.8188  -21.2131   13.8596 C   0  0  0  0  0  0  0  0  0  0  0  0
   18.0828  -20.5037   13.6307 N   0  0  0  0  0  0  0  0  0  0  0  0
   12.1173  -20.1494   17.8670 C   0  0  0  0  0  0  0  0  0  0  0  0
   11.4920  -19.0598   17.6461 O   0  0  0  0  0  0  0  0  0  0  0  0
   11.6899  -21.9159   21.6431 C   0  0  0  0  0  0  0  0  0  0  0  0
   10.7698  -20.8472   21.1345 C   0  0  2  0  0  0  0  0  0  0  0  0
    9.6423  -21.5623   20.4185 C   0  0  0  0  0  0  0  0  0  0  0  0
   11.4792  -19.8602   20.2761 C   0  0  2  0  0  0  0  0  0  0  0  0
   12.2099  -20.5510   19.2002 N   0  0  0  0  0  0  0  0  0  0  0  0
   12.4347  -18.9722   20.9999 C   0  0  0  0  0  0  0  0  0  0  0  0
   13.6096  -19.3963   21.2846 O   0  0  0  0  0  0  0  0  0  0  0  0
   15.9155  -13.7815   19.0295 N   0  0  0  0  0  0  0  0  0  0  0  0
   14.8184  -13.7526   18.0844 C   0  0  0  0  0  0  0  0  0  0  0  0
   15.1050  -13.8851   16.8457 N   0  0  0  0  0  0  0  0  0  0  0  0
   13.4933  -13.5844   18.5088 N   0  0  0  0  0  0  0  0  0  0  0  0
   13.1288  -13.7602   19.8895 C   0  0  0  0  0  0  0  0  0  0  0  0
   13.3915  -15.1644   20.3514 C   0  0  0  0  0  0  0  0  0  0  0  0
   12.9543  -15.4429   21.7617 C   0  0  0  0  0  0  0  0  0  0  0  0
   13.1778  -16.8902   22.1705 C   0  0  2  0  0  0  0  0  0  0  0  0
   12.1595  -17.6507   21.4157 N   0  0  0  0  0  0  0  0  0  0  0  0
   12.9324  -17.0050   23.6220 C   0  0  0  0  0  0  0  0  0  0  0  0
   11.7626  -17.2460   24.0113 O   0  0  0  0  0  0  0  0  0  0  0  0
   13.9169  -16.8628   24.5801 O   0  0  0  0  0  0  0  0  0  0  0  0
  2  1  1  6
  2  3  1  0
  4  3  1  0
  4  5  1  0
  6  5  1  0
  7  6  1  0
  8  2  1  0
  9  8  2  0
 11 13  1  0
 11 10  1  6
 11 12  1  0
 13 14  1  6
 14  8  1  0
 15 25  1  0
 15 13  1  0
 16 15  2  0
 17 18  1  0
 18 19  2  0
 20 21  1  0
 20 18  1  0
 21 22  1  0
 23 22  1  0
 24 23  1  6
 24 25  1  0
 26 28  1  0
 26 24  1  0
 27 26  2  0
M  END
$$$$
