KVR.pdb
     RDKit          3D

 28 27  0  0  1  0  0  0  0  0999 V2000
   15.3356  -23.8063   35.5524 N   0  0  0  0  0  0  0  0  0  0  0  0
   15.7406  -24.2725   34.2695 C   0  0  1  0  0  0  0  0  0  0  0  0
   15.4800  -25.7432   34.0751 C   0  0  0  0  0  0  0  0  0  0  0  0
   16.2801  -26.6378   34.9566 C   0  0  0  0  0  0  0  0  0  0  0  0
   15.9009  -28.0749   34.9501 C   0  0  0  0  0  0  0  0  0  0  0  0
   16.7501  -28.9190   35.8744 C   0  0  0  0  0  0  0  0  0  0  0  0
   16.2476  -30.2902   35.7303 N   0  0  0  0  0  0  0  0  0  0  0  0
   15.1045  -23.5361   33.1325 C   0  0  0  0  0  0  0  0  0  0  0  0
   13.8672  -23.7229   32.8848 O   0  0  0  0  0  0  0  0  0  0  0  0
   16.7228  -20.0852   31.4252 C   0  0  0  0  0  0  0  0  0  0  0  0
   15.2760  -20.4663   31.3322 C   0  0  2  0  0  0  0  0  0  0  0  0
   14.6040  -19.8872   32.5604 C   0  0  0  0  0  0  0  0  0  0  0  0
   15.0921  -21.9369   31.1995 C   0  0  2  0  0  0  0  0  0  0  0  0
   15.7741  -22.6383   32.3002 N   0  0  0  0  0  0  0  0  0  0  0  0
   15.5658  -22.5139   29.9079 C   0  0  0  0  0  0  0  0  0  0  0  0
   16.7346  -23.0326   29.8311 O   0  0  0  0  0  0  0  0  0  0  0  0
   13.4096  -26.6385   22.4105 N   0  0  0  0  0  0  0  0  0  0  0  0
   14.4369  -27.2585   23.2214 C   0  0  0  0  0  0  0  0  0  0  0  0
   15.1402  -28.1777   22.6787 N   0  0  0  0  0  0  0  0  0  0  0  0
   14.6524  -26.8689   24.5504 N   0  0  0  0  0  0  0  0  0  0  0  0
   13.9377  -25.7592   25.1230 C   0  0  0  0  0  0  0  0  0  0  0  0
   14.8785  -24.7170   25.6550 C   0  0  0  0  0  0  0  0  0  0  0  0
   14.4468  -24.1012   26.9558 C   0  0  0  0  0  0  0  0  0  0  0  0
   15.4344  -23.0667   27.4718 C   0  0  2  0  0  0  0  0  0  0  0  0
   14.8165  -22.5494   28.7111 N   0  0  0  0  0  0  0  0  0  0  0  0
   15.5464  -21.9910   26.4666 C   0  0  0  0  0  0  0  0  0  0  0  0
   16.2445  -22.2017   25.4437 O   0  0  0  0  0  0  0  0  0  0  0  0
   14.9262  -20.7626   26.5851 O   0  0  0  0  0  0  0  0  0  0  0  0
  2  1  1  1
  2  3  1  0
  4  3  1  0
  4  5  1  0
  6  5  1  0
  7  6  1  0
  8  2  1  0
  9  8  2  0
 11 13  1  0
 11 10  1  1
 11 12  1  0
 13 14  1  1
 14  8  1  0
 15 25  1  0
 15 13  1  0
 16 15  2  0
 17 18  1  0
 18 19  2  0
 20 21  1  0
 20 18  1  0
 21 22  1  0
 23 22  1  0
 24 23  1  6
 24 25  1  0
 26 28  1  0
 26 24  1  0
 27 26  2  0
M  END
$$$$
