KVR.pdb
     RDKit          3D

 28 27  0  0  1  0  0  0  0  0999 V2000
    9.1994  -17.2599   15.8672 N   0  0  0  0  0  0  0  0  0  0  0  0
    9.4052  -16.1921   16.7862 C   0  0  1  0  0  0  0  0  0  0  0  0
    8.6109  -14.9610   16.4362 C   0  0  0  0  0  0  0  0  0  0  0  0
    8.6398  -14.5922   14.9939 C   0  0  0  0  0  0  0  0  0  0  0  0
    7.9951  -13.3024   14.6337 C   0  0  0  0  0  0  0  0  0  0  0  0
    8.0858  -12.9829   13.1580 C   0  0  0  0  0  0  0  0  0  0  0  0
    7.2387  -11.8017   12.9568 N   0  0  0  0  0  0  0  0  0  0  0  0
    9.0985  -16.5518   18.2062 C   0  0  0  0  0  0  0  0  0  0  0  0
    8.0093  -16.1440   18.7300 O   0  0  0  0  0  0  0  0  0  0  0  0
   11.1612  -19.6778   20.1159 C   0  0  0  0  0  0  0  0  0  0  0  0
    9.7162  -19.3481   20.3406 C   0  0  2  0  0  0  0  0  0  0  0  0
    8.9368  -20.1178   19.2941 C   0  0  0  0  0  0  0  0  0  0  0  0
    9.4641  -17.8821   20.3016 C   0  0  2  0  0  0  0  0  0  0  0  0
    9.9304  -17.3175   19.0239 N   0  0  0  0  0  0  0  0  0  0  0  0
   10.0881  -17.1088   21.4142 C   0  0  0  0  0  0  0  0  0  0  0  0
   11.2169  -16.5302   21.2347 O   0  0  0  0  0  0  0  0  0  0  0  0
   10.2116  -16.1094   28.9507 N   0  0  0  0  0  0  0  0  0  0  0  0
    9.9233  -14.6991   29.1102 C   0  0  0  0  0  0  0  0  0  0  0  0
   10.0956  -14.1906   30.2702 N   0  0  0  0  0  0  0  0  0  0  0  0
    9.4712  -13.9203   28.0361 N   0  0  0  0  0  0  0  0  0  0  0  0
    8.8331  -14.5260   26.8978 C   0  0  0  0  0  0  0  0  0  0  0  0
    9.8409  -15.1117   25.9515 C   0  0  0  0  0  0  0  0  0  0  0  0
    9.2459  -15.7150   24.7107 C   0  0  0  0  0  0  0  0  0  0  0  0
   10.3001  -16.2469   23.7529 C   0  0  2  0  0  0  0  0  0  0  0  0
    9.5289  -16.9416   22.7005 N   0  0  0  0  0  0  0  0  0  0  0  0
   11.1493  -17.2075   24.4853 C   0  0  0  0  0  0  0  0  0  0  0  0
   10.7918  -18.4111   24.5225 O   0  0  0  0  0  0  0  0  0  0  0  0
   12.3179  -16.8591   25.1339 O   0  0  0  0  0  0  0  0  0  0  0  0
  2  1  1  6
  2  3  1  0
  4  3  1  0
  4  5  1  0
  6  5  1  0
  7  6  1  0
  8  2  1  0
  9  8  2  0
 11 13  1  0
 11 10  1  6
 11 12  1  0
 13 14  1  6
 14  8  1  0
 15 25  1  0
 15 13  1  0
 16 15  2  0
 17 18  1  0
 18 19  2  0
 20 21  1  0
 20 18  1  0
 21 22  1  0
 23 22  1  0
 24 23  1  1
 24 25  1  0
 26 28  1  0
 26 24  1  0
 27 26  2  0
M  END
$$$$
