KVR.pdb
     RDKit          3D

 28 27  0  0  1  0  0  0  0  0999 V2000
    9.7016  -18.2887   18.2643 N   0  0  0  0  0  0  0  0  0  0  0  0
    8.5808  -17.8353   19.0163 C   0  0  1  0  0  0  0  0  0  0  0  0
    7.9038  -18.9440   19.7787 C   0  0  0  0  0  0  0  0  0  0  0  0
    7.6402  -20.1745   18.9827 C   0  0  0  0  0  0  0  0  0  0  0  0
    6.9883  -21.2970   19.7068 C   0  0  0  0  0  0  0  0  0  0  0  0
    6.8012  -22.5295   18.8502 C   0  0  0  0  0  0  0  0  0  0  0  0
    6.1602  -23.5219   19.7205 N   0  0  0  0  0  0  0  0  0  0  0  0
    8.9072  -16.7414   19.9840 C   0  0  0  0  0  0  0  0  0  0  0  0
   10.0217  -16.7710   20.6038 O   0  0  0  0  0  0  0  0  0  0  0  0
    6.4847  -13.1886   20.6809 C   0  0  0  0  0  0  0  0  0  0  0  0
    7.9815  -13.2704   20.6796 C   0  0  2  0  0  0  0  0  0  0  0  0
    8.4224  -12.9725   19.2611 C   0  0  0  0  0  0  0  0  0  0  0  0
    8.4707  -14.5820   21.1844 C   0  0  2  0  0  0  0  0  0  0  0  0
    8.0681  -15.6636   20.2696 N   0  0  0  0  0  0  0  0  0  0  0  0
    8.0141  -14.9341   22.5602 C   0  0  0  0  0  0  0  0  0  0  0  0
    6.8838  -15.5130   22.7290 O   0  0  0  0  0  0  0  0  0  0  0  0
   10.9771  -20.2276   27.0708 N   0  0  0  0  0  0  0  0  0  0  0  0
   11.7877  -19.8647   25.9268 C   0  0  0  0  0  0  0  0  0  0  0  0
   12.7335  -20.6601   25.5995 N   0  0  0  0  0  0  0  0  0  0  0  0
   11.5478  -18.6868   25.2060 N   0  0  0  0  0  0  0  0  0  0  0  0
   11.0902  -17.4934   25.8665 C   0  0  0  0  0  0  0  0  0  0  0  0
    9.8400  -16.9592   25.2294 C   0  0  0  0  0  0  0  0  0  0  0  0
    9.3514  -15.6655   25.8168 C   0  0  0  0  0  0  0  0  0  0  0  0
    8.1743  -15.0811   25.0522 C   0  0  2  0  0  0  0  0  0  0  0  0
    8.7404  -14.6844   23.7456 N   0  0  0  0  0  0  0  0  0  0  0  0
    7.6902  -13.8933   25.7836 C   0  0  0  0  0  0  0  0  0  0  0  0
    8.1503  -12.7687   25.4648 O   0  0  0  0  0  0  0  0  0  0  0  0
    6.7577  -13.9462   26.8011 O   0  0  0  0  0  0  0  0  0  0  0  0
  2  1  1  1
  2  3  1  0
  4  3  1  0
  4  5  1  0
  6  5  1  0
  7  6  1  0
  8  2  1  0
  9  8  2  0
 11 13  1  0
 11 10  1  6
 11 12  1  0
 13 14  1  6
 14  8  1  0
 15 25  1  0
 15 13  1  0
 16 15  2  0
 17 18  1  0
 18 19  2  0
 20 21  1  0
 20 18  1  0
 21 22  1  0
 23 22  1  0
 24 23  1  1
 24 25  1  0
 26 28  1  0
 26 24  1  0
 27 26  2  0
M  END
$$$$
