QFW.pdb
     RDKit          3D

 35 37  0  0  1  0  0  0  0  0999 V2000
   26.8643  -23.7684  -20.0712 N   0  0  0  0  0  0  0  0  0  0  0  0
   25.6371  -23.1419  -20.4497 C   0  0  0  0  0  0  0  0  0  0  0  0
   25.1843  -23.2993  -21.6207 O   0  0  0  0  0  0  0  0  0  0  0  0
   24.9244  -22.3227  -19.4730 C   0  0  0  0  0  0  0  0  0  0  0  0
   25.5434  -22.2766  -18.1261 C   0  0  0  0  0  0  0  0  0  0  0  0
   24.6226  -22.5588  -16.9711 C   0  0  2  0  0  0  0  0  0  0  0  0
   23.6220  -21.5822  -16.7332 N   0  0  0  0  0  0  0  0  0  0  0  0
   25.5020  -22.8067  -15.7722 C   0  0  0  0  0  0  0  0  0  0  0  0
   26.5675  -23.4860  -15.9075 O   0  0  0  0  0  0  0  0  0  0  0  0
   25.2245  -22.3272  -14.4751 N   0  0  0  0  0  0  0  0  0  0  0  0
   26.3290  -22.0384  -13.5143 C   0  0  1  0  0  0  0  0  0  0  0  0
   27.2407  -21.0376  -14.1682 C   0  0  0  0  0  0  0  0  0  0  0  0
   28.2651  -20.4148  -13.3578 C   0  0  0  0  0  0  0  0  0  0  0  0
   29.3667  -21.0524  -12.8243 C   0  0  0  0  0  0  0  0  0  0  0  0
   30.3081  -20.4186  -12.0337 C   0  0  0  0  0  0  0  0  0  0  0  0
   30.1296  -19.0716  -11.7676 C   0  0  0  0  0  0  0  0  0  0  0  0
   29.0456  -18.3862  -12.2768 C   0  0  0  0  0  0  0  0  0  0  0  0
   28.1397  -19.0630  -13.0565 C   0  0  0  0  0  0  0  0  0  0  0  0
   25.7335  -21.5410  -12.2611 C   0  0  0  0  0  0  0  0  0  0  0  0
   25.0252  -20.4582  -12.3046 O   0  0  0  0  0  0  0  0  0  0  0  0
   25.8671  -22.1593  -11.0046 N   0  0  0  0  0  0  0  0  0  0  0  0
   25.7453  -21.3477   -9.7835 C   0  0  1  0  0  0  0  0  0  0  0  0
   27.0834  -21.3283   -9.0760 C   0  0  0  0  0  0  0  0  0  0  0  0
   27.2211  -20.3865   -7.9763 C   0  0  0  0  0  0  0  0  0  0  0  0
   26.4038  -19.2693   -7.7423 C   0  0  0  0  0  0  0  0  0  0  0  0
   26.9120  -18.6682   -6.6680 N   0  0  0  0  0  0  0  0  0  0  0  0
   27.9979  -19.3301   -6.2027 C   0  0  0  0  0  0  0  0  0  0  0  0
   28.8173  -19.0820   -5.1211 C   0  0  0  0  0  0  0  0  0  0  0  0
   29.8613  -19.9435   -4.8559 C   0  0  0  0  0  0  0  0  0  0  0  0
   30.1139  -21.0486   -5.6392 C   0  0  0  0  0  0  0  0  0  0  0  0
   29.2806  -21.2688   -6.7096 C   0  0  0  0  0  0  0  0  0  0  0  0
   28.2161  -20.4227   -7.0118 C   0  0  0  0  0  0  0  0  0  0  0  0
   25.2472  -20.0075  -10.0533 C   0  0  0  0  0  0  0  0  0  0  0  0
   24.1038  -19.6367   -9.5969 O   0  0  0  0  0  0  0  0  0  0  0  0
   25.9178  -19.0604  -10.7825 O   0  0  0  0  0  0  0  0  0  0  0  0
  2  4  1  0
  2  1  1  0
  3  2  2  0
  5  4  1  0
  6  5  1  0
  6  7  1  1
  8  6  1  0
  9  8  2  0
 10  8  1  0
 11 12  1  6
 11 10  1  0
 12 13  1  0
 13 18  1  0
 13 14  2  0
 14 15  1  0
 15 16  2  0
 17 16  1  0
 18 17  2  0
 19 11  1  0
 20 19  2  0
 21 19  1  0
 22 21  1  0
 22 23  1  6
 23 24  1  0
 24 32  1  0
 25 24  2  0
 25 26  1  0
 26 27  1  0
 27 28  1  0
 28 29  2  0
 30 29  1  0
 31 30  2  0
 32 27  2  0
 32 31  1  0
 33 35  1  0
 33 22  1  0
 34 33  2  0
M  END
$$$$
