QFW.pdb
     RDKit          3D

 35 37  0  0  1  0  0  0  0  0999 V2000
   19.2788  -22.7475  -16.6121 N   0  0  0  0  0  0  0  0  0  0  0  0
   18.8775  -22.4470  -15.2740 C   0  0  0  0  0  0  0  0  0  0  0  0
   18.6139  -23.3870  -14.4691 O   0  0  0  0  0  0  0  0  0  0  0  0
   18.7745  -21.0510  -14.8576 C   0  0  0  0  0  0  0  0  0  0  0  0
   19.9633  -20.5222  -14.1458 C   0  0  0  0  0  0  0  0  0  0  0  0
   20.2855  -21.1770  -12.8309 C   0  0  2  0  0  0  0  0  0  0  0  0
   19.2905  -21.0573  -11.8275 N   0  0  0  0  0  0  0  0  0  0  0  0
   21.6256  -20.6377  -12.4003 C   0  0  0  0  0  0  0  0  0  0  0  0
   21.6927  -19.4936  -11.8514 O   0  0  0  0  0  0  0  0  0  0  0  0
   22.8452  -21.3272  -12.5641 N   0  0  0  0  0  0  0  0  0  0  0  0
   24.1389  -20.6964  -12.1699 C   0  0  1  0  0  0  0  0  0  0  0  0
   25.0139  -21.7829  -11.6093 C   0  0  0  0  0  0  0  0  0  0  0  0
   26.3293  -21.4202  -11.1273 C   0  0  0  0  0  0  0  0  0  0  0  0
   27.4896  -21.4268  -11.8745 C   0  0  0  0  0  0  0  0  0  0  0  0
   28.7306  -21.0947  -11.3621 C   0  0  0  0  0  0  0  0  0  0  0  0
   28.8052  -20.7366  -10.0266 C   0  0  0  0  0  0  0  0  0  0  0  0
   27.6753  -20.7129   -9.2349 C   0  0  0  0  0  0  0  0  0  0  0  0
   26.4670  -21.0518   -9.7935 C   0  0  0  0  0  0  0  0  0  0  0  0
   24.7184  -20.0476  -13.3597 C   0  0  0  0  0  0  0  0  0  0  0  0
   24.3780  -20.4897  -14.5279 O   0  0  0  0  0  0  0  0  0  0  0  0
   25.6183  -18.9668  -13.3301 N   0  0  0  0  0  0  0  0  0  0  0  0
   26.0470  -18.3488  -14.5945 C   0  0  1  0  0  0  0  0  0  0  0  0
   26.8486  -17.1036  -14.2810 C   0  0  0  0  0  0  0  0  0  0  0  0
   27.2382  -16.2812  -15.4156 C   0  0  0  0  0  0  0  0  0  0  0  0
   26.5930  -15.1100  -15.8433 C   0  0  0  0  0  0  0  0  0  0  0  0
   27.2477  -14.7139  -16.9333 N   0  0  0  0  0  0  0  0  0  0  0  0
   28.2674  -15.5555  -17.2264 C   0  0  0  0  0  0  0  0  0  0  0  0
   29.2044  -15.5280  -18.2385 C   0  0  0  0  0  0  0  0  0  0  0  0
   30.1643  -16.5169  -18.2942 C   0  0  0  0  0  0  0  0  0  0  0  0
   30.2183  -17.5359  -17.3684 C   0  0  0  0  0  0  0  0  0  0  0  0
   29.2713  -17.5365  -16.3725 C   0  0  0  0  0  0  0  0  0  0  0  0
   28.2851  -16.5568  -16.2814 C   0  0  0  0  0  0  0  0  0  0  0  0
   26.7798  -19.2738  -15.4458 C   0  0  0  0  0  0  0  0  0  0  0  0
   27.6486  -20.0736  -14.9370 O   0  0  0  0  0  0  0  0  0  0  0  0
   26.6198  -19.3752  -16.8031 O   0  0  0  0  0  0  0  0  0  0  0  0
  2  4  1  0
  2  1  1  0
  3  2  2  0
  5  4  1  0
  6  5  1  0
  6  7  1  1
  8  6  1  0
  9  8  2  0
 10  8  1  0
 11 12  1  6
 11 10  1  0
 12 13  1  0
 13 18  1  0
 13 14  2  0
 14 15  1  0
 15 16  2  0
 17 16  1  0
 18 17  2  0
 19 11  1  0
 20 19  2  0
 21 19  1  0
 22 21  1  0
 22 23  1  1
 23 24  1  0
 24 32  1  0
 25 24  2  0
 25 26  1  0
 26 27  1  0
 27 28  1  0
 28 29  2  0
 30 29  1  0
 31 30  2  0
 32 27  2  0
 32 31  1  0
 33 35  1  0
 33 22  1  0
 34 33  2  0
M  END
$$$$
