QFW.pdb
     RDKit          3D

 35 37  0  0  1  0  0  0  0  0999 V2000
   17.2508  -27.6855   -9.8477 N   0  0  0  0  0  0  0  0  0  0  0  0
   17.2218  -26.7608  -10.9367 C   0  0  0  0  0  0  0  0  0  0  0  0
   17.8374  -27.0305  -12.0088 O   0  0  0  0  0  0  0  0  0  0  0  0
   16.4803  -25.5111  -10.7908 C   0  0  0  0  0  0  0  0  0  0  0  0
   17.3216  -24.2947  -10.6828 C   0  0  0  0  0  0  0  0  0  0  0  0
   18.2870  -24.2650   -9.5302 C   0  0  2  0  0  0  0  0  0  0  0  0
   17.6991  -24.2221   -8.2403 N   0  0  0  0  0  0  0  0  0  0  0  0
   19.2280  -23.1161   -9.7883 C   0  0  0  0  0  0  0  0  0  0  0  0
   18.7650  -21.9359   -9.8769 O   0  0  0  0  0  0  0  0  0  0  0  0
   20.6231  -23.2556   -9.9421 N   0  0  0  0  0  0  0  0  0  0  0  0
   21.4897  -22.0631  -10.1737 C   0  0  1  0  0  0  0  0  0  0  0  0
   22.8523  -22.3873   -9.6273 C   0  0  0  0  0  0  0  0  0  0  0  0
   23.9415  -21.4829   -9.9269 C   0  0  0  0  0  0  0  0  0  0  0  0
   24.7269  -21.5178  -11.0612 C   0  0  0  0  0  0  0  0  0  0  0  0
   25.7748  -20.6452  -11.2924 C   0  0  0  0  0  0  0  0  0  0  0  0
   26.0443  -19.6870  -10.3298 C   0  0  0  0  0  0  0  0  0  0  0  0
   25.2893  -19.6080   -9.1775 C   0  0  0  0  0  0  0  0  0  0  0  0
   24.2596  -20.4991   -8.9970 C   0  0  0  0  0  0  0  0  0  0  0  0
   21.5033  -21.7752  -11.6192 C   0  0  0  0  0  0  0  0  0  0  0  0
   21.4588  -22.7715  -12.4447 O   0  0  0  0  0  0  0  0  0  0  0  0
   21.5537  -20.4878  -12.1839 N   0  0  0  0  0  0  0  0  0  0  0  0
   21.6317  -20.3427  -13.6459 C   0  0  1  0  0  0  0  0  0  0  0  0
   20.6636  -19.2632  -14.0806 C   0  0  0  0  0  0  0  0  0  0  0  0
   20.5859  -18.9997  -15.5089 C   0  0  0  0  0  0  0  0  0  0  0  0
   21.1360  -19.7981  -16.5242 C   0  0  0  0  0  0  0  0  0  0  0  0
   20.8712  -19.1650  -17.6655 N   0  0  0  0  0  0  0  0  0  0  0  0
   20.1880  -18.0171  -17.4431 C   0  0  0  0  0  0  0  0  0  0  0  0
   19.6984  -17.0686  -18.3168 C   0  0  0  0  0  0  0  0  0  0  0  0
   19.0074  -15.9849  -17.8161 C   0  0  0  0  0  0  0  0  0  0  0  0
   18.7893  -15.8178  -16.4659 C   0  0  0  0  0  0  0  0  0  0  0  0
   19.2895  -16.7790  -15.6207 C   0  0  0  0  0  0  0  0  0  0  0  0
   19.9930  -17.8876  -16.0862 C   0  0  0  0  0  0  0  0  0  0  0  0
   22.9868  -20.0837  -14.1080 C   0  0  0  0  0  0  0  0  0  0  0  0
   23.7753  -19.3375  -13.4189 O   0  0  0  0  0  0  0  0  0  0  0  0
   23.5242  -20.5871  -15.2639 O   0  0  0  0  0  0  0  0  0  0  0  0
  2  4  1  0
  2  1  1  0
  3  2  2  0
  5  4  1  0
  6  5  1  0
  6  7  1  1
  8  6  1  0
  9  8  2  0
 10  8  1  0
 11 12  1  6
 11 10  1  0
 12 13  1  0
 13 18  1  0
 13 14  2  0
 14 15  1  0
 15 16  2  0
 17 16  1  0
 18 17  2  0
 19 11  1  0
 20 19  2  0
 21 19  1  0
 22 21  1  0
 22 23  1  1
 23 24  1  0
 24 32  1  0
 25 24  2  0
 25 26  1  0
 26 27  1  0
 27 28  1  0
 28 29  2  0
 30 29  1  0
 31 30  2  0
 32 27  2  0
 32 31  1  0
 33 35  1  0
 33 22  1  0
 34 33  2  0
M  END
$$$$
