QFW.pdb
     RDKit          3D

 35 37  0  0  1  0  0  0  0  0999 V2000
   28.8888  -21.5190  -16.9277 N   0  0  0  0  0  0  0  0  0  0  0  0
   28.2707  -22.0545  -18.0995 C   0  0  0  0  0  0  0  0  0  0  0  0
   28.9244  -22.1245  -19.1806 O   0  0  0  0  0  0  0  0  0  0  0  0
   26.8852  -22.5110  -18.0290 C   0  0  0  0  0  0  0  0  0  0  0  0
   26.2784  -22.4583  -16.6769 C   0  0  0  0  0  0  0  0  0  0  0  0
   26.8137  -23.4475  -15.6787 C   0  0  2  0  0  0  0  0  0  0  0  0
   26.5611  -24.8117  -15.9729 N   0  0  0  0  0  0  0  0  0  0  0  0
   26.2844  -23.0266  -14.3315 C   0  0  0  0  0  0  0  0  0  0  0  0
   25.2271  -23.5664  -13.8781 O   0  0  0  0  0  0  0  0  0  0  0  0
   26.8918  -22.0521  -13.5124 N   0  0  0  0  0  0  0  0  0  0  0  0
   26.2782  -21.6571  -12.2108 C   0  0  1  0  0  0  0  0  0  0  0  0
   27.3124  -20.8783  -11.4466 C   0  0  0  0  0  0  0  0  0  0  0  0
   26.9870  -20.4434  -10.1053 C   0  0  0  0  0  0  0  0  0  0  0  0
   26.3134  -19.2844   -9.7769 C   0  0  0  0  0  0  0  0  0  0  0  0
   26.0463  -18.8982   -8.4760 C   0  0  0  0  0  0  0  0  0  0  0  0
   26.4805  -19.7240   -7.4529 C   0  0  0  0  0  0  0  0  0  0  0  0
   27.1580  -20.8946   -7.7262 C   0  0  0  0  0  0  0  0  0  0  0  0
   27.3976  -21.2319   -9.0360 C   0  0  0  0  0  0  0  0  0  0  0  0
   25.0609  -20.8749  -12.4921 C   0  0  0  0  0  0  0  0  0  0  0  0
   24.3307  -20.4941  -11.4932 O   0  0  0  0  0  0  0  0  0  0  0  0
   24.6251  -20.4961  -13.7748 N   0  0  0  0  0  0  0  0  0  0  0  0
   23.4048  -19.6861  -13.9132 C   0  0  1  0  0  0  0  0  0  0  0  0
   23.3218  -19.1690  -15.3335 C   0  0  0  0  0  0  0  0  0  0  0  0
   22.1762  -18.3313  -15.6520 C   0  0  0  0  0  0  0  0  0  0  0  0
   22.0357  -16.9722  -15.3299 C   0  0  0  0  0  0  0  0  0  0  0  0
   20.8265  -16.6209  -15.7638 N   0  0  0  0  0  0  0  0  0  0  0  0
   20.1892  -17.6668  -16.3415 C   0  0  0  0  0  0  0  0  0  0  0  0
   18.9467  -17.7576  -16.9337 C   0  0  0  0  0  0  0  0  0  0  0  0
   18.5441  -18.9618  -17.4724 C   0  0  0  0  0  0  0  0  0  0  0  0
   19.3456  -20.0821  -17.4383 C   0  0  0  0  0  0  0  0  0  0  0  0
   20.5774  -19.9604  -16.8414 C   0  0  0  0  0  0  0  0  0  0  0  0
   21.0210  -18.7627  -16.2852 C   0  0  0  0  0  0  0  0  0  0  0  0
   22.2066  -20.4134  -13.5226 C   0  0  0  0  0  0  0  0  0  0  0  0
   21.2344  -19.7996  -12.9470 O   0  0  0  0  0  0  0  0  0  0  0  0
   22.0109  -21.7550  -13.7229 O   0  0  0  0  0  0  0  0  0  0  0  0
  2  4  1  0
  2  1  1  0
  3  2  2  0
  5  4  1  0
  6  5  1  0
  6  7  1  6
  8  6  1  0
  9  8  2  0
 10  8  1  0
 11 12  1  6
 11 10  1  0
 12 13  1  0
 13 18  1  0
 13 14  2  0
 14 15  1  0
 15 16  2  0
 17 16  1  0
 18 17  2  0
 19 11  1  0
 20 19  2  0
 21 19  1  0
 22 21  1  0
 22 23  1  6
 23 24  1  0
 24 32  1  0
 25 24  2  0
 25 26  1  0
 26 27  1  0
 27 28  1  0
 28 29  2  0
 30 29  1  0
 31 30  2  0
 32 27  2  0
 32 31  1  0
 33 35  1  0
 33 22  1  0
 34 33  2  0
M  END
$$$$
