QFW.pdb
     RDKit          3D

 35 37  0  0  1  0  0  0  0  0999 V2000
   28.6183  -23.1820  -20.2709 N   0  0  0  0  0  0  0  0  0  0  0  0
   28.4296  -21.9130  -20.9001 C   0  0  0  0  0  0  0  0  0  0  0  0
   28.8980  -21.7078  -22.0575 O   0  0  0  0  0  0  0  0  0  0  0  0
   27.6980  -20.8673  -20.1900 C   0  0  0  0  0  0  0  0  0  0  0  0
   27.1734  -21.2646  -18.8611 C   0  0  0  0  0  0  0  0  0  0  0  0
   28.0863  -21.0116  -17.6931 C   0  0  2  0  0  0  0  0  0  0  0  0
   29.3893  -21.5602  -17.8047 N   0  0  0  0  0  0  0  0  0  0  0  0
   27.3510  -21.4822  -16.4643 C   0  0  0  0  0  0  0  0  0  0  0  0
   27.1851  -22.7275  -16.2730 O   0  0  0  0  0  0  0  0  0  0  0  0
   26.8193  -20.6206  -15.4823 N   0  0  0  0  0  0  0  0  0  0  0  0
   26.1321  -21.1679  -14.2761 C   0  0  1  0  0  0  0  0  0  0  0  0
   26.6578  -20.4189  -13.0832 C   0  0  0  0  0  0  0  0  0  0  0  0
   26.0128  -20.6303  -11.8051 C   0  0  0  0  0  0  0  0  0  0  0  0
   24.9249  -19.9282  -11.3275 C   0  0  0  0  0  0  0  0  0  0  0  0
   24.3569  -20.1504  -10.0861 C   0  0  0  0  0  0  0  0  0  0  0  0
   24.9148  -21.1322   -9.2849 C   0  0  0  0  0  0  0  0  0  0  0  0
   26.0029  -21.8641   -9.7145 C   0  0  0  0  0  0  0  0  0  0  0  0
   26.5289  -21.6034  -10.9563 C   0  0  0  0  0  0  0  0  0  0  0  0
   24.6784  -21.0088  -14.4602 C   0  0  0  0  0  0  0  0  0  0  0  0
   24.2224  -19.8368  -14.7674 O   0  0  0  0  0  0  0  0  0  0  0  0
   23.7325  -22.0426  -14.3352 N   0  0  0  0  0  0  0  0  0  0  0  0
   22.2985  -21.7226  -14.4103 C   0  0  1  0  0  0  0  0  0  0  0  0
   21.5805  -22.8626  -15.1005 C   0  0  0  0  0  0  0  0  0  0  0  0
   20.1422  -22.7192  -15.2619 C   0  0  0  0  0  0  0  0  0  0  0  0
   19.4662  -21.5374  -15.6041 C   0  0  0  0  0  0  0  0  0  0  0  0
   18.1707  -21.8462  -15.5950 N   0  0  0  0  0  0  0  0  0  0  0  0
   17.9783  -23.1468  -15.2704 C   0  0  0  0  0  0  0  0  0  0  0  0
   16.8235  -23.8927  -15.1578 C   0  0  0  0  0  0  0  0  0  0  0  0
   16.9146  -25.2286  -14.8268 C   0  0  0  0  0  0  0  0  0  0  0  0
   18.1264  -25.8453  -14.6039 C   0  0  0  0  0  0  0  0  0  0  0  0
   19.2589  -25.0760  -14.7231 C   0  0  0  0  0  0  0  0  0  0  0  0
   19.2098  -23.7239  -15.0548 C   0  0  0  0  0  0  0  0  0  0  0  0
   21.7262  -21.4221  -13.1068 C   0  0  0  0  0  0  0  0  0  0  0  0
   22.1060  -22.0746  -12.0660 O   0  0  0  0  0  0  0  0  0  0  0  0
   20.7759  -20.4616  -12.8769 O   0  0  0  0  0  0  0  0  0  0  0  0
  2  4  1  0
  2  1  1  0
  3  2  2  0
  5  4  1  0
  6  5  1  0
  6  7  1  6
  8  6  1  0
  9  8  2  0
 10  8  1  0
 11 12  1  1
 11 10  1  0
 12 13  1  0
 13 18  1  0
 13 14  2  0
 14 15  1  0
 15 16  2  0
 17 16  1  0
 18 17  2  0
 19 11  1  0
 20 19  2  0
 21 19  1  0
 22 21  1  0
 22 23  1  1
 23 24  1  0
 24 32  1  0
 25 24  2  0
 25 26  1  0
 26 27  1  0
 27 28  1  0
 28 29  2  0
 30 29  1  0
 31 30  2  0
 32 27  2  0
 32 31  1  0
 33 35  1  0
 33 22  1  0
 34 33  2  0
M  END
$$$$
