QFW.pdb
     RDKit          3D

 35 37  0  0  1  0  0  0  0  0999 V2000
   24.2654  -16.1583  -16.8425 N   0  0  0  0  0  0  0  0  0  0  0  0
   23.2512  -17.1195  -16.5438 C   0  0  0  0  0  0  0  0  0  0  0  0
   22.0849  -16.9709  -17.0115 O   0  0  0  0  0  0  0  0  0  0  0  0
   23.5799  -18.2619  -15.6953 C   0  0  0  0  0  0  0  0  0  0  0  0
   24.9613  -18.2622  -15.1560 C   0  0  0  0  0  0  0  0  0  0  0  0
   25.9687  -19.0639  -15.9333 C   0  0  2  0  0  0  0  0  0  0  0  0
   25.4692  -19.7225  -17.0857 N   0  0  0  0  0  0  0  0  0  0  0  0
   26.6182  -20.0048  -14.9509 C   0  0  0  0  0  0  0  0  0  0  0  0
   26.2317  -21.2140  -14.8934 O   0  0  0  0  0  0  0  0  0  0  0  0
   27.6527  -19.6343  -14.0665 N   0  0  0  0  0  0  0  0  0  0  0  0
   28.1885  -20.6048  -13.0676 C   0  0  1  0  0  0  0  0  0  0  0  0
   29.6390  -20.2719  -12.8540 C   0  0  0  0  0  0  0  0  0  0  0  0
   30.3384  -20.9288  -11.7706 C   0  0  0  0  0  0  0  0  0  0  0  0
   30.7939  -22.2315  -11.7803 C   0  0  0  0  0  0  0  0  0  0  0  0
   31.4371  -22.8242  -10.7090 C   0  0  0  0  0  0  0  0  0  0  0  0
   31.6317  -22.0634   -9.5686 C   0  0  0  0  0  0  0  0  0  0  0  0
   31.1963  -20.7555   -9.5063 C   0  0  0  0  0  0  0  0  0  0  0  0
   30.5628  -20.2148  -10.5986 C   0  0  0  0  0  0  0  0  0  0  0  0
   27.3853  -20.4924  -11.8368 C   0  0  0  0  0  0  0  0  0  0  0  0
   27.1544  -19.3115  -11.3593 O   0  0  0  0  0  0  0  0  0  0  0  0
   26.8345  -21.5783  -11.1322 N   0  0  0  0  0  0  0  0  0  0  0  0
   26.2016  -21.3448   -9.8248 C   0  0  1  0  0  0  0  0  0  0  0  0
   27.1290  -20.4987   -8.9789 C   0  0  0  0  0  0  0  0  0  0  0  0
   26.8913  -20.5138   -7.5441 C   0  0  0  0  0  0  0  0  0  0  0  0
   25.7247  -20.9666   -6.9078 C   0  0  0  0  0  0  0  0  0  0  0  0
   25.9173  -20.7562   -5.6070 N   0  0  0  0  0  0  0  0  0  0  0  0
   27.1300  -20.2003   -5.3739 C   0  0  0  0  0  0  0  0  0  0  0  0
   27.7485  -19.8323   -4.1970 C   0  0  0  0  0  0  0  0  0  0  0  0
   29.0189  -19.2971   -4.2430 C   0  0  0  0  0  0  0  0  0  0  0  0
   29.6935  -19.1170   -5.4309 C   0  0  0  0  0  0  0  0  0  0  0  0
   29.0511  -19.4927   -6.5862 C   0  0  0  0  0  0  0  0  0  0  0  0
   27.7684  -20.0362   -6.5827 C   0  0  0  0  0  0  0  0  0  0  0  0
   24.8769  -20.7552   -9.9450 C   0  0  0  0  0  0  0  0  0  0  0  0
   23.9102  -21.1774   -9.2098 O   0  0  0  0  0  0  0  0  0  0  0  0
   24.5513  -19.7432  -10.8100 O   0  0  0  0  0  0  0  0  0  0  0  0
  2  4  1  0
  2  1  1  0
  3  2  2  0
  5  4  1  0
  6  5  1  0
  6  7  1  6
  8  6  1  0
  9  8  2  0
 10  8  1  0
 11 12  1  1
 11 10  1  0
 12 13  1  0
 13 18  1  0
 13 14  2  0
 14 15  1  0
 15 16  2  0
 17 16  1  0
 18 17  2  0
 19 11  1  0
 20 19  2  0
 21 19  1  0
 22 21  1  0
 22 23  1  1
 23 24  1  0
 24 32  1  0
 25 24  2  0
 25 26  1  0
 26 27  1  0
 27 28  1  0
 28 29  2  0
 30 29  1  0
 31 30  2  0
 32 27  2  0
 32 31  1  0
 33 35  1  0
 33 22  1  0
 34 33  2  0
M  END
$$$$
