QFW.pdb
     RDKit          3D

 35 37  0  0  1  0  0  0  0  0999 V2000
   28.7211  -17.5041  -14.1427 N   0  0  0  0  0  0  0  0  0  0  0  0
   28.2613  -18.1415  -15.3360 C   0  0  0  0  0  0  0  0  0  0  0  0
   28.7246  -17.7864  -16.4586 O   0  0  0  0  0  0  0  0  0  0  0  0
   27.2555  -19.1959  -15.2385 C   0  0  0  0  0  0  0  0  0  0  0  0
   27.0273  -19.7165  -13.8688 C   0  0  0  0  0  0  0  0  0  0  0  0
   28.1353  -20.5543  -13.2924 C   0  0  2  0  0  0  0  0  0  0  0  0
   28.5497  -21.6525  -14.0883 N   0  0  0  0  0  0  0  0  0  0  0  0
   27.6909  -20.9613  -11.9108 C   0  0  0  0  0  0  0  0  0  0  0  0
   26.6313  -21.6489  -11.7715 O   0  0  0  0  0  0  0  0  0  0  0  0
   28.3825  -20.6284  -10.7274 N   0  0  0  0  0  0  0  0  0  0  0  0
   27.8425  -21.0162   -9.3914 C   0  0  1  0  0  0  0  0  0  0  0  0
   28.8866  -20.6660   -8.3680 C   0  0  0  0  0  0  0  0  0  0  0  0
   28.4739  -20.5392   -6.9868 C   0  0  0  0  0  0  0  0  0  0  0  0
   27.5682  -19.6190   -6.4993 C   0  0  0  0  0  0  0  0  0  0  0  0
   27.2230  -19.5201   -5.1636 C   0  0  0  0  0  0  0  0  0  0  0  0
   27.8219  -20.3953   -4.2733 C   0  0  0  0  0  0  0  0  0  0  0  0
   28.7338  -21.3351   -4.7081 C   0  0  0  0  0  0  0  0  0  0  0  0
   29.0417  -21.3911   -6.0456 C   0  0  0  0  0  0  0  0  0  0  0  0
   26.5699  -20.3026   -9.1823 C   0  0  0  0  0  0  0  0  0  0  0  0
   26.4713  -19.0842   -9.6085 O   0  0  0  0  0  0  0  0  0  0  0  0
   25.4345  -20.8470   -8.5551 N   0  0  0  0  0  0  0  0  0  0  0  0
   24.1138  -20.2500   -8.8074 C   0  0  1  0  0  0  0  0  0  0  0  0
   23.8385  -20.2874  -10.2954 C   0  0  0  0  0  0  0  0  0  0  0  0
   22.5323  -19.8130  -10.7247 C   0  0  0  0  0  0  0  0  0  0  0  0
   21.6037  -19.1251   -9.9275 C   0  0  0  0  0  0  0  0  0  0  0  0
   20.5381  -18.9284  -10.7017 N   0  0  0  0  0  0  0  0  0  0  0  0
   20.7282  -19.4449  -11.9391 C   0  0  0  0  0  0  0  0  0  0  0  0
   19.9132  -19.4582  -13.0520 C   0  0  0  0  0  0  0  0  0  0  0  0
   20.3696  -20.0451  -14.2137 C   0  0  0  0  0  0  0  0  0  0  0  0
   21.6183  -20.6213  -14.2996 C   0  0  0  0  0  0  0  0  0  0  0  0
   22.4067  -20.5928  -13.1744 C   0  0  0  0  0  0  0  0  0  0  0  0
   21.9828  -20.0106  -11.9819 C   0  0  0  0  0  0  0  0  0  0  0  0
   23.0576  -20.8891   -8.0373 C   0  0  0  0  0  0  0  0  0  0  0  0
   23.0551  -22.1646   -7.8745 O   0  0  0  0  0  0  0  0  0  0  0  0
   22.0180  -20.2242   -7.4411 O   0  0  0  0  0  0  0  0  0  0  0  0
  2  4  1  0
  2  1  1  0
  3  2  2  0
  5  4  1  0
  6  5  1  0
  6  7  1  6
  8  6  1  0
  9  8  2  0
 10  8  1  0
 11 12  1  1
 11 10  1  0
 12 13  1  0
 13 18  1  0
 13 14  2  0
 14 15  1  0
 15 16  2  0
 17 16  1  0
 18 17  2  0
 19 11  1  0
 20 19  2  0
 21 19  1  0
 22 21  1  0
 22 23  1  6
 23 24  1  0
 24 32  1  0
 25 24  2  0
 25 26  1  0
 26 27  1  0
 27 28  1  0
 28 29  2  0
 30 29  1  0
 31 30  2  0
 32 27  2  0
 32 31  1  0
 33 35  1  0
 33 22  1  0
 34 33  2  0
M  END
$$$$
