QFW.pdb
     RDKit          3D

 35 37  0  0  1  0  0  0  0  0999 V2000
   29.0058  -17.4978  -16.0386 N   0  0  0  0  0  0  0  0  0  0  0  0
   28.5043  -17.9008  -17.3146 C   0  0  0  0  0  0  0  0  0  0  0  0
   28.9667  -17.3744  -18.3682 O   0  0  0  0  0  0  0  0  0  0  0  0
   27.4576  -18.9172  -17.3802 C   0  0  0  0  0  0  0  0  0  0  0  0
   27.1445  -19.5755  -16.0887 C   0  0  0  0  0  0  0  0  0  0  0  0
   28.0905  -20.6634  -15.6608 C   0  0  2  0  0  0  0  0  0  0  0  0
   28.1268  -21.8073  -16.4984 N   0  0  0  0  0  0  0  0  0  0  0  0
   27.7485  -20.9907  -14.2297 C   0  0  0  0  0  0  0  0  0  0  0  0
   26.8701  -21.8751  -13.9827 O   0  0  0  0  0  0  0  0  0  0  0  0
   28.3477  -20.3727  -13.1122 N   0  0  0  0  0  0  0  0  0  0  0  0
   27.9233  -20.7240  -11.7254 C   0  0  1  0  0  0  0  0  0  0  0  0
   28.9454  -20.1481  -10.7853 C   0  0  0  0  0  0  0  0  0  0  0  0
   28.6875  -20.2277   -9.3635 C   0  0  0  0  0  0  0  0  0  0  0  0
   27.9868  -19.2997   -8.6202 C   0  0  0  0  0  0  0  0  0  0  0  0
   27.7866  -19.4071   -7.2559 C   0  0  0  0  0  0  0  0  0  0  0  0
   28.3203  -20.5081   -6.6075 C   0  0  0  0  0  0  0  0  0  0  0  0
   29.0289  -21.4659   -7.3036 C   0  0  0  0  0  0  0  0  0  0  0  0
   29.1990  -21.3113   -8.6578 C   0  0  0  0  0  0  0  0  0  0  0  0
   26.5699  -20.1831  -11.5052 C   0  0  0  0  0  0  0  0  0  0  0  0
   26.2890  -19.0149  -11.9874 O   0  0  0  0  0  0  0  0  0  0  0  0
   25.5410  -20.8446  -10.8105 N   0  0  0  0  0  0  0  0  0  0  0  0
   24.2068  -20.2291  -10.7376 C   0  0  1  0  0  0  0  0  0  0  0  0
   23.3439  -20.8047  -11.8401 C   0  0  0  0  0  0  0  0  0  0  0  0
   23.3630  -20.1001  -13.1124 C   0  0  0  0  0  0  0  0  0  0  0  0
   24.3025  -19.1330  -13.5035 C   0  0  0  0  0  0  0  0  0  0  0  0
   23.9171  -18.7217  -14.7101 N   0  0  0  0  0  0  0  0  0  0  0  0
   22.7951  -19.3643  -15.1126 C   0  0  0  0  0  0  0  0  0  0  0  0
   22.0645  -19.2705  -16.2790 C   0  0  0  0  0  0  0  0  0  0  0  0
   20.9529  -20.0704  -16.4432 C   0  0  0  0  0  0  0  0  0  0  0  0
   20.5462  -20.9639  -15.4763 C   0  0  0  0  0  0  0  0  0  0  0  0
   21.2940  -21.0341  -14.3254 C   0  0  0  0  0  0  0  0  0  0  0  0
   22.4225  -20.2434  -14.1206 C   0  0  0  0  0  0  0  0  0  0  0  0
   23.5951  -20.3800   -9.4261 C   0  0  0  0  0  0  0  0  0  0  0  0
   24.0763  -21.2191   -8.5789 O   0  0  0  0  0  0  0  0  0  0  0  0
   22.5028  -19.6755   -8.9914 O   0  0  0  0  0  0  0  0  0  0  0  0
  2  4  1  0
  2  1  1  0
  3  2  2  0
  5  4  1  0
  6  5  1  0
  6  7  1  6
  8  6  1  0
  9  8  2  0
 10  8  1  0
 11 12  1  1
 11 10  1  0
 12 13  1  0
 13 18  1  0
 13 14  2  0
 14 15  1  0
 15 16  2  0
 17 16  1  0
 18 17  2  0
 19 11  1  0
 20 19  2  0
 21 19  1  0
 22 21  1  0
 22 23  1  6
 23 24  1  0
 24 32  1  0
 25 24  2  0
 25 26  1  0
 26 27  1  0
 27 28  1  0
 28 29  2  0
 30 29  1  0
 31 30  2  0
 32 27  2  0
 32 31  1  0
 33 35  1  0
 33 22  1  0
 34 33  2  0
M  END
$$$$
