CCN.pdb
     RDKit          3D

 21 20  0  0  1  0  0  0  0  0999 V2000
   17.0259   -9.4980  -15.9265 N   0  0  0  0  0  0  0  0  0  0  0  0
   17.4667  -10.5350  -14.9972 C   0  0  1  0  0  0  0  0  0  0  0  0
   18.6413  -11.3056  -15.5619 C   0  0  0  0  0  0  0  0  0  0  0  0
   18.2194  -12.0155  -17.1819 S   0  0  0  0  0  0  0  0  0  0  0  0
   17.9022   -9.9427  -13.7062 C   0  0  0  0  0  0  0  0  0  0  0  0
   18.3526  -10.6980  -12.8073 O   0  0  0  0  0  0  0  0  0  0  0  0
   17.8414   -8.5536  -13.4175 N   0  0  0  0  0  0  0  0  0  0  0  0
   18.2250   -7.9798  -12.1619 C   0  0  1  0  0  0  0  0  0  0  0  0
   19.3652   -6.9952  -12.2748 C   0  0  0  0  0  0  0  0  0  0  0  0
   20.9245   -7.8996  -12.4666 S   0  0  0  0  0  0  0  0  0  0  0  0
   17.0442   -7.3951  -11.4990 C   0  0  0  0  0  0  0  0  0  0  0  0
   16.1968   -6.7217  -12.1787 O   0  0  0  0  0  0  0  0  0  0  0  0
   14.4342   -6.1947   -6.2142 N   0  0  0  0  0  0  0  0  0  0  0  0
   14.2295   -6.6518   -7.5377 C   0  0  0  0  0  0  0  0  0  0  0  0
   13.1604   -6.3801   -8.1211 O   0  0  0  0  0  0  0  0  0  0  0  0
   15.3028   -7.4419   -8.1835 C   0  0  0  0  0  0  0  0  0  0  0  0
   15.7122   -6.8025   -9.4924 C   0  0  2  0  0  0  0  0  0  0  0  0
   16.7794   -7.5356  -10.1137 N   0  0  0  0  0  0  0  0  0  0  0  0
   16.0447   -5.3661   -9.3146 C   0  0  0  0  0  0  0  0  0  0  0  0
   15.2167   -4.4375   -9.4389 O   0  0  0  0  0  0  0  0  0  0  0  0
   17.3506   -5.0374   -8.9917 O   0  0  0  0  0  0  0  0  0  0  0  0
  2  1  1  6
  3  4  1  0
  3  2  1  0
  5  2  1  0
  5  6  2  0
  7  5  1  0
  8  7  1  0
  8 11  1  0
  8  9  1  6
 10  9  1  0
 11 18  1  0
 12 11  2  0
 13 14  1  0
 14 15  2  0
 16 14  1  0
 17 16  1  1
 17 19  1  0
 18 17  1  0
 19 20  2  0
 19 21  1  0
M  END
$$$$
