CCN.pdb
     RDKit          3D

 21 20  0  0  1  0  0  0  0  0999 V2000
   26.3667  -14.7324  -16.5051 N   0  0  0  0  0  0  0  0  0  0  0  0
   25.4533  -13.8521  -17.2290 C   0  0  1  0  0  0  0  0  0  0  0  0
   24.1053  -14.5129  -17.4258 C   0  0  0  0  0  0  0  0  0  0  0  0
   24.2763  -16.0297  -18.4140 S   0  0  0  0  0  0  0  0  0  0  0  0
   25.2250  -12.5897  -16.4799 C   0  0  0  0  0  0  0  0  0  0  0  0
   25.1872  -12.6220  -15.2232 O   0  0  0  0  0  0  0  0  0  0  0  0
   25.0436  -11.3267  -17.1031 N   0  0  0  0  0  0  0  0  0  0  0  0
   24.9488  -10.0882  -16.3888 C   0  0  1  0  0  0  0  0  0  0  0  0
   25.9246   -9.0405  -16.8709 C   0  0  0  0  0  0  0  0  0  0  0  0
   25.6268   -8.7035  -18.6270 S   0  0  0  0  0  0  0  0  0  0  0  0
   23.5550   -9.6062  -16.4088 C   0  0  0  0  0  0  0  0  0  0  0  0
   22.8773   -9.6529  -17.4915 O   0  0  0  0  0  0  0  0  0  0  0  0
   18.9647   -7.8894  -15.6180 N   0  0  0  0  0  0  0  0  0  0  0  0
   19.2114   -8.9435  -14.7067 C   0  0  0  0  0  0  0  0  0  0  0  0
   18.2651   -9.4130  -14.0423 O   0  0  0  0  0  0  0  0  0  0  0  0
   20.5962   -9.4522  -14.5769 C   0  0  0  0  0  0  0  0  0  0  0  0
   21.5524   -8.5822  -15.3633 C   0  0  2  0  0  0  0  0  0  0  0  0
   22.8971   -9.0779  -15.2700 N   0  0  0  0  0  0  0  0  0  0  0  0
   21.4482   -7.1572  -14.9585 C   0  0  0  0  0  0  0  0  0  0  0  0
   22.2537   -6.5897  -14.1886 O   0  0  0  0  0  0  0  0  0  0  0  0
   20.3953   -6.4140  -15.4649 O   0  0  0  0  0  0  0  0  0  0  0  0
  2  1  1  1
  3  4  1  0
  3  2  1  0
  5  2  1  0
  5  6  2  0
  7  5  1  0
  8  7  1  0
  8 11  1  0
  8  9  1  6
 10  9  1  0
 11 18  1  0
 12 11  2  0
 13 14  1  0
 14 15  2  0
 16 14  1  0
 17 16  1  1
 17 19  1  0
 18 17  1  0
 19 20  2  0
 19 21  1  0
M  END
$$$$
