CCN.pdb
     RDKit          3D

 21 20  0  0  1  0  0  0  0  0999 V2000
   22.0050  -12.8822  -18.0202 N   0  0  0  0  0  0  0  0  0  0  0  0
   22.2673  -11.9271  -16.9467 C   0  0  1  0  0  0  0  0  0  0  0  0
   23.6781  -11.3851  -17.0359 C   0  0  0  0  0  0  0  0  0  0  0  0
   24.8781  -12.6347  -16.4836 S   0  0  0  0  0  0  0  0  0  0  0  0
   21.3398  -10.7694  -17.0259 C   0  0  0  0  0  0  0  0  0  0  0  0
   21.1042  -10.2493  -18.1464 O   0  0  0  0  0  0  0  0  0  0  0  0
   20.6907  -10.2025  -15.8972 N   0  0  0  0  0  0  0  0  0  0  0  0
   19.6676   -9.2029  -15.9809 C   0  0  1  0  0  0  0  0  0  0  0  0
   18.3074   -9.6978  -15.5479 C   0  0  0  0  0  0  0  0  0  0  0  0
   17.1080   -8.3439  -15.6689 S   0  0  0  0  0  0  0  0  0  0  0  0
   20.0861   -7.9975  -15.2410 C   0  0  0  0  0  0  0  0  0  0  0  0
   20.8364   -8.1066  -14.2121 O   0  0  0  0  0  0  0  0  0  0  0  0
   22.3025   -4.0747  -13.0919 N   0  0  0  0  0  0  0  0  0  0  0  0
   22.1746   -4.1272  -14.5002 C   0  0  0  0  0  0  0  0  0  0  0  0
   22.4667   -3.1221  -15.1797 O   0  0  0  0  0  0  0  0  0  0  0  0
   21.6946   -5.3850  -15.1171 C   0  0  0  0  0  0  0  0  0  0  0  0
   20.2057   -5.5440  -14.8981 C   0  0  2  0  0  0  0  0  0  0  0  0
   19.6983   -6.6845  -15.6081 N   0  0  0  0  0  0  0  0  0  0  0  0
   19.4712   -4.2981  -15.2356 C   0  0  0  0  0  0  0  0  0  0  0  0
   18.8853   -4.1064  -16.3235 O   0  0  0  0  0  0  0  0  0  0  0  0
   19.4340   -3.2896  -14.2875 O   0  0  0  0  0  0  0  0  0  0  0  0
  2  1  1  6
  3  4  1  0
  3  2  1  0
  5  2  1  0
  5  6  2  0
  7  5  1  0
  8  7  1  0
  8 11  1  0
  8  9  1  1
 10  9  1  0
 11 18  1  0
 12 11  2  0
 13 14  1  0
 14 15  2  0
 16 14  1  0
 17 16  1  6
 17 19  1  0
 18 17  1  0
 19 20  2  0
 19 21  1  0
M  END
$$$$
