CCN.pdb
     RDKit          3D

 21 20  0  0  1  0  0  0  0  0999 V2000
   16.6452  -10.6648  -12.9558 N   0  0  0  0  0  0  0  0  0  0  0  0
   17.2268   -9.4367  -12.4203 C   0  0  1  0  0  0  0  0  0  0  0  0
   17.6590   -8.5097  -13.5366 C   0  0  0  0  0  0  0  0  0  0  0  0
   18.9920   -9.2665  -14.5147 S   0  0  0  0  0  0  0  0  0  0  0  0
   16.2419   -8.7006  -11.5866 C   0  0  0  0  0  0  0  0  0  0  0  0
   15.0641   -8.5659  -12.0064 O   0  0  0  0  0  0  0  0  0  0  0  0
   16.5509   -8.1293  -10.3238 N   0  0  0  0  0  0  0  0  0  0  0  0
   15.5869   -7.4929   -9.4760 C   0  0  1  0  0  0  0  0  0  0  0  0
   15.3559   -8.2241   -8.1744 C   0  0  0  0  0  0  0  0  0  0  0  0
   14.0374   -7.3968   -7.2453 S   0  0  0  0  0  0  0  0  0  0  0  0
   15.9614   -6.0817   -9.2664 C   0  0  0  0  0  0  0  0  0  0  0  0
   17.1940   -5.7459   -9.2272 O   0  0  0  0  0  0  0  0  0  0  0  0
   16.1324   -1.0764   -9.0381 N   0  0  0  0  0  0  0  0  0  0  0  0
   16.3220   -1.7494  -10.2684 C   0  0  0  0  0  0  0  0  0  0  0  0
   16.7571   -1.1166  -11.2520 O   0  0  0  0  0  0  0  0  0  0  0  0
   15.9931   -3.1916  -10.3399 C   0  0  0  0  0  0  0  0  0  0  0  0
   15.4360   -3.6706   -9.0171 C   0  0  2  0  0  0  0  0  0  0  0  0
   15.0139   -5.0408   -9.1004 N   0  0  0  0  0  0  0  0  0  0  0  0
   14.3553   -2.7773   -8.5275 C   0  0  0  0  0  0  0  0  0  0  0  0
   13.1625   -3.1301   -8.4000 O   0  0  0  0  0  0  0  0  0  0  0  0
   14.6906   -1.4762   -8.1927 O   0  0  0  0  0  0  0  0  0  0  0  0
  2  1  1  6
  3  4  1  0
  3  2  1  0
  5  2  1  0
  5  6  2  0
  7  5  1  0
  8  7  1  0
  8 11  1  0
  8  9  1  1
 10  9  1  0
 11 18  1  0
 12 11  2  0
 13 14  1  0
 14 15  2  0
 16 14  1  0
 17 16  1  6
 17 19  1  0
 18 17  1  0
 19 20  2  0
 19 21  1  0
M  END
$$$$
