CCN.pdb
     RDKit          3D

 21 20  0  0  1  0  0  0  0  0999 V2000
   17.1558  -13.1853  -15.1047 N   0  0  0  0  0  0  0  0  0  0  0  0
   16.6942  -11.8020  -15.1867 C   0  0  1  0  0  0  0  0  0  0  0  0
   15.1817  -11.7337  -15.1791 C   0  0  0  0  0  0  0  0  0  0  0  0
   14.5052  -12.3929  -16.7329 S   0  0  0  0  0  0  0  0  0  0  0  0
   17.1814  -11.0088  -14.0289 C   0  0  0  0  0  0  0  0  0  0  0  0
   17.3043  -11.5704  -12.9104 O   0  0  0  0  0  0  0  0  0  0  0  0
   17.5231   -9.6326  -14.1059 N   0  0  0  0  0  0  0  0  0  0  0  0
   18.1667   -8.9077  -13.0508 C   0  0  1  0  0  0  0  0  0  0  0  0
   19.3463   -8.0876  -13.5180 C   0  0  0  0  0  0  0  0  0  0  0  0
   20.0132   -7.1431  -12.1218 S   0  0  0  0  0  0  0  0  0  0  0  0
   17.1724   -8.0951  -12.3251 C   0  0  0  0  0  0  0  0  0  0  0  0
   16.3603   -7.3497  -12.9720 O   0  0  0  0  0  0  0  0  0  0  0  0
   15.0557   -6.4271   -6.8129 N   0  0  0  0  0  0  0  0  0  0  0  0
   14.9198   -6.6721   -8.2000 C   0  0  0  0  0  0  0  0  0  0  0  0
   14.0152   -6.0960   -8.8380 O   0  0  0  0  0  0  0  0  0  0  0  0
   15.8659   -7.6113   -8.8450 C   0  0  0  0  0  0  0  0  0  0  0  0
   16.1778   -7.1588  -10.2548 C   0  0  2  0  0  0  0  0  0  0  0  0
   17.0549   -8.0864  -10.9127 N   0  0  0  0  0  0  0  0  0  0  0  0
   16.7077   -5.7716  -10.2753 C   0  0  0  0  0  0  0  0  0  0  0  0
   16.0032   -4.7530  -10.1031 O   0  0  0  0  0  0  0  0  0  0  0  0
   18.0632   -5.5978  -10.4985 O   0  0  0  0  0  0  0  0  0  0  0  0
  2  1  1  1
  3  4  1  0
  3  2  1  0
  5  2  1  0
  5  6  2  0
  7  5  1  0
  8  7  1  0
  8 11  1  0
  8  9  1  6
 10  9  1  0
 11 18  1  0
 12 11  2  0
 13 14  1  0
 14 15  2  0
 16 14  1  0
 17 16  1  1
 17 19  1  0
 18 17  1  0
 19 20  2  0
 19 21  1  0
M  END
$$$$
