CCN.pdb
     RDKit          3D

 21 20  0  0  1  0  0  0  0  0999 V2000
   17.0478  -14.0249  -15.2408 N   0  0  0  0  0  0  0  0  0  0  0  0
   16.5716  -12.6443  -15.2595 C   0  0  1  0  0  0  0  0  0  0  0  0
   15.1821  -12.5419  -14.6669 C   0  0  0  0  0  0  0  0  0  0  0  0
   13.9571  -13.2977  -15.7781 S   0  0  0  0  0  0  0  0  0  0  0  0
   17.4621  -11.7632  -14.4609 C   0  0  0  0  0  0  0  0  0  0  0  0
   17.9567  -12.2010  -13.3907 O   0  0  0  0  0  0  0  0  0  0  0  0
   17.7965  -10.4349  -14.8355 N   0  0  0  0  0  0  0  0  0  0  0  0
   18.6279   -9.5683  -14.0539 C   0  0  1  0  0  0  0  0  0  0  0  0
   19.7031   -8.8789  -14.8607 C   0  0  0  0  0  0  0  0  0  0  0  0
   20.6656   -7.7916  -13.7755 S   0  0  0  0  0  0  0  0  0  0  0  0
   17.7890   -8.6123  -13.3070 C   0  0  0  0  0  0  0  0  0  0  0  0
   16.7981   -8.0456  -13.8818 O   0  0  0  0  0  0  0  0  0  0  0  0
   15.5048   -5.6797   -9.9616 N   0  0  0  0  0  0  0  0  0  0  0  0
   16.1469   -6.6513   -9.1578 C   0  0  0  0  0  0  0  0  0  0  0  0
   15.9442   -6.6587   -7.9264 O   0  0  0  0  0  0  0  0  0  0  0  0
   17.0423   -7.6299   -9.8165 C   0  0  0  0  0  0  0  0  0  0  0  0
   17.1858   -7.3050  -11.2874 C   0  0  2  0  0  0  0  0  0  0  0  0
   18.0171   -8.2701  -11.9506 N   0  0  0  0  0  0  0  0  0  0  0  0
   17.6646   -5.9141  -11.4920 C   0  0  0  0  0  0  0  0  0  0  0  0
   18.8327   -5.6205  -11.8277 O   0  0  0  0  0  0  0  0  0  0  0  0
   16.7618   -4.8820  -11.2991 O   0  0  0  0  0  0  0  0  0  0  0  0
  2  1  1  1
  3  4  1  0
  3  2  1  0
  5  2  1  0
  5  6  2  0
  7  5  1  0
  8  7  1  0
  8 11  1  0
  8  9  1  6
 10  9  1  0
 11 18  1  0
 12 11  2  0
 13 14  1  0
 14 15  2  0
 16 14  1  0
 17 16  1  1
 17 19  1  0
 18 17  1  0
 19 20  2  0
 19 21  1  0
M  END
$$$$
