QEA.pdb
     RDKit          3D

 24 23  0  0  1  0  0  0  0  0999 V2000
   27.2650  -12.0394  -15.1490 N   0  0  0  0  0  0  0  0  0  0  0  0
   27.0864  -11.3079  -16.3525 C   0  0  0  0  0  0  0  0  0  0  0  0
   28.0586  -10.6967  -16.8331 O   0  0  0  0  0  0  0  0  0  0  0  0
   25.7520  -11.2615  -17.0486 C   0  0  0  0  0  0  0  0  0  0  0  0
   24.7881  -12.0688  -16.2542 C   0  0  0  0  0  0  0  0  0  0  0  0
   23.3752  -12.0666  -16.7237 C   0  0  2  0  0  0  0  0  0  0  0  0
   23.4147  -12.7141  -18.0608 N   0  0  0  0  0  0  0  0  0  0  0  0
   22.7683  -10.7470  -16.9181 C   0  0  0  0  0  0  0  0  0  0  0  0
   22.8948  -10.1187  -18.0071 O   0  0  0  0  0  0  0  0  0  0  0  0
   21.9971  -10.0756  -15.9207 N   0  0  0  0  0  0  0  0  0  0  0  0
   21.3608   -8.8043  -16.2087 C   0  0  1  0  0  0  0  0  0  0  0  0
   19.8650   -8.9069  -15.8418 C   0  0  0  0  0  0  0  0  0  0  0  0
   19.2154   -7.5813  -16.1701 C   0  0  0  0  0  0  0  0  0  0  0  0
   17.7803   -7.6105  -15.8444 C   0  0  0  0  0  0  0  0  0  0  0  0
   16.8924   -7.6366  -16.7270 O   0  0  0  0  0  0  0  0  0  0  0  0
   21.9646   -7.6468  -15.5379 C   0  0  0  0  0  0  0  0  0  0  0  0
   22.3272   -7.7938  -14.3263 O   0  0  0  0  0  0  0  0  0  0  0  0
   17.3914   -7.6092  -14.5194 O   0  0  0  0  0  0  0  0  0  0  0  0
   22.9860   -4.0995  -16.3561 C   0  0  0  0  0  0  0  0  0  0  0  0
   22.7087   -5.2473  -15.4021 C   0  0  2  0  0  0  0  0  0  0  0  0
   22.1780   -6.3958  -16.1134 N   0  0  0  0  0  0  0  0  0  0  0  0
   21.7833   -4.7813  -14.3454 C   0  0  0  0  0  0  0  0  0  0  0  0
   22.1988   -4.0402  -13.2532 O   0  0  0  0  0  0  0  0  0  0  0  0
   20.5628   -5.0625  -14.4284 O   0  0  0  0  0  0  0  0  0  0  0  0
  1  2  1  0
  2  3  2  0
  4  5  1  0
  4  2  1  0
  6  5  1  0
  6  7  1  6
  8  6  1  0
  8 10  1  0
  9  8  2  0
 10 11  1  0
 11 16  1  0
 12 13  1  0
 11 12  1  1
 13 14  1  0
 14 18  1  0
 14 15  2  0
 16 17  2  0
 20 19  1  6
 20 22  1  0
 21 20  1  0
 21 16  1  0
 22 24  2  0
 22 23  1  0
M  END
$$$$
