QEA.pdb
     RDKit          3D

 24 23  0  0  1  0  0  0  0  0999 V2000
   13.6322  -12.0009  -15.4723 N   0  0  0  0  0  0  0  0  0  0  0  0
   14.6321  -13.0066  -15.5365 C   0  0  0  0  0  0  0  0  0  0  0  0
   14.2884  -14.2004  -15.4568 O   0  0  0  0  0  0  0  0  0  0  0  0
   16.0870  -12.6534  -15.6979 C   0  0  0  0  0  0  0  0  0  0  0  0
   16.2097  -11.1717  -15.6604 C   0  0  0  0  0  0  0  0  0  0  0  0
   17.5925  -10.6210  -15.6234 C   0  0  2  0  0  0  0  0  0  0  0  0
   18.3412  -11.5260  -14.7127 N   0  0  0  0  0  0  0  0  0  0  0  0
   17.7279   -9.2702  -15.0714 C   0  0  0  0  0  0  0  0  0  0  0  0
   17.3425   -8.2543  -15.7163 O   0  0  0  0  0  0  0  0  0  0  0  0
   18.2887   -8.9923  -13.7874 N   0  0  0  0  0  0  0  0  0  0  0  0
   18.3543   -7.6323  -13.2872 C   0  0  1  0  0  0  0  0  0  0  0  0
   17.9436   -7.6335  -11.7994 C   0  0  0  0  0  0  0  0  0  0  0  0
   17.9725   -6.2031  -11.3094 C   0  0  0  0  0  0  0  0  0  0  0  0
   17.6078   -6.1335   -9.8852 C   0  0  0  0  0  0  0  0  0  0  0  0
   17.4239   -7.1580   -9.1889 O   0  0  0  0  0  0  0  0  0  0  0  0
   19.6586   -6.9786  -13.4481 C   0  0  0  0  0  0  0  0  0  0  0  0
   20.6754   -7.5693  -12.9600 O   0  0  0  0  0  0  0  0  0  0  0  0
   17.4613   -4.8970   -9.2883 O   0  0  0  0  0  0  0  0  0  0  0  0
   21.0953   -4.0495  -15.3480 C   0  0  0  0  0  0  0  0  0  0  0  0
   21.1978   -5.2312  -14.4006 C   0  0  2  0  0  0  0  0  0  0  0  0
   19.8831   -5.7633  -14.0919 N   0  0  0  0  0  0  0  0  0  0  0  0
   21.9183   -4.8073  -13.1795 C   0  0  0  0  0  0  0  0  0  0  0  0
   23.2962   -4.6961  -13.1180 O   0  0  0  0  0  0  0  0  0  0  0  0
   21.2648   -4.5323  -12.1436 O   0  0  0  0  0  0  0  0  0  0  0  0
  1  2  1  0
  2  3  2  0
  4  5  1  0
  4  2  1  0
  6  5  1  0
  6  7  1  1
  8  6  1  0
  8 10  1  0
  9  8  2  0
 10 11  1  0
 11 16  1  0
 12 13  1  0
 11 12  1  1
 13 14  1  0
 14 18  1  0
 14 15  2  0
 16 17  2  0
 20 19  1  6
 20 22  1  0
 21 20  1  0
 21 16  1  0
 22 24  2  0
 22 23  1  0
M  END
$$$$
