QEA.pdb
     RDKit          3D

 24 23  0  0  1  0  0  0  0  0999 V2000
   18.6081  -15.3617  -16.0909 N   0  0  0  0  0  0  0  0  0  0  0  0
   18.8048  -14.0696  -16.6452 C   0  0  0  0  0  0  0  0  0  0  0  0
   18.3959  -13.8430  -17.7990 O   0  0  0  0  0  0  0  0  0  0  0  0
   19.4935  -12.9809  -15.8655 C   0  0  0  0  0  0  0  0  0  0  0  0
   18.4510  -12.0641  -15.3324 C   0  0  0  0  0  0  0  0  0  0  0  0
   18.1608  -10.8476  -16.1404 C   0  0  2  0  0  0  0  0  0  0  0  0
   19.2114  -10.8261  -17.1914 N   0  0  0  0  0  0  0  0  0  0  0  0
   18.2575   -9.5699  -15.4292 C   0  0  0  0  0  0  0  0  0  0  0  0
   17.5654   -9.3369  -14.3980 O   0  0  0  0  0  0  0  0  0  0  0  0
   19.1236   -8.5060  -15.8271 N   0  0  0  0  0  0  0  0  0  0  0  0
   19.1925   -7.2799  -15.0552 C   0  0  1  0  0  0  0  0  0  0  0  0
   20.6752   -6.8857  -14.8864 C   0  0  0  0  0  0  0  0  0  0  0  0
   20.7316   -5.6638  -13.9971 C   0  0  0  0  0  0  0  0  0  0  0  0
   22.1261   -5.2577  -13.7589 C   0  0  0  0  0  0  0  0  0  0  0  0
   23.0985   -5.8812  -14.2424 O   0  0  0  0  0  0  0  0  0  0  0  0
   18.4341   -6.1552  -15.6158 C   0  0  0  0  0  0  0  0  0  0  0  0
   18.6631   -5.8387  -16.8275 O   0  0  0  0  0  0  0  0  0  0  0  0
   22.3790   -4.1496  -12.9746 O   0  0  0  0  0  0  0  0  0  0  0  0
   15.4258   -4.0797  -14.7968 C   0  0  0  0  0  0  0  0  0  0  0  0
   16.7437   -4.2942  -15.5190 C   0  0  2  0  0  0  0  0  0  0  0  0
   17.4802   -5.4006  -14.9357 N   0  0  0  0  0  0  0  0  0  0  0  0
   17.5227   -3.0365  -15.4815 C   0  0  0  0  0  0  0  0  0  0  0  0
   17.2614   -1.9633  -16.3149 O   0  0  0  0  0  0  0  0  0  0  0  0
   18.4668   -2.9216  -14.6623 O   0  0  0  0  0  0  0  0  0  0  0  0
  1  2  1  0
  2  3  2  0
  4  5  1  0
  4  2  1  0
  6  5  1  0
  6  7  1  6
  8  6  1  0
  8 10  1  0
  9  8  2  0
 10 11  1  0
 11 16  1  0
 12 13  1  0
 11 12  1  6
 13 14  1  0
 14 18  1  0
 14 15  2  0
 16 17  2  0
 20 19  1  1
 20 22  1  0
 21 20  1  0
 21 16  1  0
 22 24  2  0
 22 23  1  0
M  END
$$$$
