QEA.pdb
     RDKit          3D

 24 23  0  0  1  0  0  0  0  0999 V2000
   15.3798  -12.2519  -18.2013 N   0  0  0  0  0  0  0  0  0  0  0  0
   16.4550  -12.6264  -19.0492 C   0  0  0  0  0  0  0  0  0  0  0  0
   16.2210  -13.3628  -20.0253 O   0  0  0  0  0  0  0  0  0  0  0  0
   17.8595  -12.1506  -18.7874 C   0  0  0  0  0  0  0  0  0  0  0  0
   17.8475  -11.3384  -17.5417 C   0  0  0  0  0  0  0  0  0  0  0  0
   19.1553  -10.7794  -17.1012 C   0  0  2  0  0  0  0  0  0  0  0  0
   19.8079  -11.8807  -16.3461 N   0  0  0  0  0  0  0  0  0  0  0  0
   19.0864   -9.6339  -16.1899 C   0  0  0  0  0  0  0  0  0  0  0  0
   18.6553   -9.7578  -15.0086 O   0  0  0  0  0  0  0  0  0  0  0  0
   19.4945   -8.3124  -16.5472 N   0  0  0  0  0  0  0  0  0  0  0  0
   19.4350   -7.2327  -15.5804 C   0  0  1  0  0  0  0  0  0  0  0  0
   20.8748   -6.7817  -15.2552 C   0  0  0  0  0  0  0  0  0  0  0  0
   20.7901   -5.6239  -14.2860 C   0  0  0  0  0  0  0  0  0  0  0  0
   22.1347   -5.1978  -13.8656 C   0  0  0  0  0  0  0  0  0  0  0  0
   23.1700   -5.8187  -14.1987 O   0  0  0  0  0  0  0  0  0  0  0  0
   18.6282   -6.0785  -15.9944 C   0  0  0  0  0  0  0  0  0  0  0  0
   18.8827   -5.5612  -17.1295 O   0  0  0  0  0  0  0  0  0  0  0  0
   22.2672   -4.0734  -13.0751 O   0  0  0  0  0  0  0  0  0  0  0  0
   15.5643   -4.2125  -14.8279 C   0  0  0  0  0  0  0  0  0  0  0  0
   16.7875   -4.3871  -15.7096 C   0  0  2  0  0  0  0  0  0  0  0  0
   17.6027   -5.4972  -15.2513 N   0  0  0  0  0  0  0  0  0  0  0  0
   17.5501   -3.1189  -15.7305 C   0  0  0  0  0  0  0  0  0  0  0  0
   17.2227   -2.0564  -16.5542 O   0  0  0  0  0  0  0  0  0  0  0  0
   18.5418   -2.9847  -14.9727 O   0  0  0  0  0  0  0  0  0  0  0  0
  1  2  1  0
  2  3  2  0
  4  5  1  0
  4  2  1  0
  6  5  1  0
  6  7  1  1
  8  6  1  0
  8 10  1  0
  9  8  2  0
 10 11  1  0
 11 16  1  0
 12 13  1  0
 11 12  1  6
 13 14  1  0
 14 18  1  0
 14 15  2  0
 16 17  2  0
 20 19  1  1
 20 22  1  0
 21 20  1  0
 21 16  1  0
 22 24  2  0
 22 23  1  0
M  END
$$$$
