NES.pdb
     RDKit          3D

 24 23  0  0  1  0  0  0  0  0999 V2000
    8.5891  -17.9583   15.2447 N   0  0  0  0  0  0  0  0  0  0  0  0
    7.4648  -18.3489   16.0489 C   0  0  0  0  0  0  0  0  0  0  0  0
    6.5341  -18.9696   15.4819 O   0  0  0  0  0  0  0  0  0  0  0  0
    7.4502  -18.0134   17.4723 C   0  0  0  0  0  0  0  0  0  0  0  0
    8.5791  -17.1482   17.9358 C   0  0  2  0  0  0  0  0  0  0  0  0
    9.7378  -17.3783   17.0654 N   0  0  0  0  0  0  0  0  0  0  0  0
    8.9141  -17.4902   19.3370 C   0  0  0  0  0  0  0  0  0  0  0  0
    8.0882  -17.4987   20.2742 O   0  0  0  0  0  0  0  0  0  0  0  0
   10.2618  -17.8410   19.6877 N   0  0  0  0  0  0  0  0  0  0  0  0
   10.6500  -18.2214   21.0314 C   0  0  1  0  0  0  0  0  0  0  0  0
   11.9982  -18.8963   21.0152 C   0  0  0  0  0  0  0  0  0  0  0  0
   11.8368  -20.2891   20.4828 C   0  0  0  0  0  0  0  0  0  0  0  0
   13.1735  -20.9369   20.4206 C   0  0  0  0  0  0  0  0  0  0  0  0
   13.5272  -21.6335   19.4500 O   0  0  0  0  0  0  0  0  0  0  0  0
   10.6127  -17.0553   21.9527 C   0  0  0  0  0  0  0  0  0  0  0  0
   10.9575  -15.9373   21.5338 O   0  0  0  0  0  0  0  0  0  0  0  0
   14.0612  -20.7660   21.4713 O   0  0  0  0  0  0  0  0  0  0  0  0
    8.7785  -14.0626   24.7353 O   0  0  0  0  0  0  0  0  0  0  0  0
    8.8752  -15.1740   23.9121 C   0  0  0  0  0  0  0  0  0  0  0  0
   10.0767  -16.0236   24.1718 C   0  0  2  0  0  0  0  0  0  0  0  0
   10.1967  -17.1597   23.3058 N   0  0  0  0  0  0  0  0  0  0  0  0
    9.9261  -16.5631   25.5686 C   0  0  0  0  0  0  0  0  0  0  0  0
    9.9485  -15.7527   26.6898 O   0  0  0  0  0  0  0  0  0  0  0  0
    9.7750  -17.7981   25.7109 O   0  0  0  0  0  0  0  0  0  0  0  0
  1  2  1  0
  2  3  2  0
  4  2  1  0
  5  4  1  0
  5  6  1  6
  7  8  2  0
  7  5  1  0
  9  7  1  0
 10 11  1  6
 10  9  1  0
 11 12  1  0
 13 12  1  0
 13 17  1  0
 14 13  2  0
 15 10  1  0
 16 15  2  0
 19 18  1  0
 20 19  1  6
 20 21  1  0
 21 15  1  0
 22 23  1  0
 22 20  1  0
 24 22  2  0
M  END
$$$$
