NES.pdb
     RDKit          3D

 24 23  0  0  1  0  0  0  0  0999 V2000
    8.3948  -16.1828   13.0914 N   0  0  0  0  0  0  0  0  0  0  0  0
    7.4896  -17.0451   13.7988 C   0  0  0  0  0  0  0  0  0  0  0  0
    6.5040  -17.4948   13.1669 O   0  0  0  0  0  0  0  0  0  0  0  0
    7.7486  -17.3592   15.2035 C   0  0  0  0  0  0  0  0  0  0  0  0
    8.8903  -16.6175   15.8235 C   0  0  2  0  0  0  0  0  0  0  0  0
   10.1446  -17.1155   15.2475 N   0  0  0  0  0  0  0  0  0  0  0  0
    8.8767  -16.8344   17.2881 C   0  0  0  0  0  0  0  0  0  0  0  0
    7.9310  -16.5098   18.0371 O   0  0  0  0  0  0  0  0  0  0  0  0
   10.0007  -17.4541   17.9325 N   0  0  0  0  0  0  0  0  0  0  0  0
   10.0487  -17.7032   19.3596 C   0  0  1  0  0  0  0  0  0  0  0  0
   11.2525  -18.5431   19.7038 C   0  0  0  0  0  0  0  0  0  0  0  0
   11.0660  -19.9161   19.1299 C   0  0  0  0  0  0  0  0  0  0  0  0
   12.3179  -20.6932   19.3278 C   0  0  0  0  0  0  0  0  0  0  0  0
   13.1827  -20.7938   18.4365 O   0  0  0  0  0  0  0  0  0  0  0  0
   10.0076  -16.4321   20.1293 C   0  0  0  0  0  0  0  0  0  0  0  0
   10.7300  -15.4840   19.7778 O   0  0  0  0  0  0  0  0  0  0  0  0
   12.5385  -21.3295   20.5392 O   0  0  0  0  0  0  0  0  0  0  0  0
    6.7656  -15.0798   22.3006 O   0  0  0  0  0  0  0  0  0  0  0  0
    7.8744  -14.2972   22.0168 C   0  0  0  0  0  0  0  0  0  0  0  0
    9.1694  -15.0424   22.0378 C   0  0  2  0  0  0  0  0  0  0  0  0
    9.1716  -16.2476   21.2615 N   0  0  0  0  0  0  0  0  0  0  0  0
    9.4047  -15.4522   23.4667 C   0  0  0  0  0  0  0  0  0  0  0  0
    9.5746  -14.5358   24.4892 O   0  0  0  0  0  0  0  0  0  0  0  0
    9.4466  -16.6758   23.7301 O   0  0  0  0  0  0  0  0  0  0  0  0
  1  2  1  0
  2  3  2  0
  4  2  1  0
  5  4  1  0
  5  6  1  6
  7  8  2  0
  7  5  1  0
  9  7  1  0
 10 11  1  6
 10  9  1  0
 11 12  1  0
 13 12  1  0
 13 17  1  0
 14 13  2  0
 15 10  1  0
 16 15  2  0
 19 18  1  0
 20 19  1  1
 20 21  1  0
 21 15  1  0
 22 23  1  0
 22 20  1  0
 24 22  2  0
M  END
$$$$
