NES.pdb
     RDKit          3D

 24 23  0  0  1  0  0  0  0  0999 V2000
    7.1095  -12.4464   16.9094 N   0  0  0  0  0  0  0  0  0  0  0  0
    7.4340  -13.8127   16.6076 C   0  0  0  0  0  0  0  0  0  0  0  0
    7.4075  -14.1627   15.4035 O   0  0  0  0  0  0  0  0  0  0  0  0
    7.7765  -14.7259   17.6974 C   0  0  0  0  0  0  0  0  0  0  0  0
    9.1207  -14.5058   18.3160 C   0  0  2  0  0  0  0  0  0  0  0  0
   10.1521  -14.7423   17.2995 N   0  0  0  0  0  0  0  0  0  0  0  0
    9.2955  -15.4402   19.4512 C   0  0  0  0  0  0  0  0  0  0  0  0
    8.4759  -15.5717   20.3849 O   0  0  0  0  0  0  0  0  0  0  0  0
   10.4666  -16.2682   19.5257 N   0  0  0  0  0  0  0  0  0  0  0  0
   10.7408  -17.1416   20.6495 C   0  0  1  0  0  0  0  0  0  0  0  0
   11.8805  -18.0728   20.3225 C   0  0  0  0  0  0  0  0  0  0  0  0
   11.4013  -19.0992   19.3396 C   0  0  0  0  0  0  0  0  0  0  0  0
   12.5399  -19.9829   18.9749 C   0  0  0  0  0  0  0  0  0  0  0  0
   13.3306  -19.6985   18.0550 O   0  0  0  0  0  0  0  0  0  0  0  0
   10.9872  -16.3606   21.8902 C   0  0  0  0  0  0  0  0  0  0  0  0
   11.8412  -15.4579   21.8818 O   0  0  0  0  0  0  0  0  0  0  0  0
   12.7358  -21.1629   19.6752 O   0  0  0  0  0  0  0  0  0  0  0  0
    8.1636  -15.6642   24.7626 O   0  0  0  0  0  0  0  0  0  0  0  0
    9.3844  -15.0073   24.7460 C   0  0  0  0  0  0  0  0  0  0  0  0
   10.5297  -15.8581   24.3015 C   0  0  2  0  0  0  0  0  0  0  0  0
   10.2843  -16.6004   23.0999 N   0  0  0  0  0  0  0  0  0  0  0  0
   10.7598  -16.8701   25.3913 C   0  0  0  0  0  0  0  0  0  0  0  0
   11.1443  -16.5155   26.6722 O   0  0  0  0  0  0  0  0  0  0  0  0
   10.5939  -18.0807   25.1168 O   0  0  0  0  0  0  0  0  0  0  0  0
  1  2  1  0
  2  3  2  0
  4  2  1  0
  5  4  1  0
  5  6  1  6
  7  8  2  0
  7  5  1  0
  9  7  1  0
 10 11  1  6
 10  9  1  0
 11 12  1  0
 13 12  1  0
 13 17  1  0
 14 13  2  0
 15 10  1  0
 16 15  2  0
 19 18  1  0
 20 19  1  1
 20 21  1  0
 21 15  1  0
 22 23  1  0
 22 20  1  0
 24 22  2  0
M  END
$$$$
