NES.pdb
     RDKit          3D

 24 23  0  0  1  0  0  0  0  0999 V2000
    8.8569  -13.2977   17.1381 N   0  0  0  0  0  0  0  0  0  0  0  0
    7.6114  -13.8132   17.6343 C   0  0  0  0  0  0  0  0  0  0  0  0
    6.6895  -14.0004   16.8048 O   0  0  0  0  0  0  0  0  0  0  0  0
    7.4699  -14.0948   19.0625 C   0  0  0  0  0  0  0  0  0  0  0  0
    8.6414  -13.7078   19.9085 C   0  0  2  0  0  0  0  0  0  0  0  0
    9.8748  -14.0178   19.1764 N   0  0  0  0  0  0  0  0  0  0  0  0
    8.5967  -14.4635   21.1811 C   0  0  0  0  0  0  0  0  0  0  0  0
    7.6423  -14.4262   21.9864 O   0  0  0  0  0  0  0  0  0  0  0  0
    9.6981  -15.3058   21.5549 N   0  0  0  0  0  0  0  0  0  0  0  0
    9.6872  -16.1298   22.7474 C   0  0  1  0  0  0  0  0  0  0  0  0
   10.5973  -17.3187   22.5700 C   0  0  0  0  0  0  0  0  0  0  0  0
   10.5023  -18.1881   23.7883 C   0  0  0  0  0  0  0  0  0  0  0  0
   11.4521  -19.3228   23.6434 C   0  0  0  0  0  0  0  0  0  0  0  0
   11.9966  -19.5958   22.5566 O   0  0  0  0  0  0  0  0  0  0  0  0
   10.0273  -15.3328   23.9552 C   0  0  0  0  0  0  0  0  0  0  0  0
   10.9575  -14.5106   23.8999 O   0  0  0  0  0  0  0  0  0  0  0  0
   11.7471  -20.1073   24.7474 O   0  0  0  0  0  0  0  0  0  0  0  0
    8.6692  -12.7896   27.6409 O   0  0  0  0  0  0  0  0  0  0  0  0
    8.4299  -13.6564   26.5856 C   0  0  0  0  0  0  0  0  0  0  0  0
    9.5538  -14.6001   26.3036 C   0  0  2  0  0  0  0  0  0  0  0  0
    9.3311  -15.4682   25.1847 N   0  0  0  0  0  0  0  0  0  0  0  0
    9.6840  -15.4850   27.5139 C   0  0  0  0  0  0  0  0  0  0  0  0
   10.1014  -15.0116   28.7450 O   0  0  0  0  0  0  0  0  0  0  0  0
    9.4005  -16.6986   27.3905 O   0  0  0  0  0  0  0  0  0  0  0  0
  1  2  1  0
  2  3  2  0
  4  2  1  0
  5  4  1  0
  5  6  1  6
  7  8  2  0
  7  5  1  0
  9  7  1  0
 10 11  1  6
 10  9  1  0
 11 12  1  0
 13 12  1  0
 13 17  1  0
 14 13  2  0
 15 10  1  0
 16 15  2  0
 19 18  1  0
 20 19  1  1
 20 21  1  0
 21 15  1  0
 22 23  1  0
 22 20  1  0
 24 22  2  0
M  END
$$$$
