NES.pdb
     RDKit          3D

 24 23  0  0  1  0  0  0  0  0999 V2000
    8.1077  -15.2855   14.8368 N   0  0  0  0  0  0  0  0  0  0  0  0
    8.3360  -14.5121   16.0255 C   0  0  0  0  0  0  0  0  0  0  0  0
    8.1192  -13.2783   15.9651 O   0  0  0  0  0  0  0  0  0  0  0  0
    8.8041  -15.1824   17.2382 C   0  0  0  0  0  0  0  0  0  0  0  0
    8.8803  -16.6740   17.1542 C   0  0  2  0  0  0  0  0  0  0  0  0
    7.5737  -17.1899   16.7301 N   0  0  0  0  0  0  0  0  0  0  0  0
    9.2414  -17.2208   18.4819 C   0  0  0  0  0  0  0  0  0  0  0  0
    8.4325  -17.7738   19.2569 O   0  0  0  0  0  0  0  0  0  0  0  0
   10.5960  -17.1325   18.9505 N   0  0  0  0  0  0  0  0  0  0  0  0
   11.0441  -17.7561   20.1799 C   0  0  1  0  0  0  0  0  0  0  0  0
   12.3015  -18.5511   19.9351 C   0  0  0  0  0  0  0  0  0  0  0  0
   13.3997  -17.6109   19.5361 C   0  0  0  0  0  0  0  0  0  0  0  0
   14.6215  -18.4014   19.2319 C   0  0  0  0  0  0  0  0  0  0  0  0
   14.6723  -19.2010   18.2777 O   0  0  0  0  0  0  0  0  0  0  0  0
   11.2122  -16.7515   21.2625 C   0  0  0  0  0  0  0  0  0  0  0  0
   11.7568  -15.6645   21.0052 O   0  0  0  0  0  0  0  0  0  0  0  0
   15.7447  -18.2508   20.0300 O   0  0  0  0  0  0  0  0  0  0  0  0
    8.5235  -16.0362   24.0249 O   0  0  0  0  0  0  0  0  0  0  0  0
    9.6569  -15.2428   23.9345 C   0  0  0  0  0  0  0  0  0  0  0  0
   10.9097  -15.9996   23.6331 C   0  0  2  0  0  0  0  0  0  0  0  0
   10.7748  -16.9778   22.5938 N   0  0  0  0  0  0  0  0  0  0  0  0
   11.2677  -16.7520   24.8864 C   0  0  0  0  0  0  0  0  0  0  0  0
   11.6322  -16.1180   26.0608 O   0  0  0  0  0  0  0  0  0  0  0  0
   11.2310  -18.0034   24.8539 O   0  0  0  0  0  0  0  0  0  0  0  0
  1  2  1  0
  2  3  2  0
  4  2  1  0
  5  4  1  0
  5  6  1  1
  7  8  2  0
  7  5  1  0
  9  7  1  0
 10 11  1  6
 10  9  1  0
 11 12  1  0
 13 12  1  0
 13 17  1  0
 14 13  2  0
 15 10  1  0
 16 15  2  0
 19 18  1  0
 20 19  1  1
 20 21  1  0
 21 15  1  0
 22 23  1  0
 22 20  1  0
 24 22  2  0
M  END
$$$$
