NES.pdb
     RDKit          3D

 24 23  0  0  1  0  0  0  0  0999 V2000
    6.7975  -12.7894   16.6400 N   0  0  0  0  0  0  0  0  0  0  0  0
    7.3330  -13.9772   16.0353 C   0  0  0  0  0  0  0  0  0  0  0  0
    6.8803  -14.3120   14.9147 O   0  0  0  0  0  0  0  0  0  0  0  0
    8.3671  -14.7360   16.7382 C   0  0  0  0  0  0  0  0  0  0  0  0
    8.7171  -14.2273   18.1007 C   0  0  2  0  0  0  0  0  0  0  0  0
    9.1994  -12.8467   17.9792 N   0  0  0  0  0  0  0  0  0  0  0  0
    9.7686  -15.0880   18.6889 C   0  0  0  0  0  0  0  0  0  0  0  0
    9.6209  -16.3022   18.9433 O   0  0  0  0  0  0  0  0  0  0  0  0
   11.0561  -14.5350   19.0036 N   0  0  0  0  0  0  0  0  0  0  0  0
   12.0967  -15.2956   19.6668 C   0  0  1  0  0  0  0  0  0  0  0  0
   13.4429  -14.9702   19.0710 C   0  0  0  0  0  0  0  0  0  0  0  0
   13.6967  -15.8907   17.9145 C   0  0  0  0  0  0  0  0  0  0  0  0
   15.0573  -15.6235   17.3780 C   0  0  0  0  0  0  0  0  0  0  0  0
   15.9854  -16.4478   17.4861 O   0  0  0  0  0  0  0  0  0  0  0  0
   12.0635  -15.0838   21.1378 C   0  0  0  0  0  0  0  0  0  0  0  0
   11.6973  -13.9843   21.5864 O   0  0  0  0  0  0  0  0  0  0  0  0
   15.3106  -14.4217   16.7356 O   0  0  0  0  0  0  0  0  0  0  0  0
    9.8760  -16.5796   24.6829 O   0  0  0  0  0  0  0  0  0  0  0  0
   10.3954  -16.3798   23.4130 C   0  0  0  0  0  0  0  0  0  0  0  0
   11.8759  -16.1784   23.3834 C   0  0  2  0  0  0  0  0  0  0  0  0
   12.4352  -16.0910   22.0664 N   0  0  0  0  0  0  0  0  0  0  0  0
   12.4863  -17.3931   24.0289 C   0  0  0  0  0  0  0  0  0  0  0  0
   12.6546  -17.5078   25.3974 O   0  0  0  0  0  0  0  0  0  0  0  0
   12.8539  -18.3331   23.2876 O   0  0  0  0  0  0  0  0  0  0  0  0
  1  2  1  0
  2  3  2  0
  4  2  1  0
  5  4  1  0
  5  6  1  6
  7  8  2  0
  7  5  1  0
  9  7  1  0
 10 11  1  6
 10  9  1  0
 11 12  1  0
 13 12  1  0
 13 17  1  0
 14 13  2  0
 15 10  1  0
 16 15  2  0
 19 18  1  0
 20 19  1  6
 20 21  1  0
 21 15  1  0
 22 23  1  0
 22 20  1  0
 24 22  2  0
M  END
$$$$
