NES.pdb
     RDKit          3D

 24 23  0  0  1  0  0  0  0  0999 V2000
    7.8014  -12.2487   18.3452 N   0  0  0  0  0  0  0  0  0  0  0  0
    7.7804  -13.6766   18.4997 C   0  0  0  0  0  0  0  0  0  0  0  0
    7.8500  -14.3735   17.4594 O   0  0  0  0  0  0  0  0  0  0  0  0
    7.6806  -14.2513   19.8409 C   0  0  0  0  0  0  0  0  0  0  0  0
    8.9828  -14.4429   20.5518 C   0  0  2  0  0  0  0  0  0  0  0  0
    9.8207  -15.3541   19.7639 N   0  0  0  0  0  0  0  0  0  0  0  0
    8.7278  -15.0125   21.8945 C   0  0  0  0  0  0  0  0  0  0  0  0
    7.9319  -14.5244   22.7246 O   0  0  0  0  0  0  0  0  0  0  0  0
    9.4168  -16.2012   22.3127 N   0  0  0  0  0  0  0  0  0  0  0  0
    9.2317  -16.7970   23.6211 C   0  0  1  0  0  0  0  0  0  0  0  0
    9.6397  -18.2483   23.5975 C   0  0  0  0  0  0  0  0  0  0  0  0
   10.9757  -18.3655   22.9261 C   0  0  0  0  0  0  0  0  0  0  0  0
   11.5753  -19.6800   23.2769 C   0  0  0  0  0  0  0  0  0  0  0  0
   12.8026  -19.8272   23.4336 O   0  0  0  0  0  0  0  0  0  0  0  0
    9.9487  -16.0253   24.6700 C   0  0  0  0  0  0  0  0  0  0  0  0
   10.9955  -15.4241   24.3748 O   0  0  0  0  0  0  0  0  0  0  0  0
   10.7505  -20.7824   23.4366 O   0  0  0  0  0  0  0  0  0  0  0  0
    9.5688  -13.0303   28.2830 O   0  0  0  0  0  0  0  0  0  0  0  0
    9.0510  -13.9403   27.3741 C   0  0  0  0  0  0  0  0  0  0  0  0
   10.0159  -15.0018   26.9556 C   0  0  2  0  0  0  0  0  0  0  0  0
    9.4887  -15.9417   26.0102 N   0  0  0  0  0  0  0  0  0  0  0  0
   10.3553  -15.7849   28.1952 C   0  0  0  0  0  0  0  0  0  0  0  0
   11.0148  -15.2263   29.2755 O   0  0  0  0  0  0  0  0  0  0  0  0
   10.0227  -16.9915   28.2402 O   0  0  0  0  0  0  0  0  0  0  0  0
  1  2  1  0
  2  3  2  0
  4  2  1  0
  5  4  1  0
  5  6  1  6
  7  8  2  0
  7  5  1  0
  9  7  1  0
 10 11  1  6
 10  9  1  0
 11 12  1  0
 13 12  1  0
 13 17  1  0
 14 13  2  0
 15 10  1  0
 16 15  2  0
 19 18  1  0
 20 19  1  1
 20 21  1  0
 21 15  1  0
 22 23  1  0
 22 20  1  0
 24 22  2  0
M  END
$$$$
