YGG.pdb
     RDKit          3D

 21 21  0  0  1  0  0  0  0  0999 V2000
    5.3358  -10.5684   27.4169 O   0  0  0  0  0  0  0  0  0  0  0  0
    6.1042  -11.5464   26.8007 C   0  0  0  0  0  0  0  0  0  0  0  0
    6.1196  -11.6371   25.4236 C   0  0  0  0  0  0  0  0  0  0  0  0
    6.8776  -12.6036   24.7799 C   0  0  0  0  0  0  0  0  0  0  0  0
    7.6261  -13.4848   25.5533 C   0  0  0  0  0  0  0  0  0  0  0  0
    8.4435  -14.5236   24.9257 C   0  0  0  0  0  0  0  0  0  0  0  0
    7.6219  -15.7143   24.4601 C   0  0  2  0  0  0  0  0  0  0  0  0
    7.0393  -16.3469   25.6266 N   0  0  0  0  0  0  0  0  0  0  0  0
    8.4784  -16.7144   23.7694 C   0  0  0  0  0  0  0  0  0  0  0  0
    9.1699  -17.5502   24.4392 O   0  0  0  0  0  0  0  0  0  0  0  0
    7.5867  -13.3646   26.9285 C   0  0  0  0  0  0  0  0  0  0  0  0
    6.8365  -12.4071   27.5817 C   0  0  0  0  0  0  0  0  0  0  0  0
    8.5773  -16.7988   22.3473 N   0  0  0  0  0  0  0  0  0  0  0  0
    9.5380  -16.0603   21.5604 C   0  0  0  0  0  0  0  0  0  0  0  0
   10.9241  -16.4951   21.6925 C   0  0  0  0  0  0  0  0  0  0  0  0
   11.7608  -15.9616   20.8885 O   0  0  0  0  0  0  0  0  0  0  0  0
   11.4161  -17.4421   22.6233 N   0  0  0  0  0  0  0  0  0  0  0  0
   12.4394  -17.0710   23.5953 C   0  0  0  0  0  0  0  0  0  0  0  0
   13.7624  -16.9980   22.9244 C   0  0  0  0  0  0  0  0  0  0  0  0
   14.8518  -16.6149   23.6979 O   0  0  0  0  0  0  0  0  0  0  0  0
   13.8721  -17.2721   21.7190 O   0  0  0  0  0  0  0  0  0  0  0  0
  2  1  1  0
  3  2  2  0
  4  3  1  0
  5  4  2  0
  5 11  1  0
  6  5  1  0
  7  9  1  0
  7  8  1  1
  7  6  1  0
  9 13  1  0
 10  9  2  0
 11 12  2  0
 12  2  1  0
 13 14  1  0
 14 15  1  0
 15 16  2  0
 15 17  1  0
 17 18  1  0
 19 18  1  0
 19 20  1  0
 21 19  2  0
M  END
$$$$
