YGG.pdb
     RDKit          3D

 21 21  0  0  1  0  0  0  0  0999 V2000
   10.4754  -14.8964   30.6882 O   0  0  0  0  0  0  0  0  0  0  0  0
   10.1734  -14.9908   29.3367 C   0  0  0  0  0  0  0  0  0  0  0  0
    9.9676  -16.2310   28.7670 C   0  0  0  0  0  0  0  0  0  0  0  0
    9.6644  -16.3567   27.4198 C   0  0  0  0  0  0  0  0  0  0  0  0
    9.5712  -15.2023   26.6493 C   0  0  0  0  0  0  0  0  0  0  0  0
    9.2540  -15.2774   25.2228 C   0  0  0  0  0  0  0  0  0  0  0  0
    9.9661  -16.4236   24.5237 C   0  0  2  0  0  0  0  0  0  0  0  0
   11.3909  -16.2718   24.7409 N   0  0  0  0  0  0  0  0  0  0  0  0
    9.7145  -16.3918   23.0585 C   0  0  0  0  0  0  0  0  0  0  0  0
   10.4973  -15.7557   22.2789 O   0  0  0  0  0  0  0  0  0  0  0  0
    9.7833  -13.9783   27.2528 C   0  0  0  0  0  0  0  0  0  0  0  0
   10.0857  -13.8393   28.5928 C   0  0  0  0  0  0  0  0  0  0  0  0
    8.6070  -17.0556   22.4485 N   0  0  0  0  0  0  0  0  0  0  0  0
    8.7340  -18.1987   21.5738 C   0  0  0  0  0  0  0  0  0  0  0  0
    9.6944  -18.0525   20.4858 C   0  0  0  0  0  0  0  0  0  0  0  0
    9.2572  -18.3000   19.3116 O   0  0  0  0  0  0  0  0  0  0  0  0
   11.0496  -17.6631   20.6161 N   0  0  0  0  0  0  0  0  0  0  0  0
   11.9419  -17.6684   19.4613 C   0  0  0  0  0  0  0  0  0  0  0  0
   13.1513  -18.4740   19.7684 C   0  0  0  0  0  0  0  0  0  0  0  0
   13.0931  -19.3217   20.8683 O   0  0  0  0  0  0  0  0  0  0  0  0
   14.1655  -18.3809   19.0593 O   0  0  0  0  0  0  0  0  0  0  0  0
  2  1  1  0
  3  2  2  0
  4  3  1  0
  5  4  2  0
  5 11  1  0
  6  5  1  0
  7  9  1  0
  7  8  1  6
  7  6  1  0
  9 13  1  0
 10  9  2  0
 11 12  2  0
 12  2  1  0
 13 14  1  0
 14 15  1  0
 15 16  2  0
 15 17  1  0
 17 18  1  0
 19 18  1  0
 19 20  1  0
 21 19  2  0
M  END
$$$$
