YGG.pdb
     RDKit          3D

 21 21  0  0  1  0  0  0  0  0999 V2000
    5.8748  -10.7924   28.3222 O   0  0  0  0  0  0  0  0  0  0  0  0
    6.4407  -11.5225   27.2862 C   0  0  0  0  0  0  0  0  0  0  0  0
    7.7860  -11.8291   27.3210 C   0  0  0  0  0  0  0  0  0  0  0  0
    8.3792  -12.5570   26.3007 C   0  0  0  0  0  0  0  0  0  0  0  0
    7.5878  -12.9746   25.2356 C   0  0  0  0  0  0  0  0  0  0  0  0
    8.1626  -13.7453   24.1325 C   0  0  0  0  0  0  0  0  0  0  0  0
    7.6202  -15.1632   24.0631 C   0  0  2  0  0  0  0  0  0  0  0  0
    8.0442  -15.8694   25.2556 N   0  0  0  0  0  0  0  0  0  0  0  0
    8.1623  -15.8831   22.8804 C   0  0  0  0  0  0  0  0  0  0  0  0
    9.3171  -16.4219   22.9213 O   0  0  0  0  0  0  0  0  0  0  0  0
    6.2456  -12.6497   25.2341 C   0  0  0  0  0  0  0  0  0  0  0  0
    5.6427  -11.9258   26.2433 C   0  0  0  0  0  0  0  0  0  0  0  0
    7.4407  -16.0125   21.6549 N   0  0  0  0  0  0  0  0  0  0  0  0
    8.0121  -15.7602   20.3520 C   0  0  0  0  0  0  0  0  0  0  0  0
    9.1290  -16.6212   19.9793 C   0  0  0  0  0  0  0  0  0  0  0  0
    9.2405  -16.8926   18.7363 O   0  0  0  0  0  0  0  0  0  0  0  0
   10.0882  -17.1726   20.8630 N   0  0  0  0  0  0  0  0  0  0  0  0
   11.5133  -17.0996   20.5574 C   0  0  0  0  0  0  0  0  0  0  0  0
   11.9901  -18.4226   20.0799 C   0  0  0  0  0  0  0  0  0  0  0  0
   12.0232  -18.6332   18.7065 O   0  0  0  0  0  0  0  0  0  0  0  0
   12.3414  -19.2943   20.8903 O   0  0  0  0  0  0  0  0  0  0  0  0
  2  1  1  0
  3  2  2  0
  4  3  1  0
  5  4  2  0
  5 11  1  0
  6  5  1  0
  7  9  1  0
  7  8  1  1
  7  6  1  0
  9 13  1  0
 10  9  2  0
 11 12  2  0
 12  2  1  0
 13 14  1  0
 14 15  1  0
 15 16  2  0
 15 17  1  0
 17 18  1  0
 19 18  1  0
 19 20  1  0
 21 19  2  0
M  END
$$$$
