YGG.pdb
     RDKit          3D

 21 21  0  0  1  0  0  0  0  0999 V2000
    5.5683  -10.6757   26.9577 O   0  0  0  0  0  0  0  0  0  0  0  0
    6.2934  -11.7666   26.4989 C   0  0  0  0  0  0  0  0  0  0  0  0
    6.3059  -12.0613   25.1505 C   0  0  0  0  0  0  0  0  0  0  0  0
    7.0211  -13.1445   24.6627 C   0  0  0  0  0  0  0  0  0  0  0  0
    7.7296  -13.9328   25.5637 C   0  0  0  0  0  0  0  0  0  0  0  0
    8.5009  -15.0877   25.1029 C   0  0  0  0  0  0  0  0  0  0  0  0
    7.6193  -16.2151   24.5917 C   0  0  2  0  0  0  0  0  0  0  0  0
    6.5581  -16.4327   25.5544 N   0  0  0  0  0  0  0  0  0  0  0  0
    8.3930  -17.4782   24.4610 C   0  0  0  0  0  0  0  0  0  0  0  0
    7.8172  -18.6085   24.5878 O   0  0  0  0  0  0  0  0  0  0  0  0
    7.6944  -13.6083   26.9056 C   0  0  0  0  0  0  0  0  0  0  0  0
    6.9865  -12.5329   27.4041 C   0  0  0  0  0  0  0  0  0  0  0  0
    9.7953  -17.5029   24.1919 N   0  0  0  0  0  0  0  0  0  0  0  0
   10.3608  -17.5505   22.8632 C   0  0  0  0  0  0  0  0  0  0  0  0
   11.4688  -16.6336   22.6197 C   0  0  0  0  0  0  0  0  0  0  0  0
   11.2149  -15.6291   21.8728 O   0  0  0  0  0  0  0  0  0  0  0  0
   12.7823  -16.7572   23.1340 N   0  0  0  0  0  0  0  0  0  0  0  0
   13.8368  -15.8389   22.7163 C   0  0  0  0  0  0  0  0  0  0  0  0
   15.1128  -16.2085   23.3804 C   0  0  0  0  0  0  0  0  0  0  0  0
   16.2117  -15.3874   23.1569 O   0  0  0  0  0  0  0  0  0  0  0  0
   15.1768  -17.2151   24.1034 O   0  0  0  0  0  0  0  0  0  0  0  0
  2  1  1  0
  3  2  2  0
  4  3  1  0
  5  4  2  0
  5 11  1  0
  6  5  1  0
  7  9  1  0
  7  8  1  1
  7  6  1  0
  9 13  1  0
 10  9  2  0
 11 12  2  0
 12  2  1  0
 13 14  1  0
 14 15  1  0
 15 16  2  0
 15 17  1  0
 17 18  1  0
 19 18  1  0
 19 20  1  0
 21 19  2  0
M  END
$$$$
