YGG.pdb
     RDKit          3D

 21 21  0  0  1  0  0  0  0  0999 V2000
   10.6247  -15.0634   30.8493 O   0  0  0  0  0  0  0  0  0  0  0  0
   10.3145  -14.9722   29.4995 C   0  0  0  0  0  0  0  0  0  0  0  0
    9.8561  -13.7774   28.9825 C   0  0  0  0  0  0  0  0  0  0  0  0
    9.5382  -13.6560   27.6382 C   0  0  0  0  0  0  0  0  0  0  0  0
    9.6910  -14.7678   26.8164 C   0  0  0  0  0  0  0  0  0  0  0  0
    9.3702  -14.6951   25.3906 C   0  0  0  0  0  0  0  0  0  0  0  0
    7.9764  -15.2127   25.0763 C   0  0  2  0  0  0  0  0  0  0  0  0
    7.8568  -16.5510   25.6196 N   0  0  0  0  0  0  0  0  0  0  0  0
    7.7549  -15.2870   23.6078 C   0  0  0  0  0  0  0  0  0  0  0  0
    7.8458  -14.2416   22.8838 O   0  0  0  0  0  0  0  0  0  0  0  0
   10.1521  -15.9470   27.3680 C   0  0  0  0  0  0  0  0  0  0  0  0
   10.4721  -16.0812   28.7043 C   0  0  0  0  0  0  0  0  0  0  0  0
    7.4344  -16.5044   22.9337 N   0  0  0  0  0  0  0  0  0  0  0  0
    7.2716  -16.6150   21.5023 C   0  0  0  0  0  0  0  0  0  0  0  0
    8.5020  -16.8130   20.7444 C   0  0  0  0  0  0  0  0  0  0  0  0
    8.3637  -17.0392   19.4950 O   0  0  0  0  0  0  0  0  0  0  0  0
    9.8181  -16.7746   21.2655 N   0  0  0  0  0  0  0  0  0  0  0  0
   10.9628  -17.1174   20.4277 C   0  0  0  0  0  0  0  0  0  0  0  0
   12.2218  -16.8543   21.1704 C   0  0  0  0  0  0  0  0  0  0  0  0
   13.1235  -15.9606   20.6047 O   0  0  0  0  0  0  0  0  0  0  0  0
   12.4431  -17.4196   22.2528 O   0  0  0  0  0  0  0  0  0  0  0  0
  2  1  1  0
  3  2  2  0
  4  3  1  0
  5  4  2  0
  5 11  1  0
  6  5  1  0
  7  9  1  0
  7  8  1  6
  7  6  1  0
  9 13  1  0
 10  9  2  0
 11 12  2  0
 12  2  1  0
 13 14  1  0
 14 15  1  0
 15 16  2  0
 15 17  1  0
 17 18  1  0
 19 18  1  0
 19 20  1  0
 21 19  2  0
M  END
$$$$
