YGG.pdb
     RDKit          3D

 21 21  0  0  1  0  0  0  0  0999 V2000
    8.8838  -13.1517   18.8321 O   0  0  0  0  0  0  0  0  0  0  0  0
    8.4871  -13.5967   20.0855 C   0  0  0  0  0  0  0  0  0  0  0  0
    7.1570  -13.8803   20.3211 C   0  0  0  0  0  0  0  0  0  0  0  0
    6.7309  -14.3263   21.5630 C   0  0  0  0  0  0  0  0  0  0  0  0
    7.6751  -14.4833   22.5723 C   0  0  0  0  0  0  0  0  0  0  0  0
    7.2800  -14.9510   23.9014 C   0  0  0  0  0  0  0  0  0  0  0  0
    7.3896  -16.4596   24.0484 C   0  0  2  0  0  0  0  0  0  0  0  0
    6.7140  -16.8460   25.2710 N   0  0  0  0  0  0  0  0  0  0  0  0
    8.8114  -16.8824   24.1509 C   0  0  0  0  0  0  0  0  0  0  0  0
    9.4812  -16.6566   25.2119 O   0  0  0  0  0  0  0  0  0  0  0  0
    8.9970  -14.1901   22.3009 C   0  0  0  0  0  0  0  0  0  0  0  0
    9.4344  -13.7453   21.0692 C   0  0  0  0  0  0  0  0  0  0  0  0
    9.4984  -17.5514   23.0927 N   0  0  0  0  0  0  0  0  0  0  0  0
   10.8939  -17.9226   23.1449 C   0  0  0  0  0  0  0  0  0  0  0  0
   11.8331  -16.8146   23.2786 C   0  0  0  0  0  0  0  0  0  0  0  0
   11.5068  -15.7261   22.6956 O   0  0  0  0  0  0  0  0  0  0  0  0
   13.0569  -16.8398   23.9904 N   0  0  0  0  0  0  0  0  0  0  0  0
   13.9461  -15.6826   23.9873 C   0  0  0  0  0  0  0  0  0  0  0  0
   15.0700  -15.9189   23.0457 C   0  0  0  0  0  0  0  0  0  0  0  0
   16.0919  -14.9771   23.0199 O   0  0  0  0  0  0  0  0  0  0  0  0
   15.0797  -16.9239   22.3177 O   0  0  0  0  0  0  0  0  0  0  0  0
  2  1  1  0
  3  2  2  0
  4  3  1  0
  5  4  2  0
  5 11  1  0
  6  5  1  0
  7  9  1  0
  7  8  1  1
  7  6  1  0
  9 13  1  0
 10  9  2  0
 11 12  2  0
 12  2  1  0
 13 14  1  0
 14 15  1  0
 15 16  2  0
 15 17  1  0
 17 18  1  0
 19 18  1  0
 19 20  1  0
 21 19  2  0
M  END
$$$$
