YPR.pdb
     RDKit          3D

 31 32  0  0  1  0  0  0  0  0999 V2000
    7.3432  -12.9025   16.4257 O   0  0  0  0  0  0  0  0  0  0  0  0
    7.3374  -13.2535   17.7696 C   0  0  0  0  0  0  0  0  0  0  0  0
    7.5740  -12.3232   18.7294 C   0  0  0  0  0  0  0  0  0  0  0  0
    7.5610  -12.7026   20.0468 C   0  0  0  0  0  0  0  0  0  0  0  0
    7.3150  -13.9977   20.4197 C   0  0  0  0  0  0  0  0  0  0  0  0
    7.3141  -14.3481   21.8635 C   0  0  0  0  0  0  0  0  0  0  0  0
    8.7084  -14.2429   22.4553 C   0  0  2  0  0  0  0  0  0  0  0  0
    9.6380  -14.8144   21.5513 N   0  0  0  0  0  0  0  0  0  0  0  0
    8.7754  -14.6794   23.8490 C   0  0  0  0  0  0  0  0  0  0  0  0
    9.7519  -15.4461   24.1741 O   0  0  0  0  0  0  0  0  0  0  0  0
    7.0749  -14.9422   19.4555 C   0  0  0  0  0  0  0  0  0  0  0  0
    7.0880  -14.5624   18.1289 C   0  0  0  0  0  0  0  0  0  0  0  0
    7.8729  -14.3480   24.8888 N   0  0  0  0  0  0  0  0  0  0  0  0
    6.5383  -13.8175   24.8577 C   0  0  0  0  0  0  0  0  0  0  0  0
    6.5623  -12.8275   26.0073 C   0  0  0  0  0  0  0  0  0  0  0  0
    7.6470  -13.2766   26.9300 C   0  0  0  0  0  0  0  0  0  0  0  0
    8.1785  -14.5137   26.3006 C   0  0  1  0  0  0  0  0  0  0  0  0
    7.5128  -15.6982   26.8755 C   0  0  0  0  0  0  0  0  0  0  0  0
    6.3122  -15.9899   26.5652 O   0  0  0  0  0  0  0  0  0  0  0  0
   11.4167  -20.9722   23.6543 N   0  0  0  0  0  0  0  0  0  0  0  0
   12.0616  -19.8388   24.2203 C   0  0  0  0  0  0  0  0  0  0  0  0
   12.9236  -19.2280   23.4583 N   0  0  0  0  0  0  0  0  0  0  0  0
   11.7929  -19.3773   25.5496 N   0  0  0  0  0  0  0  0  0  0  0  0
   10.4729  -19.6237   26.0980 C   0  0  0  0  0  0  0  0  0  0  0  0
    9.5446  -18.4770   25.9233 C   0  0  0  0  0  0  0  0  0  0  0  0
    8.1814  -18.6252   26.4876 C   0  0  0  0  0  0  0  0  0  0  0  0
    7.9354  -17.9884   27.8111 C   0  0  2  0  0  0  0  0  0  0  0  0
    8.1781  -16.5491   27.7853 N   0  0  0  0  0  0  0  0  0  0  0  0
    8.8916  -18.5446   28.8422 C   0  0  0  0  0  0  0  0  0  0  0  0
    9.8081  -17.8091   29.2860 O   0  0  0  0  0  0  0  0  0  0  0  0
    8.8053  -19.8376   29.3251 O   0  0  0  0  0  0  0  0  0  0  0  0
  2  1  1  0
  3  2  2  0
  4  3  1  0
  5  4  2  0
  5 11  1  0
  6  5  1  0
  7  8  1  6
  7  6  1  0
  9  7  1  0
 10  9  2  0
 11 12  2  0
 12  2  1  0
 13  9  1  0
 13 14  1  0
 14 15  1  0
 16 17  1  0
 16 15  1  0
 17 13  1  0
 17 18  1  1
 19 18  2  0
 20 21  1  0
 21 22  2  0
 23 24  1  0
 23 21  1  0
 24 25  1  0
 26 25  1  0
 27 26  1  6
 27 28  1  0
 28 18  1  0
 29 27  1  0
 29 31  1  0
 30 29  2  0
M  END
$$$$
