YPR.pdb
     RDKit          3D

 31 32  0  0  1  0  0  0  0  0999 V2000
    6.0430  -10.2074   27.2080 O   0  0  0  0  0  0  0  0  0  0  0  0
    6.4733  -11.4868   26.8806 C   0  0  0  0  0  0  0  0  0  0  0  0
    7.7386  -11.8864   27.1668 C   0  0  0  0  0  0  0  0  0  0  0  0
    8.1316  -13.1560   26.8304 C   0  0  0  0  0  0  0  0  0  0  0  0
    7.2792  -14.0325   26.2124 C   0  0  0  0  0  0  0  0  0  0  0  0
    7.7630  -15.3955   25.8724 C   0  0  0  0  0  0  0  0  0  0  0  0
    6.7895  -16.1107   24.9527 C   0  0  2  0  0  0  0  0  0  0  0  0
    6.1881  -17.1814   25.6598 N   0  0  0  0  0  0  0  0  0  0  0  0
    7.3555  -16.4109   23.6385 C   0  0  0  0  0  0  0  0  0  0  0  0
    7.4802  -17.6493   23.3259 O   0  0  0  0  0  0  0  0  0  0  0  0
    5.9998  -13.6356   25.9208 C   0  0  0  0  0  0  0  0  0  0  0  0
    5.6024  -12.3579   26.2581 C   0  0  0  0  0  0  0  0  0  0  0  0
    7.7866  -15.4778   22.6644 N   0  0  0  0  0  0  0  0  0  0  0  0
    7.8075  -14.0414   22.6658 C   0  0  0  0  0  0  0  0  0  0  0  0
    7.3796  -13.7153   21.2471 C   0  0  0  0  0  0  0  0  0  0  0  0
    7.7109  -14.9130   20.4192 C   0  0  0  0  0  0  0  0  0  0  0  0
    8.3408  -15.8603   21.3757 C   0  0  1  0  0  0  0  0  0  0  0  0
    9.8084  -15.7130   21.3389 C   0  0  0  0  0  0  0  0  0  0  0  0
   10.3520  -14.5614   21.3666 O   0  0  0  0  0  0  0  0  0  0  0  0
   10.9560  -19.5916   28.0324 N   0  0  0  0  0  0  0  0  0  0  0  0
    9.9962  -19.9584   27.0500 C   0  0  0  0  0  0  0  0  0  0  0  0
    8.9556  -20.6136   27.4797 N   0  0  0  0  0  0  0  0  0  0  0  0
   10.1445  -19.6348   25.6623 N   0  0  0  0  0  0  0  0  0  0  0  0
   10.8873  -18.4363   25.3221 C   0  0  0  0  0  0  0  0  0  0  0  0
   11.0381  -18.2389   23.8574 C   0  0  0  0  0  0  0  0  0  0  0  0
   11.8231  -17.0607   23.4163 C   0  0  0  0  0  0  0  0  0  0  0  0
   11.9559  -16.8610   21.9466 C   0  0  2  0  0  0  0  0  0  0  0  0
   10.6608  -16.8370   21.2732 N   0  0  0  0  0  0  0  0  0  0  0  0
   12.7142  -18.0153   21.3307 C   0  0  0  0  0  0  0  0  0  0  0  0
   13.9144  -18.1999   21.6525 O   0  0  0  0  0  0  0  0  0  0  0  0
   12.1447  -18.8865   20.4202 O   0  0  0  0  0  0  0  0  0  0  0  0
  2  1  1  0
  3  2  2  0
  4  3  1  0
  5  4  2  0
  5 11  1  0
  6  5  1  0
  7  8  1  1
  7  6  1  0
  9  7  1  0
 10  9  2  0
 11 12  2  0
 12  2  1  0
 13  9  1  0
 13 14  1  0
 14 15  1  0
 16 17  1  0
 16 15  1  0
 17 13  1  0
 17 18  1  1
 19 18  2  0
 20 21  1  0
 21 22  2  0
 23 24  1  0
 23 21  1  0
 24 25  1  0
 26 25  1  0
 27 26  1  1
 27 28  1  0
 28 18  1  0
 29 27  1  0
 29 31  1  0
 30 29  2  0
M  END
$$$$
