YPR.pdb
     RDKit          3D

 31 32  0  0  1  0  0  0  0  0999 V2000
   11.3610  -13.6403   29.6635 O   0  0  0  0  0  0  0  0  0  0  0  0
   10.6220  -14.7264   29.2123 C   0  0  0  0  0  0  0  0  0  0  0  0
   10.7484  -15.1675   27.9348 C   0  0  0  0  0  0  0  0  0  0  0  0
   10.0046  -16.2423   27.5212 C   0  0  0  0  0  0  0  0  0  0  0  0
    9.1363  -16.8832   28.3651 C   0  0  0  0  0  0  0  0  0  0  0  0
    8.3572  -18.0426   27.8590 C   0  0  0  0  0  0  0  0  0  0  0  0
    7.0881  -17.5889   27.1600 C   0  0  2  0  0  0  0  0  0  0  0  0
    6.1414  -18.6429   27.1919 N   0  0  0  0  0  0  0  0  0  0  0  0
    7.3396  -16.9543   25.8672 C   0  0  0  0  0  0  0  0  0  0  0  0
    7.2449  -17.6965   24.8245 O   0  0  0  0  0  0  0  0  0  0  0  0
    9.0041  -16.4432   29.6568 C   0  0  0  0  0  0  0  0  0  0  0  0
    9.7516  -15.3612   30.0749 C   0  0  0  0  0  0  0  0  0  0  0  0
    7.6809  -15.5994   25.6363 N   0  0  0  0  0  0  0  0  0  0  0  0
    8.0432  -14.5421   26.5388 C   0  0  0  0  0  0  0  0  0  0  0  0
    7.3148  -13.3516   25.9434 C   0  0  0  0  0  0  0  0  0  0  0  0
    7.0976  -13.6670   24.5001 C   0  0  0  0  0  0  0  0  0  0  0  0
    7.7317  -14.9981   24.3135 C   0  0  1  0  0  0  0  0  0  0  0  0
    9.1171  -14.8340   23.8333 C   0  0  0  0  0  0  0  0  0  0  0  0
   10.0809  -14.6843   24.6527 O   0  0  0  0  0  0  0  0  0  0  0  0
    7.2595  -14.1892   15.4072 N   0  0  0  0  0  0  0  0  0  0  0  0
    7.5787  -13.6409   16.6794 C   0  0  0  0  0  0  0  0  0  0  0  0
    7.8164  -12.3605   16.7100 N   0  0  0  0  0  0  0  0  0  0  0  0
    7.6394  -14.4326   17.8718 N   0  0  0  0  0  0  0  0  0  0  0  0
    8.9408  -14.6508   18.4741 C   0  0  0  0  0  0  0  0  0  0  0  0
    8.8941  -15.5513   19.6548 C   0  0  0  0  0  0  0  0  0  0  0  0
   10.1789  -15.8218   20.3438 C   0  0  0  0  0  0  0  0  0  0  0  0
   10.1250  -15.9540   21.8261 C   0  0  2  0  0  0  0  0  0  0  0  0
    9.4252  -14.8378   22.4551 N   0  0  0  0  0  0  0  0  0  0  0  0
   11.5232  -15.9349   22.4018 C   0  0  0  0  0  0  0  0  0  0  0  0
   12.3376  -16.8284   22.0602 O   0  0  0  0  0  0  0  0  0  0  0  0
   11.9533  -14.9717   23.2959 O   0  0  0  0  0  0  0  0  0  0  0  0
  2  1  1  0
  3  2  2  0
  4  3  1  0
  5  4  2  0
  5 11  1  0
  6  5  1  0
  7  8  1  6
  7  6  1  0
  9  7  1  0
 10  9  2  0
 11 12  2  0
 12  2  1  0
 13  9  1  0
 13 14  1  0
 14 15  1  0
 16 17  1  0
 16 15  1  0
 17 13  1  0
 17 18  1  1
 19 18  2  0
 20 21  1  0
 21 22  2  0
 23 24  1  0
 23 21  1  0
 24 25  1  0
 26 25  1  0
 27 26  1  6
 27 28  1  0
 28 18  1  0
 29 27  1  0
 29 31  1  0
 30 29  2  0
M  END
$$$$
