YPR.pdb
     RDKit          3D

 31 32  0  0  1  0  0  0  0  0999 V2000
   10.1614  -15.4188   30.3257 O   0  0  0  0  0  0  0  0  0  0  0  0
    9.6814  -15.0367   29.0795 C   0  0  0  0  0  0  0  0  0  0  0  0
    8.9490  -13.9027   28.9372 C   0  0  0  0  0  0  0  0  0  0  0  0
    8.4904  -13.5539   27.6932 C   0  0  0  0  0  0  0  0  0  0  0  0
    8.7526  -14.3213   26.5890 C   0  0  0  0  0  0  0  0  0  0  0  0
    8.2283  -13.8914   25.2670 C   0  0  0  0  0  0  0  0  0  0  0  0
    7.0665  -14.7639   24.8265 C   0  0  2  0  0  0  0  0  0  0  0  0
    6.7796  -15.7017   25.8494 N   0  0  0  0  0  0  0  0  0  0  0  0
    7.2195  -15.2815   23.4678 C   0  0  0  0  0  0  0  0  0  0  0  0
    6.7086  -16.4327   23.2209 O   0  0  0  0  0  0  0  0  0  0  0  0
    9.4920  -15.4676   26.7255 C   0  0  0  0  0  0  0  0  0  0  0  0
    9.9542  -15.8207   27.9769 C   0  0  0  0  0  0  0  0  0  0  0  0
    7.8764  -14.6483   22.3849 N   0  0  0  0  0  0  0  0  0  0  0  0
    8.5210  -13.3688   22.2795 C   0  0  0  0  0  0  0  0  0  0  0  0
    8.0884  -12.9069   20.9004 C   0  0  0  0  0  0  0  0  0  0  0  0
    7.7482  -14.1391   20.1288 C   0  0  0  0  0  0  0  0  0  0  0  0
    8.0266  -15.2538   21.0716 C   0  0  1  0  0  0  0  0  0  0  0  0
    9.3914  -15.7702   20.8533 C   0  0  0  0  0  0  0  0  0  0  0  0
   10.4045  -15.1683   21.3370 O   0  0  0  0  0  0  0  0  0  0  0  0
    9.2484  -21.6987   16.6489 N   0  0  0  0  0  0  0  0  0  0  0  0
    9.0735  -22.4936   17.8145 C   0  0  0  0  0  0  0  0  0  0  0  0
    9.2072  -23.7799   17.6583 N   0  0  0  0  0  0  0  0  0  0  0  0
    8.7688  -21.9325   19.0970 N   0  0  0  0  0  0  0  0  0  0  0  0
    8.7044  -20.4875   19.2059 C   0  0  0  0  0  0  0  0  0  0  0  0
    9.6730  -19.9322   20.1860 C   0  0  0  0  0  0  0  0  0  0  0  0
   10.7522  -19.0694   19.6479 C   0  0  0  0  0  0  0  0  0  0  0  0
   10.8656  -17.7034   20.2300 C   0  0  2  0  0  0  0  0  0  0  0  0
    9.6245  -16.9449   20.1050 N   0  0  0  0  0  0  0  0  0  0  0  0
   11.9090  -16.9038   19.4824 C   0  0  0  0  0  0  0  0  0  0  0  0
   11.5508  -16.1768   18.5226 O   0  0  0  0  0  0  0  0  0  0  0  0
   13.2528  -16.9348   19.8072 O   0  0  0  0  0  0  0  0  0  0  0  0
  2  1  1  0
  3  2  2  0
  4  3  1  0
  5  4  2  0
  5 11  1  0
  6  5  1  0
  7  8  1  1
  7  6  1  0
  9  7  1  0
 10  9  2  0
 11 12  2  0
 12  2  1  0
 13  9  1  0
 13 14  1  0
 14 15  1  0
 16 17  1  0
 16 15  1  0
 17 13  1  0
 17 18  1  6
 19 18  2  0
 20 21  1  0
 21 22  2  0
 23 24  1  0
 23 21  1  0
 24 25  1  0
 26 25  1  0
 27 26  1  6
 27 28  1  0
 28 18  1  0
 29 27  1  0
 29 31  1  0
 30 29  2  0
M  END
$$$$
