YPR.pdb
     RDKit          3D

 31 32  0  0  1  0  0  0  0  0999 V2000
   11.3632  -14.8270   32.3357 O   0  0  0  0  0  0  0  0  0  0  0  0
   10.9493  -15.2100   31.0663 C   0  0  0  0  0  0  0  0  0  0  0  0
   11.0179  -16.5089   30.6780 C   0  0  0  0  0  0  0  0  0  0  0  0
   10.6011  -16.8537   29.4182 C   0  0  0  0  0  0  0  0  0  0  0  0
   10.1167  -15.9200   28.5405 C   0  0  0  0  0  0  0  0  0  0  0  0
    9.6801  -16.3546   27.1885 C   0  0  0  0  0  0  0  0  0  0  0  0
    8.2224  -16.7793   27.1919 C   0  0  2  0  0  0  0  0  0  0  0  0
    8.1512  -18.1837   27.3674 N   0  0  0  0  0  0  0  0  0  0  0  0
    7.4535  -16.2027   26.0903 C   0  0  0  0  0  0  0  0  0  0  0  0
    6.6752  -16.9935   25.4452 O   0  0  0  0  0  0  0  0  0  0  0  0
   10.0444  -14.6065   28.9264 C   0  0  0  0  0  0  0  0  0  0  0  0
   10.4638  -14.2573   30.1938 C   0  0  0  0  0  0  0  0  0  0  0  0
    7.4738  -14.8565   25.6514 N   0  0  0  0  0  0  0  0  0  0  0  0
    8.2405  -13.7238   26.0904 C   0  0  0  0  0  0  0  0  0  0  0  0
    7.2137  -12.6074   26.0452 C   0  0  0  0  0  0  0  0  0  0  0  0
    6.1669  -13.0346   25.0698 C   0  0  0  0  0  0  0  0  0  0  0  0
    6.6424  -14.3514   24.5708 C   0  0  1  0  0  0  0  0  0  0  0  0
    7.4072  -14.1713   23.3221 C   0  0  0  0  0  0  0  0  0  0  0  0
    8.2048  -13.1885   23.1785 O   0  0  0  0  0  0  0  0  0  0  0  0
    6.5880  -13.2211   16.0524 N   0  0  0  0  0  0  0  0  0  0  0  0
    7.9138  -13.7273   15.9701 C   0  0  0  0  0  0  0  0  0  0  0  0
    8.1671  -14.5143   14.9635 N   0  0  0  0  0  0  0  0  0  0  0  0
    8.9287  -13.4020   16.9276 N   0  0  0  0  0  0  0  0  0  0  0  0
    8.5225  -12.7112   18.1365 C   0  0  0  0  0  0  0  0  0  0  0  0
    9.0610  -13.3334   19.3735 C   0  0  0  0  0  0  0  0  0  0  0  0
    8.0937  -13.6054   20.4639 C   0  0  0  0  0  0  0  0  0  0  0  0
    8.1215  -14.9726   21.0534 C   0  0  2  0  0  0  0  0  0  0  0  0
    7.2854  -15.0772   22.2456 N   0  0  0  0  0  0  0  0  0  0  0  0
    9.5227  -15.3157   21.5069 C   0  0  0  0  0  0  0  0  0  0  0  0
   10.1522  -16.2262   20.9130 O   0  0  0  0  0  0  0  0  0  0  0  0
   10.1513  -14.6691   22.5554 O   0  0  0  0  0  0  0  0  0  0  0  0
  2  1  1  0
  3  2  2  0
  4  3  1  0
  5  4  2  0
  5 11  1  0
  6  5  1  0
  7  8  1  6
  7  6  1  0
  9  7  1  0
 10  9  2  0
 11 12  2  0
 12  2  1  0
 13  9  1  0
 13 14  1  0
 14 15  1  0
 16 17  1  0
 16 15  1  0
 17 13  1  0
 17 18  1  6
 19 18  2  0
 20 21  1  0
 21 22  2  0
 23 24  1  0
 23 21  1  0
 24 25  1  0
 26 25  1  0
 27 26  1  1
 27 28  1  0
 28 18  1  0
 29 27  1  0
 29 31  1  0
 30 29  2  0
M  END
$$$$
