YPR.pdb
     RDKit          3D

 31 32  0  0  1  0  0  0  0  0999 V2000
    8.0816  -21.0120   20.7819 O   0  0  0  0  0  0  0  0  0  0  0  0
    7.8824  -19.9881   19.8647 C   0  0  0  0  0  0  0  0  0  0  0  0
    6.8583  -19.1105   20.0181 C   0  0  0  0  0  0  0  0  0  0  0  0
    6.6895  -18.1110   19.0949 C   0  0  0  0  0  0  0  0  0  0  0  0
    7.5288  -17.9754   18.0206 C   0  0  0  0  0  0  0  0  0  0  0  0
    7.2950  -16.8720   17.0535 C   0  0  0  0  0  0  0  0  0  0  0  0
    8.5683  -16.0850   16.7994 C   0  0  2  0  0  0  0  0  0  0  0  0
    9.4109  -16.8346   15.9413 N   0  0  0  0  0  0  0  0  0  0  0  0
    9.1650  -15.5475   18.0210 C   0  0  0  0  0  0  0  0  0  0  0  0
   10.3792  -15.8791   18.2721 O   0  0  0  0  0  0  0  0  0  0  0  0
    8.5653  -18.8581   17.8599 C   0  0  0  0  0  0  0  0  0  0  0  0
    8.7366  -19.8650   18.7878 C   0  0  0  0  0  0  0  0  0  0  0  0
    8.5455  -14.6953   18.9672 N   0  0  0  0  0  0  0  0  0  0  0  0
    7.2142  -14.1600   19.0378 C   0  0  0  0  0  0  0  0  0  0  0  0
    7.4664  -12.7409   19.5120 C   0  0  0  0  0  0  0  0  0  0  0  0
    8.7853  -12.7567   20.2121 C   0  0  0  0  0  0  0  0  0  0  0  0
    9.2223  -14.1756   20.1444 C   0  0  1  0  0  0  0  0  0  0  0  0
    8.8197  -14.8866   21.3730 C   0  0  0  0  0  0  0  0  0  0  0  0
    7.6812  -15.4514   21.4596 O   0  0  0  0  0  0  0  0  0  0  0  0
   13.1016  -20.8870   19.1532 N   0  0  0  0  0  0  0  0  0  0  0  0
   13.4289  -21.0265   20.5295 C   0  0  0  0  0  0  0  0  0  0  0  0
   13.9965  -22.1471   20.8745 N   0  0  0  0  0  0  0  0  0  0  0  0
   13.1601  -20.0054   21.4977 N   0  0  0  0  0  0  0  0  0  0  0  0
   12.4043  -18.8451   21.0661 C   0  0  0  0  0  0  0  0  0  0  0  0
   12.0231  -17.9469   22.1863 C   0  0  0  0  0  0  0  0  0  0  0  0
   11.2376  -16.7379   21.8397 C   0  0  0  0  0  0  0  0  0  0  0  0
   10.3115  -16.2226   22.8858 C   0  0  2  0  0  0  0  0  0  0  0  0
    9.6769  -14.9681   22.4923 N   0  0  0  0  0  0  0  0  0  0  0  0
   11.0774  -15.9122   24.1522 C   0  0  0  0  0  0  0  0  0  0  0  0
   11.6429  -16.8485   24.7700 O   0  0  0  0  0  0  0  0  0  0  0  0
   11.1862  -14.6342   24.6690 O   0  0  0  0  0  0  0  0  0  0  0  0
  2  1  1  0
  3  2  2  0
  4  3  1  0
  5  4  2  0
  5 11  1  0
  6  5  1  0
  7  8  1  1
  7  6  1  0
  9  7  1  0
 10  9  2  0
 11 12  2  0
 12  2  1  0
 13  9  1  0
 13 14  1  0
 14 15  1  0
 16 17  1  0
 16 15  1  0
 17 13  1  0
 17 18  1  1
 19 18  2  0
 20 21  1  0
 21 22  2  0
 23 24  1  0
 23 21  1  0
 24 25  1  0
 26 25  1  0
 27 26  1  6
 27 28  1  0
 28 18  1  0
 29 27  1  0
 29 31  1  0
 30 29  2  0
M  END
$$$$
