YPR.pdb
     RDKit          3D

 31 32  0  0  1  0  0  0  0  0999 V2000
    6.7647  -13.3157   15.7298 O   0  0  0  0  0  0  0  0  0  0  0  0
    7.2138  -13.9041   16.9051 C   0  0  0  0  0  0  0  0  0  0  0  0
    7.8132  -13.1584   17.8679 C   0  0  0  0  0  0  0  0  0  0  0  0
    8.2449  -13.7701   19.0165 C   0  0  0  0  0  0  0  0  0  0  0  0
    8.0867  -15.1159   19.2174 C   0  0  0  0  0  0  0  0  0  0  0  0
    8.5753  -15.7218   20.4829 C   0  0  0  0  0  0  0  0  0  0  0  0
    9.1393  -14.6653   21.4161 C   0  0  2  0  0  0  0  0  0  0  0  0
   10.1820  -13.9722   20.7524 N   0  0  0  0  0  0  0  0  0  0  0  0
    9.4221  -15.1748   22.7569 C   0  0  0  0  0  0  0  0  0  0  0  0
   10.4806  -15.8863   22.8995 O   0  0  0  0  0  0  0  0  0  0  0  0
    7.4819  -15.8750   18.2491 C   0  0  0  0  0  0  0  0  0  0  0  0
    7.0470  -15.2613   17.0922 C   0  0  0  0  0  0  0  0  0  0  0  0
    8.6493  -14.9697   23.9257 N   0  0  0  0  0  0  0  0  0  0  0  0
    7.2392  -14.7673   24.1111 C   0  0  0  0  0  0  0  0  0  0  0  0
    7.2097  -13.6999   25.1891 C   0  0  0  0  0  0  0  0  0  0  0  0
    8.5073  -13.8015   25.9209 C   0  0  0  0  0  0  0  0  0  0  0  0
    9.2133  -14.9332   25.2653 C   0  0  1  0  0  0  0  0  0  0  0  0
    8.9597  -16.1834   26.0066 C   0  0  0  0  0  0  0  0  0  0  0  0
    7.9241  -16.8864   25.7701 O   0  0  0  0  0  0  0  0  0  0  0  0
   14.4545  -20.5794   31.8140 N   0  0  0  0  0  0  0  0  0  0  0  0
   14.3240  -20.1201   30.4750 C   0  0  0  0  0  0  0  0  0  0  0  0
   15.4124  -20.1188   29.7592 N   0  0  0  0  0  0  0  0  0  0  0  0
   13.0767  -19.6807   29.9242 N   0  0  0  0  0  0  0  0  0  0  0  0
   12.7867  -18.2598   29.9531 C   0  0  0  0  0  0  0  0  0  0  0  0
   11.4350  -17.9291   29.4328 C   0  0  0  0  0  0  0  0  0  0  0  0
   11.0844  -18.4565   28.0920 C   0  0  0  0  0  0  0  0  0  0  0  0
    9.7851  -18.0086   27.5188 C   0  0  2  0  0  0  0  0  0  0  0  0
    9.8509  -16.6456   26.9998 N   0  0  0  0  0  0  0  0  0  0  0  0
    8.7222  -17.9844   28.5942 C   0  0  0  0  0  0  0  0  0  0  0  0
    8.3094  -16.8775   29.0214 O   0  0  0  0  0  0  0  0  0  0  0  0
    8.1773  -19.1338   29.1364 O   0  0  0  0  0  0  0  0  0  0  0  0
  2  1  1  0
  3  2  2  0
  4  3  1  0
  5  4  2  0
  5 11  1  0
  6  5  1  0
  7  8  1  6
  7  6  1  0
  9  7  1  0
 10  9  2  0
 11 12  2  0
 12  2  1  0
 13  9  1  0
 13 14  1  0
 14 15  1  0
 16 17  1  0
 16 15  1  0
 17 13  1  0
 17 18  1  1
 19 18  2  0
 20 21  1  0
 21 22  2  0
 23 24  1  0
 23 21  1  0
 24 25  1  0
 26 25  1  0
 27 26  1  1
 27 28  1  0
 28 18  1  0
 29 27  1  0
 29 31  1  0
 30 29  2  0
M  END
$$$$
