YPR.pdb
     RDKit          3D

 31 32  0  0  1  0  0  0  0  0999 V2000
    7.5390  -12.5589   16.8403 O   0  0  0  0  0  0  0  0  0  0  0  0
    7.5025  -12.9607   18.1694 C   0  0  0  0  0  0  0  0  0  0  0  0
    7.9339  -12.1334   19.1552 C   0  0  0  0  0  0  0  0  0  0  0  0
    7.8843  -12.5606   20.4570 C   0  0  0  0  0  0  0  0  0  0  0  0
    7.4099  -13.8023   20.7885 C   0  0  0  0  0  0  0  0  0  0  0  0
    7.3808  -14.2089   22.2172 C   0  0  0  0  0  0  0  0  0  0  0  0
    8.7775  -14.5082   22.7319 C   0  0  2  0  0  0  0  0  0  0  0  0
    9.4537  -15.3195   21.7871 N   0  0  0  0  0  0  0  0  0  0  0  0
    8.7940  -14.9489   24.1258 C   0  0  0  0  0  0  0  0  0  0  0  0
    9.5339  -15.9584   24.4099 O   0  0  0  0  0  0  0  0  0  0  0  0
    6.9722  -14.6429   19.7978 C   0  0  0  0  0  0  0  0  0  0  0  0
    7.0218  -14.2148   18.4869 C   0  0  0  0  0  0  0  0  0  0  0  0
    8.0763  -14.3811   25.2064 N   0  0  0  0  0  0  0  0  0  0  0  0
    6.7831  -13.7584   25.2675 C   0  0  0  0  0  0  0  0  0  0  0  0
    7.0326  -12.5986   26.2136 C   0  0  0  0  0  0  0  0  0  0  0  0
    8.2163  -12.9754   27.0422 C   0  0  0  0  0  0  0  0  0  0  0  0
    8.5792  -14.3372   26.5699 C   0  0  1  0  0  0  0  0  0  0  0  0
    7.9423  -15.3549   27.4275 C   0  0  0  0  0  0  0  0  0  0  0  0
    8.2142  -15.4276   28.6699 O   0  0  0  0  0  0  0  0  0  0  0  0
    4.7897  -22.3866   24.4004 N   0  0  0  0  0  0  0  0  0  0  0  0
    5.9061  -22.5562   25.2639 C   0  0  0  0  0  0  0  0  0  0  0  0
    5.7241  -23.3347   26.2924 N   0  0  0  0  0  0  0  0  0  0  0  0
    7.1681  -21.9182   25.0341 N   0  0  0  0  0  0  0  0  0  0  0  0
    7.1578  -20.5379   24.5886 C   0  0  0  0  0  0  0  0  0  0  0  0
    7.9946  -19.6459   25.4320 C   0  0  0  0  0  0  0  0  0  0  0  0
    7.5731  -18.2278   25.5326 C   0  0  0  0  0  0  0  0  0  0  0  0
    7.2764  -17.7164   26.8994 C   0  0  2  0  0  0  0  0  0  0  0  0
    7.0119  -16.2807   26.9065 N   0  0  0  0  0  0  0  0  0  0  0  0
    8.4742  -17.9147   27.8009 C   0  0  0  0  0  0  0  0  0  0  0  0
    8.3148  -18.4693   28.9167 O   0  0  0  0  0  0  0  0  0  0  0  0
    9.7501  -17.5102   27.4532 O   0  0  0  0  0  0  0  0  0  0  0  0
  2  1  1  0
  3  2  2  0
  4  3  1  0
  5  4  2  0
  5 11  1  0
  6  5  1  0
  7  8  1  6
  7  6  1  0
  9  7  1  0
 10  9  2  0
 11 12  2  0
 12  2  1  0
 13  9  1  0
 13 14  1  0
 14 15  1  0
 16 17  1  0
 16 15  1  0
 17 13  1  0
 17 18  1  1
 19 18  2  0
 20 21  1  0
 21 22  2  0
 23 24  1  0
 23 21  1  0
 24 25  1  0
 26 25  1  0
 27 26  1  6
 27 28  1  0
 28 18  1  0
 29 27  1  0
 29 31  1  0
 30 29  2  0
M  END
$$$$
