YPR.pdb
     RDKit          3D

 31 32  0  0  1  0  0  0  0  0999 V2000
    5.8837  -10.3981   27.3888 O   0  0  0  0  0  0  0  0  0  0  0  0
    6.3678  -11.6179   26.9339 C   0  0  0  0  0  0  0  0  0  0  0  0
    5.5447  -12.5026   26.3155 C   0  0  0  0  0  0  0  0  0  0  0  0
    6.0543  -13.6979   25.8782 C   0  0  0  0  0  0  0  0  0  0  0  0
    7.3742  -14.0225   26.0495 C   0  0  0  0  0  0  0  0  0  0  0  0
    7.8680  -15.3333   25.5541 C   0  0  0  0  0  0  0  0  0  0  0  0
    6.7804  -16.0829   24.8055 C   0  0  2  0  0  0  0  0  0  0  0  0
    6.3588  -17.1870   25.5873 N   0  0  0  0  0  0  0  0  0  0  0  0
    7.1203  -16.3437   23.4077 C   0  0  0  0  0  0  0  0  0  0  0  0
    6.8119  -17.4974   22.9376 O   0  0  0  0  0  0  0  0  0  0  0  0
    8.2111  -13.1335   26.6730 C   0  0  0  0  0  0  0  0  0  0  0  0
    7.7000  -11.9300   27.1142 C   0  0  0  0  0  0  0  0  0  0  0  0
    7.7594  -15.4568   22.5075 N   0  0  0  0  0  0  0  0  0  0  0  0
    8.2988  -14.1382   22.6924 C   0  0  0  0  0  0  0  0  0  0  0  0
    7.8772  -13.4396   21.4131 C   0  0  0  0  0  0  0  0  0  0  0  0
    7.6674  -14.5114   20.3949 C   0  0  0  0  0  0  0  0  0  0  0  0
    8.0047  -15.7704   21.1091 C   0  0  1  0  0  0  0  0  0  0  0  0
    9.4144  -16.1287   20.8616 C   0  0  0  0  0  0  0  0  0  0  0  0
    9.8307  -16.3733   19.6828 O   0  0  0  0  0  0  0  0  0  0  0  0
   16.8370  -15.7848   26.0974 N   0  0  0  0  0  0  0  0  0  0  0  0
   17.2282  -15.9883   24.7459 C   0  0  0  0  0  0  0  0  0  0  0  0
   18.4891  -15.8009   24.4781 N   0  0  0  0  0  0  0  0  0  0  0  0
   16.3052  -16.3785   23.7220 N   0  0  0  0  0  0  0  0  0  0  0  0
   14.9131  -16.0069   23.8879 C   0  0  0  0  0  0  0  0  0  0  0  0
   14.0486  -16.4681   22.7711 C   0  0  0  0  0  0  0  0  0  0  0  0
   12.5955  -16.1980   22.8916 C   0  0  0  0  0  0  0  0  0  0  0  0
   11.7753  -16.4072   21.6664 C   0  0  2  0  0  0  0  0  0  0  0  0
   10.3501  -16.2123   21.9160 N   0  0  0  0  0  0  0  0  0  0  0  0
   11.9135  -17.8339   21.1845 C   0  0  0  0  0  0  0  0  0  0  0  0
   11.2287  -18.7335   21.7322 O   0  0  0  0  0  0  0  0  0  0  0  0
   12.7666  -18.2003   20.1597 O   0  0  0  0  0  0  0  0  0  0  0  0
  2  1  1  0
  3  2  2  0
  4  3  1  0
  5  4  2  0
  5 11  1  0
  6  5  1  0
  7  8  1  1
  7  6  1  0
  9  7  1  0
 10  9  2  0
 11 12  2  0
 12  2  1  0
 13  9  1  0
 13 14  1  0
 14 15  1  0
 16 17  1  0
 16 15  1  0
 17 13  1  0
 17 18  1  1
 19 18  2  0
 20 21  1  0
 21 22  2  0
 23 24  1  0
 23 21  1  0
 24 25  1  0
 26 25  1  0
 27 26  1  1
 27 28  1  0
 28 18  1  0
 29 27  1  0
 29 31  1  0
 30 29  2  0
M  END
$$$$
