YPR.pdb
     RDKit          3D

 31 32  0  0  1  0  0  0  0  0999 V2000
    5.2208  -10.1965   27.5698 O   0  0  0  0  0  0  0  0  0  0  0  0
    5.9072  -11.2821   27.0410 C   0  0  0  0  0  0  0  0  0  0  0  0
    6.4616  -11.2151   25.8038 C   0  0  0  0  0  0  0  0  0  0  0  0
    7.1326  -12.3045   25.3112 C   0  0  0  0  0  0  0  0  0  0  0  0
    7.2580  -13.4599   26.0364 C   0  0  0  0  0  0  0  0  0  0  0  0
    7.9969  -14.6073   25.4490 C   0  0  0  0  0  0  0  0  0  0  0  0
    7.0807  -15.4785   24.6084 C   0  0  2  0  0  0  0  0  0  0  0  0
    6.4768  -16.4524   25.4422 N   0  0  0  0  0  0  0  0  0  0  0  0
    7.7084  -15.9500   23.3751 C   0  0  0  0  0  0  0  0  0  0  0  0
    7.9071  -17.2134   23.2675 O   0  0  0  0  0  0  0  0  0  0  0  0
    6.7008  -13.5343   27.2868 C   0  0  0  0  0  0  0  0  0  0  0  0
    6.0246  -12.4390   27.7842 C   0  0  0  0  0  0  0  0  0  0  0  0
    8.1267  -15.1596   22.2771 N   0  0  0  0  0  0  0  0  0  0  0  0
    8.0560  -13.7443   22.0415 C   0  0  0  0  0  0  0  0  0  0  0  0
    7.6783  -13.6843   20.5731 C   0  0  0  0  0  0  0  0  0  0  0  0
    8.1255  -14.9742   19.9681 C   0  0  0  0  0  0  0  0  0  0  0  0
    8.7667  -15.7063   21.0915 C   0  0  1  0  0  0  0  0  0  0  0  0
   10.2219  -15.4633   21.0866 C   0  0  0  0  0  0  0  0  0  0  0  0
   10.6927  -14.3011   21.3108 O   0  0  0  0  0  0  0  0  0  0  0  0
   13.3664  -21.0313   26.3132 N   0  0  0  0  0  0  0  0  0  0  0  0
   12.1972  -20.4093   26.8299 C   0  0  0  0  0  0  0  0  0  0  0  0
   11.5613  -21.0636   27.7596 N   0  0  0  0  0  0  0  0  0  0  0  0
   11.7286  -19.1361   26.3699 N   0  0  0  0  0  0  0  0  0  0  0  0
   11.0625  -19.0845   25.0824 C   0  0  0  0  0  0  0  0  0  0  0  0
   11.8801  -18.4314   24.0278 C   0  0  0  0  0  0  0  0  0  0  0  0
   11.1496  -17.6563   22.9961 C   0  0  0  0  0  0  0  0  0  0  0  0
   11.9680  -17.0740   21.8967 C   0  0  2  0  0  0  0  0  0  0  0  0
   11.1425  -16.5045   20.8357 N   0  0  0  0  0  0  0  0  0  0  0  0
   12.7946  -18.1536   21.2349 C   0  0  0  0  0  0  0  0  0  0  0  0
   14.0293  -17.9750   21.0881 O   0  0  0  0  0  0  0  0  0  0  0  0
   12.2513  -19.3404   20.7780 O   0  0  0  0  0  0  0  0  0  0  0  0
  2  1  1  0
  3  2  2  0
  4  3  1  0
  5  4  2  0
  5 11  1  0
  6  5  1  0
  7  8  1  1
  7  6  1  0
  9  7  1  0
 10  9  2  0
 11 12  2  0
 12  2  1  0
 13  9  1  0
 13 14  1  0
 14 15  1  0
 16 17  1  0
 16 15  1  0
 17 13  1  0
 17 18  1  1
 19 18  2  0
 20 21  1  0
 21 22  2  0
 23 24  1  0
 23 21  1  0
 24 25  1  0
 26 25  1  0
 27 26  1  1
 27 28  1  0
 28 18  1  0
 29 27  1  0
 29 31  1  0
 30 29  2  0
M  END
$$$$
