YPR.pdb
     RDKit          3D

 31 32  0  0  1  0  0  0  0  0999 V2000
    7.6447  -11.5396   27.1024 O   0  0  0  0  0  0  0  0  0  0  0  0
    7.2480  -12.8062   26.6927 C   0  0  0  0  0  0  0  0  0  0  0  0
    8.1683  -13.7677   26.4262 C   0  0  0  0  0  0  0  0  0  0  0  0
    7.7434  -15.0076   26.0240 C   0  0  0  0  0  0  0  0  0  0  0  0
    6.4126  -15.3012   25.8841 C   0  0  0  0  0  0  0  0  0  0  0  0
    6.0135  -16.6632   25.4446 C   0  0  0  0  0  0  0  0  0  0  0  0
    5.9524  -16.7562   23.9304 C   0  0  2  0  0  0  0  0  0  0  0  0
    5.1290  -17.8510   23.5680 N   0  0  0  0  0  0  0  0  0  0  0  0
    7.2666  -16.6684   23.2959 C   0  0  0  0  0  0  0  0  0  0  0  0
    7.9039  -17.7682   23.1191 O   0  0  0  0  0  0  0  0  0  0  0  0
    5.4778  -14.3347   26.1519 C   0  0  0  0  0  0  0  0  0  0  0  0
    5.9035  -13.0860   26.5565 C   0  0  0  0  0  0  0  0  0  0  0  0
    7.9206  -15.4933   22.8523 N   0  0  0  0  0  0  0  0  0  0  0  0
    7.7610  -14.1158   23.2275 C   0  0  0  0  0  0  0  0  0  0  0  0
    7.8761  -13.4063   21.8912 C   0  0  0  0  0  0  0  0  0  0  0  0
    8.6467  -14.3173   20.9934 C   0  0  0  0  0  0  0  0  0  0  0  0
    8.9714  -15.4895   21.8474 C   0  0  1  0  0  0  0  0  0  0  0  0
   10.3092  -15.3220   22.4465 C   0  0  0  0  0  0  0  0  0  0  0  0
   10.4555  -14.7394   23.5698 O   0  0  0  0  0  0  0  0  0  0  0  0
   14.6138  -21.7856   18.6332 N   0  0  0  0  0  0  0  0  0  0  0  0
   14.6857  -20.3670   18.6888 C   0  0  0  0  0  0  0  0  0  0  0  0
   15.3562  -19.7876   17.7341 N   0  0  0  0  0  0  0  0  0  0  0  0
   14.0626  -19.5992   19.7256 N   0  0  0  0  0  0  0  0  0  0  0  0
   14.8000  -19.4030   20.9591 C   0  0  0  0  0  0  0  0  0  0  0  0
   14.0653  -18.5799   21.9540 C   0  0  0  0  0  0  0  0  0  0  0  0
   13.1102  -17.5781   21.4220 C   0  0  0  0  0  0  0  0  0  0  0  0
   12.3483  -16.7852   22.4261 C   0  0  2  0  0  0  0  0  0  0  0  0
   11.4712  -15.7995   21.8013 N   0  0  0  0  0  0  0  0  0  0  0  0
   13.2995  -15.9924   23.2941 C   0  0  0  0  0  0  0  0  0  0  0  0
   13.7746  -16.5266   24.3270 O   0  0  0  0  0  0  0  0  0  0  0  0
   13.6753  -14.6938   23.0031 O   0  0  0  0  0  0  0  0  0  0  0  0
  2  1  1  0
  3  2  2  0
  4  3  1  0
  5  4  2  0
  5 11  1  0
  6  5  1  0
  7  8  1  1
  7  6  1  0
  9  7  1  0
 10  9  2  0
 11 12  2  0
 12  2  1  0
 13  9  1  0
 13 14  1  0
 14 15  1  0
 16 17  1  0
 16 15  1  0
 17 13  1  0
 17 18  1  1
 19 18  2  0
 20 21  1  0
 21 22  2  0
 23 24  1  0
 23 21  1  0
 24 25  1  0
 26 25  1  0
 27 26  1  6
 27 28  1  0
 28 18  1  0
 29 27  1  0
 29 31  1  0
 30 29  2  0
M  END
$$$$
