YPR.pdb
     RDKit          3D

 31 32  0  0  1  0  0  0  0  0999 V2000
    9.3164  -19.8297   20.4536 O   0  0  0  0  0  0  0  0  0  0  0  0
    8.5496  -18.6813   20.6042 C   0  0  0  0  0  0  0  0  0  0  0  0
    8.4919  -17.7525   19.6160 C   0  0  0  0  0  0  0  0  0  0  0  0
    7.7254  -16.6302   19.7964 C   0  0  0  0  0  0  0  0  0  0  0  0
    7.0157  -16.4220   20.9495 C   0  0  0  0  0  0  0  0  0  0  0  0
    6.2028  -15.1859   21.0866 C   0  0  0  0  0  0  0  0  0  0  0  0
    7.0734  -13.9444   21.0094 C   0  0  2  0  0  0  0  0  0  0  0  0
    7.5874  -13.8219   19.6945 N   0  0  0  0  0  0  0  0  0  0  0  0
    8.0270  -13.8418   22.1129 C   0  0  0  0  0  0  0  0  0  0  0  0
    9.2628  -13.6867   21.8036 O   0  0  0  0  0  0  0  0  0  0  0  0
    7.0693  -17.3561   21.9514 C   0  0  0  0  0  0  0  0  0  0  0  0
    7.8405  -18.4863   21.7720 C   0  0  0  0  0  0  0  0  0  0  0  0
    7.7353  -13.8968   23.4975 N   0  0  0  0  0  0  0  0  0  0  0  0
    6.5131  -14.1662   24.2028 C   0  0  0  0  0  0  0  0  0  0  0  0
    6.5741  -13.1636   25.3401 C   0  0  0  0  0  0  0  0  0  0  0  0
    8.0170  -12.8327   25.5357 C   0  0  0  0  0  0  0  0  0  0  0  0
    8.7272  -13.6734   24.5368 C   0  0  1  0  0  0  0  0  0  0  0  0
    9.1678  -14.9354   25.1616 C   0  0  0  0  0  0  0  0  0  0  0  0
    8.4110  -15.9600   25.1722 O   0  0  0  0  0  0  0  0  0  0  0  0
   12.4748  -16.5584   30.8744 N   0  0  0  0  0  0  0  0  0  0  0  0
   11.3111  -15.7581   31.0357 C   0  0  0  0  0  0  0  0  0  0  0  0
   11.4910  -14.5829   31.5679 N   0  0  0  0  0  0  0  0  0  0  0  0
   10.0063  -16.1989   30.6413 N   0  0  0  0  0  0  0  0  0  0  0  0
    9.6591  -16.1141   29.2355 C   0  0  0  0  0  0  0  0  0  0  0  0
   10.2531  -17.2050   28.4206 C   0  0  0  0  0  0  0  0  0  0  0  0
   10.0201  -17.1526   26.9571 C   0  0  0  0  0  0  0  0  0  0  0  0
   10.9862  -16.3500   26.1571 C   0  0  2  0  0  0  0  0  0  0  0  0
   10.4381  -15.0544   25.7668 N   0  0  0  0  0  0  0  0  0  0  0  0
   11.3091  -17.0625   24.8629 C   0  0  0  0  0  0  0  0  0  0  0  0
   11.8591  -18.1911   24.9067 O   0  0  0  0  0  0  0  0  0  0  0  0
   11.0258  -16.5261   23.6202 O   0  0  0  0  0  0  0  0  0  0  0  0
  2  1  1  0
  3  2  2  0
  4  3  1  0
  5  4  2  0
  5 11  1  0
  6  5  1  0
  7  8  1  6
  7  6  1  0
  9  7  1  0
 10  9  2  0
 11 12  2  0
 12  2  1  0
 13  9  1  0
 13 14  1  0
 14 15  1  0
 16 17  1  0
 16 15  1  0
 17 13  1  0
 17 18  1  1
 19 18  2  0
 20 21  1  0
 21 22  2  0
 23 24  1  0
 23 21  1  0
 24 25  1  0
 26 25  1  0
 27 26  1  6
 27 28  1  0
 28 18  1  0
 29 27  1  0
 29 31  1  0
 30 29  2  0
M  END
$$$$
