YPR.pdb
     RDKit          3D

 31 32  0  0  1  0  0  0  0  0999 V2000
    9.1296  -14.9855   11.9603 O   0  0  0  0  0  0  0  0  0  0  0  0
    9.2498  -15.0999   13.3394 C   0  0  0  0  0  0  0  0  0  0  0  0
   10.2965  -15.7658   13.8904 C   0  0  0  0  0  0  0  0  0  0  0  0
   10.3857  -15.8603   15.2553 C   0  0  0  0  0  0  0  0  0  0  0  0
    9.4447  -15.2992   16.0778 C   0  0  0  0  0  0  0  0  0  0  0  0
    9.5955  -15.4352   17.5496 C   0  0  0  0  0  0  0  0  0  0  0  0
    9.8617  -14.0899   18.2013 C   0  0  2  0  0  0  0  0  0  0  0  0
   10.9490  -13.4645   17.5419 N   0  0  0  0  0  0  0  0  0  0  0  0
    9.9143  -14.1588   19.6607 C   0  0  0  0  0  0  0  0  0  0  0  0
   11.0514  -13.9410   20.2145 O   0  0  0  0  0  0  0  0  0  0  0  0
    8.3852  -14.6250   15.5279 C   0  0  0  0  0  0  0  0  0  0  0  0
    8.2934  -14.5292   14.1543 C   0  0  0  0  0  0  0  0  0  0  0  0
    8.8401  -14.4434   20.5385 N   0  0  0  0  0  0  0  0  0  0  0  0
    7.4598  -14.7503   20.2852 C   0  0  0  0  0  0  0  0  0  0  0  0
    6.7549  -13.9772   21.3842 C   0  0  0  0  0  0  0  0  0  0  0  0
    7.7547  -13.7887   22.4772 C   0  0  0  0  0  0  0  0  0  0  0  0
    8.9741  -14.4818   21.9857 C   0  0  1  0  0  0  0  0  0  0  0  0
    9.0113  -15.8637   22.5014 C   0  0  0  0  0  0  0  0  0  0  0  0
    8.4179  -16.8084   21.8865 O   0  0  0  0  0  0  0  0  0  0  0  0
   15.7373  -15.8612   19.8029 N   0  0  0  0  0  0  0  0  0  0  0  0
   15.7476  -15.1459   21.0314 C   0  0  0  0  0  0  0  0  0  0  0  0
   16.7269  -14.3031   21.1975 N   0  0  0  0  0  0  0  0  0  0  0  0
   14.7476  -15.3254   22.0414 N   0  0  0  0  0  0  0  0  0  0  0  0
   13.7230  -16.3257   21.8096 C   0  0  0  0  0  0  0  0  0  0  0  0
   12.6938  -16.3661   22.8802 C   0  0  0  0  0  0  0  0  0  0  0  0
   11.6211  -17.3805   22.7419 C   0  0  0  0  0  0  0  0  0  0  0  0
   10.5563  -17.3702   23.7829 C   0  0  2  0  0  0  0  0  0  0  0  0
    9.7031  -16.1893   23.6887 N   0  0  0  0  0  0  0  0  0  0  0  0
   11.1761  -17.3164   25.1612 C   0  0  0  0  0  0  0  0  0  0  0  0
   11.9050  -18.2662   25.5417 O   0  0  0  0  0  0  0  0  0  0  0  0
   10.9768  -16.2614   26.0327 O   0  0  0  0  0  0  0  0  0  0  0  0
  2  1  1  0
  3  2  2  0
  4  3  1  0
  5  4  2  0
  5 11  1  0
  6  5  1  0
  7  8  1  6
  7  6  1  0
  9  7  1  0
 10  9  2  0
 11 12  2  0
 12  2  1  0
 13  9  1  0
 13 14  1  0
 14 15  1  0
 16 17  1  0
 16 15  1  0
 17 13  1  0
 17 18  1  1
 19 18  2  0
 20 21  1  0
 21 22  2  0
 23 24  1  0
 23 21  1  0
 24 25  1  0
 26 25  1  0
 27 26  1  6
 27 28  1  0
 28 18  1  0
 29 27  1  0
 29 31  1  0
 30 29  2  0
M  END
$$$$
