DTW.pdb
     RDKit          3D

 30 31  0  0  1  0  0  0  0  0999 V2000
   28.4727  -20.8763  -18.8394 N   0  0  0  0  0  0  0  0  0  0  0  0
   27.5651  -21.3914  -17.8320 C   0  0  1  0  0  0  0  0  0  0  0  0
   27.6224  -22.9104  -17.8273 C   0  0  0  0  0  0  0  0  0  0  0  0
   26.9374  -23.4988  -18.9795 C   0  0  0  0  0  0  0  0  0  0  0  0
   26.3649  -22.7501  -19.8196 O   0  0  0  0  0  0  0  0  0  0  0  0
   27.9904  -20.8906  -16.4942 C   0  0  0  0  0  0  0  0  0  0  0  0
   29.2169  -20.6876  -16.3305 O   0  0  0  0  0  0  0  0  0  0  0  0
   26.9413  -24.8756  -19.1100 O   0  0  0  0  0  0  0  0  0  0  0  0
   27.9397  -17.7262  -15.1287 C   0  0  0  0  0  0  0  0  0  0  0  0
   27.1629  -18.5514  -14.1239 C   0  0  1  0  0  0  0  0  0  0  0  0
   25.8231  -18.3874  -14.4509 O   0  0  0  0  0  0  0  0  0  0  0  0
   27.4787  -20.0012  -14.1830 C   0  0  2  0  0  0  0  0  0  0  0  0
   27.1272  -20.6362  -15.4268 N   0  0  0  0  0  0  0  0  0  0  0  0
   26.7436  -20.7122  -13.1152 C   0  0  0  0  0  0  0  0  0  0  0  0
   25.6437  -21.3199  -13.3770 O   0  0  0  0  0  0  0  0  0  0  0  0
   27.1477  -20.8002  -11.7589 N   0  0  0  0  0  0  0  0  0  0  0  0
   26.2863  -21.4388  -10.7422 C   0  0  1  0  0  0  0  0  0  0  0  0
   27.1109  -21.8589   -9.5652 C   0  0  0  0  0  0  0  0  0  0  0  0
   27.2238  -20.8593   -8.5063 C   0  0  0  0  0  0  0  0  0  0  0  0
   26.2738  -19.8430   -8.3510 C   0  0  0  0  0  0  0  0  0  0  0  0
   26.5941  -19.0961   -7.2907 N   0  0  0  0  0  0  0  0  0  0  0  0
   27.7169  -19.5636   -6.7261 C   0  0  0  0  0  0  0  0  0  0  0  0
   28.4830  -19.1834   -5.6405 C   0  0  0  0  0  0  0  0  0  0  0  0
   29.6313  -19.8530   -5.2749 C   0  0  0  0  0  0  0  0  0  0  0  0
   30.0053  -20.9330   -6.0338 C   0  0  0  0  0  0  0  0  0  0  0  0
   29.2419  -21.3205   -7.1240 C   0  0  0  0  0  0  0  0  0  0  0  0
   28.1015  -20.6494   -7.4786 C   0  0  0  0  0  0  0  0  0  0  0  0
   25.1900  -20.5037  -10.4633 C   0  0  0  0  0  0  0  0  0  0  0  0
   25.3132  -19.2389  -10.6065 O   0  0  0  0  0  0  0  0  0  0  0  0
   23.9444  -20.9245  -10.0302 O   0  0  0  0  0  0  0  0  0  0  0  0
  2  1  1  6
  2  6  1  0
  3  2  1  0
  3  4  1  0
  4  5  2  0
  6  7  2  0
  8  4  1  0
 10  9  1  6
 10 12  1  0
 11 10  1  0
 12 13  1  6
 12 14  1  0
 13  6  1  0
 14 15  2  0
 14 16  1  0
 16 17  1  0
 17 28  1  0
 17 18  1  1
 19 18  1  0
 19 27  1  0
 20 19  2  0
 21 20  1  0
 21 22  1  0
 22 23  1  0
 22 27  2  0
 23 24  2  0
 24 25  1  0
 26 25  2  0
 27 26  1  0
 28 29  2  0
 28 30  1  0
M  END
$$$$
