DTW.pdb
     RDKit          3D

 30 31  0  0  1  0  0  0  0  0999 V2000
   18.1483   -9.5118  -19.2324 N   0  0  0  0  0  0  0  0  0  0  0  0
   18.8227   -8.5871  -20.1236 C   0  0  1  0  0  0  0  0  0  0  0  0
   18.1083   -8.5638  -21.4650 C   0  0  0  0  0  0  0  0  0  0  0  0
   18.2646   -9.8184  -22.2030 C   0  0  0  0  0  0  0  0  0  0  0  0
   17.2994  -10.6289  -22.2757 O   0  0  0  0  0  0  0  0  0  0  0  0
   18.7758   -7.2204  -19.5307 C   0  0  0  0  0  0  0  0  0  0  0  0
   19.3782   -6.3135  -20.1529 O   0  0  0  0  0  0  0  0  0  0  0  0
   19.4830  -10.0762  -22.8044 O   0  0  0  0  0  0  0  0  0  0  0  0
   15.7625   -5.9627  -16.7937 C   0  0  0  0  0  0  0  0  0  0  0  0
   16.6674   -5.0486  -17.5935 C   0  0  1  0  0  0  0  0  0  0  0  0
   16.7400   -3.8615  -16.8761 O   0  0  0  0  0  0  0  0  0  0  0  0
   18.0460   -5.5771  -17.7526 C   0  0  2  0  0  0  0  0  0  0  0  0
   18.1158   -6.8873  -18.3465 N   0  0  0  0  0  0  0  0  0  0  0  0
   18.6964   -5.6709  -16.4282 C   0  0  0  0  0  0  0  0  0  0  0  0
   18.4762   -6.6799  -15.6658 O   0  0  0  0  0  0  0  0  0  0  0  0
   19.5877   -4.7130  -15.8816 N   0  0  0  0  0  0  0  0  0  0  0  0
   20.6566   -5.1091  -14.9413 C   0  0  1  0  0  0  0  0  0  0  0  0
   21.3975   -6.2933  -15.4801 C   0  0  0  0  0  0  0  0  0  0  0  0
   21.8052   -7.2718  -14.4753 C   0  0  0  0  0  0  0  0  0  0  0  0
   21.1742   -7.3507  -13.2282 C   0  0  0  0  0  0  0  0  0  0  0  0
   21.7119   -8.3496  -12.5225 N   0  0  0  0  0  0  0  0  0  0  0  0
   22.6765   -8.9456  -13.2383 C   0  0  0  0  0  0  0  0  0  0  0  0
   23.5430   -9.9969  -13.0050 C   0  0  0  0  0  0  0  0  0  0  0  0
   24.4720  -10.4100  -13.9360 C   0  0  0  0  0  0  0  0  0  0  0  0
   24.5175   -9.7356  -15.1299 C   0  0  0  0  0  0  0  0  0  0  0  0
   23.6516   -8.6804  -15.3712 C   0  0  0  0  0  0  0  0  0  0  0  0
   22.7309   -8.2781  -14.4402 C   0  0  0  0  0  0  0  0  0  0  0  0
   21.4592   -3.9091  -14.6773 C   0  0  0  0  0  0  0  0  0  0  0  0
   21.2154   -2.7839  -15.2340 O   0  0  0  0  0  0  0  0  0  0  0  0
   22.5334   -3.9089  -13.8042 O   0  0  0  0  0  0  0  0  0  0  0  0
  2  1  1  1
  2  6  1  0
  3  2  1  0
  3  4  1  0
  4  5  2  0
  6  7  2  0
  8  4  1  0
 10  9  1  1
 10 12  1  0
 11 10  1  0
 12 13  1  1
 12 14  1  0
 13  6  1  0
 14 15  2  0
 14 16  1  0
 16 17  1  0
 17 28  1  0
 17 18  1  6
 19 18  1  0
 19 27  1  0
 20 19  2  0
 21 20  1  0
 21 22  1  0
 22 23  1  0
 22 27  2  0
 23 24  2  0
 24 25  1  0
 26 25  2  0
 27 26  1  0
 28 29  2  0
 28 30  1  0
M  END
$$$$
