DTW.pdb
     RDKit          3D

 30 31  0  0  1  0  0  0  0  0999 V2000
   25.6009  -20.2741  -16.3769 N   0  0  0  0  0  0  0  0  0  0  0  0
   26.3850  -19.9462  -15.2015 C   0  0  1  0  0  0  0  0  0  0  0  0
   27.3772  -18.8469  -15.5444 C   0  0  0  0  0  0  0  0  0  0  0  0
   28.4581  -19.3204  -16.4107 C   0  0  0  0  0  0  0  0  0  0  0  0
   28.4145  -20.4883  -16.8884 O   0  0  0  0  0  0  0  0  0  0  0  0
   25.4722  -19.4526  -14.1315 C   0  0  0  0  0  0  0  0  0  0  0  0
   24.8117  -18.4174  -14.3854 O   0  0  0  0  0  0  0  0  0  0  0  0
   29.5057  -18.4587  -16.6802 O   0  0  0  0  0  0  0  0  0  0  0  0
   22.6169  -21.3705  -12.6898 C   0  0  0  0  0  0  0  0  0  0  0  0
   22.9140  -19.9297  -12.3292 C   0  0  1  0  0  0  0  0  0  0  0  0
   22.0796  -19.6244  -11.2617 O   0  0  0  0  0  0  0  0  0  0  0  0
   24.3172  -19.7084  -11.8966 C   0  0  2  0  0  0  0  0  0  0  0  0
   25.3060  -20.0568  -12.8840 N   0  0  0  0  0  0  0  0  0  0  0  0
   24.6008  -20.5263  -10.6980 C   0  0  0  0  0  0  0  0  0  0  0  0
   25.0047  -21.7386  -10.8189 O   0  0  0  0  0  0  0  0  0  0  0  0
   24.4683  -20.0889   -9.3556 N   0  0  0  0  0  0  0  0  0  0  0  0
   24.6521  -21.0212   -8.2240 C   0  0  1  0  0  0  0  0  0  0  0  0
   25.3080  -20.3124   -7.0798 C   0  0  0  0  0  0  0  0  0  0  0  0
   26.7669  -20.2738   -7.1365 C   0  0  0  0  0  0  0  0  0  0  0  0
   27.4720  -20.7536   -8.2465 C   0  0  0  0  0  0  0  0  0  0  0  0
   28.7806  -20.5639   -8.0554 N   0  0  0  0  0  0  0  0  0  0  0  0
   28.9876  -19.9788   -6.8668 C   0  0  0  0  0  0  0  0  0  0  0  0
   30.1115  -19.5712   -6.1733 C   0  0  0  0  0  0  0  0  0  0  0  0
   30.0401  -18.9893   -4.9256 C   0  0  0  0  0  0  0  0  0  0  0  0
   28.7951  -18.8204   -4.3743 C   0  0  0  0  0  0  0  0  0  0  0  0
   27.6632  -19.2264   -5.0639 C   0  0  0  0  0  0  0  0  0  0  0  0
   27.7445  -19.8025   -6.3040 C   0  0  0  0  0  0  0  0  0  0  0  0
   23.3413  -21.6209   -7.9476 C   0  0  0  0  0  0  0  0  0  0  0  0
   22.2490  -21.1091   -8.3722 O   0  0  0  0  0  0  0  0  0  0  0  0
   23.1949  -22.7845   -7.2124 O   0  0  0  0  0  0  0  0  0  0  0  0
  2  1  1  6
  2  6  1  0
  3  2  1  0
  3  4  1  0
  4  5  2  0
  6  7  2  0
  8  4  1  0
 10  9  1  1
 10 12  1  0
 11 10  1  0
 12 13  1  6
 12 14  1  0
 13  6  1  0
 14 15  2  0
 14 16  1  0
 16 17  1  0
 17 28  1  0
 17 18  1  1
 19 18  1  0
 19 27  1  0
 20 19  2  0
 21 20  1  0
 21 22  1  0
 22 23  1  0
 22 27  2  0
 23 24  2  0
 24 25  1  0
 26 25  2  0
 27 26  1  0
 28 29  2  0
 28 30  1  0
M  END
$$$$
