DTW.pdb
     RDKit          3D

 30 31  0  0  1  0  0  0  0  0999 V2000
   28.0658  -21.4586  -18.0937 N   0  0  0  0  0  0  0  0  0  0  0  0
   27.8942  -22.0431  -16.7773 C   0  0  1  0  0  0  0  0  0  0  0  0
   29.2281  -22.5777  -16.2823 C   0  0  0  0  0  0  0  0  0  0  0  0
   29.5507  -23.8876  -16.8509 C   0  0  0  0  0  0  0  0  0  0  0  0
   28.7535  -24.4331  -17.6639 O   0  0  0  0  0  0  0  0  0  0  0  0
   27.4202  -20.9888  -15.8363 C   0  0  0  0  0  0  0  0  0  0  0  0
   27.8963  -19.8390  -15.9898 O   0  0  0  0  0  0  0  0  0  0  0  0
   30.7359  -24.4913  -16.4723 O   0  0  0  0  0  0  0  0  0  0  0  0
   25.2305  -18.6340  -15.8500 C   0  0  0  0  0  0  0  0  0  0  0  0
   24.7915  -19.4287  -14.6376 C   0  0  1  0  0  0  0  0  0  0  0  0
   23.8664  -20.3540  -15.1032 O   0  0  0  0  0  0  0  0  0  0  0  0
   25.9009  -20.1716  -13.9875 C   0  0  2  0  0  0  0  0  0  0  0  0
   26.4954  -21.1929  -14.8107 N   0  0  0  0  0  0  0  0  0  0  0  0
   25.4009  -20.8407  -12.7675 C   0  0  0  0  0  0  0  0  0  0  0  0
   25.1653  -22.1025  -12.7682 O   0  0  0  0  0  0  0  0  0  0  0  0
   25.1415  -20.2016  -11.5285 N   0  0  0  0  0  0  0  0  0  0  0  0
   24.6536  -20.9637  -10.3603 C   0  0  1  0  0  0  0  0  0  0  0  0
   25.1742  -20.3510   -9.0973 C   0  0  0  0  0  0  0  0  0  0  0  0
   26.5839  -20.6157   -8.8220 C   0  0  0  0  0  0  0  0  0  0  0  0
   27.3631  -21.4068   -9.6745 C   0  0  0  0  0  0  0  0  0  0  0  0
   28.6158  -21.4537   -9.2127 N   0  0  0  0  0  0  0  0  0  0  0  0
   28.7144  -20.7306   -8.0879 C   0  0  0  0  0  0  0  0  0  0  0  0
   29.7428  -20.4459   -7.2094 C   0  0  0  0  0  0  0  0  0  0  0  0
   29.5638  -19.6601   -6.0910 C   0  0  0  0  0  0  0  0  0  0  0  0
   28.3085  -19.1548   -5.8645 C   0  0  0  0  0  0  0  0  0  0  0  0
   27.2721  -19.4358   -6.7411 C   0  0  0  0  0  0  0  0  0  0  0  0
   27.4603  -20.2167   -7.8506 C   0  0  0  0  0  0  0  0  0  0  0  0
   23.1936  -21.0475  -10.4847 C   0  0  0  0  0  0  0  0  0  0  0  0
   22.5333  -20.3341  -11.3157 O   0  0  0  0  0  0  0  0  0  0  0  0
   22.4288  -21.9072   -9.7153 O   0  0  0  0  0  0  0  0  0  0  0  0
  2  1  1  6
  2  6  1  0
  3  2  1  0
  3  4  1  0
  4  5  2  0
  6  7  2  0
  8  4  1  0
 10  9  1  6
 10 12  1  0
 11 10  1  0
 12 13  1  6
 12 14  1  0
 13  6  1  0
 14 15  2  0
 14 16  1  0
 16 17  1  0
 17 28  1  0
 17 18  1  1
 19 18  1  0
 19 27  1  0
 20 19  2  0
 21 20  1  0
 21 22  1  0
 22 23  1  0
 22 27  2  0
 23 24  2  0
 24 25  1  0
 26 25  2  0
 27 26  1  0
 28 29  2  0
 28 30  1  0
M  END
$$$$
