DTW.pdb
     RDKit          3D

 30 31  0  0  1  0  0  0  0  0999 V2000
   18.5917  -10.9053  -23.3998 N   0  0  0  0  0  0  0  0  0  0  0  0
   18.3343   -9.8844  -22.4020 C   0  0  1  0  0  0  0  0  0  0  0  0
   17.4778  -10.4672  -21.2897 C   0  0  0  0  0  0  0  0  0  0  0  0
   16.1254  -10.7989  -21.7415 C   0  0  0  0  0  0  0  0  0  0  0  0
   15.8045  -10.6181  -22.9492 O   0  0  0  0  0  0  0  0  0  0  0  0
   19.6317   -9.4336  -21.8231 C   0  0  0  0  0  0  0  0  0  0  0  0
   20.6582  -10.0575  -22.1830 O   0  0  0  0  0  0  0  0  0  0  0  0
   15.2325  -11.3069  -20.8157 O   0  0  0  0  0  0  0  0  0  0  0  0
   21.4052   -6.2390  -22.3569 C   0  0  0  0  0  0  0  0  0  0  0  0
   21.2595   -6.4172  -20.8598 C   0  0  1  0  0  0  0  0  0  0  0  0
   20.1467   -5.6710  -20.4940 O   0  0  0  0  0  0  0  0  0  0  0  0
   21.0241   -7.8264  -20.4549 C   0  0  2  0  0  0  0  0  0  0  0  0
   19.7783   -8.3789  -20.9204 N   0  0  0  0  0  0  0  0  0  0  0  0
   21.0116   -7.9222  -18.9796 C   0  0  0  0  0  0  0  0  0  0  0  0
   19.8994   -7.9457  -18.3391 O   0  0  0  0  0  0  0  0  0  0  0  0
   22.1606   -7.9967  -18.1519 N   0  0  0  0  0  0  0  0  0  0  0  0
   22.0417   -8.1558  -16.6877 C   0  0  1  0  0  0  0  0  0  0  0  0
   22.4063   -9.5537  -16.2945 C   0  0  0  0  0  0  0  0  0  0  0  0
   23.7523   -9.7067  -15.7484 C   0  0  0  0  0  0  0  0  0  0  0  0
   24.0095   -9.5701  -14.3792 C   0  0  0  0  0  0  0  0  0  0  0  0
   25.3056   -9.7967  -14.1477 N   0  0  0  0  0  0  0  0  0  0  0  0
   25.9319  -10.0789  -15.2993 C   0  0  0  0  0  0  0  0  0  0  0  0
   27.2374  -10.3773  -15.6410 C   0  0  0  0  0  0  0  0  0  0  0  0
   27.6239  -10.6222  -16.9415 C   0  0  0  0  0  0  0  0  0  0  0  0
   26.6574  -10.5608  -17.9132 C   0  0  0  0  0  0  0  0  0  0  0  0
   25.3458  -10.2623  -17.5782 C   0  0  0  0  0  0  0  0  0  0  0  0
   24.9713  -10.0217  -16.2827 C   0  0  0  0  0  0  0  0  0  0  0  0
   22.8358   -7.0837  -16.0760 C   0  0  0  0  0  0  0  0  0  0  0  0
   23.7676   -6.4748  -16.7055 O   0  0  0  0  0  0  0  0  0  0  0  0
   22.6295   -6.6528  -14.7768 O   0  0  0  0  0  0  0  0  0  0  0  0
  2  1  1  6
  2  6  1  0
  3  2  1  0
  3  4  1  0
  4  5  2  0
  6  7  2  0
  8  4  1  0
 10  9  1  6
 10 12  1  0
 11 10  1  0
 12 13  1  1
 12 14  1  0
 13  6  1  0
 14 15  2  0
 14 16  1  0
 16 17  1  0
 17 28  1  0
 17 18  1  1
 19 18  1  0
 19 27  1  0
 20 19  2  0
 21 20  1  0
 21 22  1  0
 22 23  1  0
 22 27  2  0
 23 24  2  0
 24 25  1  0
 26 25  2  0
 27 26  1  0
 28 29  2  0
 28 30  1  0
M  END
$$$$
