DTW.pdb
     RDKit          3D

 30 31  0  0  1  0  0  0  0  0999 V2000
   18.3760   -5.7064  -15.7368 N   0  0  0  0  0  0  0  0  0  0  0  0
   19.7189   -5.8361  -16.2696 C   0  0  1  0  0  0  0  0  0  0  0  0
   20.4936   -4.5545  -16.0090 C   0  0  0  0  0  0  0  0  0  0  0  0
   19.9672   -3.4194  -16.7689 C   0  0  0  0  0  0  0  0  0  0  0  0
   19.0045   -3.5904  -17.5677 O   0  0  0  0  0  0  0  0  0  0  0  0
   20.4083   -6.9628  -15.5789 C   0  0  0  0  0  0  0  0  0  0  0  0
   20.1950   -7.0871  -14.3495 O   0  0  0  0  0  0  0  0  0  0  0  0
   20.5516   -2.1799  -16.5827 O   0  0  0  0  0  0  0  0  0  0  0  0
   19.6766  -10.3382  -15.3801 C   0  0  0  0  0  0  0  0  0  0  0  0
   21.0911  -10.3123  -15.9213 C   0  0  1  0  0  0  0  0  0  0  0  0
   20.9722  -10.4014  -17.3022 O   0  0  0  0  0  0  0  0  0  0  0  0
   21.8213   -9.0597  -15.6004 C   0  0  2  0  0  0  0  0  0  0  0  0
   21.2628   -7.8754  -16.2000 N   0  0  0  0  0  0  0  0  0  0  0  0
   23.2172   -9.1644  -16.0764 C   0  0  0  0  0  0  0  0  0  0  0  0
   23.5997   -8.5166  -17.1165 O   0  0  0  0  0  0  0  0  0  0  0  0
   24.2343   -9.9459  -15.4718 N   0  0  0  0  0  0  0  0  0  0  0  0
   25.5840  -10.0399  -16.0658 C   0  0  1  0  0  0  0  0  0  0  0  0
   26.5575  -10.5416  -15.0449 C   0  0  0  0  0  0  0  0  0  0  0  0
   27.7742  -11.1332  -15.5953 C   0  0  0  0  0  0  0  0  0  0  0  0
   28.8981  -10.3551  -15.8968 C   0  0  0  0  0  0  0  0  0  0  0  0
   29.8766  -11.1461  -16.3457 N   0  0  0  0  0  0  0  0  0  0  0  0
   29.4615  -12.4211  -16.3604 C   0  0  0  0  0  0  0  0  0  0  0  0
   30.0401  -13.6213  -16.7279 C   0  0  0  0  0  0  0  0  0  0  0  0
   29.3660  -14.8213  -16.6512 C   0  0  0  0  0  0  0  0  0  0  0  0
   28.0741  -14.7954  -16.1900 C   0  0  0  0  0  0  0  0  0  0  0  0
   27.4871  -13.5956  -15.8193 C   0  0  0  0  0  0  0  0  0  0  0  0
   28.1657  -12.4083  -15.8979 C   0  0  0  0  0  0  0  0  0  0  0  0
   25.4575  -10.8422  -17.2883 C   0  0  0  0  0  0  0  0  0  0  0  0
   24.6355  -11.8167  -17.3879 O   0  0  0  0  0  0  0  0  0  0  0  0
   26.2150  -10.5982  -18.4208 O   0  0  0  0  0  0  0  0  0  0  0  0
  2  1  1  1
  2  6  1  0
  3  2  1  0
  3  4  1  0
  4  5  2  0
  6  7  2  0
  8  4  1  0
 10  9  1  1
 10 12  1  0
 11 10  1  0
 12 13  1  6
 12 14  1  0
 13  6  1  0
 14 15  2  0
 14 16  1  0
 16 17  1  0
 17 28  1  0
 17 18  1  1
 19 18  1  0
 19 27  1  0
 20 19  2  0
 21 20  1  0
 21 22  1  0
 22 23  1  0
 22 27  2  0
 23 24  2  0
 24 25  1  0
 26 25  2  0
 27 26  1  0
 28 29  2  0
 28 30  1  0
M  END
$$$$
