DTW.pdb
     RDKit          3D

 30 31  0  0  1  0  0  0  0  0999 V2000
   29.5791  -20.1575  -19.0839 N   0  0  0  0  0  0  0  0  0  0  0  0
   28.2821  -20.4111  -18.4859 C   0  0  1  0  0  0  0  0  0  0  0  0
   27.9152  -21.8743  -18.6730 C   0  0  0  0  0  0  0  0  0  0  0  0
   27.3100  -22.1357  -19.9800 C   0  0  0  0  0  0  0  0  0  0  0  0
   27.0902  -21.1784  -20.7733 O   0  0  0  0  0  0  0  0  0  0  0  0
   28.3547  -20.1169  -17.0266 C   0  0  0  0  0  0  0  0  0  0  0  0
   29.5003  -20.0244  -16.5251 O   0  0  0  0  0  0  0  0  0  0  0  0
   26.9952  -23.4424  -20.3057 O   0  0  0  0  0  0  0  0  0  0  0  0
   27.6189  -17.0580  -15.3331 C   0  0  0  0  0  0  0  0  0  0  0  0
   26.7827  -18.1040  -14.6255 C   0  0  1  0  0  0  0  0  0  0  0  0
   25.5128  -18.0161  -15.1809 O   0  0  0  0  0  0  0  0  0  0  0  0
   27.2796  -19.4891  -14.8256 C   0  0  2  0  0  0  0  0  0  0  0  0
   27.2489  -19.9401  -16.1930 N   0  0  0  0  0  0  0  0  0  0  0  0
   26.4496  -20.4307  -14.0443 C   0  0  0  0  0  0  0  0  0  0  0  0
   25.5418  -21.1306  -14.6219 O   0  0  0  0  0  0  0  0  0  0  0  0
   26.5572  -20.6562  -12.6485 N   0  0  0  0  0  0  0  0  0  0  0  0
   25.6436  -21.5835  -11.9491 C   0  0  1  0  0  0  0  0  0  0  0  0
   26.2630  -22.0384  -10.6642 C   0  0  0  0  0  0  0  0  0  0  0  0
   26.4110  -20.9967   -9.6512 C   0  0  0  0  0  0  0  0  0  0  0  0
   25.3970  -20.0642   -9.4026 C   0  0  0  0  0  0  0  0  0  0  0  0
   25.7735  -19.2556   -8.4081 N   0  0  0  0  0  0  0  0  0  0  0  0
   26.9951  -19.6015   -7.9769 C   0  0  0  0  0  0  0  0  0  0  0  0
   27.8493  -19.1173   -7.0042 C   0  0  0  0  0  0  0  0  0  0  0  0
   29.0906  -19.6689   -6.7688 C   0  0  0  0  0  0  0  0  0  0  0  0
   29.4677  -20.7370   -7.5430 C   0  0  0  0  0  0  0  0  0  0  0  0
   28.6164  -21.2283   -8.5204 C   0  0  0  0  0  0  0  0  0  0  0  0
   27.3842  -20.6741   -8.7458 C   0  0  0  0  0  0  0  0  0  0  0  0
   24.3480  -20.9030  -11.8375 C   0  0  0  0  0  0  0  0  0  0  0  0
   23.2566  -21.5350  -11.6256 O   0  0  0  0  0  0  0  0  0  0  0  0
   24.2162  -19.5297  -11.9490 O   0  0  0  0  0  0  0  0  0  0  0  0
  2  1  1  1
  2  6  1  0
  3  2  1  0
  3  4  1  0
  4  5  2  0
  6  7  2  0
  8  4  1  0
 10  9  1  6
 10 12  1  0
 11 10  1  0
 12 13  1  6
 12 14  1  0
 13  6  1  0
 14 15  2  0
 14 16  1  0
 16 17  1  0
 17 28  1  0
 17 18  1  1
 19 18  1  0
 19 27  1  0
 20 19  2  0
 21 20  1  0
 21 22  1  0
 22 23  1  0
 22 27  2  0
 23 24  2  0
 24 25  1  0
 26 25  2  0
 27 26  1  0
 28 29  2  0
 28 30  1  0
M  END
$$$$
