DTW.pdb
     RDKit          3D

 30 31  0  0  1  0  0  0  0  0999 V2000
   35.6410  -10.8781  -17.0473 N   0  0  0  0  0  0  0  0  0  0  0  0
   34.5845  -10.9941  -18.0344 C   0  0  1  0  0  0  0  0  0  0  0  0
   34.3259  -12.4625  -18.3300 C   0  0  0  0  0  0  0  0  0  0  0  0
   35.3101  -13.0280  -19.2544 C   0  0  0  0  0  0  0  0  0  0  0  0
   36.2613  -12.3119  -19.6745 O   0  0  0  0  0  0  0  0  0  0  0  0
   33.3384  -10.3882  -17.4850 C   0  0  0  0  0  0  0  0  0  0  0  0
   33.0867  -10.6113  -16.2770 O   0  0  0  0  0  0  0  0  0  0  0  0
   35.1617  -14.3473  -19.6415 O   0  0  0  0  0  0  0  0  0  0  0  0
   32.6358   -7.0885  -16.5283 C   0  0  0  0  0  0  0  0  0  0  0  0
   31.5417   -7.4218  -17.5213 C   0  0  1  0  0  0  0  0  0  0  0  0
   31.9666   -6.9123  -18.7415 O   0  0  0  0  0  0  0  0  0  0  0  0
   31.3177   -8.8809  -17.6828 C   0  0  2  0  0  0  0  0  0  0  0  0
   32.4461   -9.6005  -18.2146 N   0  0  0  0  0  0  0  0  0  0  0  0
   30.1879   -9.1090  -18.6087 C   0  0  0  0  0  0  0  0  0  0  0  0
   30.3835   -9.1436  -19.8769 O   0  0  0  0  0  0  0  0  0  0  0  0
   28.8376   -9.3062  -18.2233 N   0  0  0  0  0  0  0  0  0  0  0  0
   27.7707   -9.4818  -19.2306 C   0  0  1  0  0  0  0  0  0  0  0  0
   27.4348  -10.9341  -19.3707 C   0  0  0  0  0  0  0  0  0  0  0  0
   27.0178  -11.5900  -18.1341 C   0  0  0  0  0  0  0  0  0  0  0  0
   25.9416  -11.1133  -17.3764 C   0  0  0  0  0  0  0  0  0  0  0  0
   25.7512  -11.9150  -16.3249 N   0  0  0  0  0  0  0  0  0  0  0  0
   26.6510  -12.9090  -16.3406 C   0  0  0  0  0  0  0  0  0  0  0  0
   26.9149  -13.9865  -15.5161 C   0  0  0  0  0  0  0  0  0  0  0  0
   27.9382  -14.8758  -15.7660 C   0  0  0  0  0  0  0  0  0  0  0  0
   28.7083  -14.6603  -16.8808 C   0  0  0  0  0  0  0  0  0  0  0  0
   28.4497  -13.5820  -17.7127 C   0  0  0  0  0  0  0  0  0  0  0  0
   27.4295  -12.7045  -17.4565 C   0  0  0  0  0  0  0  0  0  0  0  0
   26.6664   -8.5969  -18.8414 C   0  0  0  0  0  0  0  0  0  0  0  0
   25.6772   -8.3527  -19.6143 O   0  0  0  0  0  0  0  0  0  0  0  0
   26.6149   -7.9681  -17.6094 O   0  0  0  0  0  0  0  0  0  0  0  0
  2  1  1  1
  2  6  1  0
  3  2  1  0
  3  4  1  0
  4  5  2  0
  6  7  2  0
  8  4  1  0
 10  9  1  1
 10 12  1  0
 11 10  1  0
 12 13  1  6
 12 14  1  0
 13  6  1  0
 14 15  2  0
 14 16  1  0
 16 17  1  0
 17 28  1  0
 17 18  1  1
 19 18  1  0
 19 27  1  0
 20 19  2  0
 21 20  1  0
 21 22  1  0
 22 23  1  0
 22 27  2  0
 23 24  2  0
 24 25  1  0
 26 25  2  0
 27 26  1  0
 28 29  2  0
 28 30  1  0
M  END
$$$$
