DTW.pdb
     RDKit          3D

 30 31  0  0  1  0  0  0  0  0999 V2000
   24.0838  -19.1008  -18.3014 N   0  0  0  0  0  0  0  0  0  0  0  0
   24.6925  -19.9451  -17.2911 C   0  0  1  0  0  0  0  0  0  0  0  0
   26.2019  -19.9430  -17.4710 C   0  0  0  0  0  0  0  0  0  0  0  0
   26.6465  -20.9151  -18.4712 C   0  0  0  0  0  0  0  0  0  0  0  0
   25.7941  -21.5463  -19.1561 O   0  0  0  0  0  0  0  0  0  0  0  0
   24.3689  -19.3985  -15.9427 C   0  0  0  0  0  0  0  0  0  0  0  0
   24.2453  -18.1540  -15.8522 O   0  0  0  0  0  0  0  0  0  0  0  0
   28.0057  -21.1114  -18.6338 O   0  0  0  0  0  0  0  0  0  0  0  0
   21.3965  -19.2261  -14.0855 C   0  0  0  0  0  0  0  0  0  0  0  0
   22.3657  -19.9397  -13.1658 C   0  0  1  0  0  0  0  0  0  0  0  0
   22.1213  -21.2965  -13.3339 O   0  0  0  0  0  0  0  0  0  0  0  0
   23.7901  -19.6823  -13.4975 C   0  0  2  0  0  0  0  0  0  0  0  0
   24.1968  -20.1682  -14.7908 N   0  0  0  0  0  0  0  0  0  0  0  0
   24.6582  -20.3417  -12.4988 C   0  0  0  0  0  0  0  0  0  0  0  0
   25.1723  -21.4922  -12.7428 O   0  0  0  0  0  0  0  0  0  0  0  0
   25.0033  -19.8079  -11.2312 N   0  0  0  0  0  0  0  0  0  0  0  0
   25.8958  -20.5397  -10.3084 C   0  0  1  0  0  0  0  0  0  0  0  0
   27.0942  -19.7023   -9.9855 C   0  0  0  0  0  0  0  0  0  0  0  0
   27.9858  -20.2692   -8.9772 C   0  0  0  0  0  0  0  0  0  0  0  0
   28.8640  -21.3169   -9.2786 C   0  0  0  0  0  0  0  0  0  0  0  0
   29.5859  -21.6148   -8.1947 N   0  0  0  0  0  0  0  0  0  0  0  0
   29.2327  -20.8154   -7.1778 C   0  0  0  0  0  0  0  0  0  0  0  0
   29.6346  -20.6923   -5.8611 C   0  0  0  0  0  0  0  0  0  0  0  0
   29.0821  -19.7657   -5.0028 C   0  0  0  0  0  0  0  0  0  0  0  0
   28.0985  -18.9481   -5.4991 C   0  0  0  0  0  0  0  0  0  0  0  0
   27.6903  -19.0654   -6.8186 C   0  0  0  0  0  0  0  0  0  0  0  0
   28.2464  -19.9885   -7.6642 C   0  0  0  0  0  0  0  0  0  0  0  0
   25.0757  -20.9629   -9.1672 C   0  0  0  0  0  0  0  0  0  0  0  0
   23.9684  -20.3964   -8.8699 O   0  0  0  0  0  0  0  0  0  0  0  0
   25.4401  -22.0072   -8.3350 O   0  0  0  0  0  0  0  0  0  0  0  0
  2  1  1  6
  2  6  1  0
  3  2  1  0
  3  4  1  0
  4  5  2  0
  6  7  2  0
  8  4  1  0
 10  9  1  6
 10 12  1  0
 11 10  1  0
 12 13  1  6
 12 14  1  0
 13  6  1  0
 14 15  2  0
 14 16  1  0
 16 17  1  0
 17 28  1  0
 17 18  1  1
 19 18  1  0
 19 27  1  0
 20 19  2  0
 21 20  1  0
 21 22  1  0
 22 23  1  0
 22 27  2  0
 23 24  2  0
 24 25  1  0
 26 25  2  0
 27 26  1  0
 28 29  2  0
 28 30  1  0
M  END
$$$$
