DTW.pdb
     RDKit          3D

 30 31  0  0  1  0  0  0  0  0999 V2000
   22.7234  -16.3212  -21.3337 N   0  0  0  0  0  0  0  0  0  0  0  0
   21.8738  -15.3391  -20.6874 C   0  0  1  0  0  0  0  0  0  0  0  0
   21.0332  -16.0202  -19.6197 C   0  0  0  0  0  0  0  0  0  0  0  0
   20.0039  -16.8909  -20.1903 C   0  0  0  0  0  0  0  0  0  0  0  0
   19.9087  -17.0134  -21.4432 O   0  0  0  0  0  0  0  0  0  0  0  0
   22.7318  -14.3078  -20.0378 C   0  0  0  0  0  0  0  0  0  0  0  0
   23.8134  -14.7034  -19.5419 O   0  0  0  0  0  0  0  0  0  0  0  0
   19.1585  -17.5593  -19.3237 O   0  0  0  0  0  0  0  0  0  0  0  0
   24.4526  -11.4995  -21.6584 C   0  0  0  0  0  0  0  0  0  0  0  0
   23.6622  -10.9076  -20.5099 C   0  0  1  0  0  0  0  0  0  0  0  0
   22.4935  -10.4076  -21.0696 O   0  0  0  0  0  0  0  0  0  0  0  0
   23.2887  -11.9061  -19.4760 C   0  0  2  0  0  0  0  0  0  0  0  0
   22.4162  -12.9510  -19.9460 N   0  0  0  0  0  0  0  0  0  0  0  0
   22.5877  -11.2292  -18.3641 C   0  0  0  0  0  0  0  0  0  0  0  0
   21.3220  -11.3755  -18.2086 O   0  0  0  0  0  0  0  0  0  0  0  0
   23.1989  -10.3909  -17.3974 N   0  0  0  0  0  0  0  0  0  0  0  0
   22.4048   -9.7413  -16.3340 C   0  0  1  0  0  0  0  0  0  0  0  0
   23.2760   -9.4496  -15.1519 C   0  0  0  0  0  0  0  0  0  0  0  0
   22.7014   -8.5242  -14.1790 C   0  0  0  0  0  0  0  0  0  0  0  0
   22.2020   -8.9680  -12.9489 C   0  0  0  0  0  0  0  0  0  0  0  0
   21.7748   -7.9191  -12.2403 N   0  0  0  0  0  0  0  0  0  0  0  0
   21.9635   -6.7900  -12.9384 C   0  0  0  0  0  0  0  0  0  0  0  0
   21.7057   -5.4530  -12.7012 C   0  0  0  0  0  0  0  0  0  0  0  0
   21.9981   -4.4689  -13.6212 C   0  0  0  0  0  0  0  0  0  0  0  0
   22.5652   -4.8580  -14.8084 C   0  0  0  0  0  0  0  0  0  0  0  0
   22.8270   -6.1970  -15.0534 C   0  0  0  0  0  0  0  0  0  0  0  0
   22.5340   -7.1675  -14.1322 C   0  0  0  0  0  0  0  0  0  0  0  0
   21.7361   -8.5867  -16.9456 C   0  0  0  0  0  0  0  0  0  0  0  0
   22.2729   -7.8979  -17.8799 O   0  0  0  0  0  0  0  0  0  0  0  0
   20.4762   -8.1644  -16.5579 O   0  0  0  0  0  0  0  0  0  0  0  0
  2  1  1  1
  2  6  1  0
  3  2  1  0
  3  4  1  0
  4  5  2  0
  6  7  2  0
  8  4  1  0
 10  9  1  6
 10 12  1  0
 11 10  1  0
 12 13  1  6
 12 14  1  0
 13  6  1  0
 14 15  2  0
 14 16  1  0
 16 17  1  0
 17 28  1  0
 17 18  1  1
 19 18  1  0
 19 27  1  0
 20 19  2  0
 21 20  1  0
 21 22  1  0
 22 23  1  0
 22 27  2  0
 23 24  2  0
 24 25  1  0
 26 25  2  0
 27 26  1  0
 28 29  2  0
 28 30  1  0
M  END
$$$$
