DTW.pdb
     RDKit          3D

 30 31  0  0  1  0  0  0  0  0999 V2000
   27.8481  -19.7723  -16.3397 N   0  0  0  0  0  0  0  0  0  0  0  0
   27.9223  -18.5091  -15.6306 C   0  0  1  0  0  0  0  0  0  0  0  0
   27.5909  -17.3725  -16.5840 C   0  0  0  0  0  0  0  0  0  0  0  0
   28.4683  -17.3525  -17.7557 C   0  0  0  0  0  0  0  0  0  0  0  0
   28.2168  -18.1000  -18.7416 O   0  0  0  0  0  0  0  0  0  0  0  0
   26.9236  -18.5144  -14.5242 C   0  0  0  0  0  0  0  0  0  0  0  0
   26.2933  -17.4485  -14.3267 O   0  0  0  0  0  0  0  0  0  0  0  0
   29.5590  -16.5024  -17.7419 O   0  0  0  0  0  0  0  0  0  0  0  0
   23.7773  -20.1479  -14.5093 C   0  0  0  0  0  0  0  0  0  0  0  0
   24.4556  -20.6244  -13.2417 C   0  0  1  0  0  0  0  0  0  0  0  0
   25.0130  -21.8589  -13.5490 O   0  0  0  0  0  0  0  0  0  0  0  0
   25.5460  -19.7262  -12.7841 C   0  0  2  0  0  0  0  0  0  0  0  0
   26.6471  -19.6105  -13.7051 N   0  0  0  0  0  0  0  0  0  0  0  0
   26.1025  -20.2316  -11.5110 C   0  0  0  0  0  0  0  0  0  0  0  0
   27.2649  -20.7752  -11.4799 O   0  0  0  0  0  0  0  0  0  0  0  0
   25.4535  -20.1749  -10.2514 N   0  0  0  0  0  0  0  0  0  0  0  0
   26.0296  -20.8357   -9.0618 C   0  0  1  0  0  0  0  0  0  0  0  0
   27.0524  -19.9448   -8.4280 C   0  0  0  0  0  0  0  0  0  0  0  0
   27.2227  -20.1317   -6.9895 C   0  0  0  0  0  0  0  0  0  0  0  0
   26.3798  -20.9724   -6.2530 C   0  0  0  0  0  0  0  0  0  0  0  0
   26.7781  -20.9916   -4.9779 N   0  0  0  0  0  0  0  0  0  0  0  0
   27.8503  -20.2014   -4.8233 C   0  0  0  0  0  0  0  0  0  0  0  0
   28.6456  -19.8515   -3.7484 C   0  0  0  0  0  0  0  0  0  0  0  0
   29.7105  -18.9842   -3.8678 C   0  0  0  0  0  0  0  0  0  0  0  0
   29.9686  -18.4631   -5.1104 C   0  0  0  0  0  0  0  0  0  0  0  0
   29.1756  -18.8096   -6.1933 C   0  0  0  0  0  0  0  0  0  0  0  0
   28.1203  -19.6733   -6.0649 C   0  0  0  0  0  0  0  0  0  0  0  0
   24.9041  -21.2372   -8.2096 C   0  0  0  0  0  0  0  0  0  0  0  0
   23.7363  -20.7304   -8.3307 O   0  0  0  0  0  0  0  0  0  0  0  0
   25.0257  -22.1954   -7.2181 O   0  0  0  0  0  0  0  0  0  0  0  0
  2  1  1  6
  2  6  1  0
  3  2  1  0
  3  4  1  0
  4  5  2  0
  6  7  2  0
  8  4  1  0
 10  9  1  6
 10 12  1  0
 11 10  1  0
 12 13  1  6
 12 14  1  0
 13  6  1  0
 14 15  2  0
 14 16  1  0
 16 17  1  0
 17 28  1  0
 17 18  1  1
 19 18  1  0
 19 27  1  0
 20 19  2  0
 21 20  1  0
 21 22  1  0
 22 23  1  0
 22 27  2  0
 23 24  2  0
 24 25  1  0
 26 25  2  0
 27 26  1  0
 28 29  2  0
 28 30  1  0
M  END
$$$$
