ICQ.pdb
     RDKit          3D

 24 23  0  0  1  0  0  0  0  0999 V2000
    8.1301  -12.0037   19.0412 C   0  0  0  0  0  0  0  0  0  0  0  0
    7.4856  -13.3018   19.5239 C   0  0  0  0  0  0  0  0  0  0  0  0
    8.1957  -13.6576   20.8050 C   0  0  2  0  0  0  0  0  0  0  0  0
    9.6928  -13.6076   20.6655 C   0  0  0  0  0  0  0  0  0  0  0  0
    7.6616  -14.8388   21.5274 C   0  0  2  0  0  0  0  0  0  0  0  0
    6.2152  -14.8548   21.2489 N   0  0  0  0  0  0  0  0  0  0  0  0
    7.8604  -14.9441   22.9490 C   0  0  0  0  0  0  0  0  0  0  0  0
    8.1458  -13.8937   23.6026 O   0  0  0  0  0  0  0  0  0  0  0  0
    7.7705  -16.1227   23.7294 N   0  0  0  0  0  0  0  0  0  0  0  0
    8.4691  -16.2886   25.0112 C   0  0  1  0  0  0  0  0  0  0  0  0
    7.5662  -15.8976   26.1478 C   0  0  0  0  0  0  0  0  0  0  0  0
    5.8218  -16.1487   25.8631 S   0  0  0  0  0  0  0  0  0  0  0  0
    9.0527  -17.6330   25.1098 C   0  0  0  0  0  0  0  0  0  0  0  0
    8.4408  -18.5962   24.5177 O   0  0  0  0  0  0  0  0  0  0  0  0
   11.3620  -18.8141   21.3269 N   0  0  0  0  0  0  0  0  0  0  0  0
   12.6928  -18.7992   21.8591 C   0  0  0  0  0  0  0  0  0  0  0  0
   13.5657  -19.3024   21.1107 O   0  0  0  0  0  0  0  0  0  0  0  0
   12.9643  -18.2245   23.1931 C   0  0  0  0  0  0  0  0  0  0  0  0
   11.7752  -17.7194   23.9211 C   0  0  0  0  0  0  0  0  0  0  0  0
   11.4055  -18.5428   25.1094 C   0  0  2  0  0  0  0  0  0  0  0  0
   10.2352  -17.9949   25.7940 N   0  0  0  0  0  0  0  0  0  0  0  0
   12.5156  -18.7689   26.0677 C   0  0  0  0  0  0  0  0  0  0  0  0
   12.6465  -17.9675   27.0282 O   0  0  0  0  0  0  0  0  0  0  0  0
   13.4233  -19.8075   25.9785 O   0  0  0  0  0  0  0  0  0  0  0  0
  1  2  1  0
  3  4  1  6
  3  2  1  0
  3  5  1  0
  5  6  1  1
  7  5  1  0
  7  9  1  0
  8  7  2  0
 10  9  1  0
 10 11  1  1
 12 11  1  0
 13 10  1  0
 14 13  2  0
 16 17  2  0
 16 15  1  0
 18 16  1  0
 19 18  1  0
 20 19  1  6
 20 21  1  0
 21 13  1  0
 22 20  1  0
 23 22  2  0
 24 22  1  0
M  END
$$$$
