ICQ.pdb
     RDKit          3D

 24 23  0  0  1  0  0  0  0  0999 V2000
    7.8407  -11.6926   21.3875 C   0  0  0  0  0  0  0  0  0  0  0  0
    7.3629  -13.1269   21.6062 C   0  0  0  0  0  0  0  0  0  0  0  0
    8.1702  -13.9747   20.6567 C   0  0  2  0  0  0  0  0  0  0  0  0
    8.1157  -13.4648   19.2425 C   0  0  0  0  0  0  0  0  0  0  0  0
    8.0097  -15.4418   20.8123 C   0  0  2  0  0  0  0  0  0  0  0  0
    6.6782  -15.7564   20.2662 N   0  0  0  0  0  0  0  0  0  0  0  0
    8.1229  -16.0277   22.1221 C   0  0  0  0  0  0  0  0  0  0  0  0
    7.0598  -16.3276   22.7481 O   0  0  0  0  0  0  0  0  0  0  0  0
    9.3228  -16.3190   22.8163 N   0  0  0  0  0  0  0  0  0  0  0  0
    9.3463  -16.8286   24.1940 C   0  0  1  0  0  0  0  0  0  0  0  0
   10.0566  -18.1526   24.2446 C   0  0  0  0  0  0  0  0  0  0  0  0
   10.4888  -18.7294   25.8778 S   0  0  0  0  0  0  0  0  0  0  0  0
    9.8632  -15.8059   25.1130 C   0  0  0  0  0  0  0  0  0  0  0  0
   10.9568  -15.2109   24.7927 O   0  0  0  0  0  0  0  0  0  0  0  0
    6.6865  -12.2166   25.5879 N   0  0  0  0  0  0  0  0  0  0  0  0
    6.8633  -13.4542   26.2889 C   0  0  0  0  0  0  0  0  0  0  0  0
    6.3175  -14.4479   25.7505 O   0  0  0  0  0  0  0  0  0  0  0  0
    7.6374  -13.5037   27.5467 C   0  0  0  0  0  0  0  0  0  0  0  0
    9.0854  -13.2129   27.4133 C   0  0  0  0  0  0  0  0  0  0  0  0
    9.9267  -14.4311   27.2270 C   0  0  2  0  0  0  0  0  0  0  0  0
    9.2822  -15.3922   26.3331 N   0  0  0  0  0  0  0  0  0  0  0  0
   10.3427  -15.0877   28.4910 C   0  0  0  0  0  0  0  0  0  0  0  0
   10.9229  -14.3902   29.3622 O   0  0  0  0  0  0  0  0  0  0  0  0
   10.1351  -16.4231   28.7810 O   0  0  0  0  0  0  0  0  0  0  0  0
  1  2  1  0
  3  4  1  6
  3  2  1  0
  3  5  1  0
  5  6  1  1
  7  5  1  0
  7  9  1  0
  8  7  2  0
 10  9  1  0
 10 11  1  6
 12 11  1  0
 13 10  1  0
 14 13  2  0
 16 17  2  0
 16 15  1  0
 18 16  1  0
 19 18  1  0
 20 19  1  1
 20 21  1  0
 21 13  1  0
 22 20  1  0
 23 22  2  0
 24 22  1  0
M  END
$$$$
