ICQ.pdb
     RDKit          3D

 24 23  0  0  1  0  0  0  0  0999 V2000
    8.3648  -11.7761   18.7411 C   0  0  0  0  0  0  0  0  0  0  0  0
    7.6158  -12.5764   19.8049 C   0  0  0  0  0  0  0  0  0  0  0  0
    7.5822  -13.9959   19.2986 C   0  0  2  0  0  0  0  0  0  0  0  0
    6.9112  -14.1120   17.9572 C   0  0  0  0  0  0  0  0  0  0  0  0
    7.1948  -15.0236   20.2967 C   0  0  2  0  0  0  0  0  0  0  0  0
    5.7675  -14.7891   20.5756 N   0  0  0  0  0  0  0  0  0  0  0  0
    7.9050  -15.0945   21.5465 C   0  0  0  0  0  0  0  0  0  0  0  0
    7.3916  -14.5453   22.5697 O   0  0  0  0  0  0  0  0  0  0  0  0
    9.1512  -15.7278   21.7752 N   0  0  0  0  0  0  0  0  0  0  0  0
    9.8244  -15.7207   23.0809 C   0  0  1  0  0  0  0  0  0  0  0  0
    8.8822  -16.1942   24.1524 C   0  0  0  0  0  0  0  0  0  0  0  0
    8.5053  -15.0002   25.4249 S   0  0  0  0  0  0  0  0  0  0  0  0
   11.1010  -16.4435   23.0064 C   0  0  0  0  0  0  0  0  0  0  0  0
   11.4154  -16.9894   21.8858 O   0  0  0  0  0  0  0  0  0  0  0  0
   15.1486  -14.2333   20.2150 N   0  0  0  0  0  0  0  0  0  0  0  0
   14.1699  -15.2603   20.4196 C   0  0  0  0  0  0  0  0  0  0  0  0
   13.2128  -15.2459   19.6079 O   0  0  0  0  0  0  0  0  0  0  0  0
   14.3215  -16.2375   21.5178 C   0  0  0  0  0  0  0  0  0  0  0  0
   13.9911  -15.7287   22.8709 C   0  0  0  0  0  0  0  0  0  0  0  0
   13.4732  -16.7786   23.7962 C   0  0  2  0  0  0  0  0  0  0  0  0
   12.0427  -16.6089   24.0473 N   0  0  0  0  0  0  0  0  0  0  0  0
   14.2201  -16.8925   25.0733 C   0  0  0  0  0  0  0  0  0  0  0  0
   15.4450  -17.1737   25.0245 O   0  0  0  0  0  0  0  0  0  0  0  0
   13.6596  -16.7092   26.3234 O   0  0  0  0  0  0  0  0  0  0  0  0
  1  2  1  0
  3  4  1  6
  3  2  1  0
  3  5  1  0
  5  6  1  1
  7  5  1  0
  7  9  1  0
  8  7  2  0
 10  9  1  0
 10 11  1  1
 12 11  1  0
 13 10  1  0
 14 13  2  0
 16 17  2  0
 16 15  1  0
 18 16  1  0
 19 18  1  0
 20 19  1  1
 20 21  1  0
 21 13  1  0
 22 20  1  0
 23 22  2  0
 24 22  1  0
M  END
$$$$
