ICQ.pdb
     RDKit          3D

 24 23  0  0  1  0  0  0  0  0999 V2000
    6.9007  -16.9568   19.5449 C   0  0  0  0  0  0  0  0  0  0  0  0
    7.8260  -15.9751   20.2614 C   0  0  0  0  0  0  0  0  0  0  0  0
    7.0583  -14.6808   20.3484 C   0  0  2  0  0  0  0  0  0  0  0  0
    6.4670  -14.2733   19.0265 C   0  0  0  0  0  0  0  0  0  0  0  0
    7.7182  -13.5942   21.1141 C   0  0  2  0  0  0  0  0  0  0  0  0
    8.8983  -13.2088   20.3210 N   0  0  0  0  0  0  0  0  0  0  0  0
    8.1322  -13.8395   22.4705 C   0  0  0  0  0  0  0  0  0  0  0  0
    9.3586  -14.0755   22.6988 O   0  0  0  0  0  0  0  0  0  0  0  0
    7.3025  -13.8475   23.6185 N   0  0  0  0  0  0  0  0  0  0  0  0
    7.8021  -14.1590   24.9645 C   0  0  1  0  0  0  0  0  0  0  0  0
    6.7906  -13.7524   25.9997 C   0  0  0  0  0  0  0  0  0  0  0  0
    6.3646  -12.0188   26.0165 S   0  0  0  0  0  0  0  0  0  0  0  0
    8.2457  -15.5573   25.0387 C   0  0  0  0  0  0  0  0  0  0  0  0
    7.3760  -16.4745   24.8043 O   0  0  0  0  0  0  0  0  0  0  0  0
   13.4229  -17.1339   23.5771 N   0  0  0  0  0  0  0  0  0  0  0  0
   12.2428  -16.8330   22.8212 C   0  0  0  0  0  0  0  0  0  0  0  0
   12.4495  -16.2394   21.7349 O   0  0  0  0  0  0  0  0  0  0  0  0
   10.9072  -17.2132   23.3265 C   0  0  0  0  0  0  0  0  0  0  0  0
   10.8987  -17.9204   24.6299 C   0  0  0  0  0  0  0  0  0  0  0  0
    9.8492  -17.4306   25.5707 C   0  0  2  0  0  0  0  0  0  0  0  0
    9.5466  -16.0182   25.3430 N   0  0  0  0  0  0  0  0  0  0  0  0
   10.1461  -17.6792   27.0032 C   0  0  0  0  0  0  0  0  0  0  0  0
   10.4046  -18.8563   27.3629 O   0  0  0  0  0  0  0  0  0  0  0  0
   10.1593  -16.6995   27.9781 O   0  0  0  0  0  0  0  0  0  0  0  0
  1  2  1  0
  3  4  1  6
  3  2  1  0
  3  5  1  0
  5  6  1  6
  7  5  1  0
  7  9  1  0
  8  7  2  0
 10  9  1  0
 10 11  1  1
 12 11  1  0
 13 10  1  0
 14 13  2  0
 16 17  2  0
 16 15  1  0
 18 16  1  0
 19 18  1  0
 20 19  1  6
 20 21  1  0
 21 13  1  0
 22 20  1  0
 23 22  2  0
 24 22  1  0
M  END
$$$$
