ICQ.pdb
     RDKit          3D

 24 23  0  0  1  0  0  0  0  0999 V2000
    7.7362  -11.9424   19.2984 C   0  0  0  0  0  0  0  0  0  0  0  0
    7.5138  -13.4524   19.2381 C   0  0  0  0  0  0  0  0  0  0  0  0
    7.6928  -13.9475   20.6506 C   0  0  2  0  0  0  0  0  0  0  0  0
    8.9643  -13.4455   21.2788 C   0  0  0  0  0  0  0  0  0  0  0  0
    7.3985  -15.3857   20.8680 C   0  0  2  0  0  0  0  0  0  0  0  0
    6.1013  -15.6296   20.2140 N   0  0  0  0  0  0  0  0  0  0  0  0
    7.3427  -15.8977   22.2120 C   0  0  0  0  0  0  0  0  0  0  0  0
    6.4836  -15.4139   23.0119 O   0  0  0  0  0  0  0  0  0  0  0  0
    8.1616  -16.9133   22.7637 N   0  0  0  0  0  0  0  0  0  0  0  0
    8.2168  -17.2026   24.2030 C   0  0  1  0  0  0  0  0  0  0  0  0
    7.4982  -18.4891   24.5008 C   0  0  0  0  0  0  0  0  0  0  0  0
    5.7380  -18.4711   24.2033 S   0  0  0  0  0  0  0  0  0  0  0  0
    9.6008  -17.1320   24.6902 C   0  0  0  0  0  0  0  0  0  0  0  0
   10.3595  -18.1497   24.4875 O   0  0  0  0  0  0  0  0  0  0  0  0
    9.5299  -13.1073   29.1954 N   0  0  0  0  0  0  0  0  0  0  0  0
    8.8392  -13.1961   27.9426 C   0  0  0  0  0  0  0  0  0  0  0  0
    8.1715  -12.1789   27.6353 O   0  0  0  0  0  0  0  0  0  0  0  0
    8.9373  -14.4152   27.1131 C   0  0  0  0  0  0  0  0  0  0  0  0
    9.7272  -15.5230   27.7028 C   0  0  0  0  0  0  0  0  0  0  0  0
   10.6846  -16.1518   26.7464 C   0  0  2  0  0  0  0  0  0  0  0  0
   10.2056  -16.0497   25.3685 N   0  0  0  0  0  0  0  0  0  0  0  0
   11.0459  -17.5534   27.0736 C   0  0  0  0  0  0  0  0  0  0  0  0
   12.2641  -17.8425   27.1932 O   0  0  0  0  0  0  0  0  0  0  0  0
   10.1300  -18.5719   27.2582 O   0  0  0  0  0  0  0  0  0  0  0  0
  1  2  1  0
  3  4  1  6
  3  2  1  0
  3  5  1  0
  5  6  1  1
  7  5  1  0
  7  9  1  0
  8  7  2  0
 10  9  1  0
 10 11  1  6
 12 11  1  0
 13 10  1  0
 14 13  2  0
 16 17  2  0
 16 15  1  0
 18 16  1  0
 19 18  1  0
 20 19  1  1
 20 21  1  0
 21 13  1  0
 22 20  1  0
 23 22  2  0
 24 22  1  0
M  END
$$$$
