ICQ.pdb
     RDKit          3D

 24 23  0  0  1  0  0  0  0  0999 V2000
    7.0690  -11.8990   27.6821 C   0  0  0  0  0  0  0  0  0  0  0  0
    6.2163  -12.9350   26.9521 C   0  0  0  0  0  0  0  0  0  0  0  0
    7.1565  -13.6495   26.0152 C   0  0  2  0  0  0  0  0  0  0  0  0
    8.0473  -12.7007   25.2607 C   0  0  0  0  0  0  0  0  0  0  0  0
    6.5519  -14.7367   25.2060 C   0  0  2  0  0  0  0  0  0  0  0  0
    5.9639  -15.6755   26.1771 N   0  0  0  0  0  0  0  0  0  0  0  0
    7.3796  -15.4765   24.2899 C   0  0  0  0  0  0  0  0  0  0  0  0
    7.9263  -16.5486   24.6943 O   0  0  0  0  0  0  0  0  0  0  0  0
    7.6635  -15.1362   22.9446 N   0  0  0  0  0  0  0  0  0  0  0  0
    8.5435  -15.9393   22.0849 C   0  0  1  0  0  0  0  0  0  0  0  0
    8.4049  -15.5055   20.6522 C   0  0  0  0  0  0  0  0  0  0  0  0
    6.7402  -15.5085   20.0074 S   0  0  0  0  0  0  0  0  0  0  0  0
    9.9158  -15.9389   22.6087 C   0  0  0  0  0  0  0  0  0  0  0  0
   10.4944  -14.8024   22.7707 O   0  0  0  0  0  0  0  0  0  0  0  0
   10.9582  -18.9345   27.9110 N   0  0  0  0  0  0  0  0  0  0  0  0
   10.7910  -18.8227   26.4918 C   0  0  0  0  0  0  0  0  0  0  0  0
   10.2453  -19.8122   25.9456 O   0  0  0  0  0  0  0  0  0  0  0  0
   11.2442  -17.6138   25.7727 C   0  0  0  0  0  0  0  0  0  0  0  0
   12.2267  -17.8512   24.6877 C   0  0  0  0  0  0  0  0  0  0  0  0
   12.0411  -16.9598   23.5054 C   0  0  2  0  0  0  0  0  0  0  0  0
   10.6873  -17.0686   22.9635 N   0  0  0  0  0  0  0  0  0  0  0  0
   13.0513  -17.1443   22.4343 C   0  0  0  0  0  0  0  0  0  0  0  0
   14.2629  -16.9650   22.7203 O   0  0  0  0  0  0  0  0  0  0  0  0
   12.7518  -17.5030   21.1335 O   0  0  0  0  0  0  0  0  0  0  0  0
  1  2  1  0
  3  4  1  6
  3  2  1  0
  3  5  1  0
  5  6  1  1
  7  5  1  0
  7  9  1  0
  8  7  2  0
 10  9  1  0
 10 11  1  6
 12 11  1  0
 13 10  1  0
 14 13  2  0
 16 17  2  0
 16 15  1  0
 18 16  1  0
 19 18  1  0
 20 19  1  1
 20 21  1  0
 21 13  1  0
 22 20  1  0
 23 22  2  0
 24 22  1  0
M  END
$$$$
