ICQ.pdb
     RDKit          3D

 24 23  0  0  1  0  0  0  0  0999 V2000
    6.8153  -12.4575   20.9253 C   0  0  0  0  0  0  0  0  0  0  0  0
    8.3147  -12.7477   20.9508 C   0  0  0  0  0  0  0  0  0  0  0  0
    8.4762  -14.1129   20.3326 C   0  0  2  0  0  0  0  0  0  0  0  0
    7.6302  -14.2901   19.1013 C   0  0  0  0  0  0  0  0  0  0  0  0
    8.4655  -15.2526   21.2831 C   0  0  2  0  0  0  0  0  0  0  0  0
    7.0505  -15.6353   21.4293 N   0  0  0  0  0  0  0  0  0  0  0  0
    9.0366  -15.0823   22.5932 C   0  0  0  0  0  0  0  0  0  0  0  0
   10.2969  -14.9685   22.6972 O   0  0  0  0  0  0  0  0  0  0  0  0
    8.3321  -15.0238   23.8206 N   0  0  0  0  0  0  0  0  0  0  0  0
    9.0026  -14.9185   25.1236 C   0  0  1  0  0  0  0  0  0  0  0  0
    8.0890  -14.2691   26.1255 C   0  0  0  0  0  0  0  0  0  0  0  0
    8.8362  -13.8640   27.6954 S   0  0  0  0  0  0  0  0  0  0  0  0
    9.5503  -16.2200   25.5281 C   0  0  0  0  0  0  0  0  0  0  0  0
    9.3621  -17.2193   24.7416 O   0  0  0  0  0  0  0  0  0  0  0  0
   13.8994  -20.8015   24.9482 N   0  0  0  0  0  0  0  0  0  0  0  0
   12.9938  -19.7684   24.5396 C   0  0  0  0  0  0  0  0  0  0  0  0
   13.2740  -19.2246   23.4437 O   0  0  0  0  0  0  0  0  0  0  0  0
   11.8335  -19.4076   25.3807 C   0  0  0  0  0  0  0  0  0  0  0  0
   11.9851  -18.1624   26.1716 C   0  0  0  0  0  0  0  0  0  0  0  0
   10.7951  -17.8370   27.0111 C   0  0  2  0  0  0  0  0  0  0  0  0
   10.2769  -16.5039   26.7066 N   0  0  0  0  0  0  0  0  0  0  0  0
   11.0131  -17.9943   28.4704 C   0  0  0  0  0  0  0  0  0  0  0  0
   11.1431  -16.9565   29.1690 O   0  0  0  0  0  0  0  0  0  0  0  0
   11.0833  -19.2115   29.1215 O   0  0  0  0  0  0  0  0  0  0  0  0
  1  2  1  0
  3  4  1  6
  3  2  1  0
  3  5  1  0
  5  6  1  1
  7  5  1  0
  7  9  1  0
  8  7  2  0
 10  9  1  0
 10 11  1  1
 12 11  1  0
 13 10  1  0
 14 13  2  0
 16 17  2  0
 16 15  1  0
 18 16  1  0
 19 18  1  0
 20 19  1  6
 20 21  1  0
 21 13  1  0
 22 20  1  0
 23 22  2  0
 24 22  1  0
M  END
$$$$
