ICQ.pdb
     RDKit          3D

 24 23  0  0  1  0  0  0  0  0999 V2000
    6.9635  -16.5637   17.7689 C   0  0  0  0  0  0  0  0  0  0  0  0
    6.7668  -15.1357   18.2743 C   0  0  0  0  0  0  0  0  0  0  0  0
    7.2817  -15.1302   19.6910 C   0  0  2  0  0  0  0  0  0  0  0  0
    6.8734  -16.3597   20.4558 C   0  0  0  0  0  0  0  0  0  0  0  0
    7.1351  -13.8467   20.4216 C   0  0  2  0  0  0  0  0  0  0  0  0
    7.7239  -12.8203   19.5443 N   0  0  0  0  0  0  0  0  0  0  0  0
    7.7066  -13.7154   21.7360 C   0  0  0  0  0  0  0  0  0  0  0  0
    8.9708  -13.7205   21.8528 O   0  0  0  0  0  0  0  0  0  0  0  0
    6.9985  -13.5753   22.9547 N   0  0  0  0  0  0  0  0  0  0  0  0
    7.6609  -13.5431   24.2656 C   0  0  1  0  0  0  0  0  0  0  0  0
    6.7513  -12.9255   25.2909 C   0  0  0  0  0  0  0  0  0  0  0  0
    7.2860  -13.0855   26.9866 S   0  0  0  0  0  0  0  0  0  0  0  0
    8.1829  -14.8717   24.6119 C   0  0  0  0  0  0  0  0  0  0  0  0
    7.3835  -15.8736   24.5125 O   0  0  0  0  0  0  0  0  0  0  0  0
   12.8320  -20.2563   23.7691 N   0  0  0  0  0  0  0  0  0  0  0  0
   12.6037  -18.8504   23.9291 C   0  0  0  0  0  0  0  0  0  0  0  0
   13.3879  -18.1122   23.2847 O   0  0  0  0  0  0  0  0  0  0  0  0
   11.5151  -18.3580   24.7987 C   0  0  0  0  0  0  0  0  0  0  0  0
   10.9886  -17.0141   24.4583 C   0  0  0  0  0  0  0  0  0  0  0  0
    9.9118  -16.5418   25.3770 C   0  0  2  0  0  0  0  0  0  0  0  0
    9.4910  -15.1802   25.0491 N   0  0  0  0  0  0  0  0  0  0  0  0
   10.2429  -16.6556   26.8189 C   0  0  0  0  0  0  0  0  0  0  0  0
   10.5264  -17.7919   27.2775 O   0  0  0  0  0  0  0  0  0  0  0  0
   10.2624  -15.5915   27.7008 O   0  0  0  0  0  0  0  0  0  0  0  0
  1  2  1  0
  3  4  1  1
  3  2  1  0
  3  5  1  0
  5  6  1  6
  7  5  1  0
  7  9  1  0
  8  7  2  0
 10  9  1  0
 10 11  1  1
 12 11  1  0
 13 10  1  0
 14 13  2  0
 16 17  2  0
 16 15  1  0
 18 16  1  0
 19 18  1  0
 20 19  1  6
 20 21  1  0
 21 13  1  0
 22 20  1  0
 23 22  2  0
 24 22  1  0
M  END
$$$$
