ICQ.pdb
     RDKit          3D

 24 23  0  0  1  0  0  0  0  0999 V2000
    6.4546  -11.5608   27.5753 C   0  0  0  0  0  0  0  0  0  0  0  0
    5.6826  -12.6079   26.7748 C   0  0  0  0  0  0  0  0  0  0  0  0
    6.7174  -13.3452   25.9638 C   0  0  2  0  0  0  0  0  0  0  0  0
    7.6809  -12.4148   25.2788 C   0  0  0  0  0  0  0  0  0  0  0  0
    6.2032  -14.4589   25.1285 C   0  0  2  0  0  0  0  0  0  0  0  0
    5.5584  -15.3944   26.0661 N   0  0  0  0  0  0  0  0  0  0  0  0
    7.1177  -15.1950   24.2958 C   0  0  0  0  0  0  0  0  0  0  0  0
    7.7851  -16.1422   24.8149 O   0  0  0  0  0  0  0  0  0  0  0  0
    7.3669  -14.9787   22.9183 N   0  0  0  0  0  0  0  0  0  0  0  0
    8.3437  -15.7617   22.1495 C   0  0  1  0  0  0  0  0  0  0  0  0
    8.3297  -15.3358   20.7078 C   0  0  0  0  0  0  0  0  0  0  0  0
    9.5645  -16.1007   19.6699 S   0  0  0  0  0  0  0  0  0  0  0  0
    9.6602  -15.7250   22.7999 C   0  0  0  0  0  0  0  0  0  0  0  0
   10.1477  -14.5739   23.1000 O   0  0  0  0  0  0  0  0  0  0  0  0
   11.8570  -16.9930   28.0521 N   0  0  0  0  0  0  0  0  0  0  0  0
   11.3335  -18.0750   27.2713 C   0  0  0  0  0  0  0  0  0  0  0  0
   10.9516  -19.0686   27.9362 O   0  0  0  0  0  0  0  0  0  0  0  0
   11.2703  -17.9792   25.7980 C   0  0  0  0  0  0  0  0  0  0  0  0
   11.7303  -16.6913   25.2248 C   0  0  0  0  0  0  0  0  0  0  0  0
   11.7963  -16.6881   23.7341 C   0  0  2  0  0  0  0  0  0  0  0  0
   10.4674  -16.8336   23.1416 N   0  0  0  0  0  0  0  0  0  0  0  0
   12.7381  -17.6810   23.1603 C   0  0  0  0  0  0  0  0  0  0  0  0
   13.9511  -17.6087   23.4846 O   0  0  0  0  0  0  0  0  0  0  0  0
   12.3726  -18.6885   22.2875 O   0  0  0  0  0  0  0  0  0  0  0  0
  1  2  1  0
  3  4  1  6
  3  2  1  0
  3  5  1  0
  5  6  1  1
  7  5  1  0
  7  9  1  0
  8  7  2  0
 10  9  1  0
 10 11  1  6
 12 11  1  0
 13 10  1  0
 14 13  2  0
 16 17  2  0
 16 15  1  0
 18 16  1  0
 19 18  1  0
 20 19  1  1
 20 21  1  0
 21 13  1  0
 22 20  1  0
 23 22  2  0
 24 22  1  0
M  END
$$$$
