ICQ.pdb
     RDKit          3D

 24 23  0  0  1  0  0  0  0  0999 V2000
    8.4414  -12.2523   27.1370 C   0  0  0  0  0  0  0  0  0  0  0  0
    7.9541  -13.6576   26.7892 C   0  0  0  0  0  0  0  0  0  0  0  0
    6.8408  -13.4674   25.7908 C   0  0  2  0  0  0  0  0  0  0  0  0
    5.7376  -12.5922   26.3198 C   0  0  0  0  0  0  0  0  0  0  0  0
    6.3979  -14.6943   25.0830 C   0  0  2  0  0  0  0  0  0  0  0  0
    5.9318  -15.6141   26.1350 N   0  0  0  0  0  0  0  0  0  0  0  0
    7.3280  -15.3933   24.2359 C   0  0  0  0  0  0  0  0  0  0  0  0
    7.9625  -16.3828   24.7158 O   0  0  0  0  0  0  0  0  0  0  0  0
    7.6269  -15.0960   22.8836 N   0  0  0  0  0  0  0  0  0  0  0  0
    8.6818  -15.7843   22.1275 C   0  0  1  0  0  0  0  0  0  0  0  0
    8.6867  -15.3141   20.6995 C   0  0  0  0  0  0  0  0  0  0  0  0
    9.7799  -16.2028   19.6030 S   0  0  0  0  0  0  0  0  0  0  0  0
    9.9697  -15.6775   22.8257 C   0  0  0  0  0  0  0  0  0  0  0  0
   10.0888  -14.7677   23.7261 O   0  0  0  0  0  0  0  0  0  0  0  0
    9.4984  -18.5331   27.0893 N   0  0  0  0  0  0  0  0  0  0  0  0
   10.9293  -18.4829   27.0218 C   0  0  0  0  0  0  0  0  0  0  0  0
   11.5056  -18.3632   28.1304 O   0  0  0  0  0  0  0  0  0  0  0  0
   11.6257  -18.5686   25.7213 C   0  0  0  0  0  0  0  0  0  0  0  0
   10.9362  -17.9080   24.5867 C   0  0  0  0  0  0  0  0  0  0  0  0
   11.8466  -17.1090   23.7152 C   0  0  2  0  0  0  0  0  0  0  0  0
   11.1152  -16.4785   22.6171 N   0  0  0  0  0  0  0  0  0  0  0  0
   13.0187  -17.8602   23.2018 C   0  0  0  0  0  0  0  0  0  0  0  0
   12.8156  -18.8022   22.3935 O   0  0  0  0  0  0  0  0  0  0  0  0
   14.3292  -17.5948   23.5519 O   0  0  0  0  0  0  0  0  0  0  0  0
  1  2  1  0
  3  4  1  1
  3  2  1  0
  3  5  1  0
  5  6  1  1
  7  5  1  0
  7  9  1  0
  8  7  2  0
 10  9  1  0
 10 11  1  6
 12 11  1  0
 13 10  1  0
 14 13  2  0
 16 17  2  0
 16 15  1  0
 18 16  1  0
 19 18  1  0
 20 19  1  6
 20 21  1  0
 21 13  1  0
 22 20  1  0
 23 22  2  0
 24 22  1  0
M  END
$$$$
