ICQ.pdb
     RDKit          3D

 24 23  0  0  1  0  0  0  0  0999 V2000
    6.9941  -11.9006   18.5513 C   0  0  0  0  0  0  0  0  0  0  0  0
    6.7747  -13.3446   18.9984 C   0  0  0  0  0  0  0  0  0  0  0  0
    7.7405  -13.5710   20.1334 C   0  0  2  0  0  0  0  0  0  0  0  0
    9.1197  -13.0545   19.8264 C   0  0  0  0  0  0  0  0  0  0  0  0
    7.6878  -14.9144   20.7618 C   0  0  2  0  0  0  0  0  0  0  0  0
    6.2567  -15.2137   20.9414 N   0  0  0  0  0  0  0  0  0  0  0  0
    8.3670  -15.1345   22.0115 C   0  0  0  0  0  0  0  0  0  0  0  0
    7.8998  -14.5939   23.0610 O   0  0  0  0  0  0  0  0  0  0  0  0
    9.5345  -15.9108   22.2130 N   0  0  0  0  0  0  0  0  0  0  0  0
   10.1989  -16.0325   23.5177 C   0  0  1  0  0  0  0  0  0  0  0  0
    9.2458  -16.5970   24.5339 C   0  0  0  0  0  0  0  0  0  0  0  0
    9.9824  -17.0996   26.0805 S   0  0  0  0  0  0  0  0  0  0  0  0
   11.4704  -16.7556   23.3831 C   0  0  0  0  0  0  0  0  0  0  0  0
   11.4273  -17.9684   22.9588 O   0  0  0  0  0  0  0  0  0  0  0  0
   15.8315  -15.8796   19.6218 N   0  0  0  0  0  0  0  0  0  0  0  0
   15.1854  -14.8926   20.4358 C   0  0  0  0  0  0  0  0  0  0  0  0
   15.1268  -13.7463   19.9280 O   0  0  0  0  0  0  0  0  0  0  0  0
   14.6465  -15.2477   21.7652 C   0  0  0  0  0  0  0  0  0  0  0  0
   14.5114  -16.7008   22.0284 C   0  0  0  0  0  0  0  0  0  0  0  0
   13.9793  -17.0172   23.3861 C   0  0  2  0  0  0  0  0  0  0  0  0
   12.7618  -16.2591   23.6712 N   0  0  0  0  0  0  0  0  0  0  0  0
   14.9656  -16.8576   24.4833 C   0  0  0  0  0  0  0  0  0  0  0  0
   16.0755  -17.4394   24.3763 O   0  0  0  0  0  0  0  0  0  0  0  0
   14.7485  -16.1078   25.6239 O   0  0  0  0  0  0  0  0  0  0  0  0
  1  2  1  0
  3  4  1  6
  3  2  1  0
  3  5  1  0
  5  6  1  1
  7  5  1  0
  7  9  1  0
  8  7  2  0
 10  9  1  0
 10 11  1  1
 12 11  1  0
 13 10  1  0
 14 13  2  0
 16 17  2  0
 16 15  1  0
 18 16  1  0
 19 18  1  0
 20 19  1  6
 20 21  1  0
 21 13  1  0
 22 20  1  0
 23 22  2  0
 24 22  1  0
M  END
$$$$
