LKV.pdb
     RDKit          3D

 25 24  0  0  1  0  0  0  0  0999 V2000
   28.1291  -18.8833  -14.3926 C   0  0  0  0  0  0  0  0  0  0  0  0
   27.8204  -19.3192  -15.8049 C   0  0  2  0  0  0  0  0  0  0  0  0
   28.0581  -18.1748  -16.7508 C   0  0  0  0  0  0  0  0  0  0  0  0
   26.4296  -19.8470  -15.9626 C   0  0  0  0  0  0  0  0  0  0  0  0
   26.0941  -20.9638  -15.0340 C   0  0  2  0  0  0  0  0  0  0  0  0
   26.8681  -22.1522  -15.2568 N   0  0  0  0  0  0  0  0  0  0  0  0
   24.6249  -21.2526  -15.2015 C   0  0  0  0  0  0  0  0  0  0  0  0
   24.3088  -21.9452  -16.1739 O   0  0  0  0  0  0  0  0  0  0  0  0
   23.6807  -20.7598  -14.3015 N   0  0  0  0  0  0  0  0  0  0  0  0
   22.2910  -21.0566  -14.2431 C   0  0  1  0  0  0  0  0  0  0  0  0
   21.7446  -21.2250  -12.8127 C   0  0  0  0  0  0  0  0  0  0  0  0
   20.3056  -21.6706  -12.8546 C   0  0  0  0  0  0  0  0  0  0  0  0
   19.7832  -21.8015  -11.4367 C   0  0  0  0  0  0  0  0  0  0  0  0
   18.3499  -22.2270  -11.3786 C   0  0  0  0  0  0  0  0  0  0  0  0
   17.9685  -22.2756   -9.9581 N   0  0  0  0  0  0  0  0  0  0  0  0
   21.4416  -20.1250  -14.9612 C   0  0  0  0  0  0  0  0  0  0  0  0
   21.4956  -18.8657  -14.7319 O   0  0  0  0  0  0  0  0  0  0  0  0
   19.5391  -20.8968  -18.7586 C   0  0  0  0  0  0  0  0  0  0  0  0
   19.9218  -19.5834  -18.1635 C   0  0  2  0  0  0  0  0  0  0  0  0
   21.3493  -19.2340  -18.4728 C   0  0  0  0  0  0  0  0  0  0  0  0
   19.7292  -19.5089  -16.6717 C   0  0  2  0  0  0  0  0  0  0  0  0
   20.4907  -20.5081  -15.9637 N   0  0  0  0  0  0  0  0  0  0  0  0
   18.3259  -19.5899  -16.2621 C   0  0  0  0  0  0  0  0  0  0  0  0
   17.4735  -18.5439  -16.5602 O   0  0  0  0  0  0  0  0  0  0  0  0
   17.8614  -20.5795  -15.6457 O   0  0  0  0  0  0  0  0  0  0  0  0
  2  1  1  1
  3  2  1  0
  4  2  1  0
  4  5  1  0
  5  7  1  0
  5  6  1  6
  7  8  2  0
  9 10  1  0
  9  7  1  0
 11 12  1  0
 10 11  1  1
 13 12  1  0
 13 14  1  0
 15 14  1  0
 16 10  1  0
 17 16  2  0
 19 18  1  1
 19 21  1  0
 20 19  1  0
 21 23  1  0
 21 22  1  1
 22 16  1  0
 23 24  1  0
 25 23  2  0
M  END
$$$$
