LKV.pdb
     RDKit          3D

 25 24  0  0  1  0  0  0  0  0999 V2000
   30.3099  -22.4067  -13.4552 C   0  0  0  0  0  0  0  0  0  0  0  0
   30.8492  -20.9966  -13.4260 C   0  0  2  0  0  0  0  0  0  0  0  0
   31.9809  -20.9082  -12.4400 C   0  0  0  0  0  0  0  0  0  0  0  0
   29.8011  -19.9767  -13.1111 C   0  0  0  0  0  0  0  0  0  0  0  0
   28.6645  -19.9550  -14.0755 C   0  0  2  0  0  0  0  0  0  0  0  0
   28.8690  -19.0723  -15.1890 N   0  0  0  0  0  0  0  0  0  0  0  0
   27.4356  -19.5522  -13.3024 C   0  0  0  0  0  0  0  0  0  0  0  0
   27.2917  -18.3442  -13.0903 O   0  0  0  0  0  0  0  0  0  0  0  0
   26.5163  -20.5002  -12.8547 N   0  0  0  0  0  0  0  0  0  0  0  0
   25.3264  -20.2787  -12.1076 C   0  0  1  0  0  0  0  0  0  0  0  0
   24.0446  -20.7652  -12.8099 C   0  0  0  0  0  0  0  0  0  0  0  0
   22.8343  -20.4214  -11.9803 C   0  0  0  0  0  0  0  0  0  0  0  0
   21.5932  -20.9678  -12.6596 C   0  0  0  0  0  0  0  0  0  0  0  0
   20.3240  -20.5233  -12.0035 C   0  0  0  0  0  0  0  0  0  0  0  0
   19.2125  -21.1366  -12.7478 N   0  0  0  0  0  0  0  0  0  0  0  0
   25.3504  -20.8105  -10.7580 C   0  0  0  0  0  0  0  0  0  0  0  0
   25.4174  -22.0717  -10.5428 O   0  0  0  0  0  0  0  0  0  0  0  0
   27.4946  -19.3927   -7.6884 C   0  0  0  0  0  0  0  0  0  0  0  0
   26.1111  -19.7610   -7.2691 C   0  0  2  0  0  0  0  0  0  0  0  0
   26.1078  -20.4727   -5.9466 C   0  0  0  0  0  0  0  0  0  0  0  0
   25.3769  -20.6159   -8.2682 C   0  0  2  0  0  0  0  0  0  0  0  0
   25.3030  -20.0053   -9.5725 N   0  0  0  0  0  0  0  0  0  0  0  0
   24.0304  -20.9919   -7.8330 C   0  0  0  0  0  0  0  0  0  0  0  0
   23.8807  -21.9638   -6.8623 O   0  0  0  0  0  0  0  0  0  0  0  0
   22.9973  -20.4625   -8.3102 O   0  0  0  0  0  0  0  0  0  0  0  0
  2  1  1  1
  3  2  1  0
  4  2  1  0
  4  5  1  0
  5  7  1  0
  5  6  1  6
  7  8  2  0
  9 10  1  0
  9  7  1  0
 11 12  1  0
 10 11  1  6
 13 12  1  0
 13 14  1  0
 15 14  1  0
 16 10  1  0
 17 16  2  0
 19 18  1  6
 19 21  1  0
 20 19  1  0
 21 23  1  0
 21 22  1  6
 22 16  1  0
 23 24  1  0
 25 23  2  0
M  END
$$$$
