LKV.pdb
     RDKit          3D

 25 24  0  0  1  0  0  0  0  0999 V2000
   17.9417  -14.0637  -15.2145 C   0  0  0  0  0  0  0  0  0  0  0  0
   18.5525  -13.6674  -16.5373 C   0  0  2  0  0  0  0  0  0  0  0  0
   19.8213  -14.4425  -16.7610 C   0  0  0  0  0  0  0  0  0  0  0  0
   18.8122  -12.1981  -16.6439 C   0  0  0  0  0  0  0  0  0  0  0  0
   17.6078  -11.3495  -16.4166 C   0  0  2  0  0  0  0  0  0  0  0  0
   16.5240  -11.6332  -17.3142 N   0  0  0  0  0  0  0  0  0  0  0  0
   18.0449   -9.9143  -16.5549 C   0  0  0  0  0  0  0  0  0  0  0  0
   19.1638   -9.7257  -17.0424 O   0  0  0  0  0  0  0  0  0  0  0  0
   17.2231   -8.8628  -16.1511 N   0  0  0  0  0  0  0  0  0  0  0  0
   17.4423   -7.4677  -16.3206 C   0  0  1  0  0  0  0  0  0  0  0  0
   16.1497   -6.6319  -16.3803 C   0  0  0  0  0  0  0  0  0  0  0  0
   15.2987   -7.0722  -17.5435 C   0  0  0  0  0  0  0  0  0  0  0  0
   14.0546   -6.2070  -17.6062 C   0  0  0  0  0  0  0  0  0  0  0  0
   13.1271   -6.5958  -18.7141 C   0  0  0  0  0  0  0  0  0  0  0  0
   12.8859   -8.0423  -18.5910 N   0  0  0  0  0  0  0  0  0  0  0  0
   18.3391   -6.8726  -15.3476 C   0  0  0  0  0  0  0  0  0  0  0  0
   18.2037   -7.1002  -14.0942 O   0  0  0  0  0  0  0  0  0  0  0  0
   21.8946   -7.5686  -15.0366 C   0  0  0  0  0  0  0  0  0  0  0  0
   21.7732   -6.0834  -14.9666 C   0  0  2  0  0  0  0  0  0  0  0  0
   22.7002   -5.5033  -13.9371 C   0  0  0  0  0  0  0  0  0  0  0  0
   20.3781   -5.5972  -14.6744 C   0  0  2  0  0  0  0  0  0  0  0  0
   19.4278   -6.0011  -15.6810 N   0  0  0  0  0  0  0  0  0  0  0  0
   20.2956   -4.1478  -14.4849 C   0  0  0  0  0  0  0  0  0  0  0  0
   20.6908   -3.6003  -13.2793 O   0  0  0  0  0  0  0  0  0  0  0  0
   19.8766   -3.3754  -15.3810 O   0  0  0  0  0  0  0  0  0  0  0  0
  2  1  1  1
  3  2  1  0
  4  2  1  0
  4  5  1  0
  5  7  1  0
  5  6  1  6
  7  8  2  0
  9 10  1  0
  9  7  1  0
 11 12  1  0
 10 11  1  1
 13 12  1  0
 13 14  1  0
 15 14  1  0
 16 10  1  0
 17 16  2  0
 19 18  1  1
 19 21  1  0
 20 19  1  0
 21 23  1  0
 21 22  1  6
 22 16  1  0
 23 24  1  0
 25 23  2  0
M  END
$$$$
