LKV.pdb
     RDKit          3D

 25 24  0  0  1  0  0  0  0  0999 V2000
   26.0081  -13.5038  -16.2469 C   0  0  0  0  0  0  0  0  0  0  0  0
   24.8381  -13.4765  -17.2010 C   0  0  2  0  0  0  0  0  0  0  0  0
   25.3078  -13.8201  -18.5874 C   0  0  0  0  0  0  0  0  0  0  0  0
   24.1169  -12.1659  -17.2036 C   0  0  0  0  0  0  0  0  0  0  0  0
   23.5785  -11.7654  -15.8724 C   0  0  2  0  0  0  0  0  0  0  0  0
   22.7550  -12.7676  -15.2574 N   0  0  0  0  0  0  0  0  0  0  0  0
   22.7975  -10.4931  -16.0753 C   0  0  0  0  0  0  0  0  0  0  0  0
   23.2792   -9.6729  -16.8630 O   0  0  0  0  0  0  0  0  0  0  0  0
   21.5966  -10.2634  -15.4050 N   0  0  0  0  0  0  0  0  0  0  0  0
   20.7052   -9.1661  -15.5605 C   0  0  1  0  0  0  0  0  0  0  0  0
   19.2700   -9.4500  -15.0781 C   0  0  0  0  0  0  0  0  0  0  0  0
   18.5316  -10.2761  -16.0997 C   0  0  0  0  0  0  0  0  0  0  0  0
   17.9963  -11.5294  -15.4341 C   0  0  0  0  0  0  0  0  0  0  0  0
   17.3468  -12.4715  -16.3982 C   0  0  0  0  0  0  0  0  0  0  0  0
   16.8348  -13.6083  -15.6165 N   0  0  0  0  0  0  0  0  0  0  0  0
   21.1618   -7.9250  -14.9637 C   0  0  0  0  0  0  0  0  0  0  0  0
   21.7421   -7.9120  -13.8216 O   0  0  0  0  0  0  0  0  0  0  0  0
   23.3348   -5.3677  -16.8793 C   0  0  0  0  0  0  0  0  0  0  0  0
   22.3427   -4.6281  -16.0461 C   0  0  2  0  0  0  0  0  0  0  0  0
   22.9715   -3.4514  -15.3565 C   0  0  0  0  0  0  0  0  0  0  0  0
   21.6635   -5.4788  -15.0054 C   0  0  2  0  0  0  0  0  0  0  0  0
   21.0140   -6.6349  -15.5718 N   0  0  0  0  0  0  0  0  0  0  0  0
   20.7034   -4.7377  -14.1853 C   0  0  0  0  0  0  0  0  0  0  0  0
   21.1683   -3.9261  -13.1681 O   0  0  0  0  0  0  0  0  0  0  0  0
   19.4642   -4.8103  -14.3701 O   0  0  0  0  0  0  0  0  0  0  0  0
  2  1  1  1
  3  2  1  0
  4  2  1  0
  4  5  1  0
  5  7  1  0
  5  6  1  6
  7  8  2  0
  9 10  1  0
  9  7  1  0
 11 12  1  0
 10 11  1  1
 13 12  1  0
 13 14  1  0
 15 14  1  0
 16 10  1  0
 17 16  2  0
 19 18  1  1
 19 21  1  0
 20 19  1  0
 21 23  1  0
 21 22  1  6
 22 16  1  0
 23 24  1  0
 25 23  2  0
M  END
$$$$
