LKV.pdb
     RDKit          3D

 25 24  0  0  1  0  0  0  0  0999 V2000
   25.1681  -24.2535  -19.2422 C   0  0  0  0  0  0  0  0  0  0  0  0
   25.4693  -25.5847  -18.5963 C   0  0  2  0  0  0  0  0  0  0  0  0
   24.9616  -26.6976  -19.4707 C   0  0  0  0  0  0  0  0  0  0  0  0
   24.9047  -25.7056  -17.2163 C   0  0  0  0  0  0  0  0  0  0  0  0
   25.4052  -24.6754  -16.2621 C   0  0  2  0  0  0  0  0  0  0  0  0
   26.6105  -25.0560  -15.5815 N   0  0  0  0  0  0  0  0  0  0  0  0
   24.3001  -24.4154  -15.2716 C   0  0  0  0  0  0  0  0  0  0  0  0
   24.0903  -25.3020  -14.4379 O   0  0  0  0  0  0  0  0  0  0  0  0
   23.5599  -23.2341  -15.3029 N   0  0  0  0  0  0  0  0  0  0  0  0
   22.5152  -22.8341  -14.4246 C   0  0  1  0  0  0  0  0  0  0  0  0
   22.1099  -21.3545  -14.5640 C   0  0  0  0  0  0  0  0  0  0  0  0
   21.0439  -21.0098  -13.5560 C   0  0  0  0  0  0  0  0  0  0  0  0
   20.7097  -19.5347  -13.6690 C   0  0  0  0  0  0  0  0  0  0  0  0
   19.6393  -19.1031  -12.7168 C   0  0  0  0  0  0  0  0  0  0  0  0
   19.4302  -17.6611  -12.9230 N   0  0  0  0  0  0  0  0  0  0  0  0
   21.3202  -23.6542  -14.4912 C   0  0  0  0  0  0  0  0  0  0  0  0
   20.7272  -23.8736  -15.6055 O   0  0  0  0  0  0  0  0  0  0  0  0
   19.6253  -26.0705  -11.1994 C   0  0  0  0  0  0  0  0  0  0  0  0
   19.5793  -26.3454  -12.6650 C   0  0  2  0  0  0  0  0  0  0  0  0
   20.7478  -27.1798  -13.1053 C   0  0  0  0  0  0  0  0  0  0  0  0
   19.5354  -25.1053  -13.5183 C   0  0  2  0  0  0  0  0  0  0  0  0
   20.7057  -24.2786  -13.3561 N   0  0  0  0  0  0  0  0  0  0  0  0
   18.3361  -24.2936  -13.3027 C   0  0  0  0  0  0  0  0  0  0  0  0
   17.1202  -24.7446  -13.7799 O   0  0  0  0  0  0  0  0  0  0  0  0
   18.3677  -23.1951  -12.6966 O   0  0  0  0  0  0  0  0  0  0  0  0
  2  1  1  6
  3  2  1  0
  4  2  1  0
  4  5  1  0
  5  7  1  0
  5  6  1  1
  7  8  2  0
  9 10  1  0
  9  7  1  0
 11 12  1  0
 10 11  1  6
 13 12  1  0
 13 14  1  0
 15 14  1  0
 16 10  1  0
 17 16  2  0
 19 18  1  1
 19 21  1  0
 20 19  1  0
 21 23  1  0
 21 22  1  1
 22 16  1  0
 23 24  1  0
 25 23  2  0
M  END
$$$$
