LKV.pdb
     RDKit          3D

 25 24  0  0  1  0  0  0  0  0999 V2000
   25.6478  -19.2263   -6.9643 C   0  0  0  0  0  0  0  0  0  0  0  0
   26.7109  -20.2216   -7.3634 C   0  0  2  0  0  0  0  0  0  0  0  0
   27.9957  -19.9026   -6.6503 C   0  0  0  0  0  0  0  0  0  0  0  0
   26.9338  -20.2769   -8.8416 C   0  0  0  0  0  0  0  0  0  0  0  0
   25.7023  -20.5610   -9.6321 C   0  0  2  0  0  0  0  0  0  0  0  0
   25.1916  -21.8899   -9.4476 N   0  0  0  0  0  0  0  0  0  0  0  0
   26.0413  -20.3230  -11.0807 C   0  0  0  0  0  0  0  0  0  0  0  0
   27.1364  -19.7999  -11.3095 O   0  0  0  0  0  0  0  0  0  0  0  0
   25.1593  -20.6777  -12.1007 N   0  0  0  0  0  0  0  0  0  0  0  0
   25.3759  -20.6130  -13.5049 C   0  0  1  0  0  0  0  0  0  0  0  0
   24.7241  -21.7641  -14.2943 C   0  0  0  0  0  0  0  0  0  0  0  0
   25.2213  -21.7663  -15.7170 C   0  0  0  0  0  0  0  0  0  0  0  0
   26.5360  -22.5196  -15.7840 C   0  0  0  0  0  0  0  0  0  0  0  0
   27.0838  -22.6169  -17.1730 C   0  0  0  0  0  0  0  0  0  0  0  0
   28.2947  -23.4504  -17.1048 N   0  0  0  0  0  0  0  0  0  0  0  0
   24.9993  -19.3535  -14.1188 C   0  0  0  0  0  0  0  0  0  0  0  0
   23.9193  -18.7499  -13.7862 O   0  0  0  0  0  0  0  0  0  0  0  0
   27.5323  -16.3289  -15.3002 C   0  0  0  0  0  0  0  0  0  0  0  0
   26.4347  -16.6171  -16.2686 C   0  0  2  0  0  0  0  0  0  0  0  0
   25.8516  -15.3528  -16.8318 C   0  0  0  0  0  0  0  0  0  0  0  0
   25.3125  -17.4402  -15.6933 C   0  0  2  0  0  0  0  0  0  0  0  0
   25.7717  -18.6828  -15.1235 N   0  0  0  0  0  0  0  0  0  0  0  0
   24.2417  -17.7146  -16.6533 C   0  0  0  0  0  0  0  0  0  0  0  0
   24.3853  -18.7603  -17.5452 O   0  0  0  0  0  0  0  0  0  0  0  0
   23.1891  -17.0326  -16.6996 O   0  0  0  0  0  0  0  0  0  0  0  0
  2  1  1  6
  3  2  1  0
  4  2  1  0
  4  5  1  0
  5  7  1  0
  5  6  1  6
  7  8  2  0
  9 10  1  0
  9  7  1  0
 11 12  1  0
 10 11  1  6
 13 12  1  0
 13 14  1  0
 15 14  1  0
 16 10  1  0
 17 16  2  0
 19 18  1  1
 19 21  1  0
 20 19  1  0
 21 23  1  0
 21 22  1  6
 22 16  1  0
 23 24  1  0
 25 23  2  0
M  END
$$$$
