FMD.pdb
     RDKit          3D

 28 28  0  0  1  0  0  0  0  0999 V2000
    5.7921  -18.1268   25.6002 N   0  0  0  0  0  0  0  0  0  0  0  0
    6.2572  -16.7506   25.3800 C   0  0  1  0  0  0  0  0  0  0  0  0
    6.7644  -16.2864   26.7441 C   0  0  0  0  0  0  0  0  0  0  0  0
    6.8994  -14.8075   26.6736 C   0  0  0  0  0  0  0  0  0  0  0  0
    8.1319  -14.1754   26.5983 C   0  0  0  0  0  0  0  0  0  0  0  0
    8.2328  -12.8025   26.5314 C   0  0  0  0  0  0  0  0  0  0  0  0
    7.0968  -12.0305   26.5387 C   0  0  0  0  0  0  0  0  0  0  0  0
    5.8762  -12.6328   26.6122 C   0  0  0  0  0  0  0  0  0  0  0  0
    5.7782  -14.0108   26.6792 C   0  0  0  0  0  0  0  0  0  0  0  0
    7.3307  -16.7206   24.3704 C   0  0  0  0  0  0  0  0  0  0  0  0
    8.1725  -17.6441   24.3455 O   0  0  0  0  0  0  0  0  0  0  0  0
    6.4831  -12.5928   19.5306 C   0  0  0  0  0  0  0  0  0  0  0  0
    8.2534  -12.4522   19.7745 S   0  0  0  0  0  0  0  0  0  0  0  0
    8.9561  -14.0211   20.4508 C   0  0  0  0  0  0  0  0  0  0  0  0
    8.0698  -14.3776   21.6056 C   0  0  0  0  0  0  0  0  0  0  0  0
    8.3936  -15.6355   22.3352 C   0  0  2  0  0  0  0  0  0  0  0  0
    7.4055  -15.6695   23.4501 N   0  0  0  0  0  0  0  0  0  0  0  0
    9.7047  -15.5379   23.0021 C   0  0  0  0  0  0  0  0  0  0  0  0
    9.9111  -14.6364   23.9028 O   0  0  0  0  0  0  0  0  0  0  0  0
   10.8284  -16.3732   22.7582 N   0  0  0  0  0  0  0  0  0  0  0  0
   12.1291  -16.0824   23.3947 C   0  0  1  0  0  0  0  0  0  0  0  0
   12.5062  -17.2291   24.2940 C   0  0  0  0  0  0  0  0  0  0  0  0
   12.3768  -18.5247   23.6434 C   0  0  0  0  0  0  0  0  0  0  0  0
   12.6268  -18.7083   22.4438 O   0  0  0  0  0  0  0  0  0  0  0  0
   13.0611  -15.8614   22.2709 C   0  0  0  0  0  0  0  0  0  0  0  0
   12.6911  -16.0797   21.0991 O   0  0  0  0  0  0  0  0  0  0  0  0
   11.9500  -19.6255   24.3975 O   0  0  0  0  0  0  0  0  0  0  0  0
   14.3671  -15.4119   22.4173 O   0  0  0  0  0  0  0  0  0  0  0  0
  2  3  1  0
  2  1  1  1
  4  5  2  0
  4  3  1  0
  6  5  1  0
  7  6  2  0
  8  7  1  0
  8  9  2  0
  9  4  1  0
 10  2  1  0
 11 10  2  0
 13 12  1  0
 14 13  1  0
 15 14  1  0
 16 15  1  6
 16 17  1  0
 17 10  1  0
 18 16  1  0
 18 20  1  0
 19 18  2  0
 21 22  1  6
 21 20  1  0
 21 25  1  0
 23 24  2  0
 23 22  1  0
 25 28  1  0
 26 25  2  0
 27 23  1  0
M  END
$$$$
