FMD.pdb
     RDKit          3D

 28 28  0  0  1  0  0  0  0  0999 V2000
    8.3847  -15.2950   25.7561 N   0  0  0  0  0  0  0  0  0  0  0  0
    7.2583  -16.1881   25.4523 C   0  0  1  0  0  0  0  0  0  0  0  0
    6.0106  -15.3585   25.7495 C   0  0  0  0  0  0  0  0  0  0  0  0
    6.4786  -14.0129   26.1747 C   0  0  0  0  0  0  0  0  0  0  0  0
    7.3611  -13.8308   27.2293 C   0  0  0  0  0  0  0  0  0  0  0  0
    7.7833  -12.5736   27.6045 C   0  0  0  0  0  0  0  0  0  0  0  0
    7.3286  -11.4678   26.9287 C   0  0  0  0  0  0  0  0  0  0  0  0
    6.4608  -11.6259   25.8894 C   0  0  0  0  0  0  0  0  0  0  0  0
    6.0390  -12.8887   25.5152 C   0  0  0  0  0  0  0  0  0  0  0  0
    7.2972  -16.6111   24.0408 C   0  0  0  0  0  0  0  0  0  0  0  0
    6.2300  -16.6816   23.3941 O   0  0  0  0  0  0  0  0  0  0  0  0
    8.1666  -12.2432   21.2054 C   0  0  0  0  0  0  0  0  0  0  0  0
    7.4559  -13.5065   20.1508 S   0  0  0  0  0  0  0  0  0  0  0  0
    7.1772  -15.0734   21.0887 C   0  0  0  0  0  0  0  0  0  0  0  0
    8.5315  -15.4700   21.5935 C   0  0  0  0  0  0  0  0  0  0  0  0
    8.7180  -16.9028   21.9562 C   0  0  2  0  0  0  0  0  0  0  0  0
    8.5160  -16.9297   23.4324 N   0  0  0  0  0  0  0  0  0  0  0  0
   10.1191  -17.3193   21.7642 C   0  0  0  0  0  0  0  0  0  0  0  0
   11.0824  -16.5947   22.2262 O   0  0  0  0  0  0  0  0  0  0  0  0
   10.5552  -18.4961   21.0971 N   0  0  0  0  0  0  0  0  0  0  0  0
   11.9918  -18.7207   20.8384 C   0  0  1  0  0  0  0  0  0  0  0  0
   12.6482  -17.4039   20.5203 C   0  0  0  0  0  0  0  0  0  0  0  0
   14.0612  -17.5393   20.1984 C   0  0  0  0  0  0  0  0  0  0  0  0
   14.9518  -17.5731   21.0591 O   0  0  0  0  0  0  0  0  0  0  0  0
   12.5010  -19.3719   22.0620 C   0  0  0  0  0  0  0  0  0  0  0  0
   13.2389  -20.3748   21.9761 O   0  0  0  0  0  0  0  0  0  0  0  0
   14.4471  -17.6370   18.8552 O   0  0  0  0  0  0  0  0  0  0  0  0
   12.2151  -18.9420   23.3514 O   0  0  0  0  0  0  0  0  0  0  0  0
  2  3  1  0
  2  1  1  6
  4  5  2  0
  4  3  1  0
  6  5  1  0
  7  6  2  0
  8  7  1  0
  8  9  2  0
  9  4  1  0
 10  2  1  0
 11 10  2  0
 13 12  1  0
 14 13  1  0
 15 14  1  0
 16 15  1  1
 16 17  1  0
 17 10  1  0
 18 16  1  0
 18 20  1  0
 19 18  2  0
 21 22  1  1
 21 20  1  0
 21 25  1  0
 23 24  2  0
 23 22  1  0
 25 28  1  0
 26 25  2  0
 27 23  1  0
M  END
$$$$
