FMD.pdb
     RDKit          3D

 28 28  0  0  1  0  0  0  0  0999 V2000
    7.2601  -17.8569   21.3724 N   0  0  0  0  0  0  0  0  0  0  0  0
    7.8091  -16.5543   20.9715 C   0  0  1  0  0  0  0  0  0  0  0  0
    6.5963  -15.7391   20.5266 C   0  0  0  0  0  0  0  0  0  0  0  0
    7.1027  -14.4042   20.1117 C   0  0  0  0  0  0  0  0  0  0  0  0
    7.6525  -14.1731   18.8593 C   0  0  0  0  0  0  0  0  0  0  0  0
    8.1137  -12.9263   18.4955 C   0  0  0  0  0  0  0  0  0  0  0  0
    8.0336  -11.8804   19.3821 C   0  0  0  0  0  0  0  0  0  0  0  0
    7.4966  -12.0872   20.6178 C   0  0  0  0  0  0  0  0  0  0  0  0
    7.0347  -13.3395   20.9799 C   0  0  0  0  0  0  0  0  0  0  0  0
    8.5009  -15.9119   22.1036 C   0  0  0  0  0  0  0  0  0  0  0  0
    9.5674  -15.2937   21.8971 O   0  0  0  0  0  0  0  0  0  0  0  0
    7.0503  -11.4606   26.5244 C   0  0  0  0  0  0  0  0  0  0  0  0
    6.4798  -13.0596   27.0997 S   0  0  0  0  0  0  0  0  0  0  0  0
    7.7365  -14.3716   26.7651 C   0  0  0  0  0  0  0  0  0  0  0  0
    7.4422  -14.8456   25.3740 C   0  0  0  0  0  0  0  0  0  0  0  0
    8.5991  -15.3393   24.5757 C   0  0  2  0  0  0  0  0  0  0  0  0
    7.9685  -15.9936   23.3948 N   0  0  0  0  0  0  0  0  0  0  0  0
    9.2986  -16.4310   25.2773 C   0  0  0  0  0  0  0  0  0  0  0  0
    8.6671  -17.5119   25.5923 O   0  0  0  0  0  0  0  0  0  0  0  0
   10.6668  -16.4327   25.6623 N   0  0  0  0  0  0  0  0  0  0  0  0
   11.2834  -17.6500   26.2276 C   0  0  1  0  0  0  0  0  0  0  0  0
   12.7706  -17.6014   26.0005 C   0  0  0  0  0  0  0  0  0  0  0  0
   13.1241  -17.4606   24.5955 C   0  0  0  0  0  0  0  0  0  0  0  0
   12.5861  -18.1167   23.6926 O   0  0  0  0  0  0  0  0  0  0  0  0
   10.8871  -17.6512   27.6500 C   0  0  0  0  0  0  0  0  0  0  0  0
   10.4182  -16.6179   28.1697 O   0  0  0  0  0  0  0  0  0  0  0  0
   14.1185  -16.5431   24.2324 O   0  0  0  0  0  0  0  0  0  0  0  0
   10.9970  -18.7522   28.4897 O   0  0  0  0  0  0  0  0  0  0  0  0
  2  3  1  0
  2  1  1  1
  4  5  2  0
  4  3  1  0
  6  5  1  0
  7  6  2  0
  8  7  1  0
  8  9  2  0
  9  4  1  0
 10  2  1  0
 11 10  2  0
 13 12  1  0
 14 13  1  0
 15 14  1  0
 16 15  1  1
 16 17  1  0
 17 10  1  0
 18 16  1  0
 18 20  1  0
 19 18  2  0
 21 22  1  1
 21 20  1  0
 21 25  1  0
 23 24  2  0
 23 22  1  0
 25 28  1  0
 26 25  2  0
 27 23  1  0
M  END
$$$$
