FMD.pdb
     RDKit          3D

 28 28  0  0  1  0  0  0  0  0999 V2000
    8.2960  -16.9957   26.2132 N   0  0  0  0  0  0  0  0  0  0  0  0
    8.6549  -15.9645   25.2300 C   0  0  1  0  0  0  0  0  0  0  0  0
   10.0211  -15.4521   25.6821 C   0  0  0  0  0  0  0  0  0  0  0  0
    9.7998  -14.6814   26.9341 C   0  0  0  0  0  0  0  0  0  0  0  0
   10.3760  -15.0438   28.1428 C   0  0  0  0  0  0  0  0  0  0  0  0
   10.1586  -14.3127   29.2908 C   0  0  0  0  0  0  0  0  0  0  0  0
    9.3560  -13.1988   29.2522 C   0  0  0  0  0  0  0  0  0  0  0  0
    8.7806  -12.8262   28.0740 C   0  0  0  0  0  0  0  0  0  0  0  0
    9.0007  -13.5619   26.9237 C   0  0  0  0  0  0  0  0  0  0  0  0
    8.7198  -16.5397   23.8744 C   0  0  0  0  0  0  0  0  0  0  0  0
    8.4718  -17.7541   23.7131 O   0  0  0  0  0  0  0  0  0  0  0  0
    6.5933  -11.4496   20.0493 C   0  0  0  0  0  0  0  0  0  0  0  0
    7.8149  -12.7045   19.6665 S   0  0  0  0  0  0  0  0  0  0  0  0
    7.6330  -14.1680   20.7789 C   0  0  0  0  0  0  0  0  0  0  0  0
    8.8782  -14.9747   20.5663 C   0  0  0  0  0  0  0  0  0  0  0  0
    9.0155  -16.2198   21.3726 C   0  0  2  0  0  0  0  0  0  0  0  0
    9.0553  -15.7343   22.7808 N   0  0  0  0  0  0  0  0  0  0  0  0
   10.3322  -16.8470   21.1574 C   0  0  0  0  0  0  0  0  0  0  0  0
   10.5674  -17.5115   20.0759 O   0  0  0  0  0  0  0  0  0  0  0  0
   11.4362  -16.7957   22.0510 N   0  0  0  0  0  0  0  0  0  0  0  0
   12.6799  -17.5321   21.7468 C   0  0  1  0  0  0  0  0  0  0  0  0
   13.7857  -16.5458   21.4822 C   0  0  0  0  0  0  0  0  0  0  0  0
   13.7994  -16.0663   20.1079 C   0  0  0  0  0  0  0  0  0  0  0  0
   13.9201  -14.8700   19.8090 O   0  0  0  0  0  0  0  0  0  0  0  0
   12.9068  -18.3964   22.9223 C   0  0  0  0  0  0  0  0  0  0  0  0
   12.1068  -18.3729   23.8799 O   0  0  0  0  0  0  0  0  0  0  0  0
   13.6707  -16.9907   19.0632 O   0  0  0  0  0  0  0  0  0  0  0  0
   13.9799  -19.2684   23.0541 O   0  0  0  0  0  0  0  0  0  0  0  0
  2  3  1  0
  2  1  1  1
  4  5  2  0
  4  3  1  0
  6  5  1  0
  7  6  2  0
  8  7  1  0
  8  9  2  0
  9  4  1  0
 10  2  1  0
 11 10  2  0
 13 12  1  0
 14 13  1  0
 15 14  1  0
 16 15  1  6
 16 17  1  0
 17 10  1  0
 18 16  1  0
 18 20  1  0
 19 18  2  0
 21 22  1  1
 21 20  1  0
 21 25  1  0
 23 24  2  0
 23 22  1  0
 25 28  1  0
 26 25  2  0
 27 23  1  0
M  END
$$$$
