FMD.pdb
     RDKit          3D

 28 28  0  0  1  0  0  0  0  0999 V2000
    9.6072  -17.9396   26.6509 N   0  0  0  0  0  0  0  0  0  0  0  0
    8.1445  -17.9011   26.7849 C   0  0  1  0  0  0  0  0  0  0  0  0
    7.8950  -17.3609   28.1918 C   0  0  0  0  0  0  0  0  0  0  0  0
    8.8516  -16.2419   28.3999 C   0  0  0  0  0  0  0  0  0  0  0  0
   10.0748  -16.4161   29.0306 C   0  0  0  0  0  0  0  0  0  0  0  0
   10.9471  -15.3642   29.2106 C   0  0  0  0  0  0  0  0  0  0  0  0
   10.6112  -14.1107   28.7610 C   0  0  0  0  0  0  0  0  0  0  0  0
    9.4136  -13.9191   28.1388 C   0  0  0  0  0  0  0  0  0  0  0  0
    8.5404  -14.9765   27.9596 C   0  0  0  0  0  0  0  0  0  0  0  0
    7.5522  -17.0223   25.7604 C   0  0  0  0  0  0  0  0  0  0  0  0
    6.3099  -16.8962   25.7072 O   0  0  0  0  0  0  0  0  0  0  0  0
    6.0469  -11.3197   26.7049 C   0  0  0  0  0  0  0  0  0  0  0  0
    7.1646  -11.9660   25.4614 S   0  0  0  0  0  0  0  0  0  0  0  0
    6.8366  -13.7555   25.1408 C   0  0  0  0  0  0  0  0  0  0  0  0
    7.8646  -14.1637   24.1294 C   0  0  0  0  0  0  0  0  0  0  0  0
    7.8405  -15.5857   23.6862 C   0  0  2  0  0  0  0  0  0  0  0  0
    8.3727  -16.3371   24.8578 N   0  0  0  0  0  0  0  0  0  0  0  0
    8.8239  -15.8225   22.6137 C   0  0  0  0  0  0  0  0  0  0  0  0
    8.7025  -15.2249   21.4760 O   0  0  0  0  0  0  0  0  0  0  0  0
    9.9575  -16.6760   22.6955 N   0  0  0  0  0  0  0  0  0  0  0  0
   10.8751  -16.8133   21.5464 C   0  0  1  0  0  0  0  0  0  0  0  0
   11.4265  -15.4588   21.1899 C   0  0  0  0  0  0  0  0  0  0  0  0
   12.4310  -15.5158   20.1381 C   0  0  0  0  0  0  0  0  0  0  0  0
   13.4152  -14.7640   20.0998 O   0  0  0  0  0  0  0  0  0  0  0  0
   11.8946  -17.7858   21.9883 C   0  0  0  0  0  0  0  0  0  0  0  0
   12.0381  -18.8636   21.3757 O   0  0  0  0  0  0  0  0  0  0  0  0
   12.2911  -16.4611   19.1137 O   0  0  0  0  0  0  0  0  0  0  0  0
   12.7408  -17.5908   23.0724 O   0  0  0  0  0  0  0  0  0  0  0  0
  2  3  1  0
  2  1  1  6
  4  5  2  0
  4  3  1  0
  6  5  1  0
  7  6  2  0
  8  7  1  0
  8  9  2  0
  9  4  1  0
 10  2  1  0
 11 10  2  0
 13 12  1  0
 14 13  1  0
 15 14  1  0
 16 15  1  1
 16 17  1  0
 17 10  1  0
 18 16  1  0
 18 20  1  0
 19 18  2  0
 21 22  1  1
 21 20  1  0
 21 25  1  0
 23 24  2  0
 23 22  1  0
 25 28  1  0
 26 25  2  0
 27 23  1  0
M  END
$$$$
