FMD.pdb
     RDKit          3D

 28 28  0  0  1  0  0  0  0  0999 V2000
    8.2446  -16.5473   21.4978 N   0  0  0  0  0  0  0  0  0  0  0  0
    8.5443  -15.1435   21.8116 C   0  0  1  0  0  0  0  0  0  0  0  0
    7.2559  -14.3878   21.4913 C   0  0  0  0  0  0  0  0  0  0  0  0
    7.4593  -13.7273   20.1750 C   0  0  0  0  0  0  0  0  0  0  0  0
    7.1137  -14.3342   18.9765 C   0  0  0  0  0  0  0  0  0  0  0  0
    7.3094  -13.7018   17.7676 C   0  0  0  0  0  0  0  0  0  0  0  0
    7.8577  -12.4429   17.7336 C   0  0  0  0  0  0  0  0  0  0  0  0
    8.2040  -11.8296   18.9006 C   0  0  0  0  0  0  0  0  0  0  0  0
    8.0064  -12.4669   20.1121 C   0  0  0  0  0  0  0  0  0  0  0  0
    8.9135  -14.9961   23.2309 C   0  0  0  0  0  0  0  0  0  0  0  0
    9.7176  -14.0989   23.5635 O   0  0  0  0  0  0  0  0  0  0  0  0
    6.7575  -11.6368   27.3552 C   0  0  0  0  0  0  0  0  0  0  0  0
    7.6261  -13.1952   27.1801 S   0  0  0  0  0  0  0  0  0  0  0  0
    6.6220  -14.4090   26.2153 C   0  0  0  0  0  0  0  0  0  0  0  0
    7.3736  -15.7018   26.3158 C   0  0  0  0  0  0  0  0  0  0  0  0
    8.7022  -15.7582   25.6442 C   0  0  2  0  0  0  0  0  0  0  0  0
    8.3692  -15.8517   24.1947 N   0  0  0  0  0  0  0  0  0  0  0  0
    9.3962  -17.0225   25.9494 C   0  0  0  0  0  0  0  0  0  0  0  0
    9.4959  -17.4319   27.1696 O   0  0  0  0  0  0  0  0  0  0  0  0
    9.9959  -17.8945   25.0007 N   0  0  0  0  0  0  0  0  0  0  0  0
   10.7659  -19.0724   25.4492 C   0  0  1  0  0  0  0  0  0  0  0  0
   10.6829  -20.1464   24.3978 C   0  0  0  0  0  0  0  0  0  0  0  0
    9.3323  -20.3378   23.8901 C   0  0  0  0  0  0  0  0  0  0  0  0
    9.0843  -20.5886   22.7023 O   0  0  0  0  0  0  0  0  0  0  0  0
   12.1313  -18.5644   25.6904 C   0  0  0  0  0  0  0  0  0  0  0  0
   12.4405  -17.4085   25.3353 O   0  0  0  0  0  0  0  0  0  0  0  0
    8.2514  -20.2366   24.7756 O   0  0  0  0  0  0  0  0  0  0  0  0
   13.1390  -19.2965   26.3049 O   0  0  0  0  0  0  0  0  0  0  0  0
  2  3  1  0
  2  1  1  1
  4  5  2  0
  4  3  1  0
  6  5  1  0
  7  6  2  0
  8  7  1  0
  8  9  2  0
  9  4  1  0
 10  2  1  0
 11 10  2  0
 13 12  1  0
 14 13  1  0
 15 14  1  0
 16 15  1  1
 16 17  1  0
 17 10  1  0
 18 16  1  0
 18 20  1  0
 19 18  2  0
 21 22  1  6
 21 20  1  0
 21 25  1  0
 23 24  2  0
 23 22  1  0
 25 28  1  0
 26 25  2  0
 27 23  1  0
M  END
$$$$
