FMD.pdb
     RDKit          3D

 28 28  0  0  1  0  0  0  0  0999 V2000
    8.1416  -17.2250   20.9218 N   0  0  0  0  0  0  0  0  0  0  0  0
    9.4473  -16.5690   21.0757 C   0  0  1  0  0  0  0  0  0  0  0  0
    9.5341  -15.5916   19.9050 C   0  0  0  0  0  0  0  0  0  0  0  0
    8.5092  -14.5413   20.1433 C   0  0  0  0  0  0  0  0  0  0  0  0
    7.1482  -14.8064   20.1020 C   0  0  0  0  0  0  0  0  0  0  0  0
    6.2158  -13.8171   20.3285 C   0  0  0  0  0  0  0  0  0  0  0  0
    6.6285  -12.5360   20.6021 C   0  0  0  0  0  0  0  0  0  0  0  0
    7.9616  -12.2552   20.6471 C   0  0  0  0  0  0  0  0  0  0  0  0
    8.8949  -13.2502   20.4194 C   0  0  0  0  0  0  0  0  0  0  0  0
    9.5255  -15.8653   22.3685 C   0  0  0  0  0  0  0  0  0  0  0  0
   10.5542  -15.2127   22.6481 O   0  0  0  0  0  0  0  0  0  0  0  0
    7.0886  -11.0632   26.6135 C   0  0  0  0  0  0  0  0  0  0  0  0
    7.2074  -12.8517   26.6346 S   0  0  0  0  0  0  0  0  0  0  0  0
    7.1366  -13.5411   24.9222 C   0  0  0  0  0  0  0  0  0  0  0  0
    7.2863  -15.0225   25.0935 C   0  0  0  0  0  0  0  0  0  0  0  0
    8.6035  -15.6103   24.7210 C   0  0  2  0  0  0  0  0  0  0  0  0
    8.4593  -15.9276   23.2722 N   0  0  0  0  0  0  0  0  0  0  0  0
    8.8020  -16.9185   25.3710 C   0  0  0  0  0  0  0  0  0  0  0  0
    8.1229  -17.9464   24.9854 O   0  0  0  0  0  0  0  0  0  0  0  0
    9.7108  -17.1948   26.4283 N   0  0  0  0  0  0  0  0  0  0  0  0
   10.4518  -18.4719   26.4634 C   0  0  1  0  0  0  0  0  0  0  0  0
   11.1908  -18.6501   25.1642 C   0  0  0  0  0  0  0  0  0  0  0  0
   12.0805  -19.8020   25.1727 C   0  0  0  0  0  0  0  0  0  0  0  0
   11.7297  -20.9317   24.8043 O   0  0  0  0  0  0  0  0  0  0  0  0
   11.3259  -18.3716   27.6492 C   0  0  0  0  0  0  0  0  0  0  0  0
   12.0869  -19.3150   27.9470 O   0  0  0  0  0  0  0  0  0  0  0  0
   13.3995  -19.6401   25.6163 O   0  0  0  0  0  0  0  0  0  0  0  0
   11.3728  -17.2694   28.4930 O   0  0  0  0  0  0  0  0  0  0  0  0
  2  3  1  0
  2  1  1  1
  4  5  2  0
  4  3  1  0
  6  5  1  0
  7  6  2  0
  8  7  1  0
  8  9  2  0
  9  4  1  0
 10  2  1  0
 11 10  2  0
 13 12  1  0
 14 13  1  0
 15 14  1  0
 16 15  1  1
 16 17  1  0
 17 10  1  0
 18 16  1  0
 18 20  1  0
 19 18  2  0
 21 22  1  6
 21 20  1  0
 21 25  1  0
 23 24  2  0
 23 22  1  0
 25 28  1  0
 26 25  2  0
 27 23  1  0
M  END
$$$$
