FMD.pdb
     RDKit          3D

 28 28  0  0  1  0  0  0  0  0999 V2000
    8.4318  -17.6622   21.1273 N   0  0  0  0  0  0  0  0  0  0  0  0
    8.5598  -16.2131   20.9208 C   0  0  1  0  0  0  0  0  0  0  0  0
    7.2105  -15.7788   20.3514 C   0  0  0  0  0  0  0  0  0  0  0  0
    7.2857  -14.3096   20.1370 C   0  0  0  0  0  0  0  0  0  0  0  0
    6.9602  -13.3951   21.1280 C   0  0  0  0  0  0  0  0  0  0  0  0
    7.0397  -12.0370   20.9073 C   0  0  0  0  0  0  0  0  0  0  0  0
    7.4484  -11.5641   19.6843 C   0  0  0  0  0  0  0  0  0  0  0  0
    7.7727  -12.4467   18.6974 C   0  0  0  0  0  0  0  0  0  0  0  0
    7.6920  -13.8090   18.9219 C   0  0  0  0  0  0  0  0  0  0  0  0
    8.8487  -15.5307   22.1950 C   0  0  0  0  0  0  0  0  0  0  0  0
    8.8721  -14.2815   22.2279 O   0  0  0  0  0  0  0  0  0  0  0  0
    6.6664  -11.9401   26.4347 C   0  0  0  0  0  0  0  0  0  0  0  0
    7.9231  -13.2175   26.4820 S   0  0  0  0  0  0  0  0  0  0  0  0
    7.1742  -14.8926   26.2682 C   0  0  0  0  0  0  0  0  0  0  0  0
    7.5962  -15.3349   24.8997 C   0  0  0  0  0  0  0  0  0  0  0  0
    9.0328  -15.6874   24.7230 C   0  0  2  0  0  0  0  0  0  0  0  0
    9.0937  -16.2741   23.3545 N   0  0  0  0  0  0  0  0  0  0  0  0
    9.4209  -16.7916   25.6194 C   0  0  0  0  0  0  0  0  0  0  0  0
    8.5166  -17.5108   26.1951 O   0  0  0  0  0  0  0  0  0  0  0  0
   10.7508  -17.1811   25.9351 N   0  0  0  0  0  0  0  0  0  0  0  0
   11.0117  -18.4595   26.6272 C   0  0  1  0  0  0  0  0  0  0  0  0
   12.4382  -18.8723   26.3810 C   0  0  0  0  0  0  0  0  0  0  0  0
   12.9017  -18.5356   25.0429 C   0  0  0  0  0  0  0  0  0  0  0  0
   13.6998  -17.6160   24.8139 O   0  0  0  0  0  0  0  0  0  0  0  0
   10.6928  -18.1961   28.0447 C   0  0  0  0  0  0  0  0  0  0  0  0
   10.3639  -17.0487   28.4092 O   0  0  0  0  0  0  0  0  0  0  0  0
   12.4310  -19.2786   23.9525 O   0  0  0  0  0  0  0  0  0  0  0  0
   10.7298  -19.1593   29.0448 O   0  0  0  0  0  0  0  0  0  0  0  0
  2  3  1  0
  2  1  1  1
  4  5  2  0
  4  3  1  0
  6  5  1  0
  7  6  2  0
  8  7  1  0
  8  9  2  0
  9  4  1  0
 10  2  1  0
 11 10  2  0
 13 12  1  0
 14 13  1  0
 15 14  1  0
 16 15  1  1
 16 17  1  0
 17 10  1  0
 18 16  1  0
 18 20  1  0
 19 18  2  0
 21 22  1  1
 21 20  1  0
 21 25  1  0
 23 24  2  0
 23 22  1  0
 25 28  1  0
 26 25  2  0
 27 23  1  0
M  END
$$$$
