FMD.pdb
     RDKit          3D

 28 28  0  0  1  0  0  0  0  0999 V2000
   11.1836  -17.1272   20.8624 N   0  0  0  0  0  0  0  0  0  0  0  0
   10.2456  -16.0911   21.3156 C   0  0  1  0  0  0  0  0  0  0  0  0
    8.9316  -16.4168   20.6079 C   0  0  0  0  0  0  0  0  0  0  0  0
    8.1861  -15.1376   20.4728 C   0  0  0  0  0  0  0  0  0  0  0  0
    8.5885  -14.1292   19.6095 C   0  0  0  0  0  0  0  0  0  0  0  0
    7.8801  -12.9520   19.4991 C   0  0  0  0  0  0  0  0  0  0  0  0
    6.7492  -12.7592   20.2543 C   0  0  0  0  0  0  0  0  0  0  0  0
    6.3374  -13.7383   21.1086 C   0  0  0  0  0  0  0  0  0  0  0  0
    7.0503  -14.9184   21.2172 C   0  0  0  0  0  0  0  0  0  0  0  0
   10.0907  -16.1359   22.7808 C   0  0  0  0  0  0  0  0  0  0  0  0
   10.5183  -17.1272   23.4107 O   0  0  0  0  0  0  0  0  0  0  0  0
    7.3203  -11.1538   25.1978 C   0  0  0  0  0  0  0  0  0  0  0  0
    6.9886  -12.1838   26.6269 S   0  0  0  0  0  0  0  0  0  0  0  0
    8.1004  -13.6588   26.6535 C   0  0  0  0  0  0  0  0  0  0  0  0
    8.4269  -13.9251   25.2152 C   0  0  0  0  0  0  0  0  0  0  0  0
    9.4582  -14.9653   24.9438 C   0  0  2  0  0  0  0  0  0  0  0  0
    9.4718  -15.0798   23.4582 N   0  0  0  0  0  0  0  0  0  0  0  0
    9.0118  -16.2888   25.4155 C   0  0  0  0  0  0  0  0  0  0  0  0
    8.2755  -17.0340   24.6612 O   0  0  0  0  0  0  0  0  0  0  0  0
    9.3217  -16.8738   26.6732 N   0  0  0  0  0  0  0  0  0  0  0  0
    9.4901  -18.3359   26.7970 C   0  0  1  0  0  0  0  0  0  0  0  0
   10.2994  -18.8403   25.6324 C   0  0  0  0  0  0  0  0  0  0  0  0
   10.7093  -20.2284   25.7871 C   0  0  0  0  0  0  0  0  0  0  0  0
   10.4454  -20.9047   26.7911 O   0  0  0  0  0  0  0  0  0  0  0  0
   10.1314  -18.5344   28.1122 C   0  0  0  0  0  0  0  0  0  0  0  0
   10.0051  -19.6216   28.7120 O   0  0  0  0  0  0  0  0  0  0  0  0
   11.4375  -20.8417   24.7594 O   0  0  0  0  0  0  0  0  0  0  0  0
   10.8945  -17.5724   28.7614 O   0  0  0  0  0  0  0  0  0  0  0  0
  2  3  1  0
  2  1  1  6
  4  5  2  0
  4  3  1  0
  6  5  1  0
  7  6  2  0
  8  7  1  0
  8  9  2  0
  9  4  1  0
 10  2  1  0
 11 10  2  0
 13 12  1  0
 14 13  1  0
 15 14  1  0
 16 15  1  6
 16 17  1  0
 17 10  1  0
 18 16  1  0
 18 20  1  0
 19 18  2  0
 21 22  1  6
 21 20  1  0
 21 25  1  0
 23 24  2  0
 23 22  1  0
 25 28  1  0
 26 25  2  0
 27 23  1  0
M  END
$$$$
