FMD.pdb
     RDKit          3D

 28 28  0  0  1  0  0  0  0  0999 V2000
    9.4445  -16.0702   25.3451 N   0  0  0  0  0  0  0  0  0  0  0  0
    8.0637  -16.5409   25.5204 C   0  0  1  0  0  0  0  0  0  0  0  0
    7.4253  -15.5327   26.4741 C   0  0  0  0  0  0  0  0  0  0  0  0
    8.5331  -14.8996   27.2371 C   0  0  0  0  0  0  0  0  0  0  0  0
    9.3730  -15.6249   28.0695 C   0  0  0  0  0  0  0  0  0  0  0  0
   10.3954  -15.0169   28.7657 C   0  0  0  0  0  0  0  0  0  0  0  0
   10.5988  -13.6642   28.6425 C   0  0  0  0  0  0  0  0  0  0  0  0
    9.7841  -12.9340   27.8295 C   0  0  0  0  0  0  0  0  0  0  0  0
    8.7590  -13.5469   27.1322 C   0  0  0  0  0  0  0  0  0  0  0  0
    7.3588  -16.5756   24.2264 C   0  0  0  0  0  0  0  0  0  0  0  0
    6.2006  -17.0425   24.1734 O   0  0  0  0  0  0  0  0  0  0  0  0
    7.1242  -12.6471   19.3457 C   0  0  0  0  0  0  0  0  0  0  0  0
    7.6605  -12.2608   21.0120 S   0  0  0  0  0  0  0  0  0  0  0  0
    7.8773  -13.7989   22.0119 C   0  0  0  0  0  0  0  0  0  0  0  0
    7.3490  -14.9026   21.1464 C   0  0  0  0  0  0  0  0  0  0  0  0
    7.4162  -16.2821   21.7045 C   0  0  2  0  0  0  0  0  0  0  0  0
    7.9802  -16.0908   23.0705 N   0  0  0  0  0  0  0  0  0  0  0  0
    8.4240  -17.0914   20.9954 C   0  0  0  0  0  0  0  0  0  0  0  0
    8.1172  -17.6963   19.8970 O   0  0  0  0  0  0  0  0  0  0  0  0
    9.7718  -17.2877   21.4015 N   0  0  0  0  0  0  0  0  0  0  0  0
   10.6807  -18.1289   20.5967 C   0  0  1  0  0  0  0  0  0  0  0  0
   11.4227  -17.2582   19.6182 C   0  0  0  0  0  0  0  0  0  0  0  0
   12.4314  -17.9876   18.8637 C   0  0  0  0  0  0  0  0  0  0  0  0
   12.2268  -19.1007   18.3594 O   0  0  0  0  0  0  0  0  0  0  0  0
   11.5461  -18.8053   21.5836 C   0  0  0  0  0  0  0  0  0  0  0  0
   11.3733  -18.6109   22.8043 O   0  0  0  0  0  0  0  0  0  0  0  0
   13.6985  -17.4155   18.6915 O   0  0  0  0  0  0  0  0  0  0  0  0
   12.5767  -19.6751   21.2512 O   0  0  0  0  0  0  0  0  0  0  0  0
  2  3  1  0
  2  1  1  6
  4  5  2  0
  4  3  1  0
  6  5  1  0
  7  6  2  0
  8  7  1  0
  8  9  2  0
  9  4  1  0
 10  2  1  0
 11 10  2  0
 13 12  1  0
 14 13  1  0
 15 14  1  0
 16 15  1  6
 16 17  1  0
 17 10  1  0
 18 16  1  0
 18 20  1  0
 19 18  2  0
 21 22  1  6
 21 20  1  0
 21 25  1  0
 23 24  2  0
 23 22  1  0
 25 28  1  0
 26 25  2  0
 27 23  1  0
M  END
$$$$
