FMD.pdb
     RDKit          3D

 28 28  0  0  1  0  0  0  0  0999 V2000
    6.1929  -17.5138   25.7798 N   0  0  0  0  0  0  0  0  0  0  0  0
    6.8160  -16.3387   25.1556 C   0  0  1  0  0  0  0  0  0  0  0  0
    7.7208  -15.7544   26.2388 C   0  0  0  0  0  0  0  0  0  0  0  0
    7.2993  -14.3426   26.4374 C   0  0  0  0  0  0  0  0  0  0  0  0
    5.9690  -13.9759   26.5791 C   0  0  0  0  0  0  0  0  0  0  0  0
    5.6015  -12.6606   26.7646 C   0  0  0  0  0  0  0  0  0  0  0  0
    6.5627  -11.6807   26.8122 C   0  0  0  0  0  0  0  0  0  0  0  0
    7.8756  -12.0207   26.6749 C   0  0  0  0  0  0  0  0  0  0  0  0
    8.2412  -13.3415   26.4889 C   0  0  0  0  0  0  0  0  0  0  0  0
    7.5906  -16.7326   23.9650 C   0  0  0  0  0  0  0  0  0  0  0  0
    7.9846  -17.9136   23.8552 O   0  0  0  0  0  0  0  0  0  0  0  0
    8.4506  -11.7005   20.4927 C   0  0  0  0  0  0  0  0  0  0  0  0
    7.1396  -12.6780   19.7585 S   0  0  0  0  0  0  0  0  0  0  0  0
    6.8381  -14.2197   20.7304 C   0  0  0  0  0  0  0  0  0  0  0  0
    8.1763  -14.8883   20.8232 C   0  0  0  0  0  0  0  0  0  0  0  0
    8.2319  -16.1750   21.5719 C   0  0  2  0  0  0  0  0  0  0  0  0
    7.8811  -15.7939   22.9691 N   0  0  0  0  0  0  0  0  0  0  0  0
    9.6152  -16.6773   21.6588 C   0  0  0  0  0  0  0  0  0  0  0  0
   10.2464  -17.0334   20.5906 O   0  0  0  0  0  0  0  0  0  0  0  0
   10.3785  -16.8162   22.8497 N   0  0  0  0  0  0  0  0  0  0  0  0
   11.8326  -17.0656   22.7815 C   0  0  1  0  0  0  0  0  0  0  0  0
   12.4766  -16.0032   21.9315 C   0  0  0  0  0  0  0  0  0  0  0  0
   13.9259  -15.9746   22.0635 C   0  0  0  0  0  0  0  0  0  0  0  0
   14.5454  -16.6677   22.8826 O   0  0  0  0  0  0  0  0  0  0  0  0
   12.2833  -17.0727   24.1877 C   0  0  0  0  0  0  0  0  0  0  0  0
   13.4991  -17.1635   24.4545 O   0  0  0  0  0  0  0  0  0  0  0  0
   14.6686  -15.1274   21.2309 O   0  0  0  0  0  0  0  0  0  0  0  0
   11.4310  -16.9822   25.2807 O   0  0  0  0  0  0  0  0  0  0  0  0
  2  3  1  0
  2  1  1  1
  4  5  2  0
  4  3  1  0
  6  5  1  0
  7  6  2  0
  8  7  1  0
  8  9  2  0
  9  4  1  0
 10  2  1  0
 11 10  2  0
 13 12  1  0
 14 13  1  0
 15 14  1  0
 16 15  1  6
 16 17  1  0
 17 10  1  0
 18 16  1  0
 18 20  1  0
 19 18  2  0
 21 22  1  6
 21 20  1  0
 21 25  1  0
 23 24  2  0
 23 22  1  0
 25 28  1  0
 26 25  2  0
 27 23  1  0
M  END
$$$$
