FMD.pdb
     RDKit          3D

 28 28  0  0  1  0  0  0  0  0999 V2000
    7.5273  -16.6353   26.4505 N   0  0  0  0  0  0  0  0  0  0  0  0
    6.5006  -16.8557   25.4227 C   0  0  1  0  0  0  0  0  0  0  0  0
    5.6103  -15.6160   25.4876 C   0  0  0  0  0  0  0  0  0  0  0  0
    6.4610  -14.4993   25.9771 C   0  0  0  0  0  0  0  0  0  0  0  0
    5.9620  -13.2234   26.1942 C   0  0  0  0  0  0  0  0  0  0  0  0
    6.7691  -12.2037   26.6507 C   0  0  0  0  0  0  0  0  0  0  0  0
    8.0986  -12.4415   26.9004 C   0  0  0  0  0  0  0  0  0  0  0  0
    8.6081  -13.6887   26.6933 C   0  0  0  0  0  0  0  0  0  0  0  0
    7.7956  -14.7099   26.2352 C   0  0  0  0  0  0  0  0  0  0  0  0
    7.1199  -17.0020   24.0932 C   0  0  0  0  0  0  0  0  0  0  0  0
    7.4207  -18.1430   23.6811 O   0  0  0  0  0  0  0  0  0  0  0  0
    8.0877  -11.5529   21.0371 C   0  0  0  0  0  0  0  0  0  0  0  0
    7.7757  -12.5917   19.6099 S   0  0  0  0  0  0  0  0  0  0  0  0
    8.1989  -14.3540   19.9675 C   0  0  0  0  0  0  0  0  0  0  0  0
    7.7034  -14.5975   21.3608 C   0  0  0  0  0  0  0  0  0  0  0  0
    7.9270  -15.9588   21.9230 C   0  0  2  0  0  0  0  0  0  0  0  0
    7.3676  -15.8753   23.3017 N   0  0  0  0  0  0  0  0  0  0  0  0
    9.3645  -16.2206   22.1194 C   0  0  0  0  0  0  0  0  0  0  0  0
    9.9946  -15.6825   23.1093 O   0  0  0  0  0  0  0  0  0  0  0  0
   10.1803  -17.0490   21.3020 N   0  0  0  0  0  0  0  0  0  0  0  0
   11.6147  -17.2226   21.6086 C   0  0  1  0  0  0  0  0  0  0  0  0
   11.8894  -18.6777   21.8791 C   0  0  0  0  0  0  0  0  0  0  0  0
   13.3108  -18.9781   21.9677 C   0  0  0  0  0  0  0  0  0  0  0  0
   14.1079  -18.2949   22.6258 O   0  0  0  0  0  0  0  0  0  0  0  0
   12.3231  -16.6804   20.4319 C   0  0  0  0  0  0  0  0  0  0  0  0
   11.7372  -16.5959   19.3331 O   0  0  0  0  0  0  0  0  0  0  0  0
   13.8156  -20.0900   21.2810 O   0  0  0  0  0  0  0  0  0  0  0  0
   13.6399  -16.2388   20.4490 O   0  0  0  0  0  0  0  0  0  0  0  0
  2  3  1  0
  2  1  1  1
  4  5  2  0
  4  3  1  0
  6  5  1  0
  7  6  2  0
  8  7  1  0
  8  9  2  0
  9  4  1  0
 10  2  1  0
 11 10  2  0
 13 12  1  0
 14 13  1  0
 15 14  1  0
 16 15  1  1
 16 17  1  0
 17 10  1  0
 18 16  1  0
 18 20  1  0
 19 18  2  0
 21 22  1  6
 21 20  1  0
 21 25  1  0
 23 24  2  0
 23 22  1  0
 25 28  1  0
 26 25  2  0
 27 23  1  0
M  END
$$$$
