GHT.pdb
     RDKit          3D

 22 22  0  0  1  0  0  0  0  0999 V2000
    7.8263  -18.7365   19.0269 N   0  0  0  0  0  0  0  0  0  0  0  0
    7.0994  -18.4740   20.2298 C   0  0  0  0  0  0  0  0  0  0  0  0
    7.7794  -17.4270   21.0765 C   0  0  0  0  0  0  0  0  0  0  0  0
    8.8234  -17.7675   21.6310 O   0  0  0  0  0  0  0  0  0  0  0  0
    7.2193  -16.1424   21.2005 N   0  0  0  0  0  0  0  0  0  0  0  0
    7.6816  -15.0502   22.0076 C   0  0  1  0  0  0  0  0  0  0  0  0
    7.2508  -13.6727   21.5335 C   0  0  0  0  0  0  0  0  0  0  0  0
    7.6832  -13.4084   20.1383 C   0  0  0  0  0  0  0  0  0  0  0  0
    8.6063  -12.5231   19.6633 C   0  0  0  0  0  0  0  0  0  0  0  0
    8.6501  -12.6501   18.3212 N   0  0  0  0  0  0  0  0  0  0  0  0
    7.7784  -13.5917   17.9444 C   0  0  0  0  0  0  0  0  0  0  0  0
    7.1918  -14.0526   19.0407 N   0  0  0  0  0  0  0  0  0  0  0  0
    7.6039  -15.2634   23.4387 C   0  0  0  0  0  0  0  0  0  0  0  0
    6.6849  -14.8058   24.1825 O   0  0  0  0  0  0  0  0  0  0  0  0
    6.3717  -17.5144   25.2570 C   0  0  0  0  0  0  0  0  0  0  0  0
    7.8036  -17.6838   25.6526 C   0  0  1  0  0  0  0  0  0  0  0  0
    8.4497  -18.5102   24.7330 O   0  0  0  0  0  0  0  0  0  0  0  0
    8.4694  -16.3028   25.5732 C   0  0  2  0  0  0  0  0  0  0  0  0
    8.5946  -16.0324   24.1333 N   0  0  0  0  0  0  0  0  0  0  0  0
    9.8123  -16.4561   26.1614 C   0  0  0  0  0  0  0  0  0  0  0  0
    9.9601  -16.6125   27.5204 O   0  0  0  0  0  0  0  0  0  0  0  0
   10.8230  -16.4454   25.4339 O   0  0  0  0  0  0  0  0  0  0  0  0
  2  1  1  0
  2  3  1  0
  3  4  2  0
  5  3  1  0
  5  6  1  0
  6 13  1  0
  6  7  1  1
  8 12  1  0
  8  7  1  0
  9  8  2  0
 10  9  1  0
 10 11  1  0
 11 12  2  0
 13 14  2  0
 13 19  1  0
 16 15  1  6
 16 18  1  0
 17 16  1  0
 18 20  1  0
 18 19  1  6
 20 22  2  0
 20 21  1  0
M  END
$$$$
