GHT.pdb
     RDKit          3D

 22 22  0  0  1  0  0  0  0  0999 V2000
   10.0778  -19.1993   21.7387 N   0  0  0  0  0  0  0  0  0  0  0  0
   10.6567  -18.1658   20.9380 C   0  0  0  0  0  0  0  0  0  0  0  0
   10.3946  -16.7976   21.5167 C   0  0  0  0  0  0  0  0  0  0  0  0
   11.3847  -16.1445   21.8431 O   0  0  0  0  0  0  0  0  0  0  0  0
    9.0757  -16.3293   21.6596 N   0  0  0  0  0  0  0  0  0  0  0  0
    8.6330  -15.1000   22.2519 C   0  0  1  0  0  0  0  0  0  0  0  0
    7.5063  -14.3989   21.5125 C   0  0  0  0  0  0  0  0  0  0  0  0
    7.9005  -14.0250   20.1312 C   0  0  0  0  0  0  0  0  0  0  0  0
    9.1145  -14.1151   19.5152 C   0  0  0  0  0  0  0  0  0  0  0  0
    8.9761  -13.6510   18.2564 N   0  0  0  0  0  0  0  0  0  0  0  0
    7.7071  -13.2729   18.0689 C   0  0  0  0  0  0  0  0  0  0  0  0
    7.0535  -13.4976   19.2007 N   0  0  0  0  0  0  0  0  0  0  0  0
    8.5065  -15.1201   23.6952 C   0  0  0  0  0  0  0  0  0  0  0  0
    7.8419  -14.2757   24.3681 O   0  0  0  0  0  0  0  0  0  0  0  0
    6.4746  -15.9300   25.1838 C   0  0  0  0  0  0  0  0  0  0  0  0
    7.3646  -16.9343   25.8432 C   0  0  1  0  0  0  0  0  0  0  0  0
    7.4313  -18.0873   25.0607 O   0  0  0  0  0  0  0  0  0  0  0  0
    8.7766  -16.3342   25.8949 C   0  0  2  0  0  0  0  0  0  0  0  0
    9.1459  -16.1303   24.4863 N   0  0  0  0  0  0  0  0  0  0  0  0
    9.6451  -17.3692   26.4841 C   0  0  0  0  0  0  0  0  0  0  0  0
    9.5683  -17.6561   27.8276 O   0  0  0  0  0  0  0  0  0  0  0  0
   10.4547  -17.9919   25.7716 O   0  0  0  0  0  0  0  0  0  0  0  0
  2  1  1  0
  2  3  1  0
  3  4  2  0
  5  3  1  0
  5  6  1  0
  6 13  1  0
  6  7  1  6
  8 12  1  0
  8  7  1  0
  9  8  2  0
 10  9  1  0
 10 11  1  0
 11 12  2  0
 13 14  2  0
 13 19  1  0
 16 15  1  6
 16 18  1  0
 17 16  1  0
 18 20  1  0
 18 19  1  6
 20 22  2  0
 20 21  1  0
M  END
$$$$
