GHT.pdb
     RDKit          3D

 22 22  0  0  1  0  0  0  0  0999 V2000
    8.5642  -19.6047   18.0812 N   0  0  0  0  0  0  0  0  0  0  0  0
    8.3258  -18.2102   17.8743 C   0  0  0  0  0  0  0  0  0  0  0  0
    9.1021  -17.3599   18.8491 C   0  0  0  0  0  0  0  0  0  0  0  0
   10.2922  -17.1842   18.5922 O   0  0  0  0  0  0  0  0  0  0  0  0
    8.4645  -16.8154   19.9787 N   0  0  0  0  0  0  0  0  0  0  0  0
    9.0140  -15.9272   20.9621 C   0  0  1  0  0  0  0  0  0  0  0  0
    8.2613  -14.6197   21.1402 C   0  0  0  0  0  0  0  0  0  0  0  0
    8.0733  -13.9104   19.8500 C   0  0  0  0  0  0  0  0  0  0  0  0
    8.7021  -12.8015   19.3636 C   0  0  0  0  0  0  0  0  0  0  0  0
    8.1888  -12.5349   18.1451 N   0  0  0  0  0  0  0  0  0  0  0  0
    7.2553  -13.4480   17.8567 C   0  0  0  0  0  0  0  0  0  0  0  0
    7.1826  -14.2816   18.8855 N   0  0  0  0  0  0  0  0  0  0  0  0
    9.4525  -16.5600   22.1897 C   0  0  0  0  0  0  0  0  0  0  0  0
    8.6798  -16.9044   23.1340 O   0  0  0  0  0  0  0  0  0  0  0  0
   13.0953  -19.0878   24.3096 C   0  0  0  0  0  0  0  0  0  0  0  0
   12.5764  -18.3031   23.1475 C   0  0  1  0  0  0  0  0  0  0  0  0
   12.2908  -19.1657   22.0890 O   0  0  0  0  0  0  0  0  0  0  0  0
   11.2527  -17.6583   23.5820 C   0  0  2  0  0  0  0  0  0  0  0  0
   10.8365  -16.8490   22.4271 N   0  0  0  0  0  0  0  0  0  0  0  0
   11.5766  -16.7690   24.7121 C   0  0  0  0  0  0  0  0  0  0  0  0
   11.5951  -17.2599   25.9973 O   0  0  0  0  0  0  0  0  0  0  0  0
   11.8358  -15.5673   24.5131 O   0  0  0  0  0  0  0  0  0  0  0  0
  2  1  1  0
  2  3  1  0
  3  4  2  0
  5  3  1  0
  5  6  1  0
  6 13  1  0
  6  7  1  1
  8 12  1  0
  8  7  1  0
  9  8  2  0
 10  9  1  0
 10 11  1  0
 11 12  2  0
 13 14  2  0
 13 19  1  0
 16 15  1  1
 16 18  1  0
 17 16  1  0
 18 20  1  0
 18 19  1  6
 20 22  2  0
 20 21  1  0
M  END
$$$$
