GHT.pdb
     RDKit          3D

 22 22  0  0  1  0  0  0  0  0999 V2000
    8.6215  -18.9227   17.9462 N   0  0  0  0  0  0  0  0  0  0  0  0
    7.9564  -18.5206   19.1462 C   0  0  0  0  0  0  0  0  0  0  0  0
    8.8245  -17.6226   19.9922 C   0  0  0  0  0  0  0  0  0  0  0  0
    9.9949  -17.9732   20.1360 O   0  0  0  0  0  0  0  0  0  0  0  0
    8.2884  -16.4565   20.5683 N   0  0  0  0  0  0  0  0  0  0  0  0
    8.9629  -15.4741   21.3670 C   0  0  1  0  0  0  0  0  0  0  0  0
    8.3611  -14.0802   21.3161 C   0  0  0  0  0  0  0  0  0  0  0  0
    8.0423  -13.6665   19.9267 C   0  0  0  0  0  0  0  0  0  0  0  0
    6.8477  -13.3045   19.3758 C   0  0  0  0  0  0  0  0  0  0  0  0
    7.0618  -13.0128   18.0765 N   0  0  0  0  0  0  0  0  0  0  0  0
    8.3592  -13.1829   17.8001 C   0  0  0  0  0  0  0  0  0  0  0  0
    8.9554  -13.5783   18.9167 N   0  0  0  0  0  0  0  0  0  0  0  0
    9.3725  -15.9226   22.6826 C   0  0  0  0  0  0  0  0  0  0  0  0
    8.6627  -15.8193   23.7280 O   0  0  0  0  0  0  0  0  0  0  0  0
    9.7849  -19.0692   24.0752 C   0  0  0  0  0  0  0  0  0  0  0  0
   11.1729  -18.5146   24.1091 C   0  0  1  0  0  0  0  0  0  0  0  0
   11.8151  -18.7830   22.9000 O   0  0  0  0  0  0  0  0  0  0  0  0
   11.0560  -16.9892   24.2361 C   0  0  2  0  0  0  0  0  0  0  0  0
   10.6510  -16.5344   22.8978 N   0  0  0  0  0  0  0  0  0  0  0  0
   12.4121  -16.4932   24.5325 C   0  0  0  0  0  0  0  0  0  0  0  0
   12.9730  -16.7062   25.7707 O   0  0  0  0  0  0  0  0  0  0  0  0
   13.0607  -15.8779   23.6655 O   0  0  0  0  0  0  0  0  0  0  0  0
  2  1  1  0
  2  3  1  0
  3  4  2  0
  5  3  1  0
  5  6  1  0
  6 13  1  0
  6  7  1  1
  8 12  1  0
  8  7  1  0
  9  8  2  0
 10  9  1  0
 10 11  1  0
 11 12  2  0
 13 14  2  0
 13 19  1  0
 16 15  1  6
 16 18  1  0
 17 16  1  0
 18 20  1  0
 18 19  1  6
 20 22  2  0
 20 21  1  0
M  END
$$$$
