GHT.pdb
     RDKit          3D

 22 22  0  0  1  0  0  0  0  0999 V2000
    9.0977  -15.4230   12.1786 N   0  0  0  0  0  0  0  0  0  0  0  0
    9.4472  -14.5625   13.2656 C   0  0  0  0  0  0  0  0  0  0  0  0
    8.7447  -14.9590   14.5404 C   0  0  0  0  0  0  0  0  0  0  0  0
    7.7372  -14.3157   14.8308 O   0  0  0  0  0  0  0  0  0  0  0  0
    9.2452  -16.0124   15.3272 N   0  0  0  0  0  0  0  0  0  0  0  0
    8.8118  -16.4258   16.6307 C   0  0  1  0  0  0  0  0  0  0  0  0
    8.7588  -17.9289   16.8444 C   0  0  0  0  0  0  0  0  0  0  0  0
    7.9144  -18.6022   15.8261 C   0  0  0  0  0  0  0  0  0  0  0  0
    6.7604  -18.1814   15.2322 C   0  0  0  0  0  0  0  0  0  0  0  0
    6.3635  -19.1409   14.3713 N   0  0  0  0  0  0  0  0  0  0  0  0
    7.2392  -20.1509   14.4112 C   0  0  0  0  0  0  0  0  0  0  0  0
    8.1786  -19.8286   15.2900 N   0  0  0  0  0  0  0  0  0  0  0  0
    9.3599  -15.6637   17.7345 C   0  0  0  0  0  0  0  0  0  0  0  0
   10.5865  -15.3698   17.8632 O   0  0  0  0  0  0  0  0  0  0  0  0
    7.6085  -12.5644   19.4882 C   0  0  0  0  0  0  0  0  0  0  0  0
    7.9311  -13.6222   20.4945 C   0  0  1  0  0  0  0  0  0  0  0  0
    6.8420  -14.4822   20.6367 O   0  0  0  0  0  0  0  0  0  0  0  0
    9.0970  -14.4493   19.9349 C   0  0  2  0  0  0  0  0  0  0  0  0
    8.5238  -15.1739   18.7911 N   0  0  0  0  0  0  0  0  0  0  0  0
    9.4658  -15.4112   20.9892 C   0  0  0  0  0  0  0  0  0  0  0  0
   10.0375  -14.9705   22.1606 O   0  0  0  0  0  0  0  0  0  0  0  0
    9.2633  -16.6295   20.8286 O   0  0  0  0  0  0  0  0  0  0  0  0
  2  1  1  0
  2  3  1  0
  3  4  2  0
  5  3  1  0
  5  6  1  0
  6 13  1  0
  6  7  1  1
  8 12  1  0
  8  7  1  0
  9  8  2  0
 10  9  1  0
 10 11  1  0
 11 12  2  0
 13 14  2  0
 13 19  1  0
 16 15  1  6
 16 18  1  0
 17 16  1  0
 18 20  1  0
 18 19  1  6
 20 22  2  0
 20 21  1  0
M  END
$$$$
