GHT.pdb
     RDKit          3D

 22 22  0  0  1  0  0  0  0  0999 V2000
   12.5812  -16.9738   20.6414 N   0  0  0  0  0  0  0  0  0  0  0  0
   11.5678  -17.4126   21.5495 C   0  0  0  0  0  0  0  0  0  0  0  0
   10.7967  -16.2527   22.1290 C   0  0  0  0  0  0  0  0  0  0  0  0
   11.4527  -15.4167   22.7488 O   0  0  0  0  0  0  0  0  0  0  0  0
    9.4040  -16.1670   21.9492 N   0  0  0  0  0  0  0  0  0  0  0  0
    8.4894  -15.2425   22.5548 C   0  0  1  0  0  0  0  0  0  0  0  0
    7.2749  -14.8935   21.7116 C   0  0  0  0  0  0  0  0  0  0  0  0
    7.6607  -14.3218   20.3973 C   0  0  0  0  0  0  0  0  0  0  0  0
    8.8963  -14.0115   19.9090 C   0  0  0  0  0  0  0  0  0  0  0  0
    8.7380  -13.5167   18.6643 N   0  0  0  0  0  0  0  0  0  0  0  0
    7.4355  -13.5095   18.3612 C   0  0  0  0  0  0  0  0  0  0  0  0
    6.7808  -13.9957   19.4069 N   0  0  0  0  0  0  0  0  0  0  0  0
    8.2210  -15.4702   23.9605 C   0  0  0  0  0  0  0  0  0  0  0  0
    8.3177  -16.5961   24.5352 O   0  0  0  0  0  0  0  0  0  0  0  0
    7.8679  -12.2971   26.7275 C   0  0  0  0  0  0  0  0  0  0  0  0
    6.8116  -13.3552   26.7121 C   0  0  1  0  0  0  0  0  0  0  0  0
    5.8260  -13.0208   25.7831 O   0  0  0  0  0  0  0  0  0  0  0  0
    7.4703  -14.6560   26.2318 C   0  0  2  0  0  0  0  0  0  0  0  0
    7.8144  -14.4014   24.8251 N   0  0  0  0  0  0  0  0  0  0  0  0
    6.4293  -15.6973   26.3007 C   0  0  0  0  0  0  0  0  0  0  0  0
    6.0279  -16.1967   27.5183 O   0  0  0  0  0  0  0  0  0  0  0  0
    5.9051  -16.1332   25.2585 O   0  0  0  0  0  0  0  0  0  0  0  0
  2  1  1  0
  2  3  1  0
  3  4  2  0
  5  3  1  0
  5  6  1  0
  6 13  1  0
  6  7  1  6
  8 12  1  0
  8  7  1  0
  9  8  2  0
 10  9  1  0
 10 11  1  0
 11 12  2  0
 13 14  2  0
 13 19  1  0
 16 15  1  6
 16 18  1  0
 17 16  1  0
 18 20  1  0
 18 19  1  6
 20 22  2  0
 20 21  1  0
M  END
$$$$
