GHT.pdb
     RDKit          3D

 22 22  0  0  1  0  0  0  0  0999 V2000
   11.2773  -24.3413   23.4194 N   0  0  0  0  0  0  0  0  0  0  0  0
   11.2045  -24.6909   24.8038 C   0  0  0  0  0  0  0  0  0  0  0  0
   11.8953  -23.6710   25.6746 C   0  0  0  0  0  0  0  0  0  0  0  0
   13.1196  -23.7612   25.7542 O   0  0  0  0  0  0  0  0  0  0  0  0
   11.1457  -22.6858   26.3432 N   0  0  0  0  0  0  0  0  0  0  0  0
   11.6294  -21.5985   27.1443 C   0  0  1  0  0  0  0  0  0  0  0  0
   11.2201  -20.2158   26.6665 C   0  0  0  0  0  0  0  0  0  0  0  0
   11.5088  -20.0219   25.2235 C   0  0  0  0  0  0  0  0  0  0  0  0
   12.6494  -19.5905   24.6116 C   0  0  0  0  0  0  0  0  0  0  0  0
   12.4273  -19.5791   23.2814 N   0  0  0  0  0  0  0  0  0  0  0  0
   11.1774  -19.9921   23.0451 C   0  0  0  0  0  0  0  0  0  0  0  0
   10.6188  -20.2608   24.2174 N   0  0  0  0  0  0  0  0  0  0  0  0
   11.5537  -21.8050   28.5765 C   0  0  0  0  0  0  0  0  0  0  0  0
   10.5009  -21.6566   29.2672 O   0  0  0  0  0  0  0  0  0  0  0  0
   13.3637  -24.0168   32.4877 C   0  0  0  0  0  0  0  0  0  0  0  0
   13.3868  -23.7401   31.0185 C   0  0  1  0  0  0  0  0  0  0  0  0
   12.7120  -24.7547   30.3393 O   0  0  0  0  0  0  0  0  0  0  0  0
   12.6098  -22.4371   30.7834 C   0  0  2  0  0  0  0  0  0  0  0  0
   12.7030  -22.2047   29.3345 N   0  0  0  0  0  0  0  0  0  0  0  0
   13.3483  -21.3800   31.4976 C   0  0  0  0  0  0  0  0  0  0  0  0
   14.2490  -20.5876   30.8240 O   0  0  0  0  0  0  0  0  0  0  0  0
   13.1631  -21.1956   32.7152 O   0  0  0  0  0  0  0  0  0  0  0  0
  2  1  1  0
  2  3  1  0
  3  4  2  0
  5  3  1  0
  5  6  1  0
  6 13  1  0
  6  7  1  1
  8 12  1  0
  8  7  1  0
  9  8  2  0
 10  9  1  0
 10 11  1  0
 11 12  2  0
 13 14  2  0
 13 19  1  0
 16 15  1  1
 16 18  1  0
 17 16  1  0
 18 20  1  0
 18 19  1  6
 20 22  2  0
 20 21  1  0
M  END
$$$$
