GHT.pdb
     RDKit          3D

 22 22  0  0  1  0  0  0  0  0999 V2000
   11.4810  -16.2558   16.6813 N   0  0  0  0  0  0  0  0  0  0  0  0
   11.5257  -16.7452   18.0239 C   0  0  0  0  0  0  0  0  0  0  0  0
   11.0935  -15.6945   19.0163 C   0  0  0  0  0  0  0  0  0  0  0  0
   11.9214  -14.8254   19.2859 O   0  0  0  0  0  0  0  0  0  0  0  0
    9.8058  -15.7399   19.5811 N   0  0  0  0  0  0  0  0  0  0  0  0
    9.2116  -14.8161   20.5037 C   0  0  1  0  0  0  0  0  0  0  0  0
    7.8504  -14.2817   20.0922 C   0  0  0  0  0  0  0  0  0  0  0  0
    7.7760  -14.0251   18.6322 C   0  0  0  0  0  0  0  0  0  0  0  0
    7.8810  -12.8507   17.9457 C   0  0  0  0  0  0  0  0  0  0  0  0
    7.7467  -13.1250   16.6319 N   0  0  0  0  0  0  0  0  0  0  0  0
    7.5605  -14.4404   16.4787 C   0  0  0  0  0  0  0  0  0  0  0  0
    7.5776  -14.9881   17.6863 N   0  0  0  0  0  0  0  0  0  0  0  0
    9.3386  -15.1721   21.9026 C   0  0  0  0  0  0  0  0  0  0  0  0
    8.8143  -14.5237   22.8575 O   0  0  0  0  0  0  0  0  0  0  0  0
    8.5700  -18.4256   23.5944 C   0  0  0  0  0  0  0  0  0  0  0  0
   10.0275  -18.1709   23.8092 C   0  0  1  0  0  0  0  0  0  0  0  0
   10.7621  -18.7444   22.7711 O   0  0  0  0  0  0  0  0  0  0  0  0
   10.2447  -16.6528   23.7389 C   0  0  2  0  0  0  0  0  0  0  0  0
   10.0911  -16.3207   22.3148 N   0  0  0  0  0  0  0  0  0  0  0  0
   11.6402  -16.4146   24.1497 C   0  0  0  0  0  0  0  0  0  0  0  0
   12.0022  -16.5271   25.4724 O   0  0  0  0  0  0  0  0  0  0  0  0
   12.5020  -16.1100   23.3040 O   0  0  0  0  0  0  0  0  0  0  0  0
  2  1  1  0
  2  3  1  0
  3  4  2  0
  5  3  1  0
  5  6  1  0
  6 13  1  0
  6  7  1  6
  8 12  1  0
  8  7  1  0
  9  8  2  0
 10  9  1  0
 10 11  1  0
 11 12  2  0
 13 14  2  0
 13 19  1  0
 16 15  1  6
 16 18  1  0
 17 16  1  0
 18 20  1  0
 18 19  1  6
 20 22  2  0
 20 21  1  0
M  END
$$$$
