LAS.pdb
     RDKit          3D

 20 19  0  0  1  0  0  0  0  0999 V2000
    7.3163  -12.2612   19.7349 C   0  0  0  0  0  0  0  0  0  0  0  0
    7.9491  -13.6055   20.0237 C   0  0  1  0  0  0  0  0  0  0  0  0
    9.3823  -13.6656   19.5474 C   0  0  0  0  0  0  0  0  0  0  0  0
    7.8942  -13.8301   21.5204 C   0  0  0  0  0  0  0  0  0  0  0  0
    8.4978  -15.1790   21.7972 C   0  0  2  0  0  0  0  0  0  0  0  0
    7.8784  -16.2340   21.0592 N   0  0  0  0  0  0  0  0  0  0  0  0
    8.4912  -15.4529   23.2757 C   0  0  0  0  0  0  0  0  0  0  0  0
    9.0971  -14.6548   24.0359 O   0  0  0  0  0  0  0  0  0  0  0  0
    6.6780  -17.3031   25.8806 C   0  0  0  0  0  0  0  0  0  0  0  0
    7.9833  -16.8410   25.2573 C   0  0  2  0  0  0  0  0  0  0  0  0
    7.8420  -16.5550   23.8478 N   0  0  0  0  0  0  0  0  0  0  0  0
    8.9799  -17.9551   25.4488 C   0  0  0  0  0  0  0  0  0  0  0  0
    9.2521  -18.3773   26.6017 O   0  0  0  0  0  0  0  0  0  0  0  0
   10.6201  -19.5174   22.1410 O   0  0  0  0  0  0  0  0  0  0  0  0
   10.5347  -20.4465   23.1898 C   0  0  0  0  0  0  0  0  0  0  0  0
   10.5670  -19.6795   24.5087 C   0  0  2  0  0  0  0  0  0  0  0  0
    9.6343  -18.5544   24.3393 N   0  0  0  0  0  0  0  0  0  0  0  0
   11.9342  -19.1615   24.6701 C   0  0  0  0  0  0  0  0  0  0  0  0
   12.1860  -17.8154   24.5929 O   0  0  0  0  0  0  0  0  0  0  0  0
   12.8705  -19.9502   24.8783 O   0  0  0  0  0  0  0  0  0  0  0  0
  2  1  1  1
  3  2  1  0
  4  2  1  0
  4  5  1  0
  5  6  1  6
  7  5  1  0
  7  8  2  0
 10  9  1  6
 10 11  1  0
 10 12  1  0
 11  7  1  0
 12 13  2  0
 15 14  1  0
 16 15  1  6
 17 12  1  0
 17 16  1  0
 18 19  1  0
 18 16  1  0
 20 18  2  0
M  END
$$$$
