LAS.pdb
     RDKit          3D

 20 19  0  0  1  0  0  0  0  0999 V2000
    7.8307  -12.0630   21.0713 C   0  0  0  0  0  0  0  0  0  0  0  0
    7.6941  -13.3348   20.2620 C   0  0  1  0  0  0  0  0  0  0  0  0
    8.0945  -13.1282   18.8192 C   0  0  0  0  0  0  0  0  0  0  0  0
    8.5817  -14.3845   20.8974 C   0  0  0  0  0  0  0  0  0  0  0  0
    8.3305  -15.6822   20.1809 C   0  0  2  0  0  0  0  0  0  0  0  0
    6.9584  -16.0799   20.2028 N   0  0  0  0  0  0  0  0  0  0  0  0
    9.2318  -16.7549   20.7267 C   0  0  0  0  0  0  0  0  0  0  0  0
    8.8005  -17.4846   21.6560 O   0  0  0  0  0  0  0  0  0  0  0  0
   12.6028  -18.2770   19.9849 C   0  0  0  0  0  0  0  0  0  0  0  0
   11.3353  -18.0522   20.7903 C   0  0  2  0  0  0  0  0  0  0  0  0
   10.5298  -16.9811   20.2497 N   0  0  0  0  0  0  0  0  0  0  0  0
   11.7624  -17.7037   22.1930 C   0  0  0  0  0  0  0  0  0  0  0  0
   12.1755  -16.5477   22.4661 O   0  0  0  0  0  0  0  0  0  0  0  0
    9.9319  -18.0684   25.3519 O   0  0  0  0  0  0  0  0  0  0  0  0
   11.0728  -18.8661   25.5320 C   0  0  0  0  0  0  0  0  0  0  0  0
   12.1659  -18.3504   24.6003 C   0  0  2  0  0  0  0  0  0  0  0  0
   11.7102  -18.6654   23.2373 N   0  0  0  0  0  0  0  0  0  0  0  0
   13.3829  -19.1205   24.8994 C   0  0  0  0  0  0  0  0  0  0  0  0
   13.8720  -20.0333   24.0001 O   0  0  0  0  0  0  0  0  0  0  0  0
   13.9740  -18.9431   25.9770 O   0  0  0  0  0  0  0  0  0  0  0  0
  2  1  1  1
  3  2  1  0
  4  2  1  0
  4  5  1  0
  5  6  1  1
  7  5  1  0
  7  8  2  0
 10  9  1  6
 10 11  1  0
 10 12  1  0
 11  7  1  0
 12 13  2  0
 15 14  1  0
 16 15  1  1
 17 12  1  0
 17 16  1  0
 18 19  1  0
 18 16  1  0
 20 18  2  0
M  END
$$$$
