LAS.pdb
     RDKit          3D

 20 19  0  0  1  0  0  0  0  0999 V2000
    8.2476  -12.1048   27.3557 C   0  0  0  0  0  0  0  0  0  0  0  0
    7.2273  -13.1581   26.9808 C   0  0  1  0  0  0  0  0  0  0  0  0
    5.8987  -12.5440   26.6036 C   0  0  0  0  0  0  0  0  0  0  0  0
    7.7823  -13.9432   25.8108 C   0  0  0  0  0  0  0  0  0  0  0  0
    6.8073  -15.0456   25.5034 C   0  0  2  0  0  0  0  0  0  0  0  0
    6.7292  -16.0308   26.5352 N   0  0  0  0  0  0  0  0  0  0  0  0
    7.1273  -15.6591   24.1684 C   0  0  0  0  0  0  0  0  0  0  0  0
    7.3090  -16.9022   24.1081 O   0  0  0  0  0  0  0  0  0  0  0  0
    7.2951  -14.6133   20.5475 C   0  0  0  0  0  0  0  0  0  0  0  0
    7.4391  -15.5704   21.7176 C   0  0  2  0  0  0  0  0  0  0  0  0
    7.2329  -14.9123   22.9875 N   0  0  0  0  0  0  0  0  0  0  0  0
    8.8381  -16.1277   21.6594 C   0  0  0  0  0  0  0  0  0  0  0  0
    9.2167  -16.8005   20.6665 O   0  0  0  0  0  0  0  0  0  0  0  0
   13.3339  -15.7065   22.1390 O   0  0  0  0  0  0  0  0  0  0  0  0
   12.0003  -15.2705   22.1811 C   0  0  0  0  0  0  0  0  0  0  0  0
   11.1351  -16.4315   22.6632 C   0  0  2  0  0  0  0  0  0  0  0  0
    9.7606  -15.9095   22.7175 N   0  0  0  0  0  0  0  0  0  0  0  0
   11.5853  -16.7660   24.0230 C   0  0  0  0  0  0  0  0  0  0  0  0
   12.8208  -17.3231   24.2337 O   0  0  0  0  0  0  0  0  0  0  0  0
   10.8399  -16.5420   24.9906 O   0  0  0  0  0  0  0  0  0  0  0  0
  2  1  1  6
  3  2  1  0
  4  2  1  0
  4  5  1  0
  5  6  1  1
  7  5  1  0
  7  8  2  0
 10  9  1  6
 10 11  1  0
 10 12  1  0
 11  7  1  0
 12 13  2  0
 15 14  1  0
 16 15  1  1
 17 12  1  0
 17 16  1  0
 18 19  1  0
 18 16  1  0
 20 18  2  0
M  END
$$$$
