LAS.pdb
     RDKit          3D

 20 19  0  0  1  0  0  0  0  0999 V2000
    7.1024  -11.8216   27.3526 C   0  0  0  0  0  0  0  0  0  0  0  0
    6.4711  -12.7263   26.3162 C   0  0  1  0  0  0  0  0  0  0  0  0
    6.3785  -12.0541   24.9656 C   0  0  0  0  0  0  0  0  0  0  0  0
    7.3221  -13.9747   26.2127 C   0  0  0  0  0  0  0  0  0  0  0  0
    6.6401  -14.9077   25.2510 C   0  0  2  0  0  0  0  0  0  0  0  0
    5.4932  -15.5510   25.8097 N   0  0  0  0  0  0  0  0  0  0  0  0
    7.6293  -15.9019   24.7086 C   0  0  0  0  0  0  0  0  0  0  0  0
    7.9075  -16.9116   25.4049 O   0  0  0  0  0  0  0  0  0  0  0  0
    9.7006  -16.4433   21.5955 C   0  0  0  0  0  0  0  0  0  0  0  0
    9.1911  -16.7535   22.9919 C   0  0  2  0  0  0  0  0  0  0  0  0
    8.2565  -15.7575   23.4639 N   0  0  0  0  0  0  0  0  0  0  0  0
   10.3932  -16.7880   23.9002 C   0  0  0  0  0  0  0  0  0  0  0  0
   11.0682  -15.7471   24.1060 O   0  0  0  0  0  0  0  0  0  0  0  0
   10.6287  -19.5750   26.4918 O   0  0  0  0  0  0  0  0  0  0  0  0
   11.6473  -18.6283   26.6830 C   0  0  0  0  0  0  0  0  0  0  0  0
   12.0420  -18.0716   25.3180 C   0  0  2  0  0  0  0  0  0  0  0  0
   10.7934  -17.9895   24.5441 N   0  0  0  0  0  0  0  0  0  0  0  0
   12.9391  -19.0575   24.6960 C   0  0  0  0  0  0  0  0  0  0  0  0
   14.1424  -19.3714   25.2746 O   0  0  0  0  0  0  0  0  0  0  0  0
   12.6043  -19.6116   23.6363 O   0  0  0  0  0  0  0  0  0  0  0  0
  2  1  1  1
  3  2  1  0
  4  2  1  0
  4  5  1  0
  5  6  1  1
  7  5  1  0
  7  8  2  0
 10  9  1  6
 10 11  1  0
 10 12  1  0
 11  7  1  0
 12 13  2  0
 15 14  1  0
 16 15  1  1
 17 12  1  0
 17 16  1  0
 18 19  1  0
 18 16  1  0
 20 18  2  0
M  END
$$$$
