LAS.pdb
     RDKit          3D

 20 19  0  0  1  0  0  0  0  0999 V2000
    7.4085  -12.4300   20.8587 C   0  0  0  0  0  0  0  0  0  0  0  0
    8.0128  -13.2866   19.7669 C   0  0  1  0  0  0  0  0  0  0  0  0
    8.8234  -12.4643   18.7916 C   0  0  0  0  0  0  0  0  0  0  0  0
    8.8988  -14.3214   20.4286 C   0  0  0  0  0  0  0  0  0  0  0  0
    9.4324  -15.2178   19.3459 C   0  0  2  0  0  0  0  0  0  0  0  0
    8.4046  -15.8840   18.6104 N   0  0  0  0  0  0  0  0  0  0  0  0
   10.4248  -16.1887   19.9234 C   0  0  0  0  0  0  0  0  0  0  0  0
    9.9938  -17.2558   20.4307 O   0  0  0  0  0  0  0  0  0  0  0  0
   14.1631  -16.6097   20.2041 C   0  0  0  0  0  0  0  0  0  0  0  0
   12.7101  -16.9234   20.5144 C   0  0  2  0  0  0  0  0  0  0  0  0
   11.8076  -15.9618   19.9237 N   0  0  0  0  0  0  0  0  0  0  0  0
   12.5657  -16.8959   22.0143 C   0  0  0  0  0  0  0  0  0  0  0  0
   12.7753  -15.8352   22.6566 O   0  0  0  0  0  0  0  0  0  0  0  0
   10.5024  -19.7388   23.7411 O   0  0  0  0  0  0  0  0  0  0  0  0
   10.7408  -18.6190   24.5532 C   0  0  0  0  0  0  0  0  0  0  0  0
   12.1203  -18.0654   24.2074 C   0  0  2  0  0  0  0  0  0  0  0  0
   12.1913  -18.0597   22.7379 N   0  0  0  0  0  0  0  0  0  0  0  0
   13.1092  -19.0144   24.7413 C   0  0  0  0  0  0  0  0  0  0  0  0
   13.2108  -19.2334   26.0915 O   0  0  0  0  0  0  0  0  0  0  0  0
   13.8601  -19.6239   23.9624 O   0  0  0  0  0  0  0  0  0  0  0  0
  2  1  1  1
  3  2  1  0
  4  2  1  0
  4  5  1  0
  5  6  1  1
  7  5  1  0
  7  8  2  0
 10  9  1  1
 10 11  1  0
 10 12  1  0
 11  7  1  0
 12 13  2  0
 15 14  1  0
 16 15  1  6
 17 12  1  0
 17 16  1  0
 18 19  1  0
 18 16  1  0
 20 18  2  0
M  END
$$$$
