LAS.pdb
     RDKit          3D

 20 19  0  0  1  0  0  0  0  0999 V2000
    7.2823  -12.5280   19.8048 C   0  0  0  0  0  0  0  0  0  0  0  0
    8.3030  -13.5321   19.3140 C   0  0  1  0  0  0  0  0  0  0  0  0
    9.5869  -12.8622   18.8812 C   0  0  0  0  0  0  0  0  0  0  0  0
    8.5827  -14.4979   20.4466 C   0  0  0  0  0  0  0  0  0  0  0  0
    9.6171  -15.4753   19.9616 C   0  0  2  0  0  0  0  0  0  0  0  0
    9.1485  -16.3092   18.9003 N   0  0  0  0  0  0  0  0  0  0  0  0
   10.1439  -16.2828   21.1155 C   0  0  0  0  0  0  0  0  0  0  0  0
    9.6053  -17.3913   21.3667 O   0  0  0  0  0  0  0  0  0  0  0  0
   13.0714  -16.2812   23.4715 C   0  0  0  0  0  0  0  0  0  0  0  0
   11.6876  -16.6944   23.0020 C   0  0  2  0  0  0  0  0  0  0  0  0
   11.2066  -15.8598   21.9248 N   0  0  0  0  0  0  0  0  0  0  0  0
   10.7660  -16.5689   24.1878 C   0  0  0  0  0  0  0  0  0  0  0  0
   10.9882  -17.2193   25.2410 O   0  0  0  0  0  0  0  0  0  0  0  0
    6.8912  -15.0440   23.8185 O   0  0  0  0  0  0  0  0  0  0  0  0
    7.6676  -14.5700   24.8875 C   0  0  0  0  0  0  0  0  0  0  0  0
    8.6723  -15.6553   25.2638 C   0  0  2  0  0  0  0  0  0  0  0  0
    9.6291  -15.7180   24.1480 N   0  0  0  0  0  0  0  0  0  0  0  0
    7.9272  -16.9212   25.3410 C   0  0  0  0  0  0  0  0  0  0  0  0
    8.2126  -17.9543   24.4852 O   0  0  0  0  0  0  0  0  0  0  0  0
    7.0305  -17.0566   26.1894 O   0  0  0  0  0  0  0  0  0  0  0  0
  2  1  1  1
  3  2  1  0
  4  2  1  0
  4  5  1  0
  5  6  1  6
  7  5  1  0
  7  8  2  0
 10  9  1  1
 10 11  1  0
 10 12  1  0
 11  7  1  0
 12 13  2  0
 15 14  1  0
 16 15  1  6
 17 12  1  0
 17 16  1  0
 18 19  1  0
 18 16  1  0
 20 18  2  0
M  END
$$$$
