LAS.pdb
     RDKit          3D

 20 19  0  0  1  0  0  0  0  0999 V2000
    5.5740  -11.6385   26.6163 C   0  0  0  0  0  0  0  0  0  0  0  0
    6.7425  -12.5778   26.4081 C   0  0  1  0  0  0  0  0  0  0  0  0
    7.6686  -12.5954   27.6025 C   0  0  0  0  0  0  0  0  0  0  0  0
    6.1836  -13.9649   26.1694 C   0  0  0  0  0  0  0  0  0  0  0  0
    7.3022  -14.8173   25.6379 C   0  0  2  0  0  0  0  0  0  0  0  0
    8.5971  -14.3393   26.0070 N   0  0  0  0  0  0  0  0  0  0  0  0
    7.1681  -14.9733   24.1484 C   0  0  0  0  0  0  0  0  0  0  0  0
    6.1365  -15.5318   23.6947 O   0  0  0  0  0  0  0  0  0  0  0  0
    7.9975  -13.5218   21.0006 C   0  0  0  0  0  0  0  0  0  0  0  0
    8.0010  -14.7954   21.8276 C   0  0  2  0  0  0  0  0  0  0  0  0
    8.1375  -14.5262   23.2408 N   0  0  0  0  0  0  0  0  0  0  0  0
    9.1697  -15.6218   21.3561 C   0  0  0  0  0  0  0  0  0  0  0  0
    9.3239  -15.8705   20.1329 O   0  0  0  0  0  0  0  0  0  0  0  0
   11.7430  -16.8154   24.1442 O   0  0  0  0  0  0  0  0  0  0  0  0
   12.3319  -16.8281   22.8701 C   0  0  0  0  0  0  0  0  0  0  0  0
   11.2244  -17.0090   21.8358 C   0  0  2  0  0  0  0  0  0  0  0  0
   10.1223  -16.1387   22.2746 N   0  0  0  0  0  0  0  0  0  0  0  0
   10.7962  -18.4144   21.9076 C   0  0  0  0  0  0  0  0  0  0  0  0
   11.6678  -19.4280   21.6008 O   0  0  0  0  0  0  0  0  0  0  0  0
    9.6337  -18.6868   22.2493 O   0  0  0  0  0  0  0  0  0  0  0  0
  2  1  1  1
  3  2  1  0
  4  2  1  0
  4  5  1  0
  5  6  1  6
  7  5  1  0
  7  8  2  0
 10  9  1  6
 10 11  1  0
 10 12  1  0
 11  7  1  0
 12 13  2  0
 15 14  1  0
 16 15  1  1
 17 12  1  0
 17 16  1  0
 18 19  1  0
 18 16  1  0
 20 18  2  0
M  END
$$$$
