LAS.pdb
     RDKit          3D

 20 19  0  0  1  0  0  0  0  0999 V2000
    5.6335  -11.7380   26.6576 C   0  0  0  0  0  0  0  0  0  0  0  0
    6.8915  -12.5123   26.3278 C   0  0  1  0  0  0  0  0  0  0  0  0
    8.0819  -12.0100   27.1121 C   0  0  0  0  0  0  0  0  0  0  0  0
    6.6367  -13.9688   26.6550 C   0  0  0  0  0  0  0  0  0  0  0  0
    7.7261  -14.7752   26.0042 C   0  0  2  0  0  0  0  0  0  0  0  0
    9.0191  -14.1814   26.1344 N   0  0  0  0  0  0  0  0  0  0  0  0
    7.3779  -15.0457   24.5666 C   0  0  0  0  0  0  0  0  0  0  0  0
    6.3469  -15.7212   24.3164 O   0  0  0  0  0  0  0  0  0  0  0  0
    8.0565  -13.8684   21.1398 C   0  0  0  0  0  0  0  0  0  0  0  0
    7.8442  -14.9916   22.1394 C   0  0  2  0  0  0  0  0  0  0  0  0
    8.1473  -14.5813   23.4915 N   0  0  0  0  0  0  0  0  0  0  0  0
    8.7613  -16.1174   21.7360 C   0  0  0  0  0  0  0  0  0  0  0  0
    8.7590  -16.5512   20.5556 O   0  0  0  0  0  0  0  0  0  0  0  0
   12.5466  -16.2735   22.2134 O   0  0  0  0  0  0  0  0  0  0  0  0
   11.6426  -16.9478   21.3777 C   0  0  0  0  0  0  0  0  0  0  0  0
   10.6537  -17.7052   22.2592 C   0  0  2  0  0  0  0  0  0  0  0  0
    9.6472  -16.7148   22.6723 N   0  0  0  0  0  0  0  0  0  0  0  0
   11.3988  -18.1672   23.4403 C   0  0  0  0  0  0  0  0  0  0  0  0
   12.3685  -19.1301   23.3233 O   0  0  0  0  0  0  0  0  0  0  0  0
   11.1479  -17.6810   24.5551 O   0  0  0  0  0  0  0  0  0  0  0  0
  2  1  1  1
  3  2  1  0
  4  2  1  0
  4  5  1  0
  5  6  1  6
  7  5  1  0
  7  8  2  0
 10  9  1  6
 10 11  1  0
 10 12  1  0
 11  7  1  0
 12 13  2  0
 15 14  1  0
 16 15  1  6
 17 12  1  0
 17 16  1  0
 18 19  1  0
 18 16  1  0
 20 18  2  0
M  END
$$$$
