KWE.pdb
     RDKit          3D

 33 34  0  0  1  0  0  0  0  0999 V2000
    7.5194  -16.2623   20.4142 N   0  0  0  0  0  0  0  0  0  0  0  0
    8.4140  -15.1382   20.4370 C   0  0  1  0  0  0  0  0  0  0  0  0
    7.7220  -13.8890   20.0710 C   0  0  0  0  0  0  0  0  0  0  0  0
    8.0134  -13.4591   18.6702 C   0  0  0  0  0  0  0  0  0  0  0  0
    6.9255  -13.6698   17.6722 C   0  0  0  0  0  0  0  0  0  0  0  0
    7.5230  -13.2064   16.3178 C   0  0  0  0  0  0  0  0  0  0  0  0
    7.5013  -14.3498   15.4560 N   0  0  0  0  0  0  0  0  0  0  0  0
    9.1005  -15.0608   21.7642 C   0  0  0  0  0  0  0  0  0  0  0  0
   10.0390  -14.2483   21.9211 O   0  0  0  0  0  0  0  0  0  0  0  0
    8.7223  -15.8793   22.8521 N   0  0  0  0  0  0  0  0  0  0  0  0
    9.3193  -15.9004   24.1394 C   0  0  1  0  0  0  0  0  0  0  0  0
    8.3933  -16.1995   25.3061 C   0  0  0  0  0  0  0  0  0  0  0  0
    7.2888  -15.2746   25.4754 C   0  0  0  0  0  0  0  0  0  0  0  0
    5.9516  -15.4557   25.3874 C   0  0  0  0  0  0  0  0  0  0  0  0
    5.2831  -14.2914   25.6336 N   0  0  0  0  0  0  0  0  0  0  0  0
    6.2111  -13.3619   25.8811 C   0  0  0  0  0  0  0  0  0  0  0  0
    6.1167  -12.0127   26.1930 C   0  0  0  0  0  0  0  0  0  0  0  0
    7.2221  -11.2250   26.4171 C   0  0  0  0  0  0  0  0  0  0  0  0
    8.4691  -11.8040   26.3269 C   0  0  0  0  0  0  0  0  0  0  0  0
    8.5805  -13.1479   26.0168 C   0  0  0  0  0  0  0  0  0  0  0  0
    7.4630  -13.9195   25.7956 C   0  0  0  0  0  0  0  0  0  0  0  0
   10.4802  -16.8051   24.2679 C   0  0  0  0  0  0  0  0  0  0  0  0
   10.3324  -17.9738   23.7980 O   0  0  0  0  0  0  0  0  0  0  0  0
   11.6977  -16.4678   24.8573 N   0  0  0  0  0  0  0  0  0  0  0  0
   12.8171  -17.4088   24.7499 C   0  0  1  0  0  0  0  0  0  0  0  0
   14.0389  -16.6825   24.2287 C   0  0  0  0  0  0  0  0  0  0  0  0
   15.2717  -17.5356   24.3243 C   0  0  0  0  0  0  0  0  0  0  0  0
   16.4713  -16.7837   23.8285 C   0  0  0  0  0  0  0  0  0  0  0  0
   17.2887  -16.2691   24.6028 O   0  0  0  0  0  0  0  0  0  0  0  0
   13.0117  -17.9798   26.0938 C   0  0  0  0  0  0  0  0  0  0  0  0
   13.7381  -19.1324   26.3003 O   0  0  0  0  0  0  0  0  0  0  0  0
   16.6471  -16.6763   22.4628 O   0  0  0  0  0  0  0  0  0  0  0  0
   12.5061  -17.4122   27.0856 O   0  0  0  0  0  0  0  0  0  0  0  0
  2  1  1  1
  2  3  1  0
  3  4  1  0
  4  5  1  0
  5  6  1  0
  6  7  1  0
  8  2  1  0
  8  9  2  0
 10  8  1  0
 11 10  1  0
 11 12  1  1
 13 12  1  0
 13 14  2  0
 15 14  1  0
 16 15  1  0
 17 16  2  0
 18 17  1  0
 19 18  2  0
 19 20  1  0
 20 21  2  0
 21 16  1  0
 21 13  1  0
 22 11  1  0
 23 22  2  0
 24 22  1  0
 25 24  1  0
 25 26  1  1
 26 27  1  0
 27 28  1  0
 28 29  2  0
 28 32  1  0
 30 31  1  0
 30 25  1  0
 33 30  2  0
M  END
$$$$
