KWE.pdb
     RDKit          3D

 33 34  0  0  1  0  0  0  0  0999 V2000
    7.0808  -16.3778   20.7325 N   0  0  0  0  0  0  0  0  0  0  0  0
    8.1719  -15.4816   20.4662 C   0  0  1  0  0  0  0  0  0  0  0  0
    7.7025  -14.2248   19.8554 C   0  0  0  0  0  0  0  0  0  0  0  0
    7.4545  -14.3559   18.3880 C   0  0  0  0  0  0  0  0  0  0  0  0
    8.3956  -13.6279   17.4889 C   0  0  0  0  0  0  0  0  0  0  0  0
    7.8920  -13.9222   16.0516 C   0  0  0  0  0  0  0  0  0  0  0  0
    8.7410  -13.1812   15.1680 N   0  0  0  0  0  0  0  0  0  0  0  0
    8.9689  -15.2651   21.7139 C   0  0  0  0  0  0  0  0  0  0  0  0
    9.9751  -14.5225   21.6760 O   0  0  0  0  0  0  0  0  0  0  0  0
    8.6211  -15.8750   22.9402 N   0  0  0  0  0  0  0  0  0  0  0  0
    9.3599  -15.8170   24.1506 C   0  0  1  0  0  0  0  0  0  0  0  0
    8.5747  -16.0489   25.4303 C   0  0  0  0  0  0  0  0  0  0  0  0
    7.3886  -15.2288   25.5885 C   0  0  0  0  0  0  0  0  0  0  0  0
    6.0771  -15.5160   25.4277 C   0  0  0  0  0  0  0  0  0  0  0  0
    5.3012  -14.4253   25.6948 N   0  0  0  0  0  0  0  0  0  0  0  0
    6.1344  -13.4353   26.0296 C   0  0  0  0  0  0  0  0  0  0  0  0
    5.9112  -12.1161   26.3986 C   0  0  0  0  0  0  0  0  0  0  0  0
    6.9342  -11.2512   26.7121 C   0  0  0  0  0  0  0  0  0  0  0  0
    8.2289  -11.7191   26.6557 C   0  0  0  0  0  0  0  0  0  0  0  0
    8.4685  -13.0317   26.2895 C   0  0  0  0  0  0  0  0  0  0  0  0
    7.4320  -13.8817   25.9791 C   0  0  0  0  0  0  0  0  0  0  0  0
   10.5370  -16.7085   24.1998 C   0  0  0  0  0  0  0  0  0  0  0  0
   10.3411  -17.9122   23.8516 O   0  0  0  0  0  0  0  0  0  0  0  0
   11.8175  -16.3240   24.5944 N   0  0  0  0  0  0  0  0  0  0  0  0
   12.9318  -17.2504   24.3700 C   0  0  1  0  0  0  0  0  0  0  0  0
   14.1085  -16.4938   23.7913 C   0  0  0  0  0  0  0  0  0  0  0  0
   15.3350  -17.3574   23.7101 C   0  0  0  0  0  0  0  0  0  0  0  0
   16.4730  -16.5983   23.0945 C   0  0  0  0  0  0  0  0  0  0  0  0
   16.9542  -16.9129   21.9982 O   0  0  0  0  0  0  0  0  0  0  0  0
   13.2262  -17.8712   25.6731 C   0  0  0  0  0  0  0  0  0  0  0  0
   12.6484  -17.4260   26.8422 O   0  0  0  0  0  0  0  0  0  0  0  0
   16.9817  -15.5198   23.7914 O   0  0  0  0  0  0  0  0  0  0  0  0
   14.0242  -18.8307   25.7343 O   0  0  0  0  0  0  0  0  0  0  0  0
  2  1  1  1
  2  3  1  0
  3  4  1  0
  4  5  1  0
  5  6  1  0
  6  7  1  0
  8  2  1  0
  8  9  2  0
 10  8  1  0
 11 10  1  0
 11 12  1  1
 13 12  1  0
 13 14  2  0
 15 14  1  0
 16 15  1  0
 17 16  2  0
 18 17  1  0
 19 18  2  0
 19 20  1  0
 20 21  2  0
 21 16  1  0
 21 13  1  0
 22 11  1  0
 23 22  2  0
 24 22  1  0
 25 24  1  0
 25 26  1  1
 26 27  1  0
 27 28  1  0
 28 29  2  0
 28 32  1  0
 30 31  1  0
 30 25  1  0
 33 30  2  0
M  END
$$$$
