KWE.pdb
     RDKit          3D

 33 34  0  0  1  0  0  0  0  0999 V2000
    7.1540  -16.3470   20.8459 N   0  0  0  0  0  0  0  0  0  0  0  0
    8.1328  -15.3201   20.6177 C   0  0  1  0  0  0  0  0  0  0  0  0
    7.5058  -14.0691   20.1541 C   0  0  0  0  0  0  0  0  0  0  0  0
    7.1378  -14.1120   18.7068 C   0  0  0  0  0  0  0  0  0  0  0  0
    8.1142  -13.5058   17.7564 C   0  0  0  0  0  0  0  0  0  0  0  0
    7.4144  -13.5515   16.3727 C   0  0  0  0  0  0  0  0  0  0  0  0
    8.2849  -12.8754   15.4587 N   0  0  0  0  0  0  0  0  0  0  0  0
    8.9725  -15.1362   21.8424 C   0  0  0  0  0  0  0  0  0  0  0  0
    9.9088  -14.3064   21.8233 O   0  0  0  0  0  0  0  0  0  0  0  0
    8.7422  -15.8726   23.0262 N   0  0  0  0  0  0  0  0  0  0  0  0
    9.5227  -15.8311   24.2107 C   0  0  1  0  0  0  0  0  0  0  0  0
    8.7763  -16.0454   25.5165 C   0  0  0  0  0  0  0  0  0  0  0  0
    7.5496  -15.2852   25.6627 C   0  0  0  0  0  0  0  0  0  0  0  0
    6.2552  -15.6388   25.4954 C   0  0  0  0  0  0  0  0  0  0  0  0
    5.4237  -14.5871   25.7515 N   0  0  0  0  0  0  0  0  0  0  0  0
    6.2040  -13.5546   26.0857 C   0  0  0  0  0  0  0  0  0  0  0  0
    5.9123  -12.2463   26.4457 C   0  0  0  0  0  0  0  0  0  0  0  0
    6.8885  -11.3293   26.7605 C   0  0  0  0  0  0  0  0  0  0  0  0
    8.2054  -11.7319   26.7147 C   0  0  0  0  0  0  0  0  0  0  0  0
    8.5131  -13.0327   26.3576 C   0  0  0  0  0  0  0  0  0  0  0  0
    7.5226  -13.9354   26.0458 C   0  0  0  0  0  0  0  0  0  0  0  0
   10.6806  -16.7487   24.2208 C   0  0  0  0  0  0  0  0  0  0  0  0
   10.4597  -17.9313   23.8195 O   0  0  0  0  0  0  0  0  0  0  0  0
   11.9685  -16.4092   24.6324 N   0  0  0  0  0  0  0  0  0  0  0  0
   13.0686  -17.3330   24.3380 C   0  0  1  0  0  0  0  0  0  0  0  0
   14.2060  -16.5730   23.6893 C   0  0  0  0  0  0  0  0  0  0  0  0
   15.4182  -17.4413   23.5076 C   0  0  0  0  0  0  0  0  0  0  0  0
   16.5333  -16.6622   22.8755 C   0  0  0  0  0  0  0  0  0  0  0  0
   17.4524  -17.2159   22.2581 O   0  0  0  0  0  0  0  0  0  0  0  0
   13.4440  -17.9554   25.6193 C   0  0  0  0  0  0  0  0  0  0  0  0
   14.2436  -19.0760   25.6813 O   0  0  0  0  0  0  0  0  0  0  0  0
   16.5115  -15.2868   22.9999 O   0  0  0  0  0  0  0  0  0  0  0  0
   13.0297  -17.4630   26.6905 O   0  0  0  0  0  0  0  0  0  0  0  0
  2  1  1  1
  2  3  1  0
  3  4  1  0
  4  5  1  0
  5  6  1  0
  6  7  1  0
  8  2  1  0
  8  9  2  0
 10  8  1  0
 11 10  1  0
 11 12  1  1
 13 12  1  0
 13 14  2  0
 15 14  1  0
 16 15  1  0
 17 16  2  0
 18 17  1  0
 19 18  2  0
 19 20  1  0
 20 21  2  0
 21 16  1  0
 21 13  1  0
 22 11  1  0
 23 22  2  0
 24 22  1  0
 25 24  1  0
 25 26  1  1
 26 27  1  0
 27 28  1  0
 28 29  2  0
 28 32  1  0
 30 31  1  0
 30 25  1  0
 33 30  2  0
M  END
$$$$
