KWE.pdb
     RDKit          3D

 33 34  0  0  1  0  0  0  0  0999 V2000
    7.4068  -16.0874   20.8193 N   0  0  0  0  0  0  0  0  0  0  0  0
    8.4142  -15.0643   20.8755 C   0  0  1  0  0  0  0  0  0  0  0  0
    7.8807  -13.7566   20.4530 C   0  0  0  0  0  0  0  0  0  0  0  0
    7.3583  -13.7734   19.0535 C   0  0  0  0  0  0  0  0  0  0  0  0
    8.3378  -13.4504   17.9763 C   0  0  0  0  0  0  0  0  0  0  0  0
    7.5455  -13.5978   16.6509 C   0  0  0  0  0  0  0  0  0  0  0  0
    8.4996  -13.4516   15.5932 N   0  0  0  0  0  0  0  0  0  0  0  0
    9.0324  -15.0329   22.2377 C   0  0  0  0  0  0  0  0  0  0  0  0
    9.8748  -14.1479   22.5070 O   0  0  0  0  0  0  0  0  0  0  0  0
    8.6946  -15.9748   23.2355 N   0  0  0  0  0  0  0  0  0  0  0  0
    9.2884  -16.0934   24.5190 C   0  0  1  0  0  0  0  0  0  0  0  0
    8.3332  -16.2186   25.6937 C   0  0  0  0  0  0  0  0  0  0  0  0
    7.2242  -15.2835   25.6948 C   0  0  0  0  0  0  0  0  0  0  0  0
    5.9118  -15.4552   25.4185 C   0  0  0  0  0  0  0  0  0  0  0  0
    5.2255  -14.2833   25.5558 N   0  0  0  0  0  0  0  0  0  0  0  0
    6.1171  -13.3584   25.9245 C   0  0  0  0  0  0  0  0  0  0  0  0
    5.9914  -12.0054   26.2071 C   0  0  0  0  0  0  0  0  0  0  0  0
    7.0606  -11.2238   26.5794 C   0  0  0  0  0  0  0  0  0  0  0  0
    8.3024  -11.8133   26.6737 C   0  0  0  0  0  0  0  0  0  0  0  0
    8.4448  -13.1611   26.3952 C   0  0  0  0  0  0  0  0  0  0  0  0
    7.3633  -13.9264   26.0240 C   0  0  0  0  0  0  0  0  0  0  0  0
   10.2731  -17.1875   24.6460 C   0  0  0  0  0  0  0  0  0  0  0  0
    9.8062  -18.3662   24.6112 O   0  0  0  0  0  0  0  0  0  0  0  0
   11.6480  -17.0146   24.7982 N   0  0  0  0  0  0  0  0  0  0  0  0
   12.4770  -18.1873   25.0946 C   0  0  1  0  0  0  0  0  0  0  0  0
   13.9301  -17.8594   24.8248 C   0  0  0  0  0  0  0  0  0  0  0  0
   14.1106  -17.2131   23.4808 C   0  0  0  0  0  0  0  0  0  0  0  0
   15.5426  -16.8159   23.2762 C   0  0  0  0  0  0  0  0  0  0  0  0
   16.4010  -17.6262   22.9033 O   0  0  0  0  0  0  0  0  0  0  0  0
   12.2136  -18.5390   26.5006 C   0  0  0  0  0  0  0  0  0  0  0  0
   12.7055  -19.6934   27.0700 O   0  0  0  0  0  0  0  0  0  0  0  0
   15.8887  -15.5008   23.5177 O   0  0  0  0  0  0  0  0  0  0  0  0
   11.5227  -17.7764   27.2094 O   0  0  0  0  0  0  0  0  0  0  0  0
  2  1  1  1
  2  3  1  0
  3  4  1  0
  4  5  1  0
  5  6  1  0
  6  7  1  0
  8  2  1  0
  8  9  2  0
 10  8  1  0
 11 10  1  0
 11 12  1  1
 13 12  1  0
 13 14  2  0
 15 14  1  0
 16 15  1  0
 17 16  2  0
 18 17  1  0
 19 18  2  0
 19 20  1  0
 20 21  2  0
 21 16  1  0
 21 13  1  0
 22 11  1  0
 23 22  2  0
 24 22  1  0
 25 24  1  0
 25 26  1  1
 26 27  1  0
 27 28  1  0
 28 29  2  0
 28 32  1  0
 30 31  1  0
 30 25  1  0
 33 30  2  0
M  END
$$$$
