KWE.pdb
     RDKit          3D

 33 34  0  0  1  0  0  0  0  0999 V2000
    7.1146  -16.5168   20.5335 N   0  0  0  0  0  0  0  0  0  0  0  0
    8.0379  -15.4317   20.3476 C   0  0  1  0  0  0  0  0  0  0  0  0
    7.3550  -14.2173   19.8658 C   0  0  0  0  0  0  0  0  0  0  0  0
    8.0298  -13.6103   18.6792 C   0  0  0  0  0  0  0  0  0  0  0  0
    7.5247  -14.0329   17.3412 C   0  0  0  0  0  0  0  0  0  0  0  0
    8.5415  -13.4537   16.3229 C   0  0  0  0  0  0  0  0  0  0  0  0
    8.1807  -13.9891   15.0448 N   0  0  0  0  0  0  0  0  0  0  0  0
    8.8179  -15.2061   21.6045 C   0  0  0  0  0  0  0  0  0  0  0  0
    9.7442  -14.3650   21.6070 O   0  0  0  0  0  0  0  0  0  0  0  0
    8.5417  -15.9154   22.7950 N   0  0  0  0  0  0  0  0  0  0  0  0
    9.2724  -15.8421   24.0093 C   0  0  1  0  0  0  0  0  0  0  0  0
    8.4929  -16.1252   25.2822 C   0  0  0  0  0  0  0  0  0  0  0  0
    7.3350  -15.2797   25.5025 C   0  0  0  0  0  0  0  0  0  0  0  0
    6.0113  -15.5317   25.3888 C   0  0  0  0  0  0  0  0  0  0  0  0
    5.2741  -14.4278   25.7065 N   0  0  0  0  0  0  0  0  0  0  0  0
    6.1445  -13.4650   26.0258 C   0  0  0  0  0  0  0  0  0  0  0  0
    5.9691  -12.1480   26.4275 C   0  0  0  0  0  0  0  0  0  0  0  0
    7.0250  -11.3145   26.7157 C   0  0  0  0  0  0  0  0  0  0  0  0
    8.3044  -11.8126   26.5992 C   0  0  0  0  0  0  0  0  0  0  0  0
    8.4964  -13.1234   26.1999 C   0  0  0  0  0  0  0  0  0  0  0  0
    7.4274  -13.9417   25.9156 C   0  0  0  0  0  0  0  0  0  0  0  0
   10.4868  -16.6824   24.0519 C   0  0  0  0  0  0  0  0  0  0  0  0
   10.3194  -17.9183   23.8219 O   0  0  0  0  0  0  0  0  0  0  0  0
   11.7734  -16.2183   24.3220 N   0  0  0  0  0  0  0  0  0  0  0  0
   12.8976  -17.1531   24.2092 C   0  0  1  0  0  0  0  0  0  0  0  0
   14.1461  -16.3953   23.8105 C   0  0  0  0  0  0  0  0  0  0  0  0
   15.3290  -17.3112   23.6749 C   0  0  0  0  0  0  0  0  0  0  0  0
   16.5509  -16.5370   23.2780 C   0  0  0  0  0  0  0  0  0  0  0  0
   17.0037  -15.6221   23.9783 O   0  0  0  0  0  0  0  0  0  0  0  0
   13.0174  -17.8201   25.5171 C   0  0  0  0  0  0  0  0  0  0  0  0
   13.6668  -19.0264   25.6659 O   0  0  0  0  0  0  0  0  0  0  0  0
   17.1717  -16.8740   22.0911 O   0  0  0  0  0  0  0  0  0  0  0  0
   12.5176  -17.2873   26.5308 O   0  0  0  0  0  0  0  0  0  0  0  0
  2  1  1  1
  2  3  1  0
  3  4  1  0
  4  5  1  0
  5  6  1  0
  6  7  1  0
  8  2  1  0
  8  9  2  0
 10  8  1  0
 11 10  1  0
 11 12  1  1
 13 12  1  0
 13 14  2  0
 15 14  1  0
 16 15  1  0
 17 16  2  0
 18 17  1  0
 19 18  2  0
 19 20  1  0
 20 21  2  0
 21 16  1  0
 21 13  1  0
 22 11  1  0
 23 22  2  0
 24 22  1  0
 25 24  1  0
 25 26  1  1
 26 27  1  0
 27 28  1  0
 28 29  2  0
 28 32  1  0
 30 31  1  0
 30 25  1  0
 33 30  2  0
M  END
$$$$
