KWE.pdb
     RDKit          3D

 33 34  0  0  1  0  0  0  0  0999 V2000
    7.7819  -16.3770   18.8695 N   0  0  0  0  0  0  0  0  0  0  0  0
    8.6533  -15.2532   19.0754 C   0  0  1  0  0  0  0  0  0  0  0  0
    8.1899  -14.0668   18.3332 C   0  0  0  0  0  0  0  0  0  0  0  0
    7.9561  -14.3493   16.8850 C   0  0  0  0  0  0  0  0  0  0  0  0
    8.6094  -13.4237   15.9151 C   0  0  0  0  0  0  0  0  0  0  0  0
    8.1059  -13.8776   14.5198 C   0  0  0  0  0  0  0  0  0  0  0  0
    8.6298  -12.9359   13.5769 N   0  0  0  0  0  0  0  0  0  0  0  0
    8.8198  -14.9999   20.5407 C   0  0  0  0  0  0  0  0  0  0  0  0
    9.7392  -14.2462   20.9306 O   0  0  0  0  0  0  0  0  0  0  0  0
    7.9687  -15.5870   21.5038 N   0  0  0  0  0  0  0  0  0  0  0  0
    8.1139  -15.5147   22.9137 C   0  0  1  0  0  0  0  0  0  0  0  0
    6.8283  -15.4494   23.7204 C   0  0  0  0  0  0  0  0  0  0  0  0
    6.9973  -15.1984   25.1391 C   0  0  0  0  0  0  0  0  0  0  0  0
    7.0502  -16.0419   26.1946 C   0  0  0  0  0  0  0  0  0  0  0  0
    7.2306  -15.3557   27.3607 N   0  0  0  0  0  0  0  0  0  0  0  0
    7.2930  -14.0604   27.0370 C   0  0  0  0  0  0  0  0  0  0  0  0
    7.4669  -12.9170   27.8043 C   0  0  0  0  0  0  0  0  0  0  0  0
    7.5052  -11.6557   27.2562 C   0  0  0  0  0  0  0  0  0  0  0  0
    7.3648  -11.5293   25.8914 C   0  0  0  0  0  0  0  0  0  0  0  0
    7.1906  -12.6593   25.1122 C   0  0  0  0  0  0  0  0  0  0  0  0
    7.1546  -13.9126   25.6789 C   0  0  0  0  0  0  0  0  0  0  0  0
    8.9402  -16.5868   23.5059 C   0  0  0  0  0  0  0  0  0  0  0  0
    8.4564  -17.7580   23.4544 O   0  0  0  0  0  0  0  0  0  0  0  0
   10.1859  -16.4010   24.1035 N   0  0  0  0  0  0  0  0  0  0  0  0
   10.9773  -17.5816   24.4641 C   0  0  1  0  0  0  0  0  0  0  0  0
   12.3186  -17.5232   23.7645 C   0  0  0  0  0  0  0  0  0  0  0  0
   13.3091  -16.6986   24.5363 C   0  0  0  0  0  0  0  0  0  0  0  0
   14.4211  -16.2381   23.6409 C   0  0  0  0  0  0  0  0  0  0  0  0
   14.4373  -16.4952   22.4301 O   0  0  0  0  0  0  0  0  0  0  0  0
   11.0891  -17.5753   25.9330 C   0  0  0  0  0  0  0  0  0  0  0  0
   10.8241  -16.4490   26.6815 O   0  0  0  0  0  0  0  0  0  0  0  0
   15.4463  -15.5069   24.2084 O   0  0  0  0  0  0  0  0  0  0  0  0
   11.4358  -18.6162   26.5310 O   0  0  0  0  0  0  0  0  0  0  0  0
  2  1  1  1
  2  3  1  0
  3  4  1  0
  4  5  1  0
  5  6  1  0
  6  7  1  0
  8  2  1  0
  8  9  2  0
 10  8  1  0
 11 10  1  0
 11 12  1  1
 13 12  1  0
 13 14  2  0
 15 14  1  0
 16 15  1  0
 17 16  2  0
 18 17  1  0
 19 18  2  0
 19 20  1  0
 20 21  2  0
 21 16  1  0
 21 13  1  0
 22 11  1  0
 23 22  2  0
 24 22  1  0
 25 24  1  0
 25 26  1  6
 26 27  1  0
 27 28  1  0
 28 29  2  0
 28 32  1  0
 30 31  1  0
 30 25  1  0
 33 30  2  0
M  END
$$$$
