KAY.pdb
     RDKit          3D

 27 27  0  0  1  0  0  0  0  0999 V2000
   10.0820  -20.8999   21.3588 N   0  0  0  0  0  0  0  0  0  0  0  0
   11.4529  -20.8631   20.8972 C   0  0  1  0  0  0  0  0  0  0  0  0
   11.6125  -21.7508   19.7146 C   0  0  0  0  0  0  0  0  0  0  0  0
   10.5783  -22.8528   19.6683 C   0  0  0  0  0  0  0  0  0  0  0  0
    9.4527  -22.5592   18.7054 C   0  0  0  0  0  0  0  0  0  0  0  0
    8.6218  -23.8442   18.5856 C   0  0  0  0  0  0  0  0  0  0  0  0
    7.5441  -23.5667   17.6602 N   0  0  0  0  0  0  0  0  0  0  0  0
   11.8764  -19.4881   20.7400 C   0  0  0  0  0  0  0  0  0  0  0  0
   13.0625  -19.2522   20.3974 O   0  0  0  0  0  0  0  0  0  0  0  0
   10.6877  -16.1978   19.8110 C   0  0  0  0  0  0  0  0  0  0  0  0
   11.4766  -16.9843   20.8022 C   0  0  2  0  0  0  0  0  0  0  0  0
   11.0488  -18.3443   20.9437 N   0  0  0  0  0  0  0  0  0  0  0  0
   11.5263  -16.2839   22.1329 C   0  0  0  0  0  0  0  0  0  0  0  0
   12.0051  -15.1271   22.2265 O   0  0  0  0  0  0  0  0  0  0  0  0
   10.8742  -14.2144   30.6135 O   0  0  0  0  0  0  0  0  0  0  0  0
   10.6550  -14.7167   29.3399 C   0  0  0  0  0  0  0  0  0  0  0  0
   10.7340  -16.0728   29.0556 C   0  0  0  0  0  0  0  0  0  0  0  0
   10.5063  -16.5161   27.7700 C   0  0  0  0  0  0  0  0  0  0  0  0
   10.1984  -15.6613   26.7338 C   0  0  0  0  0  0  0  0  0  0  0  0
    9.9610  -16.1197   25.3509 C   0  0  0  0  0  0  0  0  0  0  0  0
   11.2491  -16.2690   24.6267 C   0  0  2  0  0  0  0  0  0  0  0  0
   11.0390  -16.9020   23.3118 N   0  0  0  0  0  0  0  0  0  0  0  0
   12.2177  -17.1228   25.3416 C   0  0  0  0  0  0  0  0  0  0  0  0
   13.2863  -16.5895   26.0892 O   0  0  0  0  0  0  0  0  0  0  0  0
   10.1246  -14.3208   27.0354 C   0  0  0  0  0  0  0  0  0  0  0  0
   10.3510  -13.8539   28.3269 C   0  0  0  0  0  0  0  0  0  0  0  0
   12.1717  -18.3941   25.3442 O   0  0  0  0  0  0  0  0  0  0  0  0
  2  3  1  0
  2  1  1  6
  4  5  1  0
  4  3  1  0
  6  5  1  0
  7  6  1  0
  8  2  1  0
  9  8  2  0
 11 10  1  6
 11 12  1  0
 12  8  1  0
 13 22  1  0
 13 11  1  0
 14 13  2  0
 16 15  1  0
 17 16  2  0
 18 17  1  0
 19 18  2  0
 19 25  1  0
 21 20  1  1
 20 19  1  0
 21 22  1  0
 23 21  1  0
 24 23  1  0
 25 26  2  0
 26 16  1  0
 27 23  2  0
M  END
$$$$
