KAY.pdb
     RDKit          3D

 27 27  0  0  1  0  0  0  0  0999 V2000
    8.1464  -18.0109   18.1043 N   0  0  0  0  0  0  0  0  0  0  0  0
    7.4566  -17.3465   19.1889 C   0  0  1  0  0  0  0  0  0  0  0  0
    7.1584  -18.3216   20.2715 C   0  0  0  0  0  0  0  0  0  0  0  0
    7.1513  -19.7524   19.7826 C   0  0  0  0  0  0  0  0  0  0  0  0
    6.6353  -20.7224   20.8184 C   0  0  0  0  0  0  0  0  0  0  0  0
    6.4452  -22.0711   20.1107 C   0  0  0  0  0  0  0  0  0  0  0  0
    5.8766  -22.9820   21.0812 N   0  0  0  0  0  0  0  0  0  0  0  0
    8.1835  -16.1543   19.5697 C   0  0  0  0  0  0  0  0  0  0  0  0
    9.4383  -16.1580   19.4983 O   0  0  0  0  0  0  0  0  0  0  0  0
    7.5289  -12.5360   20.5099 C   0  0  0  0  0  0  0  0  0  0  0  0
    8.3151  -13.8030   20.5115 C   0  0  2  0  0  0  0  0  0  0  0  0
    7.5905  -14.9419   20.0314 N   0  0  0  0  0  0  0  0  0  0  0  0
    8.9152  -14.0661   21.8659 C   0  0  0  0  0  0  0  0  0  0  0  0
    9.6618  -13.2147   22.4082 O   0  0  0  0  0  0  0  0  0  0  0  0
    5.6427  -11.1588   26.9676 O   0  0  0  0  0  0  0  0  0  0  0  0
    6.1986  -12.3135   26.4383 C   0  0  0  0  0  0  0  0  0  0  0  0
    5.4294  -13.2880   25.8178 C   0  0  0  0  0  0  0  0  0  0  0  0
    6.0363  -14.4167   25.3094 C   0  0  0  0  0  0  0  0  0  0  0  0
    7.3957  -14.6284   25.3892 C   0  0  0  0  0  0  0  0  0  0  0  0
    8.0586  -15.8356   24.8579 C   0  0  0  0  0  0  0  0  0  0  0  0
    9.1627  -15.4578   23.9391 C   0  0  2  0  0  0  0  0  0  0  0  0
    8.6592  -15.2719   22.5658 N   0  0  0  0  0  0  0  0  0  0  0  0
   10.2185  -16.4854   23.8521 C   0  0  0  0  0  0  0  0  0  0  0  0
   10.5672  -17.1083   22.6374 O   0  0  0  0  0  0  0  0  0  0  0  0
    8.1413  -13.6512   26.0076 C   0  0  0  0  0  0  0  0  0  0  0  0
    7.5472  -12.5046   26.5270 C   0  0  0  0  0  0  0  0  0  0  0  0
   10.8938  -16.8909   24.8509 O   0  0  0  0  0  0  0  0  0  0  0  0
  2  3  1  0
  2  1  1  6
  4  5  1  0
  4  3  1  0
  6  5  1  0
  7  6  1  0
  8  2  1  0
  9  8  2  0
 11 10  1  1
 11 12  1  0
 12  8  1  0
 13 22  1  0
 13 11  1  0
 14 13  2  0
 16 15  1  0
 17 16  2  0
 18 17  1  0
 19 18  2  0
 19 25  1  0
 21 20  1  1
 20 19  1  0
 21 22  1  0
 23 21  1  0
 24 23  1  0
 25 26  2  0
 26 16  1  0
 27 23  2  0
M  END
$$$$
