KAY.pdb
     RDKit          3D

 27 27  0  0  1  0  0  0  0  0999 V2000
    8.9988  -18.0995   18.2218 N   0  0  0  0  0  0  0  0  0  0  0  0
    8.2133  -17.5939   19.3269 C   0  0  1  0  0  0  0  0  0  0  0  0
    8.2624  -18.5525   20.4628 C   0  0  0  0  0  0  0  0  0  0  0  0
    8.4598  -19.9822   20.0120 C   0  0  0  0  0  0  0  0  0  0  0  0
    8.4715  -20.9620   21.1609 C   0  0  0  0  0  0  0  0  0  0  0  0
    8.5776  -22.3656   20.5488 C   0  0  0  0  0  0  0  0  0  0  0  0
    8.5443  -23.3094   21.6456 N   0  0  0  0  0  0  0  0  0  0  0  0
    8.5974  -16.2279   19.6117 C   0  0  0  0  0  0  0  0  0  0  0  0
    9.8184  -15.9301   19.6285 O   0  0  0  0  0  0  0  0  0  0  0  0
    6.9959  -12.8118   20.0472 C   0  0  0  0  0  0  0  0  0  0  0  0
    8.0786  -13.8218   20.2235 C   0  0  2  0  0  0  0  0  0  0  0  0
    7.6928  -15.1587   19.8826 N   0  0  0  0  0  0  0  0  0  0  0  0
    8.6603  -13.7556   21.6095 C   0  0  0  0  0  0  0  0  0  0  0  0
    9.1972  -12.6996   22.0254 O   0  0  0  0  0  0  0  0  0  0  0  0
   10.9510  -14.8154   29.9063 O   0  0  0  0  0  0  0  0  0  0  0  0
   10.2993  -14.8781   28.6841 C   0  0  0  0  0  0  0  0  0  0  0  0
    9.9318  -16.0834   28.1023 C   0  0  0  0  0  0  0  0  0  0  0  0
    9.2855  -16.0856   26.8845 C   0  0  0  0  0  0  0  0  0  0  0  0
    8.9812  -14.9267   26.2036 C   0  0  0  0  0  0  0  0  0  0  0  0
    8.2980  -14.9133   24.8951 C   0  0  0  0  0  0  0  0  0  0  0  0
    9.2902  -14.8173   23.7941 C   0  0  2  0  0  0  0  0  0  0  0  0
    8.6210  -14.8725   22.4814 N   0  0  0  0  0  0  0  0  0  0  0  0
   10.2690  -15.9219   23.8010 C   0  0  0  0  0  0  0  0  0  0  0  0
   11.4852  -15.8483   24.5086 O   0  0  0  0  0  0  0  0  0  0  0  0
    9.3534  -13.7420   26.7963 C   0  0  0  0  0  0  0  0  0  0  0  0
   10.0064  -13.7191   28.0253 C   0  0  0  0  0  0  0  0  0  0  0  0
   10.1013  -17.0184   23.1784 O   0  0  0  0  0  0  0  0  0  0  0  0
  2  3  1  0
  2  1  1  6
  4  5  1  0
  4  3  1  0
  6  5  1  0
  7  6  1  0
  8  2  1  0
  9  8  2  0
 11 10  1  1
 11 12  1  0
 12  8  1  0
 13 22  1  0
 13 11  1  0
 14 13  2  0
 16 15  1  0
 17 16  2  0
 18 17  1  0
 19 18  2  0
 19 25  1  0
 21 20  1  1
 20 19  1  0
 21 22  1  0
 23 21  1  0
 24 23  1  0
 25 26  2  0
 26 16  1  0
 27 23  2  0
M  END
$$$$
