KAY.pdb
     RDKit          3D

 27 27  0  0  1  0  0  0  0  0999 V2000
    8.6588  -18.0770   17.4155 N   0  0  0  0  0  0  0  0  0  0  0  0
    9.3828  -18.3686   18.6340 C   0  0  1  0  0  0  0  0  0  0  0  0
   10.7256  -18.9173   18.3056 C   0  0  0  0  0  0  0  0  0  0  0  0
   10.9781  -18.9901   16.8166 C   0  0  0  0  0  0  0  0  0  0  0  0
   12.2965  -19.6437   16.4777 C   0  0  0  0  0  0  0  0  0  0  0  0
   13.1050  -19.7184   17.7803 C   0  0  0  0  0  0  0  0  0  0  0  0
   14.3829  -20.3132   17.4517 N   0  0  0  0  0  0  0  0  0  0  0  0
    9.3475  -17.2159   19.5084 C   0  0  0  0  0  0  0  0  0  0  0  0
   10.0060  -16.1928   19.1933 O   0  0  0  0  0  0  0  0  0  0  0  0
    7.3368  -15.7217   22.2787 C   0  0  0  0  0  0  0  0  0  0  0  0
    8.6472  -16.0210   21.6332 C   0  0  2  0  0  0  0  0  0  0  0  0
    8.6139  -17.1317   20.7288 N   0  0  0  0  0  0  0  0  0  0  0  0
    9.7328  -16.1841   22.6620 C   0  0  0  0  0  0  0  0  0  0  0  0
   10.1060  -17.3285   23.0186 O   0  0  0  0  0  0  0  0  0  0  0  0
   10.4325  -15.3850   31.0456 O   0  0  0  0  0  0  0  0  0  0  0  0
   10.1968  -15.2379   29.6872 C   0  0  0  0  0  0  0  0  0  0  0  0
   10.5189  -14.0747   29.0020 C   0  0  0  0  0  0  0  0  0  0  0  0
   10.2617  -13.9841   27.6505 C   0  0  0  0  0  0  0  0  0  0  0  0
    9.6891  -15.0122   26.9334 C   0  0  0  0  0  0  0  0  0  0  0  0
    9.3994  -14.9268   25.4884 C   0  0  0  0  0  0  0  0  0  0  0  0
   10.6529  -15.0475   24.7011 C   0  0  2  0  0  0  0  0  0  0  0  0
   10.3628  -15.0615   23.2556 N   0  0  0  0  0  0  0  0  0  0  0  0
   11.3932  -16.2931   24.9818 C   0  0  0  0  0  0  0  0  0  0  0  0
   12.6509  -16.2969   25.6170 O   0  0  0  0  0  0  0  0  0  0  0  0
    9.3771  -16.1570   27.6300 C   0  0  0  0  0  0  0  0  0  0  0  0
    9.6291  -16.2678   28.9944 C   0  0  0  0  0  0  0  0  0  0  0  0
   10.9661  -17.4524   24.6789 O   0  0  0  0  0  0  0  0  0  0  0  0
  2  3  1  0
  2  1  1  6
  4  5  1  0
  4  3  1  0
  6  5  1  0
  7  6  1  0
  8  2  1  0
  9  8  2  0
 11 10  1  1
 11 12  1  0
 12  8  1  0
 13 22  1  0
 13 11  1  0
 14 13  2  0
 16 15  1  0
 17 16  2  0
 18 17  1  0
 19 18  2  0
 19 25  1  0
 21 20  1  1
 20 19  1  0
 21 22  1  0
 23 21  1  0
 24 23  1  0
 25 26  2  0
 26 16  1  0
 27 23  2  0
M  END
$$$$
