KAY.pdb
     RDKit          3D

 27 27  0  0  1  0  0  0  0  0999 V2000
    7.9925  -16.1817   18.1494 N   0  0  0  0  0  0  0  0  0  0  0  0
    8.7184  -14.9393   18.3018 C   0  0  1  0  0  0  0  0  0  0  0  0
    8.2025  -13.9305   17.3384 C   0  0  0  0  0  0  0  0  0  0  0  0
    8.1248  -14.4602   15.9243 C   0  0  0  0  0  0  0  0  0  0  0  0
    7.8146  -13.3835   14.9121 C   0  0  0  0  0  0  0  0  0  0  0  0
    7.7269  -14.0710   13.5425 C   0  0  0  0  0  0  0  0  0  0  0  0
    7.3438  -13.0568   12.5836 N   0  0  0  0  0  0  0  0  0  0  0  0
    8.7381  -14.5555   19.6970 C   0  0  0  0  0  0  0  0  0  0  0  0
    9.4157  -13.5551   20.0434 O   0  0  0  0  0  0  0  0  0  0  0  0
    6.7189  -14.7819   22.7640 C   0  0  0  0  0  0  0  0  0  0  0  0
    8.0648  -14.8448   22.1252 C   0  0  2  0  0  0  0  0  0  0  0  0
    8.0399  -15.2264   20.7445 N   0  0  0  0  0  0  0  0  0  0  0  0
    9.0002  -15.7164   22.9182 C   0  0  0  0  0  0  0  0  0  0  0  0
    8.6740  -16.8902   23.2219 O   0  0  0  0  0  0  0  0  0  0  0  0
   10.7259  -15.5756   31.1069 O   0  0  0  0  0  0  0  0  0  0  0  0
   10.4232  -15.4174   29.7631 C   0  0  0  0  0  0  0  0  0  0  0  0
    9.9656  -16.4672   28.9790 C   0  0  0  0  0  0  0  0  0  0  0  0
    9.6801  -16.2520   27.6475 C   0  0  0  0  0  0  0  0  0  0  0  0
    9.8301  -15.0213   27.0457 C   0  0  0  0  0  0  0  0  0  0  0  0
    9.5373  -14.7774   25.6196 C   0  0  0  0  0  0  0  0  0  0  0  0
   10.6406  -15.2927   24.7692 C   0  0  2  0  0  0  0  0  0  0  0  0
   10.2675  -15.2447   23.3436 N   0  0  0  0  0  0  0  0  0  0  0  0
   10.9813  -16.6999   25.0557 C   0  0  0  0  0  0  0  0  0  0  0  0
   10.1914  -17.7750   24.6028 O   0  0  0  0  0  0  0  0  0  0  0  0
   10.2846  -13.9931   27.8392 C   0  0  0  0  0  0  0  0  0  0  0  0
   10.5781  -14.1905   29.1854 C   0  0  0  0  0  0  0  0  0  0  0  0
   12.0018  -17.0574   25.7258 O   0  0  0  0  0  0  0  0  0  0  0  0
  2  3  1  0
  2  1  1  1
  4  5  1  0
  4  3  1  0
  6  5  1  0
  7  6  1  0
  8  2  1  0
  9  8  2  0
 11 10  1  1
 11 12  1  0
 12  8  1  0
 13 22  1  0
 13 11  1  0
 14 13  2  0
 16 15  1  0
 17 16  2  0
 18 17  1  0
 19 18  2  0
 19 25  1  0
 21 20  1  1
 20 19  1  0
 21 22  1  0
 23 21  1  0
 24 23  1  0
 25 26  2  0
 26 16  1  0
 27 23  2  0
M  END
$$$$
