KAY.pdb
     RDKit          3D

 27 27  0  0  1  0  0  0  0  0999 V2000
    6.3591  -19.0373   21.4789 N   0  0  0  0  0  0  0  0  0  0  0  0
    7.5860  -18.9469   20.7171 C   0  0  1  0  0  0  0  0  0  0  0  0
    7.3813  -19.5170   19.3588 C   0  0  0  0  0  0  0  0  0  0  0  0
    6.6252  -20.8262   19.3832 C   0  0  0  0  0  0  0  0  0  0  0  0
    6.3758  -21.3840   18.0023 C   0  0  0  0  0  0  0  0  0  0  0  0
    5.4573  -22.6020   18.1726 C   0  0  0  0  0  0  0  0  0  0  0  0
    5.2917  -23.1937   16.8622 N   0  0  0  0  0  0  0  0  0  0  0  0
    8.1019  -17.5964   20.7845 C   0  0  0  0  0  0  0  0  0  0  0  0
    9.2488  -17.3597   20.3279 O   0  0  0  0  0  0  0  0  0  0  0  0
    6.8554  -14.1025   21.6015 C   0  0  0  0  0  0  0  0  0  0  0  0
    7.9045  -15.1339   21.3590 C   0  0  2  0  0  0  0  0  0  0  0  0
    7.4095  -16.4782   21.3367 N   0  0  0  0  0  0  0  0  0  0  0  0
    9.0443  -14.9854   22.3299 C   0  0  0  0  0  0  0  0  0  0  0  0
   10.0925  -14.3812   21.9944 O   0  0  0  0  0  0  0  0  0  0  0  0
    4.6903  -12.4130   26.3039 O   0  0  0  0  0  0  0  0  0  0  0  0
    5.9909  -12.8236   26.0546 C   0  0  0  0  0  0  0  0  0  0  0  0
    6.5458  -13.9377   26.6686 C   0  0  0  0  0  0  0  0  0  0  0  0
    7.8451  -14.2997   26.3826 C   0  0  0  0  0  0  0  0  0  0  0  0
    8.6347  -13.5951   25.5000 C   0  0  0  0  0  0  0  0  0  0  0  0
   10.0300  -13.9647   25.1906 C   0  0  0  0  0  0  0  0  0  0  0  0
   10.0846  -15.3213   24.5885 C   0  0  2  0  0  0  0  0  0  0  0  0
    8.9717  -15.5180   23.6416 N   0  0  0  0  0  0  0  0  0  0  0  0
    9.9675  -16.4015   25.5874 C   0  0  0  0  0  0  0  0  0  0  0  0
    8.9597  -17.3840   25.5220 O   0  0  0  0  0  0  0  0  0  0  0  0
    8.0671  -12.4939   24.9012 C   0  0  0  0  0  0  0  0  0  0  0  0
    6.7570  -12.1125   25.1767 C   0  0  0  0  0  0  0  0  0  0  0  0
   10.7541  -16.5361   26.5780 O   0  0  0  0  0  0  0  0  0  0  0  0
  2  3  1  0
  2  1  1  6
  4  5  1  0
  4  3  1  0
  6  5  1  0
  7  6  1  0
  8  2  1  0
  9  8  2  0
 11 10  1  1
 11 12  1  0
 12  8  1  0
 13 22  1  0
 13 11  1  0
 14 13  2  0
 16 15  1  0
 17 16  2  0
 18 17  1  0
 19 18  2  0
 19 25  1  0
 21 20  1  1
 20 19  1  0
 21 22  1  0
 23 21  1  0
 24 23  1  0
 25 26  2  0
 26 16  1  0
 27 23  2  0
M  END
$$$$
