KAY.pdb
     RDKit          3D

 27 27  0  0  1  0  0  0  0  0999 V2000
    7.5914  -17.0574   19.2995 N   0  0  0  0  0  0  0  0  0  0  0  0
    7.7649  -16.0466   20.3203 C   0  0  1  0  0  0  0  0  0  0  0  0
    7.5523  -14.6957   19.7358 C   0  0  0  0  0  0  0  0  0  0  0  0
    7.4072  -14.7270   18.2311 C   0  0  0  0  0  0  0  0  0  0  0  0
    8.3334  -13.7597   17.5334 C   0  0  0  0  0  0  0  0  0  0  0  0
    7.9789  -13.8009   16.0406 C   0  0  0  0  0  0  0  0  0  0  0  0
    8.9693  -13.0044   15.3482 N   0  0  0  0  0  0  0  0  0  0  0  0
    6.9693  -16.3857   21.4807 C   0  0  0  0  0  0  0  0  0  0  0  0
    5.7675  -16.7164   21.3189 O   0  0  0  0  0  0  0  0  0  0  0  0
    6.2620  -18.2919   23.8199 C   0  0  0  0  0  0  0  0  0  0  0  0
    6.7027  -16.8738   23.9552 C   0  0  2  0  0  0  0  0  0  0  0  0
    7.4362  -16.3790   22.8285 N   0  0  0  0  0  0  0  0  0  0  0  0
    7.4597  -16.6622   25.2381 C   0  0  0  0  0  0  0  0  0  0  0  0
    6.8529  -16.3496   26.2919 O   0  0  0  0  0  0  0  0  0  0  0  0
    5.2896  -11.2938   26.9013 O   0  0  0  0  0  0  0  0  0  0  0  0
    6.2879  -12.2537   26.9680 C   0  0  0  0  0  0  0  0  0  0  0  0
    7.6278  -11.9421   26.7838 C   0  0  0  0  0  0  0  0  0  0  0  0
    8.5781  -12.9379   26.8613 C   0  0  0  0  0  0  0  0  0  0  0  0
    8.2559  -14.2531   27.1175 C   0  0  0  0  0  0  0  0  0  0  0  0
    9.2608  -15.3316   27.1945 C   0  0  0  0  0  0  0  0  0  0  0  0
    9.7082  -15.7203   25.8327 C   0  0  2  0  0  0  0  0  0  0  0  0
    8.8685  -16.8076   25.2973 N   0  0  0  0  0  0  0  0  0  0  0  0
   11.0958  -16.2223   25.8022 C   0  0  0  0  0  0  0  0  0  0  0  0
   12.1963  -15.4216   26.1666 O   0  0  0  0  0  0  0  0  0  0  0  0
    6.9227  -14.5423   27.2975 C   0  0  0  0  0  0  0  0  0  0  0  0
    5.9485  -13.5509   27.2232 C   0  0  0  0  0  0  0  0  0  0  0  0
   11.4125  -17.4028   25.4498 O   0  0  0  0  0  0  0  0  0  0  0  0
  2  3  1  0
  2  1  1  6
  4  5  1  0
  4  3  1  0
  6  5  1  0
  7  6  1  0
  8  2  1  0
  9  8  2  0
 11 10  1  6
 11 12  1  0
 12  8  1  0
 13 22  1  0
 13 11  1  0
 14 13  2  0
 16 15  1  0
 17 16  2  0
 18 17  1  0
 19 18  2  0
 19 25  1  0
 21 20  1  1
 20 19  1  0
 21 22  1  0
 23 21  1  0
 24 23  1  0
 25 26  2  0
 26 16  1  0
 27 23  2  0
M  END
$$$$
