DTH.pdb
     RDKit          3D

 26 26  0  0  1  0  0  0  0  0999 V2000
   17.9568  -12.1409  -14.7952 N   0  0  0  0  0  0  0  0  0  0  0  0
   17.3649  -11.4820  -15.9292 C   0  0  1  0  0  0  0  0  0  0  0  0
   15.8848  -11.8415  -15.9459 C   0  0  0  0  0  0  0  0  0  0  0  0
   15.7514  -13.3104  -16.1170 C   0  0  0  0  0  0  0  0  0  0  0  0
   15.9891  -14.1257  -15.1924 O   0  0  0  0  0  0  0  0  0  0  0  0
   17.5132  -10.0147  -15.8090 C   0  0  0  0  0  0  0  0  0  0  0  0
   17.1239   -9.2727  -16.7475 O   0  0  0  0  0  0  0  0  0  0  0  0
   15.3499  -13.8392  -17.3348 O   0  0  0  0  0  0  0  0  0  0  0  0
   16.0186   -7.3188  -13.9827 C   0  0  0  0  0  0  0  0  0  0  0  0
   17.4508   -7.3581  -13.5157 C   0  0  1  0  0  0  0  0  0  0  0  0
   17.5794   -8.0788  -12.3251 O   0  0  0  0  0  0  0  0  0  0  0  0
   18.3231   -7.9886  -14.6096 C   0  0  2  0  0  0  0  0  0  0  0  0
   18.0850   -9.4214  -14.6590 N   0  0  0  0  0  0  0  0  0  0  0  0
   19.7333   -7.6908  -14.2576 C   0  0  0  0  0  0  0  0  0  0  0  0
   20.3746   -8.5201  -13.5848 O   0  0  0  0  0  0  0  0  0  0  0  0
   20.3977   -6.5004  -14.6500 N   0  0  0  0  0  0  0  0  0  0  0  0
   21.8046   -6.2591  -14.3979 C   0  0  1  0  0  0  0  0  0  0  0  0
   22.6030   -6.1949  -15.6798 C   0  0  0  0  0  0  0  0  0  0  0  0
   22.5878   -7.5050  -16.3961 C   0  0  0  0  0  0  0  0  0  0  0  0
   22.7627   -8.7001  -15.7256 C   0  0  0  0  0  0  0  0  0  0  0  0
   22.6970   -9.6848  -16.6448 N   0  0  0  0  0  0  0  0  0  0  0  0
   22.4879   -9.1227  -17.8500 C   0  0  0  0  0  0  0  0  0  0  0  0
   22.4224   -7.7816  -17.6852 N   0  0  0  0  0  0  0  0  0  0  0  0
   21.9364   -4.9845  -13.6463 C   0  0  0  0  0  0  0  0  0  0  0  0
   23.1660   -4.5760  -13.1337 O   0  0  0  0  0  0  0  0  0  0  0  0
   20.9607   -4.2181  -13.4358 O   0  0  0  0  0  0  0  0  0  0  0  0
  2  3  1  0
  2  1  1  1
  3  4  1  0
  4  8  1  0
  4  5  2  0
  6  2  1  0
  6  7  2  0
 10  9  1  6
 10 12  1  0
 11 10  1  0
 12 13  1  1
 12 14  1  0
 13  6  1  0
 14 16  1  0
 15 14  2  0
 16 17  1  0
 17 24  1  0
 17 18  1  6
 19 18  1  0
 20 19  2  0
 21 22  1  0
 21 20  1  0
 22 23  2  0
 23 19  1  0
 24 26  2  0
 24 25  1  0
M  END
$$$$
