DTH.pdb
     RDKit          3D

 26 26  0  0  1  0  0  0  0  0999 V2000
   19.9026  -11.3544  -17.1984 N   0  0  0  0  0  0  0  0  0  0  0  0
   18.5997  -10.7937  -16.9559 C   0  0  1  0  0  0  0  0  0  0  0  0
   17.6956  -11.9249  -16.4834 C   0  0  0  0  0  0  0  0  0  0  0  0
   17.4657  -12.8578  -17.6155 C   0  0  0  0  0  0  0  0  0  0  0  0
   18.1456  -12.8255  -18.6704 O   0  0  0  0  0  0  0  0  0  0  0  0
   18.6730   -9.7522  -15.9074 C   0  0  0  0  0  0  0  0  0  0  0  0
   17.6109   -9.2942  -15.4125 O   0  0  0  0  0  0  0  0  0  0  0  0
   16.4671  -13.8175  -17.5393 O   0  0  0  0  0  0  0  0  0  0  0  0
   19.9226   -9.8294  -12.5118 C   0  0  0  0  0  0  0  0  0  0  0  0
   20.7376   -8.7638  -13.1981 C   0  0  1  0  0  0  0  0  0  0  0  0
   21.9820   -9.2549  -13.6027 O   0  0  0  0  0  0  0  0  0  0  0  0
   19.9607   -8.2347  -14.4111 C   0  0  2  0  0  0  0  0  0  0  0  0
   19.9142   -9.2554  -15.4447 N   0  0  0  0  0  0  0  0  0  0  0  0
   20.6771   -7.0246  -14.8841 C   0  0  0  0  0  0  0  0  0  0  0  0
   21.4950   -7.1344  -15.8172 O   0  0  0  0  0  0  0  0  0  0  0  0
   20.4789   -5.7359  -14.3252 N   0  0  0  0  0  0  0  0  0  0  0  0
   21.2823   -4.5845  -14.6858 C   0  0  1  0  0  0  0  0  0  0  0  0
   20.4669   -3.3118  -14.7008 C   0  0  0  0  0  0  0  0  0  0  0  0
   19.4638   -3.3217  -15.8069 C   0  0  0  0  0  0  0  0  0  0  0  0
   19.7803   -3.7870  -17.0686 C   0  0  0  0  0  0  0  0  0  0  0  0
   18.6721   -3.6632  -17.8274 N   0  0  0  0  0  0  0  0  0  0  0  0
   17.6956   -3.1377  -17.0641 C   0  0  0  0  0  0  0  0  0  0  0  0
   18.1937   -2.9317  -15.8233 N   0  0  0  0  0  0  0  0  0  0  0  0
   22.3997   -4.4671  -13.7139 C   0  0  0  0  0  0  0  0  0  0  0  0
   22.4864   -5.3158  -12.6122 O   0  0  0  0  0  0  0  0  0  0  0  0
   23.3127   -3.6090  -13.8317 O   0  0  0  0  0  0  0  0  0  0  0  0
  2  3  1  0
  2  1  1  1
  3  4  1  0
  4  8  1  0
  4  5  2  0
  6  2  1  0
  6  7  2  0
 10  9  1  6
 10 12  1  0
 11 10  1  0
 12 13  1  6
 12 14  1  0
 13  6  1  0
 14 16  1  0
 15 14  2  0
 16 17  1  0
 17 24  1  0
 17 18  1  1
 19 18  1  0
 20 19  2  0
 21 22  1  0
 21 20  1  0
 22 23  2  0
 23 19  1  0
 24 26  2  0
 24 25  1  0
M  END
$$$$
