DTH.pdb
     RDKit          3D

 26 26  0  0  1  0  0  0  0  0999 V2000
   27.0774  -32.1108  -15.1094 N   0  0  0  0  0  0  0  0  0  0  0  0
   27.4054  -33.5012  -14.9365 C   0  0  1  0  0  0  0  0  0  0  0  0
   26.2817  -34.3175  -15.5620 C   0  0  0  0  0  0  0  0  0  0  0  0
   25.0764  -34.2099  -14.7014 C   0  0  0  0  0  0  0  0  0  0  0  0
   23.9714  -33.7956  -15.1297 O   0  0  0  0  0  0  0  0  0  0  0  0
   28.6809  -33.8190  -15.6158 C   0  0  0  0  0  0  0  0  0  0  0  0
   29.0716  -35.0135  -15.6750 O   0  0  0  0  0  0  0  0  0  0  0  0
   25.1370  -34.5735  -13.3643 O   0  0  0  0  0  0  0  0  0  0  0  0
   29.7095  -32.9178  -19.1140 C   0  0  0  0  0  0  0  0  0  0  0  0
   30.8102  -32.4195  -18.2134 C   0  0  1  0  0  0  0  0  0  0  0  0
   30.7257  -31.0377  -18.0213 O   0  0  0  0  0  0  0  0  0  0  0  0
   30.7274  -33.1447  -16.8636 C   0  0  2  0  0  0  0  0  0  0  0  0
   29.4770  -32.8081  -16.2039 N   0  0  0  0  0  0  0  0  0  0  0  0
   31.8937  -32.6958  -16.0638 C   0  0  0  0  0  0  0  0  0  0  0  0
   31.6984  -31.9846  -15.0599 O   0  0  0  0  0  0  0  0  0  0  0  0
   33.2331  -33.0362  -16.3840 N   0  0  0  0  0  0  0  0  0  0  0  0
   34.3662  -32.6427  -15.5700 C   0  0  1  0  0  0  0  0  0  0  0  0
   34.2144  -33.0982  -14.1367 C   0  0  0  0  0  0  0  0  0  0  0  0
   35.4319  -32.7797  -13.3331 C   0  0  0  0  0  0  0  0  0  0  0  0
   36.3008  -31.7708  -13.7019 C   0  0  0  0  0  0  0  0  0  0  0  0
   37.2855  -31.7380  -12.7810 N   0  0  0  0  0  0  0  0  0  0  0  0
   37.0395  -32.6953  -11.8670 C   0  0  0  0  0  0  0  0  0  0  0  0
   35.8970  -33.3297  -12.2165 N   0  0  0  0  0  0  0  0  0  0  0  0
   35.5976  -33.2223  -16.1655 C   0  0  0  0  0  0  0  0  0  0  0  0
   35.5401  -34.0017  -17.3192 O   0  0  0  0  0  0  0  0  0  0  0  0
   36.7396  -33.0434  -15.6681 O   0  0  0  0  0  0  0  0  0  0  0  0
  2  3  1  0
  2  1  1  6
  3  4  1  0
  4  8  1  0
  4  5  2  0
  6  2  1  0
  6  7  2  0
 10  9  1  6
 10 12  1  0
 11 10  1  0
 12 13  1  1
 12 14  1  0
 13  6  1  0
 14 16  1  0
 15 14  2  0
 16 17  1  0
 17 24  1  0
 17 18  1  1
 19 18  1  0
 20 19  2  0
 21 22  1  0
 21 20  1  0
 22 23  2  0
 23 19  1  0
 24 26  2  0
 24 25  1  0
M  END
$$$$
