DTH.pdb
     RDKit          3D

 26 26  0  0  1  0  0  0  0  0999 V2000
   18.4958  -13.6626  -18.5179 N   0  0  0  0  0  0  0  0  0  0  0  0
   18.2301  -12.3741  -17.9350 C   0  0  1  0  0  0  0  0  0  0  0  0
   18.4033  -12.5095  -16.4277 C   0  0  0  0  0  0  0  0  0  0  0  0
   17.3320  -13.3924  -15.9007 C   0  0  0  0  0  0  0  0  0  0  0  0
   16.1127  -13.1794  -16.1102 O   0  0  0  0  0  0  0  0  0  0  0  0
   19.1839  -11.3675  -18.4511 C   0  0  0  0  0  0  0  0  0  0  0  0
   19.8685  -11.6285  -19.4739 O   0  0  0  0  0  0  0  0  0  0  0  0
   17.6550  -14.5075  -15.1417 O   0  0  0  0  0  0  0  0  0  0  0  0
   19.2040   -9.3461  -20.7139 C   0  0  0  0  0  0  0  0  0  0  0  0
   19.3533   -8.3932  -19.5560 C   0  0  1  0  0  0  0  0  0  0  0  0
   18.1090   -7.9818  -19.0704 O   0  0  0  0  0  0  0  0  0  0  0  0
   20.1552   -9.0749  -18.4392 C   0  0  2  0  0  0  0  0  0  0  0  0
   19.3466  -10.1118  -17.8202 N   0  0  0  0  0  0  0  0  0  0  0  0
   20.5121   -8.0175  -17.4615 C   0  0  0  0  0  0  0  0  0  0  0  0
   19.7278   -7.7728  -16.5251 O   0  0  0  0  0  0  0  0  0  0  0  0
   21.7107   -7.2624  -17.5362 N   0  0  0  0  0  0  0  0  0  0  0  0
   22.0656   -6.2429  -16.5688 C   0  0  1  0  0  0  0  0  0  0  0  0
   23.3502   -6.5764  -15.8454 C   0  0  0  0  0  0  0  0  0  0  0  0
   23.1970   -7.7979  -15.0004 C   0  0  0  0  0  0  0  0  0  0  0  0
   22.0126   -8.5079  -14.9601 C   0  0  0  0  0  0  0  0  0  0  0  0
   22.1979   -9.5424  -14.1148 N   0  0  0  0  0  0  0  0  0  0  0  0
   23.4571   -9.4802  -13.6428 C   0  0  0  0  0  0  0  0  0  0  0  0
   24.0625   -8.4034  -14.1941 N   0  0  0  0  0  0  0  0  0  0  0  0
   22.1985   -4.9452  -17.2797 C   0  0  0  0  0  0  0  0  0  0  0  0
   22.4514   -3.7658  -16.5820 O   0  0  0  0  0  0  0  0  0  0  0  0
   22.0915   -4.8433  -18.5295 O   0  0  0  0  0  0  0  0  0  0  0  0
  2  3  1  0
  2  1  1  6
  3  4  1  0
  4  8  1  0
  4  5  2  0
  6  2  1  0
  6  7  2  0
 10  9  1  6
 10 12  1  0
 11 10  1  0
 12 13  1  1
 12 14  1  0
 13  6  1  0
 14 16  1  0
 15 14  2  0
 16 17  1  0
 17 24  1  0
 17 18  1  6
 19 18  1  0
 20 19  2  0
 21 22  1  0
 21 20  1  0
 22 23  2  0
 23 19  1  0
 24 26  2  0
 24 25  1  0
M  END
$$$$
