DTH.pdb
     RDKit          3D

 26 26  0  0  1  0  0  0  0  0999 V2000
   19.8165  -10.5358  -15.0884 N   0  0  0  0  0  0  0  0  0  0  0  0
   18.6623   -9.7867  -14.6673 C   0  0  1  0  0  0  0  0  0  0  0  0
   17.4771  -10.7434  -14.6510 C   0  0  0  0  0  0  0  0  0  0  0  0
   16.9757  -10.9072  -16.0391 C   0  0  0  0  0  0  0  0  0  0  0  0
   17.5016  -10.3315  -17.0230 O   0  0  0  0  0  0  0  0  0  0  0  0
   18.8703   -9.2383  -13.3089 C   0  0  0  0  0  0  0  0  0  0  0  0
   19.3383   -9.9788  -12.4058 O   0  0  0  0  0  0  0  0  0  0  0  0
   15.8832  -11.7220  -16.2966 O   0  0  0  0  0  0  0  0  0  0  0  0
   21.1946   -7.1950  -11.7291 C   0  0  0  0  0  0  0  0  0  0  0  0
   19.9093   -6.4189  -11.6004 C   0  0  1  0  0  0  0  0  0  0  0  0
   19.7855   -5.4655  -12.6148 O   0  0  0  0  0  0  0  0  0  0  0  0
   18.7235   -7.3920  -11.6448 C   0  0  2  0  0  0  0  0  0  0  0  0
   18.5545   -7.8948  -12.9979 N   0  0  0  0  0  0  0  0  0  0  0  0
   17.5288   -6.6319  -11.2018 C   0  0  0  0  0  0  0  0  0  0  0  0
   16.8171   -6.0745  -12.0589 O   0  0  0  0  0  0  0  0  0  0  0  0
   17.1493   -6.5043   -9.8409 N   0  0  0  0  0  0  0  0  0  0  0  0
   15.9866   -5.7532   -9.4103 C   0  0  1  0  0  0  0  0  0  0  0  0
   15.3124   -6.3940   -8.2188 C   0  0  0  0  0  0  0  0  0  0  0  0
   14.5642   -7.6242   -8.6140 C   0  0  0  0  0  0  0  0  0  0  0  0
   14.4260   -7.9952   -9.9377 C   0  0  0  0  0  0  0  0  0  0  0  0
   13.7070   -9.1360   -9.9577 N   0  0  0  0  0  0  0  0  0  0  0  0
   13.4060   -9.4665   -8.6879 C   0  0  0  0  0  0  0  0  0  0  0  0
   13.9383   -8.5298   -7.8698 N   0  0  0  0  0  0  0  0  0  0  0  0
   16.4165   -4.3712   -9.0754 C   0  0  0  0  0  0  0  0  0  0  0  0
   15.4828   -3.3565   -8.8752 O   0  0  0  0  0  0  0  0  0  0  0  0
   17.6270   -4.0483   -8.9567 O   0  0  0  0  0  0  0  0  0  0  0  0
  2  3  1  0
  2  1  1  1
  3  4  1  0
  4  8  1  0
  4  5  2  0
  6  2  1  0
  6  7  2  0
 10  9  1  6
 10 12  1  0
 11 10  1  0
 12 13  1  6
 12 14  1  0
 13  6  1  0
 14 16  1  0
 15 14  2  0
 16 17  1  0
 17 24  1  0
 17 18  1  1
 19 18  1  0
 20 19  2  0
 21 22  1  0
 21 20  1  0
 22 23  2  0
 23 19  1  0
 24 26  2  0
 24 25  1  0
M  END
$$$$
