DTH.pdb
     RDKit          3D

 26 26  0  0  1  0  0  0  0  0999 V2000
   23.2789   -3.8898  -16.7241 N   0  0  0  0  0  0  0  0  0  0  0  0
   23.2541   -4.0045  -15.2900 C   0  0  1  0  0  0  0  0  0  0  0  0
   22.7407   -2.6826  -14.7342 C   0  0  0  0  0  0  0  0  0  0  0  0
   21.4558   -2.3506  -15.4003 C   0  0  0  0  0  0  0  0  0  0  0  0
   20.9139   -3.1057  -16.2442 O   0  0  0  0  0  0  0  0  0  0  0  0
   22.3474   -5.0977  -14.8752 C   0  0  0  0  0  0  0  0  0  0  0  0
   22.1662   -5.3226  -13.6506 O   0  0  0  0  0  0  0  0  0  0  0  0
   20.7991   -1.1657  -15.1025 O   0  0  0  0  0  0  0  0  0  0  0  0
   18.7281   -5.7774  -15.2428 C   0  0  0  0  0  0  0  0  0  0  0  0
   19.4453   -6.8889  -15.9646 C   0  0  1  0  0  0  0  0  0  0  0  0
   19.5006   -6.6511  -17.3407 O   0  0  0  0  0  0  0  0  0  0  0  0
   20.8642   -7.0285  -15.3970 C   0  0  2  0  0  0  0  0  0  0  0  0
   21.6751   -5.9012  -15.8259 N   0  0  0  0  0  0  0  0  0  0  0  0
   21.4085   -8.3083  -15.9140 C   0  0  0  0  0  0  0  0  0  0  0  0
   22.1730   -8.2848  -16.8971 O   0  0  0  0  0  0  0  0  0  0  0  0
   21.1020   -9.5703  -15.3431 N   0  0  0  0  0  0  0  0  0  0  0  0
   21.5351  -10.8269  -15.9214 C   0  0  1  0  0  0  0  0  0  0  0  0
   22.5938  -11.4993  -15.0777 C   0  0  0  0  0  0  0  0  0  0  0  0
   23.9630  -11.0363  -15.4526 C   0  0  0  0  0  0  0  0  0  0  0  0
   24.1629  -10.0799  -16.4293 C   0  0  0  0  0  0  0  0  0  0  0  0
   25.4938   -9.8855  -16.5286 N   0  0  0  0  0  0  0  0  0  0  0  0
   26.1049  -10.6942  -15.6427 C   0  0  0  0  0  0  0  0  0  0  0  0
   25.1537  -11.3975  -14.9864 N   0  0  0  0  0  0  0  0  0  0  0  0
   20.3512  -11.7132  -16.0623 C   0  0  0  0  0  0  0  0  0  0  0  0
   20.2719  -12.6486  -17.0921 O   0  0  0  0  0  0  0  0  0  0  0  0
   19.3727  -11.6673  -15.2723 O   0  0  0  0  0  0  0  0  0  0  0  0
  2  3  1  0
  2  1  1  6
  3  4  1  0
  4  8  1  0
  4  5  2  0
  6  2  1  0
  6  7  2  0
 10  9  1  1
 10 12  1  0
 11 10  1  0
 12 13  1  6
 12 14  1  0
 13  6  1  0
 14 16  1  0
 15 14  2  0
 16 17  1  0
 17 24  1  0
 17 18  1  1
 19 18  1  0
 20 19  2  0
 21 22  1  0
 21 20  1  0
 22 23  2  0
 23 19  1  0
 24 26  2  0
 24 25  1  0
M  END
$$$$
