DTH.pdb
     RDKit          3D

 26 26  0  0  1  0  0  0  0  0999 V2000
   28.4768  -27.8713  -16.9931 N   0  0  0  0  0  0  0  0  0  0  0  0
   28.9478  -26.5192  -16.8497 C   0  0  1  0  0  0  0  0  0  0  0  0
   29.8025  -26.2007  -18.0696 C   0  0  0  0  0  0  0  0  0  0  0  0
   30.4312  -24.8692  -17.8785 C   0  0  0  0  0  0  0  0  0  0  0  0
   30.8834  -24.4846  -16.7723 O   0  0  0  0  0  0  0  0  0  0  0  0
   27.8069  -25.5789  -16.7895 C   0  0  0  0  0  0  0  0  0  0  0  0
   28.0197  -24.3581  -16.5718 O   0  0  0  0  0  0  0  0  0  0  0  0
   30.5406  -23.9879  -18.9439 O   0  0  0  0  0  0  0  0  0  0  0  0
   25.6342  -23.9248  -19.0188 C   0  0  0  0  0  0  0  0  0  0  0  0
   24.7405  -24.8419  -18.2244 C   0  0  1  0  0  0  0  0  0  0  0  0
   24.5404  -26.0572  -18.8851 O   0  0  0  0  0  0  0  0  0  0  0  0
   25.3662  -25.0892  -16.8452 C   0  0  2  0  0  0  0  0  0  0  0  0
   26.4751  -26.0201  -16.9716 N   0  0  0  0  0  0  0  0  0  0  0  0
   24.2950  -25.6449  -15.9821 C   0  0  0  0  0  0  0  0  0  0  0  0
   24.1168  -26.8776  -15.9607 O   0  0  0  0  0  0  0  0  0  0  0  0
   23.4539  -24.8399  -15.1716 N   0  0  0  0  0  0  0  0  0  0  0  0
   22.3775  -25.3811  -14.3655 C   0  0  1  0  0  0  0  0  0  0  0  0
   21.8644  -24.3735  -13.3624 C   0  0  0  0  0  0  0  0  0  0  0  0
   20.7074  -24.9160  -12.5900 C   0  0  0  0  0  0  0  0  0  0  0  0
   20.8686  -25.9124  -11.6466 C   0  0  0  0  0  0  0  0  0  0  0  0
   19.6490  -26.1760  -11.1346 N   0  0  0  0  0  0  0  0  0  0  0  0
   18.7555  -25.3703  -11.7387 C   0  0  0  0  0  0  0  0  0  0  0  0
   19.4175  -24.5996  -12.6319 N   0  0  0  0  0  0  0  0  0  0  0  0
   21.2803  -25.8087  -15.2712 C   0  0  0  0  0  0  0  0  0  0  0  0
   20.5025  -26.9276  -14.9798 O   0  0  0  0  0  0  0  0  0  0  0  0
   20.9992  -25.1935  -16.3324 O   0  0  0  0  0  0  0  0  0  0  0  0
  2  3  1  0
  2  1  1  6
  3  4  1  0
  4  8  1  0
  4  5  2  0
  6  2  1  0
  6  7  2  0
 10  9  1  6
 10 12  1  0
 11 10  1  0
 12 13  1  6
 12 14  1  0
 13  6  1  0
 14 16  1  0
 15 14  2  0
 16 17  1  0
 17 24  1  0
 17 18  1  1
 19 18  1  0
 20 19  2  0
 21 22  1  0
 21 20  1  0
 22 23  2  0
 23 19  1  0
 24 26  2  0
 24 25  1  0
M  END
$$$$
