DTH.pdb
     RDKit          3D

 26 26  0  0  1  0  0  0  0  0999 V2000
   21.3572  -12.9963  -18.3396 N   0  0  0  0  0  0  0  0  0  0  0  0
   21.2768  -11.5665  -18.4808 C   0  0  1  0  0  0  0  0  0  0  0  0
   19.8567  -11.2291  -18.9163 C   0  0  0  0  0  0  0  0  0  0  0  0
   19.7074  -11.5578  -20.3566 C   0  0  0  0  0  0  0  0  0  0  0  0
   20.6775  -11.8894  -21.0812 O   0  0  0  0  0  0  0  0  0  0  0  0
   21.5660  -10.9033  -17.1902 C   0  0  0  0  0  0  0  0  0  0  0  0
   21.1186  -11.3989  -16.1238 O   0  0  0  0  0  0  0  0  0  0  0  0
   18.4595  -11.5069  -20.9600 O   0  0  0  0  0  0  0  0  0  0  0  0
   24.3984  -10.5418  -15.1408 C   0  0  0  0  0  0  0  0  0  0  0  0
   24.0367   -9.1178  -15.4758 C   0  0  1  0  0  0  0  0  0  0  0  0
   24.8208   -8.6251  -16.5226 O   0  0  0  0  0  0  0  0  0  0  0  0
   22.5508   -9.0480  -15.8530 C   0  0  2  0  0  0  0  0  0  0  0  0
   22.3374   -9.7191  -17.1243 N   0  0  0  0  0  0  0  0  0  0  0  0
   22.1979   -7.6095  -15.9398 C   0  0  0  0  0  0  0  0  0  0  0  0
   22.2704   -7.0367  -17.0436 O   0  0  0  0  0  0  0  0  0  0  0  0
   21.7781   -6.8434  -14.8222 N   0  0  0  0  0  0  0  0  0  0  0  0
   21.4437   -5.4355  -14.9081 C   0  0  1  0  0  0  0  0  0  0  0  0
   19.9674   -5.1936  -14.6916 C   0  0  0  0  0  0  0  0  0  0  0  0
   19.1688   -5.6008  -15.8859 C   0  0  0  0  0  0  0  0  0  0  0  0
   19.6958   -5.5508  -17.1620 C   0  0  0  0  0  0  0  0  0  0  0  0
   18.7345   -5.9780  -18.0059 N   0  0  0  0  0  0  0  0  0  0  0  0
   17.6428   -6.2846  -17.2803 C   0  0  0  0  0  0  0  0  0  0  0  0
   17.9212   -6.0487  -15.9777 N   0  0  0  0  0  0  0  0  0  0  0  0
   22.2391   -4.6998  -13.8918 C   0  0  0  0  0  0  0  0  0  0  0  0
   22.3808   -3.3150  -13.9543 O   0  0  0  0  0  0  0  0  0  0  0  0
   22.8181   -5.2783  -12.9358 O   0  0  0  0  0  0  0  0  0  0  0  0
  2  3  1  0
  2  1  1  1
  3  4  1  0
  4  8  1  0
  4  5  2  0
  6  2  1  0
  6  7  2  0
 10  9  1  6
 10 12  1  0
 11 10  1  0
 12 13  1  6
 12 14  1  0
 13  6  1  0
 14 16  1  0
 15 14  2  0
 16 17  1  0
 17 24  1  0
 17 18  1  1
 19 18  1  0
 20 19  2  0
 21 22  1  0
 21 20  1  0
 22 23  2  0
 23 19  1  0
 24 26  2  0
 24 25  1  0
M  END
$$$$
