DTH.pdb
     RDKit          3D

 26 26  0  0  1  0  0  0  0  0999 V2000
   15.5130  -12.3780  -15.9390 N   0  0  0  0  0  0  0  0  0  0  0  0
   16.6679  -11.7855  -15.3178 C   0  0  1  0  0  0  0  0  0  0  0  0
   17.8835  -12.5998  -15.7415 C   0  0  0  0  0  0  0  0  0  0  0  0
   17.7553  -13.9725  -15.1900 C   0  0  0  0  0  0  0  0  0  0  0  0
   18.1926  -14.9870  -15.7863 O   0  0  0  0  0  0  0  0  0  0  0  0
   16.8336  -10.3851  -15.7659 C   0  0  0  0  0  0  0  0  0  0  0  0
   16.5202  -10.0689  -16.9426 O   0  0  0  0  0  0  0  0  0  0  0  0
   17.1326  -14.1801  -13.9681 O   0  0  0  0  0  0  0  0  0  0  0  0
   15.1349   -7.4025  -14.5424 C   0  0  0  0  0  0  0  0  0  0  0  0
   16.6046   -7.1182  -14.3692 C   0  0  1  0  0  0  0  0  0  0  0  0
   17.0166   -7.3461  -13.0533 O   0  0  0  0  0  0  0  0  0  0  0  0
   17.4083   -8.0013  -15.3331 C   0  0  2  0  0  0  0  0  0  0  0  0
   17.3384   -9.3868  -14.8997 N   0  0  0  0  0  0  0  0  0  0  0  0
   18.8050   -7.5014  -15.3086 C   0  0  0  0  0  0  0  0  0  0  0  0
   19.7394   -8.3246  -15.2777 O   0  0  0  0  0  0  0  0  0  0  0  0
   19.1372   -6.1223  -15.3185 N   0  0  0  0  0  0  0  0  0  0  0  0
   20.4977   -5.6366  -15.4387 C   0  0  1  0  0  0  0  0  0  0  0  0
   21.1802   -6.1749  -16.6753 C   0  0  0  0  0  0  0  0  0  0  0  0
   22.5595   -5.6213  -16.8197 C   0  0  0  0  0  0  0  0  0  0  0  0
   23.6680   -6.4435  -16.8820 C   0  0  0  0  0  0  0  0  0  0  0  0
   24.7478   -5.6456  -17.0105 N   0  0  0  0  0  0  0  0  0  0  0  0
   24.3270   -4.3670  -17.0279 C   0  0  0  0  0  0  0  0  0  0  0  0
   22.9794   -4.3638  -16.9099 N   0  0  0  0  0  0  0  0  0  0  0  0
   20.4661   -4.1518  -15.4746 C   0  0  0  0  0  0  0  0  0  0  0  0
   21.5879   -3.4003  -15.1302 O   0  0  0  0  0  0  0  0  0  0  0  0
   19.4415   -3.5040  -15.8123 O   0  0  0  0  0  0  0  0  0  0  0  0
  2  3  1  0
  2  1  1  6
  3  4  1  0
  4  8  1  0
  4  5  2  0
  6  2  1  0
  6  7  2  0
 10  9  1  1
 10 12  1  0
 11 10  1  0
 12 13  1  1
 12 14  1  0
 13  6  1  0
 14 16  1  0
 15 14  2  0
 16 17  1  0
 17 24  1  0
 17 18  1  6
 19 18  1  0
 20 19  2  0
 21 22  1  0
 21 20  1  0
 22 23  2  0
 23 19  1  0
 24 26  2  0
 24 25  1  0
M  END
$$$$
