DTH.pdb
     RDKit          3D

 26 26  0  0  1  0  0  0  0  0999 V2000
   22.7483  -12.3052  -17.9090 N   0  0  0  0  0  0  0  0  0  0  0  0
   21.9948  -11.1241  -18.2375 C   0  0  1  0  0  0  0  0  0  0  0  0
   20.5951  -11.3001  -17.6630 C   0  0  0  0  0  0  0  0  0  0  0  0
   19.9526  -12.4676  -18.3181 C   0  0  0  0  0  0  0  0  0  0  0  0
   20.0835  -12.7162  -19.5417 O   0  0  0  0  0  0  0  0  0  0  0  0
   22.6250   -9.9267  -17.6389 C   0  0  0  0  0  0  0  0  0  0  0  0
   23.4215  -10.0612  -16.6744 O   0  0  0  0  0  0  0  0  0  0  0  0
   19.1686  -13.3408  -17.5786 O   0  0  0  0  0  0  0  0  0  0  0  0
   24.0471   -5.2700  -18.0408 C   0  0  0  0  0  0  0  0  0  0  0  0
   23.3664   -6.4672  -18.6525 C   0  0  1  0  0  0  0  0  0  0  0  0
   24.1774   -7.0803  -19.6116 O   0  0  0  0  0  0  0  0  0  0  0  0
   23.0115   -7.4687  -17.5452 C   0  0  2  0  0  0  0  0  0  0  0  0
   22.3532   -8.6267  -18.1265 N   0  0  0  0  0  0  0  0  0  0  0  0
   22.1148   -6.7607  -16.5986 C   0  0  0  0  0  0  0  0  0  0  0  0
   20.9860   -6.4063  -16.9883 O   0  0  0  0  0  0  0  0  0  0  0  0
   22.4774   -6.4625  -15.2600 N   0  0  0  0  0  0  0  0  0  0  0  0
   21.6154   -5.7346  -14.3498 C   0  0  1  0  0  0  0  0  0  0  0  0
   21.4206   -6.4746  -13.0463 C   0  0  0  0  0  0  0  0  0  0  0  0
   20.4570   -7.6047  -13.2013 C   0  0  0  0  0  0  0  0  0  0  0  0
   19.8537   -7.8822  -14.4128 C   0  0  0  0  0  0  0  0  0  0  0  0
   19.0501   -8.9483  -14.2215 N   0  0  0  0  0  0  0  0  0  0  0  0
   19.1486   -9.3242  -12.9327 C   0  0  0  0  0  0  0  0  0  0  0  0
   20.0166   -8.4908  -12.3145 N   0  0  0  0  0  0  0  0  0  0  0  0
   22.2171   -4.3999  -14.0977 C   0  0  0  0  0  0  0  0  0  0  0  0
   21.5029   -3.4027  -13.4364 O   0  0  0  0  0  0  0  0  0  0  0  0
   23.3846   -4.1033  -14.4619 O   0  0  0  0  0  0  0  0  0  0  0  0
  2  3  1  0
  2  1  1  1
  3  4  1  0
  4  8  1  0
  4  5  2  0
  6  2  1  0
  6  7  2  0
 10  9  1  1
 10 12  1  0
 11 10  1  0
 12 13  1  6
 12 14  1  0
 13  6  1  0
 14 16  1  0
 15 14  2  0
 16 17  1  0
 17 24  1  0
 17 18  1  1
 19 18  1  0
 20 19  2  0
 21 22  1  0
 21 20  1  0
 22 23  2  0
 23 19  1  0
 24 26  2  0
 24 25  1  0
M  END
$$$$
