DTH.pdb
     RDKit          3D

 26 26  0  0  1  0  0  0  0  0999 V2000
   20.4228  -13.5559  -17.6975 N   0  0  0  0  0  0  0  0  0  0  0  0
   19.3834  -13.2237  -16.7595 C   0  0  1  0  0  0  0  0  0  0  0  0
   19.2011  -14.4210  -15.8357 C   0  0  0  0  0  0  0  0  0  0  0  0
   18.7226  -15.5753  -16.6378 C   0  0  0  0  0  0  0  0  0  0  0  0
   17.8645  -15.4608  -17.5471 O   0  0  0  0  0  0  0  0  0  0  0  0
   19.7688  -12.0398  -15.9599 C   0  0  0  0  0  0  0  0  0  0  0  0
   19.0679  -11.7045  -14.9703 O   0  0  0  0  0  0  0  0  0  0  0  0
   19.2223  -16.8472  -16.4004 O   0  0  0  0  0  0  0  0  0  0  0  0
   23.1623  -11.3172  -14.4348 C   0  0  0  0  0  0  0  0  0  0  0  0
   22.7814  -10.0981  -15.2346 C   0  0  1  0  0  0  0  0  0  0  0  0
   23.4676  -10.0515  -16.4513 O   0  0  0  0  0  0  0  0  0  0  0  0
   21.2672  -10.1090  -15.4841 C   0  0  2  0  0  0  0  0  0  0  0  0
   20.9119  -11.2708  -16.2817 N   0  0  0  0  0  0  0  0  0  0  0  0
   20.9415   -8.8491  -16.1968 C   0  0  0  0  0  0  0  0  0  0  0  0
   20.5534   -8.9083  -17.3790 O   0  0  0  0  0  0  0  0  0  0  0  0
   21.0492   -7.5674  -15.5983 N   0  0  0  0  0  0  0  0  0  0  0  0
   20.5720   -6.3547  -16.2330 C   0  0  1  0  0  0  0  0  0  0  0  0
   19.1007   -6.4373  -16.5695 C   0  0  0  0  0  0  0  0  0  0  0  0
   18.6214   -5.1838  -17.2242 C   0  0  0  0  0  0  0  0  0  0  0  0
   19.4969   -4.1881  -17.6126 C   0  0  0  0  0  0  0  0  0  0  0  0
   18.7591   -3.2034  -18.1648 N   0  0  0  0  0  0  0  0  0  0  0  0
   17.4651   -3.5723  -18.1225 C   0  0  0  0  0  0  0  0  0  0  0  0
   17.3921   -4.7920  -17.5420 N   0  0  0  0  0  0  0  0  0  0  0  0
   20.8261   -5.2127  -15.3174 C   0  0  0  0  0  0  0  0  0  0  0  0
   21.4097   -5.4096  -14.0675 O   0  0  0  0  0  0  0  0  0  0  0  0
   20.5329   -4.0261  -15.6168 O   0  0  0  0  0  0  0  0  0  0  0  0
  2  3  1  0
  2  1  1  6
  3  4  1  0
  4  8  1  0
  4  5  2  0
  6  2  1  0
  6  7  2  0
 10  9  1  6
 10 12  1  0
 11 10  1  0
 12 13  1  6
 12 14  1  0
 13  6  1  0
 14 16  1  0
 15 14  2  0
 16 17  1  0
 17 24  1  0
 17 18  1  1
 19 18  1  0
 20 19  2  0
 21 22  1  0
 21 20  1  0
 22 23  2  0
 23 19  1  0
 24 26  2  0
 24 25  1  0
M  END
$$$$
