HSG.pdb
     RDKit          3D

 21 21  0  0  1  0  0  0  0  0999 V2000
   19.1329  -10.0210  -16.8836 N   0  0  0  0  0  0  0  0  0  0  0  0
   18.4351   -9.6909  -15.6818 C   0  0  1  0  0  0  0  0  0  0  0  0
   18.5084  -10.7852  -14.6282 C   0  0  0  0  0  0  0  0  0  0  0  0
   18.0814  -12.0852  -15.2070 C   0  0  0  0  0  0  0  0  0  0  0  0
   18.8994  -13.2113  -15.3496 C   0  0  0  0  0  0  0  0  0  0  0  0
   18.1910  -14.1973  -15.9047 N   0  0  0  0  0  0  0  0  0  0  0  0
   16.9519  -13.7179  -16.1131 C   0  0  0  0  0  0  0  0  0  0  0  0
   16.8832  -12.4248  -15.6864 N   0  0  0  0  0  0  0  0  0  0  0  0
   18.9053   -8.4226  -15.0559 C   0  0  0  0  0  0  0  0  0  0  0  0
   18.2578   -8.0265  -14.0482 O   0  0  0  0  0  0  0  0  0  0  0  0
   22.6516   -7.1351  -14.8434 O   0  0  0  0  0  0  0  0  0  0  0  0
   21.6106   -6.5555  -14.1220 C   0  0  0  0  0  0  0  0  0  0  0  0
   20.3571   -6.4276  -14.9451 C   0  0  2  0  0  0  0  0  0  0  0  0
   20.0135   -7.6909  -15.5507 N   0  0  0  0  0  0  0  0  0  0  0  0
   20.4191   -5.3287  -15.9334 C   0  0  0  0  0  0  0  0  0  0  0  0
   20.8276   -5.5650  -17.1001 O   0  0  0  0  0  0  0  0  0  0  0  0
   20.0274   -4.0100  -15.5953 N   0  0  0  0  0  0  0  0  0  0  0  0
   20.1433   -2.8873  -16.4942 C   0  0  0  0  0  0  0  0  0  0  0  0
   19.6642   -1.6289  -15.9248 C   0  0  0  0  0  0  0  0  0  0  0  0
   19.8034   -0.4532  -16.6424 O   0  0  0  0  0  0  0  0  0  0  0  0
   19.1229   -1.5650  -14.7950 O   0  0  0  0  0  0  0  0  0  0  0  0
  2  1  1  6
  2  3  1  0
  3  4  1  0
  4  8  1  0
  5  4  2  0
  5  6  1  0
  6  7  1  0
  8  7  2  0
  9 14  1  0
  9  2  1  0
 10  9  2  0
 12 11  1  0
 13 12  1  6
 13 14  1  0
 15 13  1  0
 15 17  1  0
 16 15  2  0
 18 17  1  0
 18 19  1  0
 19 20  1  0
 21 19  2  0
M  END
$$$$
