HSG.pdb
     RDKit          3D

 21 21  0  0  1  0  0  0  0  0999 V2000
   26.9849  -19.5382  -16.5102 N   0  0  0  0  0  0  0  0  0  0  0  0
   26.8283  -19.1487  -15.1450 C   0  0  1  0  0  0  0  0  0  0  0  0
   26.2083  -17.7693  -14.9842 C   0  0  0  0  0  0  0  0  0  0  0  0
   27.0707  -16.7409  -15.6215 C   0  0  0  0  0  0  0  0  0  0  0  0
   28.2739  -16.9985  -16.2874 C   0  0  0  0  0  0  0  0  0  0  0  0
   28.7804  -15.8468  -16.7338 N   0  0  0  0  0  0  0  0  0  0  0  0
   27.9260  -14.8759  -16.3648 C   0  0  0  0  0  0  0  0  0  0  0  0
   26.8787  -15.4218  -15.6836 N   0  0  0  0  0  0  0  0  0  0  0  0
   26.0160  -20.1100  -14.3465 C   0  0  0  0  0  0  0  0  0  0  0  0
   25.0743  -20.6847  -14.9585 O   0  0  0  0  0  0  0  0  0  0  0  0
   26.2229  -20.5720  -10.0871 O   0  0  0  0  0  0  0  0  0  0  0  0
   25.9869  -21.6511  -10.9356 C   0  0  0  0  0  0  0  0  0  0  0  0
   25.3671  -21.2195  -12.2375 C   0  0  2  0  0  0  0  0  0  0  0  0
   26.2724  -20.3753  -12.9782 N   0  0  0  0  0  0  0  0  0  0  0  0
   24.0327  -20.6031  -12.0710 C   0  0  0  0  0  0  0  0  0  0  0  0
   23.9441  -19.4092  -11.6831 O   0  0  0  0  0  0  0  0  0  0  0  0
   22.8465  -21.3294  -12.3393 N   0  0  0  0  0  0  0  0  0  0  0  0
   21.5214  -20.8113  -12.0990 C   0  0  0  0  0  0  0  0  0  0  0  0
   20.4532  -21.7109  -12.5316 C   0  0  0  0  0  0  0  0  0  0  0  0
   19.1341  -21.3932  -12.2564 O   0  0  0  0  0  0  0  0  0  0  0  0
   20.6818  -22.7769  -13.1521 O   0  0  0  0  0  0  0  0  0  0  0  0
  2  1  1  6
  2  3  1  0
  3  4  1  0
  4  8  1  0
  5  4  2  0
  5  6  1  0
  6  7  1  0
  8  7  2  0
  9 14  1  0
  9  2  1  0
 10  9  2  0
 12 11  1  0
 13 12  1  1
 13 14  1  0
 15 13  1  0
 15 17  1  0
 16 15  2  0
 18 17  1  0
 18 19  1  0
 19 20  1  0
 21 19  2  0
M  END
$$$$
