HSG.pdb
     RDKit          3D

 21 21  0  0  1  0  0  0  0  0999 V2000
   21.6364   -6.5070  -14.5357 N   0  0  0  0  0  0  0  0  0  0  0  0
   21.4304   -5.6658  -15.6715 C   0  0  1  0  0  0  0  0  0  0  0  0
   19.9737   -5.5882  -16.1016 C   0  0  0  0  0  0  0  0  0  0  0  0
   19.4920   -6.9273  -16.5284 C   0  0  0  0  0  0  0  0  0  0  0  0
   19.7561   -7.5213  -17.7674 C   0  0  0  0  0  0  0  0  0  0  0  0
   19.1701   -8.7201  -17.8098 N   0  0  0  0  0  0  0  0  0  0  0  0
   18.5467   -8.8916  -16.6306 C   0  0  0  0  0  0  0  0  0  0  0  0
   18.7429   -7.7947  -15.8449 N   0  0  0  0  0  0  0  0  0  0  0  0
   21.9218   -4.2730  -15.4712 C   0  0  0  0  0  0  0  0  0  0  0  0
   21.8748   -3.8312  -14.2905 O   0  0  0  0  0  0  0  0  0  0  0  0
   24.6007   -0.5646  -16.9071 O   0  0  0  0  0  0  0  0  0  0  0  0
   24.0016   -1.7793  -17.2323 C   0  0  0  0  0  0  0  0  0  0  0  0
   22.9206   -2.1543  -16.2546 C   0  0  2  0  0  0  0  0  0  0  0  0
   22.4167   -3.4767  -16.5340 N   0  0  0  0  0  0  0  0  0  0  0  0
   21.8401   -1.1477  -16.1668 C   0  0  0  0  0  0  0  0  0  0  0  0
   20.8873   -1.1863  -16.9881 O   0  0  0  0  0  0  0  0  0  0  0  0
   21.8532   -0.1366  -15.1749 N   0  0  0  0  0  0  0  0  0  0  0  0
   20.8809    0.9272  -15.1061 C   0  0  0  0  0  0  0  0  0  0  0  0
   19.5324    0.4682  -14.7774 C   0  0  0  0  0  0  0  0  0  0  0  0
   19.3032   -0.1897  -13.5811 O   0  0  0  0  0  0  0  0  0  0  0  0
   18.5557    0.6467  -15.5443 O   0  0  0  0  0  0  0  0  0  0  0  0
  2  1  1  1
  2  3  1  0
  3  4  1  0
  4  8  1  0
  5  4  2  0
  5  6  1  0
  6  7  1  0
  8  7  2  0
  9 14  1  0
  9  2  1  0
 10  9  2  0
 12 11  1  0
 13 12  1  6
 13 14  1  0
 15 13  1  0
 15 17  1  0
 16 15  2  0
 18 17  1  0
 18 19  1  0
 19 20  1  0
 21 19  2  0
M  END
$$$$
