HSG.pdb
     RDKit          3D

 21 21  0  0  1  0  0  0  0  0999 V2000
   20.1220  -11.3725  -18.4495 N   0  0  0  0  0  0  0  0  0  0  0  0
   20.3079  -11.0107  -17.0803 C   0  0  1  0  0  0  0  0  0  0  0  0
   20.7122  -12.1842  -16.2015 C   0  0  0  0  0  0  0  0  0  0  0  0
   19.6484  -13.2214  -16.2078 C   0  0  0  0  0  0  0  0  0  0  0  0
   18.3914  -13.0899  -15.6076 C   0  0  0  0  0  0  0  0  0  0  0  0
   17.6931  -14.2100  -15.8085 N   0  0  0  0  0  0  0  0  0  0  0  0
   18.4798  -15.0381  -16.5183 C   0  0  0  0  0  0  0  0  0  0  0  0
   19.6774  -14.4342  -16.7636 N   0  0  0  0  0  0  0  0  0  0  0  0
   21.3141   -9.9282  -16.8875 C   0  0  0  0  0  0  0  0  0  0  0  0
   22.4450  -10.1203  -17.4126 O   0  0  0  0  0  0  0  0  0  0  0  0
   23.2174   -6.2320  -17.6831 O   0  0  0  0  0  0  0  0  0  0  0  0
   22.3595   -7.3271  -17.6131 C   0  0  0  0  0  0  0  0  0  0  0  0
   21.9734   -7.6510  -16.1949 C   0  0  2  0  0  0  0  0  0  0  0  0
   21.0340   -8.7451  -16.1593 N   0  0  0  0  0  0  0  0  0  0  0  0
   21.4941   -6.4735  -15.4385 C   0  0  0  0  0  0  0  0  0  0  0  0
   20.3363   -6.0284  -15.6507 O   0  0  0  0  0  0  0  0  0  0  0  0
   22.3123   -5.8323  -14.4762 N   0  0  0  0  0  0  0  0  0  0  0  0
   21.8610   -4.7460  -13.6407 C   0  0  0  0  0  0  0  0  0  0  0  0
   21.7207   -3.4775  -14.3538 C   0  0  0  0  0  0  0  0  0  0  0  0
   21.1267   -2.3973  -13.7238 O   0  0  0  0  0  0  0  0  0  0  0  0
   22.1215   -3.3206  -15.5321 O   0  0  0  0  0  0  0  0  0  0  0  0
  2  1  1  6
  2  3  1  0
  3  4  1  0
  4  8  1  0
  5  4  2  0
  5  6  1  0
  6  7  1  0
  8  7  2  0
  9 14  1  0
  9  2  1  0
 10  9  2  0
 12 11  1  0
 13 12  1  6
 13 14  1  0
 15 13  1  0
 15 17  1  0
 16 15  2  0
 18 17  1  0
 18 19  1  0
 19 20  1  0
 21 19  2  0
M  END
$$$$
