HSG.pdb
     RDKit          3D

 21 21  0  0  1  0  0  0  0  0999 V2000
   19.0841  -14.7833  -18.8850 N   0  0  0  0  0  0  0  0  0  0  0  0
   19.2166  -14.1544  -17.6094 C   0  0  1  0  0  0  0  0  0  0  0  0
   19.7687  -15.0834  -16.5394 C   0  0  0  0  0  0  0  0  0  0  0  0
   18.8420  -16.2241  -16.3213 C   0  0  0  0  0  0  0  0  0  0  0  0
   17.7301  -16.2079  -15.4723 C   0  0  0  0  0  0  0  0  0  0  0  0
   17.1274  -17.3981  -15.5206 N   0  0  0  0  0  0  0  0  0  0  0  0
   17.8326  -18.1581  -16.3771 C   0  0  0  0  0  0  0  0  0  0  0  0
   18.8828  -17.4406  -16.8682 N   0  0  0  0  0  0  0  0  0  0  0  0
   20.0715  -12.9338  -17.6393 C   0  0  0  0  0  0  0  0  0  0  0  0
   21.1411  -13.0202  -18.3027 O   0  0  0  0  0  0  0  0  0  0  0  0
   20.8552   -8.5503  -18.3664 O   0  0  0  0  0  0  0  0  0  0  0  0
   20.1062   -9.7195  -18.2560 C   0  0  0  0  0  0  0  0  0  0  0  0
   20.5602  -10.5731  -17.1025 C   0  0  2  0  0  0  0  0  0  0  0  0
   19.7189  -11.7369  -16.9673 N   0  0  0  0  0  0  0  0  0  0  0  0
   20.6865   -9.8202  -15.8354 C   0  0  0  0  0  0  0  0  0  0  0  0
   19.6834   -9.6929  -15.0861 O   0  0  0  0  0  0  0  0  0  0  0  0
   21.9164   -9.2364  -15.4442 N   0  0  0  0  0  0  0  0  0  0  0  0
   22.0705   -8.4090  -14.2722 C   0  0  0  0  0  0  0  0  0  0  0  0
   21.4718   -7.0823  -14.4086 C   0  0  0  0  0  0  0  0  0  0  0  0
   21.5032   -6.2013  -13.3411 O   0  0  0  0  0  0  0  0  0  0  0  0
   20.9208   -6.6989  -15.4684 O   0  0  0  0  0  0  0  0  0  0  0  0
  2  1  1  6
  2  3  1  0
  3  4  1  0
  4  8  1  0
  5  4  2  0
  5  6  1  0
  6  7  1  0
  8  7  2  0
  9 14  1  0
  9  2  1  0
 10  9  2  0
 12 11  1  0
 13 12  1  6
 13 14  1  0
 15 13  1  0
 15 17  1  0
 16 15  2  0
 18 17  1  0
 18 19  1  0
 19 20  1  0
 21 19  2  0
M  END
$$$$
