HSG.pdb
     RDKit          3D

 21 21  0  0  1  0  0  0  0  0999 V2000
   17.0271  -12.0263  -15.4899 N   0  0  0  0  0  0  0  0  0  0  0  0
   17.2830  -10.6300  -15.6473 C   0  0  1  0  0  0  0  0  0  0  0  0
   16.2918   -9.7525  -14.8985 C   0  0  0  0  0  0  0  0  0  0  0  0
   14.9335   -9.8979  -15.4827 C   0  0  0  0  0  0  0  0  0  0  0  0
   14.3410   -9.0001  -16.3774 C   0  0  0  0  0  0  0  0  0  0  0  0
   13.1216   -9.4417  -16.6946 N   0  0  0  0  0  0  0  0  0  0  0  0
   12.9359  -10.5914  -16.0221 C   0  0  0  0  0  0  0  0  0  0  0  0
   14.0444  -10.8720  -15.2796 N   0  0  0  0  0  0  0  0  0  0  0  0
   18.6555  -10.2304  -15.2255 C   0  0  0  0  0  0  0  0  0  0  0  0
   19.0832  -10.7511  -14.1590 O   0  0  0  0  0  0  0  0  0  0  0  0
   23.0766   -8.8406  -16.0920 O   0  0  0  0  0  0  0  0  0  0  0  0
   21.8022   -9.1862  -16.5354 C   0  0  0  0  0  0  0  0  0  0  0  0
   20.7558   -8.9557  -15.4785 C   0  0  2  0  0  0  0  0  0  0  0  0
   19.4484   -9.3196  -15.9673 N   0  0  0  0  0  0  0  0  0  0  0  0
   20.7858   -7.5869  -14.9183 C   0  0  0  0  0  0  0  0  0  0  0  0
   20.1138   -6.6760  -15.4683 O   0  0  0  0  0  0  0  0  0  0  0  0
   21.5571   -7.2763  -13.7716 N   0  0  0  0  0  0  0  0  0  0  0  0
   21.6894   -5.9433  -13.2352 C   0  0  0  0  0  0  0  0  0  0  0  0
   22.2434   -4.9812  -14.1864 C   0  0  0  0  0  0  0  0  0  0  0  0
   22.8000   -5.4299  -15.3719 O   0  0  0  0  0  0  0  0  0  0  0  0
   22.2371   -3.7450  -13.9732 O   0  0  0  0  0  0  0  0  0  0  0  0
  2  1  1  1
  2  3  1  0
  3  4  1  0
  4  8  1  0
  5  4  2  0
  5  6  1  0
  6  7  1  0
  8  7  2  0
  9 14  1  0
  9  2  1  0
 10  9  2  0
 12 11  1  0
 13 12  1  6
 13 14  1  0
 15 13  1  0
 15 17  1  0
 16 15  2  0
 18 17  1  0
 18 19  1  0
 19 20  1  0
 21 19  2  0
M  END
$$$$
