HSG.pdb
     RDKit          3D

 21 21  0  0  1  0  0  0  0  0999 V2000
   17.2053  -14.2133    4.0625 N   0  0  0  0  0  0  0  0  0  0  0  0
   17.3003  -13.2326    5.0967 C   0  0  1  0  0  0  0  0  0  0  0  0
   16.3589  -13.4987    6.2611 C   0  0  0  0  0  0  0  0  0  0  0  0
   14.9460  -13.3814    5.8168 C   0  0  0  0  0  0  0  0  0  0  0  0
   14.4961  -12.5739    4.7665 C   0  0  0  0  0  0  0  0  0  0  0  0
   13.1740  -12.7134    4.6449 N   0  0  0  0  0  0  0  0  0  0  0  0
   12.7851  -13.5864    5.5910 C   0  0  0  0  0  0  0  0  0  0  0  0
   13.8690  -13.9964    6.3094 N   0  0  0  0  0  0  0  0  0  0  0  0
   18.6776  -13.0874    5.6474 C   0  0  0  0  0  0  0  0  0  0  0  0
   19.4156  -14.1081    5.5758 O   0  0  0  0  0  0  0  0  0  0  0  0
   22.3520  -10.3017    7.0033 O   0  0  0  0  0  0  0  0  0  0  0  0
   20.9905  -10.3848    6.7211 C   0  0  0  0  0  0  0  0  0  0  0  0
   20.5024  -11.8084    6.7125 C   0  0  2  0  0  0  0  0  0  0  0  0
   19.1478  -11.8802    6.2218 N   0  0  0  0  0  0  0  0  0  0  0  0
   20.6647  -12.4875    8.0167 C   0  0  0  0  0  0  0  0  0  0  0  0
   19.7542  -12.3978    8.8810 O   0  0  0  0  0  0  0  0  0  0  0  0
   21.8268  -13.2398    8.3167 N   0  0  0  0  0  0  0  0  0  0  0  0
   22.0547  -13.8847    9.5872 C   0  0  0  0  0  0  0  0  0  0  0  0
   21.5693  -15.2627    9.6403 C   0  0  0  0  0  0  0  0  0  0  0  0
   21.7199  -15.9997   10.8025 O   0  0  0  0  0  0  0  0  0  0  0  0
   21.0123  -15.8176    8.6627 O   0  0  0  0  0  0  0  0  0  0  0  0
  2  1  1  6
  2  3  1  0
  3  4  1  0
  4  8  1  0
  5  4  2  0
  5  6  1  0
  6  7  1  0
  8  7  2  0
  9 14  1  0
  9  2  1  0
 10  9  2  0
 12 11  1  0
 13 12  1  1
 13 14  1  0
 15 13  1  0
 15 17  1  0
 16 15  2  0
 18 17  1  0
 18 19  1  0
 19 20  1  0
 21 19  2  0
M  END
$$$$
