HSG.pdb
     RDKit          3D

 21 21  0  0  1  0  0  0  0  0999 V2000
   18.3944  -10.6748  -15.0619 N   0  0  0  0  0  0  0  0  0  0  0  0
   18.6362   -9.7343  -16.1093 C   0  0  1  0  0  0  0  0  0  0  0  0
   17.3621   -9.2527  -16.7860 C   0  0  0  0  0  0  0  0  0  0  0  0
   16.6630  -10.3916  -17.4352 C   0  0  0  0  0  0  0  0  0  0  0  0
   17.2386  -11.2679  -18.3617 C   0  0  0  0  0  0  0  0  0  0  0  0
   16.3259  -12.1673  -18.7363 N   0  0  0  0  0  0  0  0  0  0  0  0
   15.1951  -11.8769  -18.0689 C   0  0  0  0  0  0  0  0  0  0  0  0
   15.3999  -10.7899  -17.2718 N   0  0  0  0  0  0  0  0  0  0  0  0
   19.3964   -8.5335  -15.6603 C   0  0  0  0  0  0  0  0  0  0  0  0
   19.0087   -8.0000  -14.5849 O   0  0  0  0  0  0  0  0  0  0  0  0
   23.3517   -5.7987  -15.7888 O   0  0  0  0  0  0  0  0  0  0  0  0
   22.6581   -6.9264  -16.2215 C   0  0  0  0  0  0  0  0  0  0  0  0
   21.1945   -6.8544  -15.8778 C   0  0  2  0  0  0  0  0  0  0  0  0
   20.4938   -8.0079  -16.3869 N   0  0  0  0  0  0  0  0  0  0  0  0
   20.5610   -5.5834  -16.2919 C   0  0  0  0  0  0  0  0  0  0  0  0
   20.0386   -5.4930  -17.4333 O   0  0  0  0  0  0  0  0  0  0  0  0
   20.5285   -4.4604  -15.4292 N   0  0  0  0  0  0  0  0  0  0  0  0
   20.0148   -3.1693  -15.8181 C   0  0  0  0  0  0  0  0  0  0  0  0
   20.2194   -2.1297  -14.8109 C   0  0  0  0  0  0  0  0  0  0  0  0
   19.8909   -0.8167  -15.1023 O   0  0  0  0  0  0  0  0  0  0  0  0
   20.6875   -2.3778  -13.6738 O   0  0  0  0  0  0  0  0  0  0  0  0
  2  1  1  1
  2  3  1  0
  3  4  1  0
  4  8  1  0
  5  4  2  0
  5  6  1  0
  6  7  1  0
  8  7  2  0
  9 14  1  0
  9  2  1  0
 10  9  2  0
 12 11  1  0
 13 12  1  6
 13 14  1  0
 15 13  1  0
 15 17  1  0
 16 15  2  0
 18 17  1  0
 18 19  1  0
 19 20  1  0
 21 19  2  0
M  END
$$$$
