GVC.pdb
     RDKit          3D

 18 17  0  0  1  0  0  0  0  0999 V2000
    7.1485  -18.9351   17.3934 N   0  0  0  0  0  0  0  0  0  0  0  0
    6.4804  -17.9579   18.2265 C   0  0  0  0  0  0  0  0  0  0  0  0
    7.4911  -17.1132   18.8993 C   0  0  0  0  0  0  0  0  0  0  0  0
    8.6367  -17.5787   19.0832 O   0  0  0  0  0  0  0  0  0  0  0  0
    8.6488  -12.5961   20.6319 C   0  0  0  0  0  0  0  0  0  0  0  0
    7.6917  -13.5860   20.0782 C   0  0  2  0  0  0  0  0  0  0  0  0
    6.3473  -13.4205   20.7409 C   0  0  0  0  0  0  0  0  0  0  0  0
    8.2031  -14.9827   20.0906 C   0  0  2  0  0  0  0  0  0  0  0  0
    7.2114  -15.7906   19.3462 N   0  0  0  0  0  0  0  0  0  0  0  0
    8.4641  -15.5777   21.3960 C   0  0  0  0  0  0  0  0  0  0  0  0
    7.5328  -16.0702   22.1298 O   0  0  0  0  0  0  0  0  0  0  0  0
    9.7523  -15.6667   21.9623 N   0  0  0  0  0  0  0  0  0  0  0  0
    9.9683  -16.2286   23.3071 C   0  0  1  0  0  0  0  0  0  0  0  0
    9.7581  -17.7223   23.1643 C   0  0  0  0  0  0  0  0  0  0  0  0
   10.9085  -18.3126   21.8987 S   0  0  0  0  0  0  0  0  0  0  0  0
   11.3486  -15.9168   23.7641 C   0  0  0  0  0  0  0  0  0  0  0  0
   11.7131  -16.2168   25.0558 O   0  0  0  0  0  0  0  0  0  0  0  0
   12.1917  -15.3877   23.0057 O   0  0  0  0  0  0  0  0  0  0  0  0
  2  3  1  0
  2  1  1  0
  3  4  2  0
  6  5  1  1
  6  7  1  0
  6  8  1  0
  8 10  1  0
  8  9  1  1
  9  3  1  0
 10 11  2  0
 10 12  1  0
 12 13  1  0
 13 16  1  0
 13 14  1  6
 14 15  1  0
 16 18  2  0
 16 17  1  0
M  END
$$$$
