GVC.pdb
     RDKit          3D

 18 17  0  0  1  0  0  0  0  0999 V2000
    7.7093  -13.6784   20.1093 N   0  0  0  0  0  0  0  0  0  0  0  0
    6.7728  -13.9008   21.1905 C   0  0  0  0  0  0  0  0  0  0  0  0
    7.4705  -13.7415   22.4850 C   0  0  0  0  0  0  0  0  0  0  0  0
    8.7185  -13.8109   22.5072 O   0  0  0  0  0  0  0  0  0  0  0  0
    6.1732  -11.4920   25.5631 C   0  0  0  0  0  0  0  0  0  0  0  0
    6.5502  -12.8660   25.9784 C   0  0  2  0  0  0  0  0  0  0  0  0
    7.0585  -12.8477   27.3979 C   0  0  0  0  0  0  0  0  0  0  0  0
    7.4588  -13.5513   25.0205 C   0  0  2  0  0  0  0  0  0  0  0  0
    6.7773  -13.5121   23.7073 N   0  0  0  0  0  0  0  0  0  0  0  0
    7.8522  -14.9169   25.3467 C   0  0  0  0  0  0  0  0  0  0  0  0
    7.0434  -15.9098   25.2549 O   0  0  0  0  0  0  0  0  0  0  0  0
    9.1459  -15.2656   25.7854 N   0  0  0  0  0  0  0  0  0  0  0  0
    9.5009  -16.6567   26.1169 C   0  0  1  0  0  0  0  0  0  0  0  0
   10.5132  -17.0800   25.0720 C   0  0  0  0  0  0  0  0  0  0  0  0
   11.1582  -18.6965   25.5663 S   0  0  0  0  0  0  0  0  0  0  0  0
   10.0791  -16.7131   27.4858 C   0  0  0  0  0  0  0  0  0  0  0  0
    9.9423  -17.8637   28.2265 O   0  0  0  0  0  0  0  0  0  0  0  0
   10.6888  -15.7415   27.9859 O   0  0  0  0  0  0  0  0  0  0  0  0
  2  3  1  0
  2  1  1  0
  3  4  2  0
  6  5  1  6
  6  7  1  0
  6  8  1  0
  8 10  1  0
  8  9  1  6
  9  3  1  0
 10 11  2  0
 10 12  1  0
 12 13  1  0
 13 16  1  0
 13 14  1  6
 14 15  1  0
 16 18  2  0
 16 17  1  0
M  END
$$$$
