GVC.pdb
     RDKit          3D

 18 17  0  0  1  0  0  0  0  0999 V2000
    7.2751  -14.4873   20.6241 N   0  0  0  0  0  0  0  0  0  0  0  0
    6.5291  -14.4768   21.8646 C   0  0  0  0  0  0  0  0  0  0  0  0
    7.4572  -14.2500   22.9938 C   0  0  0  0  0  0  0  0  0  0  0  0
    8.6868  -14.3443   22.7889 O   0  0  0  0  0  0  0  0  0  0  0  0
    6.0136  -13.1947   26.9159 C   0  0  0  0  0  0  0  0  0  0  0  0
    7.2810  -12.7050   26.3189 C   0  0  2  0  0  0  0  0  0  0  0  0
    7.0555  -11.3587   25.6783 C   0  0  0  0  0  0  0  0  0  0  0  0
    7.9426  -13.6948   25.4271 C   0  0  2  0  0  0  0  0  0  0  0  0
    7.0059  -13.9283   24.3053 N   0  0  0  0  0  0  0  0  0  0  0  0
    8.3391  -14.9625   26.0286 C   0  0  0  0  0  0  0  0  0  0  0  0
    7.5028  -15.9082   26.2622 O   0  0  0  0  0  0  0  0  0  0  0  0
    9.6658  -15.2609   26.4011 N   0  0  0  0  0  0  0  0  0  0  0  0
   10.0205  -16.5415   27.0376 C   0  0  1  0  0  0  0  0  0  0  0  0
   11.2900  -17.0015   26.3502 C   0  0  0  0  0  0  0  0  0  0  0  0
   10.9148  -17.1912   24.5905 S   0  0  0  0  0  0  0  0  0  0  0  0
   10.2377  -16.3334   28.4940 C   0  0  0  0  0  0  0  0  0  0  0  0
   10.4997  -17.4189   29.2966 O   0  0  0  0  0  0  0  0  0  0  0  0
   10.1890  -15.1958   29.0131 O   0  0  0  0  0  0  0  0  0  0  0  0
  2  3  1  0
  2  1  1  0
  3  4  2  0
  6  5  1  6
  6  7  1  0
  6  8  1  0
  8 10  1  0
  8  9  1  6
  9  3  1  0
 10 11  2  0
 10 12  1  0
 12 13  1  0
 13 16  1  0
 13 14  1  6
 14 15  1  0
 16 18  2  0
 16 17  1  0
M  END
$$$$
