GVC.pdb
     RDKit          3D

 18 17  0  0  1  0  0  0  0  0999 V2000
    5.4438  -19.3958   23.9757 N   0  0  0  0  0  0  0  0  0  0  0  0
    5.4403  -18.3356   24.9614 C   0  0  0  0  0  0  0  0  0  0  0  0
    6.2437  -17.1984   24.4620 C   0  0  0  0  0  0  0  0  0  0  0  0
    6.8919  -17.3403   23.4026 O   0  0  0  0  0  0  0  0  0  0  0  0
    7.3767  -12.3953   24.7567 C   0  0  0  0  0  0  0  0  0  0  0  0
    6.6712  -13.6063   25.2447 C   0  0  2  0  0  0  0  0  0  0  0  0
    6.5400  -13.5491   26.7459 C   0  0  0  0  0  0  0  0  0  0  0  0
    7.2494  -14.8794   24.7372 C   0  0  2  0  0  0  0  0  0  0  0  0
    6.3081  -15.9481   25.1401 N   0  0  0  0  0  0  0  0  0  0  0  0
    8.6030  -15.2070   25.1691 C   0  0  0  0  0  0  0  0  0  0  0  0
    8.9499  -15.2208   26.4051 O   0  0  0  0  0  0  0  0  0  0  0  0
    9.6417  -15.5381   24.2749 N   0  0  0  0  0  0  0  0  0  0  0  0
   10.9843  -15.9110   24.7537 C   0  0  1  0  0  0  0  0  0  0  0  0
   10.9036  -17.3867   25.0877 C   0  0  0  0  0  0  0  0  0  0  0  0
   10.2423  -17.5268   26.7660 S   0  0  0  0  0  0  0  0  0  0  0  0
   11.9865  -15.6509   23.6863 C   0  0  0  0  0  0  0  0  0  0  0  0
   13.3257  -15.7530   23.9822 O   0  0  0  0  0  0  0  0  0  0  0  0
   11.6467  -15.3409   22.5226 O   0  0  0  0  0  0  0  0  0  0  0  0
  2  3  1  0
  2  1  1  0
  3  4  2  0
  6  5  1  1
  6  7  1  0
  6  8  1  0
  8 10  1  0
  8  9  1  1
  9  3  1  0
 10 11  2  0
 10 12  1  0
 12 13  1  0
 13 16  1  0
 13 14  1  6
 14 15  1  0
 16 18  2  0
 16 17  1  0
M  END
$$$$
