GVC.pdb
     RDKit          3D

 18 17  0  0  1  0  0  0  0  0999 V2000
    7.9601  -18.1578   16.3197 N   0  0  0  0  0  0  0  0  0  0  0  0
    7.2710  -17.7207   17.5153 C   0  0  0  0  0  0  0  0  0  0  0  0
    8.1473  -16.8076   18.2810 C   0  0  0  0  0  0  0  0  0  0  0  0
    9.3839  -16.9857   18.2385 O   0  0  0  0  0  0  0  0  0  0  0  0
    8.5240  -12.6559   20.9711 C   0  0  0  0  0  0  0  0  0  0  0  0
    7.7240  -13.7044   20.2906 C   0  0  2  0  0  0  0  0  0  0  0  0
    6.4683  -13.9789   21.0790 C   0  0  0  0  0  0  0  0  0  0  0  0
    8.5038  -14.9253   19.9527 C   0  0  2  0  0  0  0  0  0  0  0  0
    7.6384  -15.7335   19.0648 N   0  0  0  0  0  0  0  0  0  0  0  0
    8.9799  -15.7335   21.0690 C   0  0  0  0  0  0  0  0  0  0  0  0
    8.2203  -16.5510   21.7039 O   0  0  0  0  0  0  0  0  0  0  0  0
   10.3066  -15.6914   21.5444 N   0  0  0  0  0  0  0  0  0  0  0  0
   10.7798  -16.6070   22.5974 C   0  0  1  0  0  0  0  0  0  0  0  0
   12.2295  -16.8969   22.2654 C   0  0  0  0  0  0  0  0  0  0  0  0
   12.2456  -18.0769   20.8940 S   0  0  0  0  0  0  0  0  0  0  0  0
   10.6486  -15.9522   23.9261 C   0  0  0  0  0  0  0  0  0  0  0  0
   10.6730  -16.7264   25.0624 O   0  0  0  0  0  0  0  0  0  0  0  0
   10.5162  -14.7133   24.0417 O   0  0  0  0  0  0  0  0  0  0  0  0
  2  3  1  0
  2  1  1  0
  3  4  2  0
  6  5  1  1
  6  7  1  0
  6  8  1  0
  8 10  1  0
  8  9  1  6
  9  3  1  0
 10 11  2  0
 10 12  1  0
 12 13  1  0
 13 16  1  0
 13 14  1  6
 14 15  1  0
 16 18  2  0
 16 17  1  0
M  END
$$$$
