GVC.pdb
     RDKit          3D

 18 17  0  0  1  0  0  0  0  0999 V2000
    5.0246  -19.5088   23.1032 N   0  0  0  0  0  0  0  0  0  0  0  0
    5.0289  -18.5398   24.1786 C   0  0  0  0  0  0  0  0  0  0  0  0
    6.0389  -17.4969   23.8957 C   0  0  0  0  0  0  0  0  0  0  0  0
    6.7488  -17.6099   22.8730 O   0  0  0  0  0  0  0  0  0  0  0  0
    7.7420  -12.9567   24.7401 C   0  0  0  0  0  0  0  0  0  0  0  0
    6.8466  -14.0981   25.0529 C   0  0  2  0  0  0  0  0  0  0  0  0
    6.5363  -14.1126   26.5286 C   0  0  0  0  0  0  0  0  0  0  0  0
    7.3334  -15.4010   24.5255 C   0  0  2  0  0  0  0  0  0  0  0  0
    6.2349  -16.3689   24.7421 N   0  0  0  0  0  0  0  0  0  0  0  0
    8.5787  -15.9145   25.0839 C   0  0  0  0  0  0  0  0  0  0  0  0
    8.7226  -16.1685   26.3341 O   0  0  0  0  0  0  0  0  0  0  0  0
    9.7248  -16.1782   24.3062 N   0  0  0  0  0  0  0  0  0  0  0  0
   10.9763  -16.6634   24.9139 C   0  0  1  0  0  0  0  0  0  0  0  0
   11.1935  -18.0521   24.3481 C   0  0  0  0  0  0  0  0  0  0  0  0
    9.6980  -19.0136   24.6835 S   0  0  0  0  0  0  0  0  0  0  0  0
   12.0940  -15.7507   24.5542 C   0  0  0  0  0  0  0  0  0  0  0  0
   13.3155  -15.9102   25.1657 O   0  0  0  0  0  0  0  0  0  0  0  0
   11.9560  -14.8387   23.7087 O   0  0  0  0  0  0  0  0  0  0  0  0
  2  3  1  0
  2  1  1  0
  3  4  2  0
  6  5  1  1
  6  7  1  0
  6  8  1  0
  8 10  1  0
  8  9  1  1
  9  3  1  0
 10 11  2  0
 10 12  1  0
 12 13  1  0
 13 16  1  0
 13 14  1  6
 14 15  1  0
 16 18  2  0
 16 17  1  0
M  END
$$$$
