GVC.pdb
     RDKit          3D

 18 17  0  0  1  0  0  0  0  0999 V2000
    6.5654  -19.1163   19.1947 N   0  0  0  0  0  0  0  0  0  0  0  0
    6.0439  -17.8372   19.6275 C   0  0  0  0  0  0  0  0  0  0  0  0
    7.1569  -16.9917   20.1117 C   0  0  0  0  0  0  0  0  0  0  0  0
    8.2595  -17.5297   20.3515 O   0  0  0  0  0  0  0  0  0  0  0  0
    6.9501  -12.5726   20.7229 C   0  0  0  0  0  0  0  0  0  0  0  0
    8.0282  -13.4442   20.1933 C   0  0  2  0  0  0  0  0  0  0  0  0
    7.9182  -13.5354   18.6922 C   0  0  0  0  0  0  0  0  0  0  0  0
    8.1172  -14.7641   20.8735 C   0  0  2  0  0  0  0  0  0  0  0  0
    7.0224  -15.5890   20.3157 N   0  0  0  0  0  0  0  0  0  0  0  0
    8.0571  -14.7603   22.3304 C   0  0  0  0  0  0  0  0  0  0  0  0
    6.9579  -14.9077   22.9772 O   0  0  0  0  0  0  0  0  0  0  0  0
    9.1921  -14.5989   23.1513 N   0  0  0  0  0  0  0  0  0  0  0  0
    9.1610  -14.9295   24.5868 C   0  0  1  0  0  0  0  0  0  0  0  0
    7.7711  -15.4717   24.8512 C   0  0  0  0  0  0  0  0  0  0  0  0
    6.7629  -14.1009   25.4660 S   0  0  0  0  0  0  0  0  0  0  0  0
   10.2051  -15.9442   24.8894 C   0  0  0  0  0  0  0  0  0  0  0  0
   10.9671  -16.4516   23.8631 O   0  0  0  0  0  0  0  0  0  0  0  0
   10.4120  -16.3519   26.0543 O   0  0  0  0  0  0  0  0  0  0  0  0
  2  3  1  0
  2  1  1  0
  3  4  2  0
  6  5  1  1
  6  7  1  0
  6  8  1  0
  8 10  1  0
  8  9  1  6
  9  3  1  0
 10 11  2  0
 10 12  1  0
 12 13  1  0
 13 16  1  0
 13 14  1  6
 14 15  1  0
 16 18  2  0
 16 17  1  0
M  END
$$$$
