MAH.pdb
     RDKit          3D

 24 24  0  0  1  0  0  0  0  0999 V2000
   24.9003  -21.6232   -8.2880 C   0  0  0  0  0  0  0  0  0  0  0  0
   25.1170  -20.2025   -9.3577 S   0  0  0  0  0  0  0  0  0  0  0  0
   26.0937  -20.4999  -10.8204 C   0  0  0  0  0  0  0  0  0  0  0  0
   25.3814  -21.1444  -11.9555 C   0  0  0  0  0  0  0  0  0  0  0  0
   26.2078  -21.4540  -13.1536 C   0  0  2  0  0  0  0  0  0  0  0  0
   26.8958  -20.3031  -13.6889 N   0  0  0  0  0  0  0  0  0  0  0  0
   25.3295  -22.0923  -14.1727 C   0  0  0  0  0  0  0  0  0  0  0  0
   24.8447  -21.3497  -15.0653 O   0  0  0  0  0  0  0  0  0  0  0  0
   24.4579  -25.5072  -15.2622 C   0  0  0  0  0  0  0  0  0  0  0  0
   24.2296  -24.0287  -15.2627 C   0  0  2  0  0  0  0  0  0  0  0  0
   25.0192  -23.4688  -14.1855 N   0  0  0  0  0  0  0  0  0  0  0  0
   22.8157  -23.6321  -15.1819 C   0  0  0  0  0  0  0  0  0  0  0  0
   22.0404  -24.0364  -16.0846 O   0  0  0  0  0  0  0  0  0  0  0  0
   22.2816  -22.8214  -14.1444 N   0  0  0  0  0  0  0  0  0  0  0  0
   20.8986  -22.3434  -14.1537 C   0  0  1  0  0  0  0  0  0  0  0  0
   20.6826  -21.6117  -12.8413 C   0  0  0  0  0  0  0  0  0  0  0  0
   19.3077  -21.0582  -12.7744 C   0  0  0  0  0  0  0  0  0  0  0  0
   18.1771  -21.6275  -12.2449 C   0  0  0  0  0  0  0  0  0  0  0  0
   17.1546  -20.7938  -12.4007 N   0  0  0  0  0  0  0  0  0  0  0  0
   17.6261  -19.6964  -13.0263 C   0  0  0  0  0  0  0  0  0  0  0  0
   18.9475  -19.8470  -13.2613 N   0  0  0  0  0  0  0  0  0  0  0  0
   20.6142  -21.5203  -15.3305 C   0  0  0  0  0  0  0  0  0  0  0  0
   19.5016  -21.6612  -15.9341 O   0  0  0  0  0  0  0  0  0  0  0  0
   21.4736  -20.5775  -15.8555 O   0  0  0  0  0  0  0  0  0  0  0  0
  2  3  1  0
  2  1  1  0
  4  5  1  0
  4  3  1  0
  5  6  1  6
  7  5  1  0
  7  8  2  0
 10  9  1  1
 10 12  1  0
 10 11  1  0
 11  7  1  0
 12 14  1  0
 13 12  2  0
 14 15  1  0
 15 22  1  0
 15 16  1  1
 17 16  1  0
 18 17  2  0
 19 18  1  0
 20 19  1  0
 20 21  2  0
 21 17  1  0
 22 23  2  0
 22 24  1  0
M  END
$$$$
