MAH.pdb
     RDKit          3D

 24 24  0  0  1  0  0  0  0  0999 V2000
   28.4449  -20.7302   -6.4855 C   0  0  0  0  0  0  0  0  0  0  0  0
   29.7342  -21.8910   -6.9326 S   0  0  0  0  0  0  0  0  0  0  0  0
   30.0786  -22.0020   -8.6793 C   0  0  0  0  0  0  0  0  0  0  0  0
   29.0062  -21.5093   -9.5841 C   0  0  0  0  0  0  0  0  0  0  0  0
   29.2802  -21.6204  -11.0423 C   0  0  2  0  0  0  0  0  0  0  0  0
   30.6059  -21.1843  -11.4118 N   0  0  0  0  0  0  0  0  0  0  0  0
   28.2282  -20.8607  -11.7729 C   0  0  0  0  0  0  0  0  0  0  0  0
   27.9216  -19.7241  -11.3285 O   0  0  0  0  0  0  0  0  0  0  0  0
   26.5126  -20.6613  -14.9331 C   0  0  0  0  0  0  0  0  0  0  0  0
   26.4050  -20.6579  -13.4410 C   0  0  2  0  0  0  0  0  0  0  0  0
   27.5685  -21.3465  -12.9218 N   0  0  0  0  0  0  0  0  0  0  0  0
   25.1481  -21.2173  -12.9211 C   0  0  0  0  0  0  0  0  0  0  0  0
   25.2167  -22.2458  -12.2022 O   0  0  0  0  0  0  0  0  0  0  0  0
   23.8677  -20.6610  -13.1859 N   0  0  0  0  0  0  0  0  0  0  0  0
   22.6471  -21.1626  -12.5536 C   0  0  1  0  0  0  0  0  0  0  0  0
   22.8236  -20.9746  -11.0576 C   0  0  0  0  0  0  0  0  0  0  0  0
   21.6180  -21.4404  -10.3290 C   0  0  0  0  0  0  0  0  0  0  0  0
   20.4708  -21.9984  -10.8342 C   0  0  0  0  0  0  0  0  0  0  0  0
   19.6371  -22.2632   -9.8344 N   0  0  0  0  0  0  0  0  0  0  0  0
   20.2456  -21.8775   -8.6946 C   0  0  0  0  0  0  0  0  0  0  0  0
   21.4631  -21.3704   -8.9855 N   0  0  0  0  0  0  0  0  0  0  0  0
   21.4498  -20.5075  -13.0833 C   0  0  0  0  0  0  0  0  0  0  0  0
   21.4986  -19.2708  -13.3838 O   0  0  0  0  0  0  0  0  0  0  0  0
   20.2388  -21.1346  -13.2912 O   0  0  0  0  0  0  0  0  0  0  0  0
  2  3  1  0
  2  1  1  0
  4  5  1  0
  4  3  1  0
  5  6  1  1
  7  5  1  0
  7  8  2  0
 10  9  1  6
 10 12  1  0
 10 11  1  0
 11  7  1  0
 12 14  1  0
 13 12  2  0
 14 15  1  0
 15 22  1  0
 15 16  1  1
 17 16  1  0
 18 17  2  0
 19 18  1  0
 20 19  1  0
 20 21  2  0
 21 17  1  0
 22 23  2  0
 22 24  1  0
M  END
$$$$
