MAH.pdb
     RDKit          3D

 24 24  0  0  1  0  0  0  0  0999 V2000
   24.9498  -20.6662   -8.3909 C   0  0  0  0  0  0  0  0  0  0  0  0
   26.2653  -21.6823   -9.0593 S   0  0  0  0  0  0  0  0  0  0  0  0
   27.0059  -21.0678  -10.5612 C   0  0  0  0  0  0  0  0  0  0  0  0
   26.0575  -20.6368  -11.6224 C   0  0  0  0  0  0  0  0  0  0  0  0
   26.0302  -21.4735  -12.8526 C   0  0  2  0  0  0  0  0  0  0  0  0
   27.2762  -21.4625  -13.5816 N   0  0  0  0  0  0  0  0  0  0  0  0
   24.8936  -21.0180  -13.7002 C   0  0  0  0  0  0  0  0  0  0  0  0
   25.0047  -19.8986  -14.2640 O   0  0  0  0  0  0  0  0  0  0  0  0
   21.9939  -22.4658  -15.3749 C   0  0  0  0  0  0  0  0  0  0  0  0
   22.6744  -21.2760  -14.7754 C   0  0  2  0  0  0  0  0  0  0  0  0
   23.7160  -21.7697  -13.8986 N   0  0  0  0  0  0  0  0  0  0  0  0
   21.7697  -20.3382  -14.0934 C   0  0  0  0  0  0  0  0  0  0  0  0
   21.6738  -20.4198  -12.8430 O   0  0  0  0  0  0  0  0  0  0  0  0
   21.0027  -19.3503  -14.7677 N   0  0  0  0  0  0  0  0  0  0  0  0
   20.0529  -18.4821  -14.0711 C   0  0  1  0  0  0  0  0  0  0  0  0
   19.8986  -17.2349  -14.9226 C   0  0  0  0  0  0  0  0  0  0  0  0
   18.9548  -16.2836  -14.2857 C   0  0  0  0  0  0  0  0  0  0  0  0
   18.2839  -16.4062  -13.0950 C   0  0  0  0  0  0  0  0  0  0  0  0
   17.5328  -15.3273  -12.9041 N   0  0  0  0  0  0  0  0  0  0  0  0
   17.7205  -14.5174  -13.9656 C   0  0  0  0  0  0  0  0  0  0  0  0
   18.5919  -15.0939  -14.8213 N   0  0  0  0  0  0  0  0  0  0  0  0
   18.7848  -19.1636  -13.8053 C   0  0  0  0  0  0  0  0  0  0  0  0
   18.3381  -20.0004  -14.6553 O   0  0  0  0  0  0  0  0  0  0  0  0
   18.0110  -18.9712  -12.6796 O   0  0  0  0  0  0  0  0  0  0  0  0
  2  3  1  0
  2  1  1  0
  4  5  1  0
  4  3  1  0
  5  6  1  6
  7  5  1  0
  7  8  2  0
 10  9  1  1
 10 12  1  0
 10 11  1  0
 11  7  1  0
 12 14  1  0
 13 12  2  0
 14 15  1  0
 15 22  1  0
 15 16  1  6
 17 16  1  0
 18 17  2  0
 19 18  1  0
 20 19  1  0
 20 21  2  0
 21 17  1  0
 22 23  2  0
 22 24  1  0
M  END
$$$$
