MAH.pdb
     RDKit          3D

 24 24  0  0  1  0  0  0  0  0999 V2000
   29.0043  -18.4378   -6.5073 C   0  0  0  0  0  0  0  0  0  0  0  0
   27.6657  -19.4689   -5.9117 S   0  0  0  0  0  0  0  0  0  0  0  0
   27.0705  -20.6819   -7.0764 C   0  0  0  0  0  0  0  0  0  0  0  0
   26.5916  -20.1490   -8.3794 C   0  0  0  0  0  0  0  0  0  0  0  0
   26.1135  -21.1592   -9.3618 C   0  0  2  0  0  0  0  0  0  0  0  0
   26.9821  -22.3068   -9.4734 N   0  0  0  0  0  0  0  0  0  0  0  0
   25.9279  -20.4806  -10.6743 C   0  0  0  0  0  0  0  0  0  0  0  0
   25.2015  -19.4533  -10.6968 O   0  0  0  0  0  0  0  0  0  0  0  0
   26.9674  -20.9416  -14.2054 C   0  0  0  0  0  0  0  0  0  0  0  0
   26.0257  -20.4509  -13.1516 C   0  0  2  0  0  0  0  0  0  0  0  0
   26.5182  -20.9272  -11.8757 N   0  0  0  0  0  0  0  0  0  0  0  0
   24.6187  -20.8147  -13.3770 C   0  0  0  0  0  0  0  0  0  0  0  0
   24.0300  -21.4668  -12.4783 O   0  0  0  0  0  0  0  0  0  0  0  0
   23.8926  -20.4706  -14.5490 N   0  0  0  0  0  0  0  0  0  0  0  0
   22.4873  -20.0646  -14.5118 C   0  0  1  0  0  0  0  0  0  0  0  0
   22.4000  -18.8870  -13.5578 C   0  0  0  0  0  0  0  0  0  0  0  0
   21.0084  -18.3777  -13.4858 C   0  0  0  0  0  0  0  0  0  0  0  0
   19.8801  -18.8723  -14.0901 C   0  0  0  0  0  0  0  0  0  0  0  0
   18.8418  -18.1089  -13.7675 N   0  0  0  0  0  0  0  0  0  0  0  0
   19.3011  -17.1305  -12.9613 C   0  0  0  0  0  0  0  0  0  0  0  0
   20.6305  -17.2850  -12.7808 N   0  0  0  0  0  0  0  0  0  0  0  0
   21.9699  -19.7677  -15.8487 C   0  0  0  0  0  0  0  0  0  0  0  0
   22.7251  -19.1855  -16.6930 O   0  0  0  0  0  0  0  0  0  0  0  0
   20.6974  -20.0745  -16.2841 O   0  0  0  0  0  0  0  0  0  0  0  0
  2  3  1  0
  2  1  1  0
  4  5  1  0
  4  3  1  0
  5  6  1  6
  7  5  1  0
  7  8  2  0
 10  9  1  6
 10 12  1  0
 10 11  1  0
 11  7  1  0
 12 14  1  0
 13 12  2  0
 14 15  1  0
 15 22  1  0
 15 16  1  1
 17 16  1  0
 18 17  2  0
 19 18  1  0
 20 19  1  0
 20 21  2  0
 21 17  1  0
 22 23  2  0
 22 24  1  0
M  END
$$$$
