MAH.pdb
     RDKit          3D

 24 24  0  0  1  0  0  0  0  0999 V2000
   21.2853  -17.6348  -17.8469 C   0  0  0  0  0  0  0  0  0  0  0  0
   23.0562  -17.9044  -17.8779 S   0  0  0  0  0  0  0  0  0  0  0  0
   23.6393  -19.2174  -16.8207 C   0  0  0  0  0  0  0  0  0  0  0  0
   22.8038  -19.5063  -15.6249 C   0  0  0  0  0  0  0  0  0  0  0  0
   23.3369  -20.5323  -14.6884 C   0  0  2  0  0  0  0  0  0  0  0  0
   24.0192  -21.6169  -15.3535 N   0  0  0  0  0  0  0  0  0  0  0  0
   22.2110  -21.0247  -13.8473 C   0  0  0  0  0  0  0  0  0  0  0  0
   21.5603  -22.0139  -14.2735 O   0  0  0  0  0  0  0  0  0  0  0  0
   20.7038  -20.2740  -10.5408 C   0  0  0  0  0  0  0  0  0  0  0  0
   20.7279  -20.9772  -11.8610 C   0  0  2  0  0  0  0  0  0  0  0  0
   21.8441  -20.4446  -12.6144 N   0  0  0  0  0  0  0  0  0  0  0  0
   19.4646  -20.9059  -12.6106 C   0  0  0  0  0  0  0  0  0  0  0  0
   19.2659  -19.8952  -13.3308 O   0  0  0  0  0  0  0  0  0  0  0  0
   18.4622  -21.9120  -12.5654 N   0  0  0  0  0  0  0  0  0  0  0  0
   17.2213  -21.8200  -13.3352 C   0  0  1  0  0  0  0  0  0  0  0  0
   17.1241  -23.0926  -14.1571 C   0  0  0  0  0  0  0  0  0  0  0  0
   18.1148  -23.0756  -15.2614 C   0  0  0  0  0  0  0  0  0  0  0  0
   18.3796  -22.0756  -16.1628 C   0  0  0  0  0  0  0  0  0  0  0  0
   19.3378  -22.4768  -16.9909 N   0  0  0  0  0  0  0  0  0  0  0  0
   19.6855  -23.7266  -16.6232 C   0  0  0  0  0  0  0  0  0  0  0  0
   18.9412  -24.1054  -15.5619 N   0  0  0  0  0  0  0  0  0  0  0  0
   16.0597  -21.5964  -12.4725 C   0  0  0  0  0  0  0  0  0  0  0  0
   14.9028  -21.5072  -12.9976 O   0  0  0  0  0  0  0  0  0  0  0  0
   16.1138  -21.4712  -11.0998 O   0  0  0  0  0  0  0  0  0  0  0  0
  2  3  1  0
  2  1  1  0
  4  5  1  0
  4  3  1  0
  5  6  1  6
  7  5  1  0
  7  8  2  0
 10  9  1  1
 10 12  1  0
 10 11  1  0
 11  7  1  0
 12 14  1  0
 13 12  2  0
 14 15  1  0
 15 22  1  0
 15 16  1  1
 17 16  1  0
 18 17  2  0
 19 18  1  0
 20 19  1  0
 20 21  2  0
 21 17  1  0
 22 23  2  0
 22 24  1  0
M  END
$$$$
