DLI.pdb
     RDKit          3D

 25 24  0  0  1  0  0  0  0  0999 V2000
   17.7163  -10.5025  -16.9964 N   0  0  0  0  0  0  0  0  0  0  0  0
   18.7968   -9.5468  -17.1922 C   0  0  1  0  0  0  0  0  0  0  0  0
   18.3024   -8.2738  -17.8171 C   0  0  0  0  0  0  0  0  0  0  0  0
   17.7637   -8.4953  -19.1750 C   0  0  0  0  0  0  0  0  0  0  0  0
   16.5435   -8.3083  -19.4876 O   0  0  0  0  0  0  0  0  0  0  0  0
   19.5074   -9.2544  -15.9420 C   0  0  0  0  0  0  0  0  0  0  0  0
   18.8824   -9.1176  -14.8876 O   0  0  0  0  0  0  0  0  0  0  0  0
   18.5848   -8.9365  -20.2310 O   0  0  0  0  0  0  0  0  0  0  0  0
   22.5895  -11.7211  -13.9619 C   0  0  0  0  0  0  0  0  0  0  0  0
   23.2633  -10.7982  -14.9059 C   0  0  2  0  0  0  0  0  0  0  0  0
   24.7243  -11.2483  -15.0133 C   0  0  0  0  0  0  0  0  0  0  0  0
   23.1095   -9.3412  -14.7032 C   0  0  0  0  0  0  0  0  0  0  0  0
   21.7045   -8.7944  -14.7445 C   0  0  2  0  0  0  0  0  0  0  0  0
   20.9400   -9.1157  -15.8937 N   0  0  0  0  0  0  0  0  0  0  0  0
   21.7307   -7.3224  -14.5686 C   0  0  0  0  0  0  0  0  0  0  0  0
   22.2614   -6.8251  -13.5164 O   0  0  0  0  0  0  0  0  0  0  0  0
   22.8582   -2.0985  -17.3921 C   0  0  0  0  0  0  0  0  0  0  0  0
   22.0392   -2.7815  -16.3509 C   0  0  0  0  0  0  0  0  0  0  0  0
   22.1196   -4.2805  -16.3815 C   0  0  2  0  0  0  0  0  0  0  0  0
   21.5035   -4.6914  -17.7272 C   0  0  0  0  0  0  0  0  0  0  0  0
   21.3778   -4.9956  -15.3135 C   0  0  2  0  0  0  0  0  0  0  0  0
   21.1950   -6.4117  -15.5100 N   0  0  0  0  0  0  0  0  0  0  0  0
   20.0054   -4.3620  -15.2233 C   0  0  0  0  0  0  0  0  0  0  0  0
   18.8935   -5.1033  -15.5430 O   0  0  0  0  0  0  0  0  0  0  0  0
   19.9144   -3.1672  -14.8564 O   0  0  0  0  0  0  0  0  0  0  0  0
  2  1  1  1
  3  2  1  0
  3  4  1  0
  4  8  1  0
  4  5  2  0
  6  7  2  0
  6  2  1  0
 10  9  1  1
 10 12  1  0
 11 10  1  0
 13 12  1  6
 13 14  1  0
 14  6  1  0
 15 16  2  0
 15 13  1  0
 18 17  1  0
 19 21  1  0
 19 18  1  0
 19 20  1  6
 21 22  1  6
 22 15  1  0
 23 21  1  0
 24 23  1  0
 25 23  2  0
M  END
$$$$
