DLI.pdb
     RDKit          3D

 25 24  0  0  1  0  0  0  0  0999 V2000
   23.9771  -18.1899  -15.1986 N   0  0  0  0  0  0  0  0  0  0  0  0
   23.3997  -19.5105  -15.4021 C   0  0  1  0  0  0  0  0  0  0  0  0
   23.1998  -19.8078  -16.8606 C   0  0  0  0  0  0  0  0  0  0  0  0
   22.2960  -18.8335  -17.5064 C   0  0  0  0  0  0  0  0  0  0  0  0
   22.5789  -18.2178  -18.5846 O   0  0  0  0  0  0  0  0  0  0  0  0
   24.2037  -20.5663  -14.7758 C   0  0  0  0  0  0  0  0  0  0  0  0
   23.8352  -21.7422  -14.8255 O   0  0  0  0  0  0  0  0  0  0  0  0
   21.0377  -18.5187  -16.9573 O   0  0  0  0  0  0  0  0  0  0  0  0
   28.1425  -20.2496  -15.9447 C   0  0  0  0  0  0  0  0  0  0  0  0
   28.2134  -19.9130  -14.5030 C   0  0  2  0  0  0  0  0  0  0  0  0
   29.6235  -19.3775  -14.2322 C   0  0  0  0  0  0  0  0  0  0  0  0
   27.7674  -20.9218  -13.5175 C   0  0  0  0  0  0  0  0  0  0  0  0
   26.2925  -21.2351  -13.4865 C   0  0  2  0  0  0  0  0  0  0  0  0
   25.4356  -20.2795  -14.0872 N   0  0  0  0  0  0  0  0  0  0  0  0
   25.8570  -21.4747  -12.0895 C   0  0  0  0  0  0  0  0  0  0  0  0
   26.3318  -22.4733  -11.4464 O   0  0  0  0  0  0  0  0  0  0  0  0
   26.6997  -18.9485   -7.9204 C   0  0  0  0  0  0  0  0  0  0  0  0
   26.2918  -20.1491   -8.7035 C   0  0  0  0  0  0  0  0  0  0  0  0
   24.8160  -20.2515   -8.9603 C   0  0  2  0  0  0  0  0  0  0  0  0
   24.2318  -20.9153   -7.7044 C   0  0  0  0  0  0  0  0  0  0  0  0
   24.4126  -21.0730  -10.1285 C   0  0  2  0  0  0  0  0  0  0  0  0
   24.9300  -20.6524  -11.4063 N   0  0  0  0  0  0  0  0  0  0  0  0
   22.9009  -21.0261  -10.2055 C   0  0  0  0  0  0  0  0  0  0  0  0
   22.2943  -20.4991  -11.3200 O   0  0  0  0  0  0  0  0  0  0  0  0
   22.2328  -21.4724   -9.2438 O   0  0  0  0  0  0  0  0  0  0  0  0
  2  1  1  6
  3  2  1  0
  3  4  1  0
  4  8  1  0
  4  5  2  0
  6  7  2  0
  6  2  1  0
 10  9  1  6
 10 12  1  0
 11 10  1  0
 13 12  1  1
 13 14  1  0
 14  6  1  0
 15 16  2  0
 15 13  1  0
 18 17  1  0
 19 21  1  0
 19 18  1  0
 19 20  1  1
 21 22  1  6
 22 15  1  0
 23 21  1  0
 24 23  1  0
 25 23  2  0
M  END
$$$$
