DLI.pdb
     RDKit          3D

 25 24  0  0  1  0  0  0  0  0999 V2000
   17.8363  -11.9598  -17.6061 N   0  0  0  0  0  0  0  0  0  0  0  0
   18.5959  -10.7720  -17.9681 C   0  0  1  0  0  0  0  0  0  0  0  0
   17.6935   -9.6317  -18.3433 C   0  0  0  0  0  0  0  0  0  0  0  0
   16.8425   -9.9574  -19.5064 C   0  0  0  0  0  0  0  0  0  0  0  0
   15.5696   -9.9572  -19.4697 O   0  0  0  0  0  0  0  0  0  0  0  0
   19.5160  -10.3599  -16.9018 C   0  0  0  0  0  0  0  0  0  0  0  0
   19.1385  -10.3362  -15.7280 O   0  0  0  0  0  0  0  0  0  0  0  0
   17.3990  -10.2956  -20.7554 O   0  0  0  0  0  0  0  0  0  0  0  0
   25.6369  -10.1637  -15.5742 C   0  0  0  0  0  0  0  0  0  0  0  0
   24.2451   -9.6812  -15.4103 C   0  0  2  0  0  0  0  0  0  0  0  0
   23.8653   -9.8867  -13.9398 C   0  0  0  0  0  0  0  0  0  0  0  0
   23.2139  -10.1589  -16.3570 C   0  0  0  0  0  0  0  0  0  0  0  0
   21.8336   -9.5686  -16.2123 C   0  0  2  0  0  0  0  0  0  0  0  0
   20.8753   -9.9708  -17.1757 N   0  0  0  0  0  0  0  0  0  0  0  0
   21.9176   -8.0883  -16.1924 C   0  0  0  0  0  0  0  0  0  0  0  0
   22.3102   -7.4676  -17.2396 O   0  0  0  0  0  0  0  0  0  0  0  0
   17.9495   -4.8899  -15.7774 C   0  0  0  0  0  0  0  0  0  0  0  0
   19.3243   -5.3659  -16.1010 C   0  0  0  0  0  0  0  0  0  0  0  0
   20.3271   -5.1618  -15.0023 C   0  0  2  0  0  0  0  0  0  0  0  0
   20.6147   -3.6530  -14.9921 C   0  0  0  0  0  0  0  0  0  0  0  0
   21.6249   -5.8629  -15.1651 C   0  0  2  0  0  0  0  0  0  0  0  0
   21.5841   -7.3002  -15.0654 N   0  0  0  0  0  0  0  0  0  0  0  0
   22.5470   -5.3516  -14.0782 C   0  0  0  0  0  0  0  0  0  0  0  0
   23.3591   -4.2721  -14.3296 O   0  0  0  0  0  0  0  0  0  0  0  0
   22.5484   -5.9289  -12.9660 O   0  0  0  0  0  0  0  0  0  0  0  0
  2  1  1  1
  3  2  1  0
  3  4  1  0
  4  8  1  0
  4  5  2  0
  6  7  2  0
  6  2  1  0
 10  9  1  6
 10 12  1  0
 11 10  1  0
 13 12  1  6
 13 14  1  0
 14  6  1  0
 15 16  2  0
 15 13  1  0
 18 17  1  0
 19 21  1  0
 19 18  1  0
 19 20  1  6
 21 22  1  1
 22 15  1  0
 23 21  1  0
 24 23  1  0
 25 23  2  0
M  END
$$$$
