DLI.pdb
     RDKit          3D

 25 24  0  0  1  0  0  0  0  0999 V2000
   14.9433  -22.7891   -1.1996 N   0  0  0  0  0  0  0  0  0  0  0  0
   14.3207  -22.2537    0.0024 C   0  0  1  0  0  0  0  0  0  0  0  0
   13.2519  -23.1696    0.5263 C   0  0  0  0  0  0  0  0  0  0  0  0
   12.1637  -23.3694   -0.4530 C   0  0  0  0  0  0  0  0  0  0  0  0
   11.7854  -24.5147   -0.8614 O   0  0  0  0  0  0  0  0  0  0  0  0
   15.3046  -21.9704    1.0536 C   0  0  0  0  0  0  0  0  0  0  0  0
   16.1759  -22.7981    1.3306 O   0  0  0  0  0  0  0  0  0  0  0  0
   11.4618  -22.2813   -1.0073 O   0  0  0  0  0  0  0  0  0  0  0  0
   19.1729  -19.8045    1.6216 C   0  0  0  0  0  0  0  0  0  0  0  0
   17.9886  -18.9319    1.4398 C   0  0  2  0  0  0  0  0  0  0  0  0
   18.5077  -17.5179    1.1574 C   0  0  0  0  0  0  0  0  0  0  0  0
   16.9158  -18.9730    2.4571 C   0  0  0  0  0  0  0  0  0  0  0  0
   16.2813  -20.3156    2.7210 C   0  0  2  0  0  0  0  0  0  0  0  0
   15.2944  -20.7358    1.7949 N   0  0  0  0  0  0  0  0  0  0  0  0
   15.7130  -20.3445    4.0903 C   0  0  0  0  0  0  0  0  0  0  0  0
   14.5576  -19.8380    4.3013 O   0  0  0  0  0  0  0  0  0  0  0  0
   17.1376  -24.1574    7.6097 C   0  0  0  0  0  0  0  0  0  0  0  0
   16.0341  -23.2474    7.1908 C   0  0  0  0  0  0  0  0  0  0  0  0
   16.2652  -21.7999    7.5160 C   0  0  2  0  0  0  0  0  0  0  0  0
   15.4893  -21.5486    8.8175 C   0  0  0  0  0  0  0  0  0  0  0  0
   15.7819  -20.8204    6.5115 C   0  0  2  0  0  0  0  0  0  0  0  0
   16.3805  -20.9085    5.2032 N   0  0  0  0  0  0  0  0  0  0  0  0
   16.0737  -19.4392    7.0596 C   0  0  0  0  0  0  0  0  0  0  0  0
   15.1752  -18.8436    7.9116 O   0  0  0  0  0  0  0  0  0  0  0  0
   17.1358  -18.8668    6.7211 O   0  0  0  0  0  0  0  0  0  0  0  0
  2  1  1  6
  3  2  1  0
  3  4  1  0
  4  8  1  0
  4  5  2  0
  6  7  2  0
  6  2  1  0
 10  9  1  1
 10 12  1  0
 11 10  1  0
 13 12  1  6
 13 14  1  0
 14  6  1  0
 15 16  2  0
 15 13  1  0
 18 17  1  0
 19 21  1  0
 19 18  1  0
 19 20  1  1
 21 22  1  6
 22 15  1  0
 23 21  1  0
 24 23  1  0
 25 23  2  0
M  END
$$$$
