DLI.pdb
     RDKit          3D

 25 24  0  0  1  0  0  0  0  0999 V2000
   29.1087  -22.9951  -18.1471 N   0  0  0  0  0  0  0  0  0  0  0  0
   27.7050  -22.6827  -17.9212 C   0  0  1  0  0  0  0  0  0  0  0  0
   26.8595  -23.9237  -17.8965 C   0  0  0  0  0  0  0  0  0  0  0  0
   26.6692  -24.4921  -19.2471 C   0  0  0  0  0  0  0  0  0  0  0  0
   26.4978  -25.7339  -19.4707 O   0  0  0  0  0  0  0  0  0  0  0  0
   27.5035  -21.9084  -16.6911 C   0  0  0  0  0  0  0  0  0  0  0  0
   28.0795  -22.2323  -15.6498 O   0  0  0  0  0  0  0  0  0  0  0  0
   26.6655  -23.6773  -20.3960 O   0  0  0  0  0  0  0  0  0  0  0  0
   28.4046  -17.4807  -15.8239 C   0  0  0  0  0  0  0  0  0  0  0  0
   27.0884  -17.6290  -16.4891 C   0  0  2  0  0  0  0  0  0  0  0  0
   26.5909  -16.2194  -16.8270 C   0  0  0  0  0  0  0  0  0  0  0  0
   26.0616  -18.4774  -15.8461 C   0  0  0  0  0  0  0  0  0  0  0  0
   26.4539  -19.9000  -15.5346 C   0  0  2  0  0  0  0  0  0  0  0  0
   26.6386  -20.7577  -16.6474 N   0  0  0  0  0  0  0  0  0  0  0  0
   25.4663  -20.5042  -14.6082 C   0  0  0  0  0  0  0  0  0  0  0  0
   24.3974  -21.0234  -15.0815 O   0  0  0  0  0  0  0  0  0  0  0  0
   25.5095  -20.4345   -8.7070 C   0  0  0  0  0  0  0  0  0  0  0  0
   25.2301  -20.1820  -10.1491 C   0  0  0  0  0  0  0  0  0  0  0  0
   25.0147  -21.4227  -10.9667 C   0  0  2  0  0  0  0  0  0  0  0  0
   26.3603  -22.1630  -10.9410 C   0  0  0  0  0  0  0  0  0  0  0  0
   24.6482  -21.2112  -12.3891 C   0  0  2  0  0  0  0  0  0  0  0  0
   25.6332  -20.5449  -13.2036 N   0  0  0  0  0  0  0  0  0  0  0  0
   23.3906  -20.3677  -12.4046 C   0  0  0  0  0  0  0  0  0  0  0  0
   22.2230  -20.8811  -11.8936 O   0  0  0  0  0  0  0  0  0  0  0  0
   23.4440  -19.2123  -12.8866 O   0  0  0  0  0  0  0  0  0  0  0  0
  2  1  1  1
  3  2  1  0
  3  4  1  0
  4  8  1  0
  4  5  2  0
  6  7  2  0
  6  2  1  0
 10  9  1  1
 10 12  1  0
 11 10  1  0
 13 12  1  6
 13 14  1  0
 14  6  1  0
 15 16  2  0
 15 13  1  0
 18 17  1  0
 19 21  1  0
 19 18  1  0
 19 20  1  6
 21 22  1  6
 22 15  1  0
 23 21  1  0
 24 23  1  0
 25 23  2  0
M  END
$$$$
