DLI.pdb
     RDKit          3D

 25 24  0  0  1  0  0  0  0  0999 V2000
   30.8664  -32.4812  -16.5699 N   0  0  0  0  0  0  0  0  0  0  0  0
   29.6644  -32.4503  -17.3904 C   0  0  1  0  0  0  0  0  0  0  0  0
   29.1800  -33.8346  -17.7138 C   0  0  0  0  0  0  0  0  0  0  0  0
   30.0081  -34.4837  -18.7511 C   0  0  0  0  0  0  0  0  0  0  0  0
   30.8246  -33.8525  -19.4972 O   0  0  0  0  0  0  0  0  0  0  0  0
   28.5897  -31.6712  -16.7648 C   0  0  0  0  0  0  0  0  0  0  0  0
   28.2917  -31.8582  -15.5827 O   0  0  0  0  0  0  0  0  0  0  0  0
   29.9444  -35.8714  -18.9838 O   0  0  0  0  0  0  0  0  0  0  0  0
   28.1362  -27.2998  -15.7388 C   0  0  0  0  0  0  0  0  0  0  0  0
   27.8308  -27.5651  -17.1647 C   0  0  2  0  0  0  0  0  0  0  0  0
   27.7493  -26.2070  -17.8701 C   0  0  0  0  0  0  0  0  0  0  0  0
   26.7051  -28.4670  -17.4920 C   0  0  0  0  0  0  0  0  0  0  0  0
   26.7946  -29.8805  -16.9735 C   0  0  2  0  0  0  0  0  0  0  0  0
   27.8487  -30.6730  -17.4919 N   0  0  0  0  0  0  0  0  0  0  0  0
   25.5044  -30.5791  -17.1882 C   0  0  0  0  0  0  0  0  0  0  0  0
   25.3071  -31.2109  -18.2827 O   0  0  0  0  0  0  0  0  0  0  0  0
   22.6195  -33.7440  -13.6753 C   0  0  0  0  0  0  0  0  0  0  0  0
   23.3013  -33.0983  -14.8327 C   0  0  0  0  0  0  0  0  0  0  0  0
   22.5407  -31.9574  -15.4443 C   0  0  2  0  0  0  0  0  0  0  0  0
   21.2520  -32.5817  -15.9998 C   0  0  0  0  0  0  0  0  0  0  0  0
   23.2128  -31.2503  -16.5626 C   0  0  2  0  0  0  0  0  0  0  0  0
   24.4541  -30.5926  -16.2400 N   0  0  0  0  0  0  0  0  0  0  0  0
   22.2497  -30.1957  -17.0660 C   0  0  0  0  0  0  0  0  0  0  0  0
   22.5277  -28.8668  -16.8546 O   0  0  0  0  0  0  0  0  0  0  0  0
   21.2136  -30.5618  -17.6683 O   0  0  0  0  0  0  0  0  0  0  0  0
  2  1  1  1
  3  2  1  0
  3  4  1  0
  4  8  1  0
  4  5  2  0
  6  7  2  0
  6  2  1  0
 10  9  1  1
 10 12  1  0
 11 10  1  0
 13 12  1  6
 13 14  1  0
 14  6  1  0
 15 16  2  0
 15 13  1  0
 18 17  1  0
 19 21  1  0
 19 18  1  0
 19 20  1  6
 21 22  1  1
 22 15  1  0
 23 21  1  0
 24 23  1  0
 25 23  2  0
M  END
$$$$
