DLI.pdb
     RDKit          3D

 25 24  0  0  1  0  0  0  0  0999 V2000
   26.4593  -21.8927  -16.0877 N   0  0  0  0  0  0  0  0  0  0  0  0
   25.5663  -20.9426  -15.4406 C   0  0  1  0  0  0  0  0  0  0  0  0
   24.5809  -20.3597  -16.4127 C   0  0  0  0  0  0  0  0  0  0  0  0
   25.0564  -19.0837  -16.9861 C   0  0  0  0  0  0  0  0  0  0  0  0
   26.2481  -18.6540  -16.8564 O   0  0  0  0  0  0  0  0  0  0  0  0
   24.8605  -21.5381  -14.3001 C   0  0  0  0  0  0  0  0  0  0  0  0
   24.3584  -22.6605  -14.3954 O   0  0  0  0  0  0  0  0  0  0  0  0
   24.2020  -18.2452  -17.7284 O   0  0  0  0  0  0  0  0  0  0  0  0
   26.5223  -22.1854  -10.2582 C   0  0  0  0  0  0  0  0  0  0  0  0
   25.8696  -20.8547  -10.2654 C   0  0  2  0  0  0  0  0  0  0  0  0
   26.2497  -20.1573   -8.9548 C   0  0  0  0  0  0  0  0  0  0  0  0
   24.4259  -20.7758  -10.5772 C   0  0  0  0  0  0  0  0  0  0  0  0
   23.9912  -21.3065  -11.9203 C   0  0  2  0  0  0  0  0  0  0  0  0
   24.7250  -20.8488  -13.0429 N   0  0  0  0  0  0  0  0  0  0  0  0
   22.5499  -21.0286  -12.1300 C   0  0  0  0  0  0  0  0  0  0  0  0
   21.7144  -21.3136  -11.2044 O   0  0  0  0  0  0  0  0  0  0  0  0
   18.5655  -16.9205  -14.0075 C   0  0  0  0  0  0  0  0  0  0  0  0
   18.8576  -18.3742  -13.8571 C   0  0  0  0  0  0  0  0  0  0  0  0
   20.3058  -18.6962  -13.6258 C   0  0  2  0  0  0  0  0  0  0  0  0
   21.0257  -18.2715  -14.9144 C   0  0  0  0  0  0  0  0  0  0  0  0
   20.6260  -20.1252  -13.3853 C   0  0  2  0  0  0  0  0  0  0  0  0
   22.0270  -20.4560  -13.3136 N   0  0  0  0  0  0  0  0  0  0  0  0
   20.0239  -20.9152  -14.5284 C   0  0  0  0  0  0  0  0  0  0  0  0
   20.8480  -21.6044  -15.3850 O   0  0  0  0  0  0  0  0  0  0  0  0
   18.7786  -20.9226  -14.6677 O   0  0  0  0  0  0  0  0  0  0  0  0
  2  1  1  6
  3  2  1  0
  3  4  1  0
  4  8  1  0
  4  5  2  0
  6  7  2  0
  6  2  1  0
 10  9  1  1
 10 12  1  0
 11 10  1  0
 13 12  1  1
 13 14  1  0
 14  6  1  0
 15 16  2  0
 15 13  1  0
 18 17  1  0
 19 21  1  0
 19 18  1  0
 19 20  1  6
 21 22  1  6
 22 15  1  0
 23 21  1  0
 24 23  1  0
 25 23  2  0
M  END
$$$$
