DLI.pdb
     RDKit          3D

 25 24  0  0  1  0  0  0  0  0999 V2000
   16.8792  -11.7917  -15.2472 N   0  0  0  0  0  0  0  0  0  0  0  0
   16.4271  -10.4481  -14.9168 C   0  0  1  0  0  0  0  0  0  0  0  0
   14.9294  -10.3729  -14.8362 C   0  0  0  0  0  0  0  0  0  0  0  0
   14.2903  -10.6234  -16.1447 C   0  0  0  0  0  0  0  0  0  0  0  0
   14.8678  -10.4186  -17.2611 O   0  0  0  0  0  0  0  0  0  0  0  0
   17.0265   -9.9554  -13.6712 C   0  0  0  0  0  0  0  0  0  0  0  0
   17.1400  -10.7024  -12.6965 O   0  0  0  0  0  0  0  0  0  0  0  0
   12.9740  -11.1154  -16.2401 O   0  0  0  0  0  0  0  0  0  0  0  0
   21.0303   -8.8383  -11.5796 C   0  0  0  0  0  0  0  0  0  0  0  0
   20.5940   -7.9781  -12.7050 C   0  0  2  0  0  0  0  0  0  0  0  0
   21.7886   -7.1000  -13.0928 C   0  0  0  0  0  0  0  0  0  0  0  0
   19.3283   -7.2245  -12.5711 C   0  0  0  0  0  0  0  0  0  0  0  0
   18.0730   -8.0359  -12.3700 C   0  0  2  0  0  0  0  0  0  0  0  0
   17.4985   -8.6016  -13.5354 N   0  0  0  0  0  0  0  0  0  0  0  0
   17.0532   -7.2213  -11.6663 C   0  0  0  0  0  0  0  0  0  0  0  0
   16.4115   -6.3233  -12.3128 O   0  0  0  0  0  0  0  0  0  0  0  0
   12.9529   -8.8527   -8.5398 C   0  0  0  0  0  0  0  0  0  0  0  0
   13.8161   -8.0785   -9.4762 C   0  0  0  0  0  0  0  0  0  0  0  0
   14.7687   -7.1321   -8.8045 C   0  0  2  0  0  0  0  0  0  0  0  0
   13.8878   -6.0168   -8.2219 C   0  0  0  0  0  0  0  0  0  0  0  0
   15.7790   -6.4909   -9.6824 C   0  0  2  0  0  0  0  0  0  0  0  0
   16.7367   -7.3762  -10.2958 N   0  0  0  0  0  0  0  0  0  0  0  0
   16.5459   -5.5014   -8.8303 C   0  0  0  0  0  0  0  0  0  0  0  0
   16.1470   -4.1871   -8.7918 O   0  0  0  0  0  0  0  0  0  0  0  0
   17.5340   -5.9069   -8.1750 O   0  0  0  0  0  0  0  0  0  0  0  0
  2  1  1  1
  3  2  1  0
  3  4  1  0
  4  8  1  0
  4  5  2  0
  6  7  2  0
  6  2  1  0
 10  9  1  1
 10 12  1  0
 11 10  1  0
 13 12  1  6
 13 14  1  0
 14  6  1  0
 15 16  2  0
 15 13  1  0
 18 17  1  0
 19 21  1  0
 19 18  1  0
 19 20  1  6
 21 22  1  1
 22 15  1  0
 23 21  1  0
 24 23  1  0
 25 23  2  0
M  END
$$$$
