EIC.pdb
     RDKit          3D

 24 23  0  0  1  0  0  0  0  0999 V2000
   28.3763  -20.9971  -15.6140 N   0  0  0  0  0  0  0  0  0  0  0  0
   27.8411  -20.1149  -14.6394 C   0  0  1  0  0  0  0  0  0  0  0  0
   27.5196  -18.7797  -15.2465 C   0  0  0  0  0  0  0  0  0  0  0  0
   27.1494  -18.7875  -16.6813 C   0  0  0  0  0  0  0  0  0  0  0  0
   25.9058  -18.1384  -17.0683 C   0  0  0  0  0  0  0  0  0  0  0  0
   25.0513  -18.8728  -17.6789 O   0  0  0  0  0  0  0  0  0  0  0  0
   26.6887  -20.6853  -13.8967 C   0  0  0  0  0  0  0  0  0  0  0  0
   26.0941  -21.6893  -14.3307 O   0  0  0  0  0  0  0  0  0  0  0  0
   25.5339  -16.8306  -16.8618 O   0  0  0  0  0  0  0  0  0  0  0  0
   26.7798  -20.3737   -8.4679 C   0  0  0  0  0  0  0  0  0  0  0  0
   26.4404  -20.9903   -9.7798 C   0  0  0  0  0  0  0  0  0  0  0  0
   25.1838  -20.5923  -10.4376 C   0  0  2  0  0  0  0  0  0  0  0  0
   23.9617  -21.2205   -9.7715 C   0  0  0  0  0  0  0  0  0  0  0  0
   25.1621  -20.7242  -11.9028 C   0  0  2  0  0  0  0  0  0  0  0  0
   26.2124  -20.1094  -12.6583 N   0  0  0  0  0  0  0  0  0  0  0  0
   23.8223  -20.2456  -12.4125 C   0  0  0  0  0  0  0  0  0  0  0  0
   23.6369  -19.0300  -12.6827 O   0  0  0  0  0  0  0  0  0  0  0  0
   22.7473  -21.1572  -12.5949 N   0  0  0  0  0  0  0  0  0  0  0  0
   21.6375  -20.8193  -13.4401 C   0  0  1  0  0  0  0  0  0  0  0  0
   22.1420  -20.5175  -14.8348 C   0  0  0  0  0  0  0  0  0  0  0  0
   20.7901  -20.1280  -15.9663 S   0  0  0  0  0  0  0  0  0  0  0  0
   20.5817  -21.8257  -13.4387 C   0  0  0  0  0  0  0  0  0  0  0  0
   20.8666  -23.0385  -13.3558 O   0  0  0  0  0  0  0  0  0  0  0  0
   19.2531  -21.4578  -13.5277 O   0  0  0  0  0  0  0  0  0  0  0  0
  2  3  1  0
  2  1  1  6
  4  3  1  0
  5  4  1  0
  5  6  2  0
  7  8  2  0
  7  2  1  0
  9  5  1  0
 10 11  1  0
 11 12  1  0
 12 14  1  0
 12 13  1  1
 14 15  1  6
 15  7  1  0
 16 17  2  0
 16 14  1  0
 18 16  1  0
 19 20  1  6
 19 18  1  0
 21 20  1  0
 22 19  1  0
 23 22  2  0
 24 22  1  0
M  END
$$$$
