EIC.pdb
     RDKit          3D

 24 23  0  0  1  0  0  0  0  0999 V2000
   27.6506  -20.6523  -15.2807 N   0  0  0  0  0  0  0  0  0  0  0  0
   26.8492  -19.9639  -16.2285 C   0  0  1  0  0  0  0  0  0  0  0  0
   26.3408  -20.9049  -17.2823 C   0  0  0  0  0  0  0  0  0  0  0  0
   27.3643  -21.7204  -17.9776 C   0  0  0  0  0  0  0  0  0  0  0  0
   27.7681  -22.9763  -17.3636 C   0  0  0  0  0  0  0  0  0  0  0  0
   28.9925  -23.0564  -16.9935 O   0  0  0  0  0  0  0  0  0  0  0  0
   25.7565  -19.1700  -15.6113 C   0  0  0  0  0  0  0  0  0  0  0  0
   25.3252  -19.4638  -14.4810 O   0  0  0  0  0  0  0  0  0  0  0  0
   26.9976  -24.0919  -17.1330 O   0  0  0  0  0  0  0  0  0  0  0  0
   26.1698  -13.9537  -15.7142 C   0  0  0  0  0  0  0  0  0  0  0  0
   25.6881  -15.2705  -15.2136 C   0  0  0  0  0  0  0  0  0  0  0  0
   24.3719  -15.7538  -15.6658 C   0  0  2  0  0  0  0  0  0  0  0  0
   23.2226  -14.9960  -15.0051 C   0  0  0  0  0  0  0  0  0  0  0  0
   24.1831  -17.2125  -15.6327 C   0  0  2  0  0  0  0  0  0  0  0  0
   25.1535  -18.0406  -16.2843 N   0  0  0  0  0  0  0  0  0  0  0  0
   22.8040  -17.5346  -16.1601 C   0  0  0  0  0  0  0  0  0  0  0  0
   22.5912  -17.5991  -17.3993 O   0  0  0  0  0  0  0  0  0  0  0  0
   21.7224  -17.7691  -15.2686 N   0  0  0  0  0  0  0  0  0  0  0  0
   20.4094  -18.0576  -15.7717 C   0  0  1  0  0  0  0  0  0  0  0  0
   20.3163  -19.5281  -16.1180 C   0  0  0  0  0  0  0  0  0  0  0  0
   18.6278  -20.0120  -16.5358 S   0  0  0  0  0  0  0  0  0  0  0  0
   19.3399  -17.6306  -14.8765 C   0  0  0  0  0  0  0  0  0  0  0  0
   19.5643  -17.4664  -13.6592 O   0  0  0  0  0  0  0  0  0  0  0  0
   18.0652  -17.4001  -15.3562 O   0  0  0  0  0  0  0  0  0  0  0  0
  2  3  1  0
  2  1  1  1
  4  3  1  0
  5  4  1  0
  5  6  2  0
  7  8  2  0
  7  2  1  0
  9  5  1  0
 10 11  1  0
 11 12  1  0
 12 14  1  0
 12 13  1  1
 14 15  1  6
 15  7  1  0
 16 17  2  0
 16 14  1  0
 18 16  1  0
 19 20  1  1
 19 18  1  0
 21 20  1  0
 22 19  1  0
 23 22  2  0
 24 22  1  0
M  END
$$$$
