EIC.pdb
     RDKit          3D

 24 23  0  0  1  0  0  0  0  0999 V2000
   23.5775  -14.4257  -20.1003 N   0  0  0  0  0  0  0  0  0  0  0  0
   24.0916  -13.1031  -20.0691 C   0  0  1  0  0  0  0  0  0  0  0  0
   23.3507  -12.2191  -21.0305 C   0  0  0  0  0  0  0  0  0  0  0  0
   23.5273  -12.5274  -22.4691 C   0  0  0  0  0  0  0  0  0  0  0  0
   24.8285  -12.2691  -23.0673 C   0  0  0  0  0  0  0  0  0  0  0  0
   25.7609  -13.0970  -22.7711 O   0  0  0  0  0  0  0  0  0  0  0  0
   24.1467  -12.5236  -18.7030 C   0  0  0  0  0  0  0  0  0  0  0  0
   23.2696  -12.8023  -17.8645 O   0  0  0  0  0  0  0  0  0  0  0  0
   25.1834  -11.2426  -23.9110 O   0  0  0  0  0  0  0  0  0  0  0  0
   28.4688  -12.6451  -15.5653 C   0  0  0  0  0  0  0  0  0  0  0  0
   27.1075  -12.5097  -16.1529 C   0  0  0  0  0  0  0  0  0  0  0  0
   26.4987  -11.1694  -16.2105 C   0  0  2  0  0  0  0  0  0  0  0  0
   26.4033  -10.5212  -14.8311 C   0  0  0  0  0  0  0  0  0  0  0  0
   25.2432  -11.0721  -16.9713 C   0  0  2  0  0  0  0  0  0  0  0  0
   25.2023  -11.6237  -18.2926 N   0  0  0  0  0  0  0  0  0  0  0  0
   24.8121   -9.6242  -17.0115 C   0  0  0  0  0  0  0  0  0  0  0  0
   25.3661   -8.8128  -17.7988 O   0  0  0  0  0  0  0  0  0  0  0  0
   23.7757   -9.1515  -16.1618 N   0  0  0  0  0  0  0  0  0  0  0  0
   23.2174   -7.8424  -16.3480 C   0  0  1  0  0  0  0  0  0  0  0  0
   22.6627   -7.7280  -17.7516 C   0  0  0  0  0  0  0  0  0  0  0  0
   21.8046   -6.1602  -18.0068 S   0  0  0  0  0  0  0  0  0  0  0  0
   22.2337   -7.4830  -15.3327 C   0  0  0  0  0  0  0  0  0  0  0  0
   21.5205   -8.3624  -14.8064 O   0  0  0  0  0  0  0  0  0  0  0  0
   22.0741   -6.1696  -14.9355 O   0  0  0  0  0  0  0  0  0  0  0  0
  2  3  1  0
  2  1  1  1
  4  3  1  0
  5  4  1  0
  5  6  2  0
  7  8  2  0
  7  2  1  0
  9  5  1  0
 10 11  1  0
 11 12  1  0
 12 14  1  0
 12 13  1  1
 14 15  1  6
 15  7  1  0
 16 17  2  0
 16 14  1  0
 18 16  1  0
 19 20  1  6
 19 18  1  0
 21 20  1  0
 22 19  1  0
 23 22  2  0
 24 22  1  0
M  END
$$$$
