EIC.pdb
     RDKit          3D

 24 23  0  0  1  0  0  0  0  0999 V2000
   16.0903  -10.4817  -18.5028 N   0  0  0  0  0  0  0  0  0  0  0  0
   16.1226   -9.8479  -17.2333 C   0  0  1  0  0  0  0  0  0  0  0  0
   16.3856  -10.8471  -16.1438 C   0  0  0  0  0  0  0  0  0  0  0  0
   17.6477  -11.6159  -16.2543 C   0  0  0  0  0  0  0  0  0  0  0  0
   17.9668  -12.5590  -15.1931 C   0  0  0  0  0  0  0  0  0  0  0  0
   19.0423  -13.2390  -15.3461 O   0  0  0  0  0  0  0  0  0  0  0  0
   17.0558   -8.6944  -17.1734 C   0  0  0  0  0  0  0  0  0  0  0  0
   18.0702   -8.6664  -17.8946 O   0  0  0  0  0  0  0  0  0  0  0  0
   17.2544  -12.8137  -14.0446 O   0  0  0  0  0  0  0  0  0  0  0  0
   14.9968   -4.2143  -17.1889 C   0  0  0  0  0  0  0  0  0  0  0  0
   16.3518   -4.7817  -17.4311 C   0  0  0  0  0  0  0  0  0  0  0  0
   17.1955   -5.1038  -16.2671 C   0  0  2  0  0  0  0  0  0  0  0  0
   18.2566   -4.0357  -16.0124 C   0  0  0  0  0  0  0  0  0  0  0  0
   17.7450   -6.4683  -16.2366 C   0  0  2  0  0  0  0  0  0  0  0  0
   16.8332   -7.5718  -16.2887 N   0  0  0  0  0  0  0  0  0  0  0  0
   18.6382   -6.6039  -15.0252 C   0  0  0  0  0  0  0  0  0  0  0  0
   18.2928   -7.3245  -14.0523 O   0  0  0  0  0  0  0  0  0  0  0  0
   19.8826   -5.9205  -14.9607 N   0  0  0  0  0  0  0  0  0  0  0  0
   20.8529   -6.2612  -13.9593 C   0  0  1  0  0  0  0  0  0  0  0  0
   21.1509   -7.7433  -14.0325 C   0  0  0  0  0  0  0  0  0  0  0  0
   22.3992   -8.2358  -12.8246 S   0  0  0  0  0  0  0  0  0  0  0  0
   22.0627   -5.4491  -14.0259 C   0  0  0  0  0  0  0  0  0  0  0  0
   22.5921   -5.1953  -15.1279 O   0  0  0  0  0  0  0  0  0  0  0  0
   22.6423   -4.9472  -12.8768 O   0  0  0  0  0  0  0  0  0  0  0  0
  2  3  1  0
  2  1  1  6
  4  3  1  0
  5  4  1  0
  5  6  2  0
  7  8  2  0
  7  2  1  0
  9  5  1  0
 10 11  1  0
 11 12  1  0
 12 14  1  0
 12 13  1  6
 14 15  1  1
 15  7  1  0
 16 17  2  0
 16 14  1  0
 18 16  1  0
 19 20  1  6
 19 18  1  0
 21 20  1  0
 22 19  1  0
 23 22  2  0
 24 22  1  0
M  END
$$$$
