EIC.pdb
     RDKit          3D

 24 23  0  0  1  0  0  0  0  0999 V2000
   25.2630  -10.2124  -19.8034 N   0  0  0  0  0  0  0  0  0  0  0  0
   23.8653  -10.3279  -20.0218 C   0  0  1  0  0  0  0  0  0  0  0  0
   23.5155  -11.6960  -20.5321 C   0  0  0  0  0  0  0  0  0  0  0  0
   24.2843  -12.1705  -21.7067 C   0  0  0  0  0  0  0  0  0  0  0  0
   24.0327  -13.5212  -22.1861 C   0  0  0  0  0  0  0  0  0  0  0  0
   24.6965  -13.8867  -23.2197 O   0  0  0  0  0  0  0  0  0  0  0  0
   23.0501   -9.9444  -18.8413 C   0  0  0  0  0  0  0  0  0  0  0  0
   21.8076  -10.0082  -18.8858 O   0  0  0  0  0  0  0  0  0  0  0  0
   23.1670  -14.4556  -21.6678 O   0  0  0  0  0  0  0  0  0  0  0  0
   24.1687  -12.1231  -14.4484 C   0  0  0  0  0  0  0  0  0  0  0  0
   23.2039  -11.3830  -15.3075 C   0  0  0  0  0  0  0  0  0  0  0  0
   23.1545   -9.9144  -15.2022 C   0  0  2  0  0  0  0  0  0  0  0  0
   22.2848   -9.4502  -14.0360 C   0  0  0  0  0  0  0  0  0  0  0  0
   22.8593   -9.1956  -16.4515 C   0  0  2  0  0  0  0  0  0  0  0  0
   23.6523   -9.4857  -17.6087 N   0  0  0  0  0  0  0  0  0  0  0  0
   22.8889   -7.7103  -16.1745 C   0  0  0  0  0  0  0  0  0  0  0  0
   23.9851   -7.1050  -16.0434 O   0  0  0  0  0  0  0  0  0  0  0  0
   21.6818   -6.9699  -16.0556 N   0  0  0  0  0  0  0  0  0  0  0  0
   21.7115   -5.5650  -15.7626 C   0  0  1  0  0  0  0  0  0  0  0  0
   20.6845   -4.8523  -16.6159 C   0  0  0  0  0  0  0  0  0  0  0  0
   20.4331   -3.1475  -16.0773 S   0  0  0  0  0  0  0  0  0  0  0  0
   21.5557   -5.2664  -14.3434 C   0  0  0  0  0  0  0  0  0  0  0  0
   22.3140   -4.4469  -13.7844 O   0  0  0  0  0  0  0  0  0  0  0  0
   20.5707   -5.8809  -13.5948 O   0  0  0  0  0  0  0  0  0  0  0  0
  2  3  1  0
  2  1  1  1
  4  3  1  0
  5  4  1  0
  5  6  2  0
  7  8  2  0
  7  2  1  0
  9  5  1  0
 10 11  1  0
 11 12  1  0
 12 14  1  0
 12 13  1  1
 14 15  1  6
 15  7  1  0
 16 17  2  0
 16 14  1  0
 18 16  1  0
 19 20  1  6
 19 18  1  0
 21 20  1  0
 22 19  1  0
 23 22  2  0
 24 22  1  0
M  END
$$$$
