EIC.pdb
     RDKit          3D

 24 23  0  0  1  0  0  0  0  0999 V2000
   27.7926  -23.1882  -16.6020 N   0  0  0  0  0  0  0  0  0  0  0  0
   27.3948  -21.9368  -16.0632 C   0  0  1  0  0  0  0  0  0  0  0  0
   27.0120  -20.9816  -17.1567 C   0  0  0  0  0  0  0  0  0  0  0  0
   28.1003  -20.5707  -18.0747 C   0  0  0  0  0  0  0  0  0  0  0  0
   28.6985  -21.5907  -18.9228 C   0  0  0  0  0  0  0  0  0  0  0  0
   29.9512  -21.8027  -18.7538 O   0  0  0  0  0  0  0  0  0  0  0  0
   26.3407  -22.0505  -15.0235 C   0  0  0  0  0  0  0  0  0  0  0  0
   25.4648  -22.9312  -15.1078 O   0  0  0  0  0  0  0  0  0  0  0  0
   28.0855  -22.3557  -19.8874 O   0  0  0  0  0  0  0  0  0  0  0  0
   25.0624  -21.0305   -9.0023 C   0  0  0  0  0  0  0  0  0  0  0  0
   24.7111  -21.2968  -10.4243 C   0  0  0  0  0  0  0  0  0  0  0  0
   25.7257  -21.0311  -11.4589 C   0  0  2  0  0  0  0  0  0  0  0  0
   26.3373  -19.6387  -11.3208 C   0  0  0  0  0  0  0  0  0  0  0  0
   25.3233  -21.3398  -12.8400 C   0  0  2  0  0  0  0  0  0  0  0  0
   26.2839  -21.1576  -13.8869 N   0  0  0  0  0  0  0  0  0  0  0  0
   24.0666  -20.5651  -13.1630 C   0  0  0  0  0  0  0  0  0  0  0  0
   24.0789  -19.3064  -13.1884 O   0  0  0  0  0  0  0  0  0  0  0  0
   22.8485  -21.2416  -13.4426 N   0  0  0  0  0  0  0  0  0  0  0  0
   21.6422  -20.5039  -13.6893 C   0  0  1  0  0  0  0  0  0  0  0  0
   20.9874  -21.0199  -14.9526 C   0  0  0  0  0  0  0  0  0  0  0  0
   22.1590  -21.1161  -16.3229 S   0  0  0  0  0  0  0  0  0  0  0  0
   20.7262  -20.4961  -12.5542 C   0  0  0  0  0  0  0  0  0  0  0  0
   20.8372  -21.3483  -11.6483 O   0  0  0  0  0  0  0  0  0  0  0  0
   19.7242  -19.5499  -12.4598 O   0  0  0  0  0  0  0  0  0  0  0  0
  2  3  1  0
  2  1  1  6
  4  3  1  0
  5  4  1  0
  5  6  2  0
  7  8  2  0
  7  2  1  0
  9  5  1  0
 10 11  1  0
 11 12  1  0
 12 14  1  0
 12 13  1  6
 14 15  1  6
 15  7  1  0
 16 17  2  0
 16 14  1  0
 18 16  1  0
 19 20  1  6
 19 18  1  0
 21 20  1  0
 22 19  1  0
 23 22  2  0
 24 22  1  0
M  END
$$$$
