EIC.pdb
     RDKit          3D

 24 23  0  0  1  0  0  0  0  0999 V2000
   28.5976  -21.2912  -15.2778 N   0  0  0  0  0  0  0  0  0  0  0  0
   27.7093  -20.3376  -14.7153 C   0  0  1  0  0  0  0  0  0  0  0  0
   27.2119  -19.3864  -15.7652 C   0  0  0  0  0  0  0  0  0  0  0  0
   28.2499  -18.6330  -16.5075 C   0  0  0  0  0  0  0  0  0  0  0  0
   27.8124  -17.7106  -17.5445 C   0  0  0  0  0  0  0  0  0  0  0  0
   27.4984  -16.5306  -17.1552 O   0  0  0  0  0  0  0  0  0  0  0  0
   26.5992  -20.9498  -13.9421 C   0  0  0  0  0  0  0  0  0  0  0  0
   26.0115  -21.9586  -14.3744 O   0  0  0  0  0  0  0  0  0  0  0  0
   27.6914  -17.9493  -18.8934 O   0  0  0  0  0  0  0  0  0  0  0  0
   26.4825  -20.5848   -8.4611 C   0  0  0  0  0  0  0  0  0  0  0  0
   26.1598  -21.2560   -9.7502 C   0  0  0  0  0  0  0  0  0  0  0  0
   24.9839  -20.7927  -10.5071 C   0  0  2  0  0  0  0  0  0  0  0  0
   23.6758  -21.3037   -9.9073 C   0  0  0  0  0  0  0  0  0  0  0  0
   25.0507  -20.9788  -11.9650 C   0  0  2  0  0  0  0  0  0  0  0  0
   26.1572  -20.4101  -12.6749 N   0  0  0  0  0  0  0  0  0  0  0  0
   23.7543  -20.4975  -12.5747 C   0  0  0  0  0  0  0  0  0  0  0  0
   23.5297  -19.2664  -12.7126 O   0  0  0  0  0  0  0  0  0  0  0  0
   22.7651  -21.4240  -13.0021 N   0  0  0  0  0  0  0  0  0  0  0  0
   21.5058  -20.9644  -13.5151 C   0  0  1  0  0  0  0  0  0  0  0  0
   21.1320  -21.7806  -14.7337 C   0  0  0  0  0  0  0  0  0  0  0  0
   19.4711  -21.3851  -15.3207 S   0  0  0  0  0  0  0  0  0  0  0  0
   20.4451  -20.9463  -12.5140 C   0  0  0  0  0  0  0  0  0  0  0  0
   19.5330  -20.0959  -12.5770 O   0  0  0  0  0  0  0  0  0  0  0  0
   20.4291  -21.8654  -11.4829 O   0  0  0  0  0  0  0  0  0  0  0  0
  2  3  1  0
  2  1  1  6
  4  3  1  0
  5  4  1  0
  5  6  2  0
  7  8  2  0
  7  2  1  0
  9  5  1  0
 10 11  1  0
 11 12  1  0
 12 14  1  0
 12 13  1  1
 14 15  1  6
 15  7  1  0
 16 17  2  0
 16 14  1  0
 18 16  1  0
 19 20  1  6
 19 18  1  0
 21 20  1  0
 22 19  1  0
 23 22  2  0
 24 22  1  0
M  END
$$$$
