EIC.pdb
     RDKit          3D

 24 23  0  0  1  0  0  0  0  0999 V2000
   20.4635  -21.0227  -11.6605 N   0  0  0  0  0  0  0  0  0  0  0  0
   21.2126  -21.3863  -12.8100 C   0  0  1  0  0  0  0  0  0  0  0  0
   20.3518  -21.3570  -14.0399 C   0  0  0  0  0  0  0  0  0  0  0  0
   19.2998  -22.3972  -14.1250 C   0  0  0  0  0  0  0  0  0  0  0  0
   17.9562  -21.9794  -14.4962 C   0  0  0  0  0  0  0  0  0  0  0  0
   17.5749  -22.2892  -15.6799 O   0  0  0  0  0  0  0  0  0  0  0  0
   22.4574  -20.5943  -12.9777 C   0  0  0  0  0  0  0  0  0  0  0  0
   22.4625  -19.3714  -12.7445 O   0  0  0  0  0  0  0  0  0  0  0  0
   17.0433  -21.2895  -13.7333 O   0  0  0  0  0  0  0  0  0  0  0  0
   27.0363  -21.7628  -10.5959 C   0  0  0  0  0  0  0  0  0  0  0  0
   25.9094  -21.1601  -11.3597 C   0  0  0  0  0  0  0  0  0  0  0  0
   26.0968  -20.8995  -12.7975 C   0  0  2  0  0  0  0  0  0  0  0  0
   27.3271  -20.0370  -13.0703 C   0  0  0  0  0  0  0  0  0  0  0  0
   24.9041  -20.4317  -13.5210 C   0  0  2  0  0  0  0  0  0  0  0  0
   23.6980  -21.1969  -13.4139 N   0  0  0  0  0  0  0  0  0  0  0  0
   25.2621  -20.2485  -14.9777 C   0  0  0  0  0  0  0  0  0  0  0  0
   25.4372  -21.2469  -15.7246 O   0  0  0  0  0  0  0  0  0  0  0  0
   25.4088  -18.9478  -15.5312 N   0  0  0  0  0  0  0  0  0  0  0  0
   25.7909  -18.7761  -16.9040 C   0  0  1  0  0  0  0  0  0  0  0  0
   25.0386  -17.6015  -17.4915 C   0  0  0  0  0  0  0  0  0  0  0  0
   24.5384  -17.9125  -19.1982 S   0  0  0  0  0  0  0  0  0  0  0  0
   27.2326  -18.6611  -17.0934 C   0  0  0  0  0  0  0  0  0  0  0  0
   27.8903  -17.8271  -16.4369 O   0  0  0  0  0  0  0  0  0  0  0  0
   27.8944  -19.4691  -17.9974 O   0  0  0  0  0  0  0  0  0  0  0  0
  2  3  1  0
  2  1  1  1
  4  3  1  0
  5  4  1  0
  5  6  2  0
  7  8  2  0
  7  2  1  0
  9  5  1  0
 10 11  1  0
 11 12  1  0
 12 14  1  0
 12 13  1  1
 14 15  1  6
 15  7  1  0
 16 17  2  0
 16 14  1  0
 18 16  1  0
 19 20  1  1
 19 18  1  0
 21 20  1  0
 22 19  1  0
 23 22  2  0
 24 22  1  0
M  END
$$$$
