EIC.pdb
     RDKit          3D

 24 23  0  0  1  0  0  0  0  0999 V2000
   20.3163  -12.4011  -17.5855 N   0  0  0  0  0  0  0  0  0  0  0  0
   19.3476  -11.6134  -16.9105 C   0  0  1  0  0  0  0  0  0  0  0  0
   18.5193  -12.4600  -15.9877 C   0  0  0  0  0  0  0  0  0  0  0  0
   17.9560  -13.7008  -16.5701 C   0  0  0  0  0  0  0  0  0  0  0  0
   17.9098  -14.8884  -15.7304 C   0  0  0  0  0  0  0  0  0  0  0  0
   17.2850  -14.7698  -14.6177 O   0  0  0  0  0  0  0  0  0  0  0  0
   19.9249  -10.4318  -16.2207 C   0  0  0  0  0  0  0  0  0  0  0  0
   19.2578   -9.8078  -15.3747 O   0  0  0  0  0  0  0  0  0  0  0  0
   18.4569  -16.1248  -15.9823 O   0  0  0  0  0  0  0  0  0  0  0  0
   25.2470  -10.2264  -14.7407 C   0  0  0  0  0  0  0  0  0  0  0  0
   23.7735  -10.0718  -14.8870 C   0  0  0  0  0  0  0  0  0  0  0  0
   23.2554   -8.8363  -15.4998 C   0  0  2  0  0  0  0  0  0  0  0  0
   23.6987   -7.5878  -14.7403 C   0  0  0  0  0  0  0  0  0  0  0  0
   21.8167   -8.8324  -15.8075 C   0  0  2  0  0  0  0  0  0  0  0  0
   21.2640   -9.9598  -16.4970 N   0  0  0  0  0  0  0  0  0  0  0  0
   21.4856   -7.5643  -16.5598 C   0  0  0  0  0  0  0  0  0  0  0  0
   21.6562   -7.4955  -17.8053 O   0  0  0  0  0  0  0  0  0  0  0  0
   20.9774   -6.4266  -15.8764 N   0  0  0  0  0  0  0  0  0  0  0  0
   20.5642   -5.2605  -16.6044 C   0  0  1  0  0  0  0  0  0  0  0  0
   19.5253   -5.6525  -17.6329 C   0  0  0  0  0  0  0  0  0  0  0  0
   18.7783   -4.2067  -18.4147 S   0  0  0  0  0  0  0  0  0  0  0  0
   20.1101   -4.1728  -15.7452 C   0  0  0  0  0  0  0  0  0  0  0  0
   19.5495   -4.4204  -14.6573 O   0  0  0  0  0  0  0  0  0  0  0  0
   20.2913   -2.8547  -16.1166 O   0  0  0  0  0  0  0  0  0  0  0  0
  2  3  1  0
  2  1  1  1
  4  3  1  0
  5  4  1  0
  5  6  2  0
  7  8  2  0
  7  2  1  0
  9  5  1  0
 10 11  1  0
 11 12  1  0
 12 14  1  0
 12 13  1  1
 14 15  1  6
 15  7  1  0
 16 17  2  0
 16 14  1  0
 18 16  1  0
 19 20  1  6
 19 18  1  0
 21 20  1  0
 22 19  1  0
 23 22  2  0
 24 22  1  0
M  END
$$$$
