YPF.pdb
     RDKit          3D

 31 33  0  0  1  0  0  0  0  0999 V2000
   21.2540  -17.2988  -14.4293 O   0  0  0  0  0  0  0  0  0  0  0  0
   21.9618  -18.4400  -14.7282 C   0  0  0  0  0  0  0  0  0  0  0  0
   22.4137  -19.3021  -13.7404 C   0  0  0  0  0  0  0  0  0  0  0  0
   23.1234  -20.4446  -14.0560 C   0  0  0  0  0  0  0  0  0  0  0  0
   23.3995  -20.7538  -15.3712 C   0  0  0  0  0  0  0  0  0  0  0  0
   24.1485  -21.9492  -15.7831 C   0  0  0  0  0  0  0  0  0  0  0  0
   25.6342  -21.6329  -15.9714 C   0  0  2  0  0  0  0  0  0  0  0  0
   26.1331  -22.6676  -16.8569 N   0  0  0  0  0  0  0  0  0  0  0  0
   26.2997  -21.7280  -14.6551 C   0  0  0  0  0  0  0  0  0  0  0  0
   26.3348  -22.8455  -14.0823 O   0  0  0  0  0  0  0  0  0  0  0  0
   22.9437  -19.8872  -16.3404 C   0  0  0  0  0  0  0  0  0  0  0  0
   22.2338  -18.7424  -16.0425 C   0  0  0  0  0  0  0  0  0  0  0  0
   26.9009  -20.6218  -14.0055 N   0  0  0  0  0  0  0  0  0  0  0  0
   26.9624  -19.2856  -14.5549 C   0  0  0  0  0  0  0  0  0  0  0  0
   28.3525  -18.8401  -14.0787 C   0  0  0  0  0  0  0  0  0  0  0  0
   28.3037  -19.2963  -12.6346 C   0  0  0  0  0  0  0  0  0  0  0  0
   27.5419  -20.6010  -12.7274 C   0  0  1  0  0  0  0  0  0  0  0  0
   26.5226  -20.6833  -11.6320 C   0  0  0  0  0  0  0  0  0  0  0  0
   25.3456  -20.2431  -11.7832 O   0  0  0  0  0  0  0  0  0  0  0  0
   26.8141  -21.2551  -10.3709 N   0  0  0  0  0  0  0  0  0  0  0  0
   25.8535  -21.3166   -9.2723 C   0  0  1  0  0  0  0  0  0  0  0  0
   26.6232  -21.9113   -8.1150 C   0  0  0  0  0  0  0  0  0  0  0  0
   27.3989  -20.9509   -7.3356 C   0  0  0  0  0  0  0  0  0  0  0  0
   26.7734  -20.3166   -6.2740 C   0  0  0  0  0  0  0  0  0  0  0  0
   27.4326  -19.3995   -5.4789 C   0  0  0  0  0  0  0  0  0  0  0  0
   28.7487  -19.1144   -5.7574 C   0  0  0  0  0  0  0  0  0  0  0  0
   29.3973  -19.7301   -6.8072 C   0  0  0  0  0  0  0  0  0  0  0  0
   28.7060  -20.6543   -7.5955 C   0  0  0  0  0  0  0  0  0  0  0  0
   25.3826  -19.9706   -8.8908 C   0  0  0  0  0  0  0  0  0  0  0  0
   26.1588  -18.9962   -9.0569 O   0  0  0  0  0  0  0  0  0  0  0  0
   24.1330  -19.7082   -8.3590 O   0  0  0  0  0  0  0  0  0  0  0  0
  2  1  1  0
  3  2  2  0
  4  3  1  0
  5 11  1  0
  5  4  2  0
  6  5  1  0
  7  6  1  0
  7  8  1  6
  9  7  1  0
  9 10  2  0
 11 12  2  0
 12  2  1  0
 13  9  1  0
 14 13  1  0
 15 14  1  0
 16 15  1  0
 16 17  1  0
 17 13  1  0
 17 18  1  1
 19 18  2  0
 20 18  1  0
 21 29  1  0
 21 20  1  0
 21 22  1  1
 23 22  1  0
 24 23  2  0
 25 24  1  0
 26 27  1  0
 26 25  2  0
 27 28  2  0
 28 23  1  0
 29 31  1  0
 30 29  2  0
M  END
$$$$
