YPF.pdb
     RDKit          3D

 31 33  0  0  1  0  0  0  0  0999 V2000
   22.3240  -12.1265  -19.9730 O   0  0  0  0  0  0  0  0  0  0  0  0
   22.6895  -13.2468  -19.2631 C   0  0  0  0  0  0  0  0  0  0  0  0
   23.9998  -13.6998  -19.2320 C   0  0  0  0  0  0  0  0  0  0  0  0
   24.3517  -14.8267  -18.5144 C   0  0  0  0  0  0  0  0  0  0  0  0
   23.3989  -15.5303  -17.8083 C   0  0  0  0  0  0  0  0  0  0  0  0
   23.6976  -16.7366  -17.0240 C   0  0  0  0  0  0  0  0  0  0  0  0
   24.6555  -17.6627  -17.7774 C   0  0  2  0  0  0  0  0  0  0  0  0
   23.8636  -18.2382  -18.8475 N   0  0  0  0  0  0  0  0  0  0  0  0
   25.1014  -18.7235  -16.8498 C   0  0  0  0  0  0  0  0  0  0  0  0
   24.3789  -19.7423  -16.7151 O   0  0  0  0  0  0  0  0  0  0  0  0
   22.1020  -15.0674  -17.8495 C   0  0  0  0  0  0  0  0  0  0  0  0
   21.7337  -13.9441  -18.5609 C   0  0  0  0  0  0  0  0  0  0  0  0
   26.3036  -18.6500  -16.1039 N   0  0  0  0  0  0  0  0  0  0  0  0
   27.2789  -17.5896  -16.2277 C   0  0  0  0  0  0  0  0  0  0  0  0
   28.5864  -18.3774  -16.0614 C   0  0  0  0  0  0  0  0  0  0  0  0
   28.2337  -19.2394  -14.8661 C   0  0  0  0  0  0  0  0  0  0  0  0
   26.7780  -19.5699  -15.1171 C   0  0  1  0  0  0  0  0  0  0  0  0
   25.9898  -19.4276  -13.8506 C   0  0  0  0  0  0  0  0  0  0  0  0
   25.5194  -18.3123  -13.4808 O   0  0  0  0  0  0  0  0  0  0  0  0
   25.7263  -20.5257  -12.9980 N   0  0  0  0  0  0  0  0  0  0  0  0
   25.0222  -20.4062  -11.7238 C   0  0  1  0  0  0  0  0  0  0  0  0
   23.5578  -20.5409  -12.0740 C   0  0  0  0  0  0  0  0  0  0  0  0
   22.6425  -20.4196  -10.9431 C   0  0  0  0  0  0  0  0  0  0  0  0
   22.2887  -21.5748  -10.2641 C   0  0  0  0  0  0  0  0  0  0  0  0
   21.4345  -21.5528   -9.1789 C   0  0  0  0  0  0  0  0  0  0  0  0
   20.9254  -20.3433   -8.7679 C   0  0  0  0  0  0  0  0  0  0  0  0
   21.2597  -19.1772   -9.4240 C   0  0  0  0  0  0  0  0  0  0  0  0
   22.1265  -19.2287  -10.5193 C   0  0  0  0  0  0  0  0  0  0  0  0
   25.3935  -21.4941  -10.7977 C   0  0  0  0  0  0  0  0  0  0  0  0
   25.7078  -22.6104  -11.2819 O   0  0  0  0  0  0  0  0  0  0  0  0
   25.4196  -21.3651   -9.4208 O   0  0  0  0  0  0  0  0  0  0  0  0
  2  1  1  0
  3  2  2  0
  4  3  1  0
  5 11  1  0
  5  4  2  0
  6  5  1  0
  7  6  1  0
  7  8  1  6
  9  7  1  0
  9 10  2  0
 11 12  2  0
 12  2  1  0
 13  9  1  0
 14 13  1  0
 15 14  1  0
 16 15  1  0
 16 17  1  0
 17 13  1  0
 17 18  1  1
 19 18  2  0
 20 18  1  0
 21 29  1  0
 21 20  1  0
 21 22  1  6
 23 22  1  0
 24 23  2  0
 25 24  1  0
 26 27  1  0
 26 25  2  0
 27 28  2  0
 28 23  1  0
 29 31  1  0
 30 29  2  0
M  END
$$$$
