YPF.pdb
     RDKit          3D

 31 33  0  0  1  0  0  0  0  0999 V2000
   29.3208  -17.5597  -17.6070 O   0  0  0  0  0  0  0  0  0  0  0  0
   28.3926  -17.5272  -16.5922 C   0  0  0  0  0  0  0  0  0  0  0  0
   27.3291  -16.6372  -16.5996 C   0  0  0  0  0  0  0  0  0  0  0  0
   26.4048  -16.6164  -15.5732 C   0  0  0  0  0  0  0  0  0  0  0  0
   26.5216  -17.4879  -14.5108 C   0  0  0  0  0  0  0  0  0  0  0  0
   25.5789  -17.5237  -13.3841 C   0  0  0  0  0  0  0  0  0  0  0  0
   24.8064  -18.8447  -13.3515 C   0  0  2  0  0  0  0  0  0  0  0  0
   23.4584  -18.5063  -13.7661 N   0  0  0  0  0  0  0  0  0  0  0  0
   24.7986  -19.3438  -11.9603 C   0  0  0  0  0  0  0  0  0  0  0  0
   23.9824  -18.8401  -11.1490 O   0  0  0  0  0  0  0  0  0  0  0  0
   27.5834  -18.3656  -14.5185 C   0  0  0  0  0  0  0  0  0  0  0  0
   28.5152  -18.3995  -15.5353 C   0  0  0  0  0  0  0  0  0  0  0  0
   25.6657  -20.3627  -11.4944 N   0  0  0  0  0  0  0  0  0  0  0  0
   26.5066  -21.1736  -12.3467 C   0  0  0  0  0  0  0  0  0  0  0  0
   26.4178  -22.5310  -11.6346 C   0  0  0  0  0  0  0  0  0  0  0  0
   26.6212  -22.0972  -10.1971 C   0  0  0  0  0  0  0  0  0  0  0  0
   25.8785  -20.7794  -10.1431 C   0  0  1  0  0  0  0  0  0  0  0  0
   26.6901  -19.7586   -9.4049 C   0  0  0  0  0  0  0  0  0  0  0  0
   27.0645  -18.6815   -9.9541 O   0  0  0  0  0  0  0  0  0  0  0  0
   27.0836  -19.9376   -8.0575 N   0  0  0  0  0  0  0  0  0  0  0  0
   28.4622  -19.7984   -7.5951 C   0  0  1  0  0  0  0  0  0  0  0  0
   28.4450  -18.5987   -6.6755 C   0  0  0  0  0  0  0  0  0  0  0  0
   27.8432  -18.8369   -5.3668 C   0  0  0  0  0  0  0  0  0  0  0  0
   28.6562  -19.3205   -4.3540 C   0  0  0  0  0  0  0  0  0  0  0  0
   28.1733  -19.5678   -3.0837 C   0  0  0  0  0  0  0  0  0  0  0  0
   26.8447  -19.3236   -2.8269 C   0  0  0  0  0  0  0  0  0  0  0  0
   26.0117  -18.8422   -3.8149 C   0  0  0  0  0  0  0  0  0  0  0  0
   26.5270  -18.6007   -5.0915 C   0  0  0  0  0  0  0  0  0  0  0  0
   28.8961  -20.9821   -6.8272 C   0  0  0  0  0  0  0  0  0  0  0  0
   28.0627  -21.9001   -6.6218 O   0  0  0  0  0  0  0  0  0  0  0  0
   30.1701  -21.1499   -6.3153 O   0  0  0  0  0  0  0  0  0  0  0  0
  2  1  1  0
  3  2  2  0
  4  3  1  0
  5 11  1  0
  5  4  2  0
  6  5  1  0
  7  6  1  0
  7  8  1  1
  9  7  1  0
  9 10  2  0
 11 12  2  0
 12  2  1  0
 13  9  1  0
 14 13  1  0
 15 14  1  0
 16 15  1  0
 16 17  1  0
 17 13  1  0
 17 18  1  1
 19 18  2  0
 20 18  1  0
 21 29  1  0
 21 20  1  0
 21 22  1  1
 23 22  1  0
 24 23  2  0
 25 24  1  0
 26 27  1  0
 26 25  2  0
 27 28  2  0
 28 23  1  0
 29 31  1  0
 30 29  2  0
M  END
$$$$
