YPF.pdb
     RDKit          3D

 31 33  0  0  1  0  0  0  0  0999 V2000
   14.0781  -16.1201  -16.2974 O   0  0  0  0  0  0  0  0  0  0  0  0
   15.1299  -15.2405  -16.1849 C   0  0  0  0  0  0  0  0  0  0  0  0
   16.3009  -15.5789  -15.5235 C   0  0  0  0  0  0  0  0  0  0  0  0
   17.3488  -14.6848  -15.4187 C   0  0  0  0  0  0  0  0  0  0  0  0
   17.2510  -13.4265  -15.9744 C   0  0  0  0  0  0  0  0  0  0  0  0
   18.3222  -12.4230  -15.9028 C   0  0  0  0  0  0  0  0  0  0  0  0
   19.1861  -12.4455  -17.1661 C   0  0  2  0  0  0  0  0  0  0  0  0
   19.9729  -13.6598  -17.0660 N   0  0  0  0  0  0  0  0  0  0  0  0
   20.0732  -11.2635  -17.1431 C   0  0  0  0  0  0  0  0  0  0  0  0
   21.1775  -11.3562  -16.5515 O   0  0  0  0  0  0  0  0  0  0  0  0
   16.0813  -13.1059  -16.6279 C   0  0  0  0  0  0  0  0  0  0  0  0
   15.0256  -13.9867  -16.7417 C   0  0  0  0  0  0  0  0  0  0  0  0
   19.7412  -10.0296  -17.7551 N   0  0  0  0  0  0  0  0  0  0  0  0
   18.5515   -9.8029  -18.5452 C   0  0  0  0  0  0  0  0  0  0  0  0
   19.0995   -8.8672  -19.6323 C   0  0  0  0  0  0  0  0  0  0  0  0
   19.9000   -7.9022  -18.7814 C   0  0  0  0  0  0  0  0  0  0  0  0
   20.4827   -8.8075  -17.7173 C   0  0  1  0  0  0  0  0  0  0  0  0
   20.3605   -8.1654  -16.3688 C   0  0  0  0  0  0  0  0  0  0  0  0
   19.3349   -8.3270  -15.6449 O   0  0  0  0  0  0  0  0  0  0  0  0
   21.3788   -7.3451  -15.8282 N   0  0  0  0  0  0  0  0  0  0  0  0
   21.2972   -6.7225  -14.5093 C   0  0  1  0  0  0  0  0  0  0  0  0
   22.7313   -6.6007  -14.0470 C   0  0  0  0  0  0  0  0  0  0  0  0
   23.6015   -5.8406  -14.9394 C   0  0  0  0  0  0  0  0  0  0  0  0
   24.3567   -6.5415  -15.8662 C   0  0  0  0  0  0  0  0  0  0  0  0
   25.2011   -5.9039  -16.7540 C   0  0  0  0  0  0  0  0  0  0  0  0
   25.2877   -4.5322  -16.7087 C   0  0  0  0  0  0  0  0  0  0  0  0
   24.5482   -3.8081  -15.7974 C   0  0  0  0  0  0  0  0  0  0  0  0
   23.7015   -4.4793  -14.9107 C   0  0  0  0  0  0  0  0  0  0  0  0
   20.7040   -5.3730  -14.5852 C   0  0  0  0  0  0  0  0  0  0  0  0
   20.5963   -4.8296  -15.7132 O   0  0  0  0  0  0  0  0  0  0  0  0
   20.2541   -4.6610  -13.4879 O   0  0  0  0  0  0  0  0  0  0  0  0
  2  1  1  0
  3  2  2  0
  4  3  1  0
  5 11  1  0
  5  4  2  0
  6  5  1  0
  7  6  1  0
  7  8  1  1
  9  7  1  0
  9 10  2  0
 11 12  2  0
 12  2  1  0
 13  9  1  0
 14 13  1  0
 15 14  1  0
 16 15  1  0
 16 17  1  0
 17 13  1  0
 17 18  1  1
 19 18  2  0
 20 18  1  0
 21 29  1  0
 21 20  1  0
 21 22  1  6
 23 22  1  0
 24 23  2  0
 25 24  1  0
 26 27  1  0
 26 25  2  0
 27 28  2  0
 28 23  1  0
 29 31  1  0
 30 29  2  0
M  END
$$$$
