MQP.pdb
     RDKit          3D

 25 25  0  0  1  0  0  0  0  0999 V2000
    9.6457  -21.1545   22.9324 C   0  0  0  0  0  0  0  0  0  0  0  0
    8.2900  -22.2901   22.4695 S   0  0  0  0  0  0  0  0  0  0  0  0
    6.6806  -21.5001   22.7826 C   0  0  0  0  0  0  0  0  0  0  0  0
    6.8743  -20.1468   23.3790 C   0  0  0  0  0  0  0  0  0  0  0  0
    5.6105  -19.4062   23.6587 C   0  0  2  0  0  0  0  0  0  0  0  0
    4.5524  -19.9636   22.8501 N   0  0  0  0  0  0  0  0  0  0  0  0
    5.7142  -17.9321   23.5002 C   0  0  0  0  0  0  0  0  0  0  0  0
    5.2904  -17.3633   22.4364 O   0  0  0  0  0  0  0  0  0  0  0  0
    7.6531  -13.4536   27.5956 N   0  0  0  0  0  0  0  0  0  0  0  0
    7.7617  -12.8008   26.3591 C   0  0  0  0  0  0  0  0  0  0  0  0
    8.1100  -11.6154   26.2725 O   0  0  0  0  0  0  0  0  0  0  0  0
    7.4483  -13.5570   25.1091 C   0  0  0  0  0  0  0  0  0  0  0  0
    6.9738  -14.9430   25.4090 C   0  0  0  0  0  0  0  0  0  0  0  0
    6.6986  -15.7039   24.1591 C   0  0  2  0  0  0  0  0  0  0  0  0
    6.2674  -17.0626   24.4695 N   0  0  0  0  0  0  0  0  0  0  0  0
    7.7382  -15.5985   23.1539 C   0  0  0  0  0  0  0  0  0  0  0  0
    8.7111  -16.4488   23.1720 O   0  0  0  0  0  0  0  0  0  0  0  0
    7.8388  -14.6476   22.1077 N   0  0  0  0  0  0  0  0  0  0  0  0
    7.1045  -13.4231   21.9921 C   0  0  0  0  0  0  0  0  0  0  0  0
    7.7193  -12.6833   20.7874 C   0  0  0  0  0  0  0  0  0  0  0  0
    8.1364  -13.8803   19.9216 C   0  0  0  0  0  0  0  0  0  0  0  0
    8.7194  -14.7783   20.9732 C   0  0  1  0  0  0  0  0  0  0  0  0
   10.0858  -14.2583   21.2849 C   0  0  0  0  0  0  0  0  0  0  0  0
   10.9543  -14.3043   20.3802 O   0  0  0  0  0  0  0  0  0  0  0  0
   10.4407  -13.7329   22.5093 O   0  0  0  0  0  0  0  0  0  0  0  0
  1  2  1  0
  3  2  1  0
  4  3  1  0
  5  4  1  0
  5  6  1  6
  7  5  1  0
  7  8  2  0
 10  9  1  0
 11 10  2  0
 12 10  1  0
 13 12  1  0
 14 13  1  1
 14 15  1  0
 15  7  1  0
 16 18  1  0
 16 14  1  0
 17 16  2  0
 18 22  1  0
 19 18  1  0
 19 20  1  0
 20 21  1  0
 22 21  1  0
 23 25  1  0
 22 23  1  1
 24 23  2  0
M  END
$$$$
