MQP.pdb
     RDKit          3D

 25 25  0  0  1  0  0  0  0  0999 V2000
    8.2912  -12.2447   28.1357 C   0  0  0  0  0  0  0  0  0  0  0  0
    6.7554  -11.7837   27.2578 S   0  0  0  0  0  0  0  0  0  0  0  0
    5.9846  -13.2635   26.5311 C   0  0  0  0  0  0  0  0  0  0  0  0
    6.8840  -13.8664   25.5053 C   0  0  0  0  0  0  0  0  0  0  0  0
    6.3395  -15.0871   24.8442 C   0  0  2  0  0  0  0  0  0  0  0  0
    6.0571  -16.0799   25.8536 N   0  0  0  0  0  0  0  0  0  0  0  0
    7.1933  -15.6286   23.7548 C   0  0  0  0  0  0  0  0  0  0  0  0
    7.5420  -16.8588   23.7554 O   0  0  0  0  0  0  0  0  0  0  0  0
    8.0626  -12.0900   18.4074 N   0  0  0  0  0  0  0  0  0  0  0  0
    7.8208  -13.4662   18.5278 C   0  0  0  0  0  0  0  0  0  0  0  0
    7.8209  -14.2197   17.5448 O   0  0  0  0  0  0  0  0  0  0  0  0
    7.5553  -14.0408   19.8812 C   0  0  0  0  0  0  0  0  0  0  0  0
    8.8243  -14.4112   20.5802 C   0  0  0  0  0  0  0  0  0  0  0  0
    8.5784  -15.4099   21.6568 C   0  0  2  0  0  0  0  0  0  0  0  0
    7.6767  -14.8653   22.6661 N   0  0  0  0  0  0  0  0  0  0  0  0
    9.7779  -16.0399   22.1732 C   0  0  0  0  0  0  0  0  0  0  0  0
   10.3627  -15.5184   23.2007 O   0  0  0  0  0  0  0  0  0  0  0  0
   10.4266  -17.2009   21.6831 N   0  0  0  0  0  0  0  0  0  0  0  0
   10.0030  -18.0176   20.5851 C   0  0  0  0  0  0  0  0  0  0  0  0
   11.1455  -19.0263   20.3539 C   0  0  0  0  0  0  0  0  0  0  0  0
   11.6632  -19.1796   21.7908 C   0  0  0  0  0  0  0  0  0  0  0  0
   11.6421  -17.7462   22.2350 C   0  0  1  0  0  0  0  0  0  0  0  0
   12.8479  -17.0874   21.6464 C   0  0  0  0  0  0  0  0  0  0  0  0
   12.6886  -16.3637   20.6335 O   0  0  0  0  0  0  0  0  0  0  0  0
   14.1210  -17.2322   22.1558 O   0  0  0  0  0  0  0  0  0  0  0  0
  1  2  1  0
  3  2  1  0
  4  3  1  0
  5  4  1  0
  5  6  1  1
  7  5  1  0
  7  8  2  0
 10  9  1  0
 11 10  2  0
 12 10  1  0
 13 12  1  0
 14 13  1  6
 14 15  1  0
 15  7  1  0
 16 18  1  0
 16 14  1  0
 17 16  2  0
 18 22  1  0
 19 18  1  0
 19 20  1  0
 20 21  1  0
 22 21  1  0
 23 25  1  0
 22 23  1  6
 24 23  2  0
M  END
$$$$
