SRG.pdb
     RDKit          3D

 22 21  0  0  1  0  0  0  0  0999 V2000
   13.7063  -19.2295   19.3648 O   0  0  0  0  0  0  0  0  0  0  0  0
   12.3361  -19.3964   19.6129 C   0  0  0  0  0  0  0  0  0  0  0  0
   11.5635  -18.1427   19.2470 C   0  0  2  0  0  0  0  0  0  0  0  0
   12.3609  -17.4390   18.2392 N   0  0  0  0  0  0  0  0  0  0  0  0
   11.4120  -17.3056   20.4421 C   0  0  0  0  0  0  0  0  0  0  0  0
   12.1890  -16.3260   20.6036 O   0  0  0  0  0  0  0  0  0  0  0  0
    7.9242  -13.9837   18.2863 N   0  0  0  0  0  0  0  0  0  0  0  0
    7.9869  -13.1074   19.3997 C   0  0  0  0  0  0  0  0  0  0  0  0
    7.9981  -11.8397   19.2018 N   0  0  0  0  0  0  0  0  0  0  0  0
    8.0379  -13.5915   20.7426 N   0  0  0  0  0  0  0  0  0  0  0  0
    8.3979  -14.9256   21.0905 C   0  0  0  0  0  0  0  0  0  0  0  0
    8.3019  -15.2088   22.5704 C   0  0  0  0  0  0  0  0  0  0  0  0
    8.7871  -16.6144   22.8158 C   0  0  0  0  0  0  0  0  0  0  0  0
   10.2566  -16.8130   22.6321 C   0  0  2  0  0  0  0  0  0  0  0  0
   10.4118  -17.5949   21.3932 N   0  0  0  0  0  0  0  0  0  0  0  0
   10.9062  -17.5889   23.7052 C   0  0  0  0  0  0  0  0  0  0  0  0
   10.8146  -18.8387   23.7161 O   0  0  0  0  0  0  0  0  0  0  0  0
    8.1330  -11.2016   19.9962 N   0  0  0  0  0  0  0  0  0  0  0  0
   11.6336  -16.9734   24.7300 C   0  0  0  0  0  0  0  0  0  0  0  0
   12.4005  -17.7589   25.7023 C   0  0  0  0  0  0  0  0  0  0  0  0
   11.4628  -18.2985   26.7008 O   0  0  0  0  0  0  0  0  0  0  0  0
   11.9025  -18.9667   27.8282 O   0  0  0  0  0  0  0  0  0  0  0  0
  1  2  1  0
  3  2  1  0
  3  4  1  6
  5  3  1  0
  6  5  2  0
  7  8  1  0
  8 10  1  0
  9  8  2  0
 10 11  1  0
 11 12  1  0
 12 13  1  0
 14 13  1  1
 14 16  1  0
 14 15  1  0
 15  5  1  0
 16 18  1  0
 17 16  2  0
 18 19  1  0
 20 21  1  0
 20 19  1  0
 22 20  2  0
M  END
$$$$
