SRG.pdb
     RDKit          3D

 22 21  0  0  1  0  0  0  0  0999 V2000
    7.6509  -20.3427   22.5493 O   0  0  0  0  0  0  0  0  0  0  0  0
    6.5277  -19.9017   21.8348 C   0  0  0  0  0  0  0  0  0  0  0  0
    6.9358  -19.3012   20.5023 C   0  0  2  0  0  0  0  0  0  0  0  0
    7.4117  -20.4104   19.6717 N   0  0  0  0  0  0  0  0  0  0  0  0
    8.0192  -18.3368   20.7215 C   0  0  0  0  0  0  0  0  0  0  0  0
    9.2138  -18.7285   20.6253 O   0  0  0  0  0  0  0  0  0  0  0  0
    7.6830  -13.3872   14.9846 N   0  0  0  0  0  0  0  0  0  0  0  0
    7.5436  -13.7594   16.3460 C   0  0  0  0  0  0  0  0  0  0  0  0
    7.2721  -14.9787   16.6395 N   0  0  0  0  0  0  0  0  0  0  0  0
    7.6965  -12.8169   17.4083 N   0  0  0  0  0  0  0  0  0  0  0  0
    7.6085  -13.1584   18.7890 C   0  0  0  0  0  0  0  0  0  0  0  0
    8.3499  -14.4247   19.1446 C   0  0  0  0  0  0  0  0  0  0  0  0
    8.1438  -14.6975   20.6124 C   0  0  0  0  0  0  0  0  0  0  0  0
    8.7712  -15.9585   21.1113 C   0  0  2  0  0  0  0  0  0  0  0  0
    7.7257  -16.9936   21.0347 N   0  0  0  0  0  0  0  0  0  0  0  0
    9.2110  -15.9059   22.5181 C   0  0  0  0  0  0  0  0  0  0  0  0
    8.3722  -15.7101   23.4284 O   0  0  0  0  0  0  0  0  0  0  0  0
    7.1546  -15.2513   17.6235 N   0  0  0  0  0  0  0  0  0  0  0  0
   10.5521  -16.0688   22.8831 C   0  0  0  0  0  0  0  0  0  0  0  0
   10.9653  -16.0890   24.2900 C   0  0  0  0  0  0  0  0  0  0  0  0
   12.4152  -16.3388   24.3408 O   0  0  0  0  0  0  0  0  0  0  0  0
   13.0992  -16.4244   25.5390 O   0  0  0  0  0  0  0  0  0  0  0  0
  1  2  1  0
  3  2  1  0
  3  4  1  6
  5  3  1  0
  6  5  2  0
  7  8  1  0
  8 10  1  0
  9  8  2  0
 10 11  1  0
 11 12  1  0
 12 13  1  0
 14 13  1  1
 14 16  1  0
 14 15  1  0
 15  5  1  0
 16 18  1  0
 17 16  2  0
 18 19  1  0
 20 21  1  0
 20 19  1  0
 22 20  2  0
M  END
$$$$
