SRG.pdb
     RDKit          3D

 22 21  0  0  1  0  0  0  0  0999 V2000
   13.0617  -21.5785   23.8603 O   0  0  0  0  0  0  0  0  0  0  0  0
   11.9442  -20.9151   23.3332 C   0  0  0  0  0  0  0  0  0  0  0  0
   10.6792  -21.7216   23.5609 C   0  0  2  0  0  0  0  0  0  0  0  0
    9.6020  -21.0169   22.8612 N   0  0  0  0  0  0  0  0  0  0  0  0
   10.3946  -21.7732   24.9991 C   0  0  0  0  0  0  0  0  0  0  0  0
    9.8037  -20.7994   25.5397 O   0  0  0  0  0  0  0  0  0  0  0  0
   10.2712  -23.6502   31.6499 N   0  0  0  0  0  0  0  0  0  0  0  0
    9.1947  -24.5695   31.7360 C   0  0  0  0  0  0  0  0  0  0  0  0
    9.1331  -25.3733   32.7342 N   0  0  0  0  0  0  0  0  0  0  0  0
    8.1699  -24.6309   30.7428 N   0  0  0  0  0  0  0  0  0  0  0  0
    8.3693  -24.2801   29.3762 C   0  0  0  0  0  0  0  0  0  0  0  0
    9.6748  -24.7840   28.8094 C   0  0  0  0  0  0  0  0  0  0  0  0
    9.7831  -24.3152   27.3811 C   0  0  0  0  0  0  0  0  0  0  0  0
   10.4801  -23.0060   27.2006 C   0  0  2  0  0  0  0  0  0  0  0  0
   10.7773  -22.8958   25.7619 N   0  0  0  0  0  0  0  0  0  0  0  0
   11.7702  -22.8991   27.9076 C   0  0  0  0  0  0  0  0  0  0  0  0
   12.7485  -23.5852   27.5301 O   0  0  0  0  0  0  0  0  0  0  0  0
    8.3556  -26.0423   32.8019 N   0  0  0  0  0  0  0  0  0  0  0  0
   11.9478  -22.0466   29.0030 C   0  0  0  0  0  0  0  0  0  0  0  0
   13.2140  -22.0034   29.7416 C   0  0  0  0  0  0  0  0  0  0  0  0
   13.0915  -20.9952   30.8073 O   0  0  0  0  0  0  0  0  0  0  0  0
   14.1204  -20.7441   31.6958 O   0  0  0  0  0  0  0  0  0  0  0  0
  1  2  1  0
  3  2  1  0
  3  4  1  6
  5  3  1  0
  6  5  2  0
  7  8  1  0
  8 10  1  0
  9  8  2  0
 10 11  1  0
 11 12  1  0
 12 13  1  0
 14 13  1  6
 14 16  1  0
 14 15  1  0
 15  5  1  0
 16 18  1  0
 17 16  2  0
 18 19  1  0
 20 21  1  0
 20 19  1  0
 22 20  2  0
M  END
$$$$
