SRG.pdb
     RDKit          3D

 22 21  0  0  1  0  0  0  0  0999 V2000
    9.6700  -14.9275   16.1605 O   0  0  0  0  0  0  0  0  0  0  0  0
    8.4591  -15.3029   16.7602 C   0  0  0  0  0  0  0  0  0  0  0  0
    8.0008  -14.2539   17.7562 C   0  0  2  0  0  0  0  0  0  0  0  0
    8.0104  -12.9716   17.0476 N   0  0  0  0  0  0  0  0  0  0  0  0
    8.9430  -14.2141   18.8799 C   0  0  0  0  0  0  0  0  0  0  0  0
    9.7659  -13.2617   18.9530 O   0  0  0  0  0  0  0  0  0  0  0  0
    7.4305  -18.7751   25.6277 N   0  0  0  0  0  0  0  0  0  0  0  0
    7.0551  -17.9707   24.5216 C   0  0  0  0  0  0  0  0  0  0  0  0
    6.0205  -18.2913   23.8339 N   0  0  0  0  0  0  0  0  0  0  0  0
    7.7944  -16.8078   24.1453 N   0  0  0  0  0  0  0  0  0  0  0  0
    7.1912  -15.5709   23.7758 C   0  0  0  0  0  0  0  0  0  0  0  0
    7.9027  -14.8679   22.6448 C   0  0  0  0  0  0  0  0  0  0  0  0
    9.0283  -15.7515   22.1718 C   0  0  0  0  0  0  0  0  0  0  0  0
    9.8213  -15.2023   21.0307 C   0  0  2  0  0  0  0  0  0  0  0  0
    8.9258  -15.2267   19.8612 N   0  0  0  0  0  0  0  0  0  0  0  0
   11.0073  -16.0020   20.6711 C   0  0  0  0  0  0  0  0  0  0  0  0
   10.8764  -17.2089   20.3600 O   0  0  0  0  0  0  0  0  0  0  0  0
    5.7090  -17.6806   23.0680 N   0  0  0  0  0  0  0  0  0  0  0  0
   12.2959  -15.4565   20.6638 C   0  0  0  0  0  0  0  0  0  0  0  0
   13.4869  -16.3081   20.5799 C   0  0  0  0  0  0  0  0  0  0  0  0
   14.6582  -15.4422   20.3666 O   0  0  0  0  0  0  0  0  0  0  0  0
   15.9346  -15.9587   20.2437 O   0  0  0  0  0  0  0  0  0  0  0  0
  1  2  1  0
  3  2  1  0
  3  4  1  6
  5  3  1  0
  6  5  2  0
  7  8  1  0
  8 10  1  0
  9  8  2  0
 10 11  1  0
 11 12  1  0
 12 13  1  0
 14 13  1  1
 14 16  1  0
 14 15  1  0
 15  5  1  0
 16 18  1  0
 17 16  2  0
 18 19  1  0
 20 21  1  0
 20 19  1  0
 22 20  2  0
M  END
$$$$
