SRG.pdb
     RDKit          3D

 22 21  0  0  1  0  0  0  0  0999 V2000
    9.7326  -20.2515   20.5946 O   0  0  0  0  0  0  0  0  0  0  0  0
    8.9887  -21.4329   20.7276 C   0  0  0  0  0  0  0  0  0  0  0  0
    7.5405  -21.1256   21.0604 C   0  0  2  0  0  0  0  0  0  0  0  0
    7.1111  -20.0770   20.1316 N   0  0  0  0  0  0  0  0  0  0  0  0
    7.4579  -20.6381   22.4416 C   0  0  0  0  0  0  0  0  0  0  0  0
    7.1954  -19.4218   22.6449 O   0  0  0  0  0  0  0  0  0  0  0  0
    7.5939  -24.4535   29.8833 N   0  0  0  0  0  0  0  0  0  0  0  0
    7.0080  -25.1622   28.8035 C   0  0  0  0  0  0  0  0  0  0  0  0
    6.2568  -26.1729   29.0492 N   0  0  0  0  0  0  0  0  0  0  0  0
    7.2269  -24.7860   27.4430 N   0  0  0  0  0  0  0  0  0  0  0  0
    7.7798  -23.5340   27.0466 C   0  0  0  0  0  0  0  0  0  0  0  0
    6.7598  -22.4237   26.9655 C   0  0  0  0  0  0  0  0  0  0  0  0
    6.5194  -22.1071   25.5117 C   0  0  0  0  0  0  0  0  0  0  0  0
    7.4614  -21.1084   24.9220 C   0  0  2  0  0  0  0  0  0  0  0  0
    7.6690  -21.5188   23.5225 N   0  0  0  0  0  0  0  0  0  0  0  0
    8.7932  -21.0780   25.5552 C   0  0  0  0  0  0  0  0  0  0  0  0
    9.6428  -21.9527   25.2660 O   0  0  0  0  0  0  0  0  0  0  0  0
    5.8483  -26.7049   28.2702 N   0  0  0  0  0  0  0  0  0  0  0  0
    9.1518  -20.0935   26.4828 C   0  0  0  0  0  0  0  0  0  0  0  0
   10.5340  -19.9508   26.9513 C   0  0  0  0  0  0  0  0  0  0  0  0
   10.6460  -20.6092   28.2633 O   0  0  0  0  0  0  0  0  0  0  0  0
   11.8177  -20.5810   28.9962 O   0  0  0  0  0  0  0  0  0  0  0  0
  1  2  1  0
  3  2  1  0
  3  4  1  6
  5  3  1  0
  6  5  2  0
  7  8  1  0
  8 10  1  0
  9  8  2  0
 10 11  1  0
 11 12  1  0
 12 13  1  0
 14 13  1  1
 14 16  1  0
 14 15  1  0
 15  5  1  0
 16 18  1  0
 17 16  2  0
 18 19  1  0
 20 21  1  0
 20 19  1  0
 22 20  2  0
M  END
$$$$
