SRG.pdb
     RDKit          3D

 22 21  0  0  1  0  0  0  0  0999 V2000
    9.2389  -18.3879   27.5252 O   0  0  0  0  0  0  0  0  0  0  0  0
    7.9534  -17.8312   27.4585 C   0  0  0  0  0  0  0  0  0  0  0  0
    7.1863  -18.3824   26.2709 C   0  0  2  0  0  0  0  0  0  0  0  0
    7.3559  -19.8373   26.3020 N   0  0  0  0  0  0  0  0  0  0  0  0
    7.7571  -17.8363   25.0347 C   0  0  0  0  0  0  0  0  0  0  0  0
    8.5014  -18.5702   24.3299 O   0  0  0  0  0  0  0  0  0  0  0  0
    9.8252  -14.5552   19.2240 N   0  0  0  0  0  0  0  0  0  0  0  0
    8.8118  -13.5657   19.1516 C   0  0  0  0  0  0  0  0  0  0  0  0
    9.1223  -12.3731   18.7943 N   0  0  0  0  0  0  0  0  0  0  0  0
    7.4482  -13.8538   19.4647 N   0  0  0  0  0  0  0  0  0  0  0  0
    7.0291  -14.4867   20.6706 C   0  0  0  0  0  0  0  0  0  0  0  0
    7.7027  -13.9370   21.9049 C   0  0  0  0  0  0  0  0  0  0  0  0
    7.2303  -14.7313   23.0955 C   0  0  0  0  0  0  0  0  0  0  0  0
    8.0974  -15.8921   23.4605 C   0  0  2  0  0  0  0  0  0  0  0  0
    7.4754  -16.5110   24.6439 N   0  0  0  0  0  0  0  0  0  0  0  0
    9.4730  -15.5279   23.8483 C   0  0  0  0  0  0  0  0  0  0  0  0
    9.6727  -14.8589   24.8890 O   0  0  0  0  0  0  0  0  0  0  0  0
    8.3970  -11.6454   18.7647 N   0  0  0  0  0  0  0  0  0  0  0  0
   10.5839  -15.9066   23.0862 C   0  0  0  0  0  0  0  0  0  0  0  0
   11.9387  -15.4703   23.4393 C   0  0  0  0  0  0  0  0  0  0  0  0
   12.8751  -16.0294   22.4503 O   0  0  0  0  0  0  0  0  0  0  0  0
   14.2270  -15.7426   22.4822 O   0  0  0  0  0  0  0  0  0  0  0  0
  1  2  1  0
  3  2  1  0
  3  4  1  6
  5  3  1  0
  6  5  2  0
  7  8  1  0
  8 10  1  0
  9  8  2  0
 10 11  1  0
 11 12  1  0
 12 13  1  0
 14 13  1  1
 14 16  1  0
 14 15  1  0
 15  5  1  0
 16 18  1  0
 17 16  2  0
 18 19  1  0
 20 21  1  0
 20 19  1  0
 22 20  2  0
M  END
$$$$
