SRG.pdb
     RDKit          3D

 22 21  0  0  1  0  0  0  0  0999 V2000
    8.8937  -14.9731   18.4184 O   0  0  0  0  0  0  0  0  0  0  0  0
    7.5506  -14.7257   18.7374 C   0  0  0  0  0  0  0  0  0  0  0  0
    7.4242  -13.5159   19.6446 C   0  0  2  0  0  0  0  0  0  0  0  0
    8.0301  -12.3905   18.9284 N   0  0  0  0  0  0  0  0  0  0  0  0
    8.1556  -13.7710   20.8904 C   0  0  0  0  0  0  0  0  0  0  0  0
    9.2827  -13.2314   21.0579 O   0  0  0  0  0  0  0  0  0  0  0  0
   10.7257  -16.0855   27.9741 N   0  0  0  0  0  0  0  0  0  0  0  0
   10.0337  -14.8850   28.2761 C   0  0  0  0  0  0  0  0  0  0  0  0
   10.3676  -14.2117   29.3161 N   0  0  0  0  0  0  0  0  0  0  0  0
    8.9710  -14.3966   27.4560 N   0  0  0  0  0  0  0  0  0  0  0  0
    8.6480  -14.9325   26.1758 C   0  0  0  0  0  0  0  0  0  0  0  0
    7.5185  -14.2057   25.4862 C   0  0  0  0  0  0  0  0  0  0  0  0
    7.2076  -14.9264   24.1995 C   0  0  0  0  0  0  0  0  0  0  0  0
    8.2839  -14.8582   23.1653 C   0  0  2  0  0  0  0  0  0  0  0  0
    7.6036  -14.6068   21.8830 N   0  0  0  0  0  0  0  0  0  0  0  0
    9.0501  -16.1076   22.9990 C   0  0  0  0  0  0  0  0  0  0  0  0
    8.5890  -17.0342   22.2924 O   0  0  0  0  0  0  0  0  0  0  0  0
    9.9170  -13.3070   29.5031 N   0  0  0  0  0  0  0  0  0  0  0  0
   10.2937  -16.3025   23.6102 C   0  0  0  0  0  0  0  0  0  0  0  0
   11.0876  -17.5101   23.3615 C   0  0  0  0  0  0  0  0  0  0  0  0
   12.3802  -17.3616   24.0504 O   0  0  0  0  0  0  0  0  0  0  0  0
   13.3293  -18.3667   24.0455 O   0  0  0  0  0  0  0  0  0  0  0  0
  1  2  1  0
  3  2  1  0
  3  4  1  6
  5  3  1  0
  6  5  2  0
  7  8  1  0
  8 10  1  0
  9  8  2  0
 10 11  1  0
 11 12  1  0
 12 13  1  0
 14 13  1  1
 14 16  1  0
 14 15  1  0
 15  5  1  0
 16 18  1  0
 17 16  2  0
 18 19  1  0
 20 21  1  0
 20 19  1  0
 22 20  2  0
M  END
$$$$
