SRG.pdb
     RDKit          3D

 22 21  0  0  1  0  0  0  0  0999 V2000
   19.3174  -23.5257   28.9179 O   0  0  0  0  0  0  0  0  0  0  0  0
   18.4736  -23.9901   29.9373 C   0  0  0  0  0  0  0  0  0  0  0  0
   17.0558  -23.4880   29.7366 C   0  0  2  0  0  0  0  0  0  0  0  0
   17.0736  -22.6548   28.5316 N   0  0  0  0  0  0  0  0  0  0  0  0
   16.6621  -22.6832   30.8982 C   0  0  0  0  0  0  0  0  0  0  0  0
   16.7967  -21.4307   30.8468 O   0  0  0  0  0  0  0  0  0  0  0  0
   10.0986  -25.4780   32.5873 N   0  0  0  0  0  0  0  0  0  0  0  0
   10.7469  -24.8712   31.4814 C   0  0  0  0  0  0  0  0  0  0  0  0
   10.4905  -25.2894   30.2958 N   0  0  0  0  0  0  0  0  0  0  0  0
   11.6814  -23.8032   31.6439 N   0  0  0  0  0  0  0  0  0  0  0  0
   12.9829  -23.9672   32.2004 C   0  0  0  0  0  0  0  0  0  0  0  0
   13.2408  -23.0862   33.3991 C   0  0  0  0  0  0  0  0  0  0  0  0
   14.6413  -23.3513   33.8888 C   0  0  0  0  0  0  0  0  0  0  0  0
   15.7032  -22.5331   33.2288 C   0  0  2  0  0  0  0  0  0  0  0  0
   16.1415  -23.3039   32.0524 N   0  0  0  0  0  0  0  0  0  0  0  0
   16.9028  -22.3078   34.0570 C   0  0  0  0  0  0  0  0  0  0  0  0
   17.8974  -23.0602   33.9340 O   0  0  0  0  0  0  0  0  0  0  0  0
   10.8841  -24.7947   29.4853 N   0  0  0  0  0  0  0  0  0  0  0  0
   16.9751  -21.2687   34.9914 C   0  0  0  0  0  0  0  0  0  0  0  0
   17.7375  -20.0460   34.7185 C   0  0  0  0  0  0  0  0  0  0  0  0
   19.1615  -20.3263   34.9655 O   0  0  0  0  0  0  0  0  0  0  0  0
   20.1020  -19.3158   35.0383 O   0  0  0  0  0  0  0  0  0  0  0  0
  1  2  1  0
  3  2  1  0
  3  4  1  6
  5  3  1  0
  6  5  2  0
  7  8  1  0
  8 10  1  0
  9  8  2  0
 10 11  1  0
 11 12  1  0
 12 13  1  0
 14 13  1  1
 14 16  1  0
 14 15  1  0
 15  5  1  0
 16 18  1  0
 17 16  2  0
 18 19  1  0
 20 21  1  0
 20 19  1  0
 22 20  2  0
M  END
$$$$
