NSH.pdb
     RDKit          3D

 25 25  0  0  1  0  0  0  0  0999 V2000
   16.8623  -14.6931  -17.8107 N   0  0  0  0  0  0  0  0  0  0  0  0
   16.2560  -13.7949  -16.8950 C   0  0  0  0  0  0  0  0  0  0  0  0
   15.0241  -13.8655  -16.6687 O   0  0  0  0  0  0  0  0  0  0  0  0
   17.1147  -12.7845  -16.2253 C   0  0  0  0  0  0  0  0  0  0  0  0
   18.4836  -12.9372  -16.7970 C   0  0  2  0  0  0  0  0  0  0  0  0
   19.0038  -14.2805  -16.4989 N   0  0  0  0  0  0  0  0  0  0  0  0
   19.4506  -11.8951  -16.4750 C   0  0  0  0  0  0  0  0  0  0  0  0
   20.1625  -12.0802  -15.4223 O   0  0  0  0  0  0  0  0  0  0  0  0
   22.0319  -10.0661  -18.8515 O   0  0  0  0  0  0  0  0  0  0  0  0
   21.1705   -9.1423  -18.2412 C   0  0  0  0  0  0  0  0  0  0  0  0
   20.6147   -9.7582  -16.9389 C   0  0  2  0  0  0  0  0  0  0  0  0
   19.6113  -10.7396  -17.2669 N   0  0  0  0  0  0  0  0  0  0  0  0
   20.1165   -8.6240  -16.1434 C   0  0  0  0  0  0  0  0  0  0  0  0
   19.0147   -8.1080  -16.4539 O   0  0  0  0  0  0  0  0  0  0  0  0
   20.8476   -8.1061  -15.0464 N   0  0  0  0  0  0  0  0  0  0  0  0
   20.4282   -6.9599  -14.2502 C   0  0  1  0  0  0  0  0  0  0  0  0
   20.5100   -7.3704  -12.8052 C   0  0  0  0  0  0  0  0  0  0  0  0
   19.3519   -8.1757  -12.3614 C   0  0  0  0  0  0  0  0  0  0  0  0
   18.3233   -8.6071  -13.1766 C   0  0  0  0  0  0  0  0  0  0  0  0
   17.4875   -9.3048  -12.3898 N   0  0  0  0  0  0  0  0  0  0  0  0
   17.9504   -9.3233  -11.1352 C   0  0  0  0  0  0  0  0  0  0  0  0
   19.0983   -8.6324  -11.0993 N   0  0  0  0  0  0  0  0  0  0  0  0
   21.3742   -5.8239  -14.4519 C   0  0  0  0  0  0  0  0  0  0  0  0
   22.4470   -5.8974  -15.3196 O   0  0  0  0  0  0  0  0  0  0  0  0
   21.1648   -4.7724  -13.7951 O   0  0  0  0  0  0  0  0  0  0  0  0
  1  2  1  0
  2  4  1  0
  3  2  2  0
  5  4  1  0
  5  7  1  0
  5  6  1  1
  7  8  2  0
 10  9  1  0
 11 10  1  6
 11 13  1  0
 12 11  1  0
 12  7  1  0
 13 15  1  0
 14 13  2  0
 15 16  1  0
 16 23  1  0
 16 17  1  1
 18 17  1  0
 19 18  2  0
 20 19  1  0
 21 20  1  0
 21 22  2  0
 22 18  1  0
 23 25  2  0
 23 24  1  0
M  END
$$$$
