NSH.pdb
     RDKit          3D

 25 25  0  0  1  0  0  0  0  0999 V2000
   20.9459  -13.9072  -19.9963 N   0  0  0  0  0  0  0  0  0  0  0  0
   19.6974  -13.2361  -19.9355 C   0  0  0  0  0  0  0  0  0  0  0  0
   18.9301  -13.2462  -20.9280 O   0  0  0  0  0  0  0  0  0  0  0  0
   19.3359  -12.5322  -18.6782 C   0  0  0  0  0  0  0  0  0  0  0  0
   20.4549  -12.7628  -17.7197 C   0  0  2  0  0  0  0  0  0  0  0  0
   20.3197  -14.0913  -17.1025 N   0  0  0  0  0  0  0  0  0  0  0  0
   20.6949  -11.7231  -16.7267 C   0  0  0  0  0  0  0  0  0  0  0  0
   19.6567  -11.2165  -16.1658 O   0  0  0  0  0  0  0  0  0  0  0  0
   24.4663  -10.0333  -16.1696 O   0  0  0  0  0  0  0  0  0  0  0  0
   23.6607  -10.1466  -15.0267 C   0  0  0  0  0  0  0  0  0  0  0  0
   22.1794  -10.1977  -15.4593 C   0  0  2  0  0  0  0  0  0  0  0  0
   21.9914  -11.2858  -16.3858 N   0  0  0  0  0  0  0  0  0  0  0  0
   21.8817   -8.8681  -16.0169 C   0  0  0  0  0  0  0  0  0  0  0  0
   21.9873   -8.6971  -17.2563 O   0  0  0  0  0  0  0  0  0  0  0  0
   21.4841   -7.7872  -15.1924 N   0  0  0  0  0  0  0  0  0  0  0  0
   21.1694   -6.4528  -15.6862 C   0  0  1  0  0  0  0  0  0  0  0  0
   19.6731   -6.3042  -15.6386 C   0  0  0  0  0  0  0  0  0  0  0  0
   19.2004   -4.9982  -16.1461 C   0  0  0  0  0  0  0  0  0  0  0  0
   19.9044   -4.1759  -17.0046 C   0  0  0  0  0  0  0  0  0  0  0  0
   19.1260   -3.1024  -17.2195 N   0  0  0  0  0  0  0  0  0  0  0  0
   17.9820   -3.2242  -16.5375 C   0  0  0  0  0  0  0  0  0  0  0  0
   18.0107   -4.3862  -15.8704 N   0  0  0  0  0  0  0  0  0  0  0  0
   21.7553   -5.4216  -14.7810 C   0  0  0  0  0  0  0  0  0  0  0  0
   22.0275   -4.1339  -15.2019 O   0  0  0  0  0  0  0  0  0  0  0  0
   22.0015   -5.7635  -13.5964 O   0  0  0  0  0  0  0  0  0  0  0  0
  1  2  1  0
  2  4  1  0
  3  2  2  0
  5  4  1  0
  5  7  1  0
  5  6  1  1
  7  8  2  0
 10  9  1  0
 11 10  1  6
 11 13  1  0
 12 11  1  0
 12  7  1  0
 13 15  1  0
 14 13  2  0
 15 16  1  0
 16 23  1  0
 16 17  1  1
 18 17  1  0
 19 18  2  0
 20 19  1  0
 21 20  1  0
 21 22  2  0
 22 18  1  0
 23 25  2  0
 23 24  1  0
M  END
$$$$
