NSH.pdb
     RDKit          3D

 25 25  0  0  1  0  0  0  0  0999 V2000
   27.2767  -27.8877  -19.2797 N   0  0  0  0  0  0  0  0  0  0  0  0
   28.4375  -27.6300  -18.5059 C   0  0  0  0  0  0  0  0  0  0  0  0
   29.5289  -28.1669  -18.8130 O   0  0  0  0  0  0  0  0  0  0  0  0
   28.3185  -26.7188  -17.3386 C   0  0  0  0  0  0  0  0  0  0  0  0
   28.9180  -25.4160  -17.7477 C   0  0  2  0  0  0  0  0  0  0  0  0
   30.3056  -25.3303  -17.2667 N   0  0  0  0  0  0  0  0  0  0  0  0
   28.1570  -24.2137  -17.4311 C   0  0  0  0  0  0  0  0  0  0  0  0
   27.4493  -24.2495  -16.3601 O   0  0  0  0  0  0  0  0  0  0  0  0
   29.1698  -20.2422  -17.6821 O   0  0  0  0  0  0  0  0  0  0  0  0
   28.1037  -20.6420  -18.5015 C   0  0  0  0  0  0  0  0  0  0  0  0
   27.4338  -21.8876  -17.8821 C   0  0  2  0  0  0  0  0  0  0  0  0
   28.1861  -23.0625  -18.2449 N   0  0  0  0  0  0  0  0  0  0  0  0
   26.0465  -21.8798  -18.3748 C   0  0  0  0  0  0  0  0  0  0  0  0
   25.8273  -22.2196  -19.5635 O   0  0  0  0  0  0  0  0  0  0  0  0
   24.9640  -21.4990  -17.5445 N   0  0  0  0  0  0  0  0  0  0  0  0
   23.5728  -21.4643  -17.9768 C   0  0  1  0  0  0  0  0  0  0  0  0
   22.8233  -22.4638  -17.1386 C   0  0  0  0  0  0  0  0  0  0  0  0
   23.0020  -23.8588  -17.5956 C   0  0  0  0  0  0  0  0  0  0  0  0
   23.7324  -24.2461  -18.7025 C   0  0  0  0  0  0  0  0  0  0  0  0
   23.6463  -25.5855  -18.7597 N   0  0  0  0  0  0  0  0  0  0  0  0
   22.9013  -26.0387  -17.7457 C   0  0  0  0  0  0  0  0  0  0  0  0
   22.4959  -24.9885  -17.0183 N   0  0  0  0  0  0  0  0  0  0  0  0
   22.9873  -20.1187  -17.7074 C   0  0  0  0  0  0  0  0  0  0  0  0
   21.7032  -19.7790  -18.0882 O   0  0  0  0  0  0  0  0  0  0  0  0
   23.7109  -19.2812  -17.1108 O   0  0  0  0  0  0  0  0  0  0  0  0
  1  2  1  0
  2  4  1  0
  3  2  2  0
  5  4  1  0
  5  7  1  0
  5  6  1  1
  7  8  2  0
 10  9  1  0
 11 10  1  6
 11 13  1  0
 12 11  1  0
 12  7  1  0
 13 15  1  0
 14 13  2  0
 15 16  1  0
 16 23  1  0
 16 17  1  1
 18 17  1  0
 19 18  2  0
 20 19  1  0
 21 20  1  0
 21 22  2  0
 22 18  1  0
 23 25  2  0
 23 24  1  0
M  END
$$$$
