NSH.pdb
     RDKit          3D

 25 25  0  0  1  0  0  0  0  0999 V2000
   27.3421  -13.0444  -20.1644 N   0  0  0  0  0  0  0  0  0  0  0  0
   26.8708  -11.9688  -19.3684 C   0  0  0  0  0  0  0  0  0  0  0  0
   25.6568  -11.9013  -19.0594 O   0  0  0  0  0  0  0  0  0  0  0  0
   27.8470  -10.9420  -18.9214 C   0  0  0  0  0  0  0  0  0  0  0  0
   29.1575  -11.2980  -19.5378 C   0  0  2  0  0  0  0  0  0  0  0  0
   29.7010  -12.5052  -18.8965 N   0  0  0  0  0  0  0  0  0  0  0  0
   30.1514  -10.2356  -19.6290 C   0  0  0  0  0  0  0  0  0  0  0  0
   31.2132  -10.3827  -18.9219 O   0  0  0  0  0  0  0  0  0  0  0  0
   30.0211   -7.6946  -22.7069 O   0  0  0  0  0  0  0  0  0  0  0  0
   31.2581   -7.7956  -22.0531 C   0  0  0  0  0  0  0  0  0  0  0  0
   31.0136   -8.1084  -20.5610 C   0  0  2  0  0  0  0  0  0  0  0  0
   29.9743   -9.1006  -20.4468 N   0  0  0  0  0  0  0  0  0  0  0  0
   30.6912   -6.8172  -19.9314 C   0  0  0  0  0  0  0  0  0  0  0  0
   29.4854   -6.5265  -19.7360 O   0  0  0  0  0  0  0  0  0  0  0  0
   31.7028   -5.9037  -19.5465 N   0  0  0  0  0  0  0  0  0  0  0  0
   31.4453   -4.6047  -18.9383 C   0  0  1  0  0  0  0  0  0  0  0  0
   32.7293   -4.1533  -18.2971 C   0  0  0  0  0  0  0  0  0  0  0  0
   33.0748   -4.9204  -17.0810 C   0  0  0  0  0  0  0  0  0  0  0  0
   32.2797   -5.8881  -16.4978 C   0  0  0  0  0  0  0  0  0  0  0  0
   32.9577   -6.3373  -15.4287 N   0  0  0  0  0  0  0  0  0  0  0  0
   34.1264   -5.6954  -15.3265 C   0  0  0  0  0  0  0  0  0  0  0  0
   34.2153   -4.8186  -16.3363 N   0  0  0  0  0  0  0  0  0  0  0  0
   31.0910   -3.6086  -19.9912 C   0  0  0  0  0  0  0  0  0  0  0  0
   30.5477   -2.3741  -19.6912 O   0  0  0  0  0  0  0  0  0  0  0  0
   31.3046   -3.9302  -21.1878 O   0  0  0  0  0  0  0  0  0  0  0  0
  1  2  1  0
  2  4  1  0
  3  2  2  0
  5  4  1  0
  5  7  1  0
  5  6  1  1
  7  8  2  0
 10  9  1  0
 11 10  1  6
 11 13  1  0
 12 11  1  0
 12  7  1  0
 13 15  1  0
 14 13  2  0
 15 16  1  0
 16 23  1  0
 16 17  1  6
 18 17  1  0
 19 18  2  0
 20 19  1  0
 21 20  1  0
 21 22  2  0
 22 18  1  0
 23 25  2  0
 23 24  1  0
M  END
$$$$
