NSH.pdb
     RDKit          3D

 25 25  0  0  1  0  0  0  0  0999 V2000
   18.1378  -16.2309  -15.2585 N   0  0  0  0  0  0  0  0  0  0  0  0
   17.6986  -14.8837  -15.1882 C   0  0  0  0  0  0  0  0  0  0  0  0
   16.7963  -14.5589  -14.3795 O   0  0  0  0  0  0  0  0  0  0  0  0
   18.3322  -13.8878  -16.0902 C   0  0  0  0  0  0  0  0  0  0  0  0
   17.2869  -12.8744  -16.4132 C   0  0  2  0  0  0  0  0  0  0  0  0
   16.2621  -13.4719  -17.2831 N   0  0  0  0  0  0  0  0  0  0  0  0
   17.7513  -11.5899  -16.9221 C   0  0  0  0  0  0  0  0  0  0  0  0
   18.3156  -11.6012  -18.0757 O   0  0  0  0  0  0  0  0  0  0  0  0
   16.0095   -8.1454  -15.9292 O   0  0  0  0  0  0  0  0  0  0  0  0
   16.7989   -8.2624  -17.0829 C   0  0  0  0  0  0  0  0  0  0  0  0
   18.0323   -9.1338  -16.7612 C   0  0  2  0  0  0  0  0  0  0  0  0
   17.5959  -10.3882  -16.2009 N   0  0  0  0  0  0  0  0  0  0  0  0
   18.8670   -8.3241  -15.8584 C   0  0  0  0  0  0  0  0  0  0  0  0
   18.6093   -8.3330  -14.6295 O   0  0  0  0  0  0  0  0  0  0  0  0
   19.9436   -7.5412  -16.3422 N   0  0  0  0  0  0  0  0  0  0  0  0
   20.7649   -6.6731  -15.5082 C   0  0  1  0  0  0  0  0  0  0  0  0
   22.1996   -6.9257  -15.8840 C   0  0  0  0  0  0  0  0  0  0  0  0
   22.6430   -8.3069  -15.5971 C   0  0  0  0  0  0  0  0  0  0  0  0
   23.0437   -9.2273  -16.5463 C   0  0  0  0  0  0  0  0  0  0  0  0
   23.3679  -10.3440  -15.8736 N   0  0  0  0  0  0  0  0  0  0  0  0
   23.1868  -10.1556  -14.5621 C   0  0  0  0  0  0  0  0  0  0  0  0
   22.7404   -8.9060  -14.3735 N   0  0  0  0  0  0  0  0  0  0  0  0
   20.4640   -5.2428  -15.8077 C   0  0  0  0  0  0  0  0  0  0  0  0
   21.0259   -4.2016  -15.0939 O   0  0  0  0  0  0  0  0  0  0  0  0
   19.6657   -5.0039  -16.7493 O   0  0  0  0  0  0  0  0  0  0  0  0
  1  2  1  0
  2  4  1  0
  3  2  2  0
  5  4  1  0
  5  7  1  0
  5  6  1  6
  7  8  2  0
 10  9  1  0
 11 10  1  1
 11 13  1  0
 12 11  1  0
 12  7  1  0
 13 15  1  0
 14 13  2  0
 15 16  1  0
 16 23  1  0
 16 17  1  6
 18 17  1  0
 19 18  2  0
 20 19  1  0
 21 20  1  0
 21 22  2  0
 22 18  1  0
 23 25  2  0
 23 24  1  0
M  END
$$$$
