NSH.pdb
     RDKit          3D

 25 25  0  0  1  0  0  0  0  0999 V2000
   28.5218  -19.8801  -19.2858 N   0  0  0  0  0  0  0  0  0  0  0  0
   27.6284  -18.9190  -19.8252 C   0  0  0  0  0  0  0  0  0  0  0  0
   27.5312  -18.7802  -21.0683 O   0  0  0  0  0  0  0  0  0  0  0  0
   26.8263  -18.0958  -18.8841 C   0  0  0  0  0  0  0  0  0  0  0  0
   25.4529  -18.6769  -18.8680 C   0  0  2  0  0  0  0  0  0  0  0  0
   24.7879  -18.4260  -20.1560 N   0  0  0  0  0  0  0  0  0  0  0  0
   24.6025  -18.3232  -17.7383 C   0  0  0  0  0  0  0  0  0  0  0  0
   25.1786  -17.7450  -16.7468 O   0  0  0  0  0  0  0  0  0  0  0  0
   20.4887  -18.4977  -17.9594 O   0  0  0  0  0  0  0  0  0  0  0  0
   21.0853  -17.6523  -17.0121 C   0  0  0  0  0  0  0  0  0  0  0  0
   22.4247  -18.2722  -16.5585 C   0  0  2  0  0  0  0  0  0  0  0  0
   23.2183  -18.5918  -17.7186 N   0  0  0  0  0  0  0  0  0  0  0  0
   22.0647  -19.4354  -15.7309 C   0  0  0  0  0  0  0  0  0  0  0  0
   22.0911  -20.5773  -16.2524 O   0  0  0  0  0  0  0  0  0  0  0  0
   21.6912  -19.2949  -14.3719 N   0  0  0  0  0  0  0  0  0  0  0  0
   21.2822  -20.4012  -13.5161 C   0  0  1  0  0  0  0  0  0  0  0  0
   21.9261  -20.1846  -12.1738 C   0  0  0  0  0  0  0  0  0  0  0  0
   23.3097  -20.7013  -12.1006 C   0  0  0  0  0  0  0  0  0  0  0  0
   23.9595  -21.3819  -13.1122 C   0  0  0  0  0  0  0  0  0  0  0  0
   25.1871  -21.6655  -12.6461 N   0  0  0  0  0  0  0  0  0  0  0  0
   25.3231  -21.1943  -11.4019 C   0  0  0  0  0  0  0  0  0  0  0  0
   24.1760  -20.5973  -11.0497 N   0  0  0  0  0  0  0  0  0  0  0  0
   19.8036  -20.3745  -13.3180 C   0  0  0  0  0  0  0  0  0  0  0  0
   19.1178  -21.4100  -12.7124 O   0  0  0  0  0  0  0  0  0  0  0  0
   19.1828  -19.3605  -13.7270 O   0  0  0  0  0  0  0  0  0  0  0  0
  1  2  1  0
  2  4  1  0
  3  2  2  0
  5  4  1  0
  5  7  1  0
  5  6  1  6
  7  8  2  0
 10  9  1  0
 11 10  1  6
 11 13  1  0
 12 11  1  0
 12  7  1  0
 13 15  1  0
 14 13  2  0
 15 16  1  0
 16 23  1  0
 16 17  1  1
 18 17  1  0
 19 18  2  0
 20 19  1  0
 21 20  1  0
 21 22  2  0
 22 18  1  0
 23 25  2  0
 23 24  1  0
M  END
$$$$
