NSH.pdb
     RDKit          3D

 25 25  0  0  1  0  0  0  0  0999 V2000
   28.8059  -18.0885  -16.9368 N   0  0  0  0  0  0  0  0  0  0  0  0
   28.4477  -19.3234  -17.5363 C   0  0  0  0  0  0  0  0  0  0  0  0
   29.1412  -19.7922  -18.4707 O   0  0  0  0  0  0  0  0  0  0  0  0
   27.2435  -20.0302  -17.0292 C   0  0  0  0  0  0  0  0  0  0  0  0
   27.5451  -20.4418  -15.6279 C   0  0  2  0  0  0  0  0  0  0  0  0
   28.6548  -21.4074  -15.6175 N   0  0  0  0  0  0  0  0  0  0  0  0
   26.4205  -20.8963  -14.8196 C   0  0  0  0  0  0  0  0  0  0  0  0
   25.3014  -21.0500  -15.4305 O   0  0  0  0  0  0  0  0  0  0  0  0
   26.1923  -20.2860  -10.7353 O   0  0  0  0  0  0  0  0  0  0  0  0
   25.7708  -21.5544  -11.1614 C   0  0  0  0  0  0  0  0  0  0  0  0
   25.3726  -21.4771  -12.6512 C   0  0  2  0  0  0  0  0  0  0  0  0
   26.5372  -21.1603  -13.4394 N   0  0  0  0  0  0  0  0  0  0  0  0
   24.2991  -20.4723  -12.7245 C   0  0  0  0  0  0  0  0  0  0  0  0
   24.6125  -19.2654  -12.8714 O   0  0  0  0  0  0  0  0  0  0  0  0
   22.9330  -20.8347  -12.6321 N   0  0  0  0  0  0  0  0  0  0  0  0
   21.8384  -20.0536  -13.1938 C   0  0  1  0  0  0  0  0  0  0  0  0
   22.0444  -20.0094  -14.6834 C   0  0  0  0  0  0  0  0  0  0  0  0
   21.0340  -19.1912  -15.3878 C   0  0  0  0  0  0  0  0  0  0  0  0
   20.0039  -18.5008  -14.7787 C   0  0  0  0  0  0  0  0  0  0  0  0
   19.3267  -17.8893  -15.7647 N   0  0  0  0  0  0  0  0  0  0  0  0
   19.8882  -18.1692  -16.9458 C   0  0  0  0  0  0  0  0  0  0  0  0
   20.9413  -18.9702  -16.7326 N   0  0  0  0  0  0  0  0  0  0  0  0
   20.5378  -20.7380  -12.9372 C   0  0  0  0  0  0  0  0  0  0  0  0
   20.4012  -22.1122  -12.9836 O   0  0  0  0  0  0  0  0  0  0  0  0
   19.5448  -20.0139  -12.6717 O   0  0  0  0  0  0  0  0  0  0  0  0
  1  2  1  0
  2  4  1  0
  3  2  2  0
  5  4  1  0
  5  7  1  0
  5  6  1  6
  7  8  2  0
 10  9  1  0
 11 10  1  1
 11 13  1  0
 12 11  1  0
 12  7  1  0
 13 15  1  0
 14 13  2  0
 15 16  1  0
 16 23  1  0
 16 17  1  6
 18 17  1  0
 19 18  2  0
 20 19  1  0
 21 20  1  0
 21 22  2  0
 22 18  1  0
 23 25  2  0
 23 24  1  0
M  END
$$$$
