NSH.pdb
     RDKit          3D

 25 25  0  0  1  0  0  0  0  0999 V2000
   15.1154  -16.9298  -15.8626 N   0  0  0  0  0  0  0  0  0  0  0  0
   14.3491  -15.7429  -15.9932 C   0  0  0  0  0  0  0  0  0  0  0  0
   13.1651  -15.8021  -16.4037 O   0  0  0  0  0  0  0  0  0  0  0  0
   14.9859  -14.4496  -15.6345 C   0  0  0  0  0  0  0  0  0  0  0  0
   16.4024  -14.7520  -15.2794 C   0  0  2  0  0  0  0  0  0  0  0  0
   16.4457  -15.6609  -14.1235 N   0  0  0  0  0  0  0  0  0  0  0  0
   17.2953  -13.6125  -15.1096 C   0  0  0  0  0  0  0  0  0  0  0  0
   17.1713  -12.9454  -14.0192 O   0  0  0  0  0  0  0  0  0  0  0  0
   21.1728  -13.3476  -16.1803 O   0  0  0  0  0  0  0  0  0  0  0  0
   20.4045  -12.3023  -16.7144 C   0  0  0  0  0  0  0  0  0  0  0  0
   19.1309  -12.1274  -15.8592 C   0  0  2  0  0  0  0  0  0  0  0  0
   18.2521  -13.2485  -16.0793 N   0  0  0  0  0  0  0  0  0  0  0  0
   18.5641  -10.8264  -16.2513 C   0  0  0  0  0  0  0  0  0  0  0  0
   17.7756  -10.7822  -17.2274 O   0  0  0  0  0  0  0  0  0  0  0  0
   18.8877   -9.6343  -15.5582 N   0  0  0  0  0  0  0  0  0  0  0  0
   18.3396   -8.3236  -15.8826 C   0  0  1  0  0  0  0  0  0  0  0  0
   17.0314   -8.1968  -15.1507 C   0  0  0  0  0  0  0  0  0  0  0  0
   16.3719   -6.8896  -15.3574 C   0  0  0  0  0  0  0  0  0  0  0  0
   15.9905   -6.3754  -16.5817 C   0  0  0  0  0  0  0  0  0  0  0  0
   15.4286   -5.1816  -16.3294 N   0  0  0  0  0  0  0  0  0  0  0  0
   15.4458   -4.9378  -15.0146 C   0  0  0  0  0  0  0  0  0  0  0  0
   16.0235   -5.9795  -14.4002 N   0  0  0  0  0  0  0  0  0  0  0  0
   19.2461   -7.2514  -15.3777 C   0  0  0  0  0  0  0  0  0  0  0  0
   19.0007   -5.9093  -15.5961 O   0  0  0  0  0  0  0  0  0  0  0  0
   20.2643   -7.6100  -14.7331 O   0  0  0  0  0  0  0  0  0  0  0  0
  1  2  1  0
  2  4  1  0
  3  2  2  0
  5  4  1  0
  5  7  1  0
  5  6  1  1
  7  8  2  0
 10  9  1  0
 11 10  1  6
 11 13  1  0
 12 11  1  0
 12  7  1  0
 13 15  1  0
 14 13  2  0
 15 16  1  0
 16 23  1  0
 16 17  1  1
 18 17  1  0
 19 18  2  0
 20 19  1  0
 21 20  1  0
 21 22  2  0
 22 18  1  0
 23 25  2  0
 23 24  1  0
M  END
$$$$
