NSH.pdb
     RDKit          3D

 25 25  0  0  1  0  0  0  0  0999 V2000
   17.1769  -10.9535  -20.4861 N   0  0  0  0  0  0  0  0  0  0  0  0
   16.5851  -11.1625  -19.2137 C   0  0  0  0  0  0  0  0  0  0  0  0
   15.5962  -11.9259  -19.0990 O   0  0  0  0  0  0  0  0  0  0  0  0
   17.1658  -10.4579  -18.0419 C   0  0  0  0  0  0  0  0  0  0  0  0
   18.4669  -11.1223  -17.7424 C   0  0  2  0  0  0  0  0  0  0  0  0
   18.2378  -12.5270  -17.3702 N   0  0  0  0  0  0  0  0  0  0  0  0
   19.3488  -10.4461  -16.7991 C   0  0  0  0  0  0  0  0  0  0  0  0
   18.9773  -10.4424  -15.5698 O   0  0  0  0  0  0  0  0  0  0  0  0
   23.1314   -9.1417  -17.8431 O   0  0  0  0  0  0  0  0  0  0  0  0
   22.8341   -9.3588  -16.4895 C   0  0  0  0  0  0  0  0  0  0  0  0
   21.3357   -9.0715  -16.2519 C   0  0  2  0  0  0  0  0  0  0  0  0
   20.5508   -9.8256  -17.1970 N   0  0  0  0  0  0  0  0  0  0  0  0
   21.1872   -7.6115  -16.3685 C   0  0  0  0  0  0  0  0  0  0  0  0
   21.0171   -7.1122  -17.5080 O   0  0  0  0  0  0  0  0  0  0  0  0
   21.2334   -6.7656  -15.2334 N   0  0  0  0  0  0  0  0  0  0  0  0
   21.1068   -5.3149  -15.2871 C   0  0  1  0  0  0  0  0  0  0  0  0
   19.7944   -4.9605  -14.6428 C   0  0  0  0  0  0  0  0  0  0  0  0
   18.6215   -5.3718  -15.4440 C   0  0  0  0  0  0  0  0  0  0  0  0
   18.3678   -4.9776  -16.7436 C   0  0  0  0  0  0  0  0  0  0  0  0
   17.2174   -5.5732  -17.0992 N   0  0  0  0  0  0  0  0  0  0  0  0
   16.7533   -6.3116  -16.0853 C   0  0  0  0  0  0  0  0  0  0  0  0
   17.6058   -6.1991  -15.0572 N   0  0  0  0  0  0  0  0  0  0  0  0
   22.1912   -4.6772  -14.4850 C   0  0  0  0  0  0  0  0  0  0  0  0
   22.3709   -3.3080  -14.4370 O   0  0  0  0  0  0  0  0  0  0  0  0
   22.9564   -5.4370  -13.8384 O   0  0  0  0  0  0  0  0  0  0  0  0
  1  2  1  0
  2  4  1  0
  3  2  2  0
  5  4  1  0
  5  7  1  0
  5  6  1  1
  7  8  2  0
 10  9  1  0
 11 10  1  6
 11 13  1  0
 12 11  1  0
 12  7  1  0
 13 15  1  0
 14 13  2  0
 15 16  1  0
 16 23  1  0
 16 17  1  1
 18 17  1  0
 19 18  2  0
 20 19  1  0
 21 20  1  0
 21 22  2  0
 22 18  1  0
 23 25  2  0
 23 24  1  0
M  END
$$$$
