NSH.pdb
     RDKit          3D

 25 25  0  0  1  0  0  0  0  0999 V2000
   12.0703  -14.5162  -14.3887 N   0  0  0  0  0  0  0  0  0  0  0  0
   13.2505  -14.4757  -13.6025 C   0  0  0  0  0  0  0  0  0  0  0  0
   13.4017  -15.2839  -12.6550 O   0  0  0  0  0  0  0  0  0  0  0  0
   14.2833  -13.4605  -13.9332 C   0  0  0  0  0  0  0  0  0  0  0  0
   13.7540  -12.6666  -15.0793 C   0  0  2  0  0  0  0  0  0  0  0  0
   13.7370  -13.4937  -16.2958 N   0  0  0  0  0  0  0  0  0  0  0  0
   14.3650  -11.3643  -15.3151 C   0  0  0  0  0  0  0  0  0  0  0  0
   15.4357  -11.3541  -16.0241 O   0  0  0  0  0  0  0  0  0  0  0  0
   14.1560   -6.5377  -14.7994 O   0  0  0  0  0  0  0  0  0  0  0  0
   13.6564   -7.7770  -14.3723 C   0  0  0  0  0  0  0  0  0  0  0  0
   14.4728   -8.9047  -15.0398 C   0  0  2  0  0  0  0  0  0  0  0  0
   13.8220  -10.1686  -14.8015 N   0  0  0  0  0  0  0  0  0  0  0  0
   15.8278   -8.8040  -14.4730 C   0  0  0  0  0  0  0  0  0  0  0  0
   16.1370   -9.5530  -13.5139 O   0  0  0  0  0  0  0  0  0  0  0  0
   16.7808   -7.8874  -14.9809 N   0  0  0  0  0  0  0  0  0  0  0  0
   18.1610   -7.8019  -14.5213 C   0  0  1  0  0  0  0  0  0  0  0  0
   18.8380   -9.0878  -14.9103 C   0  0  0  0  0  0  0  0  0  0  0  0
   20.2748   -9.1189  -14.5621 C   0  0  0  0  0  0  0  0  0  0  0  0
   20.8191   -8.6408  -13.3856 C   0  0  0  0  0  0  0  0  0  0  0  0
   22.1413   -8.8638  -13.4654 N   0  0  0  0  0  0  0  0  0  0  0  0
   22.4355   -9.4535  -14.6291 C   0  0  0  0  0  0  0  0  0  0  0  0
   21.2974   -9.6183  -15.3176 N   0  0  0  0  0  0  0  0  0  0  0  0
   18.8654   -6.6896  -15.2232 C   0  0  0  0  0  0  0  0  0  0  0  0
   19.9527   -6.0371  -14.6744 O   0  0  0  0  0  0  0  0  0  0  0  0
   18.4327   -6.3530  -16.3548 O   0  0  0  0  0  0  0  0  0  0  0  0
  1  2  1  0
  2  4  1  0
  3  2  2  0
  5  4  1  0
  5  7  1  0
  5  6  1  6
  7  8  2  0
 10  9  1  0
 11 10  1  1
 11 13  1  0
 12 11  1  0
 12  7  1  0
 13 15  1  0
 14 13  2  0
 15 16  1  0
 16 23  1  0
 16 17  1  6
 18 17  1  0
 19 18  2  0
 20 19  1  0
 21 20  1  0
 21 22  2  0
 22 18  1  0
 23 25  2  0
 23 24  1  0
M  END
$$$$
