SIV.pdb
     RDKit          3D

 22 21  0  0  1  0  0  0  0  0999 V2000
    6.4714  -17.6743   20.0294 O   0  0  0  0  0  0  0  0  0  0  0  0
    6.6308  -17.0438   21.2613 C   0  0  0  0  0  0  0  0  0  0  0  0
    7.1339  -15.6301   21.0603 C   0  0  2  0  0  0  0  0  0  0  0  0
    7.8456  -15.5642   19.8146 N   0  0  0  0  0  0  0  0  0  0  0  0
    7.9566  -15.1671   22.1947 C   0  0  0  0  0  0  0  0  0  0  0  0
    9.2131  -15.1586   22.0724 O   0  0  0  0  0  0  0  0  0  0  0  0
    7.5301  -11.9337   27.4183 C   0  0  0  0  0  0  0  0  0  0  0  0
    8.2773  -12.8811   26.5089 C   0  0  0  0  0  0  0  0  0  0  0  0
    7.3822  -13.3924   25.3895 C   0  0  2  0  0  0  0  0  0  0  0  0
    6.2069  -14.1347   25.9215 C   0  0  0  0  0  0  0  0  0  0  0  0
    8.2549  -14.3015   24.5311 C   0  0  2  0  0  0  0  0  0  0  0  0
    7.3854  -14.7385   23.3984 N   0  0  0  0  0  0  0  0  0  0  0  0
    8.6212  -15.4851   25.3287 C   0  0  0  0  0  0  0  0  0  0  0  0
    7.6852  -16.3039   25.6289 O   0  0  0  0  0  0  0  0  0  0  0  0
   11.8974  -18.9473   26.2458 C   0  0  0  0  0  0  0  0  0  0  0  0
   11.4894  -17.6443   25.6341 C   0  0  1  0  0  0  0  0  0  0  0  0
   11.2921  -17.7072   24.1518 C   0  0  0  0  0  0  0  0  0  0  0  0
   10.2064  -17.1109   26.2830 C   0  0  2  0  0  0  0  0  0  0  0  0
    9.9155  -15.7795   25.7748 N   0  0  0  0  0  0  0  0  0  0  0  0
   10.3309  -17.0508   27.7373 C   0  0  0  0  0  0  0  0  0  0  0  0
   10.0827  -18.1540   28.5703 O   0  0  0  0  0  0  0  0  0  0  0  0
   10.6684  -16.0008   28.3135 O   0  0  0  0  0  0  0  0  0  0  0  0
  1  2  1  0
  3  2  1  0
  3  4  1  6
  5  3  1  0
  6  5  2  0
  7  8  1  0
  8  9  1  0
  9 11  1  0
  9 10  1  1
 11 12  1  6
 12  5  1  0
 13 11  1  0
 13 19  1  0
 14 13  2  0
 16 15  1  1
 17 16  1  0
 18 20  1  0
 18 16  1  0
 18 19  1  6
 20 22  2  0
 20 21  1  0
M  END
$$$$
