SIV.pdb
     RDKit          3D

 22 21  0  0  1  0  0  0  0  0999 V2000
    7.0781  -17.4303   21.3957 O   0  0  0  0  0  0  0  0  0  0  0  0
    6.0779  -16.4609   21.4150 C   0  0  0  0  0  0  0  0  0  0  0  0
    6.6937  -15.0782   21.3818 C   0  0  2  0  0  0  0  0  0  0  0  0
    7.3151  -14.8782   20.1026 N   0  0  0  0  0  0  0  0  0  0  0  0
    7.6369  -14.8637   22.4965 C   0  0  0  0  0  0  0  0  0  0  0  0
    8.8766  -14.8978   22.2605 O   0  0  0  0  0  0  0  0  0  0  0  0
    6.0474  -11.7144   26.5285 C   0  0  0  0  0  0  0  0  0  0  0  0
    6.9776  -12.3885   25.5472 C   0  0  0  0  0  0  0  0  0  0  0  0
    7.3951  -13.7664   26.0400 C   0  0  2  0  0  0  0  0  0  0  0  0
    8.2215  -13.6811   27.2750 C   0  0  0  0  0  0  0  0  0  0  0  0
    8.1852  -14.4021   24.9013 C   0  0  2  0  0  0  0  0  0  0  0  0
    7.1975  -14.6242   23.8036 N   0  0  0  0  0  0  0  0  0  0  0  0
    8.6877  -15.7106   25.3560 C   0  0  0  0  0  0  0  0  0  0  0  0
    7.8199  -16.6052   25.6447 O   0  0  0  0  0  0  0  0  0  0  0  0
   12.1863  -19.1381   25.4578 C   0  0  0  0  0  0  0  0  0  0  0  0
   11.6728  -17.8033   25.0183 C   0  0  1  0  0  0  0  0  0  0  0  0
   11.3871  -17.7178   23.5516 C   0  0  0  0  0  0  0  0  0  0  0  0
   10.4063  -17.4199   25.7934 C   0  0  2  0  0  0  0  0  0  0  0  0
   10.0409  -16.0455   25.4886 N   0  0  0  0  0  0  0  0  0  0  0  0
   10.6036  -17.5536   27.2348 C   0  0  0  0  0  0  0  0  0  0  0  0
   11.0443  -16.4950   28.0456 O   0  0  0  0  0  0  0  0  0  0  0  0
   10.3862  -18.6305   27.8190 O   0  0  0  0  0  0  0  0  0  0  0  0
  1  2  1  0
  3  2  1  0
  3  4  1  6
  5  3  1  0
  6  5  2  0
  7  8  1  0
  8  9  1  0
  9 11  1  0
  9 10  1  1
 11 12  1  6
 12  5  1  0
 13 11  1  0
 13 19  1  0
 14 13  2  0
 16 15  1  1
 17 16  1  0
 18 20  1  0
 18 16  1  0
 18 19  1  1
 20 22  2  0
 20 21  1  0
M  END
$$$$
