SIV.pdb
     RDKit          3D

 22 21  0  0  1  0  0  0  0  0999 V2000
    8.1716  -19.7589   18.3656 O   0  0  0  0  0  0  0  0  0  0  0  0
    7.4005  -18.8181   17.6868 C   0  0  0  0  0  0  0  0  0  0  0  0
    8.2610  -17.6445   17.2694 C   0  0  2  0  0  0  0  0  0  0  0  0
    9.1932  -18.0856   16.2700 N   0  0  0  0  0  0  0  0  0  0  0  0
    8.9377  -17.0153   18.4203 C   0  0  0  0  0  0  0  0  0  0  0  0
   10.1837  -17.1692   18.5529 O   0  0  0  0  0  0  0  0  0  0  0  0
    6.7560  -12.4648   20.1169 C   0  0  0  0  0  0  0  0  0  0  0  0
    7.8074  -13.4990   19.7884 C   0  0  0  0  0  0  0  0  0  0  0  0
    8.0168  -14.4608   20.9490 C   0  0  2  0  0  0  0  0  0  0  0  0
    8.5756  -13.7685   22.1422 C   0  0  0  0  0  0  0  0  0  0  0  0
    8.9776  -15.5315   20.4436 C   0  0  2  0  0  0  0  0  0  0  0  0
    8.2397  -16.2553   19.3657 N   0  0  0  0  0  0  0  0  0  0  0  0
    9.2477  -16.4728   21.5446 C   0  0  0  0  0  0  0  0  0  0  0  0
    8.2558  -17.1336   22.0094 O   0  0  0  0  0  0  0  0  0  0  0  0
   11.4325  -19.4811   21.6606 C   0  0  0  0  0  0  0  0  0  0  0  0
   11.7705  -18.6536   22.8604 C   0  0  1  0  0  0  0  0  0  0  0  0
   13.0512  -17.8904   22.7278 C   0  0  0  0  0  0  0  0  0  0  0  0
   10.6391  -17.6710   23.1863 C   0  0  2  0  0  0  0  0  0  0  0  0
   10.5077  -16.6992   22.1122 N   0  0  0  0  0  0  0  0  0  0  0  0
   10.8915  -16.9660   24.4406 C   0  0  0  0  0  0  0  0  0  0  0  0
   10.7181  -17.5636   25.6996 O   0  0  0  0  0  0  0  0  0  0  0  0
   11.2782  -15.7833   24.4499 O   0  0  0  0  0  0  0  0  0  0  0  0
  1  2  1  0
  3  2  1  0
  3  4  1  6
  5  3  1  0
  6  5  2  0
  7  8  1  0
  8  9  1  0
  9 11  1  0
  9 10  1  1
 11 12  1  6
 12  5  1  0
 13 11  1  0
 13 19  1  0
 14 13  2  0
 16 15  1  6
 17 16  1  0
 18 20  1  0
 18 16  1  0
 18 19  1  6
 20 22  2  0
 20 21  1  0
M  END
$$$$
