SIV.pdb
     RDKit          3D

 22 21  0  0  1  0  0  0  0  0999 V2000
    7.0917  -17.3195   20.4470 O   0  0  0  0  0  0  0  0  0  0  0  0
    6.2967  -16.3237   21.0099 C   0  0  0  0  0  0  0  0  0  0  0  0
    6.9738  -14.9769   20.8694 C   0  0  2  0  0  0  0  0  0  0  0  0
    7.7292  -14.9631   19.6480 N   0  0  0  0  0  0  0  0  0  0  0  0
    7.8085  -14.6502   22.0419 C   0  0  0  0  0  0  0  0  0  0  0  0
    9.0644  -14.7201   21.9340 O   0  0  0  0  0  0  0  0  0  0  0  0
    7.4649  -11.7615   27.4763 C   0  0  0  0  0  0  0  0  0  0  0  0
    8.1911  -12.6515   26.4947 C   0  0  0  0  0  0  0  0  0  0  0  0
    7.2792  -13.0704   25.3507 C   0  0  2  0  0  0  0  0  0  0  0  0
    6.0954  -13.8279   25.8408 C   0  0  0  0  0  0  0  0  0  0  0  0
    8.1301  -13.9331   24.4250 C   0  0  2  0  0  0  0  0  0  0  0  0
    7.2492  -14.2663   23.2661 N   0  0  0  0  0  0  0  0  0  0  0  0
    8.4711  -15.1799   25.1324 C   0  0  0  0  0  0  0  0  0  0  0  0
    7.5268  -16.0199   25.3311 O   0  0  0  0  0  0  0  0  0  0  0  0
   11.7109  -18.7046   25.9494 C   0  0  0  0  0  0  0  0  0  0  0  0
   11.2903  -17.3956   25.3594 C   0  0  1  0  0  0  0  0  0  0  0  0
   11.0710  -17.4414   23.8795 C   0  0  0  0  0  0  0  0  0  0  0  0
   10.0156  -16.8737   26.0336 C   0  0  2  0  0  0  0  0  0  0  0  0
    9.7501  -15.5124   25.5955 N   0  0  0  0  0  0  0  0  0  0  0  0
   10.1379  -16.8921   27.4893 C   0  0  0  0  0  0  0  0  0  0  0  0
   10.4266  -15.7440   28.2449 O   0  0  0  0  0  0  0  0  0  0  0  0
    9.9891  -17.9444   28.1364 O   0  0  0  0  0  0  0  0  0  0  0  0
  1  2  1  0
  3  2  1  0
  3  4  1  6
  5  3  1  0
  6  5  2  0
  7  8  1  0
  8  9  1  0
  9 11  1  0
  9 10  1  1
 11 12  1  6
 12  5  1  0
 13 11  1  0
 13 19  1  0
 14 13  2  0
 16 15  1  1
 17 16  1  0
 18 20  1  0
 18 16  1  0
 18 19  1  6
 20 22  2  0
 20 21  1  0
M  END
$$$$
