SIV.pdb
     RDKit          3D

 22 21  0  0  1  0  0  0  0  0999 V2000
    9.7321  -18.4709   22.6302 O   0  0  0  0  0  0  0  0  0  0  0  0
    8.4952  -18.1832   22.0577 C   0  0  0  0  0  0  0  0  0  0  0  0
    8.4876  -16.7676   21.5210 C   0  0  2  0  0  0  0  0  0  0  0  0
    9.3573  -16.6998   20.3801 N   0  0  0  0  0  0  0  0  0  0  0  0
    8.8514  -15.7798   22.5556 C   0  0  0  0  0  0  0  0  0  0  0  0
    9.9810  -15.2195   22.4923 O   0  0  0  0  0  0  0  0  0  0  0  0
    6.3412  -11.8814   26.5170 C   0  0  0  0  0  0  0  0  0  0  0  0
    7.5390  -12.5978   25.9383 C   0  0  0  0  0  0  0  0  0  0  0  0
    7.1186  -13.8382   25.1633 C   0  0  2  0  0  0  0  0  0  0  0  0
    6.3606  -14.7905   26.0200 C   0  0  0  0  0  0  0  0  0  0  0  0
    8.4064  -14.4750   24.6523 C   0  0  2  0  0  0  0  0  0  0  0  0
    7.9826  -15.4476   23.6012 N   0  0  0  0  0  0  0  0  0  0  0  0
    9.0300  -15.2196   25.7604 C   0  0  0  0  0  0  0  0  0  0  0  0
    8.4327  -16.2746   26.1690 O   0  0  0  0  0  0  0  0  0  0  0  0
   10.6483  -13.3871   28.6293 C   0  0  0  0  0  0  0  0  0  0  0  0
   10.4160  -14.8516   28.8285 C   0  0  1  0  0  0  0  0  0  0  0  0
    9.0410  -15.1854   29.3162 C   0  0  0  0  0  0  0  0  0  0  0  0
   10.6867  -15.6313   27.5360 C   0  0  2  0  0  0  0  0  0  0  0  0
   10.2272  -14.8601   26.3916 N   0  0  0  0  0  0  0  0  0  0  0  0
   10.0090  -16.9255   27.5434 C   0  0  0  0  0  0  0  0  0  0  0  0
   10.6470  -18.1182   27.9213 O   0  0  0  0  0  0  0  0  0  0  0  0
    8.8150  -17.0310   27.2094 O   0  0  0  0  0  0  0  0  0  0  0  0
  1  2  1  0
  3  2  1  0
  3  4  1  6
  5  3  1  0
  6  5  2  0
  7  8  1  0
  8  9  1  0
  9 11  1  0
  9 10  1  1
 11 12  1  6
 12  5  1  0
 13 11  1  0
 13 19  1  0
 14 13  2  0
 16 15  1  6
 17 16  1  0
 18 20  1  0
 18 16  1  0
 18 19  1  6
 20 22  2  0
 20 21  1  0
M  END
$$$$
