SIV.pdb
     RDKit          3D

 22 21  0  0  1  0  0  0  0  0999 V2000
    7.4582  -16.7262   21.1038 O   0  0  0  0  0  0  0  0  0  0  0  0
    6.3991  -15.8324   20.9620 C   0  0  0  0  0  0  0  0  0  0  0  0
    6.8966  -14.4099   21.1077 C   0  0  2  0  0  0  0  0  0  0  0  0
    7.6116  -14.0448   19.9169 N   0  0  0  0  0  0  0  0  0  0  0  0
    7.7142  -14.2295   22.3232 C   0  0  0  0  0  0  0  0  0  0  0  0
    8.9679  -14.1382   22.2059 O   0  0  0  0  0  0  0  0  0  0  0  0
    5.7473  -11.4779   26.4133 C   0  0  0  0  0  0  0  0  0  0  0  0
    6.7316  -12.1099   25.4569 C   0  0  0  0  0  0  0  0  0  0  0  0
    7.1229  -13.5083   25.9121 C   0  0  2  0  0  0  0  0  0  0  0  0
    7.8462  -13.4804   27.2126 C   0  0  0  0  0  0  0  0  0  0  0  0
    8.0091  -14.0797   24.8106 C   0  0  2  0  0  0  0  0  0  0  0  0
    7.1410  -14.1571   23.5979 N   0  0  0  0  0  0  0  0  0  0  0  0
    8.4071  -15.4457   25.1939 C   0  0  0  0  0  0  0  0  0  0  0  0
    7.4724  -16.2974   25.3881 O   0  0  0  0  0  0  0  0  0  0  0  0
   10.6058  -17.8094   23.3107 C   0  0  0  0  0  0  0  0  0  0  0  0
   11.0693  -17.8254   24.7332 C   0  0  1  0  0  0  0  0  0  0  0  0
   12.3401  -17.0692   24.9641 C   0  0  0  0  0  0  0  0  0  0  0  0
    9.9871  -17.2744   25.6696 C   0  0  2  0  0  0  0  0  0  0  0  0
    9.7292  -15.8780   25.3546 N   0  0  0  0  0  0  0  0  0  0  0  0
   10.3898  -17.3820   27.0698 C   0  0  0  0  0  0  0  0  0  0  0  0
   10.4364  -18.6054   27.7580 O   0  0  0  0  0  0  0  0  0  0  0  0
   10.7154  -16.3769   27.7270 O   0  0  0  0  0  0  0  0  0  0  0  0
  1  2  1  0
  3  2  1  0
  3  4  1  6
  5  3  1  0
  6  5  2  0
  7  8  1  0
  8  9  1  0
  9 11  1  0
  9 10  1  1
 11 12  1  6
 12  5  1  0
 13 11  1  0
 13 19  1  0
 14 13  2  0
 16 15  1  6
 17 16  1  0
 18 20  1  0
 18 16  1  0
 18 19  1  6
 20 22  2  0
 20 21  1  0
M  END
$$$$
