SIV.pdb
     RDKit          3D

 22 21  0  0  1  0  0  0  0  0999 V2000
    6.9865  -16.9693   21.1799 O   0  0  0  0  0  0  0  0  0  0  0  0
    6.0964  -15.9116   21.0083 C   0  0  0  0  0  0  0  0  0  0  0  0
    6.8359  -14.5927   21.0833 C   0  0  2  0  0  0  0  0  0  0  0  0
    7.5792  -14.4084   19.8683 N   0  0  0  0  0  0  0  0  0  0  0  0
    7.6967  -14.5062   22.2790 C   0  0  0  0  0  0  0  0  0  0  0  0
    8.9443  -14.6438   22.1427 O   0  0  0  0  0  0  0  0  0  0  0  0
    5.8131  -11.4749   26.2487 C   0  0  0  0  0  0  0  0  0  0  0  0
    6.7818  -12.1405   25.2991 C   0  0  0  0  0  0  0  0  0  0  0  0
    7.2296  -13.4954   25.8278 C   0  0  2  0  0  0  0  0  0  0  0  0
    8.0073  -13.3629   27.0900 C   0  0  0  0  0  0  0  0  0  0  0  0
    8.0825  -14.1183   24.7280 C   0  0  2  0  0  0  0  0  0  0  0  0
    7.1712  -14.2767   23.5557 N   0  0  0  0  0  0  0  0  0  0  0  0
    8.5148  -15.4546   25.1736 C   0  0  0  0  0  0  0  0  0  0  0  0
    7.6067  -16.3395   25.3440 O   0  0  0  0  0  0  0  0  0  0  0  0
   11.8796  -18.9923   25.4670 C   0  0  0  0  0  0  0  0  0  0  0  0
   11.4504  -17.6262   25.0331 C   0  0  1  0  0  0  0  0  0  0  0  0
   11.2735  -17.4891   23.5532 C   0  0  0  0  0  0  0  0  0  0  0  0
   10.1476  -17.2132   25.7287 C   0  0  2  0  0  0  0  0  0  0  0  0
    9.8429  -15.8255   25.4174 N   0  0  0  0  0  0  0  0  0  0  0  0
   10.2463  -17.3674   27.1781 C   0  0  0  0  0  0  0  0  0  0  0  0
    9.9099  -18.5578   27.8430 O   0  0  0  0  0  0  0  0  0  0  0  0
   10.6396  -16.4343   27.9013 O   0  0  0  0  0  0  0  0  0  0  0  0
  1  2  1  0
  3  2  1  0
  3  4  1  6
  5  3  1  0
  6  5  2  0
  7  8  1  0
  8  9  1  0
  9 11  1  0
  9 10  1  1
 11 12  1  6
 12  5  1  0
 13 11  1  0
 13 19  1  0
 14 13  2  0
 16 15  1  6
 17 16  1  0
 18 20  1  0
 18 16  1  0
 18 19  1  1
 20 22  2  0
 20 21  1  0
M  END
$$$$
