SIV.pdb
     RDKit          3D

 22 21  0  0  1  0  0  0  0  0999 V2000
    5.7115  -17.2318   20.8769 O   0  0  0  0  0  0  0  0  0  0  0  0
    6.6089  -16.9008   21.8897 C   0  0  0  0  0  0  0  0  0  0  0  0
    6.9021  -15.4158   21.8594 C   0  0  2  0  0  0  0  0  0  0  0  0
    7.4380  -15.0754   20.5712 N   0  0  0  0  0  0  0  0  0  0  0  0
    7.7963  -15.0040   22.9589 C   0  0  0  0  0  0  0  0  0  0  0  0
    9.0419  -14.9806   22.7547 O   0  0  0  0  0  0  0  0  0  0  0  0
    5.8226  -11.6029   26.4911 C   0  0  0  0  0  0  0  0  0  0  0  0
    6.8302  -12.3266   25.6286 C   0  0  0  0  0  0  0  0  0  0  0  0
    7.4064  -13.5362   26.3502 C   0  0  2  0  0  0  0  0  0  0  0  0
    8.2356  -13.1350   27.5192 C   0  0  0  0  0  0  0  0  0  0  0  0
    8.2464  -14.2834   25.3201 C   0  0  2  0  0  0  0  0  0  0  0  0
    7.3043  -14.6399   24.2175 N   0  0  0  0  0  0  0  0  0  0  0  0
    8.7433  -15.5262   25.9365 C   0  0  0  0  0  0  0  0  0  0  0  0
    7.8716  -16.3599   26.3628 O   0  0  0  0  0  0  0  0  0  0  0  0
   11.3695  -17.9070   24.3808 C   0  0  0  0  0  0  0  0  0  0  0  0
   11.6769  -17.7073   25.8313 C   0  0  1  0  0  0  0  0  0  0  0  0
   12.8322  -16.7901   26.0843 C   0  0  0  0  0  0  0  0  0  0  0  0
   10.4502  -17.1793   26.5850 C   0  0  2  0  0  0  0  0  0  0  0  0
   10.0950  -15.8611   26.0832 N   0  0  0  0  0  0  0  0  0  0  0  0
   10.7049  -17.0915   28.0209 C   0  0  0  0  0  0  0  0  0  0  0  0
   10.7749  -18.2203   28.8534 O   0  0  0  0  0  0  0  0  0  0  0  0
   10.8744  -15.9931   28.5805 O   0  0  0  0  0  0  0  0  0  0  0  0
  1  2  1  0
  3  2  1  0
  3  4  1  6
  5  3  1  0
  6  5  2  0
  7  8  1  0
  8  9  1  0
  9 11  1  0
  9 10  1  1
 11 12  1  6
 12  5  1  0
 13 11  1  0
 13 19  1  0
 14 13  2  0
 16 15  1  6
 17 16  1  0
 18 20  1  0
 18 16  1  0
 18 19  1  6
 20 22  2  0
 20 21  1  0
M  END
$$$$
