SIV.pdb
     RDKit          3D

 22 21  0  0  1  0  0  0  0  0999 V2000
    6.8979  -16.8723   20.9359 O   0  0  0  0  0  0  0  0  0  0  0  0
    5.9525  -15.8632   21.1048 C   0  0  0  0  0  0  0  0  0  0  0  0
    6.6366  -14.5136   21.1564 C   0  0  2  0  0  0  0  0  0  0  0  0
    7.2913  -14.2776   19.9001 N   0  0  0  0  0  0  0  0  0  0  0  0
    7.5679  -14.4065   22.2963 C   0  0  0  0  0  0  0  0  0  0  0  0
    8.8096  -14.4634   22.0757 O   0  0  0  0  0  0  0  0  0  0  0  0
    5.8564  -11.6443   26.5432 C   0  0  0  0  0  0  0  0  0  0  0  0
    6.7867  -12.2236   25.5031 C   0  0  0  0  0  0  0  0  0  0  0  0
    7.2918  -13.5976   25.9187 C   0  0  2  0  0  0  0  0  0  0  0  0
    8.1390  -13.5252   27.1404 C   0  0  0  0  0  0  0  0  0  0  0  0
    8.0914  -14.1308   24.7349 C   0  0  2  0  0  0  0  0  0  0  0  0
    7.1151  -14.2442   23.6106 N   0  0  0  0  0  0  0  0  0  0  0  0
    8.5813  -15.4789   25.0723 C   0  0  0  0  0  0  0  0  0  0  0  0
    7.7048  -16.3833   25.2975 O   0  0  0  0  0  0  0  0  0  0  0  0
   12.0260  -18.9626   24.9388 C   0  0  0  0  0  0  0  0  0  0  0  0
   11.5491  -17.5858   24.5991 C   0  0  1  0  0  0  0  0  0  0  0  0
   11.2870  -17.3790   23.1400 C   0  0  0  0  0  0  0  0  0  0  0  0
   10.2803  -17.2345   25.3854 C   0  0  2  0  0  0  0  0  0  0  0  0
    9.9313  -15.8410   25.1582 N   0  0  0  0  0  0  0  0  0  0  0  0
   10.4644  -17.4537   26.8181 C   0  0  0  0  0  0  0  0  0  0  0  0
   11.1187  -16.5329   27.6525 O   0  0  0  0  0  0  0  0  0  0  0  0
   10.0423  -18.4843   27.3730 O   0  0  0  0  0  0  0  0  0  0  0  0
  1  2  1  0
  3  2  1  0
  3  4  1  6
  5  3  1  0
  6  5  2  0
  7  8  1  0
  8  9  1  0
  9 11  1  0
  9 10  1  1
 11 12  1  6
 12  5  1  0
 13 11  1  0
 13 19  1  0
 14 13  2  0
 16 15  1  6
 17 16  1  0
 18 20  1  0
 18 16  1  0
 18 19  1  1
 20 22  2  0
 20 21  1  0
M  END
$$$$
