VRS.pdb
     RDKit          3D

 25 24  0  0  1  0  0  0  0  0999 V2000
    6.0268  -11.5955   26.9125 C   0  0  0  0  0  0  0  0  0  0  0  0
    6.9876  -12.5372   26.2195 C   0  0  1  0  0  0  0  0  0  0  0  0
    7.9713  -13.0348   27.2406 C   0  0  0  0  0  0  0  0  0  0  0  0
    6.1987  -13.6223   25.5582 C   0  0  2  0  0  0  0  0  0  0  0  0
    5.5603  -14.4324   26.5498 N   0  0  0  0  0  0  0  0  0  0  0  0
    7.1165  -14.4380   24.6850 C   0  0  0  0  0  0  0  0  0  0  0  0
    7.6359  -15.4977   25.0967 O   0  0  0  0  0  0  0  0  0  0  0  0
    9.5330  -14.6926   18.0417 N   0  0  0  0  0  0  0  0  0  0  0  0
    8.3586  -14.3339   17.3556 C   0  0  0  0  0  0  0  0  0  0  0  0
    8.3310  -14.3769   16.0631 N   0  0  0  0  0  0  0  0  0  0  0  0
    7.2121  -13.9266   18.1031 N   0  0  0  0  0  0  0  0  0  0  0  0
    7.4237  -13.0454   19.2306 C   0  0  0  0  0  0  0  0  0  0  0  0
    7.2513  -13.8143   20.5230 C   0  0  0  0  0  0  0  0  0  0  0  0
    8.5928  -14.0143   21.1967 C   0  0  0  0  0  0  0  0  0  0  0  0
    8.3374  -14.7491   22.5136 C   0  0  2  0  0  0  0  0  0  0  0  0
    7.4318  -14.0399   23.3574 N   0  0  0  0  0  0  0  0  0  0  0  0
    9.6744  -14.9478   23.1380 C   0  0  0  0  0  0  0  0  0  0  0  0
    9.9375  -14.2004   24.1249 O   0  0  0  0  0  0  0  0  0  0  0  0
    7.4999  -13.9946   15.5427 O   0  0  0  0  0  0  0  0  0  0  0  0
   11.6197  -17.8668   25.6065 C   0  0  0  0  0  0  0  0  0  0  0  0
   10.7651  -17.2031   24.7494 C   0  0  1  0  0  0  0  0  0  0  0  0
   11.4887  -16.5322   23.6044 N   0  0  0  0  0  0  0  0  0  0  0  0
   10.6066  -15.9090   22.6696 C   0  0  0  0  0  0  0  0  0  0  0  0
   12.3871  -17.5118   22.9339 O   0  0  0  0  0  0  0  0  0  0  0  0
   13.3236  -18.0748   23.5585 O   0  0  0  0  0  0  0  0  0  0  0  0
  2  1  1  1
  2  4  1  0
  3  2  1  0
  4  6  1  0
  4  5  1  1
  6 16  1  0
  7  6  2  0
  9 10  2  0
  9  8  1  0
 11  9  1  0
 12 11  1  0
 13 12  1  0
 14 13  1  0
 15 17  1  0
 15 14  1  6
 16 15  1  0
 17 18  2  0
 19 20  1  0
 21 20  1  1
 22 21  1  0
 22 17  1  0
 23 25  1  0
 23 21  1  0
 24 23  2  0
M  END
$$$$
