VRS.pdb
     RDKit          3D

 25 24  0  0  1  0  0  0  0  0999 V2000
    8.4050  -11.7250   19.7807 C   0  0  0  0  0  0  0  0  0  0  0  0
    8.7829  -13.0835   20.3302 C   0  0  1  0  0  0  0  0  0  0  0  0
    7.7404  -13.4871   21.3343 C   0  0  0  0  0  0  0  0  0  0  0  0
    8.9259  -14.0377   19.1874 C   0  0  2  0  0  0  0  0  0  0  0  0
    7.6660  -14.1999   18.5292 N   0  0  0  0  0  0  0  0  0  0  0  0
    9.4531  -15.3513   19.7039 C   0  0  0  0  0  0  0  0  0  0  0  0
    8.6820  -16.2727   20.0479 O   0  0  0  0  0  0  0  0  0  0  0  0
   12.0146  -19.9016   17.1115 N   0  0  0  0  0  0  0  0  0  0  0  0
   12.6098  -19.2579   16.0114 C   0  0  0  0  0  0  0  0  0  0  0  0
   12.2752  -19.5989   14.8094 N   0  0  0  0  0  0  0  0  0  0  0  0
   13.5778  -18.2341   16.2435 N   0  0  0  0  0  0  0  0  0  0  0  0
   13.8214  -17.8381   17.6133 C   0  0  0  0  0  0  0  0  0  0  0  0
   12.5084  -17.5277   18.2996 C   0  0  0  0  0  0  0  0  0  0  0  0
   12.7500  -17.1471   19.7454 C   0  0  0  0  0  0  0  0  0  0  0  0
   11.3922  -16.8044   20.3604 C   0  0  2  0  0  0  0  0  0  0  0  0
   10.8475  -15.6006   19.8226 N   0  0  0  0  0  0  0  0  0  0  0  0
   11.6148  -16.7319   21.8308 C   0  0  0  0  0  0  0  0  0  0  0  0
   12.2450  -15.7145   22.2425 O   0  0  0  0  0  0  0  0  0  0  0  0
   12.7031  -19.1041   13.9849 O   0  0  0  0  0  0  0  0  0  0  0  0
    9.6222  -19.1220   24.6353 C   0  0  0  0  0  0  0  0  0  0  0  0
   10.1872  -17.9096   24.9760 C   0  0  1  0  0  0  0  0  0  0  0  0
   11.3898  -17.5649   24.1275 N   0  0  0  0  0  0  0  0  0  0  0  0
   11.1568  -17.7306   22.7280 C   0  0  0  0  0  0  0  0  0  0  0  0
   12.5676  -18.3553   24.5795 O   0  0  0  0  0  0  0  0  0  0  0  0
   13.1419  -19.1708   23.8119 O   0  0  0  0  0  0  0  0  0  0  0  0
  2  1  1  6
  2  4  1  0
  3  2  1  0
  4  6  1  0
  4  5  1  1
  6 16  1  0
  7  6  2  0
  9 10  2  0
  9  8  1  0
 11  9  1  0
 12 11  1  0
 13 12  1  0
 14 13  1  0
 15 17  1  0
 15 14  1  6
 16 15  1  0
 17 18  2  0
 19 20  1  0
 21 20  1  6
 22 21  1  0
 22 17  1  0
 23 25  1  0
 23 21  1  0
 24 23  2  0
M  END
$$$$
