VRS.pdb
     RDKit          3D

 25 24  0  0  1  0  0  0  0  0999 V2000
    7.8873  -11.6820   19.3840 C   0  0  0  0  0  0  0  0  0  0  0  0
    8.0160  -13.0742   19.9631 C   0  0  1  0  0  0  0  0  0  0  0  0
    7.3293  -14.0324   19.0313 C   0  0  0  0  0  0  0  0  0  0  0  0
    9.4664  -13.3701   20.1765 C   0  0  2  0  0  0  0  0  0  0  0  0
   10.1582  -13.3386   18.9246 N   0  0  0  0  0  0  0  0  0  0  0  0
    9.6030  -14.7109   20.8501 C   0  0  0  0  0  0  0  0  0  0  0  0
    9.0537  -14.9476   21.9475 O   0  0  0  0  0  0  0  0  0  0  0  0
   12.3610  -23.1709   19.6166 N   0  0  0  0  0  0  0  0  0  0  0  0
   11.0196  -22.8286   19.3672 C   0  0  0  0  0  0  0  0  0  0  0  0
   10.1402  -23.7611   19.1937 N   0  0  0  0  0  0  0  0  0  0  0  0
   10.6517  -21.4500   19.3101 N   0  0  0  0  0  0  0  0  0  0  0  0
   11.6657  -20.4702   19.6329 C   0  0  0  0  0  0  0  0  0  0  0  0
   11.0884  -19.4184   20.5559 C   0  0  0  0  0  0  0  0  0  0  0  0
   11.1673  -18.0521   19.9074 C   0  0  0  0  0  0  0  0  0  0  0  0
   10.4959  -17.0573   20.8555 C   0  0  2  0  0  0  0  0  0  0  0  0
   10.3607  -15.7640   20.2690 N   0  0  0  0  0  0  0  0  0  0  0  0
   11.3239  -17.0475   22.0929 C   0  0  0  0  0  0  0  0  0  0  0  0
   12.4281  -16.4342   22.0113 O   0  0  0  0  0  0  0  0  0  0  0  0
    9.1488  -23.5085   18.9465 O   0  0  0  0  0  0  0  0  0  0  0  0
    9.8842  -18.0017   25.9086 C   0  0  0  0  0  0  0  0  0  0  0  0
   10.9980  -17.2125   25.7040 C   0  0  1  0  0  0  0  0  0  0  0  0
   11.7545  -17.5816   24.4485 N   0  0  0  0  0  0  0  0  0  0  0  0
   10.9169  -17.6800   23.2956 C   0  0  0  0  0  0  0  0  0  0  0  0
   12.5195  -18.8388   24.6732 O   0  0  0  0  0  0  0  0  0  0  0  0
   13.3558  -18.9374   25.6087 O   0  0  0  0  0  0  0  0  0  0  0  0
  2  1  1  6
  2  4  1  0
  3  2  1  0
  4  6  1  0
  4  5  1  6
  6 16  1  0
  7  6  2  0
  9 10  2  0
  9  8  1  0
 11  9  1  0
 12 11  1  0
 13 12  1  0
 14 13  1  0
 15 17  1  0
 15 14  1  6
 16 15  1  0
 17 18  2  0
 19 20  1  0
 21 20  1  6
 22 21  1  0
 22 17  1  0
 23 25  1  0
 23 21  1  0
 24 23  2  0
M  END
$$$$
