VRS.pdb
     RDKit          3D

 25 24  0  0  1  0  0  0  0  0999 V2000
    2.9992  -20.1274   21.2355 C   0  0  0  0  0  0  0  0  0  0  0  0
    4.2381  -19.2789   21.0477 C   0  0  1  0  0  0  0  0  0  0  0  0
    3.8018  -17.8567   20.8360 C   0  0  0  0  0  0  0  0  0  0  0  0
    5.1311  -19.4694   22.2322 C   0  0  2  0  0  0  0  0  0  0  0  0
    4.4217  -19.1482   23.4324 N   0  0  0  0  0  0  0  0  0  0  0  0
    6.3583  -18.6106   22.0687 C   0  0  0  0  0  0  0  0  0  0  0  0
    7.1984  -18.8389   21.1720 O   0  0  0  0  0  0  0  0  0  0  0  0
    8.2486  -11.3898   19.8457 N   0  0  0  0  0  0  0  0  0  0  0  0
    8.5033  -12.6627   19.3037 C   0  0  0  0  0  0  0  0  0  0  0  0
    9.1669  -12.7693   18.1985 N   0  0  0  0  0  0  0  0  0  0  0  0
    8.0216  -13.8200   19.9875 N   0  0  0  0  0  0  0  0  0  0  0  0
    7.0021  -13.6286   20.9958 C   0  0  0  0  0  0  0  0  0  0  0  0
    6.6400  -14.9595   21.6193 C   0  0  0  0  0  0  0  0  0  0  0  0
    7.5046  -15.2211   22.8349 C   0  0  0  0  0  0  0  0  0  0  0  0
    7.8046  -16.7205   22.8676 C   0  0  2  0  0  0  0  0  0  0  0  0
    6.6147  -17.5052   22.9249 N   0  0  0  0  0  0  0  0  0  0  0  0
    8.6955  -16.9347   24.0412 C   0  0  0  0  0  0  0  0  0  0  0  0
    8.1782  -17.5476   25.0203 O   0  0  0  0  0  0  0  0  0  0  0  0
    9.3195  -13.7171   17.7671 O   0  0  0  0  0  0  0  0  0  0  0  0
   10.9402  -16.6049   27.6358 C   0  0  0  0  0  0  0  0  0  0  0  0
   10.1458  -16.3901   26.5276 C   0  0  2  0  0  0  0  0  0  0  0  0
   10.8328  -16.7624   25.2337 N   0  0  0  0  0  0  0  0  0  0  0  0
   10.0411  -16.4870   24.0771 C   0  0  0  0  0  0  0  0  0  0  0  0
   11.2505  -18.1906   25.2786 O   0  0  0  0  0  0  0  0  0  0  0  0
   12.0971  -18.5986   26.1159 O   0  0  0  0  0  0  0  0  0  0  0  0
  2  1  1  1
  2  4  1  0
  3  2  1  0
  4  6  1  0
  4  5  1  1
  6 16  1  0
  7  6  2  0
  9 10  2  0
  9  8  1  0
 11  9  1  0
 12 11  1  0
 13 12  1  0
 14 13  1  0
 15 17  1  0
 15 14  1  1
 16 15  1  0
 17 18  2  0
 19 20  1  0
 21 20  1  6
 22 21  1  0
 22 17  1  0
 23 25  1  0
 23 21  1  0
 24 23  2  0
M  END
$$$$
