VRS.pdb
     RDKit          3D

 25 24  0  0  1  0  0  0  0  0999 V2000
    8.2803  -12.1211   26.0490 C   0  0  0  0  0  0  0  0  0  0  0  0
    6.9210  -12.5147   26.5853 C   0  0  1  0  0  0  0  0  0  0  0  0
    6.2263  -11.2682   27.0560 C   0  0  0  0  0  0  0  0  0  0  0  0
    6.1817  -13.2539   25.5156 C   0  0  2  0  0  0  0  0  0  0  0  0
    4.8805  -13.6172   25.9865 N   0  0  0  0  0  0  0  0  0  0  0  0
    6.9809  -14.4650   25.1098 C   0  0  0  0  0  0  0  0  0  0  0  0
    7.0307  -15.4843   25.8312 O   0  0  0  0  0  0  0  0  0  0  0  0
    7.7285  -12.1880   18.5837 N   0  0  0  0  0  0  0  0  0  0  0  0
    7.7362  -13.4697   18.0042 C   0  0  0  0  0  0  0  0  0  0  0  0
    8.0136  -13.6052   16.7481 N   0  0  0  0  0  0  0  0  0  0  0  0
    7.4359  -14.6039   18.8181 N   0  0  0  0  0  0  0  0  0  0  0  0
    8.4703  -15.0852   19.7075 C   0  0  0  0  0  0  0  0  0  0  0  0
    7.9972  -14.9945   21.1425 C   0  0  0  0  0  0  0  0  0  0  0  0
    9.1075  -15.4048   22.0872 C   0  0  0  0  0  0  0  0  0  0  0  0
    8.4775  -15.6272   23.4630 C   0  0  2  0  0  0  0  0  0  0  0  0
    7.7120  -14.5023   23.8913 N   0  0  0  0  0  0  0  0  0  0  0  0
    9.6043  -15.9440   24.3833 C   0  0  0  0  0  0  0  0  0  0  0  0
   10.4800  -15.0395   24.5129 O   0  0  0  0  0  0  0  0  0  0  0  0
    8.0145  -14.5626   16.3109 O   0  0  0  0  0  0  0  0  0  0  0  0
    9.8658  -19.5461   26.4440 C   0  0  0  0  0  0  0  0  0  0  0  0
   10.6951  -18.5292   26.8722 C   0  0  1  0  0  0  0  0  0  0  0  0
   10.8899  -17.4537   25.8282 N   0  0  0  0  0  0  0  0  0  0  0  0
    9.7059  -17.1762   25.0788 C   0  0  0  0  0  0  0  0  0  0  0  0
   12.0246  -17.8181   24.9360 O   0  0  0  0  0  0  0  0  0  0  0  0
   13.1673  -18.0691   25.4001 O   0  0  0  0  0  0  0  0  0  0  0  0
  2  1  1  6
  2  4  1  0
  3  2  1  0
  4  6  1  0
  4  5  1  1
  6 16  1  0
  7  6  2  0
  9 10  2  0
  9  8  1  0
 11  9  1  0
 12 11  1  0
 13 12  1  0
 14 13  1  0
 15 17  1  0
 15 14  1  6
 16 15  1  0
 17 18  2  0
 19 20  1  0
 21 20  1  1
 22 21  1  0
 22 17  1  0
 23 25  1  0
 23 21  1  0
 24 23  2  0
M  END
$$$$
