VRS.pdb
     RDKit          3D

 25 24  0  0  1  0  0  0  0  0999 V2000
    6.5033  -11.2139   26.4159 C   0  0  0  0  0  0  0  0  0  0  0  0
    7.1767  -12.5348   26.1125 C   0  0  1  0  0  0  0  0  0  0  0  0
    7.9381  -12.9621   27.3354 C   0  0  0  0  0  0  0  0  0  0  0  0
    6.1332  -13.5131   25.6752 C   0  0  2  0  0  0  0  0  0  0  0  0
    5.1770  -13.7043   26.7222 N   0  0  0  0  0  0  0  0  0  0  0  0
    6.8005  -14.8087   25.2925 C   0  0  0  0  0  0  0  0  0  0  0  0
    7.0546  -15.6870   26.1445 O   0  0  0  0  0  0  0  0  0  0  0  0
    7.6062  -13.0401   18.5724 N   0  0  0  0  0  0  0  0  0  0  0  0
    8.8586  -12.8265   19.1762 C   0  0  0  0  0  0  0  0  0  0  0  0
    9.3004  -11.6205   19.3299 N   0  0  0  0  0  0  0  0  0  0  0  0
    9.6232  -13.9514   19.6108 N   0  0  0  0  0  0  0  0  0  0  0  0
    8.9009  -15.1243   20.0527 C   0  0  0  0  0  0  0  0  0  0  0  0
    8.7401  -15.0919   21.5575 C   0  0  0  0  0  0  0  0  0  0  0  0
    8.0488  -16.3509   22.0377 C   0  0  0  0  0  0  0  0  0  0  0  0
    7.9097  -16.2441   23.5571 C   0  0  2  0  0  0  0  0  0  0  0  0
    7.1698  -15.0891   23.9488 N   0  0  0  0  0  0  0  0  0  0  0  0
    9.2971  -16.2527   24.0973 C   0  0  0  0  0  0  0  0  0  0  0  0
    9.9060  -15.1435   24.0679 O   0  0  0  0  0  0  0  0  0  0  0  0
   10.2562  -11.4598   19.7403 O   0  0  0  0  0  0  0  0  0  0  0  0
   10.8252  -19.1329   26.6518 C   0  0  0  0  0  0  0  0  0  0  0  0
   11.4176  -17.8958   26.4964 C   0  0  1  0  0  0  0  0  0  0  0  0
   11.2546  -17.3398   25.1003 N   0  0  0  0  0  0  0  0  0  0  0  0
    9.9133  -17.4205   24.6158 C   0  0  0  0  0  0  0  0  0  0  0  0
   12.2075  -18.0134   24.1760 O   0  0  0  0  0  0  0  0  0  0  0  0
   11.8052  -18.6180   23.1480 O   0  0  0  0  0  0  0  0  0  0  0  0
  2  1  1  1
  2  4  1  0
  3  2  1  0
  4  6  1  0
  4  5  1  1
  6 16  1  0
  7  6  2  0
  9 10  2  0
  9  8  1  0
 11  9  1  0
 12 11  1  0
 13 12  1  0
 14 13  1  0
 15 17  1  0
 15 14  1  6
 16 15  1  0
 17 18  2  0
 19 20  1  0
 21 20  1  1
 22 21  1  0
 22 17  1  0
 23 25  1  0
 23 21  1  0
 24 23  2  0
M  END
$$$$
