VRS.pdb
     RDKit          3D

 25 24  0  0  1  0  0  0  0  0999 V2000
    8.9191  -12.9477   20.9884 C   0  0  0  0  0  0  0  0  0  0  0  0
    7.9989  -13.5492   19.9484 C   0  0  1  0  0  0  0  0  0  0  0  0
    7.4417  -12.4298   19.1151 C   0  0  0  0  0  0  0  0  0  0  0  0
    8.7653  -14.5660   19.1638 C   0  0  2  0  0  0  0  0  0  0  0  0
    7.9455  -15.0890   18.1144 N   0  0  0  0  0  0  0  0  0  0  0  0
    9.2356  -15.6549   20.0929 C   0  0  0  0  0  0  0  0  0  0  0  0
    8.4330  -16.4611   20.6106 O   0  0  0  0  0  0  0  0  0  0  0  0
   12.8099  -17.8189   16.9703 N   0  0  0  0  0  0  0  0  0  0  0  0
   13.1782  -19.1675   17.1270 C   0  0  0  0  0  0  0  0  0  0  0  0
   12.9713  -20.0060   16.1641 N   0  0  0  0  0  0  0  0  0  0  0  0
   13.7769  -19.5880   18.3533 N   0  0  0  0  0  0  0  0  0  0  0  0
   13.8572  -18.6224   19.4274 C   0  0  0  0  0  0  0  0  0  0  0  0
   12.4683  -18.1452   19.7942 C   0  0  0  0  0  0  0  0  0  0  0  0
   12.5304  -17.2264   20.9964 C   0  0  0  0  0  0  0  0  0  0  0  0
   11.0970  -16.8050   21.3237 C   0  0  2  0  0  0  0  0  0  0  0  0
   10.6095  -15.8135   20.4214 N   0  0  0  0  0  0  0  0  0  0  0  0
   11.1195  -16.3391   22.7377 C   0  0  0  0  0  0  0  0  0  0  0  0
   11.7105  -15.2394   22.9455 O   0  0  0  0  0  0  0  0  0  0  0  0
   13.2442  -21.0159   16.2796 O   0  0  0  0  0  0  0  0  0  0  0  0
    8.1782  -16.7795   25.3767 C   0  0  0  0  0  0  0  0  0  0  0  0
    9.2461  -15.9231   25.5540 C   0  0  1  0  0  0  0  0  0  0  0  0
   10.5610  -16.5288   25.1191 N   0  0  0  0  0  0  0  0  0  0  0  0
   10.5217  -17.0686   23.7973 C   0  0  0  0  0  0  0  0  0  0  0  0
   10.9966  -17.5504   26.1105 O   0  0  0  0  0  0  0  0  0  0  0  0
   11.1511  -18.7558   25.7829 O   0  0  0  0  0  0  0  0  0  0  0  0
  2  1  1  1
  2  4  1  0
  3  2  1  0
  4  6  1  0
  4  5  1  6
  6 16  1  0
  7  6  2  0
  9 10  2  0
  9  8  1  0
 11  9  1  0
 12 11  1  0
 13 12  1  0
 14 13  1  0
 15 17  1  0
 15 14  1  6
 16 15  1  0
 17 18  2  0
 19 20  1  0
 21 20  1  6
 22 21  1  0
 22 17  1  0
 23 25  1  0
 23 21  1  0
 24 23  2  0
M  END
$$$$
