VRS.pdb
     RDKit          3D

 25 24  0  0  1  0  0  0  0  0999 V2000
    8.1130  -12.0932   18.8336 C   0  0  0  0  0  0  0  0  0  0  0  0
    8.5474  -13.3155   19.6131 C   0  0  1  0  0  0  0  0  0  0  0  0
    7.5714  -13.5236   20.7366 C   0  0  0  0  0  0  0  0  0  0  0  0
    8.6435  -14.4731   18.6710 C   0  0  2  0  0  0  0  0  0  0  0  0
    7.3785  -14.6919   18.0393 N   0  0  0  0  0  0  0  0  0  0  0  0
    9.1002  -15.6915   19.4307 C   0  0  0  0  0  0  0  0  0  0  0  0
    8.2933  -16.4024   20.0676 O   0  0  0  0  0  0  0  0  0  0  0  0
   11.6754  -18.8513   15.1648 N   0  0  0  0  0  0  0  0  0  0  0  0
   12.6563  -17.8563   15.0018 C   0  0  0  0  0  0  0  0  0  0  0  0
   12.7947  -17.2722   13.8560 N   0  0  0  0  0  0  0  0  0  0  0  0
   13.4856  -17.5076   16.1107 N   0  0  0  0  0  0  0  0  0  0  0  0
   13.2284  -18.1632   17.3742 C   0  0  0  0  0  0  0  0  0  0  0  0
   12.1969  -17.3806   18.1584 C   0  0  0  0  0  0  0  0  0  0  0  0
   12.0135  -17.9873   19.5339 C   0  0  0  0  0  0  0  0  0  0  0  0
   10.9662  -17.1478   20.2672 C   0  0  2  0  0  0  0  0  0  0  0  0
   10.4656  -16.0859   19.4568 N   0  0  0  0  0  0  0  0  0  0  0  0
   11.6264  -16.6640   21.5110 C   0  0  0  0  0  0  0  0  0  0  0  0
   12.3340  -15.6218   21.3889 O   0  0  0  0  0  0  0  0  0  0  0  0
   13.5884  -16.5982   13.7028 O   0  0  0  0  0  0  0  0  0  0  0  0
   10.4260  -17.9203   25.2644 C   0  0  0  0  0  0  0  0  0  0  0  0
   11.0639  -16.7070   25.1025 C   0  0  1  0  0  0  0  0  0  0  0  0
   12.0208  -16.7001   23.9323 N   0  0  0  0  0  0  0  0  0  0  0  0
   11.4826  -17.3173   22.7620 C   0  0  0  0  0  0  0  0  0  0  0  0
   13.3102  -17.3271   24.3331 O   0  0  0  0  0  0  0  0  0  0  0  0
   13.7708  -18.3252   23.7199 O   0  0  0  0  0  0  0  0  0  0  0  0
  2  1  1  6
  2  4  1  0
  3  2  1  0
  4  6  1  0
  4  5  1  1
  6 16  1  0
  7  6  2  0
  9 10  2  0
  9  8  1  0
 11  9  1  0
 12 11  1  0
 13 12  1  0
 14 13  1  0
 15 17  1  0
 15 14  1  6
 16 15  1  0
 17 18  2  0
 19 20  1  0
 21 20  1  6
 22 21  1  0
 22 17  1  0
 23 25  1  0
 23 21  1  0
 24 23  2  0
M  END
$$$$
