VRS.pdb
     RDKit          3D

 25 24  0  0  1  0  0  0  0  0999 V2000
    7.7088  -13.4256   28.0196 C   0  0  0  0  0  0  0  0  0  0  0  0
    8.3581  -14.2317   26.9156 C   0  0  1  0  0  0  0  0  0  0  0  0
    9.5686  -14.9147   27.4866 C   0  0  0  0  0  0  0  0  0  0  0  0
    7.3416  -15.1718   26.3499 C   0  0  2  0  0  0  0  0  0  0  0  0
    7.2666  -16.3501   27.1580 N   0  0  0  0  0  0  0  0  0  0  0  0
    7.7108  -15.5001   24.9265 C   0  0  0  0  0  0  0  0  0  0  0  0
    8.3172  -16.5540   24.6374 O   0  0  0  0  0  0  0  0  0  0  0  0
    9.9423  -13.9634   18.1715 N   0  0  0  0  0  0  0  0  0  0  0  0
    8.7918  -13.9814   17.3623 C   0  0  0  0  0  0  0  0  0  0  0  0
    8.8449  -14.5071   16.1817 N   0  0  0  0  0  0  0  0  0  0  0  0
    7.5798  -13.4157   17.8623 N   0  0  0  0  0  0  0  0  0  0  0  0
    7.5769  -12.9308   19.2252 C   0  0  0  0  0  0  0  0  0  0  0  0
    7.8382  -14.0769   20.1788 C   0  0  0  0  0  0  0  0  0  0  0  0
    7.4671  -13.6777   21.5918 C   0  0  0  0  0  0  0  0  0  0  0  0
    7.7403  -14.8826   22.4933 C   0  0  2  0  0  0  0  0  0  0  0  0
    7.3867  -14.6282   23.8517 N   0  0  0  0  0  0  0  0  0  0  0  0
    9.1842  -15.2035   22.3221 C   0  0  0  0  0  0  0  0  0  0  0  0
    9.9955  -14.3103   22.7039 O   0  0  0  0  0  0  0  0  0  0  0  0
    7.9874  -14.5150   15.5714 O   0  0  0  0  0  0  0  0  0  0  0  0
   10.6951  -19.0390   22.1327 C   0  0  0  0  0  0  0  0  0  0  0  0
   11.4397  -17.9327   22.4887 C   0  0  1  0  0  0  0  0  0  0  0  0
   11.0430  -16.6896   21.7256 N   0  0  0  0  0  0  0  0  0  0  0  0
    9.6395  -16.4275   21.7681 C   0  0  0  0  0  0  0  0  0  0  0  0
   11.5364  -16.7808   20.3240 O   0  0  0  0  0  0  0  0  0  0  0  0
   12.7566  -16.9566   20.0701 O   0  0  0  0  0  0  0  0  0  0  0  0
  2  1  1  1
  2  4  1  0
  3  2  1  0
  4  6  1  0
  4  5  1  1
  6 16  1  0
  7  6  2  0
  9 10  2  0
  9  8  1  0
 11  9  1  0
 12 11  1  0
 13 12  1  0
 14 13  1  0
 15 17  1  0
 15 14  1  6
 16 15  1  0
 17 18  2  0
 19 20  1  0
 21 20  1  1
 22 21  1  0
 22 17  1  0
 23 25  1  0
 23 21  1  0
 24 23  2  0
M  END
$$$$
