AWH.pdb
     RDKit          3D

 30 32  0  0  1  0  0  0  0  0999 V2000
   10.5645  -18.1442   19.1460 C   0  0  0  0  0  0  0  0  0  0  0  0
    9.7331  -16.8830   19.2377 C   0  0  2  0  0  0  0  0  0  0  0  0
   10.2326  -15.9355   18.2855 N   0  0  0  0  0  0  0  0  0  0  0  0
    9.7758  -16.3208   20.6318 C   0  0  0  0  0  0  0  0  0  0  0  0
   10.7984  -15.7375   21.0846 O   0  0  0  0  0  0  0  0  0  0  0  0
    8.6625  -16.4214   21.5043 N   0  0  0  0  0  0  0  0  0  0  0  0
    8.6376  -15.8462   22.8426 C   0  0  1  0  0  0  0  0  0  0  0  0
    7.2384  -15.5453   23.2779 C   0  0  0  0  0  0  0  0  0  0  0  0
    7.0972  -15.0023   24.6413 C   0  0  0  0  0  0  0  0  0  0  0  0
    6.7642  -15.8099   25.7507 C   0  0  0  0  0  0  0  0  0  0  0  0
    6.7280  -15.0566   26.8595 N   0  0  0  0  0  0  0  0  0  0  0  0
    7.0209  -13.7812   26.5439 C   0  0  0  0  0  0  0  0  0  0  0  0
    7.1127  -12.6334   27.2902 C   0  0  0  0  0  0  0  0  0  0  0  0
    7.4326  -11.4488   26.6620 C   0  0  0  0  0  0  0  0  0  0  0  0
    7.6620  -11.3811   25.3144 C   0  0  0  0  0  0  0  0  0  0  0  0
    7.5637  -12.5597   24.5742 C   0  0  0  0  0  0  0  0  0  0  0  0
    7.2480  -13.7517   25.1724 C   0  0  0  0  0  0  0  0  0  0  0  0
    9.4491  -16.6354   23.7622 C   0  0  0  0  0  0  0  0  0  0  0  0
    9.4055  -17.8959   23.8558 O   0  0  0  0  0  0  0  0  0  0  0  0
   10.3674  -15.9192   24.6151 N   0  0  0  0  0  0  0  0  0  0  0  0
   11.1609  -16.6580   25.5591 C   0  0  1  0  0  0  0  0  0  0  0  0
   12.5316  -15.9893   25.6836 C   0  0  0  0  0  0  0  0  0  0  0  0
   13.3482  -16.2018   24.4684 C   0  0  0  0  0  0  0  0  0  0  0  0
   12.8868  -16.1881   23.1782 C   0  0  0  0  0  0  0  0  0  0  0  0
   13.9594  -16.4240   22.3898 N   0  0  0  0  0  0  0  0  0  0  0  0
   15.0596  -16.5819   23.1427 C   0  0  0  0  0  0  0  0  0  0  0  0
   14.6584  -16.4406   24.4223 N   0  0  0  0  0  0  0  0  0  0  0  0
   10.5954  -16.6492   26.9289 C   0  0  0  0  0  0  0  0  0  0  0  0
   11.2299  -17.3297   27.9534 O   0  0  0  0  0  0  0  0  0  0  0  0
    9.5292  -16.0054   27.1119 O   0  0  0  0  0  0  0  0  0  0  0  0
  2  1  1  1
  2  4  1  0
  2  3  1  0
  4  5  2  0
  6  7  1  0
  6  4  1  0
  7  8  1  1
  9  8  1  0
  9 10  2  0
 11 10  1  0
 12 11  1  0
 13 12  2  0
 14 13  1  0
 15 14  2  0
 15 16  1  0
 16 17  2  0
 17 12  1  0
 17  9  1  0
 18 20  1  0
 18  7  1  0
 19 18  2  0
 21 28  1  0
 21 20  1  0
 21 22  1  1
 22 23  1  0
 23 27  1  0
 23 24  2  0
 24 25  1  0
 26 25  1  0
 27 26  2  0
 28 29  1  0
 30 28  2  0
M  END
$$$$
