AWH.pdb
     RDKit          3D

 30 32  0  0  1  0  0  0  0  0999 V2000
    6.4686  -20.1229   21.4227 C   0  0  0  0  0  0  0  0  0  0  0  0
    5.7444  -19.2614   22.4343 C   0  0  2  0  0  0  0  0  0  0  0  0
    4.5462  -18.7568   21.8314 N   0  0  0  0  0  0  0  0  0  0  0  0
    6.6277  -18.1377   22.9018 C   0  0  0  0  0  0  0  0  0  0  0  0
    6.6996  -17.0428   22.2797 O   0  0  0  0  0  0  0  0  0  0  0  0
    7.4234  -18.2590   24.0694 N   0  0  0  0  0  0  0  0  0  0  0  0
    8.2813  -17.1931   24.5697 C   0  0  1  0  0  0  0  0  0  0  0  0
    7.8694  -16.7644   25.9424 C   0  0  0  0  0  0  0  0  0  0  0  0
    7.0823  -15.5197   26.0129 C   0  0  0  0  0  0  0  0  0  0  0  0
    5.6705  -15.5101   25.9829 C   0  0  0  0  0  0  0  0  0  0  0  0
    5.2281  -14.2485   26.0856 N   0  0  0  0  0  0  0  0  0  0  0  0
    6.2785  -13.4122   26.1826 C   0  0  0  0  0  0  0  0  0  0  0  0
    6.3770  -12.0487   26.3009 C   0  0  0  0  0  0  0  0  0  0  0  0
    7.6263  -11.4704   26.3731 C   0  0  0  0  0  0  0  0  0  0  0  0
    8.7739  -12.2148   26.3304 C   0  0  0  0  0  0  0  0  0  0  0  0
    8.6513  -13.5994   26.2101 C   0  0  0  0  0  0  0  0  0  0  0  0
    7.4222  -14.2015   26.1369 C   0  0  0  0  0  0  0  0  0  0  0  0
    9.6885  -17.5312   24.3891 C   0  0  0  0  0  0  0  0  0  0  0  0
   10.2614  -18.5243   24.9228 O   0  0  0  0  0  0  0  0  0  0  0  0
   10.4708  -16.6703   23.5344 N   0  0  0  0  0  0  0  0  0  0  0  0
   11.8554  -16.9850   23.3093 C   0  0  1  0  0  0  0  0  0  0  0  0
   12.4267  -16.0001   22.2869 C   0  0  0  0  0  0  0  0  0  0  0  0
   11.6871  -16.0612   21.0070 C   0  0  0  0  0  0  0  0  0  0  0  0
   10.9426  -17.1210   20.5595 C   0  0  0  0  0  0  0  0  0  0  0  0
   10.4464  -16.7542   19.3566 N   0  0  0  0  0  0  0  0  0  0  0  0
   10.8557  -15.5135   19.0476 C   0  0  0  0  0  0  0  0  0  0  0  0
   11.6202  -15.1056   20.0807 N   0  0  0  0  0  0  0  0  0  0  0  0
   12.6942  -16.8225   24.5201 C   0  0  0  0  0  0  0  0  0  0  0  0
   14.0599  -17.0382   24.4606 O   0  0  0  0  0  0  0  0  0  0  0  0
   12.1150  -16.4858   25.5860 O   0  0  0  0  0  0  0  0  0  0  0  0
  2  1  1  6
  2  4  1  0
  2  3  1  0
  4  5  2  0
  6  7  1  0
  6  4  1  0
  7  8  1  1
  9  8  1  0
  9 10  2  0
 11 10  1  0
 12 11  1  0
 13 12  2  0
 14 13  1  0
 15 14  2  0
 15 16  1  0
 16 17  2  0
 17 12  1  0
 17  9  1  0
 18 20  1  0
 18  7  1  0
 19 18  2  0
 21 28  1  0
 21 20  1  0
 21 22  1  6
 22 23  1  0
 23 27  1  0
 23 24  2  0
 24 25  1  0
 26 25  1  0
 27 26  2  0
 28 29  1  0
 30 28  2  0
M  END
$$$$
