AWH.pdb
     RDKit          3D

 30 32  0  0  1  0  0  0  0  0999 V2000
    7.7260  -18.8943   19.6960 C   0  0  0  0  0  0  0  0  0  0  0  0
    8.2864  -17.4980   19.5329 C   0  0  2  0  0  0  0  0  0  0  0  0
    9.3175  -17.5321   18.5382 N   0  0  0  0  0  0  0  0  0  0  0  0
    8.8170  -16.9840   20.8428 C   0  0  0  0  0  0  0  0  0  0  0  0
    9.9742  -17.2729   21.2531 O   0  0  0  0  0  0  0  0  0  0  0  0
    8.0362  -16.1468   21.6797 N   0  0  0  0  0  0  0  0  0  0  0  0
    8.5336  -15.5621   22.9179 C   0  0  1  0  0  0  0  0  0  0  0  0
    7.7055  -14.3880   23.3344 C   0  0  0  0  0  0  0  0  0  0  0  0
    8.0238  -13.8197   24.6571 C   0  0  0  0  0  0  0  0  0  0  0  0
    9.3267  -13.8432   25.2012 C   0  0  0  0  0  0  0  0  0  0  0  0
    9.3241  -13.2385   26.3981 N   0  0  0  0  0  0  0  0  0  0  0  0
    8.0793  -12.8114   26.6812 C   0  0  0  0  0  0  0  0  0  0  0  0
    7.5422  -12.1513   27.7576 C   0  0  0  0  0  0  0  0  0  0  0  0
    6.1967  -11.8512   27.7570 C   0  0  0  0  0  0  0  0  0  0  0  0
    5.3778  -12.1917   26.7146 C   0  0  0  0  0  0  0  0  0  0  0  0
    5.9442  -12.8621   25.6300 C   0  0  0  0  0  0  0  0  0  0  0  0
    7.2789  -13.1727   25.6032 C   0  0  0  0  0  0  0  0  0  0  0  0
    8.7548  -16.5920   23.9265 C   0  0  0  0  0  0  0  0  0  0  0  0
    7.9064  -17.4721   24.2506 O   0  0  0  0  0  0  0  0  0  0  0  0
   10.0370  -16.6034   24.5897 N   0  0  0  0  0  0  0  0  0  0  0  0
   10.3171  -17.6403   25.5452 C   0  0  1  0  0  0  0  0  0  0  0  0
   11.7520  -18.1297   25.3377 C   0  0  0  0  0  0  0  0  0  0  0  0
   11.8892  -18.8767   24.0681 C   0  0  0  0  0  0  0  0  0  0  0  0
   11.1211  -19.9414   23.6757 C   0  0  0  0  0  0  0  0  0  0  0  0
   11.5837  -20.3151   22.4616 N   0  0  0  0  0  0  0  0  0  0  0  0
   12.6037  -19.5239   22.0929 C   0  0  0  0  0  0  0  0  0  0  0  0
   12.7746  -18.6435   23.0998 N   0  0  0  0  0  0  0  0  0  0  0  0
   10.2637  -17.1690   26.9492 C   0  0  0  0  0  0  0  0  0  0  0  0
   10.5060  -18.0455   27.9924 O   0  0  0  0  0  0  0  0  0  0  0  0
    9.9914  -15.9553   27.1434 O   0  0  0  0  0  0  0  0  0  0  0  0
  2  1  1  1
  2  4  1  0
  2  3  1  0
  4  5  2  0
  6  7  1  0
  6  4  1  0
  7  8  1  1
  9  8  1  0
  9 10  2  0
 11 10  1  0
 12 11  1  0
 13 12  2  0
 14 13  1  0
 15 14  2  0
 15 16  1  0
 16 17  2  0
 17 12  1  0
 17  9  1  0
 18 20  1  0
 18  7  1  0
 19 18  2  0
 21 28  1  0
 21 20  1  0
 21 22  1  6
 22 23  1  0
 23 27  1  0
 23 24  2  0
 24 25  1  0
 26 25  1  0
 27 26  2  0
 28 29  1  0
 30 28  2  0
M  END
$$$$
