AWH.pdb
     RDKit          3D

 30 32  0  0  1  0  0  0  0  0999 V2000
    7.9193  -18.3639   19.3247 C   0  0  0  0  0  0  0  0  0  0  0  0
    8.4885  -16.9618   19.3353 C   0  0  2  0  0  0  0  0  0  0  0  0
    9.6140  -16.9181   18.4492 N   0  0  0  0  0  0  0  0  0  0  0  0
    8.8836  -16.5612   20.7298 C   0  0  0  0  0  0  0  0  0  0  0  0
    9.9430  -16.9820   21.2697 O   0  0  0  0  0  0  0  0  0  0  0  0
    8.0790  -15.6873   21.5044 N   0  0  0  0  0  0  0  0  0  0  0  0
    8.4228  -15.2673   22.8563 C   0  0  1  0  0  0  0  0  0  0  0  0
    7.4881  -14.2089   23.3499 C   0  0  0  0  0  0  0  0  0  0  0  0
    7.6999  -13.7687   24.7410 C   0  0  0  0  0  0  0  0  0  0  0  0
    8.6707  -14.3527   25.5839 C   0  0  0  0  0  0  0  0  0  0  0  0
    8.6555  -13.7410   26.7771 N   0  0  0  0  0  0  0  0  0  0  0  0
    7.7188  -12.7742   26.7726 C   0  0  0  0  0  0  0  0  0  0  0  0
    7.3014  -11.8759   27.7221 C   0  0  0  0  0  0  0  0  0  0  0  0
    6.2892  -10.9933   27.4112 C   0  0  0  0  0  0  0  0  0  0  0  0
    5.6860  -10.9847   26.1827 C   0  0  0  0  0  0  0  0  0  0  0  0
    6.1256  -11.9061   25.2317 C   0  0  0  0  0  0  0  0  0  0  0  0
    7.1305  -12.7948   25.5130 C   0  0  0  0  0  0  0  0  0  0  0  0
    8.6145  -16.4223   23.7260 C   0  0  0  0  0  0  0  0  0  0  0  0
    7.8638  -17.4400   23.7422 O   0  0  0  0  0  0  0  0  0  0  0  0
    9.7465  -16.3952   24.6214 N   0  0  0  0  0  0  0  0  0  0  0  0
   10.2114  -17.6296   25.1931 C   0  0  1  0  0  0  0  0  0  0  0  0
   11.4925  -18.0565   24.4733 C   0  0  0  0  0  0  0  0  0  0  0  0
   11.9627  -19.3772   24.9461 C   0  0  0  0  0  0  0  0  0  0  0  0
   11.3726  -20.1379   25.9212 C   0  0  0  0  0  0  0  0  0  0  0  0
   12.1229  -21.2567   26.0348 N   0  0  0  0  0  0  0  0  0  0  0  0
   13.1488  -21.2140   25.1699 C   0  0  0  0  0  0  0  0  0  0  0  0
   13.0297  -20.0449   24.5086 N   0  0  0  0  0  0  0  0  0  0  0  0
   10.5878  -17.5053   26.6210 C   0  0  0  0  0  0  0  0  0  0  0  0
   10.7639  -18.6353   27.4003 O   0  0  0  0  0  0  0  0  0  0  0  0
   10.7360  -16.3434   27.0825 O   0  0  0  0  0  0  0  0  0  0  0  0
  2  1  1  1
  2  4  1  0
  2  3  1  0
  4  5  2  0
  6  7  1  0
  6  4  1  0
  7  8  1  1
  9  8  1  0
  9 10  2  0
 11 10  1  0
 12 11  1  0
 13 12  2  0
 14 13  1  0
 15 14  2  0
 15 16  1  0
 16 17  2  0
 17 12  1  0
 17  9  1  0
 18 20  1  0
 18  7  1  0
 19 18  2  0
 21 28  1  0
 21 20  1  0
 21 22  1  6
 22 23  1  0
 23 27  1  0
 23 24  2  0
 24 25  1  0
 26 25  1  0
 27 26  2  0
 28 29  1  0
 30 28  2  0
M  END
$$$$
