AWH.pdb
     RDKit          3D

 30 32  0  0  1  0  0  0  0  0999 V2000
    7.8591  -15.3350   19.1748 C   0  0  0  0  0  0  0  0  0  0  0  0
    7.4442  -14.3603   20.2555 C   0  0  2  0  0  0  0  0  0  0  0  0
    7.4573  -13.0363   19.7072 N   0  0  0  0  0  0  0  0  0  0  0  0
    8.3629  -14.4622   21.4417 C   0  0  0  0  0  0  0  0  0  0  0  0
    9.4088  -13.7638   21.5372 O   0  0  0  0  0  0  0  0  0  0  0  0
    8.0930  -15.3526   22.5120 N   0  0  0  0  0  0  0  0  0  0  0  0
    9.0372  -15.6233   23.5878 C   0  0  1  0  0  0  0  0  0  0  0  0
    8.3287  -16.0109   24.8469 C   0  0  0  0  0  0  0  0  0  0  0  0
    7.3919  -15.0084   25.3866 C   0  0  0  0  0  0  0  0  0  0  0  0
    6.0237  -15.2841   25.6010 C   0  0  0  0  0  0  0  0  0  0  0  0
    5.4234  -14.2018   26.1172 N   0  0  0  0  0  0  0  0  0  0  0  0
    6.3264  -13.2135   26.2580 C   0  0  0  0  0  0  0  0  0  0  0  0
    6.2348  -11.9263   26.7245 C   0  0  0  0  0  0  0  0  0  0  0  0
    7.3641  -11.1359   26.7377 C   0  0  0  0  0  0  0  0  0  0  0  0
    8.5765  -11.5954   26.2992 C   0  0  0  0  0  0  0  0  0  0  0  0
    8.6477  -12.9071   25.8291 C   0  0  0  0  0  0  0  0  0  0  0  0
    7.5412  -13.7157   25.8051 C   0  0  0  0  0  0  0  0  0  0  0  0
   10.0966  -16.5181   23.1361 C   0  0  0  0  0  0  0  0  0  0  0  0
    9.9014  -17.6427   22.5915 O   0  0  0  0  0  0  0  0  0  0  0  0
   11.4586  -16.0771   23.3217 N   0  0  0  0  0  0  0  0  0  0  0  0
   12.5290  -17.0097   23.0959 C   0  0  1  0  0  0  0  0  0  0  0  0
   13.7247  -16.2574   22.5077 C   0  0  0  0  0  0  0  0  0  0  0  0
   13.4128  -15.7109   21.1686 C   0  0  0  0  0  0  0  0  0  0  0  0
   13.1145  -16.4455   20.0510 C   0  0  0  0  0  0  0  0  0  0  0  0
   12.8990  -15.5536   19.0580 N   0  0  0  0  0  0  0  0  0  0  0  0
   13.0529  -14.3026   19.5201 C   0  0  0  0  0  0  0  0  0  0  0  0
   13.3698  -14.4241   20.8251 N   0  0  0  0  0  0  0  0  0  0  0  0
   13.0331  -17.6315   24.3430 C   0  0  0  0  0  0  0  0  0  0  0  0
   12.4611  -17.3176   25.5635 O   0  0  0  0  0  0  0  0  0  0  0  0
   13.9897  -18.4434   24.2405 O   0  0  0  0  0  0  0  0  0  0  0  0
  2  1  1  6
  2  4  1  0
  2  3  1  0
  4  5  2  0
  6  7  1  0
  6  4  1  0
  7  8  1  1
  9  8  1  0
  9 10  2  0
 11 10  1  0
 12 11  1  0
 13 12  2  0
 14 13  1  0
 15 14  2  0
 15 16  1  0
 16 17  2  0
 17 12  1  0
 17  9  1  0
 18 20  1  0
 18  7  1  0
 19 18  2  0
 21 28  1  0
 21 20  1  0
 21 22  1  1
 22 23  1  0
 23 27  1  0
 23 24  2  0
 24 25  1  0
 26 25  1  0
 27 26  2  0
 28 29  1  0
 30 28  2  0
M  END
$$$$
