IRQ.pdb
     RDKit          3D

 29 28  0  0  1  0  0  0  0  0999 V2000
    6.9388  -12.0135   21.8178 C   0  0  0  0  0  0  0  0  0  0  0  0
    6.9099  -12.4405   20.3791 C   0  0  0  0  0  0  0  0  0  0  0  0
    8.2227  -13.2150   20.0959 C   0  0  2  0  0  0  0  0  0  0  0  0
    8.9644  -12.3713   19.0757 C   0  0  0  0  0  0  0  0  0  0  0  0
    7.8676  -14.5626   19.5905 C   0  0  2  0  0  0  0  0  0  0  0  0
    6.9680  -15.2331   20.5708 N   0  0  0  0  0  0  0  0  0  0  0  0
    8.9432  -15.5244   19.3274 C   0  0  0  0  0  0  0  0  0  0  0  0
    9.2536  -16.3726   20.2604 O   0  0  0  0  0  0  0  0  0  0  0  0
   15.6572  -19.3921   17.6818 N   0  0  0  0  0  0  0  0  0  0  0  0
   15.5650  -19.2095   16.2669 C   0  0  0  0  0  0  0  0  0  0  0  0
   16.6594  -19.1812   15.6018 N   0  0  0  0  0  0  0  0  0  0  0  0
   14.3088  -19.0662   15.6201 N   0  0  0  0  0  0  0  0  0  0  0  0
   13.5125  -17.8748   15.8285 C   0  0  0  0  0  0  0  0  0  0  0  0
   12.4383  -18.0943   16.8477 C   0  0  0  0  0  0  0  0  0  0  0  0
   11.3505  -17.0688   16.8400 C   0  0  0  0  0  0  0  0  0  0  0  0
   10.8328  -16.5927   18.1232 C   0  0  2  0  0  0  0  0  0  0  0  0
    9.7273  -15.6806   18.1570 N   0  0  0  0  0  0  0  0  0  0  0  0
   11.9342  -16.1376   19.0557 C   0  0  0  0  0  0  0  0  0  0  0  0
   12.2602  -14.9190   18.9717 O   0  0  0  0  0  0  0  0  0  0  0  0
   16.7670  -19.0630   14.5834 N   0  0  0  0  0  0  0  0  0  0  0  0
   12.4058  -15.8189   25.7475 C   0  0  0  0  0  0  0  0  0  0  0  0
   12.7520  -16.8497   24.7997 O   0  0  0  0  0  0  0  0  0  0  0  0
   12.3999  -18.0044   25.1297 C   0  0  0  0  0  0  0  0  0  0  0  0
   13.4640  -16.5142   23.5550 C   0  0  0  0  0  0  0  0  0  0  0  0
   12.6759  -16.8672   22.3327 C   0  0  1  0  0  0  0  0  0  0  0  0
   13.3619  -16.5384   21.0434 N   0  0  0  0  0  0  0  0  0  0  0  0
   12.5367  -17.0278   19.9451 C   0  0  0  0  0  0  0  0  0  0  0  0
   14.6741  -17.2563   20.9479 O   0  0  0  0  0  0  0  0  0  0  0  0
   15.8372  -16.6070   20.6056 O   0  0  0  0  0  0  0  0  0  0  0  0
  2  3  1  0
  2  1  1  0
  3  4  1  6
  5  6  1  1
  5  3  1  0
  7  5  1  0
  8  7  2  0
  9 10  1  0
 10 12  1  0
 11 10  2  0
 13 12  1  0
 13 14  1  0
 15 14  1  0
 16 15  1  6
 16 17  1  0
 17  7  1  0
 18 16  1  0
 18 26  1  0
 19 18  2  0
 20 21  1  0
 21 23  1  0
 22 21  2  0
 23 24  1  0
 25 26  1  0
 25 24  1  6
 25 27  1  0
 27 28  1  0
 29 27  2  0
M  END
$$$$
