IRQ.pdb
     RDKit          3D

 29 28  0  0  1  0  0  0  0  0999 V2000
    6.6788  -11.6762   28.3628 C   0  0  0  0  0  0  0  0  0  0  0  0
    5.9238  -12.5955   27.4474 C   0  0  0  0  0  0  0  0  0  0  0  0
    6.9187  -13.1047   26.3731 C   0  0  2  0  0  0  0  0  0  0  0  0
    7.4299  -11.8521   25.6857 C   0  0  0  0  0  0  0  0  0  0  0  0
    6.1894  -14.0153   25.4585 C   0  0  2  0  0  0  0  0  0  0  0  0
    5.8216  -15.2580   26.1935 N   0  0  0  0  0  0  0  0  0  0  0  0
    6.8567  -14.4699   24.2341 C   0  0  0  0  0  0  0  0  0  0  0  0
    7.4672  -15.6158   24.2537 O   0  0  0  0  0  0  0  0  0  0  0  0
    8.8687  -15.8841   15.0175 N   0  0  0  0  0  0  0  0  0  0  0  0
    9.0535  -14.9651   16.0969 C   0  0  0  0  0  0  0  0  0  0  0  0
   10.1911  -14.3834   16.1901 N   0  0  0  0  0  0  0  0  0  0  0  0
    8.0165  -14.7036   17.0312 N   0  0  0  0  0  0  0  0  0  0  0  0
    8.2308  -13.7694   18.1168 C   0  0  0  0  0  0  0  0  0  0  0  0
    8.3402  -14.4659   19.4373 C   0  0  0  0  0  0  0  0  0  0  0  0
    7.6241  -13.7894   20.5618 C   0  0  0  0  0  0  0  0  0  0  0  0
    7.6548  -14.4154   21.8841 C   0  0  2  0  0  0  0  0  0  0  0  0
    6.9367  -13.8240   22.9748 N   0  0  0  0  0  0  0  0  0  0  0  0
    9.0560  -14.7988   22.3077 C   0  0  0  0  0  0  0  0  0  0  0  0
    9.7119  -13.9065   22.9176 O   0  0  0  0  0  0  0  0  0  0  0  0
   10.5102  -13.7553   16.9427 N   0  0  0  0  0  0  0  0  0  0  0  0
   11.7165  -20.5645   24.8415 C   0  0  0  0  0  0  0  0  0  0  0  0
   11.6587  -19.1563   25.1485 O   0  0  0  0  0  0  0  0  0  0  0  0
   11.3828  -18.8908   26.3400 C   0  0  0  0  0  0  0  0  0  0  0  0
   11.9138  -18.1507   24.1033 C   0  0  0  0  0  0  0  0  0  0  0  0
   10.6548  -17.5168   23.6003 C   0  0  1  0  0  0  0  0  0  0  0  0
   10.8702  -16.4720   22.5500 N   0  0  0  0  0  0  0  0  0  0  0  0
    9.5693  -16.0662   22.0309 C   0  0  0  0  0  0  0  0  0  0  0  0
   11.6365  -17.0392   21.3935 O   0  0  0  0  0  0  0  0  0  0  0  0
   13.0108  -17.0916   21.3850 O   0  0  0  0  0  0  0  0  0  0  0  0
  2  3  1  0
  2  1  1  0
  3  4  1  6
  5  6  1  1
  5  3  1  0
  7  5  1  0
  8  7  2  0
  9 10  1  0
 10 12  1  0
 11 10  2  0
 13 12  1  0
 13 14  1  0
 15 14  1  0
 16 15  1  6
 16 17  1  0
 17  7  1  0
 18 16  1  0
 18 26  1  0
 19 18  2  0
 20 21  1  0
 21 23  1  0
 22 21  2  0
 23 24  1  0
 25 26  1  0
 25 24  1  1
 25 27  1  0
 27 28  1  0
 29 27  2  0
M  END
$$$$
