IRQ.pdb
     RDKit          3D

 29 28  0  0  1  0  0  0  0  0999 V2000
    7.0491  -12.3565   28.6189 C   0  0  0  0  0  0  0  0  0  0  0  0
    6.2202  -12.6702   27.4074 C   0  0  0  0  0  0  0  0  0  0  0  0
    7.1810  -13.1855   26.3054 C   0  0  2  0  0  0  0  0  0  0  0  0
    7.5732  -11.9499   25.5166 C   0  0  0  0  0  0  0  0  0  0  0  0
    6.4578  -14.1916   25.4914 C   0  0  2  0  0  0  0  0  0  0  0  0
    6.2404  -15.4189   26.3077 N   0  0  0  0  0  0  0  0  0  0  0  0
    7.0661  -14.6579   24.2410 C   0  0  0  0  0  0  0  0  0  0  0  0
    7.6785  -15.8030   24.2427 O   0  0  0  0  0  0  0  0  0  0  0  0
    8.0710  -13.0791   15.3309 N   0  0  0  0  0  0  0  0  0  0  0  0
    8.5222  -14.4032   15.6256 C   0  0  0  0  0  0  0  0  0  0  0  0
    8.9120  -15.1274   14.6435 N   0  0  0  0  0  0  0  0  0  0  0  0
    8.5402  -14.8993   16.9562 N   0  0  0  0  0  0  0  0  0  0  0  0
    8.1100  -14.0589   18.0542 C   0  0  0  0  0  0  0  0  0  0  0  0
    8.2622  -14.7471   19.3749 C   0  0  0  0  0  0  0  0  0  0  0  0
    7.6867  -14.0033   20.5371 C   0  0  0  0  0  0  0  0  0  0  0  0
    7.7951  -14.6002   21.8687 C   0  0  2  0  0  0  0  0  0  0  0  0
    7.0844  -14.0249   22.9728 N   0  0  0  0  0  0  0  0  0  0  0  0
    9.2281  -14.9019   22.2500 C   0  0  0  0  0  0  0  0  0  0  0  0
    9.8418  -13.9816   22.8622 O   0  0  0  0  0  0  0  0  0  0  0  0
    9.2913  -16.0850   14.6871 N   0  0  0  0  0  0  0  0  0  0  0  0
   10.9058  -19.6293   25.2748 C   0  0  0  0  0  0  0  0  0  0  0  0
   12.2060  -19.2875   24.7519 O   0  0  0  0  0  0  0  0  0  0  0  0
   13.1518  -19.9614   25.2181 C   0  0  0  0  0  0  0  0  0  0  0  0
   12.3526  -18.2202   23.7478 C   0  0  0  0  0  0  0  0  0  0  0  0
   11.0386  -17.6222   23.3532 C   0  0  1  0  0  0  0  0  0  0  0  0
   11.1492  -16.4614   22.4144 N   0  0  0  0  0  0  0  0  0  0  0  0
    9.8129  -16.1286   21.9345 C   0  0  0  0  0  0  0  0  0  0  0  0
   11.9579  -16.8351   21.2091 O   0  0  0  0  0  0  0  0  0  0  0  0
   13.3307  -16.7530   21.1981 O   0  0  0  0  0  0  0  0  0  0  0  0
  2  3  1  0
  2  1  1  0
  3  4  1  6
  5  6  1  1
  5  3  1  0
  7  5  1  0
  8  7  2  0
  9 10  1  0
 10 12  1  0
 11 10  2  0
 13 12  1  0
 13 14  1  0
 15 14  1  0
 16 15  1  6
 16 17  1  0
 17  7  1  0
 18 16  1  0
 18 26  1  0
 19 18  2  0
 20 21  1  0
 21 23  1  0
 22 21  2  0
 23 24  1  0
 25 26  1  0
 25 24  1  1
 25 27  1  0
 27 28  1  0
 29 27  2  0
M  END
$$$$
