IRQ.pdb
     RDKit          3D

 29 28  0  0  1  0  0  0  0  0999 V2000
    6.6648  -11.6794   27.7933 C   0  0  0  0  0  0  0  0  0  0  0  0
    6.0890  -12.9271   27.1890 C   0  0  0  0  0  0  0  0  0  0  0  0
    7.1298  -13.4813   26.1826 C   0  0  2  0  0  0  0  0  0  0  0  0
    7.3348  -12.3656   25.1747 C   0  0  0  0  0  0  0  0  0  0  0  0
    6.5798  -14.7185   25.5790 C   0  0  2  0  0  0  0  0  0  0  0  0
    6.4940  -15.7778   26.6232 N   0  0  0  0  0  0  0  0  0  0  0  0
    7.2945  -15.3348   24.4564 C   0  0  0  0  0  0  0  0  0  0  0  0
    8.0949  -16.3267   24.7050 O   0  0  0  0  0  0  0  0  0  0  0  0
    7.7180  -15.1458   15.5915 N   0  0  0  0  0  0  0  0  0  0  0  0
    8.2512  -14.2691   16.5870 C   0  0  0  0  0  0  0  0  0  0  0  0
    8.4587  -13.0503   16.2517 N   0  0  0  0  0  0  0  0  0  0  0  0
    8.5396  -14.7288   17.8993 N   0  0  0  0  0  0  0  0  0  0  0  0
    8.2422  -16.0952   18.2757 C   0  0  0  0  0  0  0  0  0  0  0  0
    8.5569  -16.3571   19.7156 C   0  0  0  0  0  0  0  0  0  0  0  0
    7.7855  -15.5214   20.6860 C   0  0  0  0  0  0  0  0  0  0  0  0
    8.0345  -15.7060   22.1161 C   0  0  2  0  0  0  0  0  0  0  0  0
    7.2391  -15.0028   23.0794 N   0  0  0  0  0  0  0  0  0  0  0  0
    9.5047  -15.6130   22.4617 C   0  0  0  0  0  0  0  0  0  0  0  0
    9.9388  -14.4541   22.7201 O   0  0  0  0  0  0  0  0  0  0  0  0
    8.8575  -12.3019   16.8378 N   0  0  0  0  0  0  0  0  0  0  0  0
   12.1910  -19.9190   25.8081 C   0  0  0  0  0  0  0  0  0  0  0  0
   13.3435  -19.1294   25.4492 O   0  0  0  0  0  0  0  0  0  0  0  0
   14.4241  -19.5268   25.9396 C   0  0  0  0  0  0  0  0  0  0  0  0
   13.2035  -17.9566   24.5696 C   0  0  0  0  0  0  0  0  0  0  0  0
   11.8258  -17.8313   23.9989 C   0  0  1  0  0  0  0  0  0  0  0  0
   11.6601  -16.6959   23.0373 N   0  0  0  0  0  0  0  0  0  0  0  0
   10.3106  -16.7516   22.4875 C   0  0  0  0  0  0  0  0  0  0  0  0
   12.6017  -16.8448   21.8807 O   0  0  0  0  0  0  0  0  0  0  0  0
   13.7722  -16.1274   21.7965 O   0  0  0  0  0  0  0  0  0  0  0  0
  2  3  1  0
  2  1  1  0
  3  4  1  6
  5  6  1  1
  5  3  1  0
  7  5  1  0
  8  7  2  0
  9 10  1  0
 10 12  1  0
 11 10  2  0
 13 12  1  0
 13 14  1  0
 15 14  1  0
 16 15  1  6
 16 17  1  0
 17  7  1  0
 18 16  1  0
 18 26  1  0
 19 18  2  0
 20 21  1  0
 21 23  1  0
 22 21  2  0
 23 24  1  0
 25 26  1  0
 25 24  1  1
 25 27  1  0
 27 28  1  0
 29 27  2  0
M  END
$$$$
