IRQ.pdb
     RDKit          3D

 29 28  0  0  1  0  0  0  0  0999 V2000
    7.4910  -11.1375   27.1756 C   0  0  0  0  0  0  0  0  0  0  0  0
    6.6367  -12.3593   27.3500 C   0  0  0  0  0  0  0  0  0  0  0  0
    6.4469  -12.9994   25.9509 C   0  0  2  0  0  0  0  0  0  0  0  0
    5.0297  -13.5419   25.9558 C   0  0  0  0  0  0  0  0  0  0  0  0
    7.4743  -14.0542   25.7790 C   0  0  2  0  0  0  0  0  0  0  0  0
    8.7691  -13.5739   26.3382 N   0  0  0  0  0  0  0  0  0  0  0  0
    7.7849  -14.5236   24.4247 C   0  0  0  0  0  0  0  0  0  0  0  0
    7.4816  -15.7467   24.1113 O   0  0  0  0  0  0  0  0  0  0  0  0
    9.1102  -15.1712   16.4183 N   0  0  0  0  0  0  0  0  0  0  0  0
    8.0192  -14.2494   16.3572 C   0  0  0  0  0  0  0  0  0  0  0  0
    7.7171  -13.7659   15.2101 N   0  0  0  0  0  0  0  0  0  0  0  0
    7.2948  -13.8827   17.5224 N   0  0  0  0  0  0  0  0  0  0  0  0
    7.4298  -14.6562   18.7391 C   0  0  0  0  0  0  0  0  0  0  0  0
    8.6322  -14.2446   19.5301 C   0  0  0  0  0  0  0  0  0  0  0  0
    8.3261  -13.6225   20.8546 C   0  0  0  0  0  0  0  0  0  0  0  0
    8.5462  -14.4157   22.0644 C   0  0  2  0  0  0  0  0  0  0  0  0
    8.3873  -13.8139   23.3557 N   0  0  0  0  0  0  0  0  0  0  0  0
    9.8255  -15.2214   22.0002 C   0  0  0  0  0  0  0  0  0  0  0  0
   10.7975  -14.7680   22.6696 O   0  0  0  0  0  0  0  0  0  0  0  0
    6.9470  -13.1167   14.9905 N   0  0  0  0  0  0  0  0  0  0  0  0
   10.1746  -19.7968   24.8628 C   0  0  0  0  0  0  0  0  0  0  0  0
   11.4384  -19.9418   24.1829 O   0  0  0  0  0  0  0  0  0  0  0  0
   12.2603  -20.6896   24.7588 C   0  0  0  0  0  0  0  0  0  0  0  0
   11.6895  -19.2425   22.9114 C   0  0  0  0  0  0  0  0  0  0  0  0
   10.7554  -18.0931   22.6970 C   0  0  1  0  0  0  0  0  0  0  0  0
   11.0002  -17.3302   21.4324 N   0  0  0  0  0  0  0  0  0  0  0  0
    9.9018  -16.3900   21.2421 C   0  0  0  0  0  0  0  0  0  0  0  0
   10.9862  -18.2523   20.2509 O   0  0  0  0  0  0  0  0  0  0  0  0
   12.0245  -19.1146   19.9867 O   0  0  0  0  0  0  0  0  0  0  0  0
  2  3  1  0
  2  1  1  0
  3  4  1  1
  5  6  1  6
  5  3  1  0
  7  5  1  0
  8  7  2  0
  9 10  1  0
 10 12  1  0
 11 10  2  0
 13 12  1  0
 13 14  1  0
 15 14  1  0
 16 15  1  6
 16 17  1  0
 17  7  1  0
 18 16  1  0
 18 26  1  0
 19 18  2  0
 20 21  1  0
 21 23  1  0
 22 21  2  0
 23 24  1  0
 25 26  1  0
 25 24  1  1
 25 27  1  0
 27 28  1  0
 29 27  2  0
M  END
$$$$
