IRQ.pdb
     RDKit          3D

 29 28  0  0  1  0  0  0  0  0999 V2000
    6.0274  -11.3591   27.7558 C   0  0  0  0  0  0  0  0  0  0  0  0
    5.5957  -12.6440   27.1109 C   0  0  0  0  0  0  0  0  0  0  0  0
    6.7536  -13.1189   26.1961 C   0  0  2  0  0  0  0  0  0  0  0  0
    7.0159  -11.9555   25.2579 C   0  0  0  0  0  0  0  0  0  0  0  0
    6.3158  -14.3481   25.4925 C   0  0  2  0  0  0  0  0  0  0  0  0
    6.0464  -15.4176   26.4942 N   0  0  0  0  0  0  0  0  0  0  0  0
    7.2154  -14.9557   24.5062 C   0  0  0  0  0  0  0  0  0  0  0  0
    8.0391  -15.8759   24.9074 O   0  0  0  0  0  0  0  0  0  0  0  0
    7.7210  -13.1531   17.2221 N   0  0  0  0  0  0  0  0  0  0  0  0
    8.6701  -14.2032   17.4226 C   0  0  0  0  0  0  0  0  0  0  0  0
    9.8261  -14.0655   16.8880 N   0  0  0  0  0  0  0  0  0  0  0  0
    8.3470  -15.3562   18.1862 N   0  0  0  0  0  0  0  0  0  0  0  0
    7.0073  -15.5355   18.7057 C   0  0  0  0  0  0  0  0  0  0  0  0
    6.9453  -15.2934   20.1817 C   0  0  0  0  0  0  0  0  0  0  0  0
    8.2761  -15.2128   20.8582 C   0  0  0  0  0  0  0  0  0  0  0  0
    8.3243  -15.3260   22.3163 C   0  0  2  0  0  0  0  0  0  0  0  0
    7.3249  -14.6845   23.1192 N   0  0  0  0  0  0  0  0  0  0  0  0
    9.7082  -15.0638   22.8692 C   0  0  0  0  0  0  0  0  0  0  0  0
    9.9221  -13.8902   23.2879 O   0  0  0  0  0  0  0  0  0  0  0  0
   10.6161  -14.7263   16.9325 N   0  0  0  0  0  0  0  0  0  0  0  0
   10.3199  -16.5146   27.9709 C   0  0  0  0  0  0  0  0  0  0  0  0
   11.6742  -16.8424   27.5977 O   0  0  0  0  0  0  0  0  0  0  0  0
   12.2967  -17.5309   28.4371 C   0  0  0  0  0  0  0  0  0  0  0  0
   12.2312  -16.3781   26.3159 C   0  0  0  0  0  0  0  0  0  0  0  0
   11.2090  -16.3558   25.2231 C   0  0  1  0  0  0  0  0  0  0  0  0
   11.7620  -16.0268   23.8714 N   0  0  0  0  0  0  0  0  0  0  0  0
   10.6714  -16.0725   22.9043 C   0  0  0  0  0  0  0  0  0  0  0  0
   12.7583  -17.0621   23.4447 O   0  0  0  0  0  0  0  0  0  0  0  0
   12.4634  -18.0083   22.4911 O   0  0  0  0  0  0  0  0  0  0  0  0
  2  3  1  0
  2  1  1  0
  3  4  1  6
  5  6  1  1
  5  3  1  0
  7  5  1  0
  8  7  2  0
  9 10  1  0
 10 12  1  0
 11 10  2  0
 13 12  1  0
 13 14  1  0
 15 14  1  0
 16 15  1  6
 16 17  1  0
 17  7  1  0
 18 16  1  0
 18 26  1  0
 19 18  2  0
 20 21  1  0
 21 23  1  0
 22 21  2  0
 23 24  1  0
 25 26  1  0
 25 24  1  1
 25 27  1  0
 27 28  1  0
 29 27  2  0
M  END
$$$$
