IRQ.pdb
     RDKit          3D

 29 28  0  0  1  0  0  0  0  0999 V2000
    7.3298  -11.6747   27.8866 C   0  0  0  0  0  0  0  0  0  0  0  0
    6.4934  -12.5032   26.9554 C   0  0  0  0  0  0  0  0  0  0  0  0
    7.4508  -13.1605   25.9284 C   0  0  2  0  0  0  0  0  0  0  0  0
    7.6726  -12.1018   24.8642 C   0  0  0  0  0  0  0  0  0  0  0  0
    6.8008  -14.3859   25.4052 C   0  0  2  0  0  0  0  0  0  0  0  0
    6.6417  -15.3686   26.5136 N   0  0  0  0  0  0  0  0  0  0  0  0
    7.4557  -15.1246   24.3205 C   0  0  0  0  0  0  0  0  0  0  0  0
    8.2366  -16.1142   24.6323 O   0  0  0  0  0  0  0  0  0  0  0  0
    6.4226  -14.6161   16.7780 N   0  0  0  0  0  0  0  0  0  0  0  0
    7.7427  -14.1554   17.0757 C   0  0  0  0  0  0  0  0  0  0  0  0
    8.0111  -12.9280   16.8256 N   0  0  0  0  0  0  0  0  0  0  0  0
    8.7214  -15.0228   17.6293 N   0  0  0  0  0  0  0  0  0  0  0  0
    8.3319  -16.3017   18.1860 C   0  0  0  0  0  0  0  0  0  0  0  0
    8.7064  -16.4175   19.6307 C   0  0  0  0  0  0  0  0  0  0  0  0
    7.8542  -15.6180   20.5632 C   0  0  0  0  0  0  0  0  0  0  0  0
    8.1040  -15.7261   22.0010 C   0  0  2  0  0  0  0  0  0  0  0  0
    7.3587  -14.9184   22.9215 N   0  0  0  0  0  0  0  0  0  0  0  0
    9.5800  -15.6972   22.3332 C   0  0  0  0  0  0  0  0  0  0  0  0
   10.1787  -14.6100   22.0927 O   0  0  0  0  0  0  0  0  0  0  0  0
    8.9185  -12.4525   16.9405 N   0  0  0  0  0  0  0  0  0  0  0  0
   13.7521  -14.2771   20.2903 C   0  0  0  0  0  0  0  0  0  0  0  0
   14.3444  -14.6235   21.5591 O   0  0  0  0  0  0  0  0  0  0  0  0
   15.5130  -14.2068   21.7230 C   0  0  0  0  0  0  0  0  0  0  0  0
   13.5878  -15.4079   22.5496 C   0  0  0  0  0  0  0  0  0  0  0  0
   12.2217  -15.7778   22.0631 C   0  0  1  0  0  0  0  0  0  0  0  0
   11.6535  -17.0063   22.7028 N   0  0  0  0  0  0  0  0  0  0  0  0
   10.2177  -16.8151   22.8717 C   0  0  0  0  0  0  0  0  0  0  0  0
   12.2259  -17.1974   24.0747 O   0  0  0  0  0  0  0  0  0  0  0  0
   13.5498  -17.5118   24.2750 O   0  0  0  0  0  0  0  0  0  0  0  0
  2  3  1  0
  2  1  1  0
  3  4  1  6
  5  6  1  1
  5  3  1  0
  7  5  1  0
  8  7  2  0
  9 10  1  0
 10 12  1  0
 11 10  2  0
 13 12  1  0
 13 14  1  0
 15 14  1  0
 16 15  1  6
 16 17  1  0
 17  7  1  0
 18 16  1  0
 18 26  1  0
 19 18  2  0
 20 21  1  0
 21 23  1  0
 22 21  2  0
 23 24  1  0
 25 26  1  0
 25 24  1  6
 25 27  1  0
 27 28  1  0
 29 27  2  0
M  END
$$$$
