VNG.pdb
     RDKit          3D

 20 19  0  0  1  0  0  0  0  0999 V2000
   15.8586  -12.8675  -16.4705 C   0  0  0  0  0  0  0  0  0  0  0  0
   16.0333  -11.4951  -15.8574 C   0  0  1  0  0  0  0  0  0  0  0  0
   15.4293  -11.4406  -14.4726 C   0  0  0  0  0  0  0  0  0  0  0  0
   17.5140  -11.1786  -15.8075 C   0  0  2  0  0  0  0  0  0  0  0  0
   18.2445  -12.2283  -15.0962 N   0  0  0  0  0  0  0  0  0  0  0  0
   17.7720   -9.8545  -15.2053 C   0  0  0  0  0  0  0  0  0  0  0  0
   17.3172   -8.8342  -15.7472 O   0  0  0  0  0  0  0  0  0  0  0  0
   16.8140   -9.4158  -10.4366 N   0  0  0  0  0  0  0  0  0  0  0  0
   17.2255   -8.5067  -11.4397 C   0  0  0  0  0  0  0  0  0  0  0  0
   16.3531   -7.7545  -11.9365 O   0  0  0  0  0  0  0  0  0  0  0  0
   18.6322   -8.4350  -11.8962 C   0  0  0  0  0  0  0  0  0  0  0  0
   18.7548   -8.3887  -13.3996 C   0  0  2  0  0  0  0  0  0  0  0  0
   18.5300   -9.6822  -14.0118 N   0  0  0  0  0  0  0  0  0  0  0  0
   20.1458   -7.9155  -13.6801 C   0  0  0  0  0  0  0  0  0  0  0  0
   21.0797   -8.7314  -13.5691 O   0  0  0  0  0  0  0  0  0  0  0  0
   20.4442   -6.5998  -14.0607 N   0  0  0  0  0  0  0  0  0  0  0  0
   21.7983   -6.2251  -14.4161 C   0  0  0  0  0  0  0  0  0  0  0  0
   21.8269   -4.8087  -14.8745 C   0  0  0  0  0  0  0  0  0  0  0  0
   23.0350   -4.1720  -15.1202 O   0  0  0  0  0  0  0  0  0  0  0  0
   20.7767   -4.1435  -15.0545 O   0  0  0  0  0  0  0  0  0  0  0  0
  2  1  1  1
  3  2  1  0
  4  2  1  0
  4  5  1  1
  6  4  1  0
  6  7  2  0
  8  9  1  0
  9 11  1  0
 10  9  2  0
 12 11  1  1
 12 13  1  0
 12 14  1  0
 13  6  1  0
 14 16  1  0
 15 14  2  0
 16 17  1  0
 17 18  1  0
 18 19  1  0
 20 18  2  0
M  END
$$$$
