VNG.pdb
     RDKit          3D

 20 19  0  0  1  0  0  0  0  0999 V2000
   15.7945   -9.4144  -18.1608 C   0  0  0  0  0  0  0  0  0  0  0  0
   16.5111   -8.5859  -17.1167 C   0  0  1  0  0  0  0  0  0  0  0  0
   15.5501   -8.1104  -16.0510 C   0  0  0  0  0  0  0  0  0  0  0  0
   17.6100   -9.4316  -16.5067 C   0  0  2  0  0  0  0  0  0  0  0  0
   17.0602  -10.6607  -15.9337 N   0  0  0  0  0  0  0  0  0  0  0  0
   18.3855   -8.6796  -15.4990 C   0  0  0  0  0  0  0  0  0  0  0  0
   18.1006   -8.7920  -14.2957 O   0  0  0  0  0  0  0  0  0  0  0  0
   22.6303   -9.6097  -15.2375 N   0  0  0  0  0  0  0  0  0  0  0  0
   22.0745   -8.6111  -14.4034 C   0  0  0  0  0  0  0  0  0  0  0  0
   21.9194   -8.8870  -13.1896 O   0  0  0  0  0  0  0  0  0  0  0  0
   21.6853   -7.2836  -14.9311 C   0  0  0  0  0  0  0  0  0  0  0  0
   20.1974   -7.0418  -14.8593 C   0  0  2  0  0  0  0  0  0  0  0  0
   19.4645   -7.8150  -15.8407 N   0  0  0  0  0  0  0  0  0  0  0  0
   20.0107   -5.5782  -15.1055 C   0  0  0  0  0  0  0  0  0  0  0  0
   20.5877   -4.7748  -14.3495 O   0  0  0  0  0  0  0  0  0  0  0  0
   19.2182   -5.0723  -16.1452 N   0  0  0  0  0  0  0  0  0  0  0  0
   19.0564   -3.6428  -16.3193 C   0  0  0  0  0  0  0  0  0  0  0  0
   17.8531   -3.1761  -15.5767 C   0  0  0  0  0  0  0  0  0  0  0  0
   17.1040   -4.0652  -14.8193 O   0  0  0  0  0  0  0  0  0  0  0  0
   17.4733   -1.9791  -15.6050 O   0  0  0  0  0  0  0  0  0  0  0  0
  2  1  1  6
  3  2  1  0
  4  2  1  0
  4  5  1  1
  6  4  1  0
  6  7  2  0
  8  9  1  0
  9 11  1  0
 10  9  2  0
 12 11  1  6
 12 13  1  0
 12 14  1  0
 13  6  1  0
 14 16  1  0
 15 14  2  0
 16 17  1  0
 17 18  1  0
 18 19  1  0
 20 18  2  0
M  END
$$$$
