VNG.pdb
     RDKit          3D

 20 19  0  0  1  0  0  0  0  0999 V2000
   24.0969  -15.2305  -20.9714 C   0  0  0  0  0  0  0  0  0  0  0  0
   24.5147  -13.7901  -20.7698 C   0  0  1  0  0  0  0  0  0  0  0  0
   23.3078  -12.8963  -20.5962 C   0  0  0  0  0  0  0  0  0  0  0  0
   25.4124  -13.7185  -19.5517 C   0  0  2  0  0  0  0  0  0  0  0  0
   24.7238  -14.2375  -18.3693 N   0  0  0  0  0  0  0  0  0  0  0  0
   25.9078  -12.3470  -19.3150 C   0  0  0  0  0  0  0  0  0  0  0  0
   26.6386  -11.8039  -20.1591 O   0  0  0  0  0  0  0  0  0  0  0  0
   26.3934   -7.4494  -17.6815 N   0  0  0  0  0  0  0  0  0  0  0  0
   25.4587   -8.0707  -16.8200 C   0  0  0  0  0  0  0  0  0  0  0  0
   24.8912   -7.3523  -15.9624 O   0  0  0  0  0  0  0  0  0  0  0  0
   25.1518   -9.5159  -16.9162 C   0  0  0  0  0  0  0  0  0  0  0  0
   25.9883  -10.2209  -17.9556 C   0  0  2  0  0  0  0  0  0  0  0  0
   25.5853  -11.5991  -18.1466 N   0  0  0  0  0  0  0  0  0  0  0  0
   27.3971  -10.1556  -17.4568 C   0  0  0  0  0  0  0  0  0  0  0  0
   27.6965  -10.8201  -16.4474 O   0  0  0  0  0  0  0  0  0  0  0  0
   28.3916   -9.3829  -18.0723 N   0  0  0  0  0  0  0  0  0  0  0  0
   29.7628   -9.4410  -17.6070 C   0  0  0  0  0  0  0  0  0  0  0  0
   30.3754   -8.0852  -17.6686 C   0  0  0  0  0  0  0  0  0  0  0  0
   31.6804   -7.8818  -17.2434 O   0  0  0  0  0  0  0  0  0  0  0  0
   29.7467   -7.0873  -18.1006 O   0  0  0  0  0  0  0  0  0  0  0  0
  2  1  1  1
  3  2  1  0
  4  2  1  0
  4  5  1  1
  6  4  1  0
  6  7  2  0
  8  9  1  0
  9 11  1  0
 10  9  2  0
 12 11  1  1
 12 13  1  0
 12 14  1  0
 13  6  1  0
 14 16  1  0
 15 14  2  0
 16 17  1  0
 17 18  1  0
 18 19  1  0
 20 18  2  0
M  END
$$$$
