VNG.pdb
     RDKit          3D

 20 19  0  0  1  0  0  0  0  0999 V2000
   19.8885   -8.7628  -19.9246 C   0  0  0  0  0  0  0  0  0  0  0  0
   19.7487  -10.1739  -19.3960 C   0  0  1  0  0  0  0  0  0  0  0  0
   20.0503  -11.1880  -20.4758 C   0  0  0  0  0  0  0  0  0  0  0  0
   20.6955  -10.3420  -18.2254 C   0  0  2  0  0  0  0  0  0  0  0  0
   20.6426  -11.7100  -17.7086 N   0  0  0  0  0  0  0  0  0  0  0  0
   20.4230   -9.3617  -17.1543 C   0  0  0  0  0  0  0  0  0  0  0  0
   19.4390   -9.5191  -16.4136 O   0  0  0  0  0  0  0  0  0  0  0  0
   20.5977   -5.1795  -14.0106 N   0  0  0  0  0  0  0  0  0  0  0  0
   21.8713   -5.7886  -14.1048 C   0  0  0  0  0  0  0  0  0  0  0  0
   22.7550   -5.4171  -13.2957 O   0  0  0  0  0  0  0  0  0  0  0  0
   22.1644   -6.8285  -15.1172 C   0  0  0  0  0  0  0  0  0  0  0  0
   20.9456   -7.2259  -15.9134 C   0  0  2  0  0  0  0  0  0  0  0  0
   21.2453   -8.2225  -16.9210 N   0  0  0  0  0  0  0  0  0  0  0  0
   20.4517   -5.9688  -16.5562 C   0  0  0  0  0  0  0  0  0  0  0  0
   19.9120   -5.1100  -15.8342 O   0  0  0  0  0  0  0  0  0  0  0  0
   20.5688   -5.7148  -17.9298 N   0  0  0  0  0  0  0  0  0  0  0  0
   19.9220   -4.5618  -18.5234 C   0  0  0  0  0  0  0  0  0  0  0  0
   20.7657   -3.3510  -18.3249 C   0  0  0  0  0  0  0  0  0  0  0  0
   21.8447   -3.3795  -17.4530 O   0  0  0  0  0  0  0  0  0  0  0  0
   20.5391   -2.2728  -18.9281 O   0  0  0  0  0  0  0  0  0  0  0  0
  2  1  1  6
  3  2  1  0
  4  2  1  0
  4  5  1  1
  6  4  1  0
  6  7  2  0
  8  9  1  0
  9 11  1  0
 10  9  2  0
 12 11  1  6
 12 13  1  0
 12 14  1  0
 13  6  1  0
 14 16  1  0
 15 14  2  0
 16 17  1  0
 17 18  1  0
 18 19  1  0
 20 18  2  0
M  END
$$$$
