VNG.pdb
     RDKit          3D

 20 19  0  0  1  0  0  0  0  0999 V2000
   21.2520  -10.0370  -17.5079 C   0  0  0  0  0  0  0  0  0  0  0  0
   19.7765   -9.9854  -17.1761 C   0  0  1  0  0  0  0  0  0  0  0  0
   19.0229  -11.0842  -17.8904 C   0  0  0  0  0  0  0  0  0  0  0  0
   19.6189  -10.1176  -15.6752 C   0  0  2  0  0  0  0  0  0  0  0  0
   18.2126  -10.3047  -15.3163 N   0  0  0  0  0  0  0  0  0  0  0  0
   20.1977   -8.9624  -14.9589 C   0  0  0  0  0  0  0  0  0  0  0  0
   21.2172   -9.1168  -14.2672 O   0  0  0  0  0  0  0  0  0  0  0  0
   21.4715   -4.2573  -13.2207 N   0  0  0  0  0  0  0  0  0  0  0  0
   22.1912   -5.0042  -14.1831 C   0  0  0  0  0  0  0  0  0  0  0  0
   23.3586   -4.6331  -14.4533 O   0  0  0  0  0  0  0  0  0  0  0  0
   21.5998   -6.1836  -14.8550 C   0  0  0  0  0  0  0  0  0  0  0  0
   20.2193   -6.5140  -14.3429 C   0  0  2  0  0  0  0  0  0  0  0  0
   19.6375   -7.6544  -15.0207 N   0  0  0  0  0  0  0  0  0  0  0  0
   19.3930   -5.2902  -14.5817 C   0  0  0  0  0  0  0  0  0  0  0  0
   19.6138   -4.2840  -13.8824 O   0  0  0  0  0  0  0  0  0  0  0  0
   18.3850   -5.2252  -15.5537 N   0  0  0  0  0  0  0  0  0  0  0  0
   17.3907   -4.1716  -15.5144 C   0  0  0  0  0  0  0  0  0  0  0  0
   17.8560   -3.0075  -16.3178 C   0  0  0  0  0  0  0  0  0  0  0  0
   17.0444   -1.8938  -16.4797 O   0  0  0  0  0  0  0  0  0  0  0  0
   18.9828   -2.9862  -16.8725 O   0  0  0  0  0  0  0  0  0  0  0  0
  2  1  1  1
  3  2  1  0
  4  2  1  0
  4  5  1  6
  6  4  1  0
  6  7  2  0
  8  9  1  0
  9 11  1  0
 10  9  2  0
 12 11  1  6
 12 13  1  0
 12 14  1  0
 13  6  1  0
 14 16  1  0
 15 14  2  0
 16 17  1  0
 17 18  1  0
 18 19  1  0
 20 18  2  0
M  END
$$$$
