VNG.pdb
     RDKit          3D

 20 19  0  0  1  0  0  0  0  0999 V2000
   19.3234  -10.2737  -18.0948 C   0  0  0  0  0  0  0  0  0  0  0  0
   20.1634  -11.4401  -17.6215 C   0  0  1  0  0  0  0  0  0  0  0  0
   20.4289  -12.4087  -18.7514 C   0  0  0  0  0  0  0  0  0  0  0  0
   21.4641  -10.8980  -17.0653 C   0  0  2  0  0  0  0  0  0  0  0  0
   22.3221  -11.9878  -16.5986 N   0  0  0  0  0  0  0  0  0  0  0  0
   21.2323   -9.9110  -15.9909 C   0  0  0  0  0  0  0  0  0  0  0  0
   20.8347  -10.2953  -14.8793 O   0  0  0  0  0  0  0  0  0  0  0  0
   20.9344   -5.6871  -13.0224 N   0  0  0  0  0  0  0  0  0  0  0  0
   22.1240   -5.6640  -13.7882 C   0  0  0  0  0  0  0  0  0  0  0  0
   23.0058   -4.8312  -13.4681 O   0  0  0  0  0  0  0  0  0  0  0  0
   22.3337   -6.5841  -14.9290 C   0  0  0  0  0  0  0  0  0  0  0  0
   21.1823   -7.5395  -15.1259 C   0  0  2  0  0  0  0  0  0  0  0  0
   21.4448   -8.5135  -16.1655 N   0  0  0  0  0  0  0  0  0  0  0  0
   20.0072   -6.6901  -15.4940 C   0  0  0  0  0  0  0  0  0  0  0  0
   19.9645   -6.2080  -16.6411 O   0  0  0  0  0  0  0  0  0  0  0  0
   18.9559   -6.4135  -14.6090 N   0  0  0  0  0  0  0  0  0  0  0  0
   17.7399   -5.7840  -15.0836 C   0  0  0  0  0  0  0  0  0  0  0  0
   17.9858   -4.3378  -15.3387 C   0  0  0  0  0  0  0  0  0  0  0  0
   17.0630   -3.5803  -16.0456 O   0  0  0  0  0  0  0  0  0  0  0  0
   19.0210   -3.7543  -14.9316 O   0  0  0  0  0  0  0  0  0  0  0  0
  2  1  1  6
  3  2  1  0
  4  2  1  0
  4  5  1  1
  6  4  1  0
  6  7  2  0
  8  9  1  0
  9 11  1  0
 10  9  2  0
 12 11  1  6
 12 13  1  0
 12 14  1  0
 13  6  1  0
 14 16  1  0
 15 14  2  0
 16 17  1  0
 17 18  1  0
 18 19  1  0
 20 18  2  0
M  END
$$$$
