VNG.pdb
     RDKit          3D

 20 19  0  0  1  0  0  0  0  0999 V2000
   19.1491  -13.0459  -17.4460 C   0  0  0  0  0  0  0  0  0  0  0  0
   18.9400  -11.6012  -17.0473 C   0  0  1  0  0  0  0  0  0  0  0  0
   18.2280  -10.8364  -18.1398 C   0  0  0  0  0  0  0  0  0  0  0  0
   18.1369  -11.5710  -15.7631 C   0  0  2  0  0  0  0  0  0  0  0  0
   16.8154  -12.1663  -15.9644 N   0  0  0  0  0  0  0  0  0  0  0  0
   18.0225  -10.2020  -15.2197 C   0  0  0  0  0  0  0  0  0  0  0  0
   17.0511   -9.4956  -15.5344 O   0  0  0  0  0  0  0  0  0  0  0  0
   16.4598   -8.8539  -12.5735 N   0  0  0  0  0  0  0  0  0  0  0  0
   17.5905   -8.6047  -11.7602 C   0  0  0  0  0  0  0  0  0  0  0  0
   17.4541   -8.7317  -10.5197 O   0  0  0  0  0  0  0  0  0  0  0  0
   18.8940   -8.2075  -12.3392 C   0  0  0  0  0  0  0  0  0  0  0  0
   18.9068   -8.2765  -13.8466 C   0  0  2  0  0  0  0  0  0  0  0  0
   18.9865   -9.6375  -14.3362 N   0  0  0  0  0  0  0  0  0  0  0  0
   20.1080   -7.4972  -14.2795 C   0  0  0  0  0  0  0  0  0  0  0  0
   21.2190   -8.0579  -14.2436 O   0  0  0  0  0  0  0  0  0  0  0  0
   20.0395   -6.1688  -14.7220 N   0  0  0  0  0  0  0  0  0  0  0  0
   21.2438   -5.4529  -15.0924 C   0  0  0  0  0  0  0  0  0  0  0  0
   21.9076   -4.9155  -13.8727 C   0  0  0  0  0  0  0  0  0  0  0  0
   23.1088   -4.2276  -13.9695 O   0  0  0  0  0  0  0  0  0  0  0  0
   21.4160   -5.0603  -12.7259 O   0  0  0  0  0  0  0  0  0  0  0  0
  2  1  1  6
  3  2  1  0
  4  2  1  0
  4  5  1  6
  6  4  1  0
  6  7  2  0
  8  9  1  0
  9 11  1  0
 10  9  2  0
 12 11  1  1
 12 13  1  0
 12 14  1  0
 13  6  1  0
 14 16  1  0
 15 14  2  0
 16 17  1  0
 17 18  1  0
 18 19  1  0
 20 18  2  0
M  END
$$$$
