WNH.pdb
     RDKit          3D

 33 35  0  0  1  0  0  0  0  0999 V2000
    6.5996  -18.4433   25.1101 N   0  0  0  0  0  0  0  0  0  0  0  0
    7.0404  -17.5139   24.1109 C   0  0  1  0  0  0  0  0  0  0  0  0
    7.8882  -16.4038   24.6157 C   0  0  0  0  0  0  0  0  0  0  0  0
    7.2084  -15.4682   25.5311 C   0  0  0  0  0  0  0  0  0  0  0  0
    6.3965  -15.8253   26.6154 C   0  0  0  0  0  0  0  0  0  0  0  0
    5.9436  -14.7111   27.1997 N   0  0  0  0  0  0  0  0  0  0  0  0
    6.4180  -13.6065   26.5529 C   0  0  0  0  0  0  0  0  0  0  0  0
    6.2403  -12.2524   26.7772 C   0  0  0  0  0  0  0  0  0  0  0  0
    6.8503  -11.3289   25.9634 C   0  0  0  0  0  0  0  0  0  0  0  0
    7.6341  -11.7936   24.9310 C   0  0  0  0  0  0  0  0  0  0  0  0
    7.8094  -13.1435   24.7095 C   0  0  0  0  0  0  0  0  0  0  0  0
    7.1959  -14.0930   25.5273 C   0  0  0  0  0  0  0  0  0  0  0  0
    7.6157  -18.1874   22.9197 C   0  0  0  0  0  0  0  0  0  0  0  0
    8.3913  -19.1553   23.1183 O   0  0  0  0  0  0  0  0  0  0  0  0
    5.7625  -20.0720   20.6686 N   0  0  0  0  0  0  0  0  0  0  0  0
    5.7825  -19.2240   19.4864 C   0  0  0  0  0  0  0  0  0  0  0  0
    4.8139  -19.3218   18.7083 O   0  0  0  0  0  0  0  0  0  0  0  0
    6.9273  -18.3499   19.3312 C   0  0  0  0  0  0  0  0  0  0  0  0
    7.9572  -18.4191   20.4100 C   0  0  2  0  0  0  0  0  0  0  0  0
    7.3269  -17.7856   21.6286 N   0  0  0  0  0  0  0  0  0  0  0  0
    9.1490  -17.5826   20.1386 C   0  0  0  0  0  0  0  0  0  0  0  0
    9.8834  -17.8648   19.1203 O   0  0  0  0  0  0  0  0  0  0  0  0
    9.5849  -16.4742   20.8841 N   0  0  0  0  0  0  0  0  0  0  0  0
   10.8090  -15.7385   20.4896 C   0  0  1  0  0  0  0  0  0  0  0  0
   10.4536  -14.2785   20.6466 C   0  0  0  0  0  0  0  0  0  0  0  0
    9.4643  -13.9018   19.6165 C   0  0  0  0  0  0  0  0  0  0  0  0
    8.9573  -14.6837   18.5969 C   0  0  0  0  0  0  0  0  0  0  0  0
    8.1024  -13.9081   17.8982 N   0  0  0  0  0  0  0  0  0  0  0  0
    8.0580  -12.6859   18.4371 C   0  0  0  0  0  0  0  0  0  0  0  0
    8.8869  -12.6748   19.4863 N   0  0  0  0  0  0  0  0  0  0  0  0
   11.8986  -16.1008   21.4208 C   0  0  0  0  0  0  0  0  0  0  0  0
   11.7467  -17.0031   22.4463 O   0  0  0  0  0  0  0  0  0  0  0  0
   13.0466  -15.5501   21.2753 O   0  0  0  0  0  0  0  0  0  0  0  0
  2  1  1  1
  3  2  1  0
  4  3  1  0
  4  5  2  0
  6  5  1  0
  7  6  1  0
  8  7  2  0
  9  8  1  0
 10  9  2  0
 10 11  1  0
 11 12  2  0
 12  7  1  0
 12  4  1  0
 13 14  2  0
 13  2  1  0
 16 18  1  0
 16 15  1  0
 17 16  2  0
 19 18  1  6
 19 20  1  0
 20 13  1  0
 21 19  1  0
 22 21  2  0
 23 21  1  0
 24 23  1  0
 25 26  1  0
 24 25  1  1
 26 27  2  0
 28 27  1  0
 29 28  1  0
 30 29  2  0
 30 26  1  0
 31 24  1  0
 31 32  1  0
 33 31  2  0
M  END
$$$$
