WNH.pdb
     RDKit          3D

 33 35  0  0  1  0  0  0  0  0999 V2000
    6.6616  -17.2991   23.9116 N   0  0  0  0  0  0  0  0  0  0  0  0
    7.8611  -16.5181   23.8229 C   0  0  1  0  0  0  0  0  0  0  0  0
    8.2631  -15.8388   25.0811 C   0  0  0  0  0  0  0  0  0  0  0  0
    7.2490  -14.9313   25.6498 C   0  0  0  0  0  0  0  0  0  0  0  0
    5.9764  -15.3031   26.1024 C   0  0  0  0  0  0  0  0  0  0  0  0
    5.3361  -14.2109   26.5324 N   0  0  0  0  0  0  0  0  0  0  0  0
    6.1266  -13.1071   26.3896 C   0  0  0  0  0  0  0  0  0  0  0  0
    5.9189  -11.7722   26.6903 C   0  0  0  0  0  0  0  0  0  0  0  0
    6.9039  -10.8456   26.4481 C   0  0  0  0  0  0  0  0  0  0  0  0
    8.0886  -11.2878   25.9031 C   0  0  0  0  0  0  0  0  0  0  0  0
    8.2930  -12.6186   25.6044 C   0  0  0  0  0  0  0  0  0  0  0  0
    7.3018  -13.5709   25.8442 C   0  0  0  0  0  0  0  0  0  0  0  0
    8.9769  -17.2576   23.1813 C   0  0  0  0  0  0  0  0  0  0  0  0
    9.0095  -18.5042   23.3317 O   0  0  0  0  0  0  0  0  0  0  0  0
   13.1345  -17.7072   19.2512 N   0  0  0  0  0  0  0  0  0  0  0  0
   13.1238  -16.8793   20.4476 C   0  0  0  0  0  0  0  0  0  0  0  0
   14.2310  -16.5944   20.9437 O   0  0  0  0  0  0  0  0  0  0  0  0
   11.8262  -16.4684   20.9438 C   0  0  0  0  0  0  0  0  0  0  0  0
   11.2531  -17.2953   22.0470 C   0  0  2  0  0  0  0  0  0  0  0  0
    9.9577  -16.6240   22.4406 N   0  0  0  0  0  0  0  0  0  0  0  0
   12.0679  -17.2705   23.2836 C   0  0  0  0  0  0  0  0  0  0  0  0
   12.2675  -16.1426   23.8698 O   0  0  0  0  0  0  0  0  0  0  0  0
   12.6650  -18.3727   23.9184 N   0  0  0  0  0  0  0  0  0  0  0  0
   12.6079  -18.5117   25.3925 C   0  0  1  0  0  0  0  0  0  0  0  0
   11.1352  -18.5969   25.7190 C   0  0  0  0  0  0  0  0  0  0  0  0
   10.9688  -18.9237   27.1497 C   0  0  0  0  0  0  0  0  0  0  0  0
   11.9516  -19.0691   28.1095 C   0  0  0  0  0  0  0  0  0  0  0  0
   11.3273  -19.3875   29.2626 N   0  0  0  0  0  0  0  0  0  0  0  0
   10.0075  -19.4460   29.0602 C   0  0  0  0  0  0  0  0  0  0  0  0
    9.7815  -19.1641   27.7728 N   0  0  0  0  0  0  0  0  0  0  0  0
   13.2882  -19.7671   25.7753 C   0  0  0  0  0  0  0  0  0  0  0  0
   13.8882  -19.9588   26.9969 O   0  0  0  0  0  0  0  0  0  0  0  0
   13.3285  -20.7317   24.9325 O   0  0  0  0  0  0  0  0  0  0  0  0
  2  1  1  1
  3  2  1  0
  4  3  1  0
  4  5  2  0
  6  5  1  0
  7  6  1  0
  8  7  2  0
  9  8  1  0
 10  9  2  0
 10 11  1  0
 11 12  2  0
 12  7  1  0
 12  4  1  0
 13 14  2  0
 13  2  1  0
 16 18  1  0
 16 15  1  0
 17 16  2  0
 19 18  1  6
 19 20  1  0
 20 13  1  0
 21 19  1  0
 22 21  2  0
 23 21  1  0
 24 23  1  0
 25 26  1  0
 24 25  1  6
 26 27  2  0
 28 27  1  0
 29 28  1  0
 30 29  2  0
 30 26  1  0
 31 24  1  0
 31 32  1  0
 33 31  2  0
M  END
$$$$
