WNH.pdb
     RDKit          3D

 33 35  0  0  1  0  0  0  0  0999 V2000
    6.7462  -17.6079   23.7002 N   0  0  0  0  0  0  0  0  0  0  0  0
    7.8632  -16.7099   23.7530 C   0  0  1  0  0  0  0  0  0  0  0  0
    8.0912  -16.0675   25.0725 C   0  0  0  0  0  0  0  0  0  0  0  0
    7.0937  -15.0485   25.4493 C   0  0  0  0  0  0  0  0  0  0  0  0
    5.8441  -15.2988   26.0308 C   0  0  0  0  0  0  0  0  0  0  0  0
    5.2128  -14.1343   26.2132 N   0  0  0  0  0  0  0  0  0  0  0  0
    5.9873  -13.0983   25.7770 C   0  0  0  0  0  0  0  0  0  0  0  0
    5.7809  -11.7299   25.7575 C   0  0  0  0  0  0  0  0  0  0  0  0
    6.7471  -10.8900   25.2593 C   0  0  0  0  0  0  0  0  0  0  0  0
    7.9122  -11.4519   24.7869 C   0  0  0  0  0  0  0  0  0  0  0  0
    8.1153  -12.8158   24.8074 C   0  0  0  0  0  0  0  0  0  0  0  0
    7.1430  -13.6812   25.3097 C   0  0  0  0  0  0  0  0  0  0  0  0
    9.0965  -17.2993   23.1742 C   0  0  0  0  0  0  0  0  0  0  0  0
    9.2524  -18.5410   23.2822 O   0  0  0  0  0  0  0  0  0  0  0  0
   11.4371  -18.1377   19.1332 N   0  0  0  0  0  0  0  0  0  0  0  0
   11.0576  -16.8347   19.6577 C   0  0  0  0  0  0  0  0  0  0  0  0
   10.1680  -16.2178   19.0403 O   0  0  0  0  0  0  0  0  0  0  0  0
   11.7523  -16.3835   20.8462 C   0  0  0  0  0  0  0  0  0  0  0  0
   11.4000  -17.0824   22.1178 C   0  0  2  0  0  0  0  0  0  0  0  0
   10.0549  -16.5345   22.5352 N   0  0  0  0  0  0  0  0  0  0  0  0
   12.2991  -16.7409   23.2441 C   0  0  0  0  0  0  0  0  0  0  0  0
   12.6308  -15.5100   23.4190 O   0  0  0  0  0  0  0  0  0  0  0  0
   12.8474  -17.6325   24.1814 N   0  0  0  0  0  0  0  0  0  0  0  0
   12.8559  -17.2940   25.6239 C   0  0  1  0  0  0  0  0  0  0  0  0
   11.4295  -16.9115   25.9427 C   0  0  0  0  0  0  0  0  0  0  0  0
   11.3145  -16.6068   27.3834 C   0  0  0  0  0  0  0  0  0  0  0  0
   12.2962  -16.6885   28.3518 C   0  0  0  0  0  0  0  0  0  0  0  0
   11.7224  -16.3338   29.5204 N   0  0  0  0  0  0  0  0  0  0  0  0
   10.4347  -16.0379   29.3197 C   0  0  0  0  0  0  0  0  0  0  0  0
   10.1787  -16.2024   28.0176 N   0  0  0  0  0  0  0  0  0  0  0  0
   13.2439  -18.4978   26.3893 C   0  0  0  0  0  0  0  0  0  0  0  0
   12.5742  -19.6951   26.3043 O   0  0  0  0  0  0  0  0  0  0  0  0
   14.2529  -18.4328   27.1768 O   0  0  0  0  0  0  0  0  0  0  0  0
  2  1  1  1
  3  2  1  0
  4  3  1  0
  4  5  2  0
  6  5  1  0
  7  6  1  0
  8  7  2  0
  9  8  1  0
 10  9  2  0
 10 11  1  0
 11 12  2  0
 12  7  1  0
 12  4  1  0
 13 14  2  0
 13  2  1  0
 16 18  1  0
 16 15  1  0
 17 16  2  0
 19 18  1  6
 19 20  1  0
 20 13  1  0
 21 19  1  0
 22 21  2  0
 23 21  1  0
 24 23  1  0
 25 26  1  0
 24 25  1  1
 26 27  2  0
 28 27  1  0
 29 28  1  0
 30 29  2  0
 30 26  1  0
 31 24  1  0
 31 32  1  0
 33 31  2  0
M  END
$$$$
