WNH.pdb
     RDKit          3D

 33 35  0  0  1  0  0  0  0  0999 V2000
    9.7982  -16.0503   23.6718 N   0  0  0  0  0  0  0  0  0  0  0  0
    8.7136  -16.5589   24.4602 C   0  0  1  0  0  0  0  0  0  0  0  0
    7.3664  -16.0785   24.0598 C   0  0  0  0  0  0  0  0  0  0  0  0
    7.2348  -14.6135   23.9516 C   0  0  0  0  0  0  0  0  0  0  0  0
    7.3625  -13.8627   22.7758 C   0  0  0  0  0  0  0  0  0  0  0  0
    7.1957  -12.5691   23.0706 N   0  0  0  0  0  0  0  0  0  0  0  0
    6.9584  -12.4107   24.4055 C   0  0  0  0  0  0  0  0  0  0  0  0
    6.7217  -11.2875   25.1787 C   0  0  0  0  0  0  0  0  0  0  0  0
    6.5010  -11.4094   26.5292 C   0  0  0  0  0  0  0  0  0  0  0  0
    6.5234  -12.6724   27.0773 C   0  0  0  0  0  0  0  0  0  0  0  0
    6.7596  -13.7901   26.3046 C   0  0  0  0  0  0  0  0  0  0  0  0
    6.9860  -13.6818   24.9321 C   0  0  0  0  0  0  0  0  0  0  0  0
    8.7762  -18.0319   24.6334 C   0  0  0  0  0  0  0  0  0  0  0  0
    7.8197  -18.5875   25.2285 O   0  0  0  0  0  0  0  0  0  0  0  0
    8.5395  -21.8075   22.7212 N   0  0  0  0  0  0  0  0  0  0  0  0
    9.9486  -21.6369   22.4009 C   0  0  0  0  0  0  0  0  0  0  0  0
   10.3582  -22.1842   21.3589 O   0  0  0  0  0  0  0  0  0  0  0  0
   10.7357  -20.8474   23.3260 C   0  0  0  0  0  0  0  0  0  0  0  0
    9.9957  -20.2586   24.4815 C   0  0  2  0  0  0  0  0  0  0  0  0
    9.8352  -18.7891   24.1678 N   0  0  0  0  0  0  0  0  0  0  0  0
   10.7673  -20.2803   25.7455 C   0  0  0  0  0  0  0  0  0  0  0  0
   10.7237  -21.3370   26.4784 O   0  0  0  0  0  0  0  0  0  0  0  0
   11.5750  -19.2493   26.2545 N   0  0  0  0  0  0  0  0  0  0  0  0
   12.2983  -19.4251   27.5356 C   0  0  1  0  0  0  0  0  0  0  0  0
   13.4365  -18.4332   27.4797 C   0  0  0  0  0  0  0  0  0  0  0  0
   14.5167  -18.9747   26.6303 C   0  0  0  0  0  0  0  0  0  0  0  0
   14.6481  -20.2575   26.1349 C   0  0  0  0  0  0  0  0  0  0  0  0
   15.7992  -20.2885   25.4317 N   0  0  0  0  0  0  0  0  0  0  0  0
   16.3842  -19.0875   25.4697 C   0  0  0  0  0  0  0  0  0  0  0  0
   15.6070  -18.2806   26.1997 N   0  0  0  0  0  0  0  0  0  0  0  0
   11.3820  -19.0873   28.6455 C   0  0  0  0  0  0  0  0  0  0  0  0
   11.7456  -19.1470   29.9697 O   0  0  0  0  0  0  0  0  0  0  0  0
   10.1850  -18.7211   28.3711 O   0  0  0  0  0  0  0  0  0  0  0  0
  2  1  1  6
  3  2  1  0
  4  3  1  0
  4  5  2  0
  6  5  1  0
  7  6  1  0
  8  7  2  0
  9  8  1  0
 10  9  2  0
 10 11  1  0
 11 12  2  0
 12  7  1  0
 12  4  1  0
 13 14  2  0
 13  2  1  0
 16 18  1  0
 16 15  1  0
 17 16  2  0
 19 18  1  6
 19 20  1  0
 20 13  1  0
 21 19  1  0
 22 21  2  0
 23 21  1  0
 24 23  1  0
 25 26  1  0
 24 25  1  6
 26 27  2  0
 28 27  1  0
 29 28  1  0
 30 29  2  0
 30 26  1  0
 31 24  1  0
 31 32  1  0
 33 31  2  0
M  END
$$$$
