WNH.pdb
     RDKit          3D

 33 35  0  0  1  0  0  0  0  0999 V2000
   10.1289  -15.4732   22.8168 N   0  0  0  0  0  0  0  0  0  0  0  0
    9.3207  -16.0935   23.8260 C   0  0  1  0  0  0  0  0  0  0  0  0
    7.8577  -15.8870   23.6742 C   0  0  0  0  0  0  0  0  0  0  0  0
    7.4299  -14.4763   23.6268 C   0  0  0  0  0  0  0  0  0  0  0  0
    7.3215  -13.6900   22.4724 C   0  0  0  0  0  0  0  0  0  0  0  0
    6.9222  -12.4630   22.8231 N   0  0  0  0  0  0  0  0  0  0  0  0
    6.7541  -12.3842   24.1755 C   0  0  0  0  0  0  0  0  0  0  0  0
    6.3544  -11.3483   25.0018 C   0  0  0  0  0  0  0  0  0  0  0  0
    6.2593  -11.5411   26.3587 C   0  0  0  0  0  0  0  0  0  0  0  0
    6.5716  -12.7854   26.8591 C   0  0  0  0  0  0  0  0  0  0  0  0
    6.9696  -13.8159   26.0335 C   0  0  0  0  0  0  0  0  0  0  0  0
    7.0714  -13.6349   24.6538 C   0  0  0  0  0  0  0  0  0  0  0  0
    9.6850  -17.5142   24.0550 C   0  0  0  0  0  0  0  0  0  0  0  0
    8.7477  -18.3382   24.1970 O   0  0  0  0  0  0  0  0  0  0  0  0
   13.2738  -18.8036   21.4651 N   0  0  0  0  0  0  0  0  0  0  0  0
   12.4399  -19.7051   22.2455 C   0  0  0  0  0  0  0  0  0  0  0  0
   11.6513  -20.4321   21.6108 O   0  0  0  0  0  0  0  0  0  0  0  0
   12.6092  -19.6677   23.6838 C   0  0  0  0  0  0  0  0  0  0  0  0
   11.3857  -19.3568   24.4811 C   0  0  2  0  0  0  0  0  0  0  0  0
   10.9982  -17.9428   24.1148 N   0  0  0  0  0  0  0  0  0  0  0  0
   11.6340  -19.3012   25.9402 C   0  0  0  0  0  0  0  0  0  0  0  0
   12.0155  -20.3718   26.5435 O   0  0  0  0  0  0  0  0  0  0  0  0
   11.5036  -18.1765   26.7723 N   0  0  0  0  0  0  0  0  0  0  0  0
   11.7037  -18.2978   28.2354 C   0  0  1  0  0  0  0  0  0  0  0  0
   10.6575  -17.3960   28.8477 C   0  0  0  0  0  0  0  0  0  0  0  0
   10.7536  -16.0525   28.2415 C   0  0  0  0  0  0  0  0  0  0  0  0
   11.7103  -15.5812   27.3635 C   0  0  0  0  0  0  0  0  0  0  0  0
   11.3994  -14.2947   27.1010 N   0  0  0  0  0  0  0  0  0  0  0  0
   10.2979  -13.9498   27.7747 C   0  0  0  0  0  0  0  0  0  0  0  0
    9.8983  -15.0178   28.4731 N   0  0  0  0  0  0  0  0  0  0  0  0
   11.4608  -19.7015   28.6305 C   0  0  0  0  0  0  0  0  0  0  0  0
   11.9030  -20.2398   29.8154 O   0  0  0  0  0  0  0  0  0  0  0  0
   10.8079  -20.4651   27.8349 O   0  0  0  0  0  0  0  0  0  0  0  0
  2  1  1  6
  3  2  1  0
  4  3  1  0
  4  5  2  0
  6  5  1  0
  7  6  1  0
  8  7  2  0
  9  8  1  0
 10  9  2  0
 10 11  1  0
 11 12  2  0
 12  7  1  0
 12  4  1  0
 13 14  2  0
 13  2  1  0
 16 18  1  0
 16 15  1  0
 17 16  2  0
 19 18  1  6
 19 20  1  0
 20 13  1  0
 21 19  1  0
 22 21  2  0
 23 21  1  0
 24 23  1  0
 25 26  1  0
 24 25  1  1
 26 27  2  0
 28 27  1  0
 29 28  1  0
 30 29  2  0
 30 26  1  0
 31 24  1  0
 31 32  1  0
 33 31  2  0
M  END
$$$$
