WNH.pdb
     RDKit          3D

 33 35  0  0  1  0  0  0  0  0999 V2000
    6.9613  -17.4173   23.0701 N   0  0  0  0  0  0  0  0  0  0  0  0
    7.9854  -16.4258   23.2273 C   0  0  1  0  0  0  0  0  0  0  0  0
    8.2350  -15.9967   24.6272 C   0  0  0  0  0  0  0  0  0  0  0  0
    7.1524  -15.2020   25.2369 C   0  0  0  0  0  0  0  0  0  0  0  0
    6.0530  -15.7142   25.9378 C   0  0  0  0  0  0  0  0  0  0  0  0
    5.2778  -14.6964   26.3266 N   0  0  0  0  0  0  0  0  0  0  0  0
    5.8094  -13.5080   25.9161 C   0  0  0  0  0  0  0  0  0  0  0  0
    5.3886  -12.1992   26.0758 C   0  0  0  0  0  0  0  0  0  0  0  0
    6.1298  -11.1646   25.5583 C   0  0  0  0  0  0  0  0  0  0  0  0
    7.2903  -11.4736   24.8846 C   0  0  0  0  0  0  0  0  0  0  0  0
    7.7072  -12.7787   24.7268 C   0  0  0  0  0  0  0  0  0  0  0  0
    6.9648  -13.8396   25.2463 C   0  0  0  0  0  0  0  0  0  0  0  0
    9.2303  -16.7707   22.4959 C   0  0  0  0  0  0  0  0  0  0  0  0
    9.3914  -17.9696   22.1575 O   0  0  0  0  0  0  0  0  0  0  0  0
   13.9494  -14.0278   19.8224 N   0  0  0  0  0  0  0  0  0  0  0  0
   12.9729  -15.1054   19.7753 C   0  0  0  0  0  0  0  0  0  0  0  0
   13.2134  -16.0479   18.9962 O   0  0  0  0  0  0  0  0  0  0  0  0
   11.8172  -14.9753   20.6391 C   0  0  0  0  0  0  0  0  0  0  0  0
   11.4770  -16.1715   21.4654 C   0  0  2  0  0  0  0  0  0  0  0  0
   10.1936  -15.8286   22.1857 N   0  0  0  0  0  0  0  0  0  0  0  0
   12.4486  -16.4296   22.5530 C   0  0  0  0  0  0  0  0  0  0  0  0
   13.6951  -16.5432   22.2543 O   0  0  0  0  0  0  0  0  0  0  0  0
   12.1614  -16.5638   23.9218 N   0  0  0  0  0  0  0  0  0  0  0  0
   13.2392  -16.8818   24.8875 C   0  0  1  0  0  0  0  0  0  0  0  0
   12.5279  -17.4595   26.0888 C   0  0  0  0  0  0  0  0  0  0  0  0
   11.6512  -16.4290   26.6812 C   0  0  0  0  0  0  0  0  0  0  0  0
   11.4040  -15.1519   26.2163 C   0  0  0  0  0  0  0  0  0  0  0  0
   10.5580  -14.5737   27.0942 N   0  0  0  0  0  0  0  0  0  0  0  0
   10.2721  -15.4319   28.0779 C   0  0  0  0  0  0  0  0  0  0  0  0
   10.9359  -16.5663   27.8325 N   0  0  0  0  0  0  0  0  0  0  0  0
   14.1288  -17.8972   24.2850 C   0  0  0  0  0  0  0  0  0  0  0  0
   15.3227  -18.2834   24.8459 O   0  0  0  0  0  0  0  0  0  0  0  0
   13.7805  -18.4504   23.1828 O   0  0  0  0  0  0  0  0  0  0  0  0
  2  1  1  1
  3  2  1  0
  4  3  1  0
  4  5  2  0
  6  5  1  0
  7  6  1  0
  8  7  2  0
  9  8  1  0
 10  9  2  0
 10 11  1  0
 11 12  2  0
 12  7  1  0
 12  4  1  0
 13 14  2  0
 13  2  1  0
 16 18  1  0
 16 15  1  0
 17 16  2  0
 19 18  1  6
 19 20  1  0
 20 13  1  0
 21 19  1  0
 22 21  2  0
 23 21  1  0
 24 23  1  0
 25 26  1  0
 24 25  1  1
 26 27  2  0
 28 27  1  0
 29 28  1  0
 30 29  2  0
 30 26  1  0
 31 24  1  0
 31 32  1  0
 33 31  2  0
M  END
$$$$
