WNH.pdb
     RDKit          3D

 33 35  0  0  1  0  0  0  0  0999 V2000
    6.8390  -17.5959   23.1896 N   0  0  0  0  0  0  0  0  0  0  0  0
    8.0779  -16.8821   23.3010 C   0  0  1  0  0  0  0  0  0  0  0  0
    8.3866  -16.3675   24.6596 C   0  0  0  0  0  0  0  0  0  0  0  0
    7.3536  -15.4910   25.2427 C   0  0  0  0  0  0  0  0  0  0  0  0
    6.1150  -15.9063   25.7485 C   0  0  0  0  0  0  0  0  0  0  0  0
    5.4423  -14.8326   26.1757 N   0  0  0  0  0  0  0  0  0  0  0  0
    6.1779  -13.6995   25.9796 C   0  0  0  0  0  0  0  0  0  0  0  0
    5.9220  -12.3678   26.2566 C   0  0  0  0  0  0  0  0  0  0  0  0
    6.8562  -11.4057   25.9585 C   0  0  0  0  0  0  0  0  0  0  0  0
    8.0399  -11.8095   25.3822 C   0  0  0  0  0  0  0  0  0  0  0  0
    8.2924  -13.1371   25.1072 C   0  0  0  0  0  0  0  0  0  0  0  0
    7.3530  -14.1252   25.4038 C   0  0  0  0  0  0  0  0  0  0  0  0
    9.2142  -17.6126   22.6856 C   0  0  0  0  0  0  0  0  0  0  0  0
    9.0995  -18.8560   22.5497 O   0  0  0  0  0  0  0  0  0  0  0  0
   11.9623  -14.5550   21.0641 N   0  0  0  0  0  0  0  0  0  0  0  0
   12.8955  -15.6226   21.3904 C   0  0  0  0  0  0  0  0  0  0  0  0
   13.9857  -15.2829   21.8895 O   0  0  0  0  0  0  0  0  0  0  0  0
   12.4642  -16.9753   21.1021 C   0  0  0  0  0  0  0  0  0  0  0  0
   11.7076  -17.6685   22.1867 C   0  0  2  0  0  0  0  0  0  0  0  0
   10.3678  -16.9743   22.2688 N   0  0  0  0  0  0  0  0  0  0  0  0
   12.3006  -17.4782   23.5304 C   0  0  0  0  0  0  0  0  0  0  0  0
   13.5422  -17.1517   23.6175 O   0  0  0  0  0  0  0  0  0  0  0  0
   11.6434  -17.6107   24.7652 N   0  0  0  0  0  0  0  0  0  0  0  0
   12.4022  -17.9765   25.9842 C   0  0  1  0  0  0  0  0  0  0  0  0
   11.4413  -17.7416   27.1263 C   0  0  0  0  0  0  0  0  0  0  0  0
   10.9656  -16.3438   27.0864 C   0  0  0  0  0  0  0  0  0  0  0  0
   11.3529  -15.3371   26.2235 C   0  0  0  0  0  0  0  0  0  0  0  0
   10.6664  -14.2315   26.5802 N   0  0  0  0  0  0  0  0  0  0  0  0
    9.8752  -14.5075   27.6212 C   0  0  0  0  0  0  0  0  0  0  0  0
   10.0527  -15.7950   27.9357 N   0  0  0  0  0  0  0  0  0  0  0  0
   12.7602  -19.4087   25.9058 C   0  0  0  0  0  0  0  0  0  0  0  0
   13.5635  -20.0378   26.8267 O   0  0  0  0  0  0  0  0  0  0  0  0
   12.3059  -20.1084   24.9330 O   0  0  0  0  0  0  0  0  0  0  0  0
  2  1  1  1
  3  2  1  0
  4  3  1  0
  4  5  2  0
  6  5  1  0
  7  6  1  0
  8  7  2  0
  9  8  1  0
 10  9  2  0
 10 11  1  0
 11 12  2  0
 12  7  1  0
 12  4  1  0
 13 14  2  0
 13  2  1  0
 16 18  1  0
 16 15  1  0
 17 16  2  0
 19 18  1  6
 19 20  1  0
 20 13  1  0
 21 19  1  0
 22 21  2  0
 23 21  1  0
 24 23  1  0
 25 26  1  0
 24 25  1  1
 26 27  2  0
 28 27  1  0
 29 28  1  0
 30 29  2  0
 30 26  1  0
 31 24  1  0
 31 32  1  0
 33 31  2  0
M  END
$$$$
