VAY.pdb
     RDKit          3D

 25 25  0  0  1  0  0  0  0  0999 V2000
    7.3719  -13.0006   21.7954 C   0  0  0  0  0  0  0  0  0  0  0  0
    8.3316  -13.2625   20.6349 C   0  0  2  0  0  0  0  0  0  0  0  0
    7.9555  -12.3404   19.5123 C   0  0  0  0  0  0  0  0  0  0  0  0
    8.1674  -14.7408   20.2863 C   0  0  2  0  0  0  0  0  0  0  0  0
    6.7553  -14.8788   19.8479 N   0  0  0  0  0  0  0  0  0  0  0  0
    8.3397  -15.6204   21.4647 C   0  0  0  0  0  0  0  0  0  0  0  0
    7.3721  -15.8164   22.2774 O   0  0  0  0  0  0  0  0  0  0  0  0
   10.6029  -18.3098   22.7077 C   0  0  0  0  0  0  0  0  0  0  0  0
    9.6061  -17.1671   22.9404 C   0  0  2  0  0  0  0  0  0  0  0  0
    9.5584  -16.3030   21.7807 N   0  0  0  0  0  0  0  0  0  0  0  0
    9.9956  -16.4756   24.1826 C   0  0  0  0  0  0  0  0  0  0  0  0
   10.8451  -15.5600   24.1022 O   0  0  0  0  0  0  0  0  0  0  0  0
    5.9004  -11.1077   25.7549 O   0  0  0  0  0  0  0  0  0  0  0  0
    6.5830  -12.2655   26.1776 C   0  0  0  0  0  0  0  0  0  0  0  0
    7.8370  -12.1516   26.7199 C   0  0  0  0  0  0  0  0  0  0  0  0
    8.5335  -13.2552   27.1430 C   0  0  0  0  0  0  0  0  0  0  0  0
    8.0100  -14.5311   27.0456 C   0  0  0  0  0  0  0  0  0  0  0  0
    8.6978  -15.7428   27.4612 C   0  0  0  0  0  0  0  0  0  0  0  0
    9.8944  -16.1518   26.6576 C   0  0  2  0  0  0  0  0  0  0  0  0
    9.4480  -16.8077   25.4417 N   0  0  0  0  0  0  0  0  0  0  0  0
   10.6857  -17.1358   27.4324 C   0  0  0  0  0  0  0  0  0  0  0  0
   10.6607  -18.3562   27.1140 O   0  0  0  0  0  0  0  0  0  0  0  0
    6.7503  -14.6409   26.5002 C   0  0  0  0  0  0  0  0  0  0  0  0
    6.0399  -13.5267   26.0695 C   0  0  0  0  0  0  0  0  0  0  0  0
   11.4795  -16.7965   28.5204 O   0  0  0  0  0  0  0  0  0  0  0  0
  2  1  1  1
  3  2  1  0
  4  2  1  0
  4  5  1  1
  6  7  2  0
  6  4  1  0
  9  8  1  6
  9 10  1  0
 10  6  1  0
 11 20  1  0
 11  9  1  0
 12 11  2  0
 13 14  1  0
 14 24  2  0
 14 15  1  0
 15 16  2  0
 16 17  1  0
 17 18  1  0
 19 18  1  1
 19 20  1  0
 19 21  1  0
 21 25  1  0
 22 21  2  0
 23 17  2  0
 24 23  1  0
M  END
$$$$
