VAY.pdb
     RDKit          3D

 25 25  0  0  1  0  0  0  0  0999 V2000
    8.7106  -19.5360   21.2155 C   0  0  0  0  0  0  0  0  0  0  0  0
    7.2923  -18.9879   21.0597 C   0  0  2  0  0  0  0  0  0  0  0  0
    6.3791  -20.1487   20.7938 C   0  0  0  0  0  0  0  0  0  0  0  0
    7.3576  -17.9906   19.9042 C   0  0  2  0  0  0  0  0  0  0  0  0
    8.0364  -18.7203   18.8033 N   0  0  0  0  0  0  0  0  0  0  0  0
    8.1976  -16.8137   20.2221 C   0  0  0  0  0  0  0  0  0  0  0  0
    9.4695  -16.8705   20.1017 O   0  0  0  0  0  0  0  0  0  0  0  0
    7.8618  -13.1456   21.0229 C   0  0  0  0  0  0  0  0  0  0  0  0
    8.5931  -14.4942   21.0204 C   0  0  2  0  0  0  0  0  0  0  0  0
    7.6762  -15.5580   20.6720 N   0  0  0  0  0  0  0  0  0  0  0  0
    9.2289  -14.6642   22.3395 C   0  0  0  0  0  0  0  0  0  0  0  0
   10.1273  -13.8562   22.6658 O   0  0  0  0  0  0  0  0  0  0  0  0
    5.5027  -10.8914   26.4125 O   0  0  0  0  0  0  0  0  0  0  0  0
    6.1789  -12.1092   26.2003 C   0  0  0  0  0  0  0  0  0  0  0  0
    7.5156  -12.2004   26.4910 C   0  0  0  0  0  0  0  0  0  0  0  0
    8.2088  -13.3685   26.2980 C   0  0  0  0  0  0  0  0  0  0  0  0
    7.5990  -14.5068   25.8043 C   0  0  0  0  0  0  0  0  0  0  0  0
    8.2757  -15.7710   25.5634 C   0  0  0  0  0  0  0  0  0  0  0  0
    9.4049  -15.7578   24.5785 C   0  0  2  0  0  0  0  0  0  0  0  0
    8.8612  -15.6939   23.2339 N   0  0  0  0  0  0  0  0  0  0  0  0
   10.1644  -17.0244   24.6946 C   0  0  0  0  0  0  0  0  0  0  0  0
   10.1800  -17.8409   23.7332 O   0  0  0  0  0  0  0  0  0  0  0  0
    6.2564  -14.4107   25.5136 C   0  0  0  0  0  0  0  0  0  0  0  0
    5.5489  -13.2301   25.7066 C   0  0  0  0  0  0  0  0  0  0  0  0
   10.8845  -17.3869   25.8256 O   0  0  0  0  0  0  0  0  0  0  0  0
  2  1  1  6
  3  2  1  0
  4  2  1  0
  4  5  1  6
  6  7  2  0
  6  4  1  0
  9  8  1  1
  9 10  1  0
 10  6  1  0
 11 20  1  0
 11  9  1  0
 12 11  2  0
 13 14  1  0
 14 24  2  0
 14 15  1  0
 15 16  2  0
 16 17  1  0
 17 18  1  0
 19 18  1  1
 19 20  1  0
 19 21  1  0
 21 25  1  0
 22 21  2  0
 23 17  2  0
 24 23  1  0
M  END
$$$$
