VAY.pdb
     RDKit          3D

 25 25  0  0  1  0  0  0  0  0999 V2000
    6.5321  -14.0712   19.2773 C   0  0  0  0  0  0  0  0  0  0  0  0
    7.7624  -13.2000   19.5297 C   0  0  2  0  0  0  0  0  0  0  0  0
    7.9865  -12.3584   18.3076 C   0  0  0  0  0  0  0  0  0  0  0  0
    8.9066  -14.1710   19.8156 C   0  0  2  0  0  0  0  0  0  0  0  0
    8.9446  -15.0785   18.6408 N   0  0  0  0  0  0  0  0  0  0  0  0
    8.6458  -15.0157   21.0032 C   0  0  0  0  0  0  0  0  0  0  0  0
    8.6090  -14.5003   22.1729 O   0  0  0  0  0  0  0  0  0  0  0  0
    8.1335  -18.6647   21.8905 C   0  0  0  0  0  0  0  0  0  0  0  0
    8.1623  -17.1563   22.1685 C   0  0  2  0  0  0  0  0  0  0  0  0
    8.4185  -16.4284   20.9444 N   0  0  0  0  0  0  0  0  0  0  0  0
    9.1596  -16.9122   23.2262 C   0  0  0  0  0  0  0  0  0  0  0  0
   10.3684  -17.0614   22.9379 O   0  0  0  0  0  0  0  0  0  0  0  0
    5.3220  -11.7211   26.6388 O   0  0  0  0  0  0  0  0  0  0  0  0
    6.4766  -12.4935   26.4032 C   0  0  0  0  0  0  0  0  0  0  0  0
    7.3298  -12.7687   27.4404 C   0  0  0  0  0  0  0  0  0  0  0  0
    8.4639  -13.5171   27.2510 C   0  0  0  0  0  0  0  0  0  0  0  0
    8.8026  -14.0296   26.0124 C   0  0  0  0  0  0  0  0  0  0  0  0
    9.9938  -14.8174   25.7393 C   0  0  0  0  0  0  0  0  0  0  0  0
    9.8034  -16.2926   25.5590 C   0  0  2  0  0  0  0  0  0  0  0  0
    8.7999  -16.5200   24.5347 N   0  0  0  0  0  0  0  0  0  0  0  0
    9.2930  -16.8737   26.8225 C   0  0  0  0  0  0  0  0  0  0  0  0
    8.1236  -17.3439   26.8735 O   0  0  0  0  0  0  0  0  0  0  0  0
    7.9429  -13.7506   24.9735 C   0  0  0  0  0  0  0  0  0  0  0  0
    6.7927  -12.9929   25.1591 C   0  0  0  0  0  0  0  0  0  0  0  0
   10.0375  -16.9393   27.9933 O   0  0  0  0  0  0  0  0  0  0  0  0
  2  1  1  6
  3  2  1  0
  4  2  1  0
  4  5  1  6
  6  7  2  0
  6  4  1  0
  9  8  1  6
  9 10  1  0
 10  6  1  0
 11 20  1  0
 11  9  1  0
 12 11  2  0
 13 14  1  0
 14 24  2  0
 14 15  1  0
 15 16  2  0
 16 17  1  0
 17 18  1  0
 19 18  1  1
 19 20  1  0
 19 21  1  0
 21 25  1  0
 22 21  2  0
 23 17  2  0
 24 23  1  0
M  END
$$$$
