VAY.pdb
     RDKit          3D

 25 25  0  0  1  0  0  0  0  0999 V2000
    6.9926  -13.3026   21.3047 C   0  0  0  0  0  0  0  0  0  0  0  0
    8.2459  -13.3735   20.4326 C   0  0  2  0  0  0  0  0  0  0  0  0
    8.0241  -12.4915   19.2389 C   0  0  0  0  0  0  0  0  0  0  0  0
    8.4184  -14.8483   20.0733 C   0  0  2  0  0  0  0  0  0  0  0  0
    7.1648  -15.2229   19.3709 N   0  0  0  0  0  0  0  0  0  0  0  0
    8.5150  -15.7129   21.2712 C   0  0  0  0  0  0  0  0  0  0  0  0
    7.5202  -16.4267   21.6403 O   0  0  0  0  0  0  0  0  0  0  0  0
   10.4748  -18.0161   22.8207 C   0  0  0  0  0  0  0  0  0  0  0  0
    9.6958  -16.7490   23.1963 C   0  0  2  0  0  0  0  0  0  0  0  0
    9.6877  -15.8210   22.0860 N   0  0  0  0  0  0  0  0  0  0  0  0
   10.2945  -16.2002   24.4266 C   0  0  0  0  0  0  0  0  0  0  0  0
   10.6936  -15.0141   24.4057 O   0  0  0  0  0  0  0  0  0  0  0  0
    6.3048  -11.1648   26.0033 O   0  0  0  0  0  0  0  0  0  0  0  0
    6.8546  -12.4402   26.2408 C   0  0  0  0  0  0  0  0  0  0  0  0
    8.0604  -12.5479   26.8842 C   0  0  0  0  0  0  0  0  0  0  0  0
    8.6283  -13.7717   27.1336 C   0  0  0  0  0  0  0  0  0  0  0  0
    8.0176  -14.9519   26.7520 C   0  0  0  0  0  0  0  0  0  0  0  0
    8.5690  -16.2791   26.9724 C   0  0  0  0  0  0  0  0  0  0  0  0
   10.0598  -16.4128   26.9045 C   0  0  2  0  0  0  0  0  0  0  0  0
   10.4289  -16.9586   25.6107 N   0  0  0  0  0  0  0  0  0  0  0  0
   10.5083  -17.3729   27.9397 C   0  0  0  0  0  0  0  0  0  0  0  0
   10.6006  -18.6004   27.6640 O   0  0  0  0  0  0  0  0  0  0  0  0
    6.8067  -14.8389   26.1060 C   0  0  0  0  0  0  0  0  0  0  0  0
    6.2266  -13.6021   25.8502 C   0  0  0  0  0  0  0  0  0  0  0  0
   10.8455  -17.0029   29.2353 O   0  0  0  0  0  0  0  0  0  0  0  0
  2  1  1  1
  3  2  1  0
  4  2  1  0
  4  5  1  6
  6  7  2  0
  6  4  1  0
  9  8  1  6
  9 10  1  0
 10  6  1  0
 11 20  1  0
 11  9  1  0
 12 11  2  0
 13 14  1  0
 14 24  2  0
 14 15  1  0
 15 16  2  0
 16 17  1  0
 17 18  1  0
 19 18  1  6
 19 20  1  0
 19 21  1  0
 21 25  1  0
 22 21  2  0
 23 17  2  0
 24 23  1  0
M  END
$$$$
