VAY.pdb
     RDKit          3D

 25 25  0  0  1  0  0  0  0  0999 V2000
    7.4670  -13.1231   21.2360 C   0  0  0  0  0  0  0  0  0  0  0  0
    8.4398  -13.3519   20.0795 C   0  0  2  0  0  0  0  0  0  0  0  0
    7.9736  -12.5240   18.9179 C   0  0  0  0  0  0  0  0  0  0  0  0
    8.4107  -14.8543   19.8040 C   0  0  2  0  0  0  0  0  0  0  0  0
    7.0118  -15.1446   19.3986 N   0  0  0  0  0  0  0  0  0  0  0  0
    8.6814  -15.6557   21.0190 C   0  0  0  0  0  0  0  0  0  0  0  0
    7.7348  -15.9559   21.8247 O   0  0  0  0  0  0  0  0  0  0  0  0
   11.4529  -17.7476   22.4922 C   0  0  0  0  0  0  0  0  0  0  0  0
   10.1136  -17.0010   22.5398 C   0  0  2  0  0  0  0  0  0  0  0  0
    9.9774  -16.1466   21.3799 N   0  0  0  0  0  0  0  0  0  0  0  0
   10.0460  -16.2785   23.8229 C   0  0  0  0  0  0  0  0  0  0  0  0
    9.7366  -15.0660   23.7973 O   0  0  0  0  0  0  0  0  0  0  0  0
    6.3430  -10.9045   26.5855 O   0  0  0  0  0  0  0  0  0  0  0  0
    6.8538  -12.2153   26.5080 C   0  0  0  0  0  0  0  0  0  0  0  0
    6.1174  -13.1931   25.8905 C   0  0  0  0  0  0  0  0  0  0  0  0
    6.5804  -14.4809   25.7951 C   0  0  0  0  0  0  0  0  0  0  0  0
    7.8061  -14.8568   26.3128 C   0  0  0  0  0  0  0  0  0  0  0  0
    8.3504  -16.2040   26.2585 C   0  0  0  0  0  0  0  0  0  0  0  0
    9.8422  -16.3343   26.3120 C   0  0  2  0  0  0  0  0  0  0  0  0
   10.3141  -16.9018   25.0618 N   0  0  0  0  0  0  0  0  0  0  0  0
   10.2082  -17.2744   27.3968 C   0  0  0  0  0  0  0  0  0  0  0  0
   10.2787  -18.5118   27.1621 O   0  0  0  0  0  0  0  0  0  0  0  0
    8.5424  -13.8716   26.9322 C   0  0  0  0  0  0  0  0  0  0  0  0
    8.0785  -12.5654   27.0323 C   0  0  0  0  0  0  0  0  0  0  0  0
   10.4889  -16.8745   28.6970 O   0  0  0  0  0  0  0  0  0  0  0  0
  2  1  1  1
  3  2  1  0
  4  2  1  0
  4  5  1  1
  6  7  2  0
  6  4  1  0
  9  8  1  6
  9 10  1  0
 10  6  1  0
 11 20  1  0
 11  9  1  0
 12 11  2  0
 13 14  1  0
 14 24  2  0
 14 15  1  0
 15 16  2  0
 16 17  1  0
 17 18  1  0
 19 18  1  6
 19 20  1  0
 19 21  1  0
 21 25  1  0
 22 21  2  0
 23 17  2  0
 24 23  1  0
M  END
$$$$
