VAY.pdb
     RDKit          3D

 25 25  0  0  1  0  0  0  0  0999 V2000
    6.4325  -14.2621   19.8462 C   0  0  0  0  0  0  0  0  0  0  0  0
    7.6804  -15.1060   20.1045 C   0  0  2  0  0  0  0  0  0  0  0  0
    7.8247  -16.0716   18.9648 C   0  0  0  0  0  0  0  0  0  0  0  0
    7.4483  -15.7881   21.4517 C   0  0  2  0  0  0  0  0  0  0  0  0
    7.0896  -14.6888   22.3835 N   0  0  0  0  0  0  0  0  0  0  0  0
    8.6777  -16.4186   21.9836 C   0  0  0  0  0  0  0  0  0  0  0  0
    9.0230  -17.5909   21.6068 O   0  0  0  0  0  0  0  0  0  0  0  0
   11.9875  -15.8790   22.7208 C   0  0  0  0  0  0  0  0  0  0  0  0
   10.7395  -16.4929   23.3682 C   0  0  2  0  0  0  0  0  0  0  0  0
    9.5530  -15.7915   22.9277 N   0  0  0  0  0  0  0  0  0  0  0  0
   10.9344  -16.4741   24.8292 C   0  0  0  0  0  0  0  0  0  0  0  0
   12.0210  -16.0364   25.2701 O   0  0  0  0  0  0  0  0  0  0  0  0
    6.7868  -11.3854   26.0740 O   0  0  0  0  0  0  0  0  0  0  0  0
    7.2909  -12.6310   26.4979 C   0  0  0  0  0  0  0  0  0  0  0  0
    8.2842  -12.6730   27.4419 C   0  0  0  0  0  0  0  0  0  0  0  0
    8.8010  -13.8660   27.8801 C   0  0  0  0  0  0  0  0  0  0  0  0
    8.3494  -15.0796   27.3958 C   0  0  0  0  0  0  0  0  0  0  0  0
    8.8612  -16.3774   27.8056 C   0  0  0  0  0  0  0  0  0  0  0  0
   10.1394  -16.8327   27.1701 C   0  0  2  0  0  0  0  0  0  0  0  0
    9.9484  -16.9264   25.7340 N   0  0  0  0  0  0  0  0  0  0  0  0
   10.4720  -18.1881   27.6668 C   0  0  0  0  0  0  0  0  0  0  0  0
   10.4093  -19.1784   26.8879 O   0  0  0  0  0  0  0  0  0  0  0  0
    7.3518  -15.0327   26.4477 C   0  0  0  0  0  0  0  0  0  0  0  0
    6.8245  -13.8274   25.9997 C   0  0  0  0  0  0  0  0  0  0  0  0
   10.8614  -18.4528   28.9736 O   0  0  0  0  0  0  0  0  0  0  0  0
  2  1  1  6
  3  2  1  0
  4  2  1  0
  4  5  1  1
  6  7  2  0
  6  4  1  0
  9  8  1  6
  9 10  1  0
 10  6  1  0
 11 20  1  0
 11  9  1  0
 12 11  2  0
 13 14  1  0
 14 24  2  0
 14 15  1  0
 15 16  2  0
 16 17  1  0
 17 18  1  0
 19 18  1  1
 19 20  1  0
 19 21  1  0
 21 25  1  0
 22 21  2  0
 23 17  2  0
 24 23  1  0
M  END
$$$$
