VAY.pdb
     RDKit          3D

 25 25  0  0  1  0  0  0  0  0999 V2000
    6.6996  -13.9724   19.2478 C   0  0  0  0  0  0  0  0  0  0  0  0
    7.8289  -13.0863   19.7728 C   0  0  2  0  0  0  0  0  0  0  0  0
    8.3235  -12.2490   18.6298 C   0  0  0  0  0  0  0  0  0  0  0  0
    8.8844  -14.0430   20.3249 C   0  0  2  0  0  0  0  0  0  0  0  0
    9.2654  -14.9017   19.1748 N   0  0  0  0  0  0  0  0  0  0  0  0
    8.3408  -14.9400   21.3698 C   0  0  0  0  0  0  0  0  0  0  0  0
    7.9551  -14.4698   22.4946 O   0  0  0  0  0  0  0  0  0  0  0  0
    7.4448  -18.5876   21.8664 C   0  0  0  0  0  0  0  0  0  0  0  0
    7.7110  -17.1470   22.3216 C   0  0  2  0  0  0  0  0  0  0  0  0
    8.2036  -16.3569   21.2139 N   0  0  0  0  0  0  0  0  0  0  0  0
    8.6326  -17.2009   23.4709 C   0  0  0  0  0  0  0  0  0  0  0  0
    9.6929  -17.8533   23.3420 O   0  0  0  0  0  0  0  0  0  0  0  0
    5.2573  -11.6217   26.9240 O   0  0  0  0  0  0  0  0  0  0  0  0
    6.3345  -12.5185   26.7801 C   0  0  0  0  0  0  0  0  0  0  0  0
    6.0895  -13.8173   26.4160 C   0  0  0  0  0  0  0  0  0  0  0  0
    7.1114  -14.7202   26.2658 C   0  0  0  0  0  0  0  0  0  0  0  0
    8.4327  -14.3691   26.4720 C   0  0  0  0  0  0  0  0  0  0  0  0
    9.5610  -15.2772   26.3437 C   0  0  0  0  0  0  0  0  0  0  0  0
    9.2684  -16.6515   25.8234 C   0  0  2  0  0  0  0  0  0  0  0  0
    8.3617  -16.5485   24.6942 N   0  0  0  0  0  0  0  0  0  0  0  0
    8.5825  -17.4335   26.8782 C   0  0  0  0  0  0  0  0  0  0  0  0
    7.3627  -17.7292   26.7518 O   0  0  0  0  0  0  0  0  0  0  0  0
    8.6741  -13.0636   26.8377 C   0  0  0  0  0  0  0  0  0  0  0  0
    7.6431  -12.1445   26.9917 C   0  0  0  0  0  0  0  0  0  0  0  0
    9.2101  -17.8787   28.0345 O   0  0  0  0  0  0  0  0  0  0  0  0
  2  1  1  6
  3  2  1  0
  4  2  1  0
  4  5  1  6
  6  7  2  0
  6  4  1  0
  9  8  1  6
  9 10  1  0
 10  6  1  0
 11 20  1  0
 11  9  1  0
 12 11  2  0
 13 14  1  0
 14 24  2  0
 14 15  1  0
 15 16  2  0
 16 17  1  0
 17 18  1  0
 19 18  1  1
 19 20  1  0
 19 21  1  0
 21 25  1  0
 22 21  2  0
 23 17  2  0
 24 23  1  0
M  END
$$$$
