EQD.pdb
     RDKit          3D

 27 26  0  0  1  0  0  0  0  0999 V2000
    8.9969  -17.0885   16.0339 N   0  0  0  0  0  0  0  0  0  0  0  0
    8.4070  -17.5889   17.2589 C   0  0  1  0  0  0  0  0  0  0  0  0
    8.4637  -19.0527   17.4040 C   0  0  0  0  0  0  0  0  0  0  0  0
    9.7298  -19.6837   17.8236 C   0  0  0  0  0  0  0  0  0  0  0  0
    9.7926  -21.1255   17.9203 C   0  0  0  0  0  0  0  0  0  0  0  0
    8.7919  -21.8370   17.6783 O   0  0  0  0  0  0  0  0  0  0  0  0
    8.8590  -16.8154   18.4220 C   0  0  0  0  0  0  0  0  0  0  0  0
   10.0539  -16.4126   18.4650 O   0  0  0  0  0  0  0  0  0  0  0  0
   10.9601  -21.7740   18.2847 O   0  0  0  0  0  0  0  0  0  0  0  0
    7.2443  -11.7739   19.7290 N   0  0  0  0  0  0  0  0  0  0  0  0
    7.5229  -12.8535   20.5977 C   0  0  0  0  0  0  0  0  0  0  0  0
    8.4958  -12.8017   21.3726 O   0  0  0  0  0  0  0  0  0  0  0  0
    6.6700  -14.0850   20.6201 C   0  0  0  0  0  0  0  0  0  0  0  0
    7.3728  -15.1443   21.4087 C   0  0  0  0  0  0  0  0  0  0  0  0
    8.5309  -15.7065   20.6106 C   0  0  2  0  0  0  0  0  0  0  0  0
    8.0174  -16.4940   19.4978 N   0  0  0  0  0  0  0  0  0  0  0  0
    9.4526  -16.5134   21.4120 C   0  0  0  0  0  0  0  0  0  0  0  0
    9.2543  -17.7610   21.6122 O   0  0  0  0  0  0  0  0  0  0  0  0
   10.6462  -16.0186   22.0445 N   0  0  0  0  0  0  0  0  0  0  0  0
   11.4958  -16.8775   22.8456 C   0  0  1  0  0  0  0  0  0  0  0  0
   12.9255  -16.4311   22.8833 C   0  0  0  0  0  0  0  0  0  0  0  0
   13.8139  -17.2939   23.6713 C   0  0  0  0  0  0  0  0  0  0  0  0
   14.1968  -16.9188   24.8030 O   0  0  0  0  0  0  0  0  0  0  0  0
   10.9053  -17.1206   24.1897 C   0  0  0  0  0  0  0  0  0  0  0  0
    9.9951  -16.3944   24.6734 O   0  0  0  0  0  0  0  0  0  0  0  0
   14.2475  -18.5204   23.2019 O   0  0  0  0  0  0  0  0  0  0  0  0
   11.3204  -18.1668   24.9990 O   0  0  0  0  0  0  0  0  0  0  0  0
  2  1  1  6
  2  7  1  0
  3  2  1  0
  3  4  1  0
  4  5  1  0
  5  6  2  0
  7  8  2  0
  9  5  1  0
 11 10  1  0
 11 13  1  0
 12 11  2  0
 14 13  1  0
 15 14  1  1
 16 15  1  0
 16  7  1  0
 17 15  1  0
 17 19  1  0
 18 17  2  0
 20 19  1  0
 20 21  1  1
 22 21  1  0
 22 26  1  0
 23 22  2  0
 24 20  1  0
 24 27  1  0
 25 24  2  0
M  END
$$$$
