EQD.pdb
     RDKit          3D

 27 26  0  0  1  0  0  0  0  0999 V2000
    8.0827  -17.8373   16.7367 N   0  0  0  0  0  0  0  0  0  0  0  0
    9.5019  -17.6306   16.9419 C   0  0  1  0  0  0  0  0  0  0  0  0
   10.2467  -17.2886   15.7191 C   0  0  0  0  0  0  0  0  0  0  0  0
    9.5460  -16.5914   14.6235 C   0  0  0  0  0  0  0  0  0  0  0  0
   10.3016  -16.1842   13.4593 C   0  0  0  0  0  0  0  0  0  0  0  0
    9.8530  -15.3334   12.6587 O   0  0  0  0  0  0  0  0  0  0  0  0
    9.7516  -16.7670   18.1026 C   0  0  0  0  0  0  0  0  0  0  0  0
   10.9407  -16.4731   18.4049 O   0  0  0  0  0  0  0  0  0  0  0  0
   11.5484  -16.7196   13.1849 O   0  0  0  0  0  0  0  0  0  0  0  0
    9.5497  -12.4277   19.5628 N   0  0  0  0  0  0  0  0  0  0  0  0
    8.5869  -13.0038   18.7032 C   0  0  0  0  0  0  0  0  0  0  0  0
    8.6995  -12.8915   17.4685 O   0  0  0  0  0  0  0  0  0  0  0  0
    7.4100  -13.7619   19.2366 C   0  0  0  0  0  0  0  0  0  0  0  0
    7.8495  -14.5651   20.4197 C   0  0  0  0  0  0  0  0  0  0  0  0
    9.0464  -15.4185   20.0550 C   0  0  2  0  0  0  0  0  0  0  0  0
    8.7217  -16.2424   18.8983 N   0  0  0  0  0  0  0  0  0  0  0  0
    9.5162  -16.2625   21.1550 C   0  0  0  0  0  0  0  0  0  0  0  0
    8.7655  -17.1488   21.6906 O   0  0  0  0  0  0  0  0  0  0  0  0
   10.8285  -16.1989   21.7412 N   0  0  0  0  0  0  0  0  0  0  0  0
   11.1718  -16.9625   22.9246 C   0  0  1  0  0  0  0  0  0  0  0  0
   12.3795  -17.8303   22.7423 C   0  0  0  0  0  0  0  0  0  0  0  0
   12.4375  -18.5331   21.4549 C   0  0  0  0  0  0  0  0  0  0  0  0
   11.8297  -19.6189   21.3147 O   0  0  0  0  0  0  0  0  0  0  0  0
   11.2318  -16.0930   24.1307 C   0  0  0  0  0  0  0  0  0  0  0  0
   11.4037  -16.5528   25.2920 O   0  0  0  0  0  0  0  0  0  0  0  0
   13.1481  -18.0320   20.3794 O   0  0  0  0  0  0  0  0  0  0  0  0
   11.1025  -14.7149   24.0530 O   0  0  0  0  0  0  0  0  0  0  0  0
  2  1  1  6
  2  7  1  0
  3  2  1  0
  3  4  1  0
  4  5  1  0
  5  6  2  0
  7  8  2  0
  9  5  1  0
 11 10  1  0
 11 13  1  0
 12 11  2  0
 14 13  1  0
 15 14  1  1
 16 15  1  0
 16  7  1  0
 17 15  1  0
 17 19  1  0
 18 17  2  0
 20 19  1  0
 20 21  1  6
 22 21  1  0
 22 26  1  0
 23 22  2  0
 24 20  1  0
 24 27  1  0
 25 24  2  0
M  END
$$$$
