EQD.pdb
     RDKit          3D

 27 26  0  0  1  0  0  0  0  0999 V2000
    9.9093  -13.6565   17.9619 N   0  0  0  0  0  0  0  0  0  0  0  0
   10.3552  -14.9498   18.4389 C   0  0  1  0  0  0  0  0  0  0  0  0
   11.0614  -15.7563   17.4301 C   0  0  0  0  0  0  0  0  0  0  0  0
   12.4554  -15.4157   17.0865 C   0  0  0  0  0  0  0  0  0  0  0  0
   13.1339  -16.1919   16.0721 C   0  0  0  0  0  0  0  0  0  0  0  0
   13.5417  -15.6628   15.0138 O   0  0  0  0  0  0  0  0  0  0  0  0
   11.0200  -14.8359   19.7429 C   0  0  0  0  0  0  0  0  0  0  0  0
   11.8158  -13.8780   19.9449 O   0  0  0  0  0  0  0  0  0  0  0  0
   13.3576  -17.5487   16.2311 O   0  0  0  0  0  0  0  0  0  0  0  0
   10.9810  -18.0513   25.9072 N   0  0  0  0  0  0  0  0  0  0  0  0
   10.6815  -16.7173   25.5486 C   0  0  0  0  0  0  0  0  0  0  0  0
    9.7703  -16.0998   26.1301 O   0  0  0  0  0  0  0  0  0  0  0  0
   11.4383  -16.0041   24.4702 C   0  0  0  0  0  0  0  0  0  0  0  0
   10.7861  -16.2882   23.1543 C   0  0  0  0  0  0  0  0  0  0  0  0
   11.5450  -15.6025   22.0373 C   0  0  2  0  0  0  0  0  0  0  0  0
   10.8080  -15.7469   20.7890 N   0  0  0  0  0  0  0  0  0  0  0  0
   12.9121  -16.0990   21.8721 C   0  0  0  0  0  0  0  0  0  0  0  0
   13.1933  -17.0317   21.0432 O   0  0  0  0  0  0  0  0  0  0  0  0
   14.0586  -15.6148   22.5939 N   0  0  0  0  0  0  0  0  0  0  0  0
   15.4046  -16.0322   22.2539 C   0  0  1  0  0  0  0  0  0  0  0  0
   15.8814  -15.4893   20.9414 C   0  0  0  0  0  0  0  0  0  0  0  0
   17.3061  -15.7143   20.6690 C   0  0  0  0  0  0  0  0  0  0  0  0
   17.7300  -16.8827   20.5171 O   0  0  0  0  0  0  0  0  0  0  0  0
   16.3456  -15.7938   23.3817 C   0  0  0  0  0  0  0  0  0  0  0  0
   16.1295  -14.9321   24.2764 O   0  0  0  0  0  0  0  0  0  0  0  0
   18.2064  -14.6688   20.5733 O   0  0  0  0  0  0  0  0  0  0  0  0
   17.5254  -16.5083   23.5209 O   0  0  0  0  0  0  0  0  0  0  0  0
  2  1  1  6
  2  7  1  0
  3  2  1  0
  3  4  1  0
  4  5  1  0
  5  6  2  0
  7  8  2  0
  9  5  1  0
 11 10  1  0
 11 13  1  0
 12 11  2  0
 14 13  1  0
 15 14  1  1
 16 15  1  0
 16  7  1  0
 17 15  1  0
 17 19  1  0
 18 17  2  0
 20 19  1  0
 20 21  1  6
 22 21  1  0
 22 26  1  0
 23 22  2  0
 24 20  1  0
 24 27  1  0
 25 24  2  0
M  END
$$$$
