EQD.pdb
     RDKit          3D

 27 26  0  0  1  0  0  0  0  0999 V2000
   10.6679  -17.2955   17.1339 N   0  0  0  0  0  0  0  0  0  0  0  0
   11.8295  -17.8296   17.8155 C   0  0  1  0  0  0  0  0  0  0  0  0
   12.9892  -18.0660   16.9402 C   0  0  0  0  0  0  0  0  0  0  0  0
   12.8442  -18.9751   15.7870 C   0  0  0  0  0  0  0  0  0  0  0  0
   14.0069  -19.2665   14.9775 C   0  0  0  0  0  0  0  0  0  0  0  0
   14.6285  -20.3460   15.0981 O   0  0  0  0  0  0  0  0  0  0  0  0
   12.1060  -17.0913   19.0540 C   0  0  0  0  0  0  0  0  0  0  0  0
   12.7328  -15.9983   18.9905 O   0  0  0  0  0  0  0  0  0  0  0  0
   14.4777  -18.3638   14.0396 O   0  0  0  0  0  0  0  0  0  0  0  0
    8.6640  -16.6883   24.1352 N   0  0  0  0  0  0  0  0  0  0  0  0
    9.8572  -16.0575   24.5547 C   0  0  0  0  0  0  0  0  0  0  0  0
    9.8936  -15.4347   25.6319 O   0  0  0  0  0  0  0  0  0  0  0  0
   11.1076  -16.1133   23.7313 C   0  0  0  0  0  0  0  0  0  0  0  0
   10.8385  -16.9182   22.4994 C   0  0  0  0  0  0  0  0  0  0  0  0
   11.9596  -16.7305   21.4986 C   0  0  2  0  0  0  0  0  0  0  0  0
   11.6989  -17.5437   20.3184 N   0  0  0  0  0  0  0  0  0  0  0  0
   13.2825  -17.0444   22.0409 C   0  0  0  0  0  0  0  0  0  0  0  0
   13.7135  -18.2468   22.1087 O   0  0  0  0  0  0  0  0  0  0  0  0
   14.2202  -16.0751   22.5419 N   0  0  0  0  0  0  0  0  0  0  0  0
   15.4698  -16.4728   23.1598 C   0  0  1  0  0  0  0  0  0  0  0  0
   16.5636  -15.4627   22.9919 C   0  0  0  0  0  0  0  0  0  0  0  0
   17.5753  -15.8193   21.9900 C   0  0  0  0  0  0  0  0  0  0  0  0
   18.2277  -16.8802   22.1198 O   0  0  0  0  0  0  0  0  0  0  0  0
   15.2626  -16.9075   24.5678 C   0  0  0  0  0  0  0  0  0  0  0  0
   16.1853  -17.4052   25.2680 O   0  0  0  0  0  0  0  0  0  0  0  0
   17.8360  -15.0150   20.8955 O   0  0  0  0  0  0  0  0  0  0  0  0
   14.0354  -16.7913   25.2021 O   0  0  0  0  0  0  0  0  0  0  0  0
  2  1  1  6
  2  7  1  0
  3  2  1  0
  3  4  1  0
  4  5  1  0
  5  6  2  0
  7  8  2  0
  9  5  1  0
 11 10  1  0
 11 13  1  0
 12 11  2  0
 14 13  1  0
 15 14  1  1
 16 15  1  0
 16  7  1  0
 17 15  1  0
 17 19  1  0
 18 17  2  0
 20 19  1  0
 20 21  1  1
 22 21  1  0
 22 26  1  0
 23 22  2  0
 24 20  1  0
 24 27  1  0
 25 24  2  0
M  END
$$$$
