EQD.pdb
     RDKit          3D

 27 26  0  0  1  0  0  0  0  0999 V2000
    7.9259  -12.9185   18.5698 N   0  0  0  0  0  0  0  0  0  0  0  0
    7.7936  -14.1996   19.2334 C   0  0  1  0  0  0  0  0  0  0  0  0
    7.9954  -15.3613   18.3521 C   0  0  0  0  0  0  0  0  0  0  0  0
    9.0273  -15.2928   17.2995 C   0  0  0  0  0  0  0  0  0  0  0  0
    9.1918  -16.4206   16.4089 C   0  0  0  0  0  0  0  0  0  0  0  0
    8.2625  -16.7984   15.6607 O   0  0  0  0  0  0  0  0  0  0  0  0
    8.5377  -14.2230   20.4988 C   0  0  0  0  0  0  0  0  0  0  0  0
    9.5389  -13.4679   20.6365 O   0  0  0  0  0  0  0  0  0  0  0  0
   10.3815  -17.1259   16.3501 O   0  0  0  0  0  0  0  0  0  0  0  0
    6.1067  -14.4338   26.0531 N   0  0  0  0  0  0  0  0  0  0  0  0
    6.2360  -13.3908   25.1080 C   0  0  0  0  0  0  0  0  0  0  0  0
    5.4895  -12.3963   25.1635 O   0  0  0  0  0  0  0  0  0  0  0  0
    7.2625  -13.4404   24.0178 C   0  0  0  0  0  0  0  0  0  0  0  0
    7.8476  -14.8163   23.9684 C   0  0  0  0  0  0  0  0  0  0  0  0
    8.8692  -14.9088   22.8540 C   0  0  2  0  0  0  0  0  0  0  0  0
    8.1835  -15.0490   21.5764 N   0  0  0  0  0  0  0  0  0  0  0  0
    9.8265  -16.0019   23.0313 C   0  0  0  0  0  0  0  0  0  0  0  0
    9.6684  -17.1340   22.4573 O   0  0  0  0  0  0  0  0  0  0  0  0
   11.0143  -15.9354   23.8403 N   0  0  0  0  0  0  0  0  0  0  0  0
   11.8211  -17.1099   24.1067 C   0  0  1  0  0  0  0  0  0  0  0  0
   13.2929  -16.8294   24.1194 C   0  0  0  0  0  0  0  0  0  0  0  0
   13.8073  -16.2118   22.8912 C   0  0  0  0  0  0  0  0  0  0  0  0
   13.2866  -16.4990   21.7892 O   0  0  0  0  0  0  0  0  0  0  0  0
   11.3364  -17.8371   25.3111 C   0  0  0  0  0  0  0  0  0  0  0  0
   11.8325  -18.9330   25.6885 O   0  0  0  0  0  0  0  0  0  0  0  0
   14.8589  -15.3137   22.9091 O   0  0  0  0  0  0  0  0  0  0  0  0
   10.3037  -17.3525   26.0988 O   0  0  0  0  0  0  0  0  0  0  0  0
  2  1  1  6
  2  7  1  0
  3  2  1  0
  3  4  1  0
  4  5  1  0
  5  6  2  0
  7  8  2  0
  9  5  1  0
 11 10  1  0
 11 13  1  0
 12 11  2  0
 14 13  1  0
 15 14  1  1
 16 15  1  0
 16  7  1  0
 17 15  1  0
 17 19  1  0
 18 17  2  0
 20 19  1  0
 20 21  1  1
 22 21  1  0
 22 26  1  0
 23 22  2  0
 24 20  1  0
 24 27  1  0
 25 24  2  0
M  END
$$$$
