EQD.pdb
     RDKit          3D

 27 26  0  0  1  0  0  0  0  0999 V2000
   13.4106  -15.8131   16.6774 N   0  0  0  0  0  0  0  0  0  0  0  0
   14.1415  -15.5217   17.8940 C   0  0  1  0  0  0  0  0  0  0  0  0
   15.2948  -14.6263   17.7074 C   0  0  0  0  0  0  0  0  0  0  0  0
   15.7303  -14.2931   16.3374 C   0  0  0  0  0  0  0  0  0  0  0  0
   17.1406  -14.3476   16.0207 C   0  0  0  0  0  0  0  0  0  0  0  0
   17.6041  -15.2359   15.2708 O   0  0  0  0  0  0  0  0  0  0  0  0
   13.2309  -15.1680   18.9900 C   0  0  0  0  0  0  0  0  0  0  0  0
   13.6962  -15.0299   20.1546 O   0  0  0  0  0  0  0  0  0  0  0  0
   18.0318  -13.4214   16.5346 O   0  0  0  0  0  0  0  0  0  0  0  0
    7.5890  -12.4390   18.6210 N   0  0  0  0  0  0  0  0  0  0  0  0
    7.7625  -12.6435   20.0087 C   0  0  0  0  0  0  0  0  0  0  0  0
    6.9509  -12.1631   20.8211 O   0  0  0  0  0  0  0  0  0  0  0  0
    8.9137  -13.4358   20.5488 C   0  0  0  0  0  0  0  0  0  0  0  0
    9.7700  -13.8827   19.4065 C   0  0  0  0  0  0  0  0  0  0  0  0
   11.0223  -14.5574   19.9263 C   0  0  2  0  0  0  0  0  0  0  0  0
   11.8545  -14.9688   18.8036 N   0  0  0  0  0  0  0  0  0  0  0  0
   10.7482  -15.7046   20.7933 C   0  0  0  0  0  0  0  0  0  0  0  0
   10.5758  -16.8800   20.3191 O   0  0  0  0  0  0  0  0  0  0  0  0
   10.6451  -15.6491   22.2272 N   0  0  0  0  0  0  0  0  0  0  0  0
   11.0716  -16.7528   23.0647 C   0  0  1  0  0  0  0  0  0  0  0  0
   12.4774  -17.1950   22.7946 C   0  0  0  0  0  0  0  0  0  0  0  0
   12.9595  -18.2677   23.6731 C   0  0  0  0  0  0  0  0  0  0  0  0
   13.5160  -17.9770   24.7565 O   0  0  0  0  0  0  0  0  0  0  0  0
   10.7912  -16.4816   24.5008 C   0  0  0  0  0  0  0  0  0  0  0  0
   10.7764  -15.3163   24.9819 O   0  0  0  0  0  0  0  0  0  0  0  0
   12.8187  -19.6030   23.3418 O   0  0  0  0  0  0  0  0  0  0  0  0
   10.5264  -17.4986   25.4049 O   0  0  0  0  0  0  0  0  0  0  0  0
  2  1  1  6
  2  7  1  0
  3  2  1  0
  3  4  1  0
  4  5  1  0
  5  6  2  0
  7  8  2  0
  9  5  1  0
 11 10  1  0
 11 13  1  0
 12 11  2  0
 14 13  1  0
 15 14  1  6
 16 15  1  0
 16  7  1  0
 17 15  1  0
 17 19  1  0
 18 17  2  0
 20 19  1  0
 20 21  1  1
 22 21  1  0
 22 26  1  0
 23 22  2  0
 24 20  1  0
 24 27  1  0
 25 24  2  0
M  END
$$$$
