EQD.pdb
     RDKit          3D

 27 26  0  0  1  0  0  0  0  0999 V2000
    7.8060  -18.1443   16.2377 N   0  0  0  0  0  0  0  0  0  0  0  0
    9.0708  -17.4379   16.2551 C   0  0  1  0  0  0  0  0  0  0  0  0
    9.4541  -16.8510   14.9607 C   0  0  0  0  0  0  0  0  0  0  0  0
    8.4074  -16.5862   13.9548 C   0  0  0  0  0  0  0  0  0  0  0  0
    8.7812  -15.9554   12.7081 C   0  0  0  0  0  0  0  0  0  0  0  0
    9.8869  -16.1861   12.1692 O   0  0  0  0  0  0  0  0  0  0  0  0
    9.1636  -16.5410   17.4138 C   0  0  0  0  0  0  0  0  0  0  0  0
   10.2442  -15.9270   17.6301 O   0  0  0  0  0  0  0  0  0  0  0  0
    7.9322  -15.0722   12.0634 O   0  0  0  0  0  0  0  0  0  0  0  0
    7.9246  -12.3792   19.4277 N   0  0  0  0  0  0  0  0  0  0  0  0
    7.6586  -12.7499   20.7655 C   0  0  0  0  0  0  0  0  0  0  0  0
    7.9222  -11.9689   21.6983 O   0  0  0  0  0  0  0  0  0  0  0  0
    7.0572  -14.0785   21.1085 C   0  0  0  0  0  0  0  0  0  0  0  0
    6.9194  -14.8837   19.8552 C   0  0  0  0  0  0  0  0  0  0  0  0
    8.2671  -15.4351   19.4388 C   0  0  2  0  0  0  0  0  0  0  0  0
    8.0965  -16.3268   18.2996 N   0  0  0  0  0  0  0  0  0  0  0  0
    8.9701  -16.1306   20.5182 C   0  0  0  0  0  0  0  0  0  0  0  0
    8.7136  -17.3486   20.8126 O   0  0  0  0  0  0  0  0  0  0  0  0
    9.9948  -15.5496   21.3441 N   0  0  0  0  0  0  0  0  0  0  0  0
   10.7372  -16.3403   22.3059 C   0  0  1  0  0  0  0  0  0  0  0  0
   12.2156  -16.1018   22.2564 C   0  0  0  0  0  0  0  0  0  0  0  0
   12.9962  -16.9091   23.2018 C   0  0  0  0  0  0  0  0  0  0  0  0
   13.0160  -16.5955   24.4139 O   0  0  0  0  0  0  0  0  0  0  0  0
   10.1535  -16.2210   23.6695 C   0  0  0  0  0  0  0  0  0  0  0  0
   10.6099  -16.8513   24.6615 O   0  0  0  0  0  0  0  0  0  0  0  0
   13.7185  -18.0162   22.7955 O   0  0  0  0  0  0  0  0  0  0  0  0
    9.0655  -15.4045   23.9368 O   0  0  0  0  0  0  0  0  0  0  0  0
  2  1  1  6
  2  7  1  0
  3  2  1  0
  3  4  1  0
  4  5  1  0
  5  6  2  0
  7  8  2  0
  9  5  1  0
 11 10  1  0
 11 13  1  0
 12 11  2  0
 14 13  1  0
 15 14  1  1
 16 15  1  0
 16  7  1  0
 17 15  1  0
 17 19  1  0
 18 17  2  0
 20 19  1  0
 20 21  1  1
 22 21  1  0
 22 26  1  0
 23 22  2  0
 24 20  1  0
 24 27  1  0
 25 24  2  0
M  END
$$$$
