EQD.pdb
     RDKit          3D

 27 26  0  0  1  0  0  0  0  0999 V2000
   11.3128  -18.6088   16.7712 N   0  0  0  0  0  0  0  0  0  0  0  0
   10.4818  -17.6845   17.5157 C   0  0  1  0  0  0  0  0  0  0  0  0
    9.1411  -17.4803   16.9433 C   0  0  0  0  0  0  0  0  0  0  0  0
    8.9970  -17.3543   15.4802 C   0  0  0  0  0  0  0  0  0  0  0  0
    7.6728  -17.1970   14.9202 C   0  0  0  0  0  0  0  0  0  0  0  0
    7.3912  -16.2275   14.1805 O   0  0  0  0  0  0  0  0  0  0  0  0
   10.5233  -17.9722   18.9548 C   0  0  0  0  0  0  0  0  0  0  0  0
   10.5340  -19.1732   19.3409 O   0  0  0  0  0  0  0  0  0  0  0  0
    6.6660  -18.1107   15.1808 O   0  0  0  0  0  0  0  0  0  0  0  0
   13.3519  -15.8869   23.5005 N   0  0  0  0  0  0  0  0  0  0  0  0
   12.2565  -16.3771   24.2471 C   0  0  0  0  0  0  0  0  0  0  0  0
   12.4025  -16.6964   25.4414 O   0  0  0  0  0  0  0  0  0  0  0  0
   10.8956  -16.5291   23.6392 C   0  0  0  0  0  0  0  0  0  0  0  0
   10.9731  -16.1738   22.1882 C   0  0  0  0  0  0  0  0  0  0  0  0
   10.4620  -17.3216   21.3423 C   0  0  2  0  0  0  0  0  0  0  0  0
   10.5569  -16.9664   19.9327 N   0  0  0  0  0  0  0  0  0  0  0  0
    9.0912  -17.7189   21.6676 C   0  0  0  0  0  0  0  0  0  0  0  0
    8.2857  -18.1503   20.7725 O   0  0  0  0  0  0  0  0  0  0  0  0
    8.5093  -17.6746   22.9825 N   0  0  0  0  0  0  0  0  0  0  0  0
    7.4878  -18.6165   23.3956 C   0  0  1  0  0  0  0  0  0  0  0  0
    7.8305  -20.0407   23.0807 C   0  0  0  0  0  0  0  0  0  0  0  0
    6.8188  -21.0188   23.4986 C   0  0  0  0  0  0  0  0  0  0  0  0
    6.9918  -22.2334   23.2480 O   0  0  0  0  0  0  0  0  0  0  0  0
    7.0862  -18.3926   24.8108 C   0  0  0  0  0  0  0  0  0  0  0  0
    7.8483  -18.6490   25.7820 O   0  0  0  0  0  0  0  0  0  0  0  0
    5.6684  -20.6410   24.1668 O   0  0  0  0  0  0  0  0  0  0  0  0
    5.8424  -17.8847   25.1526 O   0  0  0  0  0  0  0  0  0  0  0  0
  2  1  1  6
  2  7  1  0
  3  2  1  0
  3  4  1  0
  4  5  1  0
  5  6  2  0
  7  8  2  0
  9  5  1  0
 11 10  1  0
 11 13  1  0
 12 11  2  0
 14 13  1  0
 15 14  1  1
 16 15  1  0
 16  7  1  0
 17 15  1  0
 17 19  1  0
 18 17  2  0
 20 19  1  0
 20 21  1  1
 22 21  1  0
 22 26  1  0
 23 22  2  0
 24 20  1  0
 24 27  1  0
 25 24  2  0
M  END
$$$$
