KSA.pdb
     RDKit          3D

 21 20  0  0  1  0  0  0  0  0999 V2000
    8.3248  -17.4450   17.8778 N   0  0  0  0  0  0  0  0  0  0  0  0
    9.6716  -16.9833   17.7451 C   0  0  1  0  0  0  0  0  0  0  0  0
    9.8512  -16.0355   16.5764 C   0  0  0  0  0  0  0  0  0  0  0  0
    8.5385  -15.8353   15.8284 C   0  0  0  0  0  0  0  0  0  0  0  0
    8.8050  -14.7591   14.7844 C   0  0  0  0  0  0  0  0  0  0  0  0
    7.5259  -14.5725   13.9628 C   0  0  0  0  0  0  0  0  0  0  0  0
    7.7786  -13.4936   13.0388 N   0  0  0  0  0  0  0  0  0  0  0  0
   10.1222  -16.2422   18.9619 C   0  0  0  0  0  0  0  0  0  0  0  0
   11.2367  -15.6940   18.9777 O   0  0  0  0  0  0  0  0  0  0  0  0
    7.5748  -16.0376   22.3215 O   0  0  0  0  0  0  0  0  0  0  0  0
    8.4820  -15.0361   22.0532 C   0  0  0  0  0  0  0  0  0  0  0  0
    9.7288  -15.5385   21.3580 C   0  0  2  0  0  0  0  0  0  0  0  0
    9.3031  -16.1469   20.1112 N   0  0  0  0  0  0  0  0  0  0  0  0
   10.4232  -16.5716   22.1428 C   0  0  0  0  0  0  0  0  0  0  0  0
   10.1321  -17.7724   21.9415 O   0  0  0  0  0  0  0  0  0  0  0  0
   13.4318  -16.8714   24.2186 C   0  0  0  0  0  0  0  0  0  0  0  0
   12.0483  -17.3545   23.8116 C   0  0  2  0  0  0  0  0  0  0  0  0
   11.4053  -16.2643   23.1146 N   0  0  0  0  0  0  0  0  0  0  0  0
   11.2574  -17.7687   24.9902 C   0  0  0  0  0  0  0  0  0  0  0  0
   11.6374  -18.7602   25.6546 O   0  0  0  0  0  0  0  0  0  0  0  0
   10.1233  -17.0992   25.3741 O   0  0  0  0  0  0  0  0  0  0  0  0
  2  1  1  1
  2  8  1  0
  3  2  1  0
  4  3  1  0
  5  4  1  0
  6  5  1  0
  7  6  1  0
  8  9  2  0
 11 10  1  0
 12 11  1  1
 13 12  1  0
 13  8  1  0
 14 15  2  0
 14 12  1  0
 17 16  1  1
 17 19  1  0
 17 18  1  0
 18 14  1  0
 19 21  1  0
 20 19  2  0
M  END
$$$$
