KSA.pdb
     RDKit          3D

 21 20  0  0  1  0  0  0  0  0999 V2000
    5.7775  -16.9814   21.1055 N   0  0  0  0  0  0  0  0  0  0  0  0
    6.9372  -16.4462   21.7485 C   0  0  1  0  0  0  0  0  0  0  0  0
    7.1386  -14.9728   21.4569 C   0  0  0  0  0  0  0  0  0  0  0  0
    8.0047  -14.7741   20.2187 C   0  0  0  0  0  0  0  0  0  0  0  0
    8.1275  -13.2688   20.0240 C   0  0  0  0  0  0  0  0  0  0  0  0
    8.9518  -13.0232   18.7567 C   0  0  0  0  0  0  0  0  0  0  0  0
    8.9686  -11.5967   18.5412 N   0  0  0  0  0  0  0  0  0  0  0  0
    6.8512  -16.5739   23.2348 C   0  0  0  0  0  0  0  0  0  0  0  0
    5.7823  -16.3292   23.8182 O   0  0  0  0  0  0  0  0  0  0  0  0
    8.5230  -18.7824   27.0979 O   0  0  0  0  0  0  0  0  0  0  0  0
    8.3433  -18.5485   25.7522 C   0  0  0  0  0  0  0  0  0  0  0  0
    7.9427  -17.1212   25.4485 C   0  0  2  0  0  0  0  0  0  0  0  0
    7.9690  -16.9712   24.0054 N   0  0  0  0  0  0  0  0  0  0  0  0
    8.8896  -16.1471   26.0142 C   0  0  0  0  0  0  0  0  0  0  0  0
    9.9963  -15.9916   25.4503 O   0  0  0  0  0  0  0  0  0  0  0  0
    8.9168  -13.3000   28.2947 C   0  0  0  0  0  0  0  0  0  0  0  0
    9.6246  -14.4985   27.6819 C   0  0  2  0  0  0  0  0  0  0  0  0
    8.6012  -15.3798   27.1681 N   0  0  0  0  0  0  0  0  0  0  0  0
   10.4669  -15.1914   28.6803 C   0  0  0  0  0  0  0  0  0  0  0  0
   10.1478  -16.3473   29.0420 O   0  0  0  0  0  0  0  0  0  0  0  0
   11.5838  -14.6047   29.2190 O   0  0  0  0  0  0  0  0  0  0  0  0
  2  1  1  6
  2  8  1  0
  3  2  1  0
  4  3  1  0
  5  4  1  0
  6  5  1  0
  7  6  1  0
  8  9  2  0
 11 10  1  0
 12 11  1  6
 13 12  1  0
 13  8  1  0
 14 15  2  0
 14 12  1  0
 17 16  1  1
 17 19  1  0
 17 18  1  0
 18 14  1  0
 19 21  1  0
 20 19  2  0
M  END
$$$$
