KSA.pdb
     RDKit          3D

 21 20  0  0  1  0  0  0  0  0999 V2000
    5.8014  -17.1967   21.2072 N   0  0  0  0  0  0  0  0  0  0  0  0
    6.8298  -16.4722   21.8872 C   0  0  1  0  0  0  0  0  0  0  0  0
    6.8962  -15.0183   21.4651 C   0  0  0  0  0  0  0  0  0  0  0  0
    7.7313  -14.8538   20.2008 C   0  0  0  0  0  0  0  0  0  0  0  0
    7.7099  -13.3678   19.8685 C   0  0  0  0  0  0  0  0  0  0  0  0
    8.5103  -13.1616   18.5792 C   0  0  0  0  0  0  0  0  0  0  0  0
    8.4542  -11.7523   18.2755 N   0  0  0  0  0  0  0  0  0  0  0  0
    6.6179  -16.4725   23.3663 C   0  0  0  0  0  0  0  0  0  0  0  0
    5.5290  -16.1049   23.8376 O   0  0  0  0  0  0  0  0  0  0  0  0
    8.7341  -19.0000   25.7460 O   0  0  0  0  0  0  0  0  0  0  0  0
    7.5425  -18.4016   26.0923 C   0  0  0  0  0  0  0  0  0  0  0  0
    7.4771  -16.9422   25.6971 C   0  0  2  0  0  0  0  0  0  0  0  0
    7.6372  -16.8856   24.2559 N   0  0  0  0  0  0  0  0  0  0  0  0
    8.5667  -16.1559   26.2968 C   0  0  0  0  0  0  0  0  0  0  0  0
    9.6294  -16.0157   25.6503 O   0  0  0  0  0  0  0  0  0  0  0  0
    9.0736  -13.6870   28.9302 C   0  0  0  0  0  0  0  0  0  0  0  0
    9.6071  -14.8375   28.0909 C   0  0  2  0  0  0  0  0  0  0  0  0
    8.4631  -15.5522   27.5728 N   0  0  0  0  0  0  0  0  0  0  0  0
   10.4700  -15.7308   28.8933 C   0  0  0  0  0  0  0  0  0  0  0  0
   10.0818  -16.8993   29.1230 O   0  0  0  0  0  0  0  0  0  0  0  0
   11.6792  -15.3161   29.3908 O   0  0  0  0  0  0  0  0  0  0  0  0
  2  1  1  6
  2  8  1  0
  3  2  1  0
  4  3  1  0
  5  4  1  0
  6  5  1  0
  7  6  1  0
  8  9  2  0
 11 10  1  0
 12 11  1  1
 13 12  1  0
 13  8  1  0
 14 15  2  0
 14 12  1  0
 17 16  1  1
 17 19  1  0
 17 18  1  0
 18 14  1  0
 19 21  1  0
 20 19  2  0
M  END
$$$$
