KSA.pdb
     RDKit          3D

 21 20  0  0  1  0  0  0  0  0999 V2000
    8.5003  -16.3458   20.9540 N   0  0  0  0  0  0  0  0  0  0  0  0
    8.6493  -14.9713   21.3193 C   0  0  1  0  0  0  0  0  0  0  0  0
    7.7780  -14.0493   20.4903 C   0  0  0  0  0  0  0  0  0  0  0  0
    7.5941  -14.5939   19.0788 C   0  0  0  0  0  0  0  0  0  0  0  0
    8.2961  -13.6119   18.1504 C   0  0  0  0  0  0  0  0  0  0  0  0
    8.0415  -14.0620   16.7088 C   0  0  0  0  0  0  0  0  0  0  0  0
    8.6182  -13.0556   15.8507 N   0  0  0  0  0  0  0  0  0  0  0  0
    8.2730  -14.7368   22.7463 C   0  0  0  0  0  0  0  0  0  0  0  0
    8.3173  -13.5892   23.2195 O   0  0  0  0  0  0  0  0  0  0  0  0
    7.5518  -18.0188   25.3223 O   0  0  0  0  0  0  0  0  0  0  0  0
    6.7585  -16.8945   25.3903 C   0  0  0  0  0  0  0  0  0  0  0  0
    7.4839  -15.6331   24.9746 C   0  0  2  0  0  0  0  0  0  0  0  0
    7.8622  -15.8003   23.5836 N   0  0  0  0  0  0  0  0  0  0  0  0
    8.7174  -15.4220   25.7487 C   0  0  0  0  0  0  0  0  0  0  0  0
    9.8082  -15.7707   25.2430 O   0  0  0  0  0  0  0  0  0  0  0  0
    9.8802  -13.5240   28.6569 C   0  0  0  0  0  0  0  0  0  0  0  0
    9.9800  -14.7347   27.7418 C   0  0  2  0  0  0  0  0  0  0  0  0
    8.7217  -14.8419   27.0397 N   0  0  0  0  0  0  0  0  0  0  0  0
   10.2634  -15.9655   28.5106 C   0  0  0  0  0  0  0  0  0  0  0  0
    9.3697  -16.8378   28.6054 O   0  0  0  0  0  0  0  0  0  0  0  0
   11.4739  -16.1768   29.1205 O   0  0  0  0  0  0  0  0  0  0  0  0
  2  1  1  6
  2  8  1  0
  3  2  1  0
  4  3  1  0
  5  4  1  0
  6  5  1  0
  7  6  1  0
  8  9  2  0
 11 10  1  0
 12 11  1  1
 13 12  1  0
 13  8  1  0
 14 15  2  0
 14 12  1  0
 17 16  1  1
 17 19  1  0
 17 18  1  0
 18 14  1  0
 19 21  1  0
 20 19  2  0
M  END
$$$$
