KSA.pdb
     RDKit          3D

 21 20  0  0  1  0  0  0  0  0999 V2000
    8.9581  -16.5884   21.0045 N   0  0  0  0  0  0  0  0  0  0  0  0
    9.2175  -15.2346   21.3847 C   0  0  1  0  0  0  0  0  0  0  0  0
    8.5456  -14.2319   20.4684 C   0  0  0  0  0  0  0  0  0  0  0  0
    8.7167  -14.6273   19.0065 C   0  0  0  0  0  0  0  0  0  0  0  0
    8.0051  -13.5560   18.1911 C   0  0  0  0  0  0  0  0  0  0  0  0
    8.1663  -13.9070   16.7090 C   0  0  0  0  0  0  0  0  0  0  0  0
    7.3672  -12.9613   15.9682 N   0  0  0  0  0  0  0  0  0  0  0  0
    8.7201  -14.9448   22.7636 C   0  0  0  0  0  0  0  0  0  0  0  0
    8.7988  -13.7933   23.2229 O   0  0  0  0  0  0  0  0  0  0  0  0
    7.6535  -18.1400   25.2940 O   0  0  0  0  0  0  0  0  0  0  0  0
    6.9200  -16.9746   25.3385 C   0  0  0  0  0  0  0  0  0  0  0  0
    7.7231  -15.7551   24.9410 C   0  0  2  0  0  0  0  0  0  0  0  0
    8.1546  -15.9597   23.5706 N   0  0  0  0  0  0  0  0  0  0  0  0
    8.9297  -15.5922   25.7675 C   0  0  0  0  0  0  0  0  0  0  0  0
   10.0204  -16.0174   25.3243 O   0  0  0  0  0  0  0  0  0  0  0  0
    9.9701  -13.6868   28.7459 C   0  0  0  0  0  0  0  0  0  0  0  0
   10.1557  -14.8249   27.7543 C   0  0  2  0  0  0  0  0  0  0  0  0
    8.9079  -14.9753   27.0412 N   0  0  0  0  0  0  0  0  0  0  0  0
   10.5264  -16.0799   28.4425 C   0  0  0  0  0  0  0  0  0  0  0  0
    9.6835  -17.0040   28.5091 O   0  0  0  0  0  0  0  0  0  0  0  0
   11.7634  -16.2588   29.0077 O   0  0  0  0  0  0  0  0  0  0  0  0
  2  1  1  6
  2  8  1  0
  3  2  1  0
  4  3  1  0
  5  4  1  0
  6  5  1  0
  7  6  1  0
  8  9  2  0
 11 10  1  0
 12 11  1  1
 13 12  1  0
 13  8  1  0
 14 15  2  0
 14 12  1  0
 17 16  1  1
 17 19  1  0
 17 18  1  0
 18 14  1  0
 19 21  1  0
 20 19  2  0
M  END
$$$$
