KSA.pdb
     RDKit          3D

 21 20  0  0  1  0  0  0  0  0999 V2000
    8.1184  -17.5986   19.7078 N   0  0  0  0  0  0  0  0  0  0  0  0
    8.6042  -16.5640   20.5670 C   0  0  1  0  0  0  0  0  0  0  0  0
    8.5623  -15.1964   19.9155 C   0  0  0  0  0  0  0  0  0  0  0  0
    8.3965  -15.3155   18.4051 C   0  0  0  0  0  0  0  0  0  0  0  0
    8.3325  -13.8905   17.8717 C   0  0  0  0  0  0  0  0  0  0  0  0
    8.0729  -13.9629   16.3641 C   0  0  0  0  0  0  0  0  0  0  0  0
    8.0469  -12.6038   15.8807 N   0  0  0  0  0  0  0  0  0  0  0  0
    7.7928  -16.4602   21.8174 C   0  0  0  0  0  0  0  0  0  0  0  0
    6.5603  -16.6079   21.7719 O   0  0  0  0  0  0  0  0  0  0  0  0
    9.5502  -17.0526   25.4736 O   0  0  0  0  0  0  0  0  0  0  0  0
    8.1992  -17.1730   25.2321 C   0  0  0  0  0  0  0  0  0  0  0  0
    7.6640  -16.0942   24.3157 C   0  0  2  0  0  0  0  0  0  0  0  0
    8.3984  -16.1948   23.0680 N   0  0  0  0  0  0  0  0  0  0  0  0
    7.8898  -14.7446   24.8569 C   0  0  0  0  0  0  0  0  0  0  0  0
    9.0225  -14.2285   24.7244 O   0  0  0  0  0  0  0  0  0  0  0  0
    5.9617  -12.0231   26.4772 C   0  0  0  0  0  0  0  0  0  0  0  0
    7.2496  -12.7758   26.1810 C   0  0  2  0  0  0  0  0  0  0  0  0
    6.8804  -14.0067   25.5203 N   0  0  0  0  0  0  0  0  0  0  0  0
    8.0083  -13.0476   27.4207 C   0  0  0  0  0  0  0  0  0  0  0  0
    8.0516  -14.2207   27.8575 O   0  0  0  0  0  0  0  0  0  0  0  0
    8.6635  -12.0538   28.1025 O   0  0  0  0  0  0  0  0  0  0  0  0
  2  1  1  6
  2  8  1  0
  3  2  1  0
  4  3  1  0
  5  4  1  0
  6  5  1  0
  7  6  1  0
  8  9  2  0
 11 10  1  0
 12 11  1  1
 13 12  1  0
 13  8  1  0
 14 15  2  0
 14 12  1  0
 17 16  1  1
 17 19  1  0
 17 18  1  0
 18 14  1  0
 19 21  1  0
 20 19  2  0
M  END
$$$$
