KSA.pdb
     RDKit          3D

 21 20  0  0  1  0  0  0  0  0999 V2000
    8.4644  -17.1932   17.7453 N   0  0  0  0  0  0  0  0  0  0  0  0
    7.8701  -16.8884   19.0097 C   0  0  1  0  0  0  0  0  0  0  0  0
    7.0590  -18.0411   19.5664 C   0  0  0  0  0  0  0  0  0  0  0  0
    7.7985  -19.3627   19.3953 C   0  0  0  0  0  0  0  0  0  0  0  0
    6.9193  -20.4271   20.0378 C   0  0  0  0  0  0  0  0  0  0  0  0
    7.5893  -21.7869   19.8190 C   0  0  0  0  0  0  0  0  0  0  0  0
    6.7178  -22.7786   20.4008 N   0  0  0  0  0  0  0  0  0  0  0  0
    8.9026  -16.5634   20.0397 C   0  0  0  0  0  0  0  0  0  0  0  0
   10.1062  -16.7428   19.7905 O   0  0  0  0  0  0  0  0  0  0  0  0
    7.7234  -14.9957   23.8114 O   0  0  0  0  0  0  0  0  0  0  0  0
    8.8633  -14.5825   23.1574 C   0  0  0  0  0  0  0  0  0  0  0  0
    9.5009  -15.6783   22.3310 C   0  0  2  0  0  0  0  0  0  0  0  0
    8.5417  -16.0501   21.3075 N   0  0  0  0  0  0  0  0  0  0  0  0
    9.7869  -16.8804   23.1302 C   0  0  0  0  0  0  0  0  0  0  0  0
    8.9046  -17.7640   23.2185 O   0  0  0  0  0  0  0  0  0  0  0  0
   12.6221  -18.7341   24.4154 C   0  0  0  0  0  0  0  0  0  0  0  0
   11.1830  -18.2759   24.5940 C   0  0  2  0  0  0  0  0  0  0  0  0
   11.0167  -17.0786   23.8022 N   0  0  0  0  0  0  0  0  0  0  0  0
   10.8761  -18.0161   26.0168 C   0  0  0  0  0  0  0  0  0  0  0  0
   10.5629  -16.8544   26.3649 O   0  0  0  0  0  0  0  0  0  0  0  0
   10.9249  -19.0090   26.9621 O   0  0  0  0  0  0  0  0  0  0  0  0
  2  1  1  6
  2  8  1  0
  3  2  1  0
  4  3  1  0
  5  4  1  0
  6  5  1  0
  7  6  1  0
  8  9  2  0
 11 10  1  0
 12 11  1  1
 13 12  1  0
 13  8  1  0
 14 15  2  0
 14 12  1  0
 17 16  1  1
 17 19  1  0
 17 18  1  0
 18 14  1  0
 19 21  1  0
 20 19  2  0
M  END
$$$$
