KSA.pdb
     RDKit          3D

 21 20  0  0  1  0  0  0  0  0999 V2000
   10.3353  -16.6942   20.1749 N   0  0  0  0  0  0  0  0  0  0  0  0
   10.1087  -17.3106   21.4451 C   0  0  1  0  0  0  0  0  0  0  0  0
   11.3197  -18.0688   21.9503 C   0  0  0  0  0  0  0  0  0  0  0  0
   12.5396  -17.7931   21.0793 C   0  0  0  0  0  0  0  0  0  0  0  0
   13.6676  -18.6439   21.6474 C   0  0  0  0  0  0  0  0  0  0  0  0
   14.9506  -18.2936   20.8879 C   0  0  0  0  0  0  0  0  0  0  0  0
   16.0106  -19.0730   21.4800 N   0  0  0  0  0  0  0  0  0  0  0  0
    9.7749  -16.3015   22.4953 C   0  0  0  0  0  0  0  0  0  0  0  0
   10.1134  -15.1157   22.3469 O   0  0  0  0  0  0  0  0  0  0  0  0
    7.2078  -17.4591   25.5366 O   0  0  0  0  0  0  0  0  0  0  0  0
    7.2503  -16.1487   25.1134 C   0  0  0  0  0  0  0  0  0  0  0  0
    8.6312  -15.7144   24.6722 C   0  0  2  0  0  0  0  0  0  0  0  0
    9.0745  -16.6651   23.6694 N   0  0  0  0  0  0  0  0  0  0  0  0
    9.6025  -15.7482   25.7771 C   0  0  0  0  0  0  0  0  0  0  0  0
   10.4297  -16.6868   25.8181 O   0  0  0  0  0  0  0  0  0  0  0  0
   10.5203  -13.6525   28.7132 C   0  0  0  0  0  0  0  0  0  0  0  0
   10.6333  -14.8898   27.8362 C   0  0  2  0  0  0  0  0  0  0  0  0
    9.6401  -14.7646   26.7942 N   0  0  0  0  0  0  0  0  0  0  0  0
   10.4229  -16.1245   28.6221 C   0  0  0  0  0  0  0  0  0  0  0  0
    9.3017  -16.6815   28.5832 O   0  0  0  0  0  0  0  0  0  0  0  0
   11.4183  -16.6741   29.3894 O   0  0  0  0  0  0  0  0  0  0  0  0
  2  1  1  6
  2  8  1  0
  3  2  1  0
  4  3  1  0
  5  4  1  0
  6  5  1  0
  7  6  1  0
  8  9  2  0
 11 10  1  0
 12 11  1  1
 13 12  1  0
 13  8  1  0
 14 15  2  0
 14 12  1  0
 17 16  1  1
 17 19  1  0
 17 18  1  0
 18 14  1  0
 19 21  1  0
 20 19  2  0
M  END
$$$$
