KSA.pdb
     RDKit          3D

 21 20  0  0  1  0  0  0  0  0999 V2000
    9.7697  -18.3219   16.2390 N   0  0  0  0  0  0  0  0  0  0  0  0
   10.3160  -18.9100   17.4223 C   0  0  1  0  0  0  0  0  0  0  0  0
   11.7008  -19.4849   17.2026 C   0  0  0  0  0  0  0  0  0  0  0  0
   11.7133  -20.4423   16.0168 C   0  0  0  0  0  0  0  0  0  0  0  0
   13.1254  -21.0077   15.9429 C   0  0  0  0  0  0  0  0  0  0  0  0
   13.2157  -21.8881   14.6930 C   0  0  0  0  0  0  0  0  0  0  0  0
   14.5942  -22.2957   14.5698 N   0  0  0  0  0  0  0  0  0  0  0  0
   10.4447  -17.9103   18.5254 C   0  0  0  0  0  0  0  0  0  0  0  0
   11.1127  -16.8774   18.3523 O   0  0  0  0  0  0  0  0  0  0  0  0
    8.2225  -18.4614   22.0346 O   0  0  0  0  0  0  0  0  0  0  0  0
    8.5765  -17.2035   21.5981 C   0  0  0  0  0  0  0  0  0  0  0  0
    9.9116  -17.1789   20.8859 C   0  0  2  0  0  0  0  0  0  0  0  0
    9.8182  -18.1110   19.7777 N   0  0  0  0  0  0  0  0  0  0  0  0
   11.0115  -17.6286   21.7539 C   0  0  0  0  0  0  0  0  0  0  0  0
   11.3874  -18.8200   21.6747 O   0  0  0  0  0  0  0  0  0  0  0  0
   13.7828  -16.2015   23.6056 C   0  0  0  0  0  0  0  0  0  0  0  0
   12.7460  -17.3051   23.4644 C   0  0  2  0  0  0  0  0  0  0  0  0
   11.6613  -16.7709   22.6734 N   0  0  0  0  0  0  0  0  0  0  0  0
   12.2633  -17.7589   24.7863 C   0  0  0  0  0  0  0  0  0  0  0  0
   11.0979  -17.4638   25.1378 O   0  0  0  0  0  0  0  0  0  0  0  0
   13.0542  -18.4915   25.6347 O   0  0  0  0  0  0  0  0  0  0  0  0
  2  1  1  6
  2  8  1  0
  3  2  1  0
  4  3  1  0
  5  4  1  0
  6  5  1  0
  7  6  1  0
  8  9  2  0
 11 10  1  0
 12 11  1  1
 13 12  1  0
 13  8  1  0
 14 15  2  0
 14 12  1  0
 17 16  1  1
 17 19  1  0
 17 18  1  0
 18 14  1  0
 19 21  1  0
 20 19  2  0
M  END
$$$$
