KSA.pdb
     RDKit          3D

 21 20  0  0  1  0  0  0  0  0999 V2000
    7.0725  -17.4230   20.1711 N   0  0  0  0  0  0  0  0  0  0  0  0
    7.8930  -16.5351   20.9347 C   0  0  1  0  0  0  0  0  0  0  0  0
    8.0949  -15.1963   20.2541 C   0  0  0  0  0  0  0  0  0  0  0  0
    7.8803  -15.3102   18.7495 C   0  0  0  0  0  0  0  0  0  0  0  0
    8.0917  -13.9122   18.1838 C   0  0  0  0  0  0  0  0  0  0  0  0
    7.8482  -13.9734   16.6729 C   0  0  0  0  0  0  0  0  0  0  0  0
    8.0822  -12.6455   16.1597 N   0  0  0  0  0  0  0  0  0  0  0  0
    7.2923  -16.2423   22.2711 C   0  0  0  0  0  0  0  0  0  0  0  0
    6.1664  -15.7230   22.3454 O   0  0  0  0  0  0  0  0  0  0  0  0
    8.4654  -18.2796   25.6764 O   0  0  0  0  0  0  0  0  0  0  0  0
    7.2746  -17.6157   25.4781 C   0  0  0  0  0  0  0  0  0  0  0  0
    7.4508  -16.2773   24.7941 C   0  0  2  0  0  0  0  0  0  0  0  0
    7.9803  -16.5444   23.4696 N   0  0  0  0  0  0  0  0  0  0  0  0
    8.4189  -15.4192   25.4954 C   0  0  0  0  0  0  0  0  0  0  0  0
    9.6317  -15.5227   25.2032 O   0  0  0  0  0  0  0  0  0  0  0  0
    8.4238  -12.4787   27.7211 C   0  0  0  0  0  0  0  0  0  0  0  0
    9.0710  -13.7373   27.1642 C   0  0  2  0  0  0  0  0  0  0  0  0
    8.0361  -14.4829   26.4854 N   0  0  0  0  0  0  0  0  0  0  0  0
    9.6858  -14.5444   28.2398 C   0  0  0  0  0  0  0  0  0  0  0  0
    9.1545  -15.6335   28.5566 O   0  0  0  0  0  0  0  0  0  0  0  0
   10.8176  -14.1343   28.8974 O   0  0  0  0  0  0  0  0  0  0  0  0
  2  1  1  6
  2  8  1  0
  3  2  1  0
  4  3  1  0
  5  4  1  0
  6  5  1  0
  7  6  1  0
  8  9  2  0
 11 10  1  0
 12 11  1  1
 13 12  1  0
 13  8  1  0
 14 15  2  0
 14 12  1  0
 17 16  1  1
 17 19  1  0
 17 18  1  0
 18 14  1  0
 19 21  1  0
 20 19  2  0
M  END
$$$$
