KSA.pdb
     RDKit          3D

 21 20  0  0  1  0  0  0  0  0999 V2000
    7.0776  -18.4922   20.8068 N   0  0  0  0  0  0  0  0  0  0  0  0
    7.9482  -18.6278   21.9330 C   0  0  1  0  0  0  0  0  0  0  0  0
    9.2948  -17.9685   21.7126 C   0  0  0  0  0  0  0  0  0  0  0  0
   10.2438  -18.8997   20.9676 C   0  0  0  0  0  0  0  0  0  0  0  0
   11.5713  -18.1603   20.8665 C   0  0  0  0  0  0  0  0  0  0  0  0
   12.5542  -19.0580   20.1090 C   0  0  0  0  0  0  0  0  0  0  0  0
   13.4237  -18.1837   19.3599 N   0  0  0  0  0  0  0  0  0  0  0  0
    7.3666  -17.9994   23.1576 C   0  0  0  0  0  0  0  0  0  0  0  0
    6.1345  -17.9618   23.3107 O   0  0  0  0  0  0  0  0  0  0  0  0
    8.2274  -19.0411   26.6224 O   0  0  0  0  0  0  0  0  0  0  0  0
    7.2072  -18.2265   26.1823 C   0  0  0  0  0  0  0  0  0  0  0  0
    7.7048  -16.9970   25.4537 C   0  0  2  0  0  0  0  0  0  0  0  0
    8.1922  -17.4389   24.1602 N   0  0  0  0  0  0  0  0  0  0  0  0
    8.8265  -16.3528   26.1552 C   0  0  0  0  0  0  0  0  0  0  0  0
    9.9845  -16.7836   25.9544 O   0  0  0  0  0  0  0  0  0  0  0  0
    9.3781  -13.4475   28.4077 C   0  0  0  0  0  0  0  0  0  0  0  0
    9.8143  -14.7272   27.7112 C   0  0  2  0  0  0  0  0  0  0  0  0
    8.6505  -15.2674   27.0466 N   0  0  0  0  0  0  0  0  0  0  0  0
   10.3713  -15.6992   28.6762 C   0  0  0  0  0  0  0  0  0  0  0  0
    9.7100  -16.7276   28.9477 O   0  0  0  0  0  0  0  0  0  0  0  0
   11.5880  -15.5058   29.2796 O   0  0  0  0  0  0  0  0  0  0  0  0
  2  1  1  6
  2  8  1  0
  3  2  1  0
  4  3  1  0
  5  4  1  0
  6  5  1  0
  7  6  1  0
  8  9  2  0
 11 10  1  0
 12 11  1  1
 13 12  1  0
 13  8  1  0
 14 15  2  0
 14 12  1  0
 17 16  1  1
 17 19  1  0
 17 18  1  0
 18 14  1  0
 19 21  1  0
 20 19  2  0
M  END
$$$$
