RFK.pdb
     RDKit          3D

 32 32  0  0  1  0  0  0  0  0999 V2000
   16.8528  -21.2445  -12.6156 N   0  0  0  0  0  0  0  0  0  0  0  0
   17.0821  -22.3238  -13.5403 C   0  0  0  0  0  0  0  0  0  0  0  0
   16.0940  -22.8073  -14.2029 N   0  0  0  0  0  0  0  0  0  0  0  0
   18.4095  -22.8236  -13.6911 N   0  0  0  0  0  0  0  0  0  0  0  0
   19.3314  -22.6670  -12.5482 C   0  0  0  0  0  0  0  0  0  0  0  0
   20.0067  -21.3305  -12.6054 C   0  0  0  0  0  0  0  0  0  0  0  0
   21.4957  -21.4085  -12.6408 C   0  0  0  0  0  0  0  0  0  0  0  0
   22.1554  -21.2616  -11.3221 C   0  0  2  0  0  0  0  0  0  0  0  0
   21.4041  -20.5716  -10.3107 N   0  0  0  0  0  0  0  0  0  0  0  0
   23.5336  -20.6602  -11.4552 C   0  0  0  0  0  0  0  0  0  0  0  0
   23.6602  -19.4109  -11.4867 O   0  0  0  0  0  0  0  0  0  0  0  0
   16.1157  -23.5869  -14.8699 N   0  0  0  0  0  0  0  0  0  0  0  0
   24.6964  -21.4695  -11.5465 C   0  0  1  0  0  0  0  0  0  0  0  0
   26.0373  -20.8704  -11.5897 C   0  0  0  0  0  0  0  0  0  0  0  0
   26.9847  -21.6170  -10.6881 C   0  0  0  0  0  0  0  0  0  0  0  0
   27.1478  -20.9499   -9.3741 C   0  0  0  0  0  0  0  0  0  0  0  0
   26.1299  -20.3219   -8.6897 C   0  0  0  0  0  0  0  0  0  0  0  0
   26.3310  -19.7111   -7.4641 C   0  0  0  0  0  0  0  0  0  0  0  0
   27.5746  -19.7039   -6.8658 C   0  0  0  0  0  0  0  0  0  0  0  0
   28.5971  -20.3348   -7.5532 C   0  0  0  0  0  0  0  0  0  0  0  0
   28.3953  -20.9442   -8.7768 C   0  0  0  0  0  0  0  0  0  0  0  0
   26.4818  -20.9437  -13.0158 O   0  0  0  0  0  0  0  0  0  0  0  0
   26.2321  -21.9271  -13.7589 N   0  0  0  0  0  0  0  0  0  0  0  0
   27.2257  -19.8719  -13.6028 C   0  0  2  0  0  0  0  0  0  0  0  0
   27.6412  -19.8718  -14.9904 C   0  0  0  0  0  0  0  0  0  0  0  0
   28.3947  -18.5843  -15.3404 C   0  0  0  0  0  0  0  0  0  0  0  0
   28.7559  -18.6876  -16.8063 C   0  0  0  0  0  0  0  0  0  0  0  0
   29.5623  -17.4937  -17.2681 C   0  0  0  0  0  0  0  0  0  0  0  0
   29.7917  -17.6111  -18.7598 N   0  0  0  0  0  0  0  0  0  0  0  0
   30.6468  -16.4976  -19.1562 C   0  0  0  0  0  0  0  0  0  0  0  0
   28.5431  -21.0610  -15.1810 O   0  0  0  0  0  0  0  0  0  0  0  0
   29.3629  -21.4191  -14.2909 O   0  0  0  0  0  0  0  0  0  0  0  0
  2  1  1  0
  3  2  2  0
  4  2  1  0
  5  4  1  0
  6  5  1  0
  7  8  1  0
  7  6  1  0
  8  9  1  1
 10  8  1  0
 11 10  2  0
 12 10  1  0
 13 21  1  0
 13 12  1  0
 13 14  1  1
 15 14  1  0
 16 15  2  0
 17 16  1  0
 18 19  1  0
 18 17  2  0
 19 20  2  0
 20 15  1  0
 21 23  1  0
 22 21  2  0
 23 24  1  0
 24 30  1  0
 24 25  1  1
 25 26  1  0
 26 27  1  0
 28 27  1  0
 28 29  1  0
 30 32  1  0
 31 30  2  0
M  END
$$$$
