RFK.pdb
     RDKit          3D

 32 32  0  0  1  0  0  0  0  0999 V2000
   27.3647  -19.8385  -20.7527 N   0  0  0  0  0  0  0  0  0  0  0  0
   28.0586  -21.0344  -21.1540 C   0  0  0  0  0  0  0  0  0  0  0  0
   28.5496  -21.1114  -22.3381 N   0  0  0  0  0  0  0  0  0  0  0  0
   28.1786  -22.1018  -20.2156 N   0  0  0  0  0  0  0  0  0  0  0  0
   27.5621  -21.9147  -18.8868 C   0  0  0  0  0  0  0  0  0  0  0  0
   26.1915  -22.5201  -18.8608 C   0  0  0  0  0  0  0  0  0  0  0  0
   26.0008  -23.5341  -17.7839 C   0  0  0  0  0  0  0  0  0  0  0  0
   26.7983  -23.2939  -16.5583 C   0  0  2  0  0  0  0  0  0  0  0  0
   27.7526  -24.3108  -16.2135 N   0  0  0  0  0  0  0  0  0  0  0  0
   25.9157  -22.9784  -15.3750 C   0  0  0  0  0  0  0  0  0  0  0  0
   25.3970  -23.9197  -14.7250 O   0  0  0  0  0  0  0  0  0  0  0  0
   29.1205  -21.8711  -22.7254 N   0  0  0  0  0  0  0  0  0  0  0  0
   25.6533  -21.6422  -14.9736 C   0  0  2  0  0  0  0  0  0  0  0  0
   24.9329  -21.3511  -13.7266 C   0  0  0  0  0  0  0  0  0  0  0  0
   25.5706  -20.1973  -12.9986 C   0  0  0  0  0  0  0  0  0  0  0  0
   26.6848  -20.6357  -12.1243 C   0  0  0  0  0  0  0  0  0  0  0  0
   27.9783  -20.8357  -12.5551 C   0  0  0  0  0  0  0  0  0  0  0  0
   28.9861  -21.2469  -11.7001 C   0  0  0  0  0  0  0  0  0  0  0  0
   28.7374  -21.4774  -10.3624 C   0  0  0  0  0  0  0  0  0  0  0  0
   27.4381  -21.2764   -9.9296 C   0  0  0  0  0  0  0  0  0  0  0  0
   26.4326  -20.8660  -10.7839 C   0  0  0  0  0  0  0  0  0  0  0  0
   23.5275  -21.0269  -14.1220 O   0  0  0  0  0  0  0  0  0  0  0  0
   23.2316  -20.0390  -14.8417 N   0  0  0  0  0  0  0  0  0  0  0  0
   22.4404  -21.8483  -13.6861 C   0  0  1  0  0  0  0  0  0  0  0  0
   21.0646  -21.5950  -14.0621 C   0  0  0  0  0  0  0  0  0  0  0  0
   20.1537  -22.7494  -13.6313 C   0  0  0  0  0  0  0  0  0  0  0  0
   18.7433  -22.3358  -13.9913 C   0  0  0  0  0  0  0  0  0  0  0  0
   17.7363  -23.4010  -13.6169 C   0  0  0  0  0  0  0  0  0  0  0  0
   16.3495  -22.8981  -13.9566 N   0  0  0  0  0  0  0  0  0  0  0  0
   15.4055  -23.9491  -13.5924 C   0  0  0  0  0  0  0  0  0  0  0  0
   20.6449  -20.3261  -13.3709 O   0  0  0  0  0  0  0  0  0  0  0  0
   19.9516  -19.4506  -13.9587 O   0  0  0  0  0  0  0  0  0  0  0  0
  2  1  1  0
  3  2  2  0
  4  2  1  0
  5  4  1  0
  6  5  1  0
  7  8  1  0
  7  6  1  0
  8  9  1  1
 10  8  1  0
 11 10  2  0
 12 10  1  0
 13 21  1  0
 13 12  1  0
 13 14  1  1
 15 14  1  0
 16 15  2  0
 17 16  1  0
 18 19  1  0
 18 17  2  0
 19 20  2  0
 20 15  1  0
 21 23  1  0
 22 21  2  0
 23 24  1  0
 24 30  1  0
 24 25  1  1
 25 26  1  0
 26 27  1  0
 28 27  1  0
 28 29  1  0
 30 32  1  0
 31 30  2  0
M  END
$$$$
