RFK.pdb
     RDKit          3D

 32 32  0  0  1  0  0  0  0  0999 V2000
   28.1332  -30.7353  -16.1723 N   0  0  0  0  0  0  0  0  0  0  0  0
   29.1939  -31.6785  -15.9316 C   0  0  0  0  0  0  0  0  0  0  0  0
   28.9116  -32.8367  -15.4540 N   0  0  0  0  0  0  0  0  0  0  0  0
   30.5332  -31.2922  -16.2344 N   0  0  0  0  0  0  0  0  0  0  0  0
   30.8800  -29.8638  -16.0921 C   0  0  0  0  0  0  0  0  0  0  0  0
   30.2723  -29.0686  -17.2075 C   0  0  0  0  0  0  0  0  0  0  0  0
   30.5515  -27.6059  -17.1266 C   0  0  0  0  0  0  0  0  0  0  0  0
   30.0633  -26.9492  -15.8912 C   0  0  2  0  0  0  0  0  0  0  0  0
   28.6509  -27.0349  -15.6433 N   0  0  0  0  0  0  0  0  0  0  0  0
   30.5260  -25.5148  -15.8053 C   0  0  0  0  0  0  0  0  0  0  0  0
   29.7212  -24.5905  -16.0801 O   0  0  0  0  0  0  0  0  0  0  0  0
   29.5703  -33.5840  -15.2075 N   0  0  0  0  0  0  0  0  0  0  0  0
   31.8508  -25.1787  -15.4214 C   0  0  2  0  0  0  0  0  0  0  0  0
   32.3572  -23.8066  -15.5618 C   0  0  0  0  0  0  0  0  0  0  0  0
   33.4076  -23.5165  -14.5223 C   0  0  0  0  0  0  0  0  0  0  0  0
   32.8249  -22.9487  -13.2828 C   0  0  0  0  0  0  0  0  0  0  0  0
   31.6566  -22.2196  -13.2364 C   0  0  0  0  0  0  0  0  0  0  0  0
   31.1517  -21.7084  -12.0534 C   0  0  0  0  0  0  0  0  0  0  0  0
   31.8035  -21.9086  -10.8537 C   0  0  0  0  0  0  0  0  0  0  0  0
   32.9771  -22.6410  -10.9003 C   0  0  0  0  0  0  0  0  0  0  0  0
   33.4804  -23.1509  -12.0817 C   0  0  0  0  0  0  0  0  0  0  0  0
   32.9253  -23.7101  -16.9419 O   0  0  0  0  0  0  0  0  0  0  0  0
   33.7965  -24.5051  -17.3785 N   0  0  0  0  0  0  0  0  0  0  0  0
   32.4883  -22.6854  -17.8393 C   0  0  1  0  0  0  0  0  0  0  0  0
   32.3166  -22.9066  -19.2605 C   0  0  0  0  0  0  0  0  0  0  0  0
   31.2932  -24.0157  -19.5263 C   0  0  0  0  0  0  0  0  0  0  0  0
   31.2243  -24.1800  -21.0290 C   0  0  0  0  0  0  0  0  0  0  0  0
   30.2361  -25.2537  -21.4285 C   0  0  0  0  0  0  0  0  0  0  0  0
   30.3863  -25.5239  -22.9103 N   0  0  0  0  0  0  0  0  0  0  0  0
   29.5748  -26.6953  -23.2223 C   0  0  0  0  0  0  0  0  0  0  0  0
   31.8331  -21.6109  -19.8534 O   0  0  0  0  0  0  0  0  0  0  0  0
   32.2942  -21.1685  -20.9417 O   0  0  0  0  0  0  0  0  0  0  0  0
  2  1  1  0
  3  2  2  0
  4  2  1  0
  5  4  1  0
  6  5  1  0
  7  8  1  0
  7  6  1  0
  8  9  1  6
 10  8  1  0
 11 10  2  0
 12 10  1  0
 13 21  1  0
 13 12  1  0
 13 14  1  1
 15 14  1  0
 16 15  2  0
 17 16  1  0
 18 19  1  0
 18 17  2  0
 19 20  2  0
 20 15  1  0
 21 23  1  0
 22 21  2  0
 23 24  1  0
 24 30  1  0
 24 25  1  6
 25 26  1  0
 26 27  1  0
 28 27  1  0
 28 29  1  0
 30 32  1  0
 31 30  2  0
M  END
$$$$
