RFK.pdb
     RDKit          3D

 32 32  0  0  1  0  0  0  0  0999 V2000
   29.2132  -23.4357  -20.2298 N   0  0  0  0  0  0  0  0  0  0  0  0
   27.8060  -23.1313  -20.2433 C   0  0  0  0  0  0  0  0  0  0  0  0
   27.2814  -22.6203  -21.2982 N   0  0  0  0  0  0  0  0  0  0  0  0
   27.0357  -23.4100  -19.0756 N   0  0  0  0  0  0  0  0  0  0  0  0
   27.7044  -24.1293  -17.9728 C   0  0  0  0  0  0  0  0  0  0  0  0
   28.6265  -23.2066  -17.2352 C   0  0  0  0  0  0  0  0  0  0  0  0
   28.1454  -22.8358  -15.8731 C   0  0  0  0  0  0  0  0  0  0  0  0
   27.0282  -21.8624  -15.8541 C   0  0  2  0  0  0  0  0  0  0  0  0
   27.3688  -20.5005  -16.1589 N   0  0  0  0  0  0  0  0  0  0  0  0
   26.2523  -21.9336  -14.5612 C   0  0  0  0  0  0  0  0  0  0  0  0
   25.9115  -23.0544  -14.1081 O   0  0  0  0  0  0  0  0  0  0  0  0
   26.2952  -22.3783  -21.4464 N   0  0  0  0  0  0  0  0  0  0  0  0
   25.8947  -20.7648  -13.8390 C   0  0  1  0  0  0  0  0  0  0  0  0
   25.0828  -20.8456  -12.6171 C   0  0  0  0  0  0  0  0  0  0  0  0
   25.5777  -19.8702  -11.5820 C   0  0  0  0  0  0  0  0  0  0  0  0
   26.6387  -20.4539  -10.7266 C   0  0  0  0  0  0  0  0  0  0  0  0
   27.8899  -20.8144  -11.1776 C   0  0  0  0  0  0  0  0  0  0  0  0
   28.8487  -21.3573  -10.3399 C   0  0  0  0  0  0  0  0  0  0  0  0
   28.5912  -21.5641   -9.0001 C   0  0  0  0  0  0  0  0  0  0  0  0
   27.3344  -21.2020   -8.5470 C   0  0  0  0  0  0  0  0  0  0  0  0
   26.3779  -20.6601   -9.3840 C   0  0  0  0  0  0  0  0  0  0  0  0
   23.6794  -20.5296  -13.0264 O   0  0  0  0  0  0  0  0  0  0  0  0
   23.3216  -19.3871  -13.4113 N   0  0  0  0  0  0  0  0  0  0  0  0
   22.6667  -21.5395  -12.9950 C   0  0  1  0  0  0  0  0  0  0  0  0
   21.2837  -21.2759  -13.3353 C   0  0  0  0  0  0  0  0  0  0  0  0
   20.5851  -22.5473  -13.8288 C   0  0  0  0  0  0  0  0  0  0  0  0
   19.1583  -22.1539  -14.1442 C   0  0  0  0  0  0  0  0  0  0  0  0
   18.3212  -23.3531  -14.5318 C   0  0  0  0  0  0  0  0  0  0  0  0
   16.9201  -22.8816  -14.8574 N   0  0  0  0  0  0  0  0  0  0  0  0
   16.1120  -24.0683  -15.1158 C   0  0  0  0  0  0  0  0  0  0  0  0
   20.6103  -20.7731  -12.0872 O   0  0  0  0  0  0  0  0  0  0  0  0
   20.7872  -21.3312  -10.9693 O   0  0  0  0  0  0  0  0  0  0  0  0
  2  1  1  0
  3  2  2  0
  4  2  1  0
  5  4  1  0
  6  5  1  0
  7  8  1  0
  7  6  1  0
  8  9  1  1
 10  8  1  0
 11 10  2  0
 12 10  1  0
 13 21  1  0
 13 12  1  0
 13 14  1  1
 15 14  1  0
 16 15  2  0
 17 16  1  0
 18 19  1  0
 18 17  2  0
 19 20  2  0
 20 15  1  0
 21 23  1  0
 22 21  2  0
 23 24  1  0
 24 30  1  0
 24 25  1  1
 25 26  1  0
 26 27  1  0
 28 27  1  0
 28 29  1  0
 30 32  1  0
 31 30  2  0
M  END
$$$$
