RFK.pdb
     RDKit          3D

 32 32  0  0  1  0  0  0  0  0999 V2000
   25.3448  -16.7705  -17.6933 N   0  0  0  0  0  0  0  0  0  0  0  0
   24.5934  -17.7705  -16.9804 C   0  0  0  0  0  0  0  0  0  0  0  0
   23.7213  -18.4720  -17.6101 N   0  0  0  0  0  0  0  0  0  0  0  0
   24.8451  -17.9503  -15.5880 N   0  0  0  0  0  0  0  0  0  0  0  0
   25.8859  -17.1058  -14.9681 C   0  0  0  0  0  0  0  0  0  0  0  0
   27.2361  -17.7306  -15.1479 C   0  0  0  0  0  0  0  0  0  0  0  0
   27.8924  -18.1261  -13.8684 C   0  0  0  0  0  0  0  0  0  0  0  0
   28.1495  -19.5786  -13.7268 C   0  0  2  0  0  0  0  0  0  0  0  0
   28.5524  -20.2703  -14.9196 N   0  0  0  0  0  0  0  0  0  0  0  0
   26.9862  -20.2870  -13.0758 C   0  0  0  0  0  0  0  0  0  0  0  0
   26.3550  -21.1585  -13.7236 O   0  0  0  0  0  0  0  0  0  0  0  0
   23.1311  -19.2190  -17.2269 N   0  0  0  0  0  0  0  0  0  0  0  0
   26.5828  -19.9953  -11.7463 C   0  0  1  0  0  0  0  0  0  0  0  0
   25.4655  -20.7123  -11.1169 C   0  0  0  0  0  0  0  0  0  0  0  0
   25.4027  -20.4135   -9.6422 C   0  0  0  0  0  0  0  0  0  0  0  0
   26.7381  -20.4790   -9.0016 C   0  0  0  0  0  0  0  0  0  0  0  0
   27.1467  -19.6606   -7.9710 C   0  0  0  0  0  0  0  0  0  0  0  0
   28.4059  -19.7590   -7.4047 C   0  0  0  0  0  0  0  0  0  0  0  0
   29.3188  -20.6921   -7.8523 C   0  0  0  0  0  0  0  0  0  0  0  0
   28.9083  -21.5142   -8.8876 C   0  0  0  0  0  0  0  0  0  0  0  0
   27.6512  -21.4152   -9.4523 C   0  0  0  0  0  0  0  0  0  0  0  0
   24.2260  -20.2479  -11.8131 O   0  0  0  0  0  0  0  0  0  0  0  0
   24.1259  -19.1120  -12.3434 N   0  0  0  0  0  0  0  0  0  0  0  0
   23.0798  -21.0990  -11.9044 C   0  0  1  0  0  0  0  0  0  0  0  0
   22.2379  -21.1591  -13.0816 C   0  0  0  0  0  0  0  0  0  0  0  0
   22.5552  -22.3992  -13.9239 C   0  0  0  0  0  0  0  0  0  0  0  0
   21.5547  -22.4101  -15.0591 C   0  0  0  0  0  0  0  0  0  0  0  0
   21.8062  -23.5563  -16.0141 C   0  0  0  0  0  0  0  0  0  0  0  0
   21.0301  -23.3044  -17.2891 N   0  0  0  0  0  0  0  0  0  0  0  0
   21.1769  -24.4891  -18.1276 C   0  0  0  0  0  0  0  0  0  0  0  0
   20.8128  -21.2165  -12.6024 O   0  0  0  0  0  0  0  0  0  0  0  0
   19.8427  -21.2169  -13.4096 O   0  0  0  0  0  0  0  0  0  0  0  0
  2  1  1  0
  3  2  2  0
  4  2  1  0
  5  4  1  0
  6  5  1  0
  7  8  1  0
  7  6  1  0
  8  9  1  6
 10  8  1  0
 11 10  2  0
 12 10  1  0
 13 21  1  0
 13 12  1  0
 13 14  1  1
 15 14  1  0
 16 15  2  0
 17 16  1  0
 18 19  1  0
 18 17  2  0
 19 20  2  0
 20 15  1  0
 21 23  1  0
 22 21  2  0
 23 24  1  0
 24 30  1  0
 24 25  1  1
 25 26  1  0
 26 27  1  0
 28 27  1  0
 28 29  1  0
 30 32  1  0
 31 30  2  0
M  END
$$$$
