RFK.pdb
     RDKit          3D

 32 32  0  0  1  0  0  0  0  0999 V2000
   28.5890  -27.9499  -23.1563 N   0  0  0  0  0  0  0  0  0  0  0  0
   28.3651  -28.5438  -24.4486 C   0  0  0  0  0  0  0  0  0  0  0  0
   28.2012  -27.7849  -25.4716 N   0  0  0  0  0  0  0  0  0  0  0  0
   28.3328  -29.9661  -24.5503 N   0  0  0  0  0  0  0  0  0  0  0  0
   28.9988  -30.7416  -23.4845 C   0  0  0  0  0  0  0  0  0  0  0  0
   27.9817  -31.4724  -22.6617 C   0  0  0  0  0  0  0  0  0  0  0  0
   28.5713  -32.2981  -21.5686 C   0  0  0  0  0  0  0  0  0  0  0  0
   29.2303  -31.5218  -20.4920 C   0  0  2  0  0  0  0  0  0  0  0  0
   30.6465  -31.3237  -20.6292 N   0  0  0  0  0  0  0  0  0  0  0  0
   28.9074  -32.0809  -19.1275 C   0  0  0  0  0  0  0  0  0  0  0  0
   29.2421  -33.2592  -18.8496 O   0  0  0  0  0  0  0  0  0  0  0  0
   27.9765  -28.0746  -26.4300 N   0  0  0  0  0  0  0  0  0  0  0  0
   28.2330  -31.3099  -18.1445 C   0  0  2  0  0  0  0  0  0  0  0  0
   28.0017  -31.8372  -16.7928 C   0  0  0  0  0  0  0  0  0  0  0  0
   28.8743  -31.1319  -15.7882 C   0  0  0  0  0  0  0  0  0  0  0  0
   30.3144  -31.4073  -16.0086 C   0  0  0  0  0  0  0  0  0  0  0  0
   30.9728  -32.5235  -15.5401 C   0  0  0  0  0  0  0  0  0  0  0  0
   32.3207  -32.7370  -15.7709 C   0  0  0  0  0  0  0  0  0  0  0  0
   33.0740  -31.8308  -16.4891 C   0  0  0  0  0  0  0  0  0  0  0  0
   32.4127  -30.7096  -16.9598 C   0  0  0  0  0  0  0  0  0  0  0  0
   31.0670  -30.4974  -16.7288 C   0  0  0  0  0  0  0  0  0  0  0  0
   26.5527  -31.6115  -16.4987 O   0  0  0  0  0  0  0  0  0  0  0  0
   25.9077  -30.6336  -16.9562 N   0  0  0  0  0  0  0  0  0  0  0  0
   25.8282  -32.5216  -15.6661 C   0  0  2  0  0  0  0  0  0  0  0  0
   24.4130  -32.3793  -15.3924 C   0  0  0  0  0  0  0  0  0  0  0  0
   23.7617  -31.3843  -16.3588 C   0  0  0  0  0  0  0  0  0  0  0  0
   22.4608  -30.9555  -15.7155 C   0  0  0  0  0  0  0  0  0  0  0  0
   21.6959  -29.9892  -16.5930 C   0  0  0  0  0  0  0  0  0  0  0  0
   21.0633  -28.9320  -15.7135 N   0  0  0  0  0  0  0  0  0  0  0  0
   20.4677  -27.9338  -16.5949 C   0  0  0  0  0  0  0  0  0  0  0  0
   23.7919  -33.7393  -15.5620 O   0  0  0  0  0  0  0  0  0  0  0  0
   22.5546  -33.9267  -15.3989 O   0  0  0  0  0  0  0  0  0  0  0  0
  2  1  1  0
  3  2  2  0
  4  2  1  0
  5  4  1  0
  6  5  1  0
  7  8  1  0
  7  6  1  0
  8  9  1  6
 10  8  1  0
 11 10  2  0
 12 10  1  0
 13 21  1  0
 13 12  1  0
 13 14  1  6
 15 14  1  0
 16 15  2  0
 17 16  1  0
 18 19  1  0
 18 17  2  0
 19 20  2  0
 20 15  1  0
 21 23  1  0
 22 21  2  0
 23 24  1  0
 24 30  1  0
 24 25  1  1
 25 26  1  0
 26 27  1  0
 28 27  1  0
 28 29  1  0
 30 32  1  0
 31 30  2  0
M  END
$$$$
