RFK.pdb
     RDKit          3D

 32 32  0  0  1  0  0  0  0  0999 V2000
   28.9525  -28.3338  -16.3727 N   0  0  0  0  0  0  0  0  0  0  0  0
   28.7208  -27.4252  -17.4652 C   0  0  0  0  0  0  0  0  0  0  0  0
   29.5779  -27.3540  -18.4189 N   0  0  0  0  0  0  0  0  0  0  0  0
   27.5378  -26.6285  -17.4517 N   0  0  0  0  0  0  0  0  0  0  0  0
   27.6156  -25.2812  -18.0513 C   0  0  0  0  0  0  0  0  0  0  0  0
   27.8266  -24.2499  -16.9847 C   0  0  0  0  0  0  0  0  0  0  0  0
   26.7561  -24.2288  -15.9466 C   0  0  0  0  0  0  0  0  0  0  0  0
   26.1358  -22.9018  -15.7228 C   0  0  2  0  0  0  0  0  0  0  0  0
   26.8667  -21.7687  -16.2183 N   0  0  0  0  0  0  0  0  0  0  0  0
   25.7696  -22.6979  -14.2726 C   0  0  0  0  0  0  0  0  0  0  0  0
   24.9077  -23.4433  -13.7442 O   0  0  0  0  0  0  0  0  0  0  0  0
   29.5674  -26.7080  -19.2163 N   0  0  0  0  0  0  0  0  0  0  0  0
   26.3739  -21.6832  -13.4849 C   0  0  1  0  0  0  0  0  0  0  0  0
   25.8704  -21.3630  -12.1422 C   0  0  0  0  0  0  0  0  0  0  0  0
   26.9649  -20.7822  -11.2862 C   0  0  0  0  0  0  0  0  0  0  0  0
   26.4686  -20.3628   -9.9536 C   0  0  0  0  0  0  0  0  0  0  0  0
   26.5317  -21.1433   -8.8198 C   0  0  0  0  0  0  0  0  0  0  0  0
   26.0535  -20.7080   -7.5960 C   0  0  0  0  0  0  0  0  0  0  0  0
   25.4858  -19.4581   -7.4553 C   0  0  0  0  0  0  0  0  0  0  0  0
   25.4224  -18.6740   -8.5942 C   0  0  0  0  0  0  0  0  0  0  0  0
   25.9000  -19.1095   -9.8154 C   0  0  0  0  0  0  0  0  0  0  0  0
   24.7601  -20.3799  -12.3359 O   0  0  0  0  0  0  0  0  0  0  0  0
   24.9092  -19.2951  -12.9545 N   0  0  0  0  0  0  0  0  0  0  0  0
   23.4550  -20.6428  -11.8125 C   0  0  1  0  0  0  0  0  0  0  0  0
   22.2509  -20.0736  -12.3821 C   0  0  0  0  0  0  0  0  0  0  0  0
   22.0737  -20.5056  -13.8416 C   0  0  0  0  0  0  0  0  0  0  0  0
   20.8228  -19.8156  -14.3408 C   0  0  0  0  0  0  0  0  0  0  0  0
   20.5312  -20.1639  -15.7839 C   0  0  0  0  0  0  0  0  0  0  0  0
   19.3057  -19.3954  -16.2300 N   0  0  0  0  0  0  0  0  0  0  0  0
   19.0492  -19.7567  -17.6200 C   0  0  0  0  0  0  0  0  0  0  0  0
   21.0949  -20.5706  -11.5570 O   0  0  0  0  0  0  0  0  0  0  0  0
   20.0027  -19.9409  -11.5013 O   0  0  0  0  0  0  0  0  0  0  0  0
  2  1  1  0
  3  2  2  0
  4  2  1  0
  5  4  1  0
  6  5  1  0
  7  8  1  0
  7  6  1  0
  8  9  1  1
 10  8  1  0
 11 10  2  0
 12 10  1  0
 13 21  1  0
 13 12  1  0
 13 14  1  1
 15 14  1  0
 16 15  2  0
 17 16  1  0
 18 19  1  0
 18 17  2  0
 19 20  2  0
 20 15  1  0
 21 23  1  0
 22 21  2  0
 23 24  1  0
 24 30  1  0
 24 25  1  1
 25 26  1  0
 26 27  1  0
 28 27  1  0
 28 29  1  0
 30 32  1  0
 31 30  2  0
M  END
$$$$
