ELE.pdb
     RDKit          3D

 27 26  0  0  1  0  0  0  0  0999 V2000
   19.0601  -11.0472  -17.3081 N   0  0  0  0  0  0  0  0  0  0  0  0
   18.6045  -10.7975  -15.9507 C   0  0  1  0  0  0  0  0  0  0  0  0
   18.3537  -12.1118  -15.2927 C   0  0  0  0  0  0  0  0  0  0  0  0
   17.2958  -12.9414  -15.9457 C   0  0  0  0  0  0  0  0  0  0  0  0
   17.1692  -14.2129  -15.1635 C   0  0  0  0  0  0  0  0  0  0  0  0
   17.9301  -14.4788  -14.1996 O   0  0  0  0  0  0  0  0  0  0  0  0
   19.6604   -9.9891  -15.2900 C   0  0  0  0  0  0  0  0  0  0  0  0
   19.5405   -9.6143  -14.0825 O   0  0  0  0  0  0  0  0  0  0  0  0
   16.1976  -15.1451  -15.4834 O   0  0  0  0  0  0  0  0  0  0  0  0
   25.1582  -10.8415  -15.1042 C   0  0  0  0  0  0  0  0  0  0  0  0
   23.7334  -10.4136  -14.7366 C   0  0  2  0  0  0  0  0  0  0  0  0
   22.8561  -11.6483  -14.9771 C   0  0  0  0  0  0  0  0  0  0  0  0
   23.2650   -9.3101  -15.6386 C   0  0  0  0  0  0  0  0  0  0  0  0
   21.9140   -8.8464  -15.2801 C   0  0  2  0  0  0  0  0  0  0  0  0
   20.8524   -9.5844  -15.9403 N   0  0  0  0  0  0  0  0  0  0  0  0
   21.7257   -7.4167  -15.5399 C   0  0  0  0  0  0  0  0  0  0  0  0
   22.4337   -6.4873  -15.0966 O   0  0  0  0  0  0  0  0  0  0  0  0
   20.6409   -7.0086  -16.3740 N   0  0  0  0  0  0  0  0  0  0  0  0
   20.3097   -5.5904  -16.5881 C   0  0  1  0  0  0  0  0  0  0  0  0
   19.3950   -5.5135  -17.7599 C   0  0  0  0  0  0  0  0  0  0  0  0
   18.9168   -4.1648  -18.1485 C   0  0  0  0  0  0  0  0  0  0  0  0
   17.9618   -4.1866  -19.2685 C   0  0  0  0  0  0  0  0  0  0  0  0
   17.5980   -5.2324  -19.8148 O   0  0  0  0  0  0  0  0  0  0  0  0
   19.6934   -5.0957  -15.3458 C   0  0  0  0  0  0  0  0  0  0  0  0
   18.8063   -5.7592  -14.7744 O   0  0  0  0  0  0  0  0  0  0  0  0
   17.4246   -2.9900  -19.7588 O   0  0  0  0  0  0  0  0  0  0  0  0
   20.0975   -3.8963  -14.8122 O   0  0  0  0  0  0  0  0  0  0  0  0
  2  1  1  6
  2  3  1  0
  2  7  1  0
  4  3  1  0
  4  5  1  0
  5  6  2  0
  7  8  2  0
  9  5  1  0
 11 10  1  6
 11 12  1  0
 13 11  1  0
 14 16  1  0
 14 13  1  6
 15  7  1  0
 15 14  1  0
 16 17  2  0
 18 16  1  0
 19 18  1  0
 19 24  1  0
 20 21  1  0
 19 20  1  6
 22 26  1  0
 22 21  1  0
 23 22  2  0
 24 25  2  0
 24 27  1  0
M  END
$$$$
