ELE.pdb
     RDKit          3D

 27 26  0  0  1  0  0  0  0  0999 V2000
   18.4936  -11.6785  -16.8134 N   0  0  0  0  0  0  0  0  0  0  0  0
   19.1811  -10.6550  -17.5831 C   0  0  1  0  0  0  0  0  0  0  0  0
   18.1599   -9.8706  -18.3348 C   0  0  0  0  0  0  0  0  0  0  0  0
   17.4873  -10.6226  -19.4376 C   0  0  0  0  0  0  0  0  0  0  0  0
   16.2829   -9.8352  -19.8547 C   0  0  0  0  0  0  0  0  0  0  0  0
   15.1584  -10.3737  -20.0115 O   0  0  0  0  0  0  0  0  0  0  0  0
   19.9620   -9.8465  -16.6128 C   0  0  0  0  0  0  0  0  0  0  0  0
   19.4073   -9.3269  -15.5954 O   0  0  0  0  0  0  0  0  0  0  0  0
   16.3737   -8.4733  -20.0827 O   0  0  0  0  0  0  0  0  0  0  0  0
   22.8601  -10.6763  -13.5438 C   0  0  0  0  0  0  0  0  0  0  0  0
   23.4395  -10.7144  -14.9620 C   0  0  2  0  0  0  0  0  0  0  0  0
   24.8807  -11.2153  -14.8063 C   0  0  0  0  0  0  0  0  0  0  0  0
   23.4726   -9.3368  -15.5552 C   0  0  0  0  0  0  0  0  0  0  0  0
   22.1181   -8.8121  -15.7967 C   0  0  2  0  0  0  0  0  0  0  0  0
   21.3509   -9.5991  -16.7451 N   0  0  0  0  0  0  0  0  0  0  0  0
   22.1298   -7.4166  -16.2435 C   0  0  0  0  0  0  0  0  0  0  0  0
   22.6211   -6.9879  -17.3095 O   0  0  0  0  0  0  0  0  0  0  0  0
   21.5327   -6.4243  -15.4080 N   0  0  0  0  0  0  0  0  0  0  0  0
   21.4772   -5.0056  -15.7962 C   0  0  1  0  0  0  0  0  0  0  0  0
   20.0619   -4.6840  -16.1263 C   0  0  0  0  0  0  0  0  0  0  0  0
   19.0976   -4.6728  -15.0000 C   0  0  0  0  0  0  0  0  0  0  0  0
   17.7559   -4.2073  -15.3873 C   0  0  0  0  0  0  0  0  0  0  0  0
   16.7208   -4.7540  -14.9943 O   0  0  0  0  0  0  0  0  0  0  0  0
   21.9933   -4.2236  -14.6604 C   0  0  0  0  0  0  0  0  0  0  0  0
   22.2294   -4.7775  -13.5690 O   0  0  0  0  0  0  0  0  0  0  0  0
   17.6117   -3.1022  -16.2350 O   0  0  0  0  0  0  0  0  0  0  0  0
   22.2167   -2.8759  -14.8030 O   0  0  0  0  0  0  0  0  0  0  0  0
  2  1  1  1
  2  3  1  0
  2  7  1  0
  4  3  1  0
  4  5  1  0
  5  6  2  0
  7  8  2  0
  9  5  1  0
 11 10  1  1
 11 12  1  0
 13 11  1  0
 14 16  1  0
 14 13  1  6
 15  7  1  0
 15 14  1  0
 16 17  2  0
 18 16  1  0
 19 18  1  0
 19 24  1  0
 20 21  1  0
 19 20  1  1
 22 26  1  0
 22 21  1  0
 23 22  2  0
 24 25  2  0
 24 27  1  0
M  END
$$$$
