ELE.pdb
     RDKit          3D

 27 26  0  0  1  0  0  0  0  0999 V2000
   27.4576  -20.2371  -17.4985 N   0  0  0  0  0  0  0  0  0  0  0  0
   26.6779  -19.2459  -16.7759 C   0  0  1  0  0  0  0  0  0  0  0  0
   25.8102  -18.5298  -17.7545 C   0  0  0  0  0  0  0  0  0  0  0  0
   26.4911  -17.4251  -18.4961 C   0  0  0  0  0  0  0  0  0  0  0  0
   27.4178  -18.0516  -19.4926 C   0  0  0  0  0  0  0  0  0  0  0  0
   26.9936  -18.6112  -20.5346 O   0  0  0  0  0  0  0  0  0  0  0  0
   25.9214  -19.9800  -15.7302 C   0  0  0  0  0  0  0  0  0  0  0  0
   25.2648  -21.0302  -16.0109 O   0  0  0  0  0  0  0  0  0  0  0  0
   28.7871  -18.0327  -19.2928 O   0  0  0  0  0  0  0  0  0  0  0  0
   25.1788  -20.3011   -9.5511 C   0  0  0  0  0  0  0  0  0  0  0  0
   24.7538  -20.7241  -10.9613 C   0  0  2  0  0  0  0  0  0  0  0  0
   24.9583  -22.2431  -11.0164 C   0  0  0  0  0  0  0  0  0  0  0  0
   25.6362  -20.0843  -11.9921 C   0  0  0  0  0  0  0  0  0  0  0  0
   25.1103  -20.2710  -13.3549 C   0  0  2  0  0  0  0  0  0  0  0  0
   25.8755  -19.5747  -14.3732 N   0  0  0  0  0  0  0  0  0  0  0  0
   23.7038  -19.8768  -13.4709 C   0  0  0  0  0  0  0  0  0  0  0  0
   23.2558  -18.7126  -13.3955 O   0  0  0  0  0  0  0  0  0  0  0  0
   22.7234  -20.8914  -13.6913 N   0  0  0  0  0  0  0  0  0  0  0  0
   21.2816  -20.5954  -13.7067 C   0  0  1  0  0  0  0  0  0  0  0  0
   20.6104  -21.6663  -14.4931 C   0  0  0  0  0  0  0  0  0  0  0  0
   19.1277  -21.6663  -14.4948 C   0  0  0  0  0  0  0  0  0  0  0  0
   18.5468  -22.7352  -15.3237 C   0  0  0  0  0  0  0  0  0  0  0  0
   19.2381  -23.5568  -15.9334 O   0  0  0  0  0  0  0  0  0  0  0  0
   20.8330  -20.5460  -12.3053 C   0  0  0  0  0  0  0  0  0  0  0  0
   21.3553  -21.2866  -11.4496 O   0  0  0  0  0  0  0  0  0  0  0  0
   17.1571  -22.8535  -15.4473 O   0  0  0  0  0  0  0  0  0  0  0  0
   19.8334  -19.6788  -11.9372 O   0  0  0  0  0  0  0  0  0  0  0  0
  2  1  1  6
  2  3  1  0
  2  7  1  0
  4  3  1  0
  4  5  1  0
  5  6  2  0
  7  8  2  0
  9  5  1  0
 11 10  1  1
 11 12  1  0
 13 11  1  0
 14 16  1  0
 14 13  1  1
 15  7  1  0
 15 14  1  0
 16 17  2  0
 18 16  1  0
 19 18  1  0
 19 24  1  0
 20 21  1  0
 19 20  1  6
 22 26  1  0
 22 21  1  0
 23 22  2  0
 24 25  2  0
 24 27  1  0
M  END
$$$$
