ELE.pdb
     RDKit          3D

 27 26  0  0  1  0  0  0  0  0999 V2000
   27.8718  -21.6099  -15.2613 N   0  0  0  0  0  0  0  0  0  0  0  0
   27.1369  -20.5250  -14.6325 C   0  0  1  0  0  0  0  0  0  0  0  0
   26.4883  -19.7168  -15.7046 C   0  0  0  0  0  0  0  0  0  0  0  0
   27.4387  -18.9413  -16.5586 C   0  0  0  0  0  0  0  0  0  0  0  0
   27.6765  -19.7340  -17.8075 C   0  0  0  0  0  0  0  0  0  0  0  0
   26.7493  -19.9995  -18.6129 O   0  0  0  0  0  0  0  0  0  0  0  0
   26.1751  -21.1527  -13.6912 C   0  0  0  0  0  0  0  0  0  0  0  0
   25.3449  -22.0278  -14.0882 O   0  0  0  0  0  0  0  0  0  0  0  0
   28.9412  -20.2040  -18.1156 O   0  0  0  0  0  0  0  0  0  0  0  0
   27.9430  -20.9497   -9.2816 C   0  0  0  0  0  0  0  0  0  0  0  0
   26.5538  -20.4144   -9.6446 C   0  0  2  0  0  0  0  0  0  0  0  0
   26.0198  -19.7522   -8.3684 C   0  0  0  0  0  0  0  0  0  0  0  0
   25.6362  -21.5403  -10.0200 C   0  0  0  0  0  0  0  0  0  0  0  0
   25.1403  -21.4054  -11.4000 C   0  0  2  0  0  0  0  0  0  0  0  0
   26.1119  -20.8308  -12.3128 N   0  0  0  0  0  0  0  0  0  0  0  0
   23.9030  -20.6240  -11.4762 C   0  0  0  0  0  0  0  0  0  0  0  0
   23.5518  -19.7206  -10.6875 O   0  0  0  0  0  0  0  0  0  0  0  0
   22.9875  -20.8920  -12.5388 N   0  0  0  0  0  0  0  0  0  0  0  0
   21.7087  -20.1747  -12.6687 C   0  0  1  0  0  0  0  0  0  0  0  0
   21.7567  -19.3942  -13.9352 C   0  0  0  0  0  0  0  0  0  0  0  0
   20.5267  -18.6588  -14.3156 C   0  0  0  0  0  0  0  0  0  0  0  0
   20.6257  -17.9987  -15.6276 C   0  0  0  0  0  0  0  0  0  0  0  0
   21.6700  -17.9763  -16.2860 O   0  0  0  0  0  0  0  0  0  0  0  0
   20.6395  -21.1869  -12.6589 C   0  0  0  0  0  0  0  0  0  0  0  0
   19.5105  -20.9072  -12.2109 O   0  0  0  0  0  0  0  0  0  0  0  0
   19.5087  -17.3607  -16.1807 O   0  0  0  0  0  0  0  0  0  0  0  0
   20.8861  -22.4471  -13.1464 O   0  0  0  0  0  0  0  0  0  0  0  0
  2  1  1  6
  2  3  1  0
  2  7  1  0
  4  3  1  0
  4  5  1  0
  5  6  2  0
  7  8  2  0
  9  5  1  0
 11 10  1  1
 11 12  1  0
 13 11  1  0
 14 16  1  0
 14 13  1  1
 15  7  1  0
 15 14  1  0
 16 17  2  0
 18 16  1  0
 19 18  1  0
 19 24  1  0
 20 21  1  0
 19 20  1  6
 22 26  1  0
 22 21  1  0
 23 22  2  0
 24 25  2  0
 24 27  1  0
M  END
$$$$
