ELE.pdb
     RDKit          3D

 27 26  0  0  1  0  0  0  0  0999 V2000
   21.1512  -33.4257   -3.4080 N   0  0  0  0  0  0  0  0  0  0  0  0
   22.4999  -33.0616   -3.0066 C   0  0  1  0  0  0  0  0  0  0  0  0
   22.7529  -33.6278   -1.6507 C   0  0  0  0  0  0  0  0  0  0  0  0
   24.1563  -33.4669   -1.1624 C   0  0  0  0  0  0  0  0  0  0  0  0
   24.3143  -34.3258    0.0549 C   0  0  0  0  0  0  0  0  0  0  0  0
   24.7561  -35.5002   -0.0130 O   0  0  0  0  0  0  0  0  0  0  0  0
   23.4116  -33.5871   -4.0544 C   0  0  0  0  0  0  0  0  0  0  0  0
   23.3620  -34.8030   -4.4174 O   0  0  0  0  0  0  0  0  0  0  0  0
   23.9740  -33.8453    1.3073 O   0  0  0  0  0  0  0  0  0  0  0  0
   26.9912  -32.0703   -8.8421 C   0  0  0  0  0  0  0  0  0  0  0  0
   26.5125  -33.0945   -7.8076 C   0  0  2  0  0  0  0  0  0  0  0  0
   25.6919  -34.1240   -8.5945 C   0  0  0  0  0  0  0  0  0  0  0  0
   25.6184  -32.4424   -6.7947 C   0  0  0  0  0  0  0  0  0  0  0  0
   25.3563  -33.3263   -5.6464 C   0  0  2  0  0  0  0  0  0  0  0  0
   24.3821  -32.7916   -4.7123 N   0  0  0  0  0  0  0  0  0  0  0  0
   26.5774  -33.6651   -4.9107 C   0  0  0  0  0  0  0  0  0  0  0  0
   27.1069  -32.9833   -4.0072 O   0  0  0  0  0  0  0  0  0  0  0  0
   27.2540  -34.8818   -5.2287 N   0  0  0  0  0  0  0  0  0  0  0  0
   28.4049  -35.3636   -4.4477 C   0  0  1  0  0  0  0  0  0  0  0  0
   27.9990  -35.3882   -3.0158 C   0  0  0  0  0  0  0  0  0  0  0  0
   28.8915  -36.1126   -2.0792 C   0  0  0  0  0  0  0  0  0  0  0  0
   28.4180  -36.0851   -0.6857 C   0  0  0  0  0  0  0  0  0  0  0  0
   27.3316  -35.5971   -0.3598 O   0  0  0  0  0  0  0  0  0  0  0  0
   28.7558  -36.6958   -4.9674 C   0  0  0  0  0  0  0  0  0  0  0  0
   27.8753  -37.4394   -5.4420 O   0  0  0  0  0  0  0  0  0  0  0  0
   29.2073  -36.6259    0.3367 O   0  0  0  0  0  0  0  0  0  0  0  0
   30.0608  -37.1227   -4.9299 O   0  0  0  0  0  0  0  0  0  0  0  0
  2  1  1  6
  2  3  1  0
  2  7  1  0
  4  3  1  0
  4  5  1  0
  5  6  2  0
  7  8  2  0
  9  5  1  0
 11 10  1  6
 11 12  1  0
 13 11  1  0
 14 16  1  0
 14 13  1  6
 15  7  1  0
 15 14  1  0
 16 17  2  0
 18 16  1  0
 19 18  1  0
 19 24  1  0
 20 21  1  0
 19 20  1  1
 22 26  1  0
 22 21  1  0
 23 22  2  0
 24 25  2  0
 24 27  1  0
M  END
$$$$
