ELE.pdb
     RDKit          3D

 27 26  0  0  1  0  0  0  0  0999 V2000
   19.5943  -11.6664  -17.8742 N   0  0  0  0  0  0  0  0  0  0  0  0
   18.5473  -11.3663  -16.9118 C   0  0  1  0  0  0  0  0  0  0  0  0
   17.9896  -12.6552  -16.4108 C   0  0  0  0  0  0  0  0  0  0  0  0
   17.2416  -13.4476  -17.4338 C   0  0  0  0  0  0  0  0  0  0  0  0
   17.5967  -14.8900  -17.2388 C   0  0  0  0  0  0  0  0  0  0  0  0
   18.4387  -15.2572  -16.3815 O   0  0  0  0  0  0  0  0  0  0  0  0
   19.1698  -10.5317  -15.8531 C   0  0  0  0  0  0  0  0  0  0  0  0
   18.5051  -10.1559  -14.8383 O   0  0  0  0  0  0  0  0  0  0  0  0
   17.0000  -15.8743  -18.0072 O   0  0  0  0  0  0  0  0  0  0  0  0
   22.7477  -11.9970  -15.6460 C   0  0  0  0  0  0  0  0  0  0  0  0
   23.2013  -10.5568  -15.3851 C   0  0  2  0  0  0  0  0  0  0  0  0
   24.6495  -10.6627  -14.8914 C   0  0  0  0  0  0  0  0  0  0  0  0
   22.3712   -9.9302  -14.3038 C   0  0  0  0  0  0  0  0  0  0  0  0
   21.1429   -9.3207  -14.8406 C   0  0  2  0  0  0  0  0  0  0  0  0
   20.5192  -10.1015  -15.8936 N   0  0  0  0  0  0  0  0  0  0  0  0
   21.3628   -7.9579  -15.3321 C   0  0  0  0  0  0  0  0  0  0  0  0
   21.7329   -7.6398  -16.4824 O   0  0  0  0  0  0  0  0  0  0  0  0
   21.1435   -6.8640  -14.4407 N   0  0  0  0  0  0  0  0  0  0  0  0
   21.4239   -5.4718  -14.8277 C   0  0  1  0  0  0  0  0  0  0  0  0
   20.1170   -4.7896  -15.0336 C   0  0  0  0  0  0  0  0  0  0  0  0
   20.1555   -3.3265  -15.2709 C   0  0  0  0  0  0  0  0  0  0  0  0
   18.8273   -2.7420  -15.5178 C   0  0  0  0  0  0  0  0  0  0  0  0
   18.1242   -3.0660  -16.4798 O   0  0  0  0  0  0  0  0  0  0  0  0
   22.2199   -4.8714  -13.7443 C   0  0  0  0  0  0  0  0  0  0  0  0
   22.2643   -5.4105  -12.6213 O   0  0  0  0  0  0  0  0  0  0  0  0
   18.3099   -1.7764  -14.6457 O   0  0  0  0  0  0  0  0  0  0  0  0
   22.9184   -3.7107  -13.9711 O   0  0  0  0  0  0  0  0  0  0  0  0
  2  1  1  6
  2  3  1  0
  2  7  1  0
  4  3  1  0
  4  5  1  0
  5  6  2  0
  7  8  2  0
  9  5  1  0
 11 10  1  1
 11 12  1  0
 13 11  1  0
 14 16  1  0
 14 13  1  6
 15  7  1  0
 15 14  1  0
 16 17  2  0
 18 16  1  0
 19 18  1  0
 19 24  1  0
 20 21  1  0
 19 20  1  1
 22 26  1  0
 22 21  1  0
 23 22  2  0
 24 25  2  0
 24 27  1  0
M  END
$$$$
