ELE.pdb
     RDKit          3D

 27 26  0  0  1  0  0  0  0  0999 V2000
   18.1171  -11.6317  -16.4970 N   0  0  0  0  0  0  0  0  0  0  0  0
   19.3837  -11.3794  -17.1638 C   0  0  1  0  0  0  0  0  0  0  0  0
   19.0984  -10.9636  -18.5671 C   0  0  0  0  0  0  0  0  0  0  0  0
   17.6457  -10.8985  -18.9123 C   0  0  0  0  0  0  0  0  0  0  0  0
   17.5402  -10.5715  -20.3705 C   0  0  0  0  0  0  0  0  0  0  0  0
   16.4343  -10.3466  -20.9230 O   0  0  0  0  0  0  0  0  0  0  0  0
   20.0863  -10.3443  -16.3639 C   0  0  0  0  0  0  0  0  0  0  0  0
   19.4517   -9.5942  -15.5593 O   0  0  0  0  0  0  0  0  0  0  0  0
   18.6726  -10.5064  -21.1634 O   0  0  0  0  0  0  0  0  0  0  0  0
   23.6091  -10.7246  -13.4880 C   0  0  0  0  0  0  0  0  0  0  0  0
   23.9654  -10.6814  -14.9778 C   0  0  2  0  0  0  0  0  0  0  0  0
   25.4846  -10.8803  -15.0453 C   0  0  0  0  0  0  0  0  0  0  0  0
   23.6315   -9.3403  -15.5612 C   0  0  0  0  0  0  0  0  0  0  0  0
   22.1769   -9.1241  -15.6393 C   0  0  2  0  0  0  0  0  0  0  0  0
   21.4836  -10.1203  -16.4357 N   0  0  0  0  0  0  0  0  0  0  0  0
   21.8354   -7.7932  -16.1484 C   0  0  0  0  0  0  0  0  0  0  0  0
   21.8031   -7.4491  -17.3492 O   0  0  0  0  0  0  0  0  0  0  0  0
   21.5023   -6.7664  -15.2135 N   0  0  0  0  0  0  0  0  0  0  0  0
   21.1706   -5.3974  -15.6409 C   0  0  1  0  0  0  0  0  0  0  0  0
   19.7598   -5.1321  -15.2470 C   0  0  0  0  0  0  0  0  0  0  0  0
   19.2563   -3.7523  -15.4497 C   0  0  0  0  0  0  0  0  0  0  0  0
   17.8138   -3.6154  -15.1904 C   0  0  0  0  0  0  0  0  0  0  0  0
   17.1056   -4.5649  -14.8414 O   0  0  0  0  0  0  0  0  0  0  0  0
   22.1291   -4.4928  -14.9847 C   0  0  0  0  0  0  0  0  0  0  0  0
   22.6340   -4.7981  -13.8868 O   0  0  0  0  0  0  0  0  0  0  0  0
   17.1873   -2.3717  -15.3362 O   0  0  0  0  0  0  0  0  0  0  0  0
   22.4702   -3.3054  -15.5850 O   0  0  0  0  0  0  0  0  0  0  0  0
  2  1  1  1
  2  3  1  0
  2  7  1  0
  4  3  1  0
  4  5  1  0
  5  6  2  0
  7  8  2  0
  9  5  1  0
 11 10  1  1
 11 12  1  0
 13 11  1  0
 14 16  1  0
 14 13  1  6
 15  7  1  0
 15 14  1  0
 16 17  2  0
 18 16  1  0
 19 18  1  0
 19 24  1  0
 20 21  1  0
 19 20  1  1
 22 26  1  0
 22 21  1  0
 23 22  2  0
 24 25  2  0
 24 27  1  0
M  END
$$$$
