TPP.pdb
     RDKit          3D

 22 23  0  0  1  0  0  0  0  0999 V2000
   20.5076  -35.1563   -9.5815 C   0  0  0  0  0  0  0  0  0  0  0  0
   21.8608  -35.1552   -8.9196 C   0  0  1  0  0  0  0  0  0  0  0  0
   21.8650  -36.3393   -8.1371 O   0  0  0  0  0  0  0  0  0  0  0  0
   23.0172  -35.3035   -9.8890 C   0  0  2  0  0  0  0  0  0  0  0  0
   22.7212  -36.6107  -10.5351 N   0  0  0  0  0  0  0  0  0  0  0  0
   24.3267  -35.4126   -9.2467 C   0  0  0  0  0  0  0  0  0  0  0  0
   24.8169  -36.5921   -9.1314 O   0  0  0  0  0  0  0  0  0  0  0  0
   25.1214  -34.3598   -8.7356 N   0  0  0  0  0  0  0  0  0  0  0  0
   24.9062  -32.9308   -8.6733 C   0  0  0  0  0  0  0  0  0  0  0  0
   26.2387  -32.4212   -9.2495 C   0  0  0  0  0  0  0  0  0  0  0  0
   27.2145  -33.2903   -8.4770 C   0  0  0  0  0  0  0  0  0  0  0  0
   26.4411  -34.5068   -8.0976 C   0  0  1  0  0  0  0  0  0  0  0  0
   26.2325  -34.4930   -6.6268 C   0  0  0  0  0  0  0  0  0  0  0  0
   25.1288  -34.1053   -6.1324 O   0  0  0  0  0  0  0  0  0  0  0  0
   27.2457  -34.9081   -5.7212 N   0  0  0  0  0  0  0  0  0  0  0  0
   28.6478  -35.1429   -6.0201 C   0  0  0  0  0  0  0  0  0  0  0  0
   29.1839  -35.9098   -4.8470 C   0  0  0  0  0  0  0  0  0  0  0  0
   27.9582  -36.3535   -4.0493 C   0  0  0  0  0  0  0  0  0  0  0  0
   27.0328  -35.1696   -4.3237 C   0  0  1  0  0  0  0  0  0  0  0  0
   27.4914  -34.0183   -3.4800 C   0  0  0  0  0  0  0  0  0  0  0  0
   28.1972  -33.0955   -3.9519 O   0  0  0  0  0  0  0  0  0  0  0  0
   27.1404  -33.9481   -2.1429 O   0  0  0  0  0  0  0  0  0  0  0  0
  2  1  1  6
  2  3  1  0
  4  2  1  0
  4  5  1  1
  6  4  1  0
  6  7  2  0
  8  6  1  0
  9  8  1  0
 10 11  1  0
 10  9  1  0
 11 12  1  0
 12  8  1  0
 12 13  1  1
 13 15  1  0
 14 13  2  0
 15 19  1  0
 15 16  1  0
 16 17  1  0
 18 17  1  0
 19 20  1  1
 19 18  1  0
 20 22  1  0
 21 20  2  0
M  END
$$$$
