TPP.pdb
     RDKit          3D

 22 23  0  0  1  0  0  0  0  0999 V2000
   18.5372   -9.9056  -18.3810 C   0  0  0  0  0  0  0  0  0  0  0  0
   18.0417  -11.1961  -17.7824 C   0  0  1  0  0  0  0  0  0  0  0  0
   17.6108  -11.9546  -18.9019 O   0  0  0  0  0  0  0  0  0  0  0  0
   19.1287  -12.0233  -17.1241 C   0  0  2  0  0  0  0  0  0  0  0  0
   18.3834  -13.2364  -16.6920 N   0  0  0  0  0  0  0  0  0  0  0  0
   19.7075  -11.4093  -15.9295 C   0  0  0  0  0  0  0  0  0  0  0  0
   18.9823  -11.4079  -14.8718 O   0  0  0  0  0  0  0  0  0  0  0  0
   20.9847  -10.8141  -15.8046 N   0  0  0  0  0  0  0  0  0  0  0  0
   22.1097  -10.7440  -16.7111 C   0  0  0  0  0  0  0  0  0  0  0  0
   23.2483  -11.1965  -15.7804 C   0  0  0  0  0  0  0  0  0  0  0  0
   22.9383  -10.3606  -14.5518 C   0  0  0  0  0  0  0  0  0  0  0  0
   21.4786  -10.0699  -14.6329 C   0  0  1  0  0  0  0  0  0  0  0  0
   21.3012   -8.6219  -14.9136 C   0  0  0  0  0  0  0  0  0  0  0  0
   21.1319   -8.2082  -16.1023 O   0  0  0  0  0  0  0  0  0  0  0  0
   21.3128   -7.6497  -13.8774 N   0  0  0  0  0  0  0  0  0  0  0  0
   21.6123   -7.8674  -12.4727 C   0  0  0  0  0  0  0  0  0  0  0  0
   21.1249   -6.6376  -11.7645 C   0  0  0  0  0  0  0  0  0  0  0  0
   20.2720   -5.8847  -12.7849 C   0  0  0  0  0  0  0  0  0  0  0  0
   21.0190   -6.2549  -14.0648 C   0  0  1  0  0  0  0  0  0  0  0  0
   22.2752   -5.4385  -14.1203 C   0  0  0  0  0  0  0  0  0  0  0  0
   23.3843   -5.9114  -13.7760 O   0  0  0  0  0  0  0  0  0  0  0  0
   22.2371   -4.1262  -14.5593 O   0  0  0  0  0  0  0  0  0  0  0  0
  2  1  1  6
  2  3  1  0
  4  2  1  0
  4  5  1  1
  6  4  1  0
  6  7  2  0
  8  6  1  0
  9  8  1  0
 10 11  1  0
 10  9  1  0
 11 12  1  0
 12  8  1  0
 12 13  1  6
 13 15  1  0
 14 13  2  0
 15 19  1  0
 15 16  1  0
 16 17  1  0
 18 17  1  0
 19 20  1  1
 19 18  1  0
 20 22  1  0
 21 20  2  0
M  END
$$$$
