TPP.pdb
     RDKit          3D

 22 23  0  0  1  0  0  0  0  0999 V2000
   25.2783  -19.4569  -13.3687 C   0  0  0  0  0  0  0  0  0  0  0  0
   25.8413  -19.7579  -12.0042 C   0  0  1  0  0  0  0  0  0  0  0  0
   24.7830  -19.4379  -11.1142 O   0  0  0  0  0  0  0  0  0  0  0  0
   26.1370  -21.2271  -11.7738 C   0  0  2  0  0  0  0  0  0  0  0  0
   24.7847  -21.8398  -11.8712 N   0  0  0  0  0  0  0  0  0  0  0  0
   26.6666  -21.5298  -10.4445 C   0  0  0  0  0  0  0  0  0  0  0  0
   25.8910  -22.1653   -9.6449 O   0  0  0  0  0  0  0  0  0  0  0  0
   27.9451  -21.2017   -9.9357 N   0  0  0  0  0  0  0  0  0  0  0  0
   29.0739  -20.5191  -10.5290 C   0  0  0  0  0  0  0  0  0  0  0  0
   30.2074  -21.5016  -10.1865 C   0  0  0  0  0  0  0  0  0  0  0  0
   29.8951  -21.7722   -8.7259 C   0  0  0  0  0  0  0  0  0  0  0  0
   28.4367  -21.5015   -8.5796 C   0  0  1  0  0  0  0  0  0  0  0  0
   28.2649  -20.2752   -7.7588 C   0  0  0  0  0  0  0  0  0  0  0  0
   27.9180  -19.1784   -8.2970 O   0  0  0  0  0  0  0  0  0  0  0  0
   28.4783  -20.2764   -6.3540 N   0  0  0  0  0  0  0  0  0  0  0  0
   28.9378  -21.3862   -5.5369 C   0  0  0  0  0  0  0  0  0  0  0  0
   28.6343  -20.9928   -4.1210 C   0  0  0  0  0  0  0  0  0  0  0  0
   27.7149  -19.7760   -4.2189 C   0  0  0  0  0  0  0  0  0  0  0  0
   28.2643  -19.1430   -5.4959 C   0  0  1  0  0  0  0  0  0  0  0  0
   29.5588  -18.4665   -5.1574 C   0  0  0  0  0  0  0  0  0  0  0  0
   30.6408  -18.8100   -5.6899 O   0  0  0  0  0  0  0  0  0  0  0  0
   29.5876  -17.4332   -4.2368 O   0  0  0  0  0  0  0  0  0  0  0  0
  2  1  1  6
  2  3  1  0
  4  2  1  0
  4  5  1  1
  6  4  1  0
  6  7  2  0
  8  6  1  0
  9  8  1  0
 10 11  1  0
 10  9  1  0
 11 12  1  0
 12  8  1  0
 12 13  1  1
 13 15  1  0
 14 13  2  0
 15 19  1  0
 15 16  1  0
 16 17  1  0
 18 17  1  0
 19 20  1  1
 19 18  1  0
 20 22  1  0
 21 20  2  0
M  END
$$$$
