TPP.pdb
     RDKit          3D

 22 23  0  0  1  0  0  0  0  0999 V2000
   14.8755  -10.6138  -16.7025 C   0  0  0  0  0  0  0  0  0  0  0  0
   16.1526   -9.9141  -16.3168 C   0  0  1  0  0  0  0  0  0  0  0  0
   15.9785   -9.6076  -14.9420 O   0  0  0  0  0  0  0  0  0  0  0  0
   17.3812  -10.8002  -16.3842 C   0  0  2  0  0  0  0  0  0  0  0  0
   17.0589  -11.8617  -15.3927 N   0  0  0  0  0  0  0  0  0  0  0  0
   18.6152  -10.1467  -15.9492 C   0  0  0  0  0  0  0  0  0  0  0  0
   18.9996  -10.3797  -14.7481 O   0  0  0  0  0  0  0  0  0  0  0  0
   19.4406   -9.2823  -16.7061 N   0  0  0  0  0  0  0  0  0  0  0  0
   19.3808   -8.8545  -18.0866 C   0  0  0  0  0  0  0  0  0  0  0  0
   20.8317   -9.1187  -18.5250 C   0  0  0  0  0  0  0  0  0  0  0  0
   21.5807   -8.5118  -17.3525 C   0  0  0  0  0  0  0  0  0  0  0  0
   20.6285   -8.5680  -16.2070 C   0  0  1  0  0  0  0  0  0  0  0  0
   20.2111   -7.1820  -15.8727 C   0  0  0  0  0  0  0  0  0  0  0  0
   19.0999   -6.7232  -16.2821 O   0  0  0  0  0  0  0  0  0  0  0  0
   21.0265   -6.3210  -15.0898 N   0  0  0  0  0  0  0  0  0  0  0  0
   22.3876   -6.5656  -14.6451 C   0  0  0  0  0  0  0  0  0  0  0  0
   22.6437   -5.5545  -13.5663 C   0  0  0  0  0  0  0  0  0  0  0  0
   21.2775   -4.9608  -13.2247 C   0  0  0  0  0  0  0  0  0  0  0  0
   20.6167   -5.0330  -14.5999 C   0  0  1  0  0  0  0  0  0  0  0  0
   21.1792   -3.9278  -15.4425 C   0  0  0  0  0  0  0  0  0  0  0  0
   20.8390   -2.7327  -15.2746 O   0  0  0  0  0  0  0  0  0  0  0  0
   22.0996   -4.2070  -16.4380 O   0  0  0  0  0  0  0  0  0  0  0  0
  2  1  1  1
  2  3  1  0
  4  2  1  0
  4  5  1  1
  6  4  1  0
  6  7  2  0
  8  6  1  0
  9  8  1  0
 10 11  1  0
 10  9  1  0
 11 12  1  0
 12  8  1  0
 12 13  1  6
 13 15  1  0
 14 13  2  0
 15 19  1  0
 15 16  1  0
 16 17  1  0
 18 17  1  0
 19 20  1  6
 19 18  1  0
 20 22  1  0
 21 20  2  0
M  END
$$$$
