TPP.pdb
     RDKit          3D

 22 23  0  0  1  0  0  0  0  0999 V2000
   16.1951   -9.9999  -16.5755 C   0  0  0  0  0  0  0  0  0  0  0  0
   16.5243  -11.3455  -15.9835 C   0  0  1  0  0  0  0  0  0  0  0  0
   16.5069  -12.2271  -17.0955 O   0  0  0  0  0  0  0  0  0  0  0  0
   17.9260  -11.4374  -15.4127 C   0  0  2  0  0  0  0  0  0  0  0  0
   17.9897  -12.8533  -14.9601 N   0  0  0  0  0  0  0  0  0  0  0  0
   18.1536  -10.5875  -14.2443 C   0  0  0  0  0  0  0  0  0  0  0  0
   17.5213  -10.8978  -13.1726 O   0  0  0  0  0  0  0  0  0  0  0  0
   18.9979   -9.4557  -14.1587 N   0  0  0  0  0  0  0  0  0  0  0  0
   19.9400   -8.8814  -15.0941 C   0  0  0  0  0  0  0  0  0  0  0  0
   21.1723   -8.7198  -14.1872 C   0  0  0  0  0  0  0  0  0  0  0  0
   20.5238   -8.1032  -12.9611 C   0  0  0  0  0  0  0  0  0  0  0  0
   19.0996   -8.5405  -13.0087 C   0  0  1  0  0  0  0  0  0  0  0  0
   18.2523   -7.3559  -13.3018 C   0  0  0  0  0  0  0  0  0  0  0  0
   17.9080   -7.0843  -14.4936 O   0  0  0  0  0  0  0  0  0  0  0  0
   17.7960   -6.4869  -12.2742 N   0  0  0  0  0  0  0  0  0  0  0  0
   18.1413   -6.5376  -10.8641 C   0  0  0  0  0  0  0  0  0  0  0  0
   17.1285   -5.6726  -10.1730 C   0  0  0  0  0  0  0  0  0  0  0  0
   16.0391   -5.4036  -11.2105 C   0  0  0  0  0  0  0  0  0  0  0  0
   16.8918   -5.3880  -12.4778 C   0  0  1  0  0  0  0  0  0  0  0  0
   17.6267   -4.0821  -12.5252 C   0  0  0  0  0  0  0  0  0  0  0  0
   18.8425   -3.9989  -12.2298 O   0  0  0  0  0  0  0  0  0  0  0  0
   16.9695   -2.9234  -12.9018 O   0  0  0  0  0  0  0  0  0  0  0  0
  2  1  1  6
  2  3  1  0
  4  2  1  0
  4  5  1  1
  6  4  1  0
  6  7  2  0
  8  6  1  0
  9  8  1  0
 10 11  1  0
 10  9  1  0
 11 12  1  0
 12  8  1  0
 12 13  1  6
 13 15  1  0
 14 13  2  0
 15 19  1  0
 15 16  1  0
 16 17  1  0
 18 17  1  0
 19 20  1  1
 19 18  1  0
 20 22  1  0
 21 20  2  0
M  END
$$$$
