LRQ.pdb
     RDKit          3D

 29 28  0  0  1  0  0  0  0  0999 V2000
   27.3277  -19.5755   -4.3623 C   0  0  0  0  0  0  0  0  0  0  0  0
   28.3494  -19.3651   -5.4645 C   0  0  2  0  0  0  0  0  0  0  0  0
   29.2912  -18.2380   -5.1253 C   0  0  0  0  0  0  0  0  0  0  0  0
   27.6692  -19.1378   -6.7994 C   0  0  0  0  0  0  0  0  0  0  0  0
   26.7692  -20.2797   -7.1540 C   0  0  2  0  0  0  0  0  0  0  0  0
   27.4027  -21.5729   -7.0814 N   0  0  0  0  0  0  0  0  0  0  0  0
   26.1514  -20.0365   -8.4902 C   0  0  0  0  0  0  0  0  0  0  0  0
   25.8660  -18.8622   -8.8372 O   0  0  0  0  0  0  0  0  0  0  0  0
   25.9340  -23.6769  -15.8669 N   0  0  0  0  0  0  0  0  0  0  0  0
   25.5527  -22.3371  -16.2220 C   0  0  0  0  0  0  0  0  0  0  0  0
   24.8646  -22.1044  -17.2836 N   0  0  0  0  0  0  0  0  0  0  0  0
   25.9575  -21.2790  -15.3685 N   0  0  0  0  0  0  0  0  0  0  0  0
   26.6402  -21.4876  -14.1236 C   0  0  0  0  0  0  0  0  0  0  0  0
   25.6214  -21.8637  -13.0651 C   0  0  0  0  0  0  0  0  0  0  0  0
   26.1561  -21.7508  -11.6708 C   0  0  0  0  0  0  0  0  0  0  0  0
   25.4684  -20.7378  -10.7917 C   0  0  2  0  0  0  0  0  0  0  0  0
   25.8664  -21.0682   -9.3979 N   0  0  0  0  0  0  0  0  0  0  0  0
   23.9957  -20.8641  -10.8183 C   0  0  0  0  0  0  0  0  0  0  0  0
   23.4330  -21.8586  -10.2546 O   0  0  0  0  0  0  0  0  0  0  0  0
   24.5417  -21.1450  -17.5088 N   0  0  0  0  0  0  0  0  0  0  0  0
   23.4849  -18.6745  -15.1711 C   0  0  0  0  0  0  0  0  0  0  0  0
   22.0838  -18.5280  -15.1378 O   0  0  0  0  0  0  0  0  0  0  0  0
   21.5553  -17.6224  -15.8367 C   0  0  0  0  0  0  0  0  0  0  0  0
   21.2540  -19.4182  -14.3090 C   0  0  0  0  0  0  0  0  0  0  0  0
   22.0040  -20.4312  -13.5122 C   0  0  2  0  0  0  0  0  0  0  0  0
   21.8679  -20.3415  -12.0341 N   0  0  0  0  0  0  0  0  0  0  0  0
   23.1692  -19.9020  -11.4548 C   0  0  0  0  0  0  0  0  0  0  0  0
   21.3235  -21.4301  -11.2681 O   0  0  0  0  0  0  0  0  0  0  0  0
   20.0654  -21.2770  -10.6617 O   0  0  0  0  0  0  0  0  0  0  0  0
  2  1  1  1
  2  3  1  0
  2  4  1  0
  5  4  1  0
  5  6  1  6
  7  8  2  0
  7  5  1  0
 10  9  1  0
 10 12  1  0
 11 10  2  0
 12 13  1  0
 13 14  1  0
 14 15  1  0
 16 15  1  6
 16 17  1  0
 17  7  1  0
 18 16  1  0
 18 19  2  0
 20 21  1  0
 21 23  1  0
 21 22  2  0
 23 24  1  0
 25 24  1  6
 25 26  1  0
 25 27  1  0
 26 18  1  0
 27 29  2  0
 27 28  1  0
M  END
$$$$
