LRQ.pdb
     RDKit          3D

 29 28  0  0  1  0  0  0  0  0999 V2000
   20.9087  -20.7574  -12.1895 C   0  0  0  0  0  0  0  0  0  0  0  0
   19.4093  -20.5240  -12.2113 C   0  0  2  0  0  0  0  0  0  0  0  0
   19.0713  -19.1187  -11.7832 C   0  0  0  0  0  0  0  0  0  0  0  0
   18.6873  -21.5517  -11.3635 C   0  0  0  0  0  0  0  0  0  0  0  0
   19.0534  -22.9455  -11.7669 C   0  0  2  0  0  0  0  0  0  0  0  0
   18.7628  -23.2548  -13.1449 N   0  0  0  0  0  0  0  0  0  0  0  0
   18.4217  -23.9217  -10.8319 C   0  0  0  0  0  0  0  0  0  0  0  0
   17.1697  -23.9529  -10.7206 O   0  0  0  0  0  0  0  0  0  0  0  0
   18.2625  -31.9548   -9.9697 N   0  0  0  0  0  0  0  0  0  0  0  0
   18.8421  -31.0197  -10.8951 C   0  0  0  0  0  0  0  0  0  0  0  0
   18.8057  -31.2345  -12.1628 N   0  0  0  0  0  0  0  0  0  0  0  0
   19.4559  -29.8537  -10.3700 N   0  0  0  0  0  0  0  0  0  0  0  0
   19.5551  -29.5797   -8.9649 C   0  0  0  0  0  0  0  0  0  0  0  0
   18.7818  -28.3116   -8.6590 C   0  0  0  0  0  0  0  0  0  0  0  0
   19.1980  -27.1517   -9.5101 C   0  0  0  0  0  0  0  0  0  0  0  0
   18.4630  -25.8611   -9.2533 C   0  0  2  0  0  0  0  0  0  0  0  0
   19.1644  -24.8242  -10.0551 N   0  0  0  0  0  0  0  0  0  0  0  0
   18.5726  -25.4105   -7.8495 C   0  0  0  0  0  0  0  0  0  0  0  0
   19.6994  -25.0338   -7.3894 O   0  0  0  0  0  0  0  0  0  0  0  0
   19.2160  -30.5545  -12.8298 N   0  0  0  0  0  0  0  0  0  0  0  0
   14.0201  -22.8780   -4.2917 C   0  0  0  0  0  0  0  0  0  0  0  0
   14.0443  -24.2868   -4.3154 O   0  0  0  0  0  0  0  0  0  0  0  0
   13.0061  -24.9136   -3.9726 C   0  0  0  0  0  0  0  0  0  0  0  0
   15.2544  -25.0112   -4.7378 C   0  0  0  0  0  0  0  0  0  0  0  0
   16.3915  -24.1527   -5.1778 C   0  0  1  0  0  0  0  0  0  0  0  0
   17.6314  -24.8606   -5.5933 N   0  0  0  0  0  0  0  0  0  0  0  0
   17.4514  -25.3766   -6.9803 C   0  0  0  0  0  0  0  0  0  0  0  0
   18.2292  -25.8687   -4.7600 O   0  0  0  0  0  0  0  0  0  0  0  0
   18.9134  -25.4766   -3.5972 O   0  0  0  0  0  0  0  0  0  0  0  0
  2  1  1  1
  2  3  1  0
  2  4  1  0
  5  4  1  0
  5  6  1  6
  7  8  2  0
  7  5  1  0
 10  9  1  0
 10 12  1  0
 11 10  2  0
 12 13  1  0
 13 14  1  0
 14 15  1  0
 16 15  1  1
 16 17  1  0
 17  7  1  0
 18 16  1  0
 18 19  2  0
 20 21  1  0
 21 23  1  0
 21 22  2  0
 23 24  1  0
 25 24  1  6
 25 26  1  0
 25 27  1  0
 26 18  1  0
 27 29  2  0
 27 28  1  0
M  END
$$$$
