LRQ.pdb
     RDKit          3D

 29 28  0  0  1  0  0  0  0  0999 V2000
   24.4107  -18.2112  -17.3841 C   0  0  0  0  0  0  0  0  0  0  0  0
   23.4743  -19.3627  -17.0673 C   0  0  2  0  0  0  0  0  0  0  0  0
   22.0595  -18.8775  -16.8795 C   0  0  0  0  0  0  0  0  0  0  0  0
   23.9593  -20.1409  -15.8609 C   0  0  0  0  0  0  0  0  0  0  0  0
   25.3846  -20.5671  -16.0240 C   0  0  2  0  0  0  0  0  0  0  0  0
   25.6218  -21.3982  -17.1781 N   0  0  0  0  0  0  0  0  0  0  0  0
   25.8638  -21.2107  -14.7661 C   0  0  0  0  0  0  0  0  0  0  0  0
   25.3893  -22.3218  -14.4181 O   0  0  0  0  0  0  0  0  0  0  0  0
   32.3795  -22.4510  -10.0097 N   0  0  0  0  0  0  0  0  0  0  0  0
   32.6977  -22.6453  -11.3981 C   0  0  0  0  0  0  0  0  0  0  0  0
   33.5256  -23.5586  -11.7657 N   0  0  0  0  0  0  0  0  0  0  0  0
   32.0730  -21.8005  -12.3511 N   0  0  0  0  0  0  0  0  0  0  0  0
   30.9932  -20.9120  -12.0289 C   0  0  0  0  0  0  0  0  0  0  0  0
   29.6838  -21.5787  -12.4040 C   0  0  0  0  0  0  0  0  0  0  0  0
   28.4966  -20.6852  -12.2170 C   0  0  0  0  0  0  0  0  0  0  0  0
   27.1717  -21.2697  -12.6352 C   0  0  2  0  0  0  0  0  0  0  0  0
   26.8345  -20.6311  -13.9347 N   0  0  0  0  0  0  0  0  0  0  0  0
   26.0702  -20.9009  -11.7207 C   0  0  0  0  0  0  0  0  0  0  0  0
   25.4867  -19.7757  -11.8502 O   0  0  0  0  0  0  0  0  0  0  0  0
   33.7149  -23.7322  -12.7704 N   0  0  0  0  0  0  0  0  0  0  0  0
   28.1576  -19.5933   -6.8906 C   0  0  0  0  0  0  0  0  0  0  0  0
   26.8126  -19.2616   -6.6329 O   0  0  0  0  0  0  0  0  0  0  0  0
   26.5212  -18.7451   -5.5209 C   0  0  0  0  0  0  0  0  0  0  0  0
   25.7704  -19.5069   -7.6436 C   0  0  0  0  0  0  0  0  0  0  0  0
   26.1795  -20.3757   -8.7844 C   0  0  1  0  0  0  0  0  0  0  0  0
   25.1018  -21.1745   -9.4259 N   0  0  0  0  0  0  0  0  0  0  0  0
   25.6266  -21.7680  -10.6886 C   0  0  0  0  0  0  0  0  0  0  0  0
   23.7918  -20.6217   -9.6416 O   0  0  0  0  0  0  0  0  0  0  0  0
   22.8047  -20.7991   -8.6578 O   0  0  0  0  0  0  0  0  0  0  0  0
  2  1  1  1
  2  3  1  0
  2  4  1  0
  5  4  1  0
  5  6  1  6
  7  8  2  0
  7  5  1  0
 10  9  1  0
 10 12  1  0
 11 10  2  0
 12 13  1  0
 13 14  1  0
 14 15  1  0
 16 15  1  1
 16 17  1  0
 17  7  1  0
 18 16  1  0
 18 19  2  0
 20 21  1  0
 21 23  1  0
 21 22  2  0
 23 24  1  0
 25 24  1  1
 25 26  1  0
 25 27  1  0
 26 18  1  0
 27 29  2  0
 27 28  1  0
M  END
$$$$
