LRQ.pdb
     RDKit          3D

 29 28  0  0  1  0  0  0  0  0999 V2000
   26.8406  -21.3940  -10.3013 C   0  0  0  0  0  0  0  0  0  0  0  0
   25.6568  -20.4475  -10.3785 C   0  0  2  0  0  0  0  0  0  0  0  0
   24.9261  -20.3818   -9.0617 C   0  0  0  0  0  0  0  0  0  0  0  0
   24.7268  -20.8324  -11.5113 C   0  0  0  0  0  0  0  0  0  0  0  0
   25.4804  -21.0476  -12.7862 C   0  0  2  0  0  0  0  0  0  0  0  0
   25.9938  -19.8370  -13.3777 N   0  0  0  0  0  0  0  0  0  0  0  0
   24.6374  -21.8213  -13.7438 C   0  0  0  0  0  0  0  0  0  0  0  0
   23.8754  -21.2088  -14.5344 O   0  0  0  0  0  0  0  0  0  0  0  0
   26.7507  -29.1687  -17.2364 N   0  0  0  0  0  0  0  0  0  0  0  0
   27.1104  -27.8325  -16.8469 C   0  0  0  0  0  0  0  0  0  0  0  0
   28.3415  -27.4607  -16.8174 N   0  0  0  0  0  0  0  0  0  0  0  0
   26.0690  -26.9359  -16.4955 N   0  0  0  0  0  0  0  0  0  0  0  0
   24.6780  -27.2848  -16.5461 C   0  0  0  0  0  0  0  0  0  0  0  0
   23.8554  -26.0678  -16.1690 C   0  0  0  0  0  0  0  0  0  0  0  0
   24.5674  -25.1489  -15.2247 C   0  0  0  0  0  0  0  0  0  0  0  0
   23.7962  -23.9236  -14.8058 C   0  0  2  0  0  0  0  0  0  0  0  0
   24.6499  -23.2231  -13.8106 N   0  0  0  0  0  0  0  0  0  0  0  0
   22.5469  -24.2525  -14.0870 C   0  0  0  0  0  0  0  0  0  0  0  0
   22.5879  -24.5667  -12.8529 O   0  0  0  0  0  0  0  0  0  0  0  0
   28.6042  -26.5159  -16.4801 N   0  0  0  0  0  0  0  0  0  0  0  0
   20.1046  -19.3054  -13.7691 C   0  0  0  0  0  0  0  0  0  0  0  0
   19.9746  -20.0156  -12.5590 O   0  0  0  0  0  0  0  0  0  0  0  0
   19.6268  -19.3857  -11.5244 C   0  0  0  0  0  0  0  0  0  0  0  0
   20.2332  -21.4641  -12.5055 C   0  0  0  0  0  0  0  0  0  0  0  0
   20.7477  -22.0678  -13.7682 C   0  0  2  0  0  0  0  0  0  0  0  0
   20.1925  -23.3964  -14.1392 N   0  0  0  0  0  0  0  0  0  0  0  0
   21.2810  -24.2277  -14.7279 C   0  0  0  0  0  0  0  0  0  0  0  0
   18.9959  -23.5103  -14.9286 O   0  0  0  0  0  0  0  0  0  0  0  0
   19.0264  -23.1161  -16.2768 O   0  0  0  0  0  0  0  0  0  0  0  0
  2  1  1  1
  2  3  1  0
  2  4  1  0
  5  4  1  0
  5  6  1  6
  7  8  2  0
  7  5  1  0
 10  9  1  0
 10 12  1  0
 11 10  2  0
 12 13  1  0
 13 14  1  0
 14 15  1  0
 16 15  1  1
 16 17  1  0
 17  7  1  0
 18 16  1  0
 18 19  2  0
 20 21  1  0
 21 23  1  0
 21 22  2  0
 23 24  1  0
 25 24  1  1
 25 26  1  0
 25 27  1  0
 26 18  1  0
 27 29  2  0
 27 28  1  0
M  END
$$$$
