LRQ.pdb
     RDKit          3D

 29 28  0  0  1  0  0  0  0  0999 V2000
   26.4753  -17.3346  -19.3642 C   0  0  0  0  0  0  0  0  0  0  0  0
   27.4024  -18.4723  -18.9780 C   0  0  2  0  0  0  0  0  0  0  0  0
   27.9073  -19.2006  -20.1975 C   0  0  0  0  0  0  0  0  0  0  0  0
   26.7256  -19.4183  -18.0067 C   0  0  0  0  0  0  0  0  0  0  0  0
   26.3941  -18.7320  -16.7188 C   0  0  2  0  0  0  0  0  0  0  0  0
   27.4426  -17.8767  -16.2209 N   0  0  0  0  0  0  0  0  0  0  0  0
   25.9711  -19.7421  -15.7054 C   0  0  0  0  0  0  0  0  0  0  0  0
   25.2770  -20.7273  -16.0638 O   0  0  0  0  0  0  0  0  0  0  0  0
   29.6131  -23.0474  -10.6386 N   0  0  0  0  0  0  0  0  0  0  0  0
   29.5737  -21.7663   -9.9874 C   0  0  0  0  0  0  0  0  0  0  0  0
   30.5268  -21.3898   -9.2099 N   0  0  0  0  0  0  0  0  0  0  0  0
   28.4535  -20.9297  -10.2264 N   0  0  0  0  0  0  0  0  0  0  0  0
   27.1222  -21.2541   -9.8004 C   0  0  0  0  0  0  0  0  0  0  0  0
   26.2518  -21.4523  -11.0264 C   0  0  0  0  0  0  0  0  0  0  0  0
   26.6808  -20.6144  -12.1912 C   0  0  0  0  0  0  0  0  0  0  0  0
   25.7475  -20.6212  -13.3747 C   0  0  2  0  0  0  0  0  0  0  0  0
   26.3130  -19.6496  -14.3474 N   0  0  0  0  0  0  0  0  0  0  0  0
   24.4018  -20.1058  -13.0443 C   0  0  0  0  0  0  0  0  0  0  0  0
   24.2199  -18.8534  -12.8963 O   0  0  0  0  0  0  0  0  0  0  0  0
   30.4905  -20.4712   -8.7298 N   0  0  0  0  0  0  0  0  0  0  0  0
   21.6008  -18.9829  -17.1470 C   0  0  0  0  0  0  0  0  0  0  0  0
   20.5200  -18.7519  -16.2728 O   0  0  0  0  0  0  0  0  0  0  0  0
   19.4483  -18.2895  -16.7479 C   0  0  0  0  0  0  0  0  0  0  0  0
   20.6378  -19.0504  -14.8358 C   0  0  0  0  0  0  0  0  0  0  0  0
   21.9326  -19.6581  -14.4142 C   0  0  1  0  0  0  0  0  0  0  0  0
   21.9184  -20.4252  -13.1404 N   0  0  0  0  0  0  0  0  0  0  0  0
   23.2842  -20.9660  -12.8868 C   0  0  0  0  0  0  0  0  0  0  0  0
   20.9273  -21.4367  -12.8902 O   0  0  0  0  0  0  0  0  0  0  0  0
   19.7083  -21.0673  -12.2974 O   0  0  0  0  0  0  0  0  0  0  0  0
  2  1  1  6
  2  3  1  0
  2  4  1  0
  5  4  1  0
  5  6  1  1
  7  8  2  0
  7  5  1  0
 10  9  1  0
 10 12  1  0
 11 10  2  0
 12 13  1  0
 13 14  1  0
 14 15  1  0
 16 15  1  1
 16 17  1  0
 17  7  1  0
 18 16  1  0
 18 19  2  0
 20 21  1  0
 21 23  1  0
 21 22  2  0
 23 24  1  0
 25 24  1  1
 25 26  1  0
 25 27  1  0
 26 18  1  0
 27 29  2  0
 27 28  1  0
M  END
$$$$
