LRQ.pdb
     RDKit          3D

 29 28  0  0  1  0  0  0  0  0999 V2000
   20.8752  -22.6027  -14.0133 C   0  0  0  0  0  0  0  0  0  0  0  0
   19.3843  -22.4399  -13.7816 C   0  0  2  0  0  0  0  0  0  0  0  0
   19.0436  -21.0194  -13.4093 C   0  0  0  0  0  0  0  0  0  0  0  0
   18.8861  -23.4216  -12.7403 C   0  0  0  0  0  0  0  0  0  0  0  0
   19.2549  -24.8277  -13.0962 C   0  0  2  0  0  0  0  0  0  0  0  0
   18.7817  -25.2504  -14.3909 N   0  0  0  0  0  0  0  0  0  0  0  0
   18.8129  -25.7529  -12.0124 C   0  0  0  0  0  0  0  0  0  0  0  0
   17.5858  -25.8881  -11.7743 O   0  0  0  0  0  0  0  0  0  0  0  0
   20.6861  -33.2907   -8.4578 N   0  0  0  0  0  0  0  0  0  0  0  0
   20.8762  -32.7622   -9.7811 C   0  0  0  0  0  0  0  0  0  0  0  0
   20.8391  -33.5306  -10.8121 N   0  0  0  0  0  0  0  0  0  0  0  0
   21.1065  -31.3692   -9.9173 N   0  0  0  0  0  0  0  0  0  0  0  0
   21.1865  -30.4707   -8.8013 C   0  0  0  0  0  0  0  0  0  0  0  0
   20.0711  -29.4496   -8.9156 C   0  0  0  0  0  0  0  0  0  0  0  0
   20.2438  -28.5208  -10.0777 C   0  0  0  0  0  0  0  0  0  0  0  0
   19.1929  -27.4490  -10.2140 C   0  0  2  0  0  0  0  0  0  0  0  0
   19.7109  -26.4946  -11.2294 N   0  0  0  0  0  0  0  0  0  0  0  0
   19.0245  -26.6533   -8.9794 C   0  0  0  0  0  0  0  0  0  0  0  0
   19.9840  -25.9315   -8.5530 O   0  0  0  0  0  0  0  0  0  0  0  0
   20.9537  -33.1446  -11.7678 N   0  0  0  0  0  0  0  0  0  0  0  0
   13.9637  -23.6628   -7.0169 C   0  0  0  0  0  0  0  0  0  0  0  0
   14.7950  -23.5686   -5.8831 O   0  0  0  0  0  0  0  0  0  0  0  0
   14.3964  -22.8920   -4.8974 C   0  0  0  0  0  0  0  0  0  0  0  0
   16.0991  -24.2513   -5.8478 C   0  0  0  0  0  0  0  0  0  0  0  0
   16.4257  -25.0663   -7.0530 C   0  0  1  0  0  0  0  0  0  0  0  0
   17.7124  -25.8109   -7.0179 N   0  0  0  0  0  0  0  0  0  0  0  0
   17.8134  -26.6589   -8.2398 C   0  0  0  0  0  0  0  0  0  0  0  0
   18.1083  -26.5608   -5.8565 O   0  0  0  0  0  0  0  0  0  0  0  0
   18.7765  -25.9006   -4.8117 O   0  0  0  0  0  0  0  0  0  0  0  0
  2  1  1  1
  2  3  1  0
  2  4  1  0
  5  4  1  0
  5  6  1  6
  7  8  2  0
  7  5  1  0
 10  9  1  0
 10 12  1  0
 11 10  2  0
 12 13  1  0
 13 14  1  0
 14 15  1  0
 16 15  1  1
 16 17  1  0
 17  7  1  0
 18 16  1  0
 18 19  2  0
 20 21  1  0
 21 23  1  0
 21 22  2  0
 23 24  1  0
 25 24  1  6
 25 26  1  0
 25 27  1  0
 26 18  1  0
 27 29  2  0
 27 28  1  0
M  END
$$$$
