KDW.pdb
     RDKit          3D

 32 33  0  0  1  0  0  0  0  0999 V2000
   10.4251  -16.4263   18.8264 N   0  0  0  0  0  0  0  0  0  0  0  0
    9.4289  -17.0402   19.7015 C   0  0  1  0  0  0  0  0  0  0  0  0
    8.6742  -18.0641   18.9645 C   0  0  0  0  0  0  0  0  0  0  0  0
    8.1326  -17.6469   17.6630 C   0  0  0  0  0  0  0  0  0  0  0  0
    7.3701  -18.5187   16.7803 C   0  0  0  0  0  0  0  0  0  0  0  0
    6.9367  -18.0983   15.4324 C   0  0  0  0  0  0  0  0  0  0  0  0
    6.3233  -19.2742   14.7199 N   0  0  0  0  0  0  0  0  0  0  0  0
   10.1455  -17.6423   20.8974 C   0  0  0  0  0  0  0  0  0  0  0  0
    9.5638  -18.4355   21.6737 O   0  0  0  0  0  0  0  0  0  0  0  0
   11.4910  -17.3256   21.1728 N   0  0  0  0  0  0  0  0  0  0  0  0
   12.2769  -17.9865   22.2444 C   0  0  1  0  0  0  0  0  0  0  0  0
   13.7250  -17.7231   22.0309 C   0  0  0  0  0  0  0  0  0  0  0  0
   14.2224  -18.3385   20.7953 C   0  0  0  0  0  0  0  0  0  0  0  0
   14.9160  -17.7294   19.9385 O   0  0  0  0  0  0  0  0  0  0  0  0
   11.8079  -17.5040   23.5527 C   0  0  0  0  0  0  0  0  0  0  0  0
   12.3168  -18.0206   24.6048 O   0  0  0  0  0  0  0  0  0  0  0  0
   13.8865  -19.6914   20.5849 O   0  0  0  0  0  0  0  0  0  0  0  0
   10.8309  -16.4968   23.7364 N   0  0  0  0  0  0  0  0  0  0  0  0
   10.4106  -16.0768   25.0671 C   0  0  1  0  0  0  0  0  0  0  0  0
    9.8001  -14.6720   25.0058 C   0  0  0  0  0  0  0  0  0  0  0  0
    8.4851  -14.7258   24.3344 C   0  0  0  0  0  0  0  0  0  0  0  0
    7.2908  -15.2700   24.7450 C   0  0  0  0  0  0  0  0  0  0  0  0
    6.3475  -15.0829   23.8052 N   0  0  0  0  0  0  0  0  0  0  0  0
    6.8953  -14.4096   22.7488 C   0  0  0  0  0  0  0  0  0  0  0  0
    6.3779  -13.9706   21.5461 C   0  0  0  0  0  0  0  0  0  0  0  0
    7.1626  -13.2991   20.6346 C   0  0  0  0  0  0  0  0  0  0  0  0
    8.4885  -13.0686   20.9435 C   0  0  0  0  0  0  0  0  0  0  0  0
    8.9881  -13.5140   22.1485 C   0  0  0  0  0  0  0  0  0  0  0  0
    8.2146  -14.1891   23.0747 C   0  0  0  0  0  0  0  0  0  0  0  0
    9.5374  -17.0228   25.7553 C   0  0  0  0  0  0  0  0  0  0  0  0
    8.9522  -17.9627   25.1801 O   0  0  0  0  0  0  0  0  0  0  0  0
    9.2931  -16.9362   27.1404 O   0  0  0  0  0  0  0  0  0  0  0  0
  2  3  1  0
  2  1  1  6
  3  4  1  0
  5  4  1  0
  6  5  1  0
  7  6  1  0
  8  2  1  0
  8  9  2  0
 10  8  1  0
 11 10  1  0
 12 13  1  0
 11 12  1  6
 13 14  2  0
 15 18  1  0
 15 11  1  0
 16 15  2  0
 17 13  1  0
 19 18  1  0
 19 30  1  0
 19 20  1  6
 21 20  1  0
 21 29  1  0
 22 23  1  0
 22 21  2  0
 23 24  1  0
 24 25  1  0
 24 29  2  0
 25 26  2  0
 26 27  1  0
 28 27  2  0
 29 28  1  0
 30 31  2  0
 30 32  1  0
M  END
$$$$
