KDW.pdb
     RDKit          3D

 32 33  0  0  1  0  0  0  0  0999 V2000
    8.6124  -19.1472   20.5309 N   0  0  0  0  0  0  0  0  0  0  0  0
    9.3139  -17.8662   20.5787 C   0  0  1  0  0  0  0  0  0  0  0  0
    8.3454  -16.7660   20.6908 C   0  0  0  0  0  0  0  0  0  0  0  0
    8.1659  -15.9459   19.4840 C   0  0  0  0  0  0  0  0  0  0  0  0
    7.3705  -14.7269   19.4379 C   0  0  0  0  0  0  0  0  0  0  0  0
    7.2676  -13.8935   18.2230 C   0  0  0  0  0  0  0  0  0  0  0  0
    6.3513  -12.7305   18.4960 N   0  0  0  0  0  0  0  0  0  0  0  0
   10.2643  -17.8825   21.7630 C   0  0  0  0  0  0  0  0  0  0  0  0
   10.4024  -18.9055   22.4732 O   0  0  0  0  0  0  0  0  0  0  0  0
   11.0220  -16.7434   22.1018 N   0  0  0  0  0  0  0  0  0  0  0  0
   11.9492  -16.7009   23.2599 C   0  0  1  0  0  0  0  0  0  0  0  0
   12.8443  -15.5197   23.1349 C   0  0  0  0  0  0  0  0  0  0  0  0
   13.8367  -15.6890   22.0676 C   0  0  0  0  0  0  0  0  0  0  0  0
   14.1727  -16.8063   21.5932 O   0  0  0  0  0  0  0  0  0  0  0  0
   11.1647  -16.6786   24.5043 C   0  0  0  0  0  0  0  0  0  0  0  0
   11.7842  -16.4878   25.6054 O   0  0  0  0  0  0  0  0  0  0  0  0
   14.4304  -14.5128   21.5659 O   0  0  0  0  0  0  0  0  0  0  0  0
    9.7614  -16.8477   24.5745 N   0  0  0  0  0  0  0  0  0  0  0  0
    9.0586  -16.8607   25.8510 C   0  0  1  0  0  0  0  0  0  0  0  0
    7.5738  -16.5460   25.6361 C   0  0  0  0  0  0  0  0  0  0  0  0
    7.4309  -15.2393   24.9615 C   0  0  0  0  0  0  0  0  0  0  0  0
    7.2776  -14.9300   23.6303 C   0  0  0  0  0  0  0  0  0  0  0  0
    7.1830  -13.5982   23.4707 N   0  0  0  0  0  0  0  0  0  0  0  0
    7.2714  -12.9934   24.6936 C   0  0  0  0  0  0  0  0  0  0  0  0
    7.2331  -11.6715   25.0914 C   0  0  0  0  0  0  0  0  0  0  0  0
    7.3466  -11.3226   26.4191 C   0  0  0  0  0  0  0  0  0  0  0  0
    7.5012  -12.3238   27.3572 C   0  0  0  0  0  0  0  0  0  0  0  0
    7.5375  -13.6378   26.9422 C   0  0  0  0  0  0  0  0  0  0  0  0
    7.4247  -14.0056   25.6140 C   0  0  0  0  0  0  0  0  0  0  0  0
    9.2518  -18.0745   26.6387 C   0  0  0  0  0  0  0  0  0  0  0  0
    8.7832  -18.2331   27.7841 O   0  0  0  0  0  0  0  0  0  0  0  0
    9.9933  -19.1680   26.1488 O   0  0  0  0  0  0  0  0  0  0  0  0
  2  3  1  0
  2  1  1  1
  3  4  1  0
  5  4  1  0
  6  5  1  0
  7  6  1  0
  8  2  1  0
  8  9  2  0
 10  8  1  0
 11 10  1  0
 12 13  1  0
 11 12  1  6
 13 14  2  0
 15 18  1  0
 15 11  1  0
 16 15  2  0
 17 13  1  0
 19 18  1  0
 19 30  1  0
 19 20  1  6
 21 20  1  0
 21 29  1  0
 22 23  1  0
 22 21  2  0
 23 24  1  0
 24 25  1  0
 24 29  2  0
 25 26  2  0
 26 27  1  0
 28 27  2  0
 29 28  1  0
 30 31  2  0
 30 32  1  0
M  END
$$$$
