KDW.pdb
     RDKit          3D

 32 33  0  0  1  0  0  0  0  0999 V2000
    6.9873  -16.0733   20.8760 N   0  0  0  0  0  0  0  0  0  0  0  0
    8.4458  -15.9887   20.8477 C   0  0  1  0  0  0  0  0  0  0  0  0
    8.8649  -14.5976   20.6240 C   0  0  0  0  0  0  0  0  0  0  0  0
    7.8930  -13.7400   19.9304 C   0  0  0  0  0  0  0  0  0  0  0  0
    8.0117  -13.3358   18.5364 C   0  0  0  0  0  0  0  0  0  0  0  0
    7.0301  -12.4465   17.8830 C   0  0  0  0  0  0  0  0  0  0  0  0
    7.3514  -12.3472   16.4155 N   0  0  0  0  0  0  0  0  0  0  0  0
    8.9837  -16.5180   22.1656 C   0  0  0  0  0  0  0  0  0  0  0  0
    8.2198  -16.9977   23.0352 O   0  0  0  0  0  0  0  0  0  0  0  0
   10.3631  -16.4847   22.4527 N   0  0  0  0  0  0  0  0  0  0  0  0
   10.9905  -17.3085   23.5160 C   0  0  1  0  0  0  0  0  0  0  0  0
   12.3665  -17.6901   23.1001 C   0  0  0  0  0  0  0  0  0  0  0  0
   13.0759  -18.4300   24.1500 C   0  0  0  0  0  0  0  0  0  0  0  0
   12.6398  -19.4857   24.6806 O   0  0  0  0  0  0  0  0  0  0  0  0
   10.9771  -16.5551   24.7796 C   0  0  0  0  0  0  0  0  0  0  0  0
   11.7512  -15.5443   24.8883 O   0  0  0  0  0  0  0  0  0  0  0  0
   14.3148  -17.9018   24.5667 O   0  0  0  0  0  0  0  0  0  0  0  0
   10.1595  -16.8641   25.8926 N   0  0  0  0  0  0  0  0  0  0  0  0
   10.5422  -16.4866   27.2471 C   0  0  1  0  0  0  0  0  0  0  0  0
    9.8793  -15.1583   27.6291 C   0  0  0  0  0  0  0  0  0  0  0  0
    8.5838  -15.0257   26.9312 C   0  0  0  0  0  0  0  0  0  0  0  0
    7.6295  -15.9678   26.6264 C   0  0  0  0  0  0  0  0  0  0  0  0
    6.5994  -15.3937   25.9804 N   0  0  0  0  0  0  0  0  0  0  0  0
    6.8474  -14.0563   25.8419 C   0  0  0  0  0  0  0  0  0  0  0  0
    6.1319  -13.0240   25.2680 C   0  0  0  0  0  0  0  0  0  0  0  0
    6.6184  -11.7352   25.2631 C   0  0  0  0  0  0  0  0  0  0  0  0
    7.8451  -11.4871   25.8463 C   0  0  0  0  0  0  0  0  0  0  0  0
    8.5456  -12.5295   26.4144 C   0  0  0  0  0  0  0  0  0  0  0  0
    8.0720  -13.8286   26.4284 C   0  0  0  0  0  0  0  0  0  0  0  0
   10.3153  -17.5200   28.2530 C   0  0  0  0  0  0  0  0  0  0  0  0
    9.7169  -18.5892   28.0179 O   0  0  0  0  0  0  0  0  0  0  0  0
   10.7657  -17.3764   29.5805 O   0  0  0  0  0  0  0  0  0  0  0  0
  2  3  1  0
  2  1  1  1
  3  4  1  0
  5  4  1  0
  6  5  1  0
  7  6  1  0
  8  2  1  0
  8  9  2  0
 10  8  1  0
 11 10  1  0
 12 13  1  0
 11 12  1  6
 13 14  2  0
 15 18  1  0
 15 11  1  0
 16 15  2  0
 17 13  1  0
 19 18  1  0
 19 30  1  0
 19 20  1  1
 21 20  1  0
 21 29  1  0
 22 23  1  0
 22 21  2  0
 23 24  1  0
 24 25  1  0
 24 29  2  0
 25 26  2  0
 26 27  1  0
 28 27  2  0
 29 28  1  0
 30 31  2  0
 30 32  1  0
M  END
$$$$
