KDW.pdb
     RDKit          3D

 32 33  0  0  1  0  0  0  0  0999 V2000
    9.9517  -14.3257   19.2052 N   0  0  0  0  0  0  0  0  0  0  0  0
    8.8344  -14.3068   20.1467 C   0  0  1  0  0  0  0  0  0  0  0  0
    7.5638  -14.4564   19.4227 C   0  0  0  0  0  0  0  0  0  0  0  0
    7.4633  -13.7290   18.1491 C   0  0  0  0  0  0  0  0  0  0  0  0
    7.7638  -14.3147   16.8502 C   0  0  0  0  0  0  0  0  0  0  0  0
    7.6471  -13.5518   15.5909 C   0  0  0  0  0  0  0  0  0  0  0  0
    8.0428  -14.4352   14.4379 N   0  0  0  0  0  0  0  0  0  0  0  0
    9.0304  -15.4315   21.1481 C   0  0  0  0  0  0  0  0  0  0  0  0
    8.1191  -15.7632   21.9415 O   0  0  0  0  0  0  0  0  0  0  0  0
   10.2477  -16.1384   21.2170 N   0  0  0  0  0  0  0  0  0  0  0  0
   10.5009  -17.2240   22.1969 C   0  0  1  0  0  0  0  0  0  0  0  0
   11.7128  -17.9848   21.7913 C   0  0  0  0  0  0  0  0  0  0  0  0
   11.5860  -18.5480   20.4424 C   0  0  0  0  0  0  0  0  0  0  0  0
   10.8246  -19.5085   20.1523 O   0  0  0  0  0  0  0  0  0  0  0  0
   10.6318  -16.6391   23.5404 C   0  0  0  0  0  0  0  0  0  0  0  0
   11.3831  -15.6154   23.6829 O   0  0  0  0  0  0  0  0  0  0  0  0
   12.3761  -17.9573   19.4353 O   0  0  0  0  0  0  0  0  0  0  0  0
    9.9774  -17.1250   24.6973 N   0  0  0  0  0  0  0  0  0  0  0  0
   10.1954  -16.5217   26.0058 C   0  0  1  0  0  0  0  0  0  0  0  0
    9.8953  -15.0196   25.9480 C   0  0  0  0  0  0  0  0  0  0  0  0
    8.4343  -14.7996   25.9571 C   0  0  0  0  0  0  0  0  0  0  0  0
    7.3988  -15.6443   25.6326 C   0  0  0  0  0  0  0  0  0  0  0  0
    6.2201  -15.0169   25.7918 N   0  0  0  0  0  0  0  0  0  0  0  0
    6.4474  -13.7406   26.2260 C   0  0  0  0  0  0  0  0  0  0  0  0
    5.6049  -12.6925   26.5403 C   0  0  0  0  0  0  0  0  0  0  0  0
    6.1022  -11.4803   26.9653 C   0  0  0  0  0  0  0  0  0  0  0  0
    7.4700  -11.3257   27.0738 C   0  0  0  0  0  0  0  0  0  0  0  0
    8.2960  -12.3825   26.7558 C   0  0  0  0  0  0  0  0  0  0  0  0
    7.8137  -13.6058   26.3281 C   0  0  0  0  0  0  0  0  0  0  0  0
    9.4904  -17.1782   27.1027 C   0  0  0  0  0  0  0  0  0  0  0  0
    9.5555  -16.7963   28.2887 O   0  0  0  0  0  0  0  0  0  0  0  0
    8.6740  -18.3071   26.8912 O   0  0  0  0  0  0  0  0  0  0  0  0
  2  3  1  0
  2  1  1  6
  3  4  1  0
  5  4  1  0
  6  5  1  0
  7  6  1  0
  8  2  1  0
  8  9  2  0
 10  8  1  0
 11 10  1  0
 12 13  1  0
 11 12  1  6
 13 14  2  0
 15 18  1  0
 15 11  1  0
 16 15  2  0
 17 13  1  0
 19 18  1  0
 19 30  1  0
 19 20  1  6
 21 20  1  0
 21 29  1  0
 22 23  1  0
 22 21  2  0
 23 24  1  0
 24 25  1  0
 24 29  2  0
 25 26  2  0
 26 27  1  0
 28 27  2  0
 29 28  1  0
 30 31  2  0
 30 32  1  0
M  END
$$$$
