KDW.pdb
     RDKit          3D

 32 33  0  0  1  0  0  0  0  0999 V2000
    9.7428  -17.6071   18.9637 N   0  0  0  0  0  0  0  0  0  0  0  0
    9.4133  -18.5820   20.0011 C   0  0  1  0  0  0  0  0  0  0  0  0
    9.5736  -19.9466   19.4785 C   0  0  0  0  0  0  0  0  0  0  0  0
    8.9757  -20.2014   18.1599 C   0  0  0  0  0  0  0  0  0  0  0  0
    8.4196  -21.4837   17.7511 C   0  0  0  0  0  0  0  0  0  0  0  0
    9.0228  -22.7718   18.1488 C   0  0  0  0  0  0  0  0  0  0  0  0
    7.9798  -23.6187   18.8281 N   0  0  0  0  0  0  0  0  0  0  0  0
   10.3226  -18.3413   21.1933 C   0  0  0  0  0  0  0  0  0  0  0  0
   10.2296  -19.0334   22.2336 O   0  0  0  0  0  0  0  0  0  0  0  0
   11.3017  -17.3278   21.1668 N   0  0  0  0  0  0  0  0  0  0  0  0
   12.1787  -17.0168   22.3231 C   0  0  1  0  0  0  0  0  0  0  0  0
   13.3542  -16.2338   21.8569 C   0  0  0  0  0  0  0  0  0  0  0  0
   14.3968  -17.0915   21.2825 C   0  0  0  0  0  0  0  0  0  0  0  0
   14.6708  -18.2442   21.7099 O   0  0  0  0  0  0  0  0  0  0  0  0
   11.3965  -16.2982   23.3410 C   0  0  0  0  0  0  0  0  0  0  0  0
   11.2044  -15.0450   23.1816 O   0  0  0  0  0  0  0  0  0  0  0  0
   15.1156  -16.5651   20.1899 O   0  0  0  0  0  0  0  0  0  0  0  0
   10.8297  -16.8965   24.4914 N   0  0  0  0  0  0  0  0  0  0  0  0
    9.7966  -16.2244   25.2690 C   0  0  1  0  0  0  0  0  0  0  0  0
    8.6259  -15.8336   24.3599 C   0  0  0  0  0  0  0  0  0  0  0  0
    7.5876  -15.1401   25.1498 C   0  0  0  0  0  0  0  0  0  0  0  0
    6.4847  -15.6316   25.8079 C   0  0  0  0  0  0  0  0  0  0  0  0
    5.8140  -14.6296   26.4032 N   0  0  0  0  0  0  0  0  0  0  0  0
    6.4577  -13.4495   26.1531 C   0  0  0  0  0  0  0  0  0  0  0  0
    6.1996  -12.1438   26.5213 C   0  0  0  0  0  0  0  0  0  0  0  0
    7.0266  -11.1150   26.1278 C   0  0  0  0  0  0  0  0  0  0  0  0
    8.1294  -11.4104   25.3512 C   0  0  0  0  0  0  0  0  0  0  0  0
    8.3716  -12.7193   24.9930 C   0  0  0  0  0  0  0  0  0  0  0  0
    7.5522  -13.7639   25.3795 C   0  0  0  0  0  0  0  0  0  0  0  0
    9.3506  -16.9582   26.4496 C   0  0  0  0  0  0  0  0  0  0  0  0
    9.1498  -18.1896   26.4590 O   0  0  0  0  0  0  0  0  0  0  0  0
    9.1133  -16.3131   27.6798 O   0  0  0  0  0  0  0  0  0  0  0  0
  2  3  1  0
  2  1  1  6
  3  4  1  0
  5  4  1  0
  6  5  1  0
  7  6  1  0
  8  2  1  0
  8  9  2  0
 10  8  1  0
 11 10  1  0
 12 13  1  0
 11 12  1  6
 13 14  2  0
 15 18  1  0
 15 11  1  0
 16 15  2  0
 17 13  1  0
 19 18  1  0
 19 30  1  0
 19 20  1  6
 21 20  1  0
 21 29  1  0
 22 23  1  0
 22 21  2  0
 23 24  1  0
 24 25  1  0
 24 29  2  0
 25 26  2  0
 26 27  1  0
 28 27  2  0
 29 28  1  0
 30 31  2  0
 30 32  1  0
M  END
$$$$
