KDW.pdb
     RDKit          3D

 32 33  0  0  1  0  0  0  0  0999 V2000
    9.8227  -14.6046   19.4407 N   0  0  0  0  0  0  0  0  0  0  0  0
    8.6813  -14.4290   20.3360 C   0  0  1  0  0  0  0  0  0  0  0  0
    7.4266  -14.6340   19.5979 C   0  0  0  0  0  0  0  0  0  0  0  0
    7.2978  -13.8911   18.3359 C   0  0  0  0  0  0  0  0  0  0  0  0
    7.7706  -14.3824   17.0491 C   0  0  0  0  0  0  0  0  0  0  0  0
    7.5379  -13.6506   15.7876 C   0  0  0  0  0  0  0  0  0  0  0  0
    8.8292  -13.5665   15.0180 N   0  0  0  0  0  0  0  0  0  0  0  0
    8.8116  -15.4184   21.4808 C   0  0  0  0  0  0  0  0  0  0  0  0
    7.8744  -15.6035   22.2915 O   0  0  0  0  0  0  0  0  0  0  0  0
    9.9951  -16.1604   21.6680 N   0  0  0  0  0  0  0  0  0  0  0  0
   10.2219  -17.0440   22.8388 C   0  0  1  0  0  0  0  0  0  0  0  0
   11.1469  -18.1444   22.4573 C   0  0  0  0  0  0  0  0  0  0  0  0
   11.5478  -18.0657   21.0480 C   0  0  0  0  0  0  0  0  0  0  0  0
   12.6681  -17.6403   20.6604 O   0  0  0  0  0  0  0  0  0  0  0  0
   10.7409  -16.2394   23.9558 C   0  0  0  0  0  0  0  0  0  0  0  0
   12.0075  -16.1532   24.1006 O   0  0  0  0  0  0  0  0  0  0  0  0
   10.6008  -18.4990   20.0977 O   0  0  0  0  0  0  0  0  0  0  0  0
    9.9361  -15.5416   24.8875 N   0  0  0  0  0  0  0  0  0  0  0  0
    9.6267  -16.1018   26.1968 C   0  0  1  0  0  0  0  0  0  0  0  0
    8.2124  -16.6929   26.1940 C   0  0  0  0  0  0  0  0  0  0  0  0
    7.2159  -15.6077   26.0819 C   0  0  0  0  0  0  0  0  0  0  0  0
    5.8886  -15.6433   25.7236 C   0  0  0  0  0  0  0  0  0  0  0  0
    5.3639  -14.4059   25.7615 N   0  0  0  0  0  0  0  0  0  0  0  0
    6.3321  -13.5206   26.1462 C   0  0  0  0  0  0  0  0  0  0  0  0
    6.3290  -12.1536   26.3423 C   0  0  0  0  0  0  0  0  0  0  0  0
    7.4669  -11.4877   26.7414 C   0  0  0  0  0  0  0  0  0  0  0  0
    8.6236  -12.2138   26.9446 C   0  0  0  0  0  0  0  0  0  0  0  0
    8.6085  -13.5775   26.7439 C   0  0  0  0  0  0  0  0  0  0  0  0
    7.4754  -14.2617   26.3439 C   0  0  0  0  0  0  0  0  0  0  0  0
   10.6149  -17.0509   26.7006 C   0  0  0  0  0  0  0  0  0  0  0  0
   10.5924  -17.5186   27.8571 O   0  0  0  0  0  0  0  0  0  0  0  0
   11.6790  -17.5110   25.8996 O   0  0  0  0  0  0  0  0  0  0  0  0
  2  3  1  0
  2  1  1  6
  3  4  1  0
  5  4  1  0
  6  5  1  0
  7  6  1  0
  8  2  1  0
  8  9  2  0
 10  8  1  0
 11 10  1  0
 12 13  1  0
 11 12  1  6
 13 14  2  0
 15 18  1  0
 15 11  1  0
 16 15  2  0
 17 13  1  0
 19 18  1  0
 19 30  1  0
 19 20  1  6
 21 20  1  0
 21 29  1  0
 22 23  1  0
 22 21  2  0
 23 24  1  0
 24 25  1  0
 24 29  2  0
 25 26  2  0
 26 27  1  0
 28 27  2  0
 29 28  1  0
 30 31  2  0
 30 32  1  0
M  END
$$$$
