KDW.pdb
     RDKit          3D

 32 33  0  0  1  0  0  0  0  0999 V2000
    9.9933  -14.3459   19.1485 N   0  0  0  0  0  0  0  0  0  0  0  0
    9.0894  -14.0627   20.2610 C   0  0  1  0  0  0  0  0  0  0  0  0
    7.7157  -13.8985   19.7641 C   0  0  0  0  0  0  0  0  0  0  0  0
    7.5880  -13.3663   18.3996 C   0  0  0  0  0  0  0  0  0  0  0  0
    7.4252  -14.1951   17.2134 C   0  0  0  0  0  0  0  0  0  0  0  0
    7.2540  -13.6214   15.8633 C   0  0  0  0  0  0  0  0  0  0  0  0
    6.9810  -14.7317   14.8840 N   0  0  0  0  0  0  0  0  0  0  0  0
    9.1791  -15.2061   21.2564 C   0  0  0  0  0  0  0  0  0  0  0  0
    8.3596  -15.3158   22.1979 O   0  0  0  0  0  0  0  0  0  0  0  0
   10.1909  -16.1816   21.1524 N   0  0  0  0  0  0  0  0  0  0  0  0
   10.3543  -17.2881   22.1281 C   0  0  1  0  0  0  0  0  0  0  0  0
   11.4298  -18.2041   21.6629 C   0  0  0  0  0  0  0  0  0  0  0  0
   11.2050  -18.6675   20.2890 C   0  0  0  0  0  0  0  0  0  0  0  0
   12.0251  -18.4969   19.3485 O   0  0  0  0  0  0  0  0  0  0  0  0
   10.6382  -16.7213   23.4557 C   0  0  0  0  0  0  0  0  0  0  0  0
   11.7467  -16.1092   23.6265 O   0  0  0  0  0  0  0  0  0  0  0  0
    9.9905  -19.3390   20.0405 O   0  0  0  0  0  0  0  0  0  0  0  0
    9.7656  -16.7979   24.5672 N   0  0  0  0  0  0  0  0  0  0  0  0
   10.1731  -16.3383   25.8887 C   0  0  1  0  0  0  0  0  0  0  0  0
    9.8468  -14.8493   26.0504 C   0  0  0  0  0  0  0  0  0  0  0  0
    8.4233  -14.6109   25.7342 C   0  0  0  0  0  0  0  0  0  0  0  0
    7.4231  -15.4888   25.3877 C   0  0  0  0  0  0  0  0  0  0  0  0
    6.2703  -14.8253   25.1905 N   0  0  0  0  0  0  0  0  0  0  0  0
    6.4800  -13.4909   25.4020 C   0  0  0  0  0  0  0  0  0  0  0  0
    5.6504  -12.3889   25.3363 C   0  0  0  0  0  0  0  0  0  0  0  0
    6.1233  -11.1230   25.6036 C   0  0  0  0  0  0  0  0  0  0  0  0
    7.4533  -10.9695   25.9415 C   0  0  0  0  0  0  0  0  0  0  0  0
    8.2669  -12.0805   26.0021 C   0  0  0  0  0  0  0  0  0  0  0  0
    7.8086  -13.3580   25.7374 C   0  0  0  0  0  0  0  0  0  0  0  0
    9.6538  -17.1352   26.9961 C   0  0  0  0  0  0  0  0  0  0  0  0
    9.9652  -16.9412   28.1886 O   0  0  0  0  0  0  0  0  0  0  0  0
    8.7493  -18.1956   26.7883 O   0  0  0  0  0  0  0  0  0  0  0  0
  2  3  1  0
  2  1  1  6
  3  4  1  0
  5  4  1  0
  6  5  1  0
  7  6  1  0
  8  2  1  0
  8  9  2  0
 10  8  1  0
 11 10  1  0
 12 13  1  0
 11 12  1  6
 13 14  2  0
 15 18  1  0
 15 11  1  0
 16 15  2  0
 17 13  1  0
 19 18  1  0
 19 30  1  0
 19 20  1  1
 21 20  1  0
 21 29  1  0
 22 23  1  0
 22 21  2  0
 23 24  1  0
 24 25  1  0
 24 29  2  0
 25 26  2  0
 26 27  1  0
 28 27  2  0
 29 28  1  0
 30 31  2  0
 30 32  1  0
M  END
$$$$
