KDW.pdb
     RDKit          3D

 32 33  0  0  1  0  0  0  0  0999 V2000
    9.9279  -14.2615   19.6388 N   0  0  0  0  0  0  0  0  0  0  0  0
    8.7584  -14.2222   20.5140 C   0  0  1  0  0  0  0  0  0  0  0  0
    7.5353  -14.4466   19.7300 C   0  0  0  0  0  0  0  0  0  0  0  0
    7.4569  -13.7319   18.4478 C   0  0  0  0  0  0  0  0  0  0  0  0
    7.9938  -14.2443   17.1949 C   0  0  0  0  0  0  0  0  0  0  0  0
    7.7601  -13.5741   15.8997 C   0  0  0  0  0  0  0  0  0  0  0  0
    8.4603  -14.3424   14.8107 N   0  0  0  0  0  0  0  0  0  0  0  0
    8.9246  -15.2844   21.5865 C   0  0  0  0  0  0  0  0  0  0  0  0
    7.9784  -15.5965   22.3463 O   0  0  0  0  0  0  0  0  0  0  0  0
   10.1527  -15.9534   21.7618 N   0  0  0  0  0  0  0  0  0  0  0  0
   10.3374  -17.0724   22.7191 C   0  0  1  0  0  0  0  0  0  0  0  0
   11.6384  -17.7423   22.4532 C   0  0  0  0  0  0  0  0  0  0  0  0
   11.6744  -18.3739   21.1294 C   0  0  0  0  0  0  0  0  0  0  0  0
   10.9956  -19.3880   20.8176 O   0  0  0  0  0  0  0  0  0  0  0  0
   10.2472  -16.5514   24.0920 C   0  0  0  0  0  0  0  0  0  0  0  0
   10.9665  -15.5423   24.4035 O   0  0  0  0  0  0  0  0  0  0  0  0
   12.5286  -17.7873   20.1735 O   0  0  0  0  0  0  0  0  0  0  0  0
    9.4115  -17.0843   25.1021 N   0  0  0  0  0  0  0  0  0  0  0  0
    9.5826  -16.7205   26.5028 C   0  0  1  0  0  0  0  0  0  0  0  0
    8.2159  -16.4751   27.1522 C   0  0  0  0  0  0  0  0  0  0  0  0
    7.4049  -15.5877   26.2932 C   0  0  0  0  0  0  0  0  0  0  0  0
    6.5508  -15.8802   25.2558 C   0  0  0  0  0  0  0  0  0  0  0  0
    6.0203  -14.7495   24.7578 N   0  0  0  0  0  0  0  0  0  0  0  0
    6.5110  -13.6802   25.4544 C   0  0  0  0  0  0  0  0  0  0  0  0
    6.2978  -12.3193   25.3567 C   0  0  0  0  0  0  0  0  0  0  0  0
    6.9317  -11.4356   26.2021 C   0  0  0  0  0  0  0  0  0  0  0  0
    7.7929  -11.9347   27.1590 C   0  0  0  0  0  0  0  0  0  0  0  0
    7.9938  -13.2959   27.2420 C   0  0  0  0  0  0  0  0  0  0  0  0
    7.3656  -14.1968   26.4019 C   0  0  0  0  0  0  0  0  0  0  0  0
   10.3966  -17.6522   27.2776 C   0  0  0  0  0  0  0  0  0  0  0  0
   10.8249  -18.7329   26.8243 O   0  0  0  0  0  0  0  0  0  0  0  0
   10.7600  -17.3883   28.6133 O   0  0  0  0  0  0  0  0  0  0  0  0
  2  3  1  0
  2  1  1  6
  3  4  1  0
  5  4  1  0
  6  5  1  0
  7  6  1  0
  8  2  1  0
  8  9  2  0
 10  8  1  0
 11 10  1  0
 12 13  1  0
 11 12  1  1
 13 14  2  0
 15 18  1  0
 15 11  1  0
 16 15  2  0
 17 13  1  0
 19 18  1  0
 19 30  1  0
 19 20  1  1
 21 20  1  0
 21 29  1  0
 22 23  1  0
 22 21  2  0
 23 24  1  0
 24 25  1  0
 24 29  2  0
 25 26  2  0
 26 27  1  0
 28 27  2  0
 29 28  1  0
 30 31  2  0
 30 32  1  0
M  END
$$$$
