KDW.pdb
     RDKit          3D

 32 33  0  0  1  0  0  0  0  0999 V2000
    8.4920  -19.3580   20.8348 N   0  0  0  0  0  0  0  0  0  0  0  0
    9.8675  -19.8512   20.8254 C   0  0  1  0  0  0  0  0  0  0  0  0
   10.3427  -19.9906   19.4413 C   0  0  0  0  0  0  0  0  0  0  0  0
    9.3133  -19.8836   18.3973 C   0  0  0  0  0  0  0  0  0  0  0  0
    9.6032  -19.6865   16.9839 C   0  0  0  0  0  0  0  0  0  0  0  0
    8.5398  -19.5212   15.9724 C   0  0  0  0  0  0  0  0  0  0  0  0
    9.1668  -19.4049   14.6087 N   0  0  0  0  0  0  0  0  0  0  0  0
   10.7326  -18.8776   21.6065 C   0  0  0  0  0  0  0  0  0  0  0  0
   11.9730  -19.0325   21.6921 O   0  0  0  0  0  0  0  0  0  0  0  0
   10.1649  -17.7668   22.2624 N   0  0  0  0  0  0  0  0  0  0  0  0
   10.9540  -16.8277   23.0980 C   0  0  1  0  0  0  0  0  0  0  0  0
   11.3696  -15.6610   22.2745 C   0  0  0  0  0  0  0  0  0  0  0  0
   12.7017  -15.8453   21.6877 C   0  0  0  0  0  0  0  0  0  0  0  0
   13.5393  -16.6902   22.1011 O   0  0  0  0  0  0  0  0  0  0  0  0
   10.1511  -16.4306   24.2651 C   0  0  0  0  0  0  0  0  0  0  0  0
    8.9756  -16.9172   24.3832 O   0  0  0  0  0  0  0  0  0  0  0  0
   13.0323  -15.0124   20.5993 O   0  0  0  0  0  0  0  0  0  0  0  0
   10.5885  -15.5467   25.2801 N   0  0  0  0  0  0  0  0  0  0  0  0
   10.1815  -15.7203   26.6686 C   0  0  1  0  0  0  0  0  0  0  0  0
    8.7806  -16.3394   26.7316 C   0  0  0  0  0  0  0  0  0  0  0  0
    7.8150  -15.4666   26.0325 C   0  0  0  0  0  0  0  0  0  0  0  0
    6.9455  -15.7369   25.0019 C   0  0  0  0  0  0  0  0  0  0  0  0
    6.2480  -14.6331   24.6809 N   0  0  0  0  0  0  0  0  0  0  0  0
    6.6394  -13.6045   25.4921 C   0  0  0  0  0  0  0  0  0  0  0  0
    6.2504  -12.2827   25.5849 C   0  0  0  0  0  0  0  0  0  0  0  0
    6.8158  -11.4362   26.5130 C   0  0  0  0  0  0  0  0  0  0  0  0
    7.7878  -11.9330   27.3584 C   0  0  0  0  0  0  0  0  0  0  0  0
    8.1638  -13.2549   27.2517 C   0  0  0  0  0  0  0  0  0  0  0  0
    7.6065  -14.1182   26.3263 C   0  0  0  0  0  0  0  0  0  0  0  0
   11.1388  -16.4485   27.4959 C   0  0  0  0  0  0  0  0  0  0  0  0
   10.9406  -16.7240   28.6965 O   0  0  0  0  0  0  0  0  0  0  0  0
   12.3725  -16.8976   26.9842 O   0  0  0  0  0  0  0  0  0  0  0  0
  2  3  1  0
  2  1  1  6
  3  4  1  0
  5  4  1  0
  6  5  1  0
  7  6  1  0
  8  2  1  0
  8  9  2  0
 10  8  1  0
 11 10  1  0
 12 13  1  0
 11 12  1  6
 13 14  2  0
 15 18  1  0
 15 11  1  0
 16 15  2  0
 17 13  1  0
 19 18  1  0
 19 30  1  0
 19 20  1  6
 21 20  1  0
 21 29  1  0
 22 23  1  0
 22 21  2  0
 23 24  1  0
 24 25  1  0
 24 29  2  0
 25 26  2  0
 26 27  1  0
 28 27  2  0
 29 28  1  0
 30 31  2  0
 30 32  1  0
M  END
$$$$
