KDW.pdb
     RDKit          3D

 32 33  0  0  1  0  0  0  0  0999 V2000
    9.8391  -15.4515   19.0879 N   0  0  0  0  0  0  0  0  0  0  0  0
    8.9048  -15.0784   20.1477 C   0  0  1  0  0  0  0  0  0  0  0  0
    7.5275  -15.0976   19.6341 C   0  0  0  0  0  0  0  0  0  0  0  0
    7.3294  -14.4889   18.3107 C   0  0  0  0  0  0  0  0  0  0  0  0
    8.0465  -13.3124   17.8391 C   0  0  0  0  0  0  0  0  0  0  0  0
    7.8016  -12.7148   16.5109 C   0  0  0  0  0  0  0  0  0  0  0  0
    7.8362  -13.7981   15.4661 N   0  0  0  0  0  0  0  0  0  0  0  0
    9.0731  -16.0514   21.3014 C   0  0  0  0  0  0  0  0  0  0  0  0
    8.2322  -16.1145   22.2282 O   0  0  0  0  0  0  0  0  0  0  0  0
   10.1846  -16.9156   21.3663 N   0  0  0  0  0  0  0  0  0  0  0  0
   10.4409  -17.8229   22.5126 C   0  0  1  0  0  0  0  0  0  0  0  0
   11.5570  -18.7458   22.1741 C   0  0  0  0  0  0  0  0  0  0  0  0
   11.9539  -19.5755   23.3172 C   0  0  0  0  0  0  0  0  0  0  0  0
   11.3525  -20.6267   23.6630 O   0  0  0  0  0  0  0  0  0  0  0  0
   10.7255  -17.0171   23.7101 C   0  0  0  0  0  0  0  0  0  0  0  0
   11.4509  -15.9735   23.5775 O   0  0  0  0  0  0  0  0  0  0  0  0
   13.0778  -19.1432   24.0504 O   0  0  0  0  0  0  0  0  0  0  0  0
   10.2470  -17.3092   25.0095 N   0  0  0  0  0  0  0  0  0  0  0  0
   10.5386  -16.4397   26.1420 C   0  0  1  0  0  0  0  0  0  0  0  0
    9.9926  -15.0321   25.8774 C   0  0  0  0  0  0  0  0  0  0  0  0
    8.5320  -15.0111   26.0992 C   0  0  0  0  0  0  0  0  0  0  0  0
    7.6103  -16.0317   26.0959 C   0  0  0  0  0  0  0  0  0  0  0  0
    6.3813  -15.5488   26.3499 N   0  0  0  0  0  0  0  0  0  0  0  0
    6.4601  -14.1955   26.5277 C   0  0  0  0  0  0  0  0  0  0  0  0
    5.5138  -13.2294   26.8076 C   0  0  0  0  0  0  0  0  0  0  0  0
    5.8653  -11.9042   26.9408 C   0  0  0  0  0  0  0  0  0  0  0  0
    7.1914  -11.5511   26.7888 C   0  0  0  0  0  0  0  0  0  0  0  0
    8.1224  -12.5285   26.5096 C   0  0  0  0  0  0  0  0  0  0  0  0
    7.7871  -13.8630   26.3730 C   0  0  0  0  0  0  0  0  0  0  0  0
   10.1050  -16.9602   27.4352 C   0  0  0  0  0  0  0  0  0  0  0  0
   10.2812  -16.3575   28.5134 O   0  0  0  0  0  0  0  0  0  0  0  0
    9.4462  -18.2001   27.5540 O   0  0  0  0  0  0  0  0  0  0  0  0
  2  3  1  0
  2  1  1  6
  3  4  1  0
  5  4  1  0
  6  5  1  0
  7  6  1  0
  8  2  1  0
  8  9  2  0
 10  8  1  0
 11 10  1  0
 12 13  1  0
 11 12  1  6
 13 14  2  0
 15 18  1  0
 15 11  1  0
 16 15  2  0
 17 13  1  0
 19 18  1  0
 19 30  1  0
 19 20  1  6
 21 20  1  0
 21 29  1  0
 22 23  1  0
 22 21  2  0
 23 24  1  0
 24 25  1  0
 24 29  2  0
 25 26  2  0
 26 27  1  0
 28 27  2  0
 29 28  1  0
 30 31  2  0
 30 32  1  0
M  END
$$$$
