CLC.pdb
     RDKit          3D

 21 20  0  0  1  0  0  0  0  0999 V2000
   18.8327  -12.4378  -18.3367 N   0  0  0  0  0  0  0  0  0  0  0  0
   19.5132  -11.1910  -18.5610 C   0  0  1  0  0  0  0  0  0  0  0  0
   18.5453  -10.0918  -18.9528 C   0  0  0  0  0  0  0  0  0  0  0  0
   19.5067   -8.5818  -19.2473 S   0  0  0  0  0  0  0  0  0  0  0  0
   20.1688  -10.7693  -17.3058 C   0  0  0  0  0  0  0  0  0  0  0  0
   19.4688  -10.6407  -16.2487 O   0  0  0  0  0  0  0  0  0  0  0  0
   24.9059  -12.5760  -15.3213 C   0  0  0  0  0  0  0  0  0  0  0  0
   23.4343  -12.1219  -15.4792 C   0  0  1  0  0  0  0  0  0  0  0  0
   22.7986  -12.4408  -14.1453 C   0  0  0  0  0  0  0  0  0  0  0  0
   23.4845  -10.6763  -15.7915 C   0  0  0  0  0  0  0  0  0  0  0  0
   22.2174   -9.9836  -16.1408 C   0  0  2  0  0  0  0  0  0  0  0  0
   21.5531  -10.5179  -17.3019 N   0  0  0  0  0  0  0  0  0  0  0  0
   22.3474   -8.5274  -16.2924 C   0  0  0  0  0  0  0  0  0  0  0  0
   22.5996   -8.0230  -17.3974 O   0  0  0  0  0  0  0  0  0  0  0  0
   22.1827   -7.6963  -15.1662 N   0  0  0  0  0  0  0  0  0  0  0  0
   22.2713   -6.2712  -15.1730 C   0  0  1  0  0  0  0  0  0  0  0  0
   21.1128   -5.7432  -16.0170 C   0  0  0  0  0  0  0  0  0  0  0  0
   20.9547   -3.9567  -15.9035 S   0  0  0  0  0  0  0  0  0  0  0  0
   22.0749   -5.7636  -13.8022 C   0  0  0  0  0  0  0  0  0  0  0  0
   22.6529   -4.5805  -13.3584 O   0  0  0  0  0  0  0  0  0  0  0  0
   21.3657   -6.4048  -12.9914 O   0  0  0  0  0  0  0  0  0  0  0  0
  2  1  1  1
  2  3  1  0
  2  5  1  0
  3  4  1  0
  5  6  2  0
  8  7  1  1
  8 10  1  0
  9  8  1  0
 11 10  1  6
 12 11  1  0
 12  5  1  0
 13 11  1  0
 13 14  2  0
 15 13  1  0
 16 15  1  0
 16 19  1  0
 16 17  1  6
 18 17  1  0
 19 21  2  0
 19 20  1  0
M  END
$$$$
