CLC.pdb
     RDKit          3D

 21 20  0  0  1  0  0  0  0  0999 V2000
   16.8376  -11.4148  -14.3121 N   0  0  0  0  0  0  0  0  0  0  0  0
   17.5090  -10.3876  -13.5627 C   0  0  1  0  0  0  0  0  0  0  0  0
   18.4100   -9.5509  -14.4497 C   0  0  0  0  0  0  0  0  0  0  0  0
   19.7960  -10.5948  -14.9790 S   0  0  0  0  0  0  0  0  0  0  0  0
   16.4990   -9.4780  -12.9834 C   0  0  0  0  0  0  0  0  0  0  0  0
   15.5503   -9.0494  -13.7185 O   0  0  0  0  0  0  0  0  0  0  0  0
   12.9129   -9.8055   -8.9602 C   0  0  0  0  0  0  0  0  0  0  0  0
   13.5074   -9.2664  -10.2841 C   0  0  1  0  0  0  0  0  0  0  0  0
   12.5307   -8.2011  -10.7271 C   0  0  0  0  0  0  0  0  0  0  0  0
   14.8515   -8.7475   -9.9465 C   0  0  0  0  0  0  0  0  0  0  0  0
   15.6812   -8.1708  -11.0356 C   0  0  2  0  0  0  0  0  0  0  0  0
   16.6040   -9.1026  -11.6315 N   0  0  0  0  0  0  0  0  0  0  0  0
   16.4102   -6.9515  -10.6582 C   0  0  0  0  0  0  0  0  0  0  0  0
   17.4277   -7.0121   -9.9511 O   0  0  0  0  0  0  0  0  0  0  0  0
   15.9448   -5.6992  -11.1070 N   0  0  0  0  0  0  0  0  0  0  0  0
   16.5881   -4.4469  -10.8693 C   0  0  1  0  0  0  0  0  0  0  0  0
   16.6591   -3.7066  -12.2035 C   0  0  0  0  0  0  0  0  0  0  0  0
   17.8218   -4.4733  -13.3394 S   0  0  0  0  0  0  0  0  0  0  0  0
   15.7529   -3.6329   -9.9664 C   0  0  0  0  0  0  0  0  0  0  0  0
   16.2705   -2.5771   -9.2262 O   0  0  0  0  0  0  0  0  0  0  0  0
   14.5305   -3.8838   -9.8462 O   0  0  0  0  0  0  0  0  0  0  0  0
  2  1  1  6
  2  3  1  0
  2  5  1  0
  3  4  1  0
  5  6  2  0
  8  7  1  1
  8 10  1  0
  9  8  1  0
 11 10  1  1
 12 11  1  0
 12  5  1  0
 13 11  1  0
 13 14  2  0
 15 13  1  0
 16 15  1  0
 16 19  1  0
 16 17  1  6
 18 17  1  0
 19 21  2  0
 19 20  1  0
M  END
$$$$
