CLC.pdb
     RDKit          3D

 21 20  0  0  1  0  0  0  0  0999 V2000
   16.3236   -9.8664  -10.7220 N   0  0  0  0  0  0  0  0  0  0  0  0
   16.6128   -9.3268  -12.0231 C   0  0  1  0  0  0  0  0  0  0  0  0
   15.7909   -8.0844  -12.3053 C   0  0  0  0  0  0  0  0  0  0  0  0
   16.0381   -7.6361  -14.0457 S   0  0  0  0  0  0  0  0  0  0  0  0
   18.0353   -8.9306  -12.0732 C   0  0  0  0  0  0  0  0  0  0  0  0
   18.5462   -8.3120  -11.0831 O   0  0  0  0  0  0  0  0  0  0  0  0
   23.3330  -10.6246  -14.2469 C   0  0  0  0  0  0  0  0  0  0  0  0
   22.5514   -9.3410  -13.8750 C   0  0  1  0  0  0  0  0  0  0  0  0
   22.8988   -8.3599  -14.9714 C   0  0  0  0  0  0  0  0  0  0  0  0
   21.1233   -9.7273  -13.8436 C   0  0  0  0  0  0  0  0  0  0  0  0
   20.1276   -8.7197  -13.3959 C   0  0  2  0  0  0  0  0  0  0  0  0
   18.7984   -9.2439  -13.2130 N   0  0  0  0  0  0  0  0  0  0  0  0
   20.0564   -7.5224  -14.2455 C   0  0  0  0  0  0  0  0  0  0  0  0
   19.6451   -7.5950  -15.4136 O   0  0  0  0  0  0  0  0  0  0  0  0
   20.4612   -6.2775  -13.7234 N   0  0  0  0  0  0  0  0  0  0  0  0
   20.5807   -5.0683  -14.4734 C   0  0  1  0  0  0  0  0  0  0  0  0
   19.5691   -4.0743  -13.9060 C   0  0  0  0  0  0  0  0  0  0  0  0
   19.4510   -2.5864  -14.9069 S   0  0  0  0  0  0  0  0  0  0  0  0
   21.9213   -4.4918  -14.2592 C   0  0  0  0  0  0  0  0  0  0  0  0
   22.5892   -4.5960  -13.0452 O   0  0  0  0  0  0  0  0  0  0  0  0
   22.4980   -3.8819  -15.1903 O   0  0  0  0  0  0  0  0  0  0  0  0
  2  1  1  1
  2  3  1  0
  2  5  1  0
  3  4  1  0
  5  6  2  0
  8  7  1  6
  8 10  1  0
  9  8  1  0
 11 10  1  6
 12 11  1  0
 12  5  1  0
 13 11  1  0
 13 14  2  0
 15 13  1  0
 16 15  1  0
 16 19  1  0
 16 17  1  1
 18 17  1  0
 19 21  2  0
 19 20  1  0
M  END
$$$$
