CLC.pdb
     RDKit          3D

 21 20  0  0  1  0  0  0  0  0999 V2000
   20.1116  -12.6353  -17.3321 N   0  0  0  0  0  0  0  0  0  0  0  0
   20.0156  -11.2549  -17.7232 C   0  0  1  0  0  0  0  0  0  0  0  0
   18.5712  -10.8096  -17.8420 C   0  0  0  0  0  0  0  0  0  0  0  0
   18.5648   -9.0749  -18.3730 S   0  0  0  0  0  0  0  0  0  0  0  0
   20.6475  -10.4163  -16.6837 C   0  0  0  0  0  0  0  0  0  0  0  0
   20.1924  -10.4487  -15.4937 O   0  0  0  0  0  0  0  0  0  0  0  0
   25.8806  -10.3388  -15.5620 C   0  0  0  0  0  0  0  0  0  0  0  0
   24.3335  -10.3848  -15.5260 C   0  0  1  0  0  0  0  0  0  0  0  0
   24.0021  -10.7242  -14.0907 C   0  0  0  0  0  0  0  0  0  0  0  0
   23.8754   -9.0425  -15.9481 C   0  0  0  0  0  0  0  0  0  0  0  0
   22.4142   -8.7914  -16.0433 C   0  0  2  0  0  0  0  0  0  0  0  0
   21.7393   -9.5982  -17.0275 N   0  0  0  0  0  0  0  0  0  0  0  0
   22.0564   -7.3814  -16.2544 C   0  0  0  0  0  0  0  0  0  0  0  0
   22.2086   -6.8458  -17.3630 O   0  0  0  0  0  0  0  0  0  0  0  0
   21.5341   -6.6313  -15.1817 N   0  0  0  0  0  0  0  0  0  0  0  0
   21.1290   -5.2639  -15.2518 C   0  0  1  0  0  0  0  0  0  0  0  0
   19.7755   -5.1496  -14.5531 C   0  0  0  0  0  0  0  0  0  0  0  0
   18.5166   -6.1524  -15.3527 S   0  0  0  0  0  0  0  0  0  0  0  0
   22.0808   -4.4334  -14.4905 C   0  0  0  0  0  0  0  0  0  0  0  0
   22.0184   -3.0453  -14.4879 O   0  0  0  0  0  0  0  0  0  0  0  0
   22.9863   -4.9765  -13.8147 O   0  0  0  0  0  0  0  0  0  0  0  0
  2  1  1  1
  2  3  1  0
  2  5  1  0
  3  4  1  0
  5  6  2  0
  8  7  1  1
  8 10  1  0
  9  8  1  0
 11 10  1  6
 12 11  1  0
 12  5  1  0
 13 11  1  0
 13 14  2  0
 15 13  1  0
 16 15  1  0
 16 19  1  0
 16 17  1  1
 18 17  1  0
 19 21  2  0
 19 20  1  0
M  END
$$$$
