CLC.pdb
     RDKit          3D

 21 20  0  0  1  0  0  0  0  0999 V2000
   16.8481  -10.3951    8.2707 N   0  0  0  0  0  0  0  0  0  0  0  0
   17.9670  -11.2483    7.9748 C   0  0  1  0  0  0  0  0  0  0  0  0
   18.5343  -11.8777    9.2320 C   0  0  0  0  0  0  0  0  0  0  0  0
   20.1122  -12.6615    8.7996 S   0  0  0  0  0  0  0  0  0  0  0  0
   17.5129  -12.3498    7.1010 C   0  0  0  0  0  0  0  0  0  0  0  0
   16.4311  -12.9627    7.3804 O   0  0  0  0  0  0  0  0  0  0  0  0
   16.7858  -14.5310    2.2051 C   0  0  0  0  0  0  0  0  0  0  0  0
   18.2042  -14.7743    2.7757 C   0  0  1  0  0  0  0  0  0  0  0  0
   19.1042  -14.7596    1.5613 C   0  0  0  0  0  0  0  0  0  0  0  0
   18.4573  -13.6683    3.7257 C   0  0  0  0  0  0  0  0  0  0  0  0
   17.8821  -13.7639    5.0922 C   0  0  2  0  0  0  0  0  0  0  0  0
   18.2836  -12.7009    5.9774 N   0  0  0  0  0  0  0  0  0  0  0  0
   18.1166  -15.0537    5.7570 C   0  0  0  0  0  0  0  0  0  0  0  0
   19.1922  -15.2880    6.3291 O   0  0  0  0  0  0  0  0  0  0  0  0
   17.1047  -16.0345    5.7426 N   0  0  0  0  0  0  0  0  0  0  0  0
   17.2243  -17.3507    6.2831 C   0  0  1  0  0  0  0  0  0  0  0  0
   16.4625  -17.3744    7.6069 C   0  0  0  0  0  0  0  0  0  0  0  0
   17.5552  -17.1633    9.0180 S   0  0  0  0  0  0  0  0  0  0  0  0
   16.5580  -18.3103    5.3828 C   0  0  0  0  0  0  0  0  0  0  0  0
   16.8290  -19.6726    5.4177 O   0  0  0  0  0  0  0  0  0  0  0  0
   15.7140  -17.9059    4.5487 O   0  0  0  0  0  0  0  0  0  0  0  0
  2  1  1  1
  2  3  1  0
  2  5  1  0
  3  4  1  0
  5  6  2  0
  8  7  1  6
  8 10  1  0
  9  8  1  0
 11 10  1  6
 12 11  1  0
 12  5  1  0
 13 11  1  0
 13 14  2  0
 15 13  1  0
 16 15  1  0
 16 19  1  0
 16 17  1  1
 18 17  1  0
 19 21  2  0
 19 20  1  0
M  END
$$$$
