CLC.pdb
     RDKit          3D

 21 20  0  0  1  0  0  0  0  0999 V2000
   19.4151  -26.2175  -14.2678 N   0  0  0  0  0  0  0  0  0  0  0  0
   19.4772  -25.9160  -12.8632 C   0  0  1  0  0  0  0  0  0  0  0  0
   18.4032  -24.9251  -12.4590 C   0  0  0  0  0  0  0  0  0  0  0  0
   18.9458  -23.2732  -12.9764 S   0  0  0  0  0  0  0  0  0  0  0  0
   19.2398  -27.1556  -12.0951 C   0  0  0  0  0  0  0  0  0  0  0  0
   18.2569  -27.9044  -12.4068 O   0  0  0  0  0  0  0  0  0  0  0  0
   23.2978  -30.3326   -9.7489 C   0  0  0  0  0  0  0  0  0  0  0  0
   22.0636  -29.9396  -10.5969 C   0  0  1  0  0  0  0  0  0  0  0  0
   21.5391  -31.2545  -11.1270 C   0  0  0  0  0  0  0  0  0  0  0  0
   21.1360  -29.2505   -9.6725 C   0  0  0  0  0  0  0  0  0  0  0  0
   19.8911  -28.6607  -10.2291 C   0  0  2  0  0  0  0  0  0  0  0  0
   20.1033  -27.4854  -11.0343 N   0  0  0  0  0  0  0  0  0  0  0  0
   18.8583  -28.3714   -9.2240 C   0  0  0  0  0  0  0  0  0  0  0  0
   18.8905  -27.3220   -8.5631 O   0  0  0  0  0  0  0  0  0  0  0  0
   17.8197  -29.2998   -9.0109 N   0  0  0  0  0  0  0  0  0  0  0  0
   16.7569  -29.1466   -8.0699 C   0  0  1  0  0  0  0  0  0  0  0  0
   15.4529  -29.4823   -8.7912 C   0  0  0  0  0  0  0  0  0  0  0  0
   14.9756  -28.1983   -9.9546 S   0  0  0  0  0  0  0  0  0  0  0  0
   16.9187  -30.1337   -6.9860 C   0  0  0  0  0  0  0  0  0  0  0  0
   16.1829  -30.0716   -5.8089 O   0  0  0  0  0  0  0  0  0  0  0  0
   17.7427  -31.0704   -7.1085 O   0  0  0  0  0  0  0  0  0  0  0  0
  2  1  1  6
  2  3  1  0
  2  5  1  0
  3  4  1  0
  5  6  2  0
  8  7  1  1
  8 10  1  0
  9  8  1  0
 11 10  1  1
 12 11  1  0
 12  5  1  0
 13 11  1  0
 13 14  2  0
 15 13  1  0
 16 15  1  0
 16 19  1  0
 16 17  1  6
 18 17  1  0
 19 21  2  0
 19 20  1  0
M  END
$$$$
