CLC.pdb
     RDKit          3D

 21 20  0  0  1  0  0  0  0  0999 V2000
   28.3567  -19.9443  -15.6515 N   0  0  0  0  0  0  0  0  0  0  0  0
   27.3976  -19.1481  -14.9348 C   0  0  1  0  0  0  0  0  0  0  0  0
   26.7052  -18.1556  -15.8481 C   0  0  0  0  0  0  0  0  0  0  0  0
   27.8549  -16.7867  -16.1573 S   0  0  0  0  0  0  0  0  0  0  0  0
   26.3537  -20.0358  -14.3823 C   0  0  0  0  0  0  0  0  0  0  0  0
   26.0172  -21.0812  -15.0288 O   0  0  0  0  0  0  0  0  0  0  0  0
   25.4359  -20.4117   -8.7904 C   0  0  0  0  0  0  0  0  0  0  0  0
   25.8568  -20.6707  -10.2575 C   0  0  1  0  0  0  0  0  0  0  0  0
   26.3247  -22.1081  -10.2648 C   0  0  0  0  0  0  0  0  0  0  0  0
   24.6494  -20.4268  -11.0776 C   0  0  0  0  0  0  0  0  0  0  0  0
   24.7573  -20.5623  -12.5532 C   0  0  2  0  0  0  0  0  0  0  0  0
   25.7514  -19.7099  -13.1532 N   0  0  0  0  0  0  0  0  0  0  0  0
   23.4855  -20.3911  -13.2698 C   0  0  0  0  0  0  0  0  0  0  0  0
   23.1152  -19.2695  -13.6491 O   0  0  0  0  0  0  0  0  0  0  0  0
   22.6787  -21.5175  -13.5278 N   0  0  0  0  0  0  0  0  0  0  0  0
   21.4041  -21.4891  -14.1707 C   0  0  1  0  0  0  0  0  0  0  0  0
   21.1208  -22.8970  -14.6911 C   0  0  0  0  0  0  0  0  0  0  0  0
   19.4487  -23.0563  -15.3303 S   0  0  0  0  0  0  0  0  0  0  0  0
   20.3620  -21.1777  -13.1745 C   0  0  0  0  0  0  0  0  0  0  0  0
   19.2004  -20.4905  -13.5049 O   0  0  0  0  0  0  0  0  0  0  0  0
   20.5073  -21.5355  -11.9819 O   0  0  0  0  0  0  0  0  0  0  0  0
  2  1  1  6
  2  3  1  0
  2  5  1  0
  3  4  1  0
  5  6  2  0
  8  7  1  1
  8 10  1  0
  9  8  1  0
 11 10  1  1
 12 11  1  0
 12  5  1  0
 13 11  1  0
 13 14  2  0
 15 13  1  0
 16 15  1  0
 16 19  1  0
 16 17  1  1
 18 17  1  0
 19 21  2  0
 19 20  1  0
M  END
$$$$
