CLC.pdb
     RDKit          3D

 21 20  0  0  1  0  0  0  0  0999 V2000
   19.6557  -11.0424  -19.7039 N   0  0  0  0  0  0  0  0  0  0  0  0
   20.5739  -10.0177  -19.2860 C   0  0  1  0  0  0  0  0  0  0  0  0
   20.5015   -8.8034  -20.1908 C   0  0  0  0  0  0  0  0  0  0  0  0
   21.0861   -9.2982  -21.8354 S   0  0  0  0  0  0  0  0  0  0  0  0
   20.2088   -9.5716  -17.9256 C   0  0  0  0  0  0  0  0  0  0  0  0
   18.9785   -9.5031  -17.6004 O   0  0  0  0  0  0  0  0  0  0  0  0
   20.4191   -9.5157  -12.7401 C   0  0  0  0  0  0  0  0  0  0  0  0
   21.6833   -8.7837  -13.2525 C   0  0  1  0  0  0  0  0  0  0  0  0
   22.7778   -9.2179  -12.3045 C   0  0  0  0  0  0  0  0  0  0  0  0
   21.8804   -9.2372  -14.6472 C   0  0  0  0  0  0  0  0  0  0  0  0
   20.9224   -8.7736  -15.6838 C   0  0  2  0  0  0  0  0  0  0  0  0
   21.2263   -9.2312  -17.0155 N   0  0  0  0  0  0  0  0  0  0  0  0
   20.7220   -7.3178  -15.7129 C   0  0  0  0  0  0  0  0  0  0  0  0
   21.5561   -6.5715  -16.2480 O   0  0  0  0  0  0  0  0  0  0  0  0
   19.5664   -6.7658  -15.1245 N   0  0  0  0  0  0  0  0  0  0  0  0
   19.1507   -5.4049  -15.2426 C   0  0  1  0  0  0  0  0  0  0  0  0
   18.8637   -5.1389  -16.7192 C   0  0  0  0  0  0  0  0  0  0  0  0
   18.0932   -3.5362  -16.9788 S   0  0  0  0  0  0  0  0  0  0  0  0
   17.8819   -5.2173  -14.5143 C   0  0  0  0  0  0  0  0  0  0  0  0
   17.6068   -4.0663  -13.7861 O   0  0  0  0  0  0  0  0  0  0  0  0
   17.0062   -6.1140  -14.5385 O   0  0  0  0  0  0  0  0  0  0  0  0
  2  1  1  6
  2  3  1  0
  2  5  1  0
  3  4  1  0
  5  6  2  0
  8  7  1  1
  8 10  1  0
  9  8  1  0
 11 10  1  1
 12 11  1  0
 12  5  1  0
 13 11  1  0
 13 14  2  0
 15 13  1  0
 16 15  1  0
 16 19  1  0
 16 17  1  6
 18 17  1  0
 19 21  2  0
 19 20  1  0
M  END
$$$$
