CLC.pdb
     RDKit          3D

 21 20  0  0  1  0  0  0  0  0999 V2000
   21.0754  -13.0198  -18.2106 N   0  0  0  0  0  0  0  0  0  0  0  0
   21.7875  -11.9068  -18.7780 C   0  0  1  0  0  0  0  0  0  0  0  0
   20.9283  -11.1419  -19.7656 C   0  0  0  0  0  0  0  0  0  0  0  0
   20.5536  -12.2493  -21.1528 S   0  0  0  0  0  0  0  0  0  0  0  0
   22.1516  -10.9682  -17.6966 C   0  0  0  0  0  0  0  0  0  0  0  0
   21.3757  -10.8401  -16.6938 O   0  0  0  0  0  0  0  0  0  0  0  0
   27.4669  -10.1206  -16.1957 C   0  0  0  0  0  0  0  0  0  0  0  0
   25.9626  -10.4852  -16.1688 C   0  0  1  0  0  0  0  0  0  0  0  0
   25.7069  -10.9159  -14.7426 C   0  0  0  0  0  0  0  0  0  0  0  0
   25.2379   -9.2576  -16.5657 C   0  0  0  0  0  0  0  0  0  0  0  0
   23.7658   -9.3337  -16.7508 C   0  0  2  0  0  0  0  0  0  0  0  0
   23.3477  -10.2339  -17.7948 N   0  0  0  0  0  0  0  0  0  0  0  0
   23.1146   -8.0317  -16.9534 C   0  0  0  0  0  0  0  0  0  0  0  0
   23.2523   -7.4106  -18.0184 O   0  0  0  0  0  0  0  0  0  0  0  0
   22.3244   -7.4845  -15.9226 N   0  0  0  0  0  0  0  0  0  0  0  0
   21.5654   -6.2788  -16.0170 C   0  0  1  0  0  0  0  0  0  0  0  0
   20.2567   -6.4997  -15.2607 C   0  0  0  0  0  0  0  0  0  0  0  0
   19.2984   -7.8538  -15.9517 S   0  0  0  0  0  0  0  0  0  0  0  0
   22.2865   -5.1931  -15.3267 C   0  0  0  0  0  0  0  0  0  0  0  0
   21.8021   -3.8916  -15.2809 O   0  0  0  0  0  0  0  0  0  0  0  0
   23.3765   -5.4288  -14.7542 O   0  0  0  0  0  0  0  0  0  0  0  0
  2  1  1  1
  2  3  1  0
  2  5  1  0
  3  4  1  0
  5  6  2  0
  8  7  1  1
  8 10  1  0
  9  8  1  0
 11 10  1  6
 12 11  1  0
 12  5  1  0
 13 11  1  0
 13 14  2  0
 15 13  1  0
 16 15  1  0
 16 19  1  0
 16 17  1  1
 18 17  1  0
 19 21  2  0
 19 20  1  0
M  END
$$$$
