TTC.pdb
     RDKit          3D

 21 20  0  0  1  0  0  0  0  0999 V2000
    9.3562  -13.1920   16.8969 C   0  0  0  0  0  0  0  0  0  0  0  0
    9.1117  -13.8432   18.2467 C   0  0  1  0  0  0  0  0  0  0  0  0
    9.3002  -12.8579   19.2145 O   0  0  0  0  0  0  0  0  0  0  0  0
    7.6872  -14.3473   18.3360 C   0  0  2  0  0  0  0  0  0  0  0  0
    6.8235  -13.1928   18.1938 N   0  0  0  0  0  0  0  0  0  0  0  0
    7.4048  -14.9827   19.6429 C   0  0  0  0  0  0  0  0  0  0  0  0
    6.7375  -14.4114   20.5420 O   0  0  0  0  0  0  0  0  0  0  0  0
    7.7569  -19.3083   22.1054 C   0  0  0  0  0  0  0  0  0  0  0  0
    7.9796  -18.4690   20.8669 C   0  0  1  0  0  0  0  0  0  0  0  0
    7.0167  -18.8344   19.9267 O   0  0  0  0  0  0  0  0  0  0  0  0
    7.7381  -16.9823   21.1611 C   0  0  2  0  0  0  0  0  0  0  0  0
    7.8908  -16.2849   19.9240 N   0  0  0  0  0  0  0  0  0  0  0  0
    8.5824  -16.4982   22.2499 C   0  0  0  0  0  0  0  0  0  0  0  0
    9.7628  -16.1582   21.9882 O   0  0  0  0  0  0  0  0  0  0  0  0
    8.1706  -16.3786   23.6024 N   0  0  0  0  0  0  0  0  0  0  0  0
    9.0727  -15.8068   24.5805 C   0  0  1  0  0  0  0  0  0  0  0  0
    8.3500  -15.1152   25.7064 C   0  0  0  0  0  0  0  0  0  0  0  0
    7.3974  -13.7482   24.9822 S   0  0  0  0  0  0  0  0  0  0  0  0
    9.9209  -16.8789   25.1956 C   0  0  0  0  0  0  0  0  0  0  0  0
   10.9113  -16.5021   26.0844 O   0  0  0  0  0  0  0  0  0  0  0  0
    9.7335  -18.0720   24.9099 O   0  0  0  0  0  0  0  0  0  0  0  0
  2  1  1  6
  3  2  1  0
  4  2  1  0
  4  5  1  1
  4  6  1  0
  6  7  2  0
  9  8  1  1
  9 10  1  0
  9 11  1  0
 11 13  1  0
 12  6  1  0
 11 12  1  6
 13 15  1  0
 13 14  2  0
 15 16  1  0
 16 19  1  0
 16 17  1  1
 18 17  1  0
 19 20  1  0
 21 19  2  0
M  END
$$$$
