TTC.pdb
     RDKit          3D

 21 20  0  0  1  0  0  0  0  0999 V2000
    8.9561  -13.5435   18.9650 C   0  0  0  0  0  0  0  0  0  0  0  0
    8.6670  -13.7893   20.4353 C   0  0  1  0  0  0  0  0  0  0  0  0
    8.1890  -12.5907   20.9623 O   0  0  0  0  0  0  0  0  0  0  0  0
    7.5980  -14.8499   20.5899 C   0  0  2  0  0  0  0  0  0  0  0  0
    6.4094  -14.3472   19.9315 N   0  0  0  0  0  0  0  0  0  0  0  0
    7.2714  -15.1047   22.0112 C   0  0  0  0  0  0  0  0  0  0  0  0
    6.2971  -14.5595   22.5889 O   0  0  0  0  0  0  0  0  0  0  0  0
    6.4884  -18.2687   23.3626 C   0  0  0  0  0  0  0  0  0  0  0  0
    7.6562  -17.8398   24.2229 C   0  0  1  0  0  0  0  0  0  0  0  0
    8.8115  -18.4055   23.6843 O   0  0  0  0  0  0  0  0  0  0  0  0
    7.8597  -16.3203   24.1536 C   0  0  2  0  0  0  0  0  0  0  0  0
    8.0672  -15.9922   22.7791 N   0  0  0  0  0  0  0  0  0  0  0  0
    8.9120  -15.8697   25.0606 C   0  0  0  0  0  0  0  0  0  0  0  0
    9.9436  -15.3475   24.5704 O   0  0  0  0  0  0  0  0  0  0  0  0
    8.8626  -15.9756   26.4746 N   0  0  0  0  0  0  0  0  0  0  0  0
    9.8492  -15.2881   27.2816 C   0  0  1  0  0  0  0  0  0  0  0  0
    9.3094  -14.0361   27.9217 C   0  0  0  0  0  0  0  0  0  0  0  0
   10.6323  -13.3398   28.9540 S   0  0  0  0  0  0  0  0  0  0  0  0
   10.3264  -16.1776   28.3899 C   0  0  0  0  0  0  0  0  0  0  0  0
    9.6264  -17.3433   28.6426 O   0  0  0  0  0  0  0  0  0  0  0  0
   11.3250  -15.8694   29.0594 O   0  0  0  0  0  0  0  0  0  0  0  0
  2  1  1  6
  3  2  1  0
  4  2  1  0
  4  5  1  6
  4  6  1  0
  6  7  2  0
  9  8  1  6
  9 10  1  0
  9 11  1  0
 11 13  1  0
 12  6  1  0
 11 12  1  6
 13 15  1  0
 13 14  2  0
 15 16  1  0
 16 19  1  0
 16 17  1  1
 18 17  1  0
 19 20  1  0
 21 19  2  0
M  END
$$$$
