TTC.pdb
     RDKit          3D

 21 20  0  0  1  0  0  0  0  0999 V2000
   10.9213  -14.2422   20.4501 C   0  0  0  0  0  0  0  0  0  0  0  0
    9.9750  -13.4294   19.5843 C   0  0  1  0  0  0  0  0  0  0  0  0
   10.5136  -13.4106   18.2988 O   0  0  0  0  0  0  0  0  0  0  0  0
    8.6136  -14.0892   19.5323 C   0  0  2  0  0  0  0  0  0  0  0  0
    7.7726  -13.2516   18.7016 N   0  0  0  0  0  0  0  0  0  0  0  0
    7.9940  -14.1885   20.8731 C   0  0  0  0  0  0  0  0  0  0  0  0
    7.4939  -13.1966   21.4615 O   0  0  0  0  0  0  0  0  0  0  0  0
    6.4669  -17.5310   24.2567 C   0  0  0  0  0  0  0  0  0  0  0  0
    7.1447  -17.1837   22.9499 C   0  0  1  0  0  0  0  0  0  0  0  0
    6.2792  -17.5367   21.9149 O   0  0  0  0  0  0  0  0  0  0  0  0
    7.3535  -15.6684   22.8259 C   0  0  2  0  0  0  0  0  0  0  0  0
    7.9460  -15.4350   21.5475 N   0  0  0  0  0  0  0  0  0  0  0  0
    8.0989  -15.1267   23.9589 C   0  0  0  0  0  0  0  0  0  0  0  0
    9.3521  -15.2081   23.9468 O   0  0  0  0  0  0  0  0  0  0  0  0
    7.5122  -14.5054   25.0916 N   0  0  0  0  0  0  0  0  0  0  0  0
    8.3592  -13.8998   26.0983 C   0  0  1  0  0  0  0  0  0  0  0  0
    7.7732  -12.6356   26.6700 C   0  0  0  0  0  0  0  0  0  0  0  0
    6.0046  -12.9372   26.9556 S   0  0  0  0  0  0  0  0  0  0  0  0
    8.5649  -14.8457   27.2430 C   0  0  0  0  0  0  0  0  0  0  0  0
    9.4906  -14.5087   28.2137 O   0  0  0  0  0  0  0  0  0  0  0  0
    7.9176  -15.9023   27.3112 O   0  0  0  0  0  0  0  0  0  0  0  0
  2  1  1  1
  3  2  1  0
  4  2  1  0
  4  5  1  6
  4  6  1  0
  6  7  2  0
  9  8  1  1
  9 10  1  0
  9 11  1  0
 11 13  1  0
 12  6  1  0
 11 12  1  6
 13 15  1  0
 13 14  2  0
 15 16  1  0
 16 19  1  0
 16 17  1  1
 18 17  1  0
 19 20  1  0
 21 19  2  0
M  END
$$$$
