TTC.pdb
     RDKit          3D

 21 20  0  0  1  0  0  0  0  0999 V2000
    8.3062  -19.3121   17.6061 C   0  0  0  0  0  0  0  0  0  0  0  0
    9.3232  -18.8193   16.5919 C   0  0  1  0  0  0  0  0  0  0  0  0
    9.0851  -19.5127   15.4064 O   0  0  0  0  0  0  0  0  0  0  0  0
    9.1351  -17.3392   16.3365 C   0  0  2  0  0  0  0  0  0  0  0  0
   10.0245  -16.9843   15.2494 N   0  0  0  0  0  0  0  0  0  0  0  0
    9.4938  -16.5227   17.5182 C   0  0  0  0  0  0  0  0  0  0  0  0
   10.6824  -16.3669   17.8963 O   0  0  0  0  0  0  0  0  0  0  0  0
    7.6500  -13.2985   20.8348 C   0  0  0  0  0  0  0  0  0  0  0  0
    7.4610  -14.2356   19.6626 C   0  0  1  0  0  0  0  0  0  0  0  0
    7.3844  -13.4599   18.5062 O   0  0  0  0  0  0  0  0  0  0  0  0
    8.6863  -15.1416   19.4815 C   0  0  2  0  0  0  0  0  0  0  0  0
    8.4825  -15.8780   18.2748 N   0  0  0  0  0  0  0  0  0  0  0  0
    8.9405  -15.9574   20.6659 C   0  0  0  0  0  0  0  0  0  0  0  0
    8.4952  -17.1313   20.6927 O   0  0  0  0  0  0  0  0  0  0  0  0
    9.6620  -15.5239   21.8081 N   0  0  0  0  0  0  0  0  0  0  0  0
    9.9769  -16.4681   22.8601 C   0  0  1  0  0  0  0  0  0  0  0  0
   11.3048  -17.1486   22.6549 C   0  0  0  0  0  0  0  0  0  0  0  0
   12.5779  -15.8533   22.6103 S   0  0  0  0  0  0  0  0  0  0  0  0
   10.0414  -15.7691   24.1847 C   0  0  0  0  0  0  0  0  0  0  0  0
   10.2285  -16.5343   25.3215 O   0  0  0  0  0  0  0  0  0  0  0  0
    9.9288  -14.5350   24.2518 O   0  0  0  0  0  0  0  0  0  0  0  0
  2  1  1  1
  3  2  1  0
  4  2  1  0
  4  5  1  6
  4  6  1  0
  6  7  2  0
  9  8  1  1
  9 10  1  0
  9 11  1  0
 11 13  1  0
 12  6  1  0
 11 12  1  6
 13 15  1  0
 13 14  2  0
 15 16  1  0
 16 19  1  0
 16 17  1  6
 18 17  1  0
 19 20  1  0
 21 19  2  0
M  END
$$$$
