TTC.pdb
     RDKit          3D

 21 20  0  0  1  0  0  0  0  0999 V2000
    8.9229  -12.3928   20.3242 C   0  0  0  0  0  0  0  0  0  0  0  0
    8.1590  -13.2890   19.3656 C   0  0  1  0  0  0  0  0  0  0  0  0
    8.3595  -12.7792   18.0839 O   0  0  0  0  0  0  0  0  0  0  0  0
    8.7039  -14.7002   19.4192 C   0  0  2  0  0  0  0  0  0  0  0  0
    8.0271  -15.4513   18.3815 N   0  0  0  0  0  0  0  0  0  0  0  0
    8.4302  -15.3513   20.7202 C   0  0  0  0  0  0  0  0  0  0  0  0
    7.2682  -15.6506   21.0948 O   0  0  0  0  0  0  0  0  0  0  0  0
    9.5874  -18.5119   21.6241 C   0  0  0  0  0  0  0  0  0  0  0  0
   10.1495  -17.6522   22.7345 C   0  0  1  0  0  0  0  0  0  0  0  0
   11.4507  -17.2969   22.3801 O   0  0  0  0  0  0  0  0  0  0  0  0
    9.3716  -16.3349   22.8557 C   0  0  2  0  0  0  0  0  0  0  0  0
    9.4965  -15.6630   21.6015 N   0  0  0  0  0  0  0  0  0  0  0  0
    9.7953  -15.5568   24.0167 C   0  0  0  0  0  0  0  0  0  0  0  0
   10.7326  -14.7327   23.8771 O   0  0  0  0  0  0  0  0  0  0  0  0
    9.2243  -15.6581   25.3116 N   0  0  0  0  0  0  0  0  0  0  0  0
    9.7506  -14.8527   26.3941 C   0  0  1  0  0  0  0  0  0  0  0  0
    8.6871  -14.0451   27.0908 C   0  0  0  0  0  0  0  0  0  0  0  0
    9.4997  -13.1052   28.4162 S   0  0  0  0  0  0  0  0  0  0  0  0
   10.3882  -15.7274   27.4312 C   0  0  0  0  0  0  0  0  0  0  0  0
   11.2279  -15.1388   28.3593 O   0  0  0  0  0  0  0  0  0  0  0  0
   10.1636  -16.9478   27.4505 O   0  0  0  0  0  0  0  0  0  0  0  0
  2  1  1  1
  3  2  1  0
  4  2  1  0
  4  5  1  6
  4  6  1  0
  6  7  2  0
  9  8  1  6
  9 10  1  0
  9 11  1  0
 11 13  1  0
 12  6  1  0
 11 12  1  6
 13 15  1  0
 13 14  2  0
 15 16  1  0
 16 19  1  0
 16 17  1  1
 18 17  1  0
 19 20  1  0
 21 19  2  0
M  END
$$$$
