TTC.pdb
     RDKit          3D

 21 20  0  0  1  0  0  0  0  0999 V2000
    8.4274  -12.4343   19.9669 C   0  0  0  0  0  0  0  0  0  0  0  0
    8.0617  -13.4911   18.9397 C   0  0  1  0  0  0  0  0  0  0  0  0
    8.7658  -13.1885   17.7754 O   0  0  0  0  0  0  0  0  0  0  0  0
    8.4856  -14.8616   19.4229 C   0  0  2  0  0  0  0  0  0  0  0  0
    8.1441  -15.8008   18.3739 N   0  0  0  0  0  0  0  0  0  0  0  0
    7.7709  -15.2601   20.6566 C   0  0  0  0  0  0  0  0  0  0  0  0
    6.5324  -15.4739   20.6810 O   0  0  0  0  0  0  0  0  0  0  0  0
    9.5568  -17.4828   23.6293 C   0  0  0  0  0  0  0  0  0  0  0  0
    8.0908  -17.1543   23.4533 C   0  0  1  0  0  0  0  0  0  0  0  0
    7.4537  -17.3869   24.6718 O   0  0  0  0  0  0  0  0  0  0  0  0
    7.8952  -15.6619   23.1540 C   0  0  2  0  0  0  0  0  0  0  0  0
    8.4803  -15.4156   21.8745 N   0  0  0  0  0  0  0  0  0  0  0  0
    8.3992  -14.8188   24.2348 C   0  0  0  0  0  0  0  0  0  0  0  0
    9.6303  -14.5750   24.2813 O   0  0  0  0  0  0  0  0  0  0  0  0
    7.5973  -14.2431   25.2539 N   0  0  0  0  0  0  0  0  0  0  0  0
    8.2137  -13.4230   26.2762 C   0  0  1  0  0  0  0  0  0  0  0  0
    7.3071  -12.3260   26.7692 C   0  0  0  0  0  0  0  0  0  0  0  0
    5.6039  -12.9535   26.6932 S   0  0  0  0  0  0  0  0  0  0  0  0
    8.5778  -14.2601   27.4654 C   0  0  0  0  0  0  0  0  0  0  0  0
    9.3039  -13.6708   28.4843 O   0  0  0  0  0  0  0  0  0  0  0  0
    8.2329  -15.4506   27.5271 O   0  0  0  0  0  0  0  0  0  0  0  0
  2  1  1  1
  3  2  1  0
  4  2  1  0
  4  5  1  6
  4  6  1  0
  6  7  2  0
  9  8  1  1
  9 10  1  0
  9 11  1  0
 11 13  1  0
 12  6  1  0
 11 12  1  6
 13 15  1  0
 13 14  2  0
 15 16  1  0
 16 19  1  0
 16 17  1  1
 18 17  1  0
 19 20  1  0
 21 19  2  0
M  END
$$$$
