TTC.pdb
     RDKit          3D

 21 20  0  0  1  0  0  0  0  0999 V2000
   -2.7153  -20.1942   24.5945 C   0  0  0  0  0  0  0  0  0  0  0  0
   -2.1614  -21.1971   23.5980 C   0  0  1  0  0  0  0  0  0  0  0  0
   -1.1620  -20.5455   22.8771 O   0  0  0  0  0  0  0  0  0  0  0  0
   -1.5485  -22.3752   24.3245 C   0  0  2  0  0  0  0  0  0  0  0  0
   -0.9593  -23.2308   23.3148 N   0  0  0  0  0  0  0  0  0  0  0  0
   -2.5630  -23.1585   25.0653 C   0  0  0  0  0  0  0  0  0  0  0  0
   -3.3065  -24.0029   24.5048 O   0  0  0  0  0  0  0  0  0  0  0  0
   -4.0219  -25.0252   29.2974 C   0  0  0  0  0  0  0  0  0  0  0  0
   -3.0259  -24.3739   28.3637 C   0  0  1  0  0  0  0  0  0  0  0  0
   -2.3326  -25.3895   27.7059 O   0  0  0  0  0  0  0  0  0  0  0  0
   -3.7432  -23.5751   27.2671 C   0  0  2  0  0  0  0  0  0  0  0  0
   -2.7286  -22.9738   26.4615 N   0  0  0  0  0  0  0  0  0  0  0  0
   -4.7216  -22.6441   27.8228 C   0  0  0  0  0  0  0  0  0  0  0  0
   -4.3095  -21.6937   28.5328 O   0  0  0  0  0  0  0  0  0  0  0  0
   -6.1237  -22.7275   27.6222 N   0  0  0  0  0  0  0  0  0  0  0  0
   -6.9964  -21.7451   28.2311 C   0  0  1  0  0  0  0  0  0  0  0  0
   -8.2840  -21.5587   27.4722 C   0  0  0  0  0  0  0  0  0  0  0  0
   -7.8528  -20.9865   25.8027 S   0  0  0  0  0  0  0  0  0  0  0  0
   -7.3633  -22.1659   29.6223 C   0  0  0  0  0  0  0  0  0  0  0  0
   -7.8850  -21.2139   30.4792 O   0  0  0  0  0  0  0  0  0  0  0  0
   -7.2001  -23.3403   29.9889 O   0  0  0  0  0  0  0  0  0  0  0  0
  2  1  1  1
  3  2  1  0
  4  2  1  0
  4  5  1  6
  4  6  1  0
  6  7  2  0
  9  8  1  1
  9 10  1  0
  9 11  1  0
 11 13  1  0
 12  6  1  0
 11 12  1  1
 13 15  1  0
 13 14  2  0
 15 16  1  0
 16 19  1  0
 16 17  1  6
 18 17  1  0
 19 20  1  0
 21 19  2  0
M  END
$$$$
