TTC.pdb
     RDKit          3D

 21 20  0  0  1  0  0  0  0  0999 V2000
   -2.8359  -26.9814   27.1324 C   0  0  0  0  0  0  0  0  0  0  0  0
   -1.8659  -26.1473   26.3144 C   0  0  1  0  0  0  0  0  0  0  0  0
   -0.8082  -26.9832   25.9601 O   0  0  0  0  0  0  0  0  0  0  0  0
   -2.5369  -25.6493   25.0521 C   0  0  2  0  0  0  0  0  0  0  0  0
   -1.5024  -25.0464   24.2365 N   0  0  0  0  0  0  0  0  0  0  0  0
   -3.5633  -24.6216   25.3383 C   0  0  0  0  0  0  0  0  0  0  0  0
   -3.2743  -23.4140   25.5342 O   0  0  0  0  0  0  0  0  0  0  0  0
   -6.7377  -24.2825   23.3044 C   0  0  0  0  0  0  0  0  0  0  0  0
   -7.1611  -24.4506   24.7468 C   0  0  1  0  0  0  0  0  0  0  0  0
   -7.4261  -25.8035   24.9573 O   0  0  0  0  0  0  0  0  0  0  0  0
   -6.0134  -24.0929   25.7007 C   0  0  2  0  0  0  0  0  0  0  0  0
   -4.9341  -24.9791   25.4011 N   0  0  0  0  0  0  0  0  0  0  0  0
   -6.4440  -24.0956   27.0962 C   0  0  0  0  0  0  0  0  0  0  0  0
   -6.4809  -25.1903   27.7106 O   0  0  0  0  0  0  0  0  0  0  0  0
   -6.8305  -22.9424   27.8267 N   0  0  0  0  0  0  0  0  0  0  0  0
   -7.2103  -23.0672   29.2187 C   0  0  1  0  0  0  0  0  0  0  0  0
   -6.0535  -22.8567   30.1600 C   0  0  0  0  0  0  0  0  0  0  0  0
   -6.7200  -22.8641   31.8500 S   0  0  0  0  0  0  0  0  0  0  0  0
   -8.2519  -22.0471   29.5675 C   0  0  0  0  0  0  0  0  0  0  0  0
   -8.9580  -22.2075   30.7459 O   0  0  0  0  0  0  0  0  0  0  0  0
   -8.4698  -21.0859   28.8133 O   0  0  0  0  0  0  0  0  0  0  0  0
  2  1  1  1
  3  2  1  0
  4  2  1  0
  4  5  1  6
  4  6  1  0
  6  7  2  0
  9  8  1  6
  9 10  1  0
  9 11  1  0
 11 13  1  0
 12  6  1  0
 11 12  1  1
 13 15  1  0
 13 14  2  0
 15 16  1  0
 16 19  1  0
 16 17  1  1
 18 17  1  0
 19 20  1  0
 21 19  2  0
M  END
$$$$
