YSC.pdb
     RDKit          3D

 25 25  0  0  1  0  0  0  0  0999 V2000
    5.0412  -10.2202   26.5647 O   0  0  0  0  0  0  0  0  0  0  0  0
    5.8383  -11.3410   26.3237 C   0  0  0  0  0  0  0  0  0  0  0  0
    5.8951  -12.3681   27.2417 C   0  0  0  0  0  0  0  0  0  0  0  0
    6.6767  -13.4833   27.0217 C   0  0  0  0  0  0  0  0  0  0  0  0
    7.4368  -13.6226   25.8743 C   0  0  0  0  0  0  0  0  0  0  0  0
    8.2757  -14.8302   25.6480 C   0  0  0  0  0  0  0  0  0  0  0  0
    7.5169  -15.7711   24.7761 C   0  0  2  0  0  0  0  0  0  0  0  0
    6.4506  -16.3700   25.5218 N   0  0  0  0  0  0  0  0  0  0  0  0
    8.3682  -16.7622   24.0887 C   0  0  0  0  0  0  0  0  0  0  0  0
    8.5034  -17.8881   24.6621 O   0  0  0  0  0  0  0  0  0  0  0  0
    7.3729  -12.5890   24.9618 C   0  0  0  0  0  0  0  0  0  0  0  0
    6.5924  -11.4698   25.1763 C   0  0  0  0  0  0  0  0  0  0  0  0
   11.0544  -15.8722   21.0219 O   0  0  0  0  0  0  0  0  0  0  0  0
   10.5136  -17.1483   21.0285 C   0  0  0  0  0  0  0  0  0  0  0  0
    9.9838  -17.5329   22.4071 C   0  0  2  0  0  0  0  0  0  0  0  0
    9.0238  -16.5438   22.8679 N   0  0  0  0  0  0  0  0  0  0  0  0
   11.1244  -17.6486   23.3578 C   0  0  0  0  0  0  0  0  0  0  0  0
   11.6355  -16.6019   23.8892 O   0  0  0  0  0  0  0  0  0  0  0  0
   11.7236  -18.8718   23.7468 N   0  0  0  0  0  0  0  0  0  0  0  0
   12.8937  -18.9126   24.6304 C   0  0  1  0  0  0  0  0  0  0  0  0
   12.5425  -19.6158   25.9316 C   0  0  0  0  0  0  0  0  0  0  0  0
   11.2826  -18.7428   26.8568 S   0  0  0  0  0  0  0  0  0  0  0  0
   14.0422  -19.5432   23.9717 C   0  0  0  0  0  0  0  0  0  0  0  0
   13.9466  -19.9766   22.8015 O   0  0  0  0  0  0  0  0  0  0  0  0
   15.2367  -19.6637   24.6360 O   0  0  0  0  0  0  0  0  0  0  0  0
  2  1  1  0
  3  2  2  0
  4  5  2  0
  4  3  1  0
  5 11  1  0
  6  5  1  0
  6  7  1  0
  7  9  1  0
  7  8  1  1
  9 10  2  0
 11 12  2  0
 12  2  1  0
 13 14  1  0
 15 14  1  6
 16 15  1  0
 16  9  1  0
 17 19  1  0
 17 15  1  0
 18 17  2  0
 20 19  1  0
 20 21  1  1
 21 22  1  0
 23 25  1  0
 23 20  1  0
 24 23  2  0
M  END
$$$$
