YSC.pdb
     RDKit          3D

 25 25  0  0  1  0  0  0  0  0999 V2000
    4.9154  -11.1622   28.2384 O   0  0  0  0  0  0  0  0  0  0  0  0
    5.7554  -11.9554   27.4543 C   0  0  0  0  0  0  0  0  0  0  0  0
    5.3404  -12.4022   26.2178 C   0  0  0  0  0  0  0  0  0  0  0  0
    6.1558  -13.1867   25.4286 C   0  0  0  0  0  0  0  0  0  0  0  0
    7.4228  -13.5603   25.8396 C   0  0  0  0  0  0  0  0  0  0  0  0
    8.2931  -14.4065   24.9796 C   0  0  0  0  0  0  0  0  0  0  0  0
    7.5279  -15.6263   24.5950 C   0  0  2  0  0  0  0  0  0  0  0  0
    7.3337  -16.4590   25.7441 N   0  0  0  0  0  0  0  0  0  0  0  0
    8.1053  -16.3526   23.4467 C   0  0  0  0  0  0  0  0  0  0  0  0
    8.8555  -17.3411   23.7204 O   0  0  0  0  0  0  0  0  0  0  0  0
    7.8287  -13.1079   27.0788 C   0  0  0  0  0  0  0  0  0  0  0  0
    7.0169  -12.3222   27.8735 C   0  0  0  0  0  0  0  0  0  0  0  0
    7.9371  -15.2440   19.3385 O   0  0  0  0  0  0  0  0  0  0  0  0
    7.9072  -16.5761   19.7201 C   0  0  0  0  0  0  0  0  0  0  0  0
    8.5728  -16.7930   21.0762 C   0  0  2  0  0  0  0  0  0  0  0  0
    7.8827  -16.0271   22.1005 N   0  0  0  0  0  0  0  0  0  0  0  0
   10.0053  -16.3945   20.9903 C   0  0  0  0  0  0  0  0  0  0  0  0
   10.3845  -15.2425   21.4004 O   0  0  0  0  0  0  0  0  0  0  0  0
   11.0367  -17.2154   20.4715 N   0  0  0  0  0  0  0  0  0  0  0  0
   12.3854  -17.2188   21.0481 C   0  0  1  0  0  0  0  0  0  0  0  0
   12.3128  -17.4566   22.5478 C   0  0  0  0  0  0  0  0  0  0  0  0
   13.2005  -16.2098   23.4768 S   0  0  0  0  0  0  0  0  0  0  0  0
   13.2485  -18.2043   20.3889 C   0  0  0  0  0  0  0  0  0  0  0  0
   12.8953  -19.4015   20.2989 O   0  0  0  0  0  0  0  0  0  0  0  0
   14.4562  -17.8199   19.8631 O   0  0  0  0  0  0  0  0  0  0  0  0
  2  1  1  0
  3  2  2  0
  4  5  2  0
  4  3  1  0
  5 11  1  0
  6  5  1  0
  6  7  1  0
  7  9  1  0
  7  8  1  1
  9 10  2  0
 11 12  2  0
 12  2  1  0
 13 14  1  0
 15 14  1  6
 16 15  1  0
 16  9  1  0
 17 19  1  0
 17 15  1  0
 18 17  2  0
 20 19  1  0
 20 21  1  1
 21 22  1  0
 23 25  1  0
 23 20  1  0
 24 23  2  0
M  END
$$$$
