YSC.pdb
     RDKit          3D

 25 25  0  0  1  0  0  0  0  0999 V2000
    8.3970  -13.6019   16.5298 O   0  0  0  0  0  0  0  0  0  0  0  0
    8.2319  -13.8532   17.8933 C   0  0  0  0  0  0  0  0  0  0  0  0
    7.6094  -12.9277   18.7038 C   0  0  0  0  0  0  0  0  0  0  0  0
    7.4370  -13.1577   20.0530 C   0  0  0  0  0  0  0  0  0  0  0  0
    7.8789  -14.3231   20.6533 C   0  0  0  0  0  0  0  0  0  0  0  0
    7.6870  -14.5600   22.1094 C   0  0  0  0  0  0  0  0  0  0  0  0
    7.2920  -15.9838   22.3044 C   0  0  2  0  0  0  0  0  0  0  0  0
    5.9181  -16.1599   21.9400 N   0  0  0  0  0  0  0  0  0  0  0  0
    7.6045  -16.5086   23.6485 C   0  0  0  0  0  0  0  0  0  0  0  0
    6.7636  -16.2532   24.5663 O   0  0  0  0  0  0  0  0  0  0  0  0
    8.5006  -15.2430   19.8334 C   0  0  0  0  0  0  0  0  0  0  0  0
    8.6762  -15.0185   18.4819 C   0  0  0  0  0  0  0  0  0  0  0  0
   10.9009  -18.8928   24.6524 O   0  0  0  0  0  0  0  0  0  0  0  0
    9.7464  -18.9514   25.4171 C   0  0  0  0  0  0  0  0  0  0  0  0
    8.9568  -17.6469   25.3536 C   0  0  2  0  0  0  0  0  0  0  0  0
    8.7475  -17.2558   23.9696 N   0  0  0  0  0  0  0  0  0  0  0  0
    9.6942  -16.5888   26.0984 C   0  0  0  0  0  0  0  0  0  0  0  0
   10.6338  -15.9299   25.5307 O   0  0  0  0  0  0  0  0  0  0  0  0
    9.4368  -16.2271   27.4436 N   0  0  0  0  0  0  0  0  0  0  0  0
   10.2995  -15.2897   28.1705 C   0  0  1  0  0  0  0  0  0  0  0  0
    9.5213  -14.0346   28.5314 C   0  0  0  0  0  0  0  0  0  0  0  0
    8.7740  -13.2635   27.0987 S   0  0  0  0  0  0  0  0  0  0  0  0
   10.8915  -15.9148   29.3576 C   0  0  0  0  0  0  0  0  0  0  0  0
   10.5947  -17.0886   29.6745 O   0  0  0  0  0  0  0  0  0  0  0  0
   11.7799  -15.2147   30.1344 O   0  0  0  0  0  0  0  0  0  0  0  0
  2  1  1  0
  3  2  2  0
  4  5  2  0
  4  3  1  0
  5 11  1  0
  6  5  1  0
  6  7  1  0
  7  9  1  0
  7  8  1  1
  9 10  2  0
 11 12  2  0
 12  2  1  0
 13 14  1  0
 15 14  1  6
 16 15  1  0
 16  9  1  0
 17 19  1  0
 17 15  1  0
 18 17  2  0
 20 19  1  0
 20 21  1  1
 21 22  1  0
 23 25  1  0
 23 20  1  0
 24 23  2  0
M  END
$$$$
