YSC.pdb
     RDKit          3D

 25 25  0  0  1  0  0  0  0  0999 V2000
    5.2302  -10.6735   28.1042 O   0  0  0  0  0  0  0  0  0  0  0  0
    5.9530  -11.6256   27.3825 C   0  0  0  0  0  0  0  0  0  0  0  0
    7.0611  -12.2294   27.9378 C   0  0  0  0  0  0  0  0  0  0  0  0
    7.7882  -13.1722   27.2407 C   0  0  0  0  0  0  0  0  0  0  0  0
    7.4406  -13.5540   25.9573 C   0  0  0  0  0  0  0  0  0  0  0  0
    8.2323  -14.5720   25.2157 C   0  0  0  0  0  0  0  0  0  0  0  0
    7.2850  -15.5375   24.5898 C   0  0  2  0  0  0  0  0  0  0  0  0
    6.7762  -16.4323   25.5858 N   0  0  0  0  0  0  0  0  0  0  0  0
    7.8398  -16.2374   23.4143 C   0  0  0  0  0  0  0  0  0  0  0  0
    8.3360  -17.3887   23.6221 O   0  0  0  0  0  0  0  0  0  0  0  0
    6.3298  -12.9437   25.4107 C   0  0  0  0  0  0  0  0  0  0  0  0
    5.5979  -11.9992   26.1035 C   0  0  0  0  0  0  0  0  0  0  0  0
    7.1493  -15.2270   19.6407 O   0  0  0  0  0  0  0  0  0  0  0  0
    8.4191  -15.7749   19.7335 C   0  0  0  0  0  0  0  0  0  0  0  0
    8.6756  -16.3830   21.1095 C   0  0  2  0  0  0  0  0  0  0  0  0
    7.8537  -15.7224   22.1096 N   0  0  0  0  0  0  0  0  0  0  0  0
   10.1217  -16.2549   21.4421 C   0  0  0  0  0  0  0  0  0  0  0  0
   10.6414  -15.1029   21.6465 O   0  0  0  0  0  0  0  0  0  0  0  0
   11.0176  -17.3459   21.5594 N   0  0  0  0  0  0  0  0  0  0  0  0
   12.3950  -17.1675   22.0310 C   0  0  1  0  0  0  0  0  0  0  0  0
   12.3970  -16.7258   23.4857 C   0  0  0  0  0  0  0  0  0  0  0  0
   11.5275  -17.8769   24.5461 S   0  0  0  0  0  0  0  0  0  0  0  0
   13.1905  -18.3842   21.8378 C   0  0  0  0  0  0  0  0  0  0  0  0
   12.6597  -19.4296   21.3998 O   0  0  0  0  0  0  0  0  0  0  0  0
   14.5296  -18.3866   22.1370 O   0  0  0  0  0  0  0  0  0  0  0  0
  2  1  1  0
  3  2  2  0
  4  5  2  0
  4  3  1  0
  5 11  1  0
  6  5  1  0
  6  7  1  0
  7  9  1  0
  7  8  1  1
  9 10  2  0
 11 12  2  0
 12  2  1  0
 13 14  1  0
 15 14  1  6
 16 15  1  0
 16  9  1  0
 17 19  1  0
 17 15  1  0
 18 17  2  0
 20 19  1  0
 20 21  1  1
 21 22  1  0
 23 25  1  0
 23 20  1  0
 24 23  2  0
M  END
$$$$
