YSC.pdb
     RDKit          3D

 25 25  0  0  1  0  0  0  0  0999 V2000
    6.5420  -21.5904   29.6994 O   0  0  0  0  0  0  0  0  0  0  0  0
    7.3350  -20.9330   28.7567 C   0  0  0  0  0  0  0  0  0  0  0  0
    6.7690  -20.0499   27.8619 C   0  0  0  0  0  0  0  0  0  0  0  0
    7.5357  -19.3909   26.9233 C   0  0  0  0  0  0  0  0  0  0  0  0
    8.9027  -19.5847   26.8365 C   0  0  0  0  0  0  0  0  0  0  0  0
    9.7191  -18.8681   25.8201 C   0  0  0  0  0  0  0  0  0  0  0  0
    9.2306  -19.2580   24.4670 C   0  0  2  0  0  0  0  0  0  0  0  0
    9.1834  -20.6856   24.3615 N   0  0  0  0  0  0  0  0  0  0  0  0
    9.9730  -18.6217   23.3609 C   0  0  0  0  0  0  0  0  0  0  0  0
   10.6172  -19.3993   22.5894 O   0  0  0  0  0  0  0  0  0  0  0  0
    9.4594  -20.4706   27.7366 C   0  0  0  0  0  0  0  0  0  0  0  0
    8.6972  -21.1334   28.6787 C   0  0  0  0  0  0  0  0  0  0  0  0
    9.4647  -14.8540   21.7807 O   0  0  0  0  0  0  0  0  0  0  0  0
   10.1981  -15.8315   21.1267 C   0  0  0  0  0  0  0  0  0  0  0  0
   10.9334  -16.7406   22.1075 C   0  0  2  0  0  0  0  0  0  0  0  0
   10.0114  -17.2415   23.1130 N   0  0  0  0  0  0  0  0  0  0  0  0
   12.0480  -15.9821   22.7403 C   0  0  0  0  0  0  0  0  0  0  0  0
   11.8661  -15.3617   23.8453 O   0  0  0  0  0  0  0  0  0  0  0  0
   13.3554  -15.8809   22.2043 N   0  0  0  0  0  0  0  0  0  0  0  0
   14.5426  -15.8428   23.0649 C   0  0  1  0  0  0  0  0  0  0  0  0
   14.5358  -17.0266   24.0186 C   0  0  0  0  0  0  0  0  0  0  0  0
   13.9258  -16.5863   25.6433 S   0  0  0  0  0  0  0  0  0  0  0  0
   15.7772  -15.7963   22.2748 C   0  0  0  0  0  0  0  0  0  0  0  0
   15.7709  -16.1125   21.0639 O   0  0  0  0  0  0  0  0  0  0  0  0
   16.9549  -15.4038   22.8594 O   0  0  0  0  0  0  0  0  0  0  0  0
  2  1  1  0
  3  2  2  0
  4  5  2  0
  4  3  1  0
  5 11  1  0
  6  5  1  0
  6  7  1  0
  7  9  1  0
  7  8  1  6
  9 10  2  0
 11 12  2  0
 12  2  1  0
 13 14  1  0
 15 14  1  6
 16 15  1  0
 16  9  1  0
 17 19  1  0
 17 15  1  0
 18 17  2  0
 20 19  1  0
 20 21  1  6
 21 22  1  0
 23 25  1  0
 23 20  1  0
 24 23  2  0
M  END
$$$$
