YSC.pdb
     RDKit          3D

 25 25  0  0  1  0  0  0  0  0999 V2000
   18.1313  -17.2167    9.4551 O   0  0  0  0  0  0  0  0  0  0  0  0
   17.6993  -16.6663   10.6635 C   0  0  0  0  0  0  0  0  0  0  0  0
   17.5029  -17.4700   11.7664 C   0  0  0  0  0  0  0  0  0  0  0  0
   17.0764  -16.9450   12.9687 C   0  0  0  0  0  0  0  0  0  0  0  0
   16.8268  -15.5931   13.1231 C   0  0  0  0  0  0  0  0  0  0  0  0
   16.3674  -15.0385   14.4249 C   0  0  0  0  0  0  0  0  0  0  0  0
   14.9518  -15.4534   14.6374 C   0  0  2  0  0  0  0  0  0  0  0  0
   14.1014  -14.7677   13.7110 N   0  0  0  0  0  0  0  0  0  0  0  0
   14.4996  -15.3286   16.0372 C   0  0  0  0  0  0  0  0  0  0  0  0
   14.3143  -14.1483   16.4700 O   0  0  0  0  0  0  0  0  0  0  0  0
   17.0265  -14.7974   12.0132 C   0  0  0  0  0  0  0  0  0  0  0  0
   17.4534  -15.3170   10.8067 C   0  0  0  0  0  0  0  0  0  0  0  0
   12.3496  -18.0726   17.9993 O   0  0  0  0  0  0  0  0  0  0  0  0
   12.3829  -16.7521   18.4190 C   0  0  0  0  0  0  0  0  0  0  0  0
   13.7666  -16.1340   18.2385 C   0  0  2  0  0  0  0  0  0  0  0  0
   14.2666  -16.4084   16.9018 N   0  0  0  0  0  0  0  0  0  0  0  0
   14.6884  -16.6810   19.2726 C   0  0  0  0  0  0  0  0  0  0  0  0
   15.5022  -17.6258   18.9827 O   0  0  0  0  0  0  0  0  0  0  0  0
   14.7496  -16.2275   20.6133 N   0  0  0  0  0  0  0  0  0  0  0  0
   15.6400  -16.8490   21.5994 C   0  0  1  0  0  0  0  0  0  0  0  0
   16.2905  -15.7808   22.4636 C   0  0  0  0  0  0  0  0  0  0  0  0
   17.2735  -14.6345   21.5016 S   0  0  0  0  0  0  0  0  0  0  0  0
   14.9303  -17.8406   22.4139 C   0  0  0  0  0  0  0  0  0  0  0  0
   13.6908  -17.9798   22.3114 O   0  0  0  0  0  0  0  0  0  0  0  0
   15.6226  -18.6277   23.2993 O   0  0  0  0  0  0  0  0  0  0  0  0
  2  1  1  0
  3  2  2  0
  4  5  2  0
  4  3  1  0
  5 11  1  0
  6  5  1  0
  6  7  1  0
  7  9  1  0
  7  8  1  6
  9 10  2  0
 11 12  2  0
 12  2  1  0
 13 14  1  0
 15 14  1  6
 16 15  1  0
 16  9  1  0
 17 19  1  0
 17 15  1  0
 18 17  2  0
 20 19  1  0
 20 21  1  1
 21 22  1  0
 23 25  1  0
 23 20  1  0
 24 23  2  0
M  END
$$$$
