YSC.pdb
     RDKit          3D

 25 25  0  0  1  0  0  0  0  0999 V2000
   15.2000  -19.7405   13.1452 O   0  0  0  0  0  0  0  0  0  0  0  0
   14.6926  -20.0767   14.4018 C   0  0  0  0  0  0  0  0  0  0  0  0
   15.5311  -20.1662   15.4926 C   0  0  0  0  0  0  0  0  0  0  0  0
   15.0487  -20.4970   16.7420 C   0  0  0  0  0  0  0  0  0  0  0  0
   13.7065  -20.7534   16.9577 C   0  0  0  0  0  0  0  0  0  0  0  0
   13.1980  -21.1090   18.3098 C   0  0  0  0  0  0  0  0  0  0  0  0
   13.4239  -22.5661   18.5271 C   0  0  2  0  0  0  0  0  0  0  0  0
   12.5468  -23.3234   17.6851 N   0  0  0  0  0  0  0  0  0  0  0  0
   13.3572  -22.9731   19.9446 C   0  0  0  0  0  0  0  0  0  0  0  0
   12.1968  -23.1682   20.4243 O   0  0  0  0  0  0  0  0  0  0  0  0
   12.8757  -20.6612   15.8595 C   0  0  0  0  0  0  0  0  0  0  0  0
   13.3526  -20.3304   14.6061 C   0  0  0  0  0  0  0  0  0  0  0  0
   16.5397  -24.3957   22.1802 O   0  0  0  0  0  0  0  0  0  0  0  0
   15.2302  -24.7483   22.4663 C   0  0  0  0  0  0  0  0  0  0  0  0
   14.2544  -23.6221   22.1368 C   0  0  2  0  0  0  0  0  0  0  0  0
   14.4709  -23.1540   20.7781 N   0  0  0  0  0  0  0  0  0  0  0  0
   14.4340  -22.5136   23.1150 C   0  0  0  0  0  0  0  0  0  0  0  0
   15.2320  -21.5454   22.8600 O   0  0  0  0  0  0  0  0  0  0  0  0
   13.7686  -22.4289   24.3627 N   0  0  0  0  0  0  0  0  0  0  0  0
   14.0248  -21.3321   25.3023 C   0  0  1  0  0  0  0  0  0  0  0  0
   12.8210  -21.1269   26.2078 C   0  0  0  0  0  0  0  0  0  0  0  0
   11.4229  -20.4316   25.3317 S   0  0  0  0  0  0  0  0  0  0  0  0
   15.2474  -21.5642   26.0781 C   0  0  0  0  0  0  0  0  0  0  0  0
   15.7524  -22.7074   26.1445 O   0  0  0  0  0  0  0  0  0  0  0  0
   15.8506  -20.5251   26.7407 O   0  0  0  0  0  0  0  0  0  0  0  0
  2  1  1  0
  3  2  2  0
  4  5  2  0
  4  3  1  0
  5 11  1  0
  6  5  1  0
  6  7  1  0
  7  9  1  0
  7  8  1  6
  9 10  2  0
 11 12  2  0
 12  2  1  0
 13 14  1  0
 15 14  1  1
 16 15  1  0
 16  9  1  0
 17 19  1  0
 17 15  1  0
 18 17  2  0
 20 19  1  0
 20 21  1  1
 21 22  1  0
 23 25  1  0
 23 20  1  0
 24 23  2  0
M  END
$$$$
