YSC.pdb
     RDKit          3D

 25 25  0  0  1  0  0  0  0  0999 V2000
    6.0185  -12.3400   17.5578 O   0  0  0  0  0  0  0  0  0  0  0  0
    6.8158  -13.0367   18.4681 C   0  0  0  0  0  0  0  0  0  0  0  0
    6.3095  -13.4147   19.6935 C   0  0  0  0  0  0  0  0  0  0  0  0
    7.0814  -14.1034   20.6062 C   0  0  0  0  0  0  0  0  0  0  0  0
    8.3941  -14.4455   20.3354 C   0  0  0  0  0  0  0  0  0  0  0  0
    9.2167  -15.1887   21.3275 C   0  0  0  0  0  0  0  0  0  0  0  0
    9.4086  -16.5800   20.8289 C   0  0  2  0  0  0  0  0  0  0  0  0
    8.1750  -17.3020   20.9199 N   0  0  0  0  0  0  0  0  0  0  0  0
   10.5395  -17.2874   21.4614 C   0  0  0  0  0  0  0  0  0  0  0  0
   10.3190  -17.8034   22.6016 O   0  0  0  0  0  0  0  0  0  0  0  0
    8.8913  -14.0626   19.1061 C   0  0  0  0  0  0  0  0  0  0  0  0
    8.1235  -13.3729   18.1881 C   0  0  0  0  0  0  0  0  0  0  0  0
   14.2512  -17.9722   19.6819 O   0  0  0  0  0  0  0  0  0  0  0  0
   13.7592  -18.8757   20.6106 C   0  0  0  0  0  0  0  0  0  0  0  0
   12.8115  -18.2090   21.6040 C   0  0  2  0  0  0  0  0  0  0  0  0
   11.8157  -17.4229   20.8951 N   0  0  0  0  0  0  0  0  0  0  0  0
   13.5979  -17.3538   22.5359 C   0  0  0  0  0  0  0  0  0  0  0  0
   13.6804  -16.0906   22.3447 O   0  0  0  0  0  0  0  0  0  0  0  0
   14.2961  -17.8351   23.6706 N   0  0  0  0  0  0  0  0  0  0  0  0
   15.0352  -16.9350   24.5623 C   0  0  1  0  0  0  0  0  0  0  0  0
   14.8729  -17.3802   26.0068 C   0  0  0  0  0  0  0  0  0  0  0  0
   13.2405  -17.0215   26.6487 S   0  0  0  0  0  0  0  0  0  0  0  0
   16.4490  -16.8454   24.1832 C   0  0  0  0  0  0  0  0  0  0  0  0
   16.9363  -17.6400   23.3482 O   0  0  0  0  0  0  0  0  0  0  0  0
   17.2529  -15.8850   24.7436 O   0  0  0  0  0  0  0  0  0  0  0  0
  2  1  1  0
  3  2  2  0
  4  5  2  0
  4  3  1  0
  5 11  1  0
  6  5  1  0
  6  7  1  0
  7  9  1  0
  7  8  1  1
  9 10  2  0
 11 12  2  0
 12  2  1  0
 13 14  1  0
 15 14  1  6
 16 15  1  0
 16  9  1  0
 17 19  1  0
 17 15  1  0
 18 17  2  0
 20 19  1  0
 20 21  1  1
 21 22  1  0
 23 25  1  0
 23 20  1  0
 24 23  2  0
M  END
$$$$
