QCG.pdb
     RDKit          3D

 20 19  0  0  1  0  0  0  0  0999 V2000
   14.3126  -16.1189   14.8219 N   0  0  0  0  0  0  0  0  0  0  0  0
   13.3752  -17.1532   14.4667 C   0  0  0  0  0  0  0  0  0  0  0  0
   13.4225  -17.5471   13.2929 O   0  0  0  0  0  0  0  0  0  0  0  0
   12.4303  -17.6917   15.4534 C   0  0  0  0  0  0  0  0  0  0  0  0
   12.5872  -17.1477   16.8306 C   0  0  0  0  0  0  0  0  0  0  0  0
   11.3025  -16.8340   17.5505 C   0  0  2  0  0  0  0  0  0  0  0  0
   10.5570  -15.9417   16.6585 N   0  0  0  0  0  0  0  0  0  0  0  0
   11.5732  -16.1866   18.8455 C   0  0  0  0  0  0  0  0  0  0  0  0
   12.0370  -15.0217   18.8793 O   0  0  0  0  0  0  0  0  0  0  0  0
   11.3325  -16.8235   20.1017 N   0  0  0  0  0  0  0  0  0  0  0  0
   11.6680  -16.1403   21.3350 C   0  0  1  0  0  0  0  0  0  0  0  0
   10.4137  -16.1167   22.1826 C   0  0  0  0  0  0  0  0  0  0  0  0
   10.8482  -15.3607   23.7741 S   0  0  0  0  0  0  0  0  0  0  0  0
   12.8003  -16.7868   22.0379 C   0  0  0  0  0  0  0  0  0  0  0  0
   12.7833  -18.0423   22.1120 O   0  0  0  0  0  0  0  0  0  0  0  0
   13.8806  -16.1006   22.6212 N   0  0  0  0  0  0  0  0  0  0  0  0
   14.9757  -16.7241   23.3033 C   0  0  0  0  0  0  0  0  0  0  0  0
   15.9224  -15.7551   23.8948 C   0  0  0  0  0  0  0  0  0  0  0  0
   15.9901  -15.7031   25.1470 O   0  0  0  0  0  0  0  0  0  0  0  0
   16.7278  -14.9131   23.1683 O   0  0  0  0  0  0  0  0  0  0  0  0
  2  1  1  0
  3  2  2  0
  4  2  1  0
  5  4  1  0
  6  5  1  0
  6  7  1  6
  8  6  1  0
  8 10  1  0
  9  8  2  0
 11 10  1  0
 11 14  1  0
 11 12  1  1
 13 12  1  0
 14 15  2  0
 14 16  1  0
 16 17  1  0
 18 17  1  0
 18 20  1  0
 19 18  2  0
M  END
$$$$
