QCG.pdb
     RDKit          3D

 20 19  0  0  1  0  0  0  0  0999 V2000
    4.9776  -18.9720   23.2337 N   0  0  0  0  0  0  0  0  0  0  0  0
    4.8879  -19.2240   21.8184 C   0  0  0  0  0  0  0  0  0  0  0  0
    3.9095  -19.8876   21.4475 O   0  0  0  0  0  0  0  0  0  0  0  0
    5.9068  -18.7151   20.8915 C   0  0  0  0  0  0  0  0  0  0  0  0
    6.9643  -17.8786   21.5232 C   0  0  0  0  0  0  0  0  0  0  0  0
    6.8062  -16.3924   21.3408 C   0  0  2  0  0  0  0  0  0  0  0  0
    7.1963  -16.1204   19.9545 N   0  0  0  0  0  0  0  0  0  0  0  0
    7.6599  -15.6552   22.2878 C   0  0  0  0  0  0  0  0  0  0  0  0
    8.7984  -15.2660   21.9336 O   0  0  0  0  0  0  0  0  0  0  0  0
    7.2582  -15.3478   23.6241 N   0  0  0  0  0  0  0  0  0  0  0  0
    8.1889  -14.7032   24.5290 C   0  0  1  0  0  0  0  0  0  0  0  0
    7.3632  -13.9337   25.5380 C   0  0  0  0  0  0  0  0  0  0  0  0
    6.5895  -12.5461   24.6612 S   0  0  0  0  0  0  0  0  0  0  0  0
    9.0948  -15.6771   25.1808 C   0  0  0  0  0  0  0  0  0  0  0  0
    8.6774  -16.2295   26.2310 O   0  0  0  0  0  0  0  0  0  0  0  0
   10.3747  -16.0223   24.7112 N   0  0  0  0  0  0  0  0  0  0  0  0
   11.2582  -16.9534   25.3483 C   0  0  0  0  0  0  0  0  0  0  0  0
   12.6649  -16.8118   24.9166 C   0  0  0  0  0  0  0  0  0  0  0  0
   12.9069  -15.9999   23.9906 O   0  0  0  0  0  0  0  0  0  0  0  0
   13.7179  -17.5062   25.4592 O   0  0  0  0  0  0  0  0  0  0  0  0
  2  1  1  0
  3  2  2  0
  4  2  1  0
  5  4  1  0
  6  5  1  0
  6  7  1  6
  8  6  1  0
  8 10  1  0
  9  8  2  0
 11 10  1  0
 11 14  1  0
 11 12  1  1
 13 12  1  0
 14 15  2  0
 14 16  1  0
 16 17  1  0
 18 17  1  0
 18 20  1  0
 19 18  2  0
M  END
$$$$
