QCG.pdb
     RDKit          3D

 20 19  0  0  1  0  0  0  0  0999 V2000
   -1.4458  -22.7338   21.8201 N   0  0  0  0  0  0  0  0  0  0  0  0
   -1.1031  -24.1245   21.9725 C   0  0  0  0  0  0  0  0  0  0  0  0
   -0.5252  -24.6484   21.0098 O   0  0  0  0  0  0  0  0  0  0  0  0
   -1.4300  -24.8556   23.2034 C   0  0  0  0  0  0  0  0  0  0  0  0
   -2.1104  -24.0442   24.2501 C   0  0  0  0  0  0  0  0  0  0  0  0
   -3.4988  -24.4973   24.6166 C   0  0  2  0  0  0  0  0  0  0  0  0
   -4.2351  -24.5778   23.3520 N   0  0  0  0  0  0  0  0  0  0  0  0
   -4.1335  -23.5429   25.5416 C   0  0  0  0  0  0  0  0  0  0  0  0
   -3.6689  -23.3852   26.6960 O   0  0  0  0  0  0  0  0  0  0  0  0
   -5.2793  -22.7635   25.1937 N   0  0  0  0  0  0  0  0  0  0  0  0
   -5.8086  -21.7959   26.1339 C   0  0  1  0  0  0  0  0  0  0  0  0
   -6.1459  -20.5497   25.3431 C   0  0  0  0  0  0  0  0  0  0  0  0
   -4.5790  -19.7902   24.8323 S   0  0  0  0  0  0  0  0  0  0  0  0
   -6.9823  -22.3207   26.8695 C   0  0  0  0  0  0  0  0  0  0  0  0
   -7.8897  -22.8594   26.1851 O   0  0  0  0  0  0  0  0  0  0  0  0
   -7.1494  -22.2584   28.2646 N   0  0  0  0  0  0  0  0  0  0  0  0
   -8.2263  -22.8654   28.9892 C   0  0  0  0  0  0  0  0  0  0  0  0
   -8.0914  -22.7320   30.4552 C   0  0  0  0  0  0  0  0  0  0  0  0
   -9.0279  -23.1732   31.1649 O   0  0  0  0  0  0  0  0  0  0  0  0
   -7.0150  -22.1603   31.0877 O   0  0  0  0  0  0  0  0  0  0  0  0
  2  1  1  0
  3  2  2  0
  4  2  1  0
  5  4  1  0
  6  5  1  0
  6  7  1  6
  8  6  1  0
  8 10  1  0
  9  8  2  0
 11 10  1  0
 11 14  1  0
 11 12  1  6
 13 12  1  0
 14 15  2  0
 14 16  1  0
 16 17  1  0
 18 17  1  0
 18 20  1  0
 19 18  2  0
M  END
$$$$
