QCG.pdb
     RDKit          3D

 20 19  0  0  1  0  0  0  0  0999 V2000
   11.3492  -22.4940   28.3497 N   0  0  0  0  0  0  0  0  0  0  0  0
   11.7223  -22.1549   29.6990 C   0  0  0  0  0  0  0  0  0  0  0  0
   12.2486  -23.0615   30.3594 O   0  0  0  0  0  0  0  0  0  0  0  0
   11.4826  -20.8096   30.2366 C   0  0  0  0  0  0  0  0  0  0  0  0
   10.8057  -19.8728   29.2978 C   0  0  0  0  0  0  0  0  0  0  0  0
   10.6431  -18.4624   29.7991 C   0  0  2  0  0  0  0  0  0  0  0  0
    9.8968  -18.5729   31.0555 N   0  0  0  0  0  0  0  0  0  0  0  0
    9.9147  -17.6394   28.8185 C   0  0  0  0  0  0  0  0  0  0  0  0
    8.6929  -17.4063   28.9800 O   0  0  0  0  0  0  0  0  0  0  0  0
   10.5335  -17.0741   27.6613 N   0  0  0  0  0  0  0  0  0  0  0  0
    9.7439  -16.3008   26.7238 C   0  0  1  0  0  0  0  0  0  0  0  0
    9.1646  -15.1321   27.4922 C   0  0  0  0  0  0  0  0  0  0  0  0
   10.5566  -14.1719   28.1506 S   0  0  0  0  0  0  0  0  0  0  0  0
   10.5430  -15.8569   25.5582 C   0  0  0  0  0  0  0  0  0  0  0  0
   11.7205  -15.4777   25.7855 O   0  0  0  0  0  0  0  0  0  0  0  0
   10.0803  -15.8308   24.2303 N   0  0  0  0  0  0  0  0  0  0  0  0
   10.8549  -15.4106   23.1004 C   0  0  0  0  0  0  0  0  0  0  0  0
   11.7490  -16.4669   22.5807 C   0  0  0  0  0  0  0  0  0  0  0  0
   12.3159  -17.2092   23.4192 O   0  0  0  0  0  0  0  0  0  0  0  0
   11.9984  -16.6880   21.2487 O   0  0  0  0  0  0  0  0  0  0  0  0
  2  1  1  0
  3  2  2  0
  4  2  1  0
  5  4  1  0
  6  5  1  0
  6  7  1  1
  8  6  1  0
  8 10  1  0
  9  8  2  0
 11 10  1  0
 11 14  1  0
 11 12  1  1
 13 12  1  0
 14 15  2  0
 14 16  1  0
 16 17  1  0
 18 17  1  0
 18 20  1  0
 19 18  2  0
M  END
$$$$
