QCG.pdb
     RDKit          3D

 20 19  0  0  1  0  0  0  0  0999 V2000
    8.4412  -18.4482   17.4927 N   0  0  0  0  0  0  0  0  0  0  0  0
    7.7085  -17.4717   16.7283 C   0  0  0  0  0  0  0  0  0  0  0  0
    7.4564  -17.7806   15.5551 O   0  0  0  0  0  0  0  0  0  0  0  0
    7.2968  -16.1948   17.3252 C   0  0  0  0  0  0  0  0  0  0  0  0
    7.7619  -15.9796   18.7231 C   0  0  0  0  0  0  0  0  0  0  0  0
    7.1544  -14.7975   19.4305 C   0  0  2  0  0  0  0  0  0  0  0  0
    6.9525  -13.7787   18.3964 N   0  0  0  0  0  0  0  0  0  0  0  0
    8.0489  -14.3069   20.4928 C   0  0  0  0  0  0  0  0  0  0  0  0
    8.7168  -13.2600   20.3162 O   0  0  0  0  0  0  0  0  0  0  0  0
    8.2066  -14.9705   21.7483 N   0  0  0  0  0  0  0  0  0  0  0  0
    8.8934  -14.3047   22.8371 C   0  0  1  0  0  0  0  0  0  0  0  0
    8.0994  -13.0577   23.1639 C   0  0  0  0  0  0  0  0  0  0  0  0
    6.6941  -13.5637   24.1946 S   0  0  0  0  0  0  0  0  0  0  0  0
    9.0511  -15.1868   24.0165 C   0  0  0  0  0  0  0  0  0  0  0  0
    8.2986  -14.9643   24.9995 O   0  0  0  0  0  0  0  0  0  0  0  0
    9.9741  -16.2438   24.1112 N   0  0  0  0  0  0  0  0  0  0  0  0
   11.1729  -16.2176   24.8958 C   0  0  0  0  0  0  0  0  0  0  0  0
   11.8874  -17.5115   24.9128 C   0  0  0  0  0  0  0  0  0  0  0  0
   12.3964  -17.8770   26.0003 O   0  0  0  0  0  0  0  0  0  0  0  0
   12.0298  -18.3350   23.8233 O   0  0  0  0  0  0  0  0  0  0  0  0
  2  1  1  0
  3  2  2  0
  4  2  1  0
  5  4  1  0
  6  5  1  0
  6  7  1  6
  8  6  1  0
  8 10  1  0
  9  8  2  0
 11 10  1  0
 11 14  1  0
 11 12  1  1
 13 12  1  0
 14 15  2  0
 14 16  1  0
 16 17  1  0
 18 17  1  0
 18 20  1  0
 19 18  2  0
M  END
$$$$
