QCG.pdb
     RDKit          3D

 20 19  0  0  1  0  0  0  0  0999 V2000
    8.9883  -20.9867   27.7819 N   0  0  0  0  0  0  0  0  0  0  0  0
    8.4480  -19.7691   28.3301 C   0  0  0  0  0  0  0  0  0  0  0  0
    9.2293  -19.0872   29.0082 O   0  0  0  0  0  0  0  0  0  0  0  0
    7.0528  -19.3814   28.0863 C   0  0  0  0  0  0  0  0  0  0  0  0
    6.7908  -18.8048   26.7388 C   0  0  0  0  0  0  0  0  0  0  0  0
    7.8079  -17.8051   26.2558 C   0  0  2  0  0  0  0  0  0  0  0  0
    8.3514  -17.1787   27.4641 N   0  0  0  0  0  0  0  0  0  0  0  0
    7.1812  -16.8053   25.3744 C   0  0  0  0  0  0  0  0  0  0  0  0
    6.4757  -17.1773   24.4063 O   0  0  0  0  0  0  0  0  0  0  0  0
    7.3325  -15.3968   25.5606 N   0  0  0  0  0  0  0  0  0  0  0  0
    6.9167  -14.4804   24.5177 C   0  0  1  0  0  0  0  0  0  0  0  0
    6.5490  -13.1773   25.1950 C   0  0  0  0  0  0  0  0  0  0  0  0
    5.2700  -13.5482   26.4278 S   0  0  0  0  0  0  0  0  0  0  0  0
    7.9673  -14.2944   23.4903 C   0  0  0  0  0  0  0  0  0  0  0  0
    9.1391  -14.0967   23.9025 O   0  0  0  0  0  0  0  0  0  0  0  0
    7.7467  -14.3232   22.1016 N   0  0  0  0  0  0  0  0  0  0  0  0
    8.7499  -14.0835   21.1069 C   0  0  0  0  0  0  0  0  0  0  0  0
    9.5341  -15.2895   20.7667 C   0  0  0  0  0  0  0  0  0  0  0  0
    9.7726  -16.1043   21.6912 O   0  0  0  0  0  0  0  0  0  0  0  0
   10.0158  -15.5752   19.5130 O   0  0  0  0  0  0  0  0  0  0  0  0
  2  1  1  0
  3  2  2  0
  4  2  1  0
  5  4  1  0
  6  5  1  0
  6  7  1  1
  8  6  1  0
  8 10  1  0
  9  8  2  0
 11 10  1  0
 11 14  1  0
 11 12  1  1
 13 12  1  0
 14 15  2  0
 14 16  1  0
 16 17  1  0
 18 17  1  0
 18 20  1  0
 19 18  2  0
M  END
$$$$
