QCG.pdb
     RDKit          3D

 20 19  0  0  1  0  0  0  0  0999 V2000
    8.5990  -19.1685   15.6244 N   0  0  0  0  0  0  0  0  0  0  0  0
    7.4281  -19.7250   16.2521 C   0  0  0  0  0  0  0  0  0  0  0  0
    6.7538  -20.4951   15.5540 O   0  0  0  0  0  0  0  0  0  0  0  0
    7.0757  -19.3848   17.6364 C   0  0  0  0  0  0  0  0  0  0  0  0
    7.9947  -18.4160   18.2952 C   0  0  0  0  0  0  0  0  0  0  0  0
    8.2625  -18.6709   19.7548 C   0  0  2  0  0  0  0  0  0  0  0  0
    6.9585  -18.9803   20.3479 N   0  0  0  0  0  0  0  0  0  0  0  0
    8.8685  -17.4882   20.3898 C   0  0  0  0  0  0  0  0  0  0  0  0
    9.9914  -17.0787   20.0098 O   0  0  0  0  0  0  0  0  0  0  0  0
    8.2364  -16.7581   21.4430 N   0  0  0  0  0  0  0  0  0  0  0  0
    8.9155  -15.6313   22.0508 C   0  0  1  0  0  0  0  0  0  0  0  0
    7.8540  -14.7831   22.7185 C   0  0  0  0  0  0  0  0  0  0  0  0
    6.6119  -14.3774   21.4592 S   0  0  0  0  0  0  0  0  0  0  0  0
    9.9623  -16.0629   23.0058 C   0  0  0  0  0  0  0  0  0  0  0  0
    9.5720  -16.5625   24.0921 O   0  0  0  0  0  0  0  0  0  0  0  0
   11.3467  -15.9534   22.7833 N   0  0  0  0  0  0  0  0  0  0  0  0
   12.3607  -16.3592   23.7109 C   0  0  0  0  0  0  0  0  0  0  0  0
   13.7325  -16.0905   23.2301 C   0  0  0  0  0  0  0  0  0  0  0  0
   13.8623  -15.6803   22.0510 O   0  0  0  0  0  0  0  0  0  0  0  0
   14.8674  -16.2593   23.9845 O   0  0  0  0  0  0  0  0  0  0  0  0
  2  1  1  0
  3  2  2  0
  4  2  1  0
  5  4  1  0
  6  5  1  0
  6  7  1  1
  8  6  1  0
  8 10  1  0
  9  8  2  0
 11 10  1  0
 11 14  1  0
 11 12  1  1
 13 12  1  0
 14 15  2  0
 14 16  1  0
 16 17  1  0
 18 17  1  0
 18 20  1  0
 19 18  2  0
M  END
$$$$
