QCG.pdb
     RDKit          3D

 20 19  0  0  1  0  0  0  0  0999 V2000
    8.8795  -16.8882   18.1098 N   0  0  0  0  0  0  0  0  0  0  0  0
    7.5687  -16.3401   17.8725 C   0  0  0  0  0  0  0  0  0  0  0  0
    6.8943  -16.9072   17.0015 O   0  0  0  0  0  0  0  0  0  0  0  0
    7.0839  -15.1790   18.6295 C   0  0  0  0  0  0  0  0  0  0  0  0
    8.0496  -14.6330   19.6227 C   0  0  0  0  0  0  0  0  0  0  0  0
    7.5497  -13.4684   20.4358 C   0  0  2  0  0  0  0  0  0  0  0  0
    8.1036  -12.2722   19.7953 N   0  0  0  0  0  0  0  0  0  0  0  0
    7.9960  -13.5773   21.8351 C   0  0  0  0  0  0  0  0  0  0  0  0
    9.2112  -13.4474   22.1176 O   0  0  0  0  0  0  0  0  0  0  0  0
    7.1029  -13.8293   22.9216 N   0  0  0  0  0  0  0  0  0  0  0  0
    7.6243  -13.9881   24.2645 C   0  0  1  0  0  0  0  0  0  0  0  0
    6.5375  -13.5365   25.2169 C   0  0  0  0  0  0  0  0  0  0  0  0
    6.5176  -11.7221   25.1968 S   0  0  0  0  0  0  0  0  0  0  0  0
    8.0536  -15.3802   24.5328 C   0  0  0  0  0  0  0  0  0  0  0  0
    7.1514  -16.2551   24.5838 O   0  0  0  0  0  0  0  0  0  0  0  0
    9.3855  -15.7856   24.7319 N   0  0  0  0  0  0  0  0  0  0  0  0
    9.7997  -17.1264   25.0215 C   0  0  0  0  0  0  0  0  0  0  0  0
   11.2572  -17.2540   25.2327 C   0  0  0  0  0  0  0  0  0  0  0  0
   11.9609  -16.2321   25.0430 O   0  0  0  0  0  0  0  0  0  0  0  0
   11.8879  -18.4104   25.6204 O   0  0  0  0  0  0  0  0  0  0  0  0
  2  1  1  0
  3  2  2  0
  4  2  1  0
  5  4  1  0
  6  5  1  0
  6  7  1  6
  8  6  1  0
  8 10  1  0
  9  8  2  0
 11 10  1  0
 11 14  1  0
 11 12  1  1
 13 12  1  0
 14 15  2  0
 14 16  1  0
 16 17  1  0
 18 17  1  0
 18 20  1  0
 19 18  2  0
M  END
$$$$
