EHD.pdb
     RDKit          3D

 28 28  0  0  1  0  0  0  0  0999 V2000
    9.6786  -18.9804   17.5060 N   0  0  0  0  0  0  0  0  0  0  0  0
   10.3777  -17.8915   16.8049 C   0  0  1  0  0  0  0  0  0  0  0  0
    9.4375  -17.3704   15.7724 C   0  0  0  0  0  0  0  0  0  0  0  0
   10.0413  -16.4569   14.7637 C   0  0  0  0  0  0  0  0  0  0  0  0
   10.2598  -17.0451   13.4440 C   0  0  0  0  0  0  0  0  0  0  0  0
    9.3351  -17.1172   12.5992 O   0  0  0  0  0  0  0  0  0  0  0  0
   10.7660  -16.8659   17.8063 C   0  0  0  0  0  0  0  0  0  0  0  0
   11.6191  -15.9932   17.5251 O   0  0  0  0  0  0  0  0  0  0  0  0
   11.5043  -17.5403   13.0942 O   0  0  0  0  0  0  0  0  0  0  0  0
   10.1894  -16.8291   19.1230 N   0  0  0  0  0  0  0  0  0  0  0  0
   10.6623  -15.8823   20.0748 C   0  0  1  0  0  0  0  0  0  0  0  0
    9.6095  -15.1633   20.8310 C   0  0  0  0  0  0  0  0  0  0  0  0
    8.7900  -14.2036   20.1053 C   0  0  0  0  0  0  0  0  0  0  0  0
    8.8210  -13.8064   18.7994 C   0  0  0  0  0  0  0  0  0  0  0  0
    7.8333  -12.8941   18.5381 N   0  0  0  0  0  0  0  0  0  0  0  0
    7.2059  -12.7494   19.7110 C   0  0  0  0  0  0  0  0  0  0  0  0
    7.7436  -13.5056   20.6534 N   0  0  0  0  0  0  0  0  0  0  0  0
   11.6772  -16.4622   20.9963 C   0  0  0  0  0  0  0  0  0  0  0  0
   11.6655  -17.6919   21.1796 O   0  0  0  0  0  0  0  0  0  0  0  0
   12.6280  -15.6551   21.6477 N   0  0  0  0  0  0  0  0  0  0  0  0
   13.7076  -16.2788   22.4286 C   0  0  1  0  0  0  0  0  0  0  0  0
   14.9749  -15.5005   22.2753 C   0  0  0  0  0  0  0  0  0  0  0  0
   16.1186  -16.0596   23.0263 C   0  0  0  0  0  0  0  0  0  0  0  0
   16.3151  -17.2889   23.1736 O   0  0  0  0  0  0  0  0  0  0  0  0
   13.3082  -16.3521   23.8482 C   0  0  0  0  0  0  0  0  0  0  0  0
   13.9489  -17.1199   24.7878 O   0  0  0  0  0  0  0  0  0  0  0  0
   17.0428  -15.2034   23.6120 O   0  0  0  0  0  0  0  0  0  0  0  0
   12.3134  -15.6672   24.2280 O   0  0  0  0  0  0  0  0  0  0  0  0
  2  1  1  1
  2  3  1  0
  4  3  1  0
  5  4  1  0
  6  5  2  0
  7  2  1  0
  7  8  2  0
  9  5  1  0
 10  7  1  0
 11 10  1  0
 11 12  1  1
 12 13  1  0
 13 17  1  0
 14 13  2  0
 14 15  1  0
 15 16  1  0
 17 16  2  0
 18 11  1  0
 19 18  2  0
 20 18  1  0
 21 20  1  0
 21 22  1  1
 23 22  1  0
 24 23  2  0
 25 21  1  0
 26 25  1  0
 27 23  1  0
 28 25  2  0
M  END
$$$$
