EHD.pdb
     RDKit          3D

 28 28  0  0  1  0  0  0  0  0999 V2000
   12.1539  -15.9370   12.6502 N   0  0  0  0  0  0  0  0  0  0  0  0
   11.3955  -16.7405   13.6224 C   0  0  1  0  0  0  0  0  0  0  0  0
   12.1409  -18.0190   13.7993 C   0  0  0  0  0  0  0  0  0  0  0  0
   13.6247  -17.9009   13.7700 C   0  0  0  0  0  0  0  0  0  0  0  0
   14.3514  -19.1639   13.8807 C   0  0  0  0  0  0  0  0  0  0  0  0
   14.9078  -19.5063   14.9517 O   0  0  0  0  0  0  0  0  0  0  0  0
   11.2760  -15.9599   14.8801 C   0  0  0  0  0  0  0  0  0  0  0  0
   12.2431  -15.2876   15.3059 O   0  0  0  0  0  0  0  0  0  0  0  0
   14.4423  -20.0181   12.7951 O   0  0  0  0  0  0  0  0  0  0  0  0
   10.0640  -15.9409   15.6536 N   0  0  0  0  0  0  0  0  0  0  0  0
   10.0096  -15.1917   16.8626 C   0  0  1  0  0  0  0  0  0  0  0  0
    8.6742  -15.1152   17.5015 C   0  0  0  0  0  0  0  0  0  0  0  0
    8.4956  -14.1600   18.5854 C   0  0  0  0  0  0  0  0  0  0  0  0
    9.3828  -13.3181   19.1922 C   0  0  0  0  0  0  0  0  0  0  0  0
    8.7670  -12.5647   20.1563 N   0  0  0  0  0  0  0  0  0  0  0  0
    7.4918  -12.9678   20.1187 C   0  0  0  0  0  0  0  0  0  0  0  0
    7.2986  -13.9050   19.2056 N   0  0  0  0  0  0  0  0  0  0  0  0
   11.0446  -15.6197   17.8429 C   0  0  0  0  0  0  0  0  0  0  0  0
   11.3645  -16.8210   17.8683 O   0  0  0  0  0  0  0  0  0  0  0  0
   11.6518  -14.7034   18.7211 N   0  0  0  0  0  0  0  0  0  0  0  0
   12.7037  -15.1584   19.6435 C   0  0  1  0  0  0  0  0  0  0  0  0
   13.8516  -14.2005   19.6344 C   0  0  0  0  0  0  0  0  0  0  0  0
   14.9976  -14.6272   20.4645 C   0  0  0  0  0  0  0  0  0  0  0  0
   15.3787  -15.8178   20.5582 O   0  0  0  0  0  0  0  0  0  0  0  0
   12.1427  -15.2884   21.0030 C   0  0  0  0  0  0  0  0  0  0  0  0
   10.8429  -14.9933   21.3292 O   0  0  0  0  0  0  0  0  0  0  0  0
   15.7111  -13.6825   21.1917 O   0  0  0  0  0  0  0  0  0  0  0  0
   12.9029  -15.6962   21.9297 O   0  0  0  0  0  0  0  0  0  0  0  0
  2  1  1  6
  2  3  1  0
  4  3  1  0
  5  4  1  0
  6  5  2  0
  7  2  1  0
  7  8  2  0
  9  5  1  0
 10  7  1  0
 11 10  1  0
 11 12  1  1
 12 13  1  0
 13 17  1  0
 14 13  2  0
 14 15  1  0
 15 16  1  0
 17 16  2  0
 18 11  1  0
 19 18  2  0
 20 18  1  0
 21 20  1  0
 21 22  1  1
 23 22  1  0
 24 23  2  0
 25 21  1  0
 26 25  1  0
 27 23  1  0
 28 25  2  0
M  END
$$$$
