EHD.pdb
     RDKit          3D

 28 28  0  0  1  0  0  0  0  0999 V2000
   10.7208  -16.1802   19.9070 N   0  0  0  0  0  0  0  0  0  0  0  0
    9.9396  -16.9295   20.9041 C   0  0  1  0  0  0  0  0  0  0  0  0
   10.6437  -18.2257   21.1174 C   0  0  0  0  0  0  0  0  0  0  0  0
   10.5736  -19.1837   19.9800 C   0  0  0  0  0  0  0  0  0  0  0  0
   10.1266  -20.5308   20.3282 C   0  0  0  0  0  0  0  0  0  0  0  0
   10.5996  -21.1413   21.3168 O   0  0  0  0  0  0  0  0  0  0  0  0
    9.8491  -16.1085   22.1383 C   0  0  0  0  0  0  0  0  0  0  0  0
   10.8682  -15.5539   22.6096 O   0  0  0  0  0  0  0  0  0  0  0  0
    9.1621  -21.1682   19.5669 O   0  0  0  0  0  0  0  0  0  0  0  0
    8.6070  -15.9163   22.8368 N   0  0  0  0  0  0  0  0  0  0  0  0
    8.5929  -15.2044   24.0693 C   0  0  1  0  0  0  0  0  0  0  0  0
    7.3056  -14.5537   24.4109 C   0  0  0  0  0  0  0  0  0  0  0  0
    7.2495  -13.7623   25.6314 C   0  0  0  0  0  0  0  0  0  0  0  0
    8.2105  -13.4763   26.5581 C   0  0  0  0  0  0  0  0  0  0  0  0
    7.7194  -12.6588   27.5413 N   0  0  0  0  0  0  0  0  0  0  0  0
    6.4445  -12.4568   27.1895 C   0  0  0  0  0  0  0  0  0  0  0  0
    6.1361  -13.0916   26.0709 N   0  0  0  0  0  0  0  0  0  0  0  0
    9.0915  -16.0264   25.2056 C   0  0  0  0  0  0  0  0  0  0  0  0
    8.5682  -17.1380   25.3969 O   0  0  0  0  0  0  0  0  0  0  0  0
   10.1239  -15.5721   26.0467 N   0  0  0  0  0  0  0  0  0  0  0  0
   10.6123  -16.4303   27.1372 C   0  0  1  0  0  0  0  0  0  0  0  0
   12.0978  -16.5787   27.0548 C   0  0  0  0  0  0  0  0  0  0  0  0
   12.5669  -17.2622   25.8310 C   0  0  0  0  0  0  0  0  0  0  0  0
   11.9002  -18.1354   25.2275 O   0  0  0  0  0  0  0  0  0  0  0  0
   10.2168  -15.8485   28.4353 C   0  0  0  0  0  0  0  0  0  0  0  0
   10.2332  -16.5364   29.6224 O   0  0  0  0  0  0  0  0  0  0  0  0
   13.8085  -16.9419   25.2962 O   0  0  0  0  0  0  0  0  0  0  0  0
    9.8375  -14.6408   28.4612 O   0  0  0  0  0  0  0  0  0  0  0  0
  2  1  1  6
  2  3  1  0
  4  3  1  0
  5  4  1  0
  6  5  2  0
  7  2  1  0
  7  8  2  0
  9  5  1  0
 10  7  1  0
 11 10  1  0
 11 12  1  1
 12 13  1  0
 13 17  1  0
 14 13  2  0
 14 15  1  0
 15 16  1  0
 17 16  2  0
 18 11  1  0
 19 18  2  0
 20 18  1  0
 21 20  1  0
 21 22  1  1
 23 22  1  0
 24 23  2  0
 25 21  1  0
 26 25  1  0
 27 23  1  0
 28 25  2  0
M  END
$$$$
