EHD.pdb
     RDKit          3D

 28 28  0  0  1  0  0  0  0  0999 V2000
   10.4926  -19.1075   17.5581 N   0  0  0  0  0  0  0  0  0  0  0  0
   11.3234  -17.8929   17.5812 C   0  0  1  0  0  0  0  0  0  0  0  0
   11.0680  -17.1719   16.3019 C   0  0  0  0  0  0  0  0  0  0  0  0
    9.6767  -17.2710   15.7814 C   0  0  0  0  0  0  0  0  0  0  0  0
    9.4384  -16.5905   14.5103 C   0  0  0  0  0  0  0  0  0  0  0  0
    9.6223  -15.3558   14.3853 O   0  0  0  0  0  0  0  0  0  0  0  0
   10.9530  -17.0974   18.7793 C   0  0  0  0  0  0  0  0  0  0  0  0
   11.5487  -16.0274   19.0414 O   0  0  0  0  0  0  0  0  0  0  0  0
    9.0002  -17.3008   13.4059 O   0  0  0  0  0  0  0  0  0  0  0  0
    9.9105  -17.5130   19.6782 N   0  0  0  0  0  0  0  0  0  0  0  0
    9.6351  -16.7440   20.8439 C   0  0  1  0  0  0  0  0  0  0  0  0
    8.3571  -15.9933   20.8208 C   0  0  0  0  0  0  0  0  0  0  0  0
    8.2593  -14.8501   19.9249 C   0  0  0  0  0  0  0  0  0  0  0  0
    9.1435  -14.3482   19.0137 C   0  0  0  0  0  0  0  0  0  0  0  0
    8.6172  -13.2652   18.3608 N   0  0  0  0  0  0  0  0  0  0  0  0
    7.3987  -13.1241   18.8952 C   0  0  0  0  0  0  0  0  0  0  0  0
    7.1568  -14.0402   19.8179 N   0  0  0  0  0  0  0  0  0  0  0  0
    9.7605  -17.5427   22.0936 C   0  0  0  0  0  0  0  0  0  0  0  0
    9.4378  -18.7428   22.0553 O   0  0  0  0  0  0  0  0  0  0  0  0
   10.2289  -16.9700   23.2904 N   0  0  0  0  0  0  0  0  0  0  0  0
   10.7742  -17.8313   24.3512 C   0  0  1  0  0  0  0  0  0  0  0  0
   12.0581  -18.4540   23.9049 C   0  0  0  0  0  0  0  0  0  0  0  0
   12.6846  -19.3310   24.9164 C   0  0  0  0  0  0  0  0  0  0  0  0
   13.5933  -18.9527   25.6926 O   0  0  0  0  0  0  0  0  0  0  0  0
   10.9790  -17.0326   25.5760 C   0  0  0  0  0  0  0  0  0  0  0  0
   10.5735  -17.4261   26.8264 O   0  0  0  0  0  0  0  0  0  0  0  0
   12.2662  -20.6502   25.0382 O   0  0  0  0  0  0  0  0  0  0  0  0
   11.5637  -15.9144   25.4727 O   0  0  0  0  0  0  0  0  0  0  0  0
  2  1  1  6
  2  3  1  0
  4  3  1  0
  5  4  1  0
  6  5  2  0
  7  2  1  0
  7  8  2  0
  9  5  1  0
 10  7  1  0
 11 10  1  0
 11 12  1  6
 12 13  1  0
 13 17  1  0
 14 13  2  0
 14 15  1  0
 15 16  1  0
 17 16  2  0
 18 11  1  0
 19 18  2  0
 20 18  1  0
 21 20  1  0
 21 22  1  6
 23 22  1  0
 24 23  2  0
 25 21  1  0
 26 25  1  0
 27 23  1  0
 28 25  2  0
M  END
$$$$
