EHD.pdb
     RDKit          3D

 28 28  0  0  1  0  0  0  0  0999 V2000
    9.6714  -18.7333   17.9778 N   0  0  0  0  0  0  0  0  0  0  0  0
   10.7965  -17.7927   17.8540 C   0  0  1  0  0  0  0  0  0  0  0  0
   10.6535  -17.1217   16.5309 C   0  0  0  0  0  0  0  0  0  0  0  0
    9.2677  -17.0698   15.9892 C   0  0  0  0  0  0  0  0  0  0  0  0
    9.1522  -16.5609   14.6242 C   0  0  0  0  0  0  0  0  0  0  0  0
   10.1569  -16.4482   13.8814 O   0  0  0  0  0  0  0  0  0  0  0  0
   10.7387  -16.8439   18.9949 C   0  0  0  0  0  0  0  0  0  0  0  0
   11.5441  -15.8877   19.0686 O   0  0  0  0  0  0  0  0  0  0  0  0
    7.9193  -16.1886   14.1166 O   0  0  0  0  0  0  0  0  0  0  0  0
    9.7707  -16.9778   20.0498 N   0  0  0  0  0  0  0  0  0  0  0  0
    9.7680  -16.0484   21.1279 C   0  0  1  0  0  0  0  0  0  0  0  0
    8.5131  -15.2780   21.2978 C   0  0  0  0  0  0  0  0  0  0  0  0
    8.0628  -14.4618   20.1796 C   0  0  0  0  0  0  0  0  0  0  0  0
    8.3341  -13.1646   19.8515 C   0  0  0  0  0  0  0  0  0  0  0  0
    7.7138  -12.8118   18.6823 N   0  0  0  0  0  0  0  0  0  0  0  0
    7.0640  -13.9210   18.3115 C   0  0  0  0  0  0  0  0  0  0  0  0
    7.2485  -14.9099   19.1702 N   0  0  0  0  0  0  0  0  0  0  0  0
   10.1894  -16.6691   22.4135 C   0  0  0  0  0  0  0  0  0  0  0  0
    9.5807  -17.6816   22.8011 O   0  0  0  0  0  0  0  0  0  0  0  0
   11.2437  -16.1369   23.1783 N   0  0  0  0  0  0  0  0  0  0  0  0
   11.7160  -16.8521   24.3739 C   0  0  1  0  0  0  0  0  0  0  0  0
   13.0788  -16.3734   24.7601 C   0  0  0  0  0  0  0  0  0  0  0  0
   14.0916  -16.5179   23.6933 C   0  0  0  0  0  0  0  0  0  0  0  0
   14.1949  -17.5370   22.9709 O   0  0  0  0  0  0  0  0  0  0  0  0
   10.7582  -16.6482   25.4790 C   0  0  0  0  0  0  0  0  0  0  0  0
   10.8054  -17.3257   26.6712 O   0  0  0  0  0  0  0  0  0  0  0  0
   14.9916  -15.4869   23.4538 O   0  0  0  0  0  0  0  0  0  0  0  0
    9.8336  -15.7975   25.3227 O   0  0  0  0  0  0  0  0  0  0  0  0
  2  1  1  1
  2  3  1  0
  4  3  1  0
  5  4  1  0
  6  5  2  0
  7  2  1  0
  7  8  2  0
  9  5  1  0
 10  7  1  0
 11 10  1  0
 11 12  1  1
 12 13  1  0
 13 17  1  0
 14 13  2  0
 14 15  1  0
 15 16  1  0
 17 16  2  0
 18 11  1  0
 19 18  2  0
 20 18  1  0
 21 20  1  0
 21 22  1  1
 23 22  1  0
 24 23  2  0
 25 21  1  0
 26 25  1  0
 27 23  1  0
 28 25  2  0
M  END
$$$$
