EHD.pdb
     RDKit          3D

 28 28  0  0  1  0  0  0  0  0999 V2000
   10.7376  -16.5937   18.7732 N   0  0  0  0  0  0  0  0  0  0  0  0
    9.3654  -16.6964   19.2953 C   0  0  1  0  0  0  0  0  0  0  0  0
    9.0238  -18.1469   19.3264 C   0  0  0  0  0  0  0  0  0  0  0  0
   10.0184  -19.0213   20.0068 C   0  0  0  0  0  0  0  0  0  0  0  0
    9.6926  -20.4458   20.0130 C   0  0  0  0  0  0  0  0  0  0  0  0
    9.8109  -21.1390   21.0520 O   0  0  0  0  0  0  0  0  0  0  0  0
    9.3287  -16.0629   20.6379 C   0  0  0  0  0  0  0  0  0  0  0  0
   10.3840  -15.8939   21.2907 O   0  0  0  0  0  0  0  0  0  0  0  0
    9.2420  -21.0671   18.8609 O   0  0  0  0  0  0  0  0  0  0  0  0
    8.0994  -15.6218   21.2396 N   0  0  0  0  0  0  0  0  0  0  0  0
    8.1154  -15.0582   22.5466 C   0  0  1  0  0  0  0  0  0  0  0  0
    6.8634  -14.3811   22.9604 C   0  0  0  0  0  0  0  0  0  0  0  0
    6.8759  -13.6413   24.2141 C   0  0  0  0  0  0  0  0  0  0  0  0
    7.7194  -12.6705   24.6726 C   0  0  0  0  0  0  0  0  0  0  0  0
    7.3336  -12.2263   25.9095 N   0  0  0  0  0  0  0  0  0  0  0  0
    6.2413  -12.9471   26.1877 C   0  0  0  0  0  0  0  0  0  0  0  0
    5.9450  -13.7885   25.2112 N   0  0  0  0  0  0  0  0  0  0  0  0
    8.5595  -16.0332   23.5799 C   0  0  0  0  0  0  0  0  0  0  0  0
    7.8952  -16.1180   24.6275 O   0  0  0  0  0  0  0  0  0  0  0  0
    9.6954  -16.8416   23.3907 N   0  0  0  0  0  0  0  0  0  0  0  0
   10.1141  -17.7766   24.4464 C   0  0  1  0  0  0  0  0  0  0  0  0
   10.8167  -18.9532   23.8485 C   0  0  0  0  0  0  0  0  0  0  0  0
   11.3957  -19.8783   24.8454 C   0  0  0  0  0  0  0  0  0  0  0  0
   11.0299  -19.9215   26.0436 O   0  0  0  0  0  0  0  0  0  0  0  0
   10.9921  -17.0754   25.4042 C   0  0  0  0  0  0  0  0  0  0  0  0
   11.3277  -17.5668   26.6406 O   0  0  0  0  0  0  0  0  0  0  0  0
   12.4005  -20.7594   24.4655 O   0  0  0  0  0  0  0  0  0  0  0  0
   11.4672  -15.9503   25.0703 O   0  0  0  0  0  0  0  0  0  0  0  0
  2  1  1  1
  2  3  1  0
  4  3  1  0
  5  4  1  0
  6  5  2  0
  7  2  1  0
  7  8  2  0
  9  5  1  0
 10  7  1  0
 11 10  1  0
 11 12  1  1
 12 13  1  0
 13 17  1  0
 14 13  2  0
 14 15  1  0
 15 16  1  0
 17 16  2  0
 18 11  1  0
 19 18  2  0
 20 18  1  0
 21 20  1  0
 21 22  1  6
 23 22  1  0
 24 23  2  0
 25 21  1  0
 26 25  1  0
 27 23  1  0
 28 25  2  0
M  END
$$$$
