EHD.pdb
     RDKit          3D

 28 28  0  0  1  0  0  0  0  0999 V2000
   10.3618  -17.4322   16.9020 N   0  0  0  0  0  0  0  0  0  0  0  0
   10.0542  -18.2390   18.0939 C   0  0  1  0  0  0  0  0  0  0  0  0
   10.9021  -19.4624   18.0165 C   0  0  0  0  0  0  0  0  0  0  0  0
   12.2127  -19.2871   17.3325 C   0  0  0  0  0  0  0  0  0  0  0  0
   13.0452  -20.4863   17.2670 C   0  0  0  0  0  0  0  0  0  0  0  0
   14.1910  -20.4596   16.7565 O   0  0  0  0  0  0  0  0  0  0  0  0
   10.3320  -17.4160   19.2984 C   0  0  0  0  0  0  0  0  0  0  0  0
   11.4873  -16.9885   19.5243 O   0  0  0  0  0  0  0  0  0  0  0  0
   12.5828  -21.6894   17.7718 O   0  0  0  0  0  0  0  0  0  0  0  0
    9.3035  -17.0779   20.2448 N   0  0  0  0  0  0  0  0  0  0  0  0
    9.6120  -16.2410   21.3541 C   0  0  1  0  0  0  0  0  0  0  0  0
    8.5746  -15.2410   21.7017 C   0  0  0  0  0  0  0  0  0  0  0  0
    8.1765  -14.2921   20.6721 C   0  0  0  0  0  0  0  0  0  0  0  0
    6.9715  -14.0823   20.0653 C   0  0  0  0  0  0  0  0  0  0  0  0
    7.0454  -13.0521   19.1656 N   0  0  0  0  0  0  0  0  0  0  0  0
    8.3174  -12.6444   19.2420 C   0  0  0  0  0  0  0  0  0  0  0  0
    9.0095  -13.3526   20.1188 N   0  0  0  0  0  0  0  0  0  0  0  0
   10.0249  -17.0186   22.5542 C   0  0  0  0  0  0  0  0  0  0  0  0
    9.6235  -18.1908   22.6579 O   0  0  0  0  0  0  0  0  0  0  0  0
   10.8449  -16.4569   23.5502 N   0  0  0  0  0  0  0  0  0  0  0  0
   11.3799  -17.3070   24.6250 C   0  0  1  0  0  0  0  0  0  0  0  0
   12.8184  -16.9843   24.8741 C   0  0  0  0  0  0  0  0  0  0  0  0
   13.4506  -17.8204   25.9162 C   0  0  0  0  0  0  0  0  0  0  0  0
   14.6405  -18.2110   25.8622 O   0  0  0  0  0  0  0  0  0  0  0  0
   10.5808  -17.1107   25.8509 C   0  0  0  0  0  0  0  0  0  0  0  0
    9.5534  -16.2079   25.9618 O   0  0  0  0  0  0  0  0  0  0  0  0
   12.7133  -18.2109   27.0271 O   0  0  0  0  0  0  0  0  0  0  0  0
   10.8559  -17.8154   26.8661 O   0  0  0  0  0  0  0  0  0  0  0  0
  2  1  1  6
  2  3  1  0
  4  3  1  0
  5  4  1  0
  6  5  2  0
  7  2  1  0
  7  8  2  0
  9  5  1  0
 10  7  1  0
 11 10  1  0
 11 12  1  1
 12 13  1  0
 13 17  1  0
 14 13  2  0
 14 15  1  0
 15 16  1  0
 17 16  2  0
 18 11  1  0
 19 18  2  0
 20 18  1  0
 21 20  1  0
 21 22  1  1
 23 22  1  0
 24 23  2  0
 25 21  1  0
 26 25  1  0
 27 23  1  0
 28 25  2  0
M  END
$$$$
