EHD.pdb
     RDKit          3D

 28 28  0  0  1  0  0  0  0  0999 V2000
   11.3004  -17.2735   20.5184 N   0  0  0  0  0  0  0  0  0  0  0  0
   10.1313  -17.5157   21.3790 C   0  0  1  0  0  0  0  0  0  0  0  0
    9.9637  -18.9938   21.4720 C   0  0  0  0  0  0  0  0  0  0  0  0
   10.8794  -19.7942   20.6132 C   0  0  0  0  0  0  0  0  0  0  0  0
   10.7041  -21.2425   20.6982 C   0  0  0  0  0  0  0  0  0  0  0  0
   10.9512  -21.8699   21.7561 O   0  0  0  0  0  0  0  0  0  0  0  0
   10.3813  -16.8763   22.6958 C   0  0  0  0  0  0  0  0  0  0  0  0
   11.5490  -16.7513   23.1309 O   0  0  0  0  0  0  0  0  0  0  0  0
   10.2572  -21.9602   19.6021 O   0  0  0  0  0  0  0  0  0  0  0  0
    9.3111  -16.3796   23.5178 N   0  0  0  0  0  0  0  0  0  0  0  0
    9.5970  -15.8617   24.8125 C   0  0  1  0  0  0  0  0  0  0  0  0
    8.6941  -14.7817   25.2769 C   0  0  0  0  0  0  0  0  0  0  0  0
    8.9022  -14.2548   26.6179 C   0  0  0  0  0  0  0  0  0  0  0  0
    8.0115  -13.9271   27.5994 C   0  0  0  0  0  0  0  0  0  0  0  0
    8.6577  -13.4932   28.7265 N   0  0  0  0  0  0  0  0  0  0  0  0
    9.9546  -13.5662   28.4062 C   0  0  0  0  0  0  0  0  0  0  0  0
   10.1329  -14.0105   27.1733 N   0  0  0  0  0  0  0  0  0  0  0  0
    9.7168  -16.9331   25.8387 C   0  0  0  0  0  0  0  0  0  0  0  0
    8.7580  -17.7108   25.9866 O   0  0  0  0  0  0  0  0  0  0  0  0
   10.8747  -17.0739   26.6256 N   0  0  0  0  0  0  0  0  0  0  0  0
   10.9083  -18.0682   27.7093 C   0  0  1  0  0  0  0  0  0  0  0  0
   12.1379  -18.9120   27.6011 C   0  0  0  0  0  0  0  0  0  0  0  0
   12.0279  -20.0122   26.6202 C   0  0  0  0  0  0  0  0  0  0  0  0
   10.9802  -20.2669   25.9809 O   0  0  0  0  0  0  0  0  0  0  0  0
   10.8628  -17.3763   29.0128 C   0  0  0  0  0  0  0  0  0  0  0  0
   11.0591  -16.0278   29.1740 O   0  0  0  0  0  0  0  0  0  0  0  0
   13.1266  -20.8252   26.3710 O   0  0  0  0  0  0  0  0  0  0  0  0
   10.6292  -18.0641   30.0497 O   0  0  0  0  0  0  0  0  0  0  0  0
  2  1  1  6
  2  3  1  0
  4  3  1  0
  5  4  1  0
  6  5  2  0
  7  2  1  0
  7  8  2  0
  9  5  1  0
 10  7  1  0
 11 10  1  0
 11 12  1  1
 12 13  1  0
 13 17  1  0
 14 13  2  0
 14 15  1  0
 15 16  1  0
 17 16  2  0
 18 11  1  0
 19 18  2  0
 20 18  1  0
 21 20  1  0
 21 22  1  1
 23 22  1  0
 24 23  2  0
 25 21  1  0
 26 25  1  0
 27 23  1  0
 28 25  2  0
M  END
$$$$
