MCI.pdb
     RDKit          3D

 23 22  0  0  1  0  0  0  0  0999 V2000
    8.9409  -12.5392   20.1831 C   0  0  0  0  0  0  0  0  0  0  0  0
    8.3666  -12.7407   18.4683 S   0  0  0  0  0  0  0  0  0  0  0  0
    7.8166  -14.4536   18.2230 C   0  0  0  0  0  0  0  0  0  0  0  0
    7.0501  -14.9272   19.4163 C   0  0  0  0  0  0  0  0  0  0  0  0
    7.6649  -16.1074   20.1243 C   0  0  2  0  0  0  0  0  0  0  0  0
    7.4501  -17.3206   19.3566 N   0  0  0  0  0  0  0  0  0  0  0  0
    7.1153  -16.2000   21.4819 C   0  0  0  0  0  0  0  0  0  0  0  0
    6.2565  -15.3964   21.8808 O   0  0  0  0  0  0  0  0  0  0  0  0
    7.5273  -17.2083   22.4210 N   0  0  0  0  0  0  0  0  0  0  0  0
    7.2636  -17.0923   23.8415 C   0  0  1  0  0  0  0  0  0  0  0  0
    7.1997  -18.4505   24.4581 C   0  0  0  0  0  0  0  0  0  0  0  0
    6.8814  -18.4059   26.2327 S   0  0  0  0  0  0  0  0  0  0  0  0
    8.2220  -16.1827   24.5080 C   0  0  0  0  0  0  0  0  0  0  0  0
    9.4525  -16.1917   24.2851 O   0  0  0  0  0  0  0  0  0  0  0  0
    5.8143  -12.0456   27.5937 C   0  0  0  0  0  0  0  0  0  0  0  0
    6.6039  -13.2720   27.2310 C   0  0  0  0  0  0  0  0  0  0  0  0
    7.7633  -13.0038   26.3376 C   0  0  2  0  0  0  0  0  0  0  0  0
    7.2104  -12.4150   25.0453 C   0  0  0  0  0  0  0  0  0  0  0  0
    8.5999  -14.2322   26.0565 C   0  0  2  0  0  0  0  0  0  0  0  0
    7.7328  -15.2441   25.4538 N   0  0  0  0  0  0  0  0  0  0  0  0
    9.1675  -14.8085   27.3009 C   0  0  0  0  0  0  0  0  0  0  0  0
    8.8277  -16.0807   27.7548 O   0  0  0  0  0  0  0  0  0  0  0  0
    9.9784  -14.1696   27.9949 O   0  0  0  0  0  0  0  0  0  0  0  0
  2  1  1  0
  3  2  1  0
  4  3  1  0
  5  4  1  0
  5  7  1  0
  5  6  1  6
  7  8  2  0
  9 10  1  0
  9  7  1  0
 11 12  1  0
 10 11  1  1
 13 10  1  0
 13 14  2  0
 16 15  1  0
 17 16  1  0
 17 18  1  6
 19 20  1  1
 19 17  1  0
 20 13  1  0
 21 19  1  0
 22 21  1  0
 23 21  2  0
M  END
$$$$
