MCI.pdb
     RDKit          3D

 23 22  0  0  1  0  0  0  0  0999 V2000
    8.4156  -12.5614   20.4746 C   0  0  0  0  0  0  0  0  0  0  0  0
    7.1899  -12.9983   19.2027 S   0  0  0  0  0  0  0  0  0  0  0  0
    6.3548  -14.5365   19.6853 C   0  0  0  0  0  0  0  0  0  0  0  0
    7.3495  -15.6444   19.8233 C   0  0  0  0  0  0  0  0  0  0  0  0
    6.7609  -16.9591   20.2676 C   0  0  2  0  0  0  0  0  0  0  0  0
    5.5112  -17.2095   19.5728 N   0  0  0  0  0  0  0  0  0  0  0  0
    6.5980  -16.9505   21.7260 C   0  0  0  0  0  0  0  0  0  0  0  0
    5.5876  -16.4580   22.2541 O   0  0  0  0  0  0  0  0  0  0  0  0
    7.5791  -17.5014   22.6218 N   0  0  0  0  0  0  0  0  0  0  0  0
    7.4543  -17.3940   24.0618 C   0  0  1  0  0  0  0  0  0  0  0  0
    7.1385  -18.7317   24.6447 C   0  0  0  0  0  0  0  0  0  0  0  0
    7.0841  -18.7214   26.4473 S   0  0  0  0  0  0  0  0  0  0  0  0
    8.6368  -16.7455   24.6712 C   0  0  0  0  0  0  0  0  0  0  0  0
    9.8155  -17.0357   24.3707 O   0  0  0  0  0  0  0  0  0  0  0  0
    8.9061  -12.9957   29.2234 C   0  0  0  0  0  0  0  0  0  0  0  0
    8.3277  -13.8257   28.1116 C   0  0  0  0  0  0  0  0  0  0  0  0
    9.0897  -13.7451   26.8360 C   0  0  2  0  0  0  0  0  0  0  0  0
    8.1866  -13.0666   25.8130 C   0  0  0  0  0  0  0  0  0  0  0  0
    9.5592  -15.0918   26.3324 C   0  0  2  0  0  0  0  0  0  0  0  0
    8.4379  -15.7381   25.6511 N   0  0  0  0  0  0  0  0  0  0  0  0
    9.9822  -15.9788   27.4447 C   0  0  0  0  0  0  0  0  0  0  0  0
   11.1970  -15.8158   28.1063 O   0  0  0  0  0  0  0  0  0  0  0  0
    9.2593  -16.9134   27.8335 O   0  0  0  0  0  0  0  0  0  0  0  0
  2  1  1  0
  3  2  1  0
  4  3  1  0
  5  4  1  0
  5  7  1  0
  5  6  1  6
  7  8  2  0
  9 10  1  0
  9  7  1  0
 11 12  1  0
 10 11  1  1
 13 10  1  0
 13 14  2  0
 16 15  1  0
 17 16  1  0
 17 18  1  6
 19 20  1  1
 19 17  1  0
 20 13  1  0
 21 19  1  0
 22 21  1  0
 23 21  2  0
M  END
$$$$
