MCI.pdb
     RDKit          3D

 23 22  0  0  1  0  0  0  0  0999 V2000
    8.7842  -12.3701   19.8394 C   0  0  0  0  0  0  0  0  0  0  0  0
    7.7160  -12.8698   18.4538 S   0  0  0  0  0  0  0  0  0  0  0  0
    7.4394  -14.6625   18.5329 C   0  0  0  0  0  0  0  0  0  0  0  0
    7.2954  -15.1019   19.9548 C   0  0  0  0  0  0  0  0  0  0  0  0
    7.1292  -16.5894   20.1341 C   0  0  2  0  0  0  0  0  0  0  0  0
    6.1830  -17.1090   19.1635 N   0  0  0  0  0  0  0  0  0  0  0  0
    6.7234  -16.8699   21.5163 C   0  0  0  0  0  0  0  0  0  0  0  0
    5.5452  -16.7219   21.8798 O   0  0  0  0  0  0  0  0  0  0  0  0
    7.6462  -17.3259   22.5208 N   0  0  0  0  0  0  0  0  0  0  0  0
    7.3209  -17.3039   23.9330 C   0  0  1  0  0  0  0  0  0  0  0  0
    7.2638  -18.6988   24.4621 C   0  0  0  0  0  0  0  0  0  0  0  0
    7.0463  -18.7670   26.2510 S   0  0  0  0  0  0  0  0  0  0  0  0
    8.2287  -16.4173   24.6946 C   0  0  0  0  0  0  0  0  0  0  0  0
    9.4674  -16.3872   24.5256 O   0  0  0  0  0  0  0  0  0  0  0  0
    6.0164  -11.7436   26.4392 C   0  0  0  0  0  0  0  0  0  0  0  0
    6.9556  -12.8038   25.9363 C   0  0  0  0  0  0  0  0  0  0  0  0
    7.6618  -13.5482   27.0140 C   0  0  2  0  0  0  0  0  0  0  0  0
    8.5028  -12.5373   27.7842 C   0  0  0  0  0  0  0  0  0  0  0  0
    8.5197  -14.6813   26.4965 C   0  0  2  0  0  0  0  0  0  0  0  0
    7.6780  -15.5488   25.6729 N   0  0  0  0  0  0  0  0  0  0  0  0
    9.0697  -15.5049   27.6019 C   0  0  0  0  0  0  0  0  0  0  0  0
    8.4097  -16.6291   28.0924 O   0  0  0  0  0  0  0  0  0  0  0  0
   10.1545  -15.2193   28.1395 O   0  0  0  0  0  0  0  0  0  0  0  0
  2  1  1  0
  3  2  1  0
  4  3  1  0
  5  4  1  0
  5  7  1  0
  5  6  1  6
  7  8  2  0
  9 10  1  0
  9  7  1  0
 11 12  1  0
 10 11  1  1
 13 10  1  0
 13 14  2  0
 16 15  1  0
 17 16  1  0
 17 18  1  6
 19 20  1  6
 19 17  1  0
 20 13  1  0
 21 19  1  0
 22 21  1  0
 23 21  2  0
M  END
$$$$
