MCI.pdb
     RDKit          3D

 23 22  0  0  1  0  0  0  0  0999 V2000
    8.3029  -12.4844   18.5348 C   0  0  0  0  0  0  0  0  0  0  0  0
    8.5511  -13.9492   19.5852 S   0  0  0  0  0  0  0  0  0  0  0  0
    6.9886  -14.3574   20.4150 C   0  0  0  0  0  0  0  0  0  0  0  0
    6.2712  -15.4351   19.6669 C   0  0  0  0  0  0  0  0  0  0  0  0
    6.6081  -16.8348   20.1138 C   0  0  2  0  0  0  0  0  0  0  0  0
    5.8248  -17.8020   19.3667 N   0  0  0  0  0  0  0  0  0  0  0  0
    6.3999  -16.9457   21.5623 C   0  0  0  0  0  0  0  0  0  0  0  0
    5.2565  -16.9360   22.0471 O   0  0  0  0  0  0  0  0  0  0  0  0
    7.4857  -17.0706   22.4971 N   0  0  0  0  0  0  0  0  0  0  0  0
    7.2744  -17.0507   23.9309 C   0  0  1  0  0  0  0  0  0  0  0  0
    7.2981  -18.4442   24.4664 C   0  0  0  0  0  0  0  0  0  0  0  0
    7.6275  -18.5141   26.2381 S   0  0  0  0  0  0  0  0  0  0  0  0
    8.2158  -16.1363   24.6147 C   0  0  0  0  0  0  0  0  0  0  0  0
    9.4375  -16.0803   24.3533 O   0  0  0  0  0  0  0  0  0  0  0  0
    5.9188  -12.2274   28.1481 C   0  0  0  0  0  0  0  0  0  0  0  0
    6.6409  -13.4400   27.6310 C   0  0  0  0  0  0  0  0  0  0  0  0
    7.7762  -13.1270   26.7214 C   0  0  2  0  0  0  0  0  0  0  0  0
    7.1913  -12.4572   25.4837 C   0  0  0  0  0  0  0  0  0  0  0  0
    8.5929  -14.3423   26.3423 C   0  0  2  0  0  0  0  0  0  0  0  0
    7.7199  -15.2703   25.6240 N   0  0  0  0  0  0  0  0  0  0  0  0
    9.1155  -15.0494   27.5380 C   0  0  0  0  0  0  0  0  0  0  0  0
   10.1015  -14.5018   28.3552 O   0  0  0  0  0  0  0  0  0  0  0  0
    8.6877  -16.1723   27.8601 O   0  0  0  0  0  0  0  0  0  0  0  0
  2  1  1  0
  3  2  1  0
  4  3  1  0
  5  4  1  0
  5  7  1  0
  5  6  1  6
  7  8  2  0
  9 10  1  0
  9  7  1  0
 11 12  1  0
 10 11  1  1
 13 10  1  0
 13 14  2  0
 16 15  1  0
 17 16  1  0
 17 18  1  6
 19 20  1  1
 19 17  1  0
 20 13  1  0
 21 19  1  0
 22 21  1  0
 23 21  2  0
M  END
$$$$
