MCI.pdb
     RDKit          3D

 23 22  0  0  1  0  0  0  0  0999 V2000
    8.4228  -12.0062   19.7149 C   0  0  0  0  0  0  0  0  0  0  0  0
    8.1132  -12.8778   18.1479 S   0  0  0  0  0  0  0  0  0  0  0  0
    8.3236  -14.6623   18.4087 C   0  0  0  0  0  0  0  0  0  0  0  0
    7.3972  -15.1418   19.4800 C   0  0  0  0  0  0  0  0  0  0  0  0
    7.5702  -16.5927   19.8506 C   0  0  2  0  0  0  0  0  0  0  0  0
    6.8821  -17.4402   18.8938 N   0  0  0  0  0  0  0  0  0  0  0  0
    7.0986  -16.8028   21.2243 C   0  0  0  0  0  0  0  0  0  0  0  0
    5.9675  -17.2639   21.4491 O   0  0  0  0  0  0  0  0  0  0  0  0
    7.9002  -16.4944   22.3779 N   0  0  0  0  0  0  0  0  0  0  0  0
    7.4792  -16.8349   23.7223 C   0  0  1  0  0  0  0  0  0  0  0  0
    7.2287  -18.3036   23.8187 C   0  0  0  0  0  0  0  0  0  0  0  0
    6.9188  -18.8577   25.5066 S   0  0  0  0  0  0  0  0  0  0  0  0
    8.4236  -16.3260   24.7418 C   0  0  0  0  0  0  0  0  0  0  0  0
    9.6404  -16.6143   24.7615 O   0  0  0  0  0  0  0  0  0  0  0  0
    6.0917  -12.1438   27.4422 C   0  0  0  0  0  0  0  0  0  0  0  0
    6.9878  -13.0475   26.6426 C   0  0  0  0  0  0  0  0  0  0  0  0
    8.0147  -13.7552   27.4544 C   0  0  2  0  0  0  0  0  0  0  0  0
    8.9028  -12.6903   28.0866 C   0  0  0  0  0  0  0  0  0  0  0  0
    8.8383  -14.7390   26.6534 C   0  0  2  0  0  0  0  0  0  0  0  0
    7.9366  -15.4634   25.7583 N   0  0  0  0  0  0  0  0  0  0  0  0
    9.5053  -15.7375   27.5257 C   0  0  0  0  0  0  0  0  0  0  0  0
   10.7658  -15.5206   28.0771 O   0  0  0  0  0  0  0  0  0  0  0  0
    8.9576  -16.8199   27.8011 O   0  0  0  0  0  0  0  0  0  0  0  0
  2  1  1  0
  3  2  1  0
  4  3  1  0
  5  4  1  0
  5  7  1  0
  5  6  1  6
  7  8  2  0
  9 10  1  0
  9  7  1  0
 11 12  1  0
 10 11  1  6
 13 10  1  0
 13 14  2  0
 16 15  1  0
 17 16  1  0
 17 18  1  6
 19 20  1  6
 19 17  1  0
 20 13  1  0
 21 19  1  0
 22 21  1  0
 23 21  2  0
M  END
$$$$
