MCI.pdb
     RDKit          3D

 23 22  0  0  1  0  0  0  0  0999 V2000
    9.4290  -12.2712   18.4099 C   0  0  0  0  0  0  0  0  0  0  0  0
    7.9038  -12.5981   19.3468 S   0  0  0  0  0  0  0  0  0  0  0  0
    7.9990  -14.2576   20.0772 C   0  0  0  0  0  0  0  0  0  0  0  0
    7.3861  -15.2642   19.1569 C   0  0  0  0  0  0  0  0  0  0  0  0
    7.5492  -16.6956   19.6008 C   0  0  2  0  0  0  0  0  0  0  0  0
    6.8791  -17.5880   18.6724 N   0  0  0  0  0  0  0  0  0  0  0  0
    7.0496  -16.8386   20.9732 C   0  0  0  0  0  0  0  0  0  0  0  0
    5.9141  -17.2890   21.1972 O   0  0  0  0  0  0  0  0  0  0  0  0
    7.8277  -16.4736   22.1264 N   0  0  0  0  0  0  0  0  0  0  0  0
    7.4367  -16.8499   23.4704 C   0  0  1  0  0  0  0  0  0  0  0  0
    7.3451  -18.3364   23.5746 C   0  0  0  0  0  0  0  0  0  0  0  0
    6.9583  -18.9048   25.2418 S   0  0  0  0  0  0  0  0  0  0  0  0
    8.3139  -16.2365   24.4924 C   0  0  0  0  0  0  0  0  0  0  0  0
    9.5584  -16.3594   24.4984 O   0  0  0  0  0  0  0  0  0  0  0  0
    5.7358  -12.0535   26.9035 C   0  0  0  0  0  0  0  0  0  0  0  0
    6.7267  -12.9532   26.2195 C   0  0  0  0  0  0  0  0  0  0  0  0
    7.6209  -13.6900   27.1531 C   0  0  2  0  0  0  0  0  0  0  0  0
    8.4280  -12.6497   27.9204 C   0  0  0  0  0  0  0  0  0  0  0  0
    8.5334  -14.6750   26.4567 C   0  0  2  0  0  0  0  0  0  0  0  0
    7.7253  -15.4643   25.5276 N   0  0  0  0  0  0  0  0  0  0  0  0
    9.1638  -15.6153   27.4165 C   0  0  0  0  0  0  0  0  0  0  0  0
   10.4130  -15.3745   27.9834 O   0  0  0  0  0  0  0  0  0  0  0  0
    8.5937  -16.6676   27.7557 O   0  0  0  0  0  0  0  0  0  0  0  0
  2  1  1  0
  3  2  1  0
  4  3  1  0
  5  4  1  0
  5  7  1  0
  5  6  1  6
  7  8  2  0
  9 10  1  0
  9  7  1  0
 11 12  1  0
 10 11  1  6
 13 10  1  0
 13 14  2  0
 16 15  1  0
 17 16  1  0
 17 18  1  6
 19 20  1  6
 19 17  1  0
 20 13  1  0
 21 19  1  0
 22 21  1  0
 23 21  2  0
M  END
$$$$
