MCI.pdb
     RDKit          3D

 23 22  0  0  1  0  0  0  0  0999 V2000
    6.7784  -12.1136   18.9446 C   0  0  0  0  0  0  0  0  0  0  0  0
    8.4869  -12.6394   18.6046 S   0  0  0  0  0  0  0  0  0  0  0  0
    8.7909  -14.2343   19.4172 C   0  0  0  0  0  0  0  0  0  0  0  0
    8.3208  -15.3563   18.5477 C   0  0  0  0  0  0  0  0  0  0  0  0
    8.5539  -16.7303   19.1223 C   0  0  2  0  0  0  0  0  0  0  0  0
    8.0490  -17.7453   18.2156 N   0  0  0  0  0  0  0  0  0  0  0  0
    7.9380  -16.8118   20.4518 C   0  0  0  0  0  0  0  0  0  0  0  0
    6.7908  -17.2643   20.5990 O   0  0  0  0  0  0  0  0  0  0  0  0
    8.6101  -16.3814   21.6483 N   0  0  0  0  0  0  0  0  0  0  0  0
    8.0152  -16.5287   22.9618 C   0  0  1  0  0  0  0  0  0  0  0  0
    7.8897  -17.9770   23.3021 C   0  0  0  0  0  0  0  0  0  0  0  0
    9.4823  -18.7805   23.5673 S   0  0  0  0  0  0  0  0  0  0  0  0
    8.7355  -15.7390   23.9854 C   0  0  0  0  0  0  0  0  0  0  0  0
    9.9739  -15.5657   23.9792 O   0  0  0  0  0  0  0  0  0  0  0  0
    5.6113  -12.4406   27.4723 C   0  0  0  0  0  0  0  0  0  0  0  0
    6.3643  -13.5251   26.7540 C   0  0  0  0  0  0  0  0  0  0  0  0
    7.7490  -13.1450   26.3638 C   0  0  2  0  0  0  0  0  0  0  0  0
    7.6411  -12.2367   25.1449 C   0  0  0  0  0  0  0  0  0  0  0  0
    8.6376  -14.3341   26.0739 C   0  0  2  0  0  0  0  0  0  0  0  0
    7.9938  -15.1402   25.0370 N   0  0  0  0  0  0  0  0  0  0  0  0
    8.8130  -15.1952   27.2699 C   0  0  0  0  0  0  0  0  0  0  0  0
    9.5445  -14.7851   28.3820 O   0  0  0  0  0  0  0  0  0  0  0  0
    8.3072  -16.3303   27.3259 O   0  0  0  0  0  0  0  0  0  0  0  0
  2  1  1  0
  3  2  1  0
  4  3  1  0
  5  4  1  0
  5  7  1  0
  5  6  1  6
  7  8  2  0
  9 10  1  0
  9  7  1  0
 11 12  1  0
 10 11  1  1
 13 10  1  0
 13 14  2  0
 16 15  1  0
 17 16  1  0
 17 18  1  6
 19 20  1  6
 19 17  1  0
 20 13  1  0
 21 19  1  0
 22 21  1  0
 23 21  2  0
M  END
$$$$
