MCI.pdb
     RDKit          3D

 23 22  0  0  1  0  0  0  0  0999 V2000
    8.8257  -11.7450   20.4005 C   0  0  0  0  0  0  0  0  0  0  0  0
    7.9135  -12.3801   18.9599 S   0  0  0  0  0  0  0  0  0  0  0  0
    8.1561  -14.1760   18.8472 C   0  0  0  0  0  0  0  0  0  0  0  0
    7.8865  -14.8189   20.1700 C   0  0  0  0  0  0  0  0  0  0  0  0
    8.2545  -16.2790   20.2402 C   0  0  2  0  0  0  0  0  0  0  0  0
    7.3473  -17.0648   19.4237 N   0  0  0  0  0  0  0  0  0  0  0  0
    8.2616  -16.7114   21.6426 C   0  0  0  0  0  0  0  0  0  0  0  0
    7.2108  -17.0435   22.2152 O   0  0  0  0  0  0  0  0  0  0  0  0
    9.4631  -16.7775   22.4303 N   0  0  0  0  0  0  0  0  0  0  0  0
    9.4490  -17.1680   23.8261 C   0  0  1  0  0  0  0  0  0  0  0  0
   10.2335  -18.4250   24.0090 C   0  0  0  0  0  0  0  0  0  0  0  0
   10.3339  -18.9501   25.7314 S   0  0  0  0  0  0  0  0  0  0  0  0
    9.8817  -16.0644   24.7121 C   0  0  0  0  0  0  0  0  0  0  0  0
   10.9596  -15.4464   24.5701 O   0  0  0  0  0  0  0  0  0  0  0  0
    6.4559  -12.3712   26.2904 C   0  0  0  0  0  0  0  0  0  0  0  0
    7.6859  -13.1745   25.9724 C   0  0  0  0  0  0  0  0  0  0  0  0
    8.2992  -13.8372   27.1551 C   0  0  2  0  0  0  0  0  0  0  0  0
    8.7160  -12.7367   28.1234 C   0  0  0  0  0  0  0  0  0  0  0  0
    9.4753  -14.7210   26.8038 C   0  0  2  0  0  0  0  0  0  0  0  0
    9.0382  -15.6753   25.7852 N   0  0  0  0  0  0  0  0  0  0  0  0
    9.9493  -15.4985   27.9758 C   0  0  0  0  0  0  0  0  0  0  0  0
    9.3101  -16.6581   28.4080 O   0  0  0  0  0  0  0  0  0  0  0  0
   10.9480  -15.1401   28.6252 O   0  0  0  0  0  0  0  0  0  0  0  0
  2  1  1  0
  3  2  1  0
  4  3  1  0
  5  4  1  0
  5  7  1  0
  5  6  1  6
  7  8  2  0
  9 10  1  0
  9  7  1  0
 11 12  1  0
 10 11  1  6
 13 10  1  0
 13 14  2  0
 16 15  1  0
 17 16  1  0
 17 18  1  1
 19 20  1  6
 19 17  1  0
 20 13  1  0
 21 19  1  0
 22 21  1  0
 23 21  2  0
M  END
$$$$
