MCI.pdb
     RDKit          3D

 23 22  0  0  1  0  0  0  0  0999 V2000
    0.4554  -19.5840   22.5534 C   0  0  0  0  0  0  0  0  0  0  0  0
    0.9419  -19.3878   20.8111 S   0  0  0  0  0  0  0  0  0  0  0  0
    2.7402  -19.5947   20.6692 C   0  0  0  0  0  0  0  0  0  0  0  0
    3.3897  -19.4079   22.0030 C   0  0  0  0  0  0  0  0  0  0  0  0
    4.8713  -19.6848   22.0194 C   0  0  2  0  0  0  0  0  0  0  0  0
    5.1213  -21.0924   21.7675 N   0  0  0  0  0  0  0  0  0  0  0  0
    5.4353  -19.2367   23.2980 C   0  0  0  0  0  0  0  0  0  0  0  0
    4.9423  -19.6017   24.3778 O   0  0  0  0  0  0  0  0  0  0  0  0
    6.5741  -18.3624   23.3823 N   0  0  0  0  0  0  0  0  0  0  0  0
    7.0826  -17.8792   24.6506 C   0  0  1  0  0  0  0  0  0  0  0  0
    7.8161  -18.9735   25.3530 C   0  0  0  0  0  0  0  0  0  0  0  0
    7.8508  -20.5144   24.4167 S   0  0  0  0  0  0  0  0  0  0  0  0
    7.8762  -16.6403   24.4911 C   0  0  0  0  0  0  0  0  0  0  0  0
    8.7158  -16.4702   23.5800 O   0  0  0  0  0  0  0  0  0  0  0  0
    6.2396  -11.9694   27.3128 C   0  0  0  0  0  0  0  0  0  0  0  0
    6.7638  -13.2868   26.8141 C   0  0  0  0  0  0  0  0  0  0  0  0
    7.6169  -13.1789   25.5997 C   0  0  2  0  0  0  0  0  0  0  0  0
    6.6851  -12.9852   24.4095 C   0  0  0  0  0  0  0  0  0  0  0  0
    8.5169  -14.3766   25.3913 C   0  0  2  0  0  0  0  0  0  0  0  0
    7.6849  -15.5794   25.4143 N   0  0  0  0  0  0  0  0  0  0  0  0
    9.5234  -14.5043   26.4745 C   0  0  0  0  0  0  0  0  0  0  0  0
    9.5130  -15.5627   27.3798 O   0  0  0  0  0  0  0  0  0  0  0  0
   10.4262  -13.6604   26.6172 O   0  0  0  0  0  0  0  0  0  0  0  0
  2  1  1  0
  3  2  1  0
  4  3  1  0
  5  4  1  0
  5  7  1  0
  5  6  1  1
  7  8  2  0
  9 10  1  0
  9  7  1  0
 11 12  1  0
 10 11  1  6
 13 10  1  0
 13 14  2  0
 16 15  1  0
 17 16  1  0
 17 18  1  6
 19 20  1  1
 19 17  1  0
 20 13  1  0
 21 19  1  0
 22 21  1  0
 23 21  2  0
M  END
$$$$
