VSN.pdb
     RDKit          3D

 22 21  0  0  1  0  0  0  0  0999 V2000
   14.4407  -12.6835  -18.7551 C   0  0  0  0  0  0  0  0  0  0  0  0
   15.5883  -12.1343  -17.9594 C   0  0  1  0  0  0  0  0  0  0  0  0
   15.2038  -12.1538  -16.4989 C   0  0  0  0  0  0  0  0  0  0  0  0
   16.8540  -12.9430  -18.1452 C   0  0  2  0  0  0  0  0  0  0  0  0
   16.5921  -14.3376  -17.8506 N   0  0  0  0  0  0  0  0  0  0  0  0
   17.9765  -12.4135  -17.3296 C   0  0  0  0  0  0  0  0  0  0  0  0
   18.1744  -12.8903  -16.1820 O   0  0  0  0  0  0  0  0  0  0  0  0
   20.6804   -9.8370  -18.8211 O   0  0  0  0  0  0  0  0  0  0  0  0
   21.0791  -10.5624  -17.6889 C   0  0  0  0  0  0  0  0  0  0  0  0
   19.8228  -10.8657  -16.9016 C   0  0  2  0  0  0  0  0  0  0  0  0
   18.8447  -11.3881  -17.7827 N   0  0  0  0  0  0  0  0  0  0  0  0
   19.4156   -9.5995  -16.2265 C   0  0  0  0  0  0  0  0  0  0  0  0
   18.5129   -8.8492  -16.6818 O   0  0  0  0  0  0  0  0  0  0  0  0
   17.5318   -8.8421  -13.1659 N   0  0  0  0  0  0  0  0  0  0  0  0
   18.6228   -8.5784  -12.3100 C   0  0  0  0  0  0  0  0  0  0  0  0
   18.5033   -8.7899  -11.0904 O   0  0  0  0  0  0  0  0  0  0  0  0
   19.8781   -8.0612  -12.8639 C   0  0  0  0  0  0  0  0  0  0  0  0
   19.7727   -7.9517  -14.3436 C   0  0  2  0  0  0  0  0  0  0  0  0
   20.0588   -9.2063  -15.0214 N   0  0  0  0  0  0  0  0  0  0  0  0
   20.5343   -6.8267  -14.9216 C   0  0  0  0  0  0  0  0  0  0  0  0
   21.5614   -7.0113  -15.6071 O   0  0  0  0  0  0  0  0  0  0  0  0
   20.1277   -5.5157  -14.7186 O   0  0  0  0  0  0  0  0  0  0  0  0
  2  1  1  6
  2  3  1  0
  4  6  1  0
  4  2  1  0
  4  5  1  1
  6 11  1  0
  7  6  2  0
 10  9  1  6
  9  8  1  0
 10 12  1  0
 11 10  1  0
 12 13  2  0
 12 19  1  0
 14 15  1  0
 15 16  2  0
 15 17  1  0
 18 17  1  1
 18 20  1  0
 19 18  1  0
 20 22  1  0
 21 20  2  0
M  END
$$$$
