VSN.pdb
     RDKit          3D

 22 21  0  0  1  0  0  0  0  0999 V2000
   23.8119  -13.4282  -17.3289 C   0  0  0  0  0  0  0  0  0  0  0  0
   22.7040  -12.4386  -17.5407 C   0  0  1  0  0  0  0  0  0  0  0  0
   21.4122  -13.0674  -17.0744 C   0  0  0  0  0  0  0  0  0  0  0  0
   22.9291  -11.1529  -16.7747 C   0  0  2  0  0  0  0  0  0  0  0  0
   23.1555  -11.4500  -15.3744 N   0  0  0  0  0  0  0  0  0  0  0  0
   21.8091  -10.1945  -16.9560 C   0  0  0  0  0  0  0  0  0  0  0  0
   21.7002   -9.5839  -18.0509 O   0  0  0  0  0  0  0  0  0  0  0  0
   18.5544  -10.2774  -14.7633 O   0  0  0  0  0  0  0  0  0  0  0  0
   18.8941   -8.9386  -15.0075 C   0  0  0  0  0  0  0  0  0  0  0  0
   19.8597   -8.9401  -16.1728 C   0  0  2  0  0  0  0  0  0  0  0  0
   20.8473   -9.9301  -15.9483 N   0  0  0  0  0  0  0  0  0  0  0  0
   20.4044   -7.5564  -16.2887 C   0  0  0  0  0  0  0  0  0  0  0  0
   21.4835   -7.2054  -15.7434 O   0  0  0  0  0  0  0  0  0  0  0  0
   20.9857   -2.6969  -17.6368 N   0  0  0  0  0  0  0  0  0  0  0  0
   21.3829   -3.6481  -18.6012 C   0  0  0  0  0  0  0  0  0  0  0  0
   22.0826   -3.2834  -19.5623 O   0  0  0  0  0  0  0  0  0  0  0  0
   20.9691   -5.0478  -18.4608 C   0  0  0  0  0  0  0  0  0  0  0  0
   20.1686   -5.2181  -17.2186 C   0  0  2  0  0  0  0  0  0  0  0  0
   19.6933   -6.5809  -17.0392 N   0  0  0  0  0  0  0  0  0  0  0  0
   19.0830   -4.2302  -17.0598 C   0  0  0  0  0  0  0  0  0  0  0  0
   19.2809   -3.1142  -16.5360 O   0  0  0  0  0  0  0  0  0  0  0  0
   17.7956   -4.5146  -17.4925 O   0  0  0  0  0  0  0  0  0  0  0  0
  2  1  1  1
  2  3  1  0
  4  6  1  0
  4  2  1  0
  4  5  1  1
  6 11  1  0
  7  6  2  0
 10  9  1  1
  9  8  1  0
 10 12  1  0
 11 10  1  0
 12 13  2  0
 12 19  1  0
 14 15  1  0
 15 16  2  0
 15 17  1  0
 18 17  1  6
 18 20  1  0
 19 18  1  0
 20 22  1  0
 21 20  2  0
M  END
$$$$
