VSN.pdb
     RDKit          3D

 22 21  0  0  1  0  0  0  0  0999 V2000
   24.1050  -21.2976  -20.7535 C   0  0  0  0  0  0  0  0  0  0  0  0
   23.0216  -20.2723  -20.5903 C   0  0  1  0  0  0  0  0  0  0  0  0
   21.6977  -20.9934  -20.4966 C   0  0  0  0  0  0  0  0  0  0  0  0
   23.2114  -19.4301  -19.3473 C   0  0  2  0  0  0  0  0  0  0  0  0
   23.3615  -20.2903  -18.1908 N   0  0  0  0  0  0  0  0  0  0  0  0
   22.1071  -18.4542  -19.1632 C   0  0  0  0  0  0  0  0  0  0  0  0
   21.8787  -17.6132  -20.0709 O   0  0  0  0  0  0  0  0  0  0  0  0
   18.6609  -18.7622  -16.9092 O   0  0  0  0  0  0  0  0  0  0  0  0
   19.4958  -17.6713  -16.6259 C   0  0  0  0  0  0  0  0  0  0  0  0
   20.3082  -17.4088  -17.8754 C   0  0  2  0  0  0  0  0  0  0  0  0
   21.2894  -18.4218  -18.0052 N   0  0  0  0  0  0  0  0  0  0  0  0
   20.8708  -16.0332  -17.7480 C   0  0  0  0  0  0  0  0  0  0  0  0
   21.8603  -15.7713  -17.0149 O   0  0  0  0  0  0  0  0  0  0  0  0
   21.5793  -11.0318  -18.4352 N   0  0  0  0  0  0  0  0  0  0  0  0
   22.0030  -11.8261  -19.5223 C   0  0  0  0  0  0  0  0  0  0  0  0
   22.7623  -11.3337  -20.3752 O   0  0  0  0  0  0  0  0  0  0  0  0
   21.5467  -13.2151  -19.6343 C   0  0  0  0  0  0  0  0  0  0  0  0
   20.7819  -13.5976  -18.4172 C   0  0  2  0  0  0  0  0  0  0  0  0
   20.2820  -14.9622  -18.4738 N   0  0  0  0  0  0  0  0  0  0  0  0
   19.7242  -12.6381  -18.0423 C   0  0  0  0  0  0  0  0  0  0  0  0
   18.5128  -12.9108  -18.1726 O   0  0  0  0  0  0  0  0  0  0  0  0
   20.0475  -11.3905  -17.5282 O   0  0  0  0  0  0  0  0  0  0  0  0
  2  1  1  1
  2  3  1  0
  4  6  1  0
  4  2  1  0
  4  5  1  1
  6 11  1  0
  7  6  2  0
 10  9  1  1
  9  8  1  0
 10 12  1  0
 11 10  1  0
 12 13  2  0
 12 19  1  0
 14 15  1  0
 15 16  2  0
 15 17  1  0
 18 17  1  6
 18 20  1  0
 19 18  1  0
 20 22  1  0
 21 20  2  0
M  END
$$$$
