TTT.pdb
     RDKit          3D

 22 21  0  0  1  0  0  0  0  0999 V2000
    8.4176  -19.5105   18.2260 C   0  0  0  0  0  0  0  0  0  0  0  0
    9.2837  -19.2091   17.0212 C   0  0  1  0  0  0  0  0  0  0  0  0
    8.9567  -20.1092   16.0206 O   0  0  0  0  0  0  0  0  0  0  0  0
    9.0493  -17.7768   16.6395 C   0  0  2  0  0  0  0  0  0  0  0  0
    9.6721  -17.4870   15.3864 N   0  0  0  0  0  0  0  0  0  0  0  0
    9.3666  -16.8138   17.7120 C   0  0  0  0  0  0  0  0  0  0  0  0
   10.5414  -16.6985   18.0928 O   0  0  0  0  0  0  0  0  0  0  0  0
    8.1310  -13.1051   20.7236 C   0  0  0  0  0  0  0  0  0  0  0  0
    7.6817  -13.9877   19.5821 C   0  0  1  0  0  0  0  0  0  0  0  0
    7.4866  -13.2492   18.4572 O   0  0  0  0  0  0  0  0  0  0  0  0
    8.6822  -15.1029   19.4516 C   0  0  2  0  0  0  0  0  0  0  0  0
    8.3866  -15.9945   18.3474 N   0  0  0  0  0  0  0  0  0  0  0  0
    8.9507  -15.8140   20.7060 C   0  0  0  0  0  0  0  0  0  0  0  0
    8.1564  -16.6364   21.2415 O   0  0  0  0  0  0  0  0  0  0  0  0
   12.3896  -16.8774   24.1723 C   0  0  0  0  0  0  0  0  0  0  0  0
   12.0104  -16.1169   22.9208 C   0  0  1  0  0  0  0  0  0  0  0  0
   12.7740  -16.5639   21.8485 O   0  0  0  0  0  0  0  0  0  0  0  0
   10.5329  -16.2282   22.6229 C   0  0  2  0  0  0  0  0  0  0  0  0
   10.1723  -15.5875   21.3890 N   0  0  0  0  0  0  0  0  0  0  0  0
    9.6932  -15.8213   23.7564 C   0  0  0  0  0  0  0  0  0  0  0  0
    9.2839  -16.7443   24.6926 O   0  0  0  0  0  0  0  0  0  0  0  0
    9.3438  -14.6307   23.8792 O   0  0  0  0  0  0  0  0  0  0  0  0
  2  3  1  0
  2  1  1  1
  4  6  1  0
  4  2  1  0
  4  5  1  6
  6  7  2  0
  6 12  1  0
  9  8  1  1
  9 10  1  0
  9 11  1  0
 11 13  1  0
 11 12  1  6
 13 14  2  0
 13 19  1  0
 16 15  1  1
 16 17  1  0
 18 16  1  0
 18 20  1  0
 18 19  1  6
 20 21  1  0
 22 20  2  0
M  END
$$$$
