TTT.pdb
     RDKit          3D

 22 21  0  0  1  0  0  0  0  0999 V2000
   10.7993  -14.0357   17.7477 C   0  0  0  0  0  0  0  0  0  0  0  0
   10.2911  -14.2826   19.1525 C   0  0  1  0  0  0  0  0  0  0  0  0
   10.8524  -13.3299   19.9865 O   0  0  0  0  0  0  0  0  0  0  0  0
    8.7919  -14.2331   19.1091 C   0  0  2  0  0  0  0  0  0  0  0  0
    8.3516  -13.0408   18.4559 N   0  0  0  0  0  0  0  0  0  0  0  0
    8.1485  -14.4835   20.4136 C   0  0  0  0  0  0  0  0  0  0  0  0
    7.4748  -13.5839   20.9380 O   0  0  0  0  0  0  0  0  0  0  0  0
    8.7838  -18.0657   22.7278 C   0  0  0  0  0  0  0  0  0  0  0  0
    7.3994  -17.4698   22.6180 C   0  0  1  0  0  0  0  0  0  0  0  0
    6.6554  -17.7886   23.7106 O   0  0  0  0  0  0  0  0  0  0  0  0
    7.5599  -15.9970   22.3590 C   0  0  2  0  0  0  0  0  0  0  0  0
    8.2573  -15.7189   21.1189 N   0  0  0  0  0  0  0  0  0  0  0  0
    8.0958  -15.2454   23.4987 C   0  0  0  0  0  0  0  0  0  0  0  0
    9.2560  -14.7492   23.5412 O   0  0  0  0  0  0  0  0  0  0  0  0
    6.9831  -12.4071   27.3425 C   0  0  0  0  0  0  0  0  0  0  0  0
    6.5332  -13.3519   26.2503 C   0  0  1  0  0  0  0  0  0  0  0  0
    5.9703  -12.6290   25.2046 O   0  0  0  0  0  0  0  0  0  0  0  0
    7.6659  -14.2255   25.7624 C   0  0  2  0  0  0  0  0  0  0  0  0
    7.2857  -15.0433   24.6445 N   0  0  0  0  0  0  0  0  0  0  0  0
    8.3060  -14.9821   26.8455 C   0  0  0  0  0  0  0  0  0  0  0  0
    8.9743  -14.3294   27.8570 O   0  0  0  0  0  0  0  0  0  0  0  0
    8.2478  -16.2276   26.8564 O   0  0  0  0  0  0  0  0  0  0  0  0
  2  3  1  0
  2  1  1  6
  4  6  1  0
  4  2  1  0
  4  5  1  1
  6  7  2  0
  6 12  1  0
  9  8  1  1
  9 10  1  0
  9 11  1  0
 11 13  1  0
 11 12  1  6
 13 14  2  0
 13 19  1  0
 16 15  1  1
 16 17  1  0
 18 16  1  0
 18 20  1  0
 18 19  1  6
 20 21  1  0
 22 20  2  0
M  END
$$$$
