TTT.pdb
     RDKit          3D

 22 21  0  0  1  0  0  0  0  0999 V2000
    7.7581  -12.4219   19.5503 C   0  0  0  0  0  0  0  0  0  0  0  0
    7.9850  -13.8757   19.1931 C   0  0  1  0  0  0  0  0  0  0  0  0
    8.3847  -13.9356   17.8684 O   0  0  0  0  0  0  0  0  0  0  0  0
    9.0001  -14.4265   20.1513 C   0  0  2  0  0  0  0  0  0  0  0  0
    9.5269  -15.6619   19.6632 N   0  0  0  0  0  0  0  0  0  0  0  0
    8.5342  -14.4761   21.5509 C   0  0  0  0  0  0  0  0  0  0  0  0
    8.0968  -13.4428   22.0794 O   0  0  0  0  0  0  0  0  0  0  0  0
    5.8864  -16.3424   23.1210 C   0  0  0  0  0  0  0  0  0  0  0  0
    7.0639  -16.7086   23.9946 C   0  0  1  0  0  0  0  0  0  0  0  0
    7.4182  -18.0065   23.7972 O   0  0  0  0  0  0  0  0  0  0  0  0
    8.1500  -15.7010   23.7358 C   0  0  2  0  0  0  0  0  0  0  0  0
    8.5575  -15.6611   22.3451 N   0  0  0  0  0  0  0  0  0  0  0  0
    9.2833  -15.7934   24.6623 C   0  0  0  0  0  0  0  0  0  0  0  0
   10.4002  -16.3050   24.3711 O   0  0  0  0  0  0  0  0  0  0  0  0
    8.7568  -14.1693   28.6563 C   0  0  0  0  0  0  0  0  0  0  0  0
   10.0819  -14.1271   27.9282 C   0  0  1  0  0  0  0  0  0  0  0  0
   11.1249  -14.1330   28.8474 O   0  0  0  0  0  0  0  0  0  0  0  0
   10.2168  -15.2646   26.9422 C   0  0  2  0  0  0  0  0  0  0  0  0
    9.1513  -15.2851   25.9792 N   0  0  0  0  0  0  0  0  0  0  0  0
   10.4336  -16.5605   27.5973 C   0  0  0  0  0  0  0  0  0  0  0  0
   11.6342  -16.8452   28.2081 O   0  0  0  0  0  0  0  0  0  0  0  0
    9.5266  -17.4162   27.6047 O   0  0  0  0  0  0  0  0  0  0  0  0
  2  3  1  0
  2  1  1  1
  4  6  1  0
  4  2  1  0
  4  5  1  6
  6  7  2  0
  6 12  1  0
  9  8  1  6
  9 10  1  0
  9 11  1  0
 11 13  1  0
 11 12  1  6
 13 14  2  0
 13 19  1  0
 16 15  1  1
 16 17  1  0
 18 16  1  0
 18 20  1  0
 18 19  1  1
 20 21  1  0
 22 20  2  0
M  END
$$$$
