TTT.pdb
     RDKit          3D

 22 21  0  0  1  0  0  0  0  0999 V2000
   11.1929  -14.9304   19.6130 C   0  0  0  0  0  0  0  0  0  0  0  0
   10.5689  -13.8142   18.8022 C   0  0  1  0  0  0  0  0  0  0  0  0
   11.1778  -13.7941   17.5584 O   0  0  0  0  0  0  0  0  0  0  0  0
    9.0909  -14.0669   18.7424 C   0  0  2  0  0  0  0  0  0  0  0  0
    8.4695  -13.1715   17.8181 N   0  0  0  0  0  0  0  0  0  0  0  0
    8.4406  -14.1202   20.0663 C   0  0  0  0  0  0  0  0  0  0  0  0
    8.0559  -13.0657   20.5938 O   0  0  0  0  0  0  0  0  0  0  0  0
    5.6165  -16.4778   21.0252 C   0  0  0  0  0  0  0  0  0  0  0  0
    6.6086  -16.5772   22.1609 C   0  0  1  0  0  0  0  0  0  0  0  0
    7.2191  -17.7921   22.1553 O   0  0  0  0  0  0  0  0  0  0  0  0
    7.5325  -15.3948   22.0594 C   0  0  2  0  0  0  0  0  0  0  0  0
    8.2248  -15.3323   20.7873 N   0  0  0  0  0  0  0  0  0  0  0  0
    8.4303  -15.2384   23.2086 C   0  0  0  0  0  0  0  0  0  0  0  0
    9.6745  -15.4497   23.1731 O   0  0  0  0  0  0  0  0  0  0  0  0
    8.3039  -12.3014   26.0780 C   0  0  0  0  0  0  0  0  0  0  0  0
    8.1338  -13.7021   26.6230 C   0  0  1  0  0  0  0  0  0  0  0  0
    6.7954  -13.9327   26.9201 O   0  0  0  0  0  0  0  0  0  0  0  0
    8.6684  -14.7445   25.6680 C   0  0  2  0  0  0  0  0  0  0  0  0
    7.9006  -14.8239   24.4568 N   0  0  0  0  0  0  0  0  0  0  0  0
    8.8783  -16.0479   26.3101 C   0  0  0  0  0  0  0  0  0  0  0  0
    9.6999  -16.1641   27.4089 O   0  0  0  0  0  0  0  0  0  0  0  0
    8.3104  -17.0636   25.8621 O   0  0  0  0  0  0  0  0  0  0  0  0
  2  3  1  0
  2  1  1  1
  4  6  1  0
  4  2  1  0
  4  5  1  6
  6  7  2  0
  6 12  1  0
  9  8  1  6
  9 10  1  0
  9 11  1  0
 11 13  1  0
 11 12  1  6
 13 14  2  0
 13 19  1  0
 16 15  1  6
 16 17  1  0
 18 16  1  0
 18 20  1  0
 18 19  1  6
 20 21  1  0
 22 20  2  0
M  END
$$$$
