TTT.pdb
     RDKit          3D

 22 21  0  0  1  0  0  0  0  0999 V2000
    6.5598  -19.1197   15.7633 C   0  0  0  0  0  0  0  0  0  0  0  0
    7.1309  -18.3663   16.9460 C   0  0  1  0  0  0  0  0  0  0  0  0
    7.7537  -19.2813   17.7786 O   0  0  0  0  0  0  0  0  0  0  0  0
    8.0580  -17.3146   16.4107 C   0  0  2  0  0  0  0  0  0  0  0  0
    9.0097  -17.8972   15.5181 N   0  0  0  0  0  0  0  0  0  0  0  0
    8.6510  -16.4550   17.4537 C   0  0  0  0  0  0  0  0  0  0  0  0
    9.8615  -16.5559   17.7042 O   0  0  0  0  0  0  0  0  0  0  0  0
    8.5687  -12.5389   20.4065 C   0  0  0  0  0  0  0  0  0  0  0  0
    7.8601  -13.3051   19.3135 C   0  0  1  0  0  0  0  0  0  0  0  0
    7.8834  -12.6045   18.1484 O   0  0  0  0  0  0  0  0  0  0  0  0
    8.4756  -14.6759   19.2498 C   0  0  2  0  0  0  0  0  0  0  0  0
    7.9024  -15.4994   18.2034 N   0  0  0  0  0  0  0  0  0  0  0  0
    8.5436  -15.3606   20.5451 C   0  0  0  0  0  0  0  0  0  0  0  0
    7.5405  -15.6164   21.2679 O   0  0  0  0  0  0  0  0  0  0  0  0
    9.6366  -18.7239   20.9847 C   0  0  0  0  0  0  0  0  0  0  0  0
   10.5306  -17.9464   21.9251 C   0  0  1  0  0  0  0  0  0  0  0  0
   11.8109  -17.8556   21.3907 O   0  0  0  0  0  0  0  0  0  0  0  0
    9.9680  -16.5772   22.2303 C   0  0  2  0  0  0  0  0  0  0  0  0
    9.8016  -15.7769   21.0493 N   0  0  0  0  0  0  0  0  0  0  0  0
   10.6997  -15.8889   23.3009 C   0  0  0  0  0  0  0  0  0  0  0  0
   10.5809  -16.3018   24.6091 O   0  0  0  0  0  0  0  0  0  0  0  0
   11.4375  -14.9207   23.0308 O   0  0  0  0  0  0  0  0  0  0  0  0
  2  3  1  0
  2  1  1  6
  4  6  1  0
  4  2  1  0
  4  5  1  1
  6  7  2  0
  6 12  1  0
  9  8  1  1
  9 10  1  0
  9 11  1  0
 11 13  1  0
 11 12  1  6
 13 14  2  0
 13 19  1  0
 16 15  1  6
 16 17  1  0
 18 16  1  0
 18 20  1  0
 18 19  1  6
 20 21  1  0
 22 20  2  0
M  END
$$$$
