TTT.pdb
     RDKit          3D

 22 21  0  0  1  0  0  0  0  0999 V2000
    8.8774  -12.3596   20.0897 C   0  0  0  0  0  0  0  0  0  0  0  0
    7.9901  -13.1330   19.1373 C   0  0  1  0  0  0  0  0  0  0  0  0
    8.2832  -12.7228   17.8474 O   0  0  0  0  0  0  0  0  0  0  0  0
    8.2358  -14.5947   19.3722 C   0  0  2  0  0  0  0  0  0  0  0  0
    7.5674  -15.3777   18.3811 N   0  0  0  0  0  0  0  0  0  0  0  0
    7.9817  -15.0270   20.7603 C   0  0  0  0  0  0  0  0  0  0  0  0
    6.8117  -15.1917   21.1376 O   0  0  0  0  0  0  0  0  0  0  0  0
    9.1038  -17.6449   24.6068 C   0  0  0  0  0  0  0  0  0  0  0  0
    9.5557  -17.0887   23.2763 C   0  0  1  0  0  0  0  0  0  0  0  0
    9.4481  -18.0329   22.3038 O   0  0  0  0  0  0  0  0  0  0  0  0
    8.7826  -15.8226   23.0291 C   0  0  2  0  0  0  0  0  0  0  0  0
    9.0185  -15.2706   21.7096 N   0  0  0  0  0  0  0  0  0  0  0  0
    8.9106  -14.8265   24.0981 C   0  0  0  0  0  0  0  0  0  0  0  0
    9.8985  -14.0522   24.2341 O   0  0  0  0  0  0  0  0  0  0  0  0
    6.3784  -12.0545   25.4417 C   0  0  0  0  0  0  0  0  0  0  0  0
    6.6540  -13.1188   26.4806 C   0  0  1  0  0  0  0  0  0  0  0  0
    5.5866  -14.0076   26.5391 O   0  0  0  0  0  0  0  0  0  0  0  0
    7.9531  -13.8428   26.2110 C   0  0  2  0  0  0  0  0  0  0  0  0
    7.8762  -14.6970   25.0589 N   0  0  0  0  0  0  0  0  0  0  0  0
    8.4838  -14.5184   27.4016 C   0  0  0  0  0  0  0  0  0  0  0  0
    8.8246  -13.7969   28.5237 O   0  0  0  0  0  0  0  0  0  0  0  0
    8.6299  -15.7567   27.4040 O   0  0  0  0  0  0  0  0  0  0  0  0
  2  3  1  0
  2  1  1  1
  4  6  1  0
  4  2  1  0
  4  5  1  6
  6  7  2  0
  6 12  1  0
  9  8  1  1
  9 10  1  0
  9 11  1  0
 11 13  1  0
 11 12  1  6
 13 14  2  0
 13 19  1  0
 16 15  1  6
 16 17  1  0
 18 16  1  0
 18 20  1  0
 18 19  1  6
 20 21  1  0
 22 20  2  0
M  END
$$$$
