QDK.pdb
     RDKit          3D

 27 26  0  0  1  0  0  0  0  0999 V2000
   27.3838  -17.5056  -17.3630 N   0  0  0  0  0  0  0  0  0  0  0  0
   27.9519  -17.3224  -16.0740 C   0  0  0  0  0  0  0  0  0  0  0  0
   29.2095  -17.4559  -15.9492 O   0  0  0  0  0  0  0  0  0  0  0  0
   27.0751  -16.9830  -14.9144 C   0  0  0  0  0  0  0  0  0  0  0  0
   25.6416  -16.7963  -15.3528 C   0  0  0  0  0  0  0  0  0  0  0  0
   24.7823  -17.9786  -15.0588 C   0  0  2  0  0  0  0  0  0  0  0  0
   25.4505  -19.2360  -15.1735 N   0  0  0  0  0  0  0  0  0  0  0  0
   23.5100  -17.9854  -15.7917 C   0  0  0  0  0  0  0  0  0  0  0  0
   23.5307  -17.9991  -17.0422 O   0  0  0  0  0  0  0  0  0  0  0  0
   22.2377  -17.9772  -15.1291 N   0  0  0  0  0  0  0  0  0  0  0  0
   20.9931  -18.0834  -15.8278 C   0  0  1  0  0  0  0  0  0  0  0  0
   20.1262  -19.1261  -15.1648 C   0  0  0  0  0  0  0  0  0  0  0  0
   20.6577  -20.4947  -15.3478 C   0  0  0  0  0  0  0  0  0  0  0  0
   20.9071  -21.0242  -16.4568 O   0  0  0  0  0  0  0  0  0  0  0  0
   20.2585  -16.7904  -15.8375 C   0  0  0  0  0  0  0  0  0  0  0  0
   20.0778  -16.1203  -14.7739 O   0  0  0  0  0  0  0  0  0  0  0  0
   20.8944  -21.2396  -14.1980 O   0  0  0  0  0  0  0  0  0  0  0  0
   19.7522  -16.2900  -17.0258 N   0  0  0  0  0  0  0  0  0  0  0  0
   19.1017  -14.8909  -17.0647 C   0  0  1  0  0  0  0  0  0  0  0  0
   19.5172  -14.3011  -18.3463 C   0  0  0  0  0  0  0  0  0  0  0  0
   19.0891  -13.0224  -18.8811 C   0  0  0  0  0  0  0  0  0  0  0  0
   19.8812  -11.7938  -18.7891 C   0  0  0  0  0  0  0  0  0  0  0  0
   19.2302  -10.5985  -19.4799 C   0  0  0  0  0  0  0  0  0  0  0  0
   20.0463   -9.4100  -19.4236 N   0  0  0  0  0  0  0  0  0  0  0  0
   17.6436  -15.2834  -16.9985 C   0  0  0  0  0  0  0  0  0  0  0  0
   16.6049  -14.5389  -16.5853 O   0  0  0  0  0  0  0  0  0  0  0  0
   17.3065  -16.4847  -17.3825 O   0  0  0  0  0  0  0  0  0  0  0  0
  1  2  1  0
  2  4  1  0
  3  2  2  0
  4  5  1  0
  6  7  1  6
  6  5  1  0
  8  6  1  0
  8  9  2  0
 10 11  1  0
 10  8  1  0
 11 15  1  0
 11 12  1  1
 13 12  1  0
 13 17  1  0
 14 13  2  0
 15 18  1  0
 15 16  2  0
 18 19  1  0
 19 20  1  6
 20 21  1  0
 21 22  1  0
 22 23  1  0
 23 24  1  0
 25 26  1  0
 25 19  1  0
 27 25  2  0
M  END
$$$$
