QDK.pdb
     RDKit          3D

 27 26  0  0  1  0  0  0  0  0999 V2000
   18.3658  -17.7044  -15.2946 N   0  0  0  0  0  0  0  0  0  0  0  0
   18.0744  -16.3260  -15.4759 C   0  0  0  0  0  0  0  0  0  0  0  0
   18.7449  -15.4789  -14.8065 O   0  0  0  0  0  0  0  0  0  0  0  0
   17.0059  -15.9094  -16.4315 C   0  0  0  0  0  0  0  0  0  0  0  0
   17.3599  -14.6062  -17.1088 C   0  0  0  0  0  0  0  0  0  0  0  0
   16.9589  -13.4086  -16.3165 C   0  0  2  0  0  0  0  0  0  0  0  0
   15.5580  -13.3190  -16.0519 N   0  0  0  0  0  0  0  0  0  0  0  0
   17.4802  -12.1430  -16.8478 C   0  0  0  0  0  0  0  0  0  0  0  0
   16.8959  -11.6043  -17.8136 O   0  0  0  0  0  0  0  0  0  0  0  0
   18.6379  -11.4955  -16.3017 N   0  0  0  0  0  0  0  0  0  0  0  0
   19.0687  -10.1928  -16.7092 C   0  0  1  0  0  0  0  0  0  0  0  0
   17.9658   -9.1927  -16.4604 C   0  0  0  0  0  0  0  0  0  0  0  0
   18.3724   -7.8131  -16.8073 C   0  0  0  0  0  0  0  0  0  0  0  0
   19.1804   -7.5117  -17.7178 O   0  0  0  0  0  0  0  0  0  0  0  0
   20.2809   -9.7590  -15.9649 C   0  0  0  0  0  0  0  0  0  0  0  0
   20.2701   -9.6142  -14.7032 O   0  0  0  0  0  0  0  0  0  0  0  0
   17.8107   -6.7826  -16.0622 O   0  0  0  0  0  0  0  0  0  0  0  0
   21.4584   -9.5022  -16.6478 N   0  0  0  0  0  0  0  0  0  0  0  0
   22.7324   -9.1003  -15.8750 C   0  0  1  0  0  0  0  0  0  0  0  0
   23.8424   -9.2983  -16.8194 C   0  0  0  0  0  0  0  0  0  0  0  0
   25.2482   -9.0587  -16.5533 C   0  0  0  0  0  0  0  0  0  0  0  0
   26.3178   -9.3283  -17.5168 C   0  0  0  0  0  0  0  0  0  0  0  0
   27.7165   -9.0928  -16.9530 C   0  0  0  0  0  0  0  0  0  0  0  0
   28.7599   -9.4698  -17.8754 N   0  0  0  0  0  0  0  0  0  0  0  0
   22.4093   -7.6532  -15.5817 C   0  0  0  0  0  0  0  0  0  0  0  0
   21.7340   -6.7843  -16.3517 O   0  0  0  0  0  0  0  0  0  0  0  0
   22.8160   -7.1437  -14.4506 O   0  0  0  0  0  0  0  0  0  0  0  0
  1  2  1  0
  2  4  1  0
  3  2  2  0
  4  5  1  0
  6  7  1  6
  6  5  1  0
  8  6  1  0
  8  9  2  0
 10 11  1  0
 10  8  1  0
 11 15  1  0
 11 12  1  1
 13 12  1  0
 13 17  1  0
 14 13  2  0
 15 18  1  0
 15 16  2  0
 18 19  1  0
 19 20  1  6
 20 21  1  0
 21 22  1  0
 22 23  1  0
 23 24  1  0
 25 26  1  0
 25 19  1  0
 27 25  2  0
M  END
$$$$
