QDK.pdb
     RDKit          3D

 27 26  0  0  1  0  0  0  0  0999 V2000
   18.3147  -14.8321  -14.6050 N   0  0  0  0  0  0  0  0  0  0  0  0
   17.1864  -14.8170  -15.4678 C   0  0  0  0  0  0  0  0  0  0  0  0
   16.8875  -15.8889  -16.0818 O   0  0  0  0  0  0  0  0  0  0  0  0
   16.3904  -13.5649  -15.6321 C   0  0  0  0  0  0  0  0  0  0  0  0
   16.9382  -12.4547  -14.7663 C   0  0  0  0  0  0  0  0  0  0  0  0
   16.1446  -11.1960  -14.8595 C   0  0  2  0  0  0  0  0  0  0  0  0
   15.9881  -10.6948  -16.1879 N   0  0  0  0  0  0  0  0  0  0  0  0
   16.5955  -10.1403  -13.9441 C   0  0  0  0  0  0  0  0  0  0  0  0
   16.8119  -10.4279  -12.7463 O   0  0  0  0  0  0  0  0  0  0  0  0
   16.7993   -8.7855  -14.3694 N   0  0  0  0  0  0  0  0  0  0  0  0
   17.3338   -7.7707  -13.5132 C   0  0  1  0  0  0  0  0  0  0  0  0
   17.8792   -6.6377  -14.3482 C   0  0  0  0  0  0  0  0  0  0  0  0
   18.5364   -5.6002  -13.5231 C   0  0  0  0  0  0  0  0  0  0  0  0
   18.6383   -5.6364  -12.2737 O   0  0  0  0  0  0  0  0  0  0  0  0
   16.2982   -7.2282  -12.5940 C   0  0  0  0  0  0  0  0  0  0  0  0
   15.2663   -6.6319  -13.0327 O   0  0  0  0  0  0  0  0  0  0  0  0
   19.0776   -4.5090  -14.1934 O   0  0  0  0  0  0  0  0  0  0  0  0
   16.4463   -7.3676  -11.2238 N   0  0  0  0  0  0  0  0  0  0  0  0
   15.3501   -6.8516  -10.2678 C   0  0  1  0  0  0  0  0  0  0  0  0
   14.6996   -8.0564   -9.7309 C   0  0  0  0  0  0  0  0  0  0  0  0
   13.4203   -8.1089   -9.0489 C   0  0  0  0  0  0  0  0  0  0  0  0
   12.8236   -9.3413   -8.5288 C   0  0  0  0  0  0  0  0  0  0  0  0
   11.4458   -9.1331   -7.9061 C   0  0  0  0  0  0  0  0  0  0  0  0
   10.8314  -10.3692   -7.4862 N   0  0  0  0  0  0  0  0  0  0  0  0
   16.2079   -6.1055   -9.2718 C   0  0  0  0  0  0  0  0  0  0  0  0
   17.5486   -6.0533   -9.2110 O   0  0  0  0  0  0  0  0  0  0  0  0
   15.6143   -5.4113   -8.3391 O   0  0  0  0  0  0  0  0  0  0  0  0
  1  2  1  0
  2  4  1  0
  3  2  2  0
  4  5  1  0
  6  7  1  6
  6  5  1  0
  8  6  1  0
  8  9  2  0
 10 11  1  0
 10  8  1  0
 11 15  1  0
 11 12  1  6
 13 12  1  0
 13 17  1  0
 14 13  2  0
 15 18  1  0
 15 16  2  0
 18 19  1  0
 19 20  1  1
 20 21  1  0
 21 22  1  0
 22 23  1  0
 23 24  1  0
 25 26  1  0
 25 19  1  0
 27 25  2  0
M  END
$$$$
