QDK.pdb
     RDKit          3D

 27 26  0  0  1  0  0  0  0  0999 V2000
   26.6311  -18.7606  -18.3106 N   0  0  0  0  0  0  0  0  0  0  0  0
   28.0213  -18.5480  -18.5103 C   0  0  0  0  0  0  0  0  0  0  0  0
   28.3774  -17.6724  -19.3598 O   0  0  0  0  0  0  0  0  0  0  0  0
   29.0164  -19.3434  -17.7321 C   0  0  0  0  0  0  0  0  0  0  0  0
   28.3318  -20.2232  -16.7126 C   0  0  0  0  0  0  0  0  0  0  0  0
   27.8494  -19.4690  -15.5205 C   0  0  2  0  0  0  0  0  0  0  0  0
   28.8841  -18.8404  -14.7624 N   0  0  0  0  0  0  0  0  0  0  0  0
   26.9505  -20.2406  -14.6530 C   0  0  0  0  0  0  0  0  0  0  0  0
   26.4398  -21.2941  -15.0930 O   0  0  0  0  0  0  0  0  0  0  0  0
   26.6325  -19.8338  -13.3146 N   0  0  0  0  0  0  0  0  0  0  0  0
   25.7124  -20.5452  -12.4805 C   0  0  1  0  0  0  0  0  0  0  0  0
   26.1405  -20.4281  -11.0377 C   0  0  0  0  0  0  0  0  0  0  0  0
   25.2740  -21.2133  -10.1313 C   0  0  0  0  0  0  0  0  0  0  0  0
   24.3193  -21.9374  -10.5013 O   0  0  0  0  0  0  0  0  0  0  0  0
   24.3301  -20.0124  -12.6111 C   0  0  0  0  0  0  0  0  0  0  0  0
   24.0307  -18.8392  -12.2278 O   0  0  0  0  0  0  0  0  0  0  0  0
   25.5477  -21.1349   -8.7705 O   0  0  0  0  0  0  0  0  0  0  0  0
   23.3328  -20.8007  -13.1613 N   0  0  0  0  0  0  0  0  0  0  0  0
   21.9107  -20.2324  -13.3529 C   0  0  1  0  0  0  0  0  0  0  0  0
   21.6775  -20.2412  -14.8049 C   0  0  0  0  0  0  0  0  0  0  0  0
   22.2581  -19.3296  -15.7726 C   0  0  0  0  0  0  0  0  0  0  0  0
   21.9950  -19.3926  -17.2121 C   0  0  0  0  0  0  0  0  0  0  0  0
   22.7992  -18.3787  -18.0212 C   0  0  0  0  0  0  0  0  0  0  0  0
   22.5142  -18.4415  -19.4343 N   0  0  0  0  0  0  0  0  0  0  0  0
   21.1163  -21.2630  -12.5839 C   0  0  0  0  0  0  0  0  0  0  0  0
   19.9532  -21.0941  -11.9340 O   0  0  0  0  0  0  0  0  0  0  0  0
   21.5799  -22.4816  -12.5189 O   0  0  0  0  0  0  0  0  0  0  0  0
  1  2  1  0
  2  4  1  0
  3  2  2  0
  4  5  1  0
  6  7  1  1
  6  5  1  0
  8  6  1  0
  8  9  2  0
 10 11  1  0
 10  8  1  0
 11 15  1  0
 11 12  1  1
 13 12  1  0
 13 17  1  0
 14 13  2  0
 15 18  1  0
 15 16  2  0
 18 19  1  0
 19 20  1  6
 20 21  1  0
 21 22  1  0
 22 23  1  0
 23 24  1  0
 25 26  1  0
 25 19  1  0
 27 25  2  0
M  END
$$$$
