QDK.pdb
     RDKit          3D

 27 26  0  0  1  0  0  0  0  0999 V2000
   23.4542  -23.6050  -14.6120 N   0  0  0  0  0  0  0  0  0  0  0  0
   24.4756  -24.1762  -13.8068 C   0  0  0  0  0  0  0  0  0  0  0  0
   24.9551  -25.3002  -14.1557 O   0  0  0  0  0  0  0  0  0  0  0  0
   24.9552  -23.4568  -12.5899 C   0  0  0  0  0  0  0  0  0  0  0  0
   24.3025  -22.0999  -12.4676 C   0  0  0  0  0  0  0  0  0  0  0  0
   24.9659  -21.0556  -13.2995 C   0  0  2  0  0  0  0  0  0  0  0  0
   25.9426  -20.2799  -12.6031 N   0  0  0  0  0  0  0  0  0  0  0  0
   24.0284  -20.1946  -14.0313 C   0  0  0  0  0  0  0  0  0  0  0  0
   23.1948  -19.5206  -13.3869 O   0  0  0  0  0  0  0  0  0  0  0  0
   24.0293  -20.0941  -15.4623 N   0  0  0  0  0  0  0  0  0  0  0  0
   23.0784  -19.3102  -16.1902 C   0  0  1  0  0  0  0  0  0  0  0  0
   23.5760  -19.0870  -17.5977 C   0  0  0  0  0  0  0  0  0  0  0  0
   24.7687  -18.2124  -17.6376 C   0  0  0  0  0  0  0  0  0  0  0  0
   24.9757  -17.2470  -16.8645 O   0  0  0  0  0  0  0  0  0  0  0  0
   21.7521  -19.9797  -16.2554 C   0  0  0  0  0  0  0  0  0  0  0  0
   21.6394  -21.2418  -16.1703 O   0  0  0  0  0  0  0  0  0  0  0  0
   25.7242  -18.4909  -18.6084 O   0  0  0  0  0  0  0  0  0  0  0  0
   20.6016  -19.2243  -16.4124 N   0  0  0  0  0  0  0  0  0  0  0  0
   19.2170  -19.9059  -16.3970 C   0  0  1  0  0  0  0  0  0  0  0  0
   18.3263  -18.9680  -15.6970 C   0  0  0  0  0  0  0  0  0  0  0  0
   16.9110  -19.1577  -15.4415 C   0  0  0  0  0  0  0  0  0  0  0  0
   16.0462  -18.1367  -14.8455 C   0  0  0  0  0  0  0  0  0  0  0  0
   14.6188  -18.6182  -14.6000 C   0  0  0  0  0  0  0  0  0  0  0  0
   13.8269  -17.6621  -13.8646 N   0  0  0  0  0  0  0  0  0  0  0  0
   18.9681  -20.0160  -17.8838 C   0  0  0  0  0  0  0  0  0  0  0  0
   18.1359  -20.8543  -18.5229 O   0  0  0  0  0  0  0  0  0  0  0  0
   19.6197  -19.2152  -18.6828 O   0  0  0  0  0  0  0  0  0  0  0  0
  1  2  1  0
  2  4  1  0
  3  2  2  0
  4  5  1  0
  6  7  1  1
  6  5  1  0
  8  6  1  0
  8  9  2  0
 10 11  1  0
 10  8  1  0
 11 15  1  0
 11 12  1  6
 13 12  1  0
 13 17  1  0
 14 13  2  0
 15 18  1  0
 15 16  2  0
 18 19  1  0
 19 20  1  1
 20 21  1  0
 21 22  1  0
 22 23  1  0
 23 24  1  0
 25 26  1  0
 25 19  1  0
 27 25  2  0
M  END
$$$$
