QDK.pdb
     RDKit          3D

 27 26  0  0  1  0  0  0  0  0999 V2000
   26.0645  -23.1060  -11.8222 N   0  0  0  0  0  0  0  0  0  0  0  0
   25.8469  -21.7808  -11.3594 C   0  0  0  0  0  0  0  0  0  0  0  0
   25.8366  -21.5785  -10.1048 O   0  0  0  0  0  0  0  0  0  0  0  0
   25.6386  -20.6739  -12.3392 C   0  0  0  0  0  0  0  0  0  0  0  0
   25.7555  -21.1755  -13.7593 C   0  0  0  0  0  0  0  0  0  0  0  0
   24.9769  -20.3582  -14.7333 C   0  0  2  0  0  0  0  0  0  0  0  0
   25.6438  -19.1751  -15.1759 N   0  0  0  0  0  0  0  0  0  0  0  0
   23.6057  -20.0631  -14.2989 C   0  0  0  0  0  0  0  0  0  0  0  0
   23.4125  -19.1208  -13.4996 O   0  0  0  0  0  0  0  0  0  0  0  0
   22.4728  -20.8149  -14.7563 N   0  0  0  0  0  0  0  0  0  0  0  0
   21.1381  -20.5695  -14.3015 C   0  0  1  0  0  0  0  0  0  0  0  0
   20.2742  -20.1501  -15.4661 C   0  0  0  0  0  0  0  0  0  0  0  0
   20.3869  -18.7034  -15.7543 C   0  0  0  0  0  0  0  0  0  0  0  0
   20.2821  -18.1892  -16.8933 O   0  0  0  0  0  0  0  0  0  0  0  0
   20.5406  -21.7801  -13.6779 C   0  0  0  0  0  0  0  0  0  0  0  0
   20.7935  -22.9460  -14.1133 O   0  0  0  0  0  0  0  0  0  0  0  0
   20.6270  -17.8609  -14.6747 O   0  0  0  0  0  0  0  0  0  0  0  0
   19.6855  -21.6519  -12.5956 N   0  0  0  0  0  0  0  0  0  0  0  0
   19.1189  -22.9079  -11.9005 C   0  0  1  0  0  0  0  0  0  0  0  0
   18.5351  -22.4278  -10.6388 C   0  0  0  0  0  0  0  0  0  0  0  0
   18.0195  -23.2535   -9.5633 C   0  0  0  0  0  0  0  0  0  0  0  0
   18.8618  -24.0724   -8.6885 C   0  0  0  0  0  0  0  0  0  0  0  0
   18.0654  -24.9759   -7.7509 C   0  0  0  0  0  0  0  0  0  0  0  0
   18.9100  -25.7859   -6.9069 N   0  0  0  0  0  0  0  0  0  0  0  0
   18.1060  -23.3399  -12.9358 C   0  0  0  0  0  0  0  0  0  0  0  0
   17.7068  -24.5876  -13.2318 O   0  0  0  0  0  0  0  0  0  0  0  0
   17.5205  -22.4193  -13.6527 O   0  0  0  0  0  0  0  0  0  0  0  0
  1  2  1  0
  2  4  1  0
  3  2  2  0
  4  5  1  0
  6  7  1  1
  6  5  1  0
  8  6  1  0
  8  9  2  0
 10 11  1  0
 10  8  1  0
 11 15  1  0
 11 12  1  6
 13 12  1  0
 13 17  1  0
 14 13  2  0
 15 18  1  0
 15 16  2  0
 18 19  1  0
 19 20  1  1
 20 21  1  0
 21 22  1  0
 22 23  1  0
 23 24  1  0
 25 26  1  0
 25 19  1  0
 27 25  2  0
M  END
$$$$
