QDK.pdb
     RDKit          3D

 27 26  0  0  1  0  0  0  0  0999 V2000
   20.1030  -14.4711  -20.9781 N   0  0  0  0  0  0  0  0  0  0  0  0
   20.4385  -13.4127  -20.0922 C   0  0  0  0  0  0  0  0  0  0  0  0
   21.1377  -12.4523  -20.5438 O   0  0  0  0  0  0  0  0  0  0  0  0
   19.9711  -13.4505  -18.6749 C   0  0  0  0  0  0  0  0  0  0  0  0
   19.1358  -12.2357  -18.3451 C   0  0  0  0  0  0  0  0  0  0  0  0
   19.6354  -11.4891  -17.1553 C   0  0  2  0  0  0  0  0  0  0  0  0
   19.7021  -12.2650  -15.9578 N   0  0  0  0  0  0  0  0  0  0  0  0
   18.9475  -10.2130  -16.9228 C   0  0  0  0  0  0  0  0  0  0  0  0
   18.7792   -9.4308  -17.8841 O   0  0  0  0  0  0  0  0  0  0  0  0
   18.4577   -9.8246  -15.6316 N   0  0  0  0  0  0  0  0  0  0  0  0
   17.6616   -8.6544  -15.4185 C   0  0  1  0  0  0  0  0  0  0  0  0
   17.0324   -8.7114  -14.0476 C   0  0  0  0  0  0  0  0  0  0  0  0
   15.9771   -9.7445  -13.9586 C   0  0  0  0  0  0  0  0  0  0  0  0
   15.2154  -10.0739  -14.8988 O   0  0  0  0  0  0  0  0  0  0  0  0
   18.4749   -7.4132  -15.5171 C   0  0  0  0  0  0  0  0  0  0  0  0
   19.6710   -7.3665  -15.0926 O   0  0  0  0  0  0  0  0  0  0  0  0
   15.8279  -10.3917  -12.7372 O   0  0  0  0  0  0  0  0  0  0  0  0
   17.9311   -6.2715  -16.0824 N   0  0  0  0  0  0  0  0  0  0  0  0
   18.7775   -4.9868  -16.2048 C   0  0  1  0  0  0  0  0  0  0  0  0
   18.7557   -4.6378  -17.6333 C   0  0  0  0  0  0  0  0  0  0  0  0
   18.2255   -3.4168  -18.2100 C   0  0  0  0  0  0  0  0  0  0  0  0
   18.3016   -3.0884  -19.6354 C   0  0  0  0  0  0  0  0  0  0  0  0
   17.6770   -1.7395  -19.9818 C   0  0  0  0  0  0  0  0  0  0  0  0
   17.5600   -1.5284  -21.4044 N   0  0  0  0  0  0  0  0  0  0  0  0
   17.9715   -4.0627  -15.3211 C   0  0  0  0  0  0  0  0  0  0  0  0
   18.3228   -2.8555  -14.8488 O   0  0  0  0  0  0  0  0  0  0  0  0
   16.7799   -4.4441  -14.9482 O   0  0  0  0  0  0  0  0  0  0  0  0
  1  2  1  0
  2  4  1  0
  3  2  2  0
  4  5  1  0
  6  7  1  1
  6  5  1  0
  8  6  1  0
  8  9  2  0
 10 11  1  0
 10  8  1  0
 11 15  1  0
 11 12  1  1
 13 12  1  0
 13 17  1  0
 14 13  2  0
 15 18  1  0
 15 16  2  0
 18 19  1  0
 19 20  1  6
 20 21  1  0
 21 22  1  0
 22 23  1  0
 23 24  1  0
 25 26  1  0
 25 19  1  0
 27 25  2  0
M  END
$$$$
