QDK.pdb
     RDKit          3D

 27 26  0  0  1  0  0  0  0  0999 V2000
   25.3321  -22.7178  -18.4128 N   0  0  0  0  0  0  0  0  0  0  0  0
   23.9183  -22.7540  -18.5455 C   0  0  0  0  0  0  0  0  0  0  0  0
   23.3568  -23.8877  -18.6658 O   0  0  0  0  0  0  0  0  0  0  0  0
   23.1365  -21.4823  -18.5409 C   0  0  0  0  0  0  0  0  0  0  0  0
   22.8352  -21.0342  -17.1300 C   0  0  0  0  0  0  0  0  0  0  0  0
   22.1554  -22.0827  -16.3169 C   0  0  2  0  0  0  0  0  0  0  0  0
   20.9944  -22.6443  -16.9311 N   0  0  0  0  0  0  0  0  0  0  0  0
   21.8791  -21.6756  -14.9336 C   0  0  0  0  0  0  0  0  0  0  0  0
   22.6068  -20.8098  -14.3995 O   0  0  0  0  0  0  0  0  0  0  0  0
   20.8031  -22.2327  -14.1655 N   0  0  0  0  0  0  0  0  0  0  0  0
   20.3871  -21.6998  -12.9040 C   0  0  1  0  0  0  0  0  0  0  0  0
   19.9119  -20.2786  -13.0853 C   0  0  0  0  0  0  0  0  0  0  0  0
   19.4843  -19.6642  -11.8091 C   0  0  0  0  0  0  0  0  0  0  0  0
   20.1287  -19.7215  -10.7348 O   0  0  0  0  0  0  0  0  0  0  0  0
   19.2824  -22.4984  -12.3096 C   0  0  0  0  0  0  0  0  0  0  0  0
   18.2655  -22.8371  -12.9909 O   0  0  0  0  0  0  0  0  0  0  0  0
   18.2771  -18.9747  -11.8131 O   0  0  0  0  0  0  0  0  0  0  0  0
   19.3472  -22.8908  -10.9827 N   0  0  0  0  0  0  0  0  0  0  0  0
   18.2666  -23.8228  -10.3949 C   0  0  1  0  0  0  0  0  0  0  0  0
   18.7687  -24.2185   -9.0703 C   0  0  0  0  0  0  0  0  0  0  0  0
   18.1578  -25.1817   -8.1740 C   0  0  0  0  0  0  0  0  0  0  0  0
   18.7193  -25.5558   -6.8740 C   0  0  0  0  0  0  0  0  0  0  0  0
   17.8339  -26.5155   -6.0836 C   0  0  0  0  0  0  0  0  0  0  0  0
   18.4735  -27.0067   -4.8872 N   0  0  0  0  0  0  0  0  0  0  0  0
   17.0946  -22.8689  -10.3619 C   0  0  0  0  0  0  0  0  0  0  0  0
   15.7859  -23.1646  -10.4234 O   0  0  0  0  0  0  0  0  0  0  0  0
   17.3380  -21.5904  -10.2599 O   0  0  0  0  0  0  0  0  0  0  0  0
  1  2  1  0
  2  4  1  0
  3  2  2  0
  4  5  1  0
  6  7  1  6
  6  5  1  0
  8  6  1  0
  8  9  2  0
 10 11  1  0
 10  8  1  0
 11 15  1  0
 11 12  1  6
 13 12  1  0
 13 17  1  0
 14 13  2  0
 15 18  1  0
 15 16  2  0
 18 19  1  0
 19 20  1  1
 20 21  1  0
 21 22  1  0
 22 23  1  0
 23 24  1  0
 25 26  1  0
 25 19  1  0
 27 25  2  0
M  END
$$$$
