VRY.pdb
     RDKit          3D

 31 31  0  0  1  0  0  0  0  0999 V2000
   28.9774  -18.0300  -13.9259 C   0  0  0  0  0  0  0  0  0  0  0  0
   28.2568  -18.3003  -15.2249 C   0  0  1  0  0  0  0  0  0  0  0  0
   29.2670  -18.4299  -16.3389 C   0  0  0  0  0  0  0  0  0  0  0  0
   27.4458  -19.5856  -15.1463 C   0  0  2  0  0  0  0  0  0  0  0  0
   26.7960  -19.8775  -16.4048 N   0  0  0  0  0  0  0  0  0  0  0  0
   26.3935  -19.4518  -14.1091 C   0  0  0  0  0  0  0  0  0  0  0  0
   25.4504  -18.6285  -14.1876 O   0  0  0  0  0  0  0  0  0  0  0  0
   24.5871  -24.0700  -15.7468 N   0  0  0  0  0  0  0  0  0  0  0  0
   23.8426  -24.7357  -14.7584 C   0  0  0  0  0  0  0  0  0  0  0  0
   23.8798  -26.0073  -14.5699 N   0  0  0  0  0  0  0  0  0  0  0  0
   22.9872  -23.9421  -13.9059 N   0  0  0  0  0  0  0  0  0  0  0  0
   23.0644  -22.5122  -14.0003 C   0  0  0  0  0  0  0  0  0  0  0  0
   24.4176  -22.0720  -13.4232 C   0  0  0  0  0  0  0  0  0  0  0  0
   24.1747  -20.9022  -12.5489 C   0  0  0  0  0  0  0  0  0  0  0  0
   25.4221  -20.2810  -11.9324 C   0  0  2  0  0  0  0  0  0  0  0  0
   26.4583  -20.2898  -12.9842 N   0  0  0  0  0  0  0  0  0  0  0  0
   25.8724  -21.0428  -10.7635 C   0  0  0  0  0  0  0  0  0  0  0  0
   26.9398  -21.7598  -10.8043 O   0  0  0  0  0  0  0  0  0  0  0  0
   23.3611  -26.4091  -13.7636 O   0  0  0  0  0  0  0  0  0  0  0  0
   29.8706  -19.5683   -3.4375 C   0  0  0  0  0  0  0  0  0  0  0  0
   29.1248  -19.6608   -4.6024 C   0  0  0  0  0  0  0  0  0  0  0  0
   27.9923  -18.9080   -4.8391 C   0  0  0  0  0  0  0  0  0  0  0  0
   27.2757  -19.0319   -6.0184 C   0  0  0  0  0  0  0  0  0  0  0  0
   27.6824  -19.9137   -6.9821 C   0  0  0  0  0  0  0  0  0  0  0  0
   26.9086  -20.0352   -8.2231 C   0  0  1  0  0  0  0  0  0  0  0  0
   25.9629  -21.2157   -8.2464 N   0  0  0  0  0  0  0  0  0  0  0  0
   25.2224  -21.0777   -9.5015 C   0  0  0  0  0  0  0  0  0  0  0  0
   25.0889  -21.1543   -7.0691 O   0  0  0  0  0  0  0  0  0  0  0  0
   25.3854  -21.7282   -5.8503 C   0  0  0  0  0  0  0  0  0  0  0  0
   28.8218  -20.6799   -6.7596 C   0  0  0  0  0  0  0  0  0  0  0  0
   29.5240  -20.5472   -5.5845 O   0  0  0  0  0  0  0  0  0  0  0  0
  2  1  1  1
  2  3  1  0
  4  2  1  0
  4  5  1  6
  6  4  1  0
  7  6  2  0
  9 11  1  0
  9  8  1  0
 10  9  2  0
 12 13  1  0
 12 11  1  0
 13 14  1  0
 15 14  1  6
 15 16  1  0
 16  6  1  0
 17 15  1  0
 17 18  2  0
 20 19  1  0
 21 20  2  0
 22 21  1  0
 23 29  1  0
 23 22  2  0
 24 23  1  0
 25 24  1  6
 25 26  1  0
 26 17  1  0
 27 25  1  0
 28 27  1  0
 29 30  2  0
 30 20  1  0
 31 27  2  0
M  END
$$$$
