VRY.pdb
     RDKit          3D

 31 31  0  0  1  0  0  0  0  0999 V2000
   24.8333  -15.5981  -15.2914 C   0  0  0  0  0  0  0  0  0  0  0  0
   24.9759  -15.4567  -16.7878 C   0  0  1  0  0  0  0  0  0  0  0  0
   25.7612  -14.2058  -17.0989 C   0  0  0  0  0  0  0  0  0  0  0  0
   25.7017  -16.6530  -17.3861 C   0  0  2  0  0  0  0  0  0  0  0  0
   25.9102  -16.4871  -18.8075 N   0  0  0  0  0  0  0  0  0  0  0  0
   24.8954  -17.8817  -17.1831 C   0  0  0  0  0  0  0  0  0  0  0  0
   23.8237  -18.1103  -17.7934 O   0  0  0  0  0  0  0  0  0  0  0  0
   26.4347  -25.5259  -17.0008 N   0  0  0  0  0  0  0  0  0  0  0  0
   27.2287  -24.4315  -16.6186 C   0  0  0  0  0  0  0  0  0  0  0  0
   28.4307  -24.2402  -17.0339 N   0  0  0  0  0  0  0  0  0  0  0  0
   26.6581  -23.4669  -15.7062 N   0  0  0  0  0  0  0  0  0  0  0  0
   25.2317  -23.4319  -15.5521 C   0  0  0  0  0  0  0  0  0  0  0  0
   24.8797  -22.2200  -14.6773 C   0  0  0  0  0  0  0  0  0  0  0  0
   25.5108  -21.0272  -15.2863 C   0  0  0  0  0  0  0  0  0  0  0  0
   24.5416  -19.9954  -15.8504 C   0  0  2  0  0  0  0  0  0  0  0  0
   25.3570  -18.8350  -16.2612 N   0  0  0  0  0  0  0  0  0  0  0  0
   23.5494  -19.5950  -14.8481 C   0  0  0  0  0  0  0  0  0  0  0  0
   23.9067  -19.1133  -13.7099 O   0  0  0  0  0  0  0  0  0  0  0  0
   28.9519  -23.4083  -16.6920 O   0  0  0  0  0  0  0  0  0  0  0  0
   21.3673  -13.4231  -16.5275 C   0  0  0  0  0  0  0  0  0  0  0  0
   21.0401  -14.6796  -16.0417 C   0  0  0  0  0  0  0  0  0  0  0  0
   20.5192  -14.8928  -14.7813 C   0  0  0  0  0  0  0  0  0  0  0  0
   20.2058  -16.1665  -14.3350 C   0  0  0  0  0  0  0  0  0  0  0  0
   20.4095  -17.2498  -15.1454 C   0  0  0  0  0  0  0  0  0  0  0  0
   20.0762  -18.5920  -14.6545 C   0  0  2  0  0  0  0  0  0  0  0  0
   21.2141  -19.2867  -13.9396 N   0  0  0  0  0  0  0  0  0  0  0  0
   22.1404  -19.6792  -15.0030 C   0  0  0  0  0  0  0  0  0  0  0  0
   20.6853  -20.4399  -13.2018 O   0  0  0  0  0  0  0  0  0  0  0  0
   19.8536  -20.3459  -12.1054 C   0  0  0  0  0  0  0  0  0  0  0  0
   20.9335  -17.0524  -16.4186 C   0  0  0  0  0  0  0  0  0  0  0  0
   21.2404  -15.7828  -16.8494 O   0  0  0  0  0  0  0  0  0  0  0  0
  2  1  1  1
  2  3  1  0
  4  2  1  0
  4  5  1  6
  6  4  1  0
  7  6  2  0
  9 11  1  0
  9  8  1  0
 10  9  2  0
 12 13  1  0
 12 11  1  0
 13 14  1  0
 15 14  1  1
 15 16  1  0
 16  6  1  0
 17 15  1  0
 17 18  2  0
 20 19  1  0
 21 20  2  0
 22 21  1  0
 23 29  1  0
 23 22  2  0
 24 23  1  0
 25 24  1  1
 25 26  1  0
 26 17  1  0
 27 25  1  0
 28 27  1  0
 29 30  2  0
 30 20  1  0
 31 27  2  0
M  END
$$$$
