VRY.pdb
     RDKit          3D

 31 31  0  0  1  0  0  0  0  0999 V2000
   27.0411  -11.4950  -15.0534 C   0  0  0  0  0  0  0  0  0  0  0  0
   27.3192  -12.5565  -16.0905 C   0  0  1  0  0  0  0  0  0  0  0  0
   28.4009  -13.4791  -15.5834 C   0  0  0  0  0  0  0  0  0  0  0  0
   26.0722  -13.3776  -16.3846 C   0  0  2  0  0  0  0  0  0  0  0  0
   26.3608  -14.4717  -17.2852 N   0  0  0  0  0  0  0  0  0  0  0  0
   25.0453  -12.5186  -17.0237 C   0  0  0  0  0  0  0  0  0  0  0  0
   25.1278  -12.1122  -18.2075 O   0  0  0  0  0  0  0  0  0  0  0  0
   17.2536  -14.6570  -17.5662 N   0  0  0  0  0  0  0  0  0  0  0  0
   18.1794  -14.4604  -18.6047 C   0  0  0  0  0  0  0  0  0  0  0  0
   18.1726  -15.1266  -19.7047 N   0  0  0  0  0  0  0  0  0  0  0  0
   19.1963  -13.4498  -18.4227 N   0  0  0  0  0  0  0  0  0  0  0  0
   19.2239  -12.7223  -17.1860 C   0  0  0  0  0  0  0  0  0  0  0  0
   20.3291  -11.6610  -17.2856 C   0  0  0  0  0  0  0  0  0  0  0  0
   21.5886  -12.2772  -16.8102 C   0  0  0  0  0  0  0  0  0  0  0  0
   22.8087  -11.3648  -16.8350 C   0  0  2  0  0  0  0  0  0  0  0  0
   23.9259  -12.1431  -16.2637 N   0  0  0  0  0  0  0  0  0  0  0  0
   22.5781  -10.1481  -16.0501 C   0  0  0  0  0  0  0  0  0  0  0  0
   22.3838  -10.1999  -14.7794 O   0  0  0  0  0  0  0  0  0  0  0  0
   18.8701  -14.8890  -20.4379 O   0  0  0  0  0  0  0  0  0  0  0  0
   20.9400   -1.5351  -14.3696 C   0  0  0  0  0  0  0  0  0  0  0  0
   21.3263   -2.7415  -14.9328 C   0  0  0  0  0  0  0  0  0  0  0  0
   20.7804   -3.2437  -16.0969 C   0  0  0  0  0  0  0  0  0  0  0  0
   21.1958   -4.4549  -16.6259 C   0  0  0  0  0  0  0  0  0  0  0  0
   22.1669   -5.1846  -15.9964 C   0  0  0  0  0  0  0  0  0  0  0  0
   22.5914   -6.4676  -16.5686 C   0  0  1  0  0  0  0  0  0  0  0  0
   22.2063   -7.6708  -15.7363 N   0  0  0  0  0  0  0  0  0  0  0  0
   22.5478   -8.8261  -16.5677 C   0  0  0  0  0  0  0  0  0  0  0  0
   20.7726   -7.6039  -15.4298 O   0  0  0  0  0  0  0  0  0  0  0  0
   20.2529   -7.1311  -14.2428 C   0  0  0  0  0  0  0  0  0  0  0  0
   22.7276   -4.6928  -14.8224 C   0  0  0  0  0  0  0  0  0  0  0  0
   22.3062   -3.4890  -14.3078 O   0  0  0  0  0  0  0  0  0  0  0  0
  2  1  1  1
  2  3  1  0
  4  2  1  0
  4  5  1  6
  6  4  1  0
  7  6  2  0
  9 11  1  0
  9  8  1  0
 10  9  2  0
 12 13  1  0
 12 11  1  0
 13 14  1  0
 15 14  1  1
 15 16  1  0
 16  6  1  0
 17 15  1  0
 17 18  2  0
 20 19  1  0
 21 20  2  0
 22 21  1  0
 23 29  1  0
 23 22  2  0
 24 23  1  0
 25 24  1  1
 25 26  1  0
 26 17  1  0
 27 25  1  0
 28 27  1  0
 29 30  2  0
 30 20  1  0
 31 27  2  0
M  END
$$$$
