VRY.pdb
     RDKit          3D

 31 31  0  0  1  0  0  0  0  0999 V2000
   25.7165  -16.6688  -18.4960 C   0  0  0  0  0  0  0  0  0  0  0  0
   26.6054  -17.2214  -19.5841 C   0  0  1  0  0  0  0  0  0  0  0  0
   27.8143  -16.3315  -19.7416 C   0  0  0  0  0  0  0  0  0  0  0  0
   27.0735  -18.6300  -19.2488 C   0  0  2  0  0  0  0  0  0  0  0  0
   27.9126  -19.1706  -20.2953 N   0  0  0  0  0  0  0  0  0  0  0  0
   25.9004  -19.5253  -19.0959 C   0  0  0  0  0  0  0  0  0  0  0  0
   25.4347  -20.2158  -20.0338 O   0  0  0  0  0  0  0  0  0  0  0  0
   26.4713  -26.5280  -17.6631 N   0  0  0  0  0  0  0  0  0  0  0  0
   26.8311  -25.4034  -16.9014 C   0  0  0  0  0  0  0  0  0  0  0  0
   27.9645  -25.2744  -16.3078 N   0  0  0  0  0  0  0  0  0  0  0  0
   25.8693  -24.3316  -16.7808 N   0  0  0  0  0  0  0  0  0  0  0  0
   24.6818  -24.3846  -17.5850 C   0  0  0  0  0  0  0  0  0  0  0  0
   23.9030  -23.0795  -17.3658 C   0  0  0  0  0  0  0  0  0  0  0  0
   24.8236  -21.9540  -17.6451 C   0  0  0  0  0  0  0  0  0  0  0  0
   24.2025  -20.5661  -17.5457 C   0  0  2  0  0  0  0  0  0  0  0  0
   25.2821  -19.6019  -17.8375 N   0  0  0  0  0  0  0  0  0  0  0  0
   23.6492  -20.3263  -16.2094 C   0  0  0  0  0  0  0  0  0  0  0  0
   24.4080  -20.0144  -15.2184 O   0  0  0  0  0  0  0  0  0  0  0  0
   28.1423  -24.4156  -15.7497 O   0  0  0  0  0  0  0  0  0  0  0  0
   19.4952  -15.3901  -18.4437 C   0  0  0  0  0  0  0  0  0  0  0  0
   20.1614  -16.1487  -17.4938 C   0  0  0  0  0  0  0  0  0  0  0  0
   21.4483  -16.6176  -17.6648 C   0  0  0  0  0  0  0  0  0  0  0  0
   22.0777  -17.3732  -16.6889 C   0  0  0  0  0  0  0  0  0  0  0  0
   21.4271  -17.6723  -15.5231 C   0  0  0  0  0  0  0  0  0  0  0  0
   22.1075  -18.4778  -14.5023 C   0  0  1  0  0  0  0  0  0  0  0  0
   21.7755  -19.9526  -14.5591 N   0  0  0  0  0  0  0  0  0  0  0  0
   22.2745  -20.3990  -15.8608 C   0  0  0  0  0  0  0  0  0  0  0  0
   20.3240  -20.1237  -14.4256 O   0  0  0  0  0  0  0  0  0  0  0  0
   19.6058  -19.8109  -13.2902 C   0  0  0  0  0  0  0  0  0  0  0  0
   20.1299  -17.2073  -15.3346 C   0  0  0  0  0  0  0  0  0  0  0  0
   19.5165  -16.4582  -16.3114 O   0  0  0  0  0  0  0  0  0  0  0  0
  2  1  1  1
  2  3  1  0
  4  2  1  0
  4  5  1  6
  6  4  1  0
  7  6  2  0
  9 11  1  0
  9  8  1  0
 10  9  2  0
 12 13  1  0
 12 11  1  0
 13 14  1  0
 15 14  1  1
 15 16  1  0
 16  6  1  0
 17 15  1  0
 17 18  2  0
 20 19  1  0
 21 20  2  0
 22 21  1  0
 23 29  1  0
 23 22  2  0
 24 23  1  0
 25 24  1  1
 25 26  1  0
 26 17  1  0
 27 25  1  0
 28 27  1  0
 29 30  2  0
 30 20  1  0
 31 27  2  0
M  END
$$$$
