VRY.pdb
     RDKit          3D

 31 31  0  0  1  0  0  0  0  0999 V2000
   26.3689  -20.1770   -8.3216 C   0  0  0  0  0  0  0  0  0  0  0  0
   26.6481  -20.0331   -9.7985 C   0  0  1  0  0  0  0  0  0  0  0  0
   27.5936  -21.1250  -10.2368 C   0  0  0  0  0  0  0  0  0  0  0  0
   25.3667  -20.1377  -10.6127 C   0  0  2  0  0  0  0  0  0  0  0  0
   24.8273  -21.4791  -10.5780 N   0  0  0  0  0  0  0  0  0  0  0  0
   25.6430  -19.7930  -12.0290 C   0  0  0  0  0  0  0  0  0  0  0  0
   25.9006  -18.6280  -12.4161 O   0  0  0  0  0  0  0  0  0  0  0  0
   29.0214  -25.3780  -17.1853 N   0  0  0  0  0  0  0  0  0  0  0  0
   29.4599  -24.3996  -16.2771 C   0  0  0  0  0  0  0  0  0  0  0  0
   30.5396  -24.4983  -15.5854 N   0  0  0  0  0  0  0  0  0  0  0  0
   28.6483  -23.2151  -16.1140 N   0  0  0  0  0  0  0  0  0  0  0  0
   27.4026  -23.1367  -16.8222 C   0  0  0  0  0  0  0  0  0  0  0  0
   26.7275  -21.8095  -16.4471 C   0  0  0  0  0  0  0  0  0  0  0  0
   26.4355  -21.8477  -14.9961 C   0  0  0  0  0  0  0  0  0  0  0  0
   25.8270  -20.5743  -14.4216 C   0  0  2  0  0  0  0  0  0  0  0  0
   25.6143  -20.8239  -12.9820 N   0  0  0  0  0  0  0  0  0  0  0  0
   24.5570  -20.2495  -15.0782 C   0  0  0  0  0  0  0  0  0  0  0  0
   24.5012  -20.0019  -16.3394 O   0  0  0  0  0  0  0  0  0  0  0  0
   30.7702  -23.7447  -14.9075 O   0  0  0  0  0  0  0  0  0  0  0  0
   18.1142  -16.1195  -18.6207 C   0  0  0  0  0  0  0  0  0  0  0  0
   19.1575  -16.6510  -17.8786 C   0  0  0  0  0  0  0  0  0  0  0  0
   19.8647  -15.9278  -16.9392 C   0  0  0  0  0  0  0  0  0  0  0  0
   20.9014  -16.4984  -16.2187 C   0  0  0  0  0  0  0  0  0  0  0  0
   21.2479  -17.8053  -16.4277 C   0  0  0  0  0  0  0  0  0  0  0  0
   22.3517  -18.3918  -15.6589 C   0  0  1  0  0  0  0  0  0  0  0  0
   22.0755  -19.7908  -15.1536 N   0  0  0  0  0  0  0  0  0  0  0  0
   23.2920  -20.1772  -14.4370 C   0  0  0  0  0  0  0  0  0  0  0  0
   21.7946  -20.6676  -16.2965 O   0  0  0  0  0  0  0  0  0  0  0  0
   22.5776  -21.7428  -16.6618 C   0  0  0  0  0  0  0  0  0  0  0  0
   20.5453  -18.5482  -17.3706 C   0  0  0  0  0  0  0  0  0  0  0  0
   19.5181  -17.9699  -18.0790 O   0  0  0  0  0  0  0  0  0  0  0  0
  2  1  1  1
  2  3  1  0
  4  2  1  0
  4  5  1  6
  6  4  1  0
  7  6  2  0
  9 11  1  0
  9  8  1  0
 10  9  2  0
 12 13  1  0
 12 11  1  0
 13 14  1  0
 15 14  1  6
 15 16  1  0
 16  6  1  0
 17 15  1  0
 17 18  2  0
 20 19  1  0
 21 20  2  0
 22 21  1  0
 23 29  1  0
 23 22  2  0
 24 23  1  0
 25 24  1  1
 25 26  1  0
 26 17  1  0
 27 25  1  0
 28 27  1  0
 29 30  2  0
 30 20  1  0
 31 27  2  0
M  END
$$$$
