VRY.pdb
     RDKit          3D

 31 31  0  0  1  0  0  0  0  0999 V2000
   30.1052  -20.6129  -15.4915 C   0  0  0  0  0  0  0  0  0  0  0  0
   29.0236  -20.1037  -14.5694 C   0  0  1  0  0  0  0  0  0  0  0  0
   28.9926  -18.5955  -14.6207 C   0  0  0  0  0  0  0  0  0  0  0  0
   27.6578  -20.6365  -14.9776 C   0  0  2  0  0  0  0  0  0  0  0  0
   27.3468  -20.2968  -16.3485 N   0  0  0  0  0  0  0  0  0  0  0  0
   26.6091  -20.0444  -14.1112 C   0  0  0  0  0  0  0  0  0  0  0  0
   25.7812  -19.1935  -14.5162 O   0  0  0  0  0  0  0  0  0  0  0  0
   19.4943  -19.9836  -11.8249 N   0  0  0  0  0  0  0  0  0  0  0  0
   19.7034  -20.7493  -12.9843 C   0  0  0  0  0  0  0  0  0  0  0  0
   18.7574  -21.1442  -13.7609 N   0  0  0  0  0  0  0  0  0  0  0  0
   21.0613  -21.1118  -13.3205 N   0  0  0  0  0  0  0  0  0  0  0  0
   21.9175  -21.5987  -12.2767 C   0  0  0  0  0  0  0  0  0  0  0  0
   22.8768  -20.4657  -11.8843 C   0  0  0  0  0  0  0  0  0  0  0  0
   24.1555  -20.6924  -12.5954 C   0  0  0  0  0  0  0  0  0  0  0  0
   25.3928  -20.1357  -11.9018 C   0  0  2  0  0  0  0  0  0  0  0  0
   26.5417  -20.4587  -12.7712 N   0  0  0  0  0  0  0  0  0  0  0  0
   25.5713  -20.7324  -10.5746 C   0  0  0  0  0  0  0  0  0  0  0  0
   25.7887  -21.9924  -10.4324 O   0  0  0  0  0  0  0  0  0  0  0  0
   19.0010  -21.7077  -14.5998 O   0  0  0  0  0  0  0  0  0  0  0  0
   31.1798  -19.5950   -4.9957 C   0  0  0  0  0  0  0  0  0  0  0  0
   29.8932  -19.6252   -5.5110 C   0  0  0  0  0  0  0  0  0  0  0  0
   29.3777  -20.7049   -6.1994 C   0  0  0  0  0  0  0  0  0  0  0  0
   28.0851  -20.6934   -6.6981 C   0  0  0  0  0  0  0  0  0  0  0  0
   27.2860  -19.5981   -6.5153 C   0  0  0  0  0  0  0  0  0  0  0  0
   25.9211  -19.6016   -7.0545 C   0  0  2  0  0  0  0  0  0  0  0  0
   25.6554  -20.7080   -8.0514 N   0  0  0  0  0  0  0  0  0  0  0  0
   25.5342  -20.0281   -9.3420 C   0  0  0  0  0  0  0  0  0  0  0  0
   24.4258  -21.4129   -7.6705 O   0  0  0  0  0  0  0  0  0  0  0  0
   24.3785  -22.4701   -6.7858 C   0  0  0  0  0  0  0  0  0  0  0  0
   27.7900  -18.5017   -5.8235 C   0  0  0  0  0  0  0  0  0  0  0  0
   29.0748  -18.5260   -5.3336 O   0  0  0  0  0  0  0  0  0  0  0  0
  2  1  1  6
  2  3  1  0
  4  2  1  0
  4  5  1  6
  6  4  1  0
  7  6  2  0
  9 11  1  0
  9  8  1  0
 10  9  2  0
 12 13  1  0
 12 11  1  0
 13 14  1  0
 15 14  1  6
 15 16  1  0
 16  6  1  0
 17 15  1  0
 17 18  2  0
 20 19  1  0
 21 20  2  0
 22 21  1  0
 23 29  1  0
 23 22  2  0
 24 23  1  0
 25 24  1  6
 25 26  1  0
 26 17  1  0
 27 25  1  0
 28 27  1  0
 29 30  2  0
 30 20  1  0
 31 27  2  0
M  END
$$$$
