VRY.pdb
     RDKit          3D

 31 31  0  0  1  0  0  0  0  0999 V2000
   25.3629  -18.9671  -16.1995 C   0  0  0  0  0  0  0  0  0  0  0  0
   25.9404  -20.2112  -16.8307 C   0  0  1  0  0  0  0  0  0  0  0  0
   27.0120  -19.8188  -17.8186 C   0  0  0  0  0  0  0  0  0  0  0  0
   26.5528  -21.1266  -15.7805 C   0  0  2  0  0  0  0  0  0  0  0  0
   27.1255  -22.3107  -16.3817 N   0  0  0  0  0  0  0  0  0  0  0  0
   25.5067  -21.5611  -14.8225 C   0  0  0  0  0  0  0  0  0  0  0  0
   24.6023  -22.3795  -15.1155 O   0  0  0  0  0  0  0  0  0  0  0  0
   29.7265  -21.7814   -9.5133 N   0  0  0  0  0  0  0  0  0  0  0  0
   29.2568  -20.9256  -10.5239 C   0  0  0  0  0  0  0  0  0  0  0  0
   29.9211  -20.6433  -11.5882 N   0  0  0  0  0  0  0  0  0  0  0  0
   27.9509  -20.3305  -10.3541 N   0  0  0  0  0  0  0  0  0  0  0  0
   26.9564  -21.0610   -9.6213 C   0  0  0  0  0  0  0  0  0  0  0  0
   26.1164  -21.8586  -10.6294 C   0  0  0  0  0  0  0  0  0  0  0  0
   25.0754  -20.9519  -11.1645 C   0  0  0  0  0  0  0  0  0  0  0  0
   24.4997  -21.3500  -12.5181 C   0  0  2  0  0  0  0  0  0  0  0  0
   25.5321  -21.0284  -13.5236 N   0  0  0  0  0  0  0  0  0  0  0  0
   23.2612  -20.6194  -12.8041 C   0  0  0  0  0  0  0  0  0  0  0  0
   23.1511  -19.3641  -12.5447 O   0  0  0  0  0  0  0  0  0  0  0  0
   29.5198  -19.9616  -12.2626 O   0  0  0  0  0  0  0  0  0  0  0  0
   15.6883  -17.9626  -16.4454 C   0  0  0  0  0  0  0  0  0  0  0  0
   16.8465  -18.6321  -16.0819 C   0  0  0  0  0  0  0  0  0  0  0  0
   16.8523  -19.9159  -15.5748 C   0  0  0  0  0  0  0  0  0  0  0  0
   18.0338  -20.5487  -15.2238 C   0  0  0  0  0  0  0  0  0  0  0  0
   19.2314  -19.9048  -15.3752 C   0  0  0  0  0  0  0  0  0  0  0  0
   20.4726  -20.5886  -14.9939 C   0  0  1  0  0  0  0  0  0  0  0  0
   20.8565  -20.4043  -13.5422 N   0  0  0  0  0  0  0  0  0  0  0  0
   22.0890  -21.1771  -13.3798 C   0  0  0  0  0  0  0  0  0  0  0  0
   19.7678  -20.8982  -12.6910 O   0  0  0  0  0  0  0  0  0  0  0  0
   18.8124  -20.0934  -12.1061 C   0  0  0  0  0  0  0  0  0  0  0  0
   19.2432  -18.6107  -15.8851 C   0  0  0  0  0  0  0  0  0  0  0  0
   18.0633  -17.9939  -16.2296 O   0  0  0  0  0  0  0  0  0  0  0  0
  2  1  1  1
  2  3  1  0
  4  2  1  0
  4  5  1  6
  6  4  1  0
  7  6  2  0
  9 11  1  0
  9  8  1  0
 10  9  2  0
 12 13  1  0
 12 11  1  0
 13 14  1  0
 15 14  1  1
 15 16  1  0
 16  6  1  0
 17 15  1  0
 17 18  2  0
 20 19  1  0
 21 20  2  0
 22 21  1  0
 23 29  1  0
 23 22  2  0
 24 23  1  0
 25 24  1  6
 25 26  1  0
 26 17  1  0
 27 25  1  0
 28 27  1  0
 29 30  2  0
 30 20  1  0
 31 27  2  0
M  END
$$$$
