VRY.pdb
     RDKit          3D

 31 31  0  0  1  0  0  0  0  0999 V2000
   27.2851  -24.7455  -16.0721 C   0  0  0  0  0  0  0  0  0  0  0  0
   26.9830  -24.1854  -17.4413 C   0  0  1  0  0  0  0  0  0  0  0  0
   27.6958  -25.0089  -18.4863 C   0  0  0  0  0  0  0  0  0  0  0  0
   25.4890  -24.2140  -17.7293 C   0  0  2  0  0  0  0  0  0  0  0  0
   25.1929  -23.6702  -19.0362 N   0  0  0  0  0  0  0  0  0  0  0  0
   24.7683  -23.3984  -16.7212 C   0  0  0  0  0  0  0  0  0  0  0  0
   24.8741  -23.5812  -15.4848 O   0  0  0  0  0  0  0  0  0  0  0  0
   25.4731  -17.9979  -19.9043 N   0  0  0  0  0  0  0  0  0  0  0  0
   24.2804  -18.5734  -20.3743 C   0  0  0  0  0  0  0  0  0  0  0  0
   24.1320  -19.0419  -21.5627 N   0  0  0  0  0  0  0  0  0  0  0  0
   23.1580  -18.6412  -19.4666 N   0  0  0  0  0  0  0  0  0  0  0  0
   23.3216  -18.1266  -18.1370 C   0  0  0  0  0  0  0  0  0  0  0  0
   23.8836  -19.2541  -17.2589 C   0  0  0  0  0  0  0  0  0  0  0  0
   22.8047  -20.2477  -17.0576 C   0  0  0  0  0  0  0  0  0  0  0  0
   23.1975  -21.4797  -16.2515 C   0  0  2  0  0  0  0  0  0  0  0  0
   23.9262  -22.3709  -17.1762 N   0  0  0  0  0  0  0  0  0  0  0  0
   22.0164  -22.1589  -15.7100 C   0  0  0  0  0  0  0  0  0  0  0  0
   21.2535  -22.8725  -16.4609 O   0  0  0  0  0  0  0  0  0  0  0  0
   23.2017  -19.4119  -21.8422 O   0  0  0  0  0  0  0  0  0  0  0  0
   16.4441  -26.0514  -10.0242 C   0  0  0  0  0  0  0  0  0  0  0  0
   17.4836  -25.3555  -10.6218 C   0  0  0  0  0  0  0  0  0  0  0  0
   17.7662  -24.0325  -10.3478 C   0  0  0  0  0  0  0  0  0  0  0  0
   18.8157  -23.3743  -10.9682 C   0  0  0  0  0  0  0  0  0  0  0  0
   19.6010  -24.0318  -11.8753 C   0  0  0  0  0  0  0  0  0  0  0  0
   20.7054  -23.3176  -12.5263 C   0  0  1  0  0  0  0  0  0  0  0  0
   20.3695  -22.7866  -13.9024 N   0  0  0  0  0  0  0  0  0  0  0  0
   21.5916  -22.1206  -14.3555 C   0  0  0  0  0  0  0  0  0  0  0  0
   19.2332  -21.8638  -13.7971 O   0  0  0  0  0  0  0  0  0  0  0  0
   17.9120  -22.2406  -13.9204 C   0  0  0  0  0  0  0  0  0  0  0  0
   19.3299  -25.3654  -12.1627 C   0  0  0  0  0  0  0  0  0  0  0  0
   18.2851  -26.0070  -11.5398 O   0  0  0  0  0  0  0  0  0  0  0  0
  2  1  1  1
  2  3  1  0
  4  2  1  0
  4  5  1  6
  6  4  1  0
  7  6  2  0
  9 11  1  0
  9  8  1  0
 10  9  2  0
 12 13  1  0
 12 11  1  0
 13 14  1  0
 15 14  1  6
 15 16  1  0
 16  6  1  0
 17 15  1  0
 17 18  2  0
 20 19  1  0
 21 20  2  0
 22 21  1  0
 23 29  1  0
 23 22  2  0
 24 23  1  0
 25 24  1  6
 25 26  1  0
 26 17  1  0
 27 25  1  0
 28 27  1  0
 29 30  2  0
 30 20  1  0
 31 27  2  0
M  END
$$$$
