VRY.pdb
     RDKit          3D

 31 31  0  0  1  0  0  0  0  0999 V2000
   29.0135  -18.3915  -15.4993 C   0  0  0  0  0  0  0  0  0  0  0  0
   28.3939  -17.4117  -16.4666 C   0  0  1  0  0  0  0  0  0  0  0  0
   29.4655  -16.8636  -17.3774 C   0  0  0  0  0  0  0  0  0  0  0  0
   27.3231  -18.0808  -17.3161 C   0  0  2  0  0  0  0  0  0  0  0  0
   26.7401  -17.1517  -18.2586 N   0  0  0  0  0  0  0  0  0  0  0  0
   26.2361  -18.5892  -16.4439 C   0  0  0  0  0  0  0  0  0  0  0  0
   25.3596  -17.8502  -15.9349 O   0  0  0  0  0  0  0  0  0  0  0  0
   24.1525  -26.1333  -14.6485 N   0  0  0  0  0  0  0  0  0  0  0  0
   22.8324  -25.7384  -14.3734 C   0  0  0  0  0  0  0  0  0  0  0  0
   22.0391  -26.3867  -13.5961 N   0  0  0  0  0  0  0  0  0  0  0  0
   22.3415  -24.5332  -15.0018 N   0  0  0  0  0  0  0  0  0  0  0  0
   23.2424  -23.7728  -15.8201 C   0  0  0  0  0  0  0  0  0  0  0  0
   23.7229  -22.5666  -15.0003 C   0  0  0  0  0  0  0  0  0  0  0  0
   24.7146  -21.8327  -15.8188 C   0  0  0  0  0  0  0  0  0  0  0  0
   25.2483  -20.5482  -15.1966 C   0  0  2  0  0  0  0  0  0  0  0  0
   26.1878  -19.9668  -16.1762 N   0  0  0  0  0  0  0  0  0  0  0  0
   25.9325  -20.8169  -13.9281 C   0  0  0  0  0  0  0  0  0  0  0  0
   26.7975  -21.7634  -13.8232 O   0  0  0  0  0  0  0  0  0  0  0  0
   21.0893  -26.0036  -13.4180 O   0  0  0  0  0  0  0  0  0  0  0  0
   28.3810  -20.1350   -5.3979 C   0  0  0  0  0  0  0  0  0  0  0  0
   28.0360  -19.9582   -6.7289 C   0  0  0  0  0  0  0  0  0  0  0  0
   28.8533  -20.3256   -7.7789 C   0  0  0  0  0  0  0  0  0  0  0  0
   28.4694  -20.1308   -9.0958 C   0  0  0  0  0  0  0  0  0  0  0  0
   27.2581  -19.5634   -9.3834 C   0  0  0  0  0  0  0  0  0  0  0  0
   26.8698  -19.3604  -10.7840 C   0  0  1  0  0  0  0  0  0  0  0  0
   26.2538  -20.5789  -11.4353 N   0  0  0  0  0  0  0  0  0  0  0  0
   25.7398  -20.0980  -12.7188 C   0  0  0  0  0  0  0  0  0  0  0  0
   25.1933  -21.1034  -10.5668 O   0  0  0  0  0  0  0  0  0  0  0  0
   25.3899  -22.0563   -9.5891 C   0  0  0  0  0  0  0  0  0  0  0  0
   26.4224  -19.1876   -8.3370 C   0  0  0  0  0  0  0  0  0  0  0  0
   26.8155  -19.3865   -7.0342 O   0  0  0  0  0  0  0  0  0  0  0  0
  2  1  1  1
  2  3  1  0
  4  2  1  0
  4  5  1  6
  6  4  1  0
  7  6  2  0
  9 11  1  0
  9  8  1  0
 10  9  2  0
 12 13  1  0
 12 11  1  0
 13 14  1  0
 15 14  1  6
 15 16  1  0
 16  6  1  0
 17 15  1  0
 17 18  2  0
 20 19  1  0
 21 20  2  0
 22 21  1  0
 23 29  1  0
 23 22  2  0
 24 23  1  0
 25 24  1  6
 25 26  1  0
 26 17  1  0
 27 25  1  0
 28 27  1  0
 29 30  2  0
 30 20  1  0
 31 27  2  0
M  END
$$$$
