VRY.pdb
     RDKit          3D

 31 31  0  0  1  0  0  0  0  0999 V2000
   26.7679  -13.2066  -15.7613 C   0  0  0  0  0  0  0  0  0  0  0  0
   26.3267  -14.6499  -15.8044 C   0  0  1  0  0  0  0  0  0  0  0  0
   25.0779  -14.7656  -16.6444 C   0  0  0  0  0  0  0  0  0  0  0  0
   27.4067  -15.5369  -16.4065 C   0  0  2  0  0  0  0  0  0  0  0  0
   27.6478  -15.2073  -17.7938 N   0  0  0  0  0  0  0  0  0  0  0  0
   26.9831  -16.9573  -16.3415 C   0  0  0  0  0  0  0  0  0  0  0  0
   26.4077  -17.5478  -17.2868 O   0  0  0  0  0  0  0  0  0  0  0  0
   24.3039  -21.6358  -10.7434 N   0  0  0  0  0  0  0  0  0  0  0  0
   25.5750  -21.1911  -10.3423 C   0  0  0  0  0  0  0  0  0  0  0  0
   25.9042  -20.9763   -9.1178 N   0  0  0  0  0  0  0  0  0  0  0  0
   26.5673  -20.9634  -11.3679 N   0  0  0  0  0  0  0  0  0  0  0  0
   26.2113  -21.2232  -12.7337 C   0  0  0  0  0  0  0  0  0  0  0  0
   27.4809  -21.0909  -13.5872 C   0  0  0  0  0  0  0  0  0  0  0  0
   27.6854  -19.6519  -13.8693 C   0  0  0  0  0  0  0  0  0  0  0  0
   26.8188  -19.0783  -14.9838 C   0  0  2  0  0  0  0  0  0  0  0  0
   27.2401  -17.6744  -15.1619 N   0  0  0  0  0  0  0  0  0  0  0  0
   25.3957  -19.1459  -14.6381 C   0  0  0  0  0  0  0  0  0  0  0  0
   24.9288  -18.5334  -13.6076 O   0  0  0  0  0  0  0  0  0  0  0  0
   26.8433  -20.5799   -8.9142 O   0  0  0  0  0  0  0  0  0  0  0  0
   16.7650  -18.5223  -14.6090 C   0  0  0  0  0  0  0  0  0  0  0  0
   18.1186  -18.6213  -14.8913 C   0  0  0  0  0  0  0  0  0  0  0  0
   18.6473  -19.5678  -15.7457 C   0  0  0  0  0  0  0  0  0  0  0  0
   20.0077  -19.6318  -16.0003 C   0  0  0  0  0  0  0  0  0  0  0  0
   20.8628  -18.7471  -15.4019 C   0  0  0  0  0  0  0  0  0  0  0  0
   22.3013  -18.8326  -15.6794 C   0  0  1  0  0  0  0  0  0  0  0  0
   23.0118  -19.9290  -14.9168 N   0  0  0  0  0  0  0  0  0  0  0  0
   24.4034  -19.8557  -15.3648 C   0  0  0  0  0  0  0  0  0  0  0  0
   22.3867  -21.2182  -15.2350 O   0  0  0  0  0  0  0  0  0  0  0  0
   21.4588  -21.8506  -14.4340 C   0  0  0  0  0  0  0  0  0  0  0  0
   20.3463  -17.7869  -14.5382 C   0  0  0  0  0  0  0  0  0  0  0  0
   18.9938  -17.7342  -14.2941 O   0  0  0  0  0  0  0  0  0  0  0  0
  2  1  1  6
  2  3  1  0
  4  2  1  0
  4  5  1  6
  6  4  1  0
  7  6  2  0
  9 11  1  0
  9  8  1  0
 10  9  2  0
 12 13  1  0
 12 11  1  0
 13 14  1  0
 15 14  1  1
 15 16  1  0
 16  6  1  0
 17 15  1  0
 17 18  2  0
 20 19  1  0
 21 20  2  0
 22 21  1  0
 23 29  1  0
 23 22  2  0
 24 23  1  0
 25 24  1  1
 25 26  1  0
 26 17  1  0
 27 25  1  0
 28 27  1  0
 29 30  2  0
 30 20  1  0
 31 27  2  0
M  END
$$$$
