VRY.pdb
     RDKit          3D

 31 31  0  0  1  0  0  0  0  0999 V2000
   29.9373  -20.0922  -16.0169 C   0  0  0  0  0  0  0  0  0  0  0  0
   29.0126  -19.8682  -14.8445 C   0  0  1  0  0  0  0  0  0  0  0  0
   29.2868  -18.5108  -14.2442 C   0  0  0  0  0  0  0  0  0  0  0  0
   27.5543  -19.9285  -15.2755 C   0  0  2  0  0  0  0  0  0  0  0  0
   27.2921  -19.0298  -16.3778 N   0  0  0  0  0  0  0  0  0  0  0  0
   26.6803  -19.5312  -14.1445 C   0  0  0  0  0  0  0  0  0  0  0  0
   25.9562  -18.5071  -14.1610 O   0  0  0  0  0  0  0  0  0  0  0  0
   19.5072  -23.2368  -13.0042 N   0  0  0  0  0  0  0  0  0  0  0  0
   19.5372  -21.8830  -12.6292 C   0  0  0  0  0  0  0  0  0  0  0  0
   18.5518  -21.0732  -12.7936 N   0  0  0  0  0  0  0  0  0  0  0  0
   20.7470  -21.3749  -12.0237 N   0  0  0  0  0  0  0  0  0  0  0  0
   21.9593  -21.4016  -12.7913 C   0  0  0  0  0  0  0  0  0  0  0  0
   23.0870  -20.8376  -11.9148 C   0  0  0  0  0  0  0  0  0  0  0  0
   24.3248  -20.8259  -12.7270 C   0  0  0  0  0  0  0  0  0  0  0  0
   25.5647  -20.2990  -12.0149 C   0  0  2  0  0  0  0  0  0  0  0  0
   26.6643  -20.3438  -12.9994 N   0  0  0  0  0  0  0  0  0  0  0  0
   25.8925  -21.1175  -10.8436 C   0  0  0  0  0  0  0  0  0  0  0  0
   26.8362  -21.9910  -10.8820 O   0  0  0  0  0  0  0  0  0  0  0  0
   18.6142  -20.1195  -12.3848 O   0  0  0  0  0  0  0  0  0  0  0  0
   29.6687  -19.3827   -3.3994 C   0  0  0  0  0  0  0  0  0  0  0  0
   28.9826  -19.5168   -4.5965 C   0  0  0  0  0  0  0  0  0  0  0  0
   27.9135  -18.7188   -4.9508 C   0  0  0  0  0  0  0  0  0  0  0  0
   27.2553  -18.8868   -6.1583 C   0  0  0  0  0  0  0  0  0  0  0  0
   27.6577  -19.8590   -7.0326 C   0  0  0  0  0  0  0  0  0  0  0  0
   26.9459  -20.0258   -8.3051 C   0  0  1  0  0  0  0  0  0  0  0  0
   25.9770  -21.1875   -8.3213 N   0  0  0  0  0  0  0  0  0  0  0  0
   25.2455  -21.0475   -9.5814 C   0  0  0  0  0  0  0  0  0  0  0  0
   25.0986  -21.0968   -7.1491 O   0  0  0  0  0  0  0  0  0  0  0  0
   23.9537  -20.3295   -7.0935 C   0  0  0  0  0  0  0  0  0  0  0  0
   28.7335  -20.6718   -6.6911 C   0  0  0  0  0  0  0  0  0  0  0  0
   29.3783  -20.4945   -5.4893 O   0  0  0  0  0  0  0  0  0  0  0  0
  2  1  1  6
  2  3  1  0
  4  2  1  0
  4  5  1  6
  6  4  1  0
  7  6  2  0
  9 11  1  0
  9  8  1  0
 10  9  2  0
 12 13  1  0
 12 11  1  0
 13 14  1  0
 15 14  1  6
 15 16  1  0
 16  6  1  0
 17 15  1  0
 17 18  2  0
 20 19  1  0
 21 20  2  0
 22 21  1  0
 23 29  1  0
 23 22  2  0
 24 23  1  0
 25 24  1  6
 25 26  1  0
 26 17  1  0
 27 25  1  0
 28 27  1  0
 29 30  2  0
 30 20  1  0
 31 27  2  0
M  END
$$$$
