EQY.pdb
     RDKit          3D

 31 31  0  0  1  0  0  0  0  0999 V2000
   10.2849  -16.1533   22.0206 N   0  0  0  0  0  0  0  0  0  0  0  0
    9.1005  -15.7769   21.2733 C   0  0  1  0  0  0  0  0  0  0  0  0
    9.0749  -16.5344   19.9586 C   0  0  0  0  0  0  0  0  0  0  0  0
   10.4389  -17.0312   19.5789 C   0  0  0  0  0  0  0  0  0  0  0  0
   10.3666  -17.6364   18.2248 C   0  0  0  0  0  0  0  0  0  0  0  0
    9.2879  -17.6697   17.5839 O   0  0  0  0  0  0  0  0  0  0  0  0
    7.8768  -16.0329   22.0704 C   0  0  0  0  0  0  0  0  0  0  0  0
    6.7669  -15.7873   21.5535 O   0  0  0  0  0  0  0  0  0  0  0  0
   11.4917  -18.1837   17.6274 O   0  0  0  0  0  0  0  0  0  0  0  0
    6.5574  -20.9602   25.6939 N   0  0  0  0  0  0  0  0  0  0  0  0
    7.1908  -20.6647   24.4441 C   0  0  0  0  0  0  0  0  0  0  0  0
    7.6427  -21.6429   23.8139 O   0  0  0  0  0  0  0  0  0  0  0  0
    7.3130  -19.3123   23.9260 C   0  0  0  0  0  0  0  0  0  0  0  0
    6.7197  -18.2073   24.7034 C   0  0  0  0  0  0  0  0  0  0  0  0
    6.8372  -16.8299   24.1767 C   0  0  2  0  0  0  0  0  0  0  0  0
    7.9942  -16.5490   23.3980 N   0  0  0  0  0  0  0  0  0  0  0  0
    6.6722  -15.8216   25.2880 C   0  0  0  0  0  0  0  0  0  0  0  0
    5.9463  -16.0743   26.2829 O   0  0  0  0  0  0  0  0  0  0  0  0
   11.2719  -17.1664   29.3474 O   0  0  0  0  0  0  0  0  0  0  0  0
   10.5487  -16.1297   28.7339 C   0  0  0  0  0  0  0  0  0  0  0  0
   10.5215  -16.0657   27.3515 C   0  0  0  0  0  0  0  0  0  0  0  0
    9.8090  -15.0448   26.7599 C   0  0  0  0  0  0  0  0  0  0  0  0
    9.1353  -14.1036   27.4890 C   0  0  0  0  0  0  0  0  0  0  0  0
    8.3868  -13.0309   26.8224 C   0  0  0  0  0  0  0  0  0  0  0  0
    7.1003  -13.5462   26.2792 C   0  0  2  0  0  0  0  0  0  0  0  0
    7.3307  -14.5642   25.2391 N   0  0  0  0  0  0  0  0  0  0  0  0
    6.1423  -12.5348   25.8184 C   0  0  0  0  0  0  0  0  0  0  0  0
    5.9074  -12.4565   24.5638 O   0  0  0  0  0  0  0  0  0  0  0  0
    9.1509  -14.1514   28.8819 C   0  0  0  0  0  0  0  0  0  0  0  0
    9.8676  -15.1777   29.4582 C   0  0  0  0  0  0  0  0  0  0  0  0
    5.4523  -11.6412   26.6094 O   0  0  0  0  0  0  0  0  0  0  0  0
  2  3  1  0
  2  1  1  1
  4  3  1  0
  5  4  1  0
  6  5  2  0
  7  2  1  0
  8  7  2  0
  9  5  1  0
 10 11  1  0
 11 12  2  0
 11 13  1  0
 13 14  1  0
 15 14  1  1
 15 16  1  0
 16  7  1  0
 17 15  1  0
 17 18  2  0
 19 20  1  0
 20 21  2  0
 21 22  1  0
 23 22  2  0
 23 24  1  0
 25 24  1  6
 25 26  1  0
 26 17  1  0
 27 25  1  0
 28 27  2  0
 29 23  1  0
 30 20  1  0
 30 29  2  0
 31 27  1  0
M  END
$$$$
