EQY.pdb
     RDKit          3D

 31 31  0  0  1  0  0  0  0  0999 V2000
    9.6344  -12.9178   18.2418 N   0  0  0  0  0  0  0  0  0  0  0  0
    9.6716  -14.3171   18.6210 C   0  0  1  0  0  0  0  0  0  0  0  0
   11.1061  -14.7221   18.9051 C   0  0  0  0  0  0  0  0  0  0  0  0
   11.9332  -13.5533   19.3539 C   0  0  0  0  0  0  0  0  0  0  0  0
   13.3070  -14.0287   19.6563 C   0  0  0  0  0  0  0  0  0  0  0  0
   14.3162  -13.4132   19.2342 O   0  0  0  0  0  0  0  0  0  0  0  0
    8.7964  -14.5641   19.7921 C   0  0  0  0  0  0  0  0  0  0  0  0
    8.6647  -13.6562   20.6394 O   0  0  0  0  0  0  0  0  0  0  0  0
   13.5157  -15.1696   20.4161 O   0  0  0  0  0  0  0  0  0  0  0  0
    3.8791  -19.2913   22.9820 N   0  0  0  0  0  0  0  0  0  0  0  0
    4.5680  -18.7022   21.8734 C   0  0  0  0  0  0  0  0  0  0  0  0
    4.3469  -19.2137   20.7564 O   0  0  0  0  0  0  0  0  0  0  0  0
    5.4773  -17.5780   22.0214 C   0  0  0  0  0  0  0  0  0  0  0  0
    6.3214  -17.2026   20.8707 C   0  0  0  0  0  0  0  0  0  0  0  0
    7.2752  -16.0830   21.0293 C   0  0  2  0  0  0  0  0  0  0  0  0
    8.1308  -15.8220   19.9232 N   0  0  0  0  0  0  0  0  0  0  0  0
    8.0678  -16.2387   22.3047 C   0  0  0  0  0  0  0  0  0  0  0  0
    9.0683  -16.9986   22.3512 O   0  0  0  0  0  0  0  0  0  0  0  0
   11.1467  -15.5532   30.4401 O   0  0  0  0  0  0  0  0  0  0  0  0
   10.5511  -15.2869   29.1957 C   0  0  0  0  0  0  0  0  0  0  0  0
   11.1717  -15.7508   28.0488 C   0  0  0  0  0  0  0  0  0  0  0  0
   10.5788  -15.4842   26.8333 C   0  0  0  0  0  0  0  0  0  0  0  0
    9.4090  -14.7831   26.7270 C   0  0  0  0  0  0  0  0  0  0  0  0
    8.8078  -14.5192   25.4139 C   0  0  0  0  0  0  0  0  0  0  0  0
    8.3889  -15.7902   24.7621 C   0  0  2  0  0  0  0  0  0  0  0  0
    7.7053  -15.5326   23.4824 N   0  0  0  0  0  0  0  0  0  0  0  0
    7.6121  -16.7169   25.5932 C   0  0  0  0  0  0  0  0  0  0  0  0
    8.2501  -17.5044   26.3730 O   0  0  0  0  0  0  0  0  0  0  0  0
    8.7694  -14.3078   27.8705 C   0  0  0  0  0  0  0  0  0  0  0  0
    9.3744  -14.5823   29.0778 C   0  0  0  0  0  0  0  0  0  0  0  0
    6.2388  -16.8319   25.6256 O   0  0  0  0  0  0  0  0  0  0  0  0
  2  3  1  0
  2  1  1  1
  4  3  1  0
  5  4  1  0
  6  5  2  0
  7  2  1  0
  8  7  2  0
  9  5  1  0
 10 11  1  0
 11 12  2  0
 11 13  1  0
 13 14  1  0
 15 14  1  6
 15 16  1  0
 16  7  1  0
 17 15  1  0
 17 18  2  0
 19 20  1  0
 20 21  2  0
 21 22  1  0
 23 22  2  0
 23 24  1  0
 25 24  1  1
 25 26  1  0
 26 17  1  0
 27 25  1  0
 28 27  2  0
 29 23  1  0
 30 20  1  0
 30 29  2  0
 31 27  1  0
M  END
$$$$
