EQY.pdb
     RDKit          3D

 31 31  0  0  1  0  0  0  0  0999 V2000
    9.6241  -15.7480   18.2547 N   0  0  0  0  0  0  0  0  0  0  0  0
    9.2172  -17.1377   18.3330 C   0  0  1  0  0  0  0  0  0  0  0  0
    9.6505  -17.8594   17.0704 C   0  0  0  0  0  0  0  0  0  0  0  0
    9.2153  -19.2954   17.0761 C   0  0  0  0  0  0  0  0  0  0  0  0
    9.9699  -20.0270   16.0272 C   0  0  0  0  0  0  0  0  0  0  0  0
   10.8608  -19.4581   15.3503 O   0  0  0  0  0  0  0  0  0  0  0  0
    9.7811  -17.7794   19.5449 C   0  0  0  0  0  0  0  0  0  0  0  0
   10.0247  -19.0038   19.5121 O   0  0  0  0  0  0  0  0  0  0  0  0
    9.7116  -21.3636   15.7642 O   0  0  0  0  0  0  0  0  0  0  0  0
   14.5264  -20.0132   21.5627 N   0  0  0  0  0  0  0  0  0  0  0  0
   13.4369  -20.0723   22.4901 C   0  0  0  0  0  0  0  0  0  0  0  0
   13.2535  -21.1724   23.0507 O   0  0  0  0  0  0  0  0  0  0  0  0
   12.5823  -18.9308   22.7714 C   0  0  0  0  0  0  0  0  0  0  0  0
   11.9473  -18.2336   21.6365 C   0  0  0  0  0  0  0  0  0  0  0  0
   10.6491  -17.5596   21.8580 C   0  0  2  0  0  0  0  0  0  0  0  0
   10.0301  -16.9907   20.7104 N   0  0  0  0  0  0  0  0  0  0  0  0
   10.7605  -16.5482   22.9731 C   0  0  0  0  0  0  0  0  0  0  0  0
   11.3196  -16.8471   24.0588 O   0  0  0  0  0  0  0  0  0  0  0  0
    7.9647  -11.9784   18.2546 O   0  0  0  0  0  0  0  0  0  0  0  0
    7.9365  -12.6460   19.4906 C   0  0  0  0  0  0  0  0  0  0  0  0
    8.9150  -12.3556   20.4255 C   0  0  0  0  0  0  0  0  0  0  0  0
    8.8780  -13.0160   21.6348 C   0  0  0  0  0  0  0  0  0  0  0  0
    7.9145  -13.9393   21.9360 C   0  0  0  0  0  0  0  0  0  0  0  0
    7.9082  -14.6220   23.2356 C   0  0  0  0  0  0  0  0  0  0  0  0
    9.2827  -14.6854   23.8033 C   0  0  2  0  0  0  0  0  0  0  0  0
   10.2380  -15.2358   22.8256 N   0  0  0  0  0  0  0  0  0  0  0  0
    9.4155  -15.3579   25.1006 C   0  0  0  0  0  0  0  0  0  0  0  0
    8.6938  -14.9413   26.0705 O   0  0  0  0  0  0  0  0  0  0  0  0
    6.9209  -14.2450   21.0075 C   0  0  0  0  0  0  0  0  0  0  0  0
    6.9717  -13.5766   19.8035 C   0  0  0  0  0  0  0  0  0  0  0  0
   10.2517  -16.4142   25.3926 O   0  0  0  0  0  0  0  0  0  0  0  0
  2  3  1  0
  2  1  1  6
  4  3  1  0
  5  4  1  0
  6  5  2  0
  7  2  1  0
  8  7  2  0
  9  5  1  0
 10 11  1  0
 11 12  2  0
 11 13  1  0
 13 14  1  0
 15 14  1  6
 15 16  1  0
 16  7  1  0
 17 15  1  0
 17 18  2  0
 19 20  1  0
 20 21  2  0
 21 22  1  0
 23 22  2  0
 23 24  1  0
 25 24  1  6
 25 26  1  0
 26 17  1  0
 27 25  1  0
 28 27  2  0
 29 23  1  0
 30 20  1  0
 30 29  2  0
 31 27  1  0
M  END
$$$$
