EQY.pdb
     RDKit          3D

 31 31  0  0  1  0  0  0  0  0999 V2000
    9.8044  -16.5630   20.5372 N   0  0  0  0  0  0  0  0  0  0  0  0
    8.5519  -15.9480   20.9324 C   0  0  1  0  0  0  0  0  0  0  0  0
    7.4956  -16.2416   19.8833 C   0  0  0  0  0  0  0  0  0  0  0  0
    8.1042  -16.7659   18.6160 C   0  0  0  0  0  0  0  0  0  0  0  0
    7.0171  -17.0419   17.6429 C   0  0  0  0  0  0  0  0  0  0  0  0
    6.8061  -18.2029   17.2151 O   0  0  0  0  0  0  0  0  0  0  0  0
    8.1342  -16.4282   22.2716 C   0  0  0  0  0  0  0  0  0  0  0  0
    7.0348  -16.0469   22.7250 O   0  0  0  0  0  0  0  0  0  0  0  0
    6.2012  -16.0222   17.1772 O   0  0  0  0  0  0  0  0  0  0  0  0
    6.8065  -21.4475   24.6787 N   0  0  0  0  0  0  0  0  0  0  0  0
    7.4057  -20.8955   25.8564 C   0  0  0  0  0  0  0  0  0  0  0  0
    7.0440  -21.3959   26.9412 O   0  0  0  0  0  0  0  0  0  0  0  0
    8.3757  -19.8142   25.8108 C   0  0  0  0  0  0  0  0  0  0  0  0
    8.7416  -19.2552   24.4952 C   0  0  0  0  0  0  0  0  0  0  0  0
    8.6084  -17.7969   24.2850 C   0  0  2  0  0  0  0  0  0  0  0  0
    8.9901  -17.3067   23.0053 N   0  0  0  0  0  0  0  0  0  0  0  0
    9.3045  -17.0367   25.3879 C   0  0  0  0  0  0  0  0  0  0  0  0
   10.5505  -16.8705   25.3670 O   0  0  0  0  0  0  0  0  0  0  0  0
    7.3717  -11.1221   23.8216 O   0  0  0  0  0  0  0  0  0  0  0  0
    7.6691  -12.0018   24.8761 C   0  0  0  0  0  0  0  0  0  0  0  0
    6.6756  -12.3011   25.7923 C   0  0  0  0  0  0  0  0  0  0  0  0
    6.9778  -13.1652   26.8228 C   0  0  0  0  0  0  0  0  0  0  0  0
    8.2156  -13.7298   26.9661 C   0  0  0  0  0  0  0  0  0  0  0  0
    8.4993  -14.6463   28.0773 C   0  0  0  0  0  0  0  0  0  0  0  0
    9.2611  -15.8325   27.5995 C   0  0  2  0  0  0  0  0  0  0  0  0
    8.5722  -16.4907   26.4754 N   0  0  0  0  0  0  0  0  0  0  0  0
    9.6430  -16.8107   28.6243 C   0  0  0  0  0  0  0  0  0  0  0  0
    9.2164  -18.0098   28.4997 O   0  0  0  0  0  0  0  0  0  0  0  0
    9.2288  -13.4405   26.0537 C   0  0  0  0  0  0  0  0  0  0  0  0
    8.9112  -12.5750   25.0294 C   0  0  0  0  0  0  0  0  0  0  0  0
   10.4301  -16.5716   29.7305 O   0  0  0  0  0  0  0  0  0  0  0  0
  2  3  1  0
  2  1  1  6
  4  3  1  0
  5  4  1  0
  6  5  2  0
  7  2  1  0
  8  7  2  0
  9  5  1  0
 10 11  1  0
 11 12  2  0
 11 13  1  0
 13 14  1  0
 15 14  1  6
 15 16  1  0
 16  7  1  0
 17 15  1  0
 17 18  2  0
 19 20  1  0
 20 21  2  0
 21 22  1  0
 23 22  2  0
 23 24  1  0
 25 24  1  1
 25 26  1  0
 26 17  1  0
 27 25  1  0
 28 27  2  0
 29 23  1  0
 30 20  1  0
 30 29  2  0
 31 27  1  0
M  END
$$$$
