EQY.pdb
     RDKit          3D

 31 31  0  0  1  0  0  0  0  0999 V2000
    7.0075  -20.4423   21.5870 N   0  0  0  0  0  0  0  0  0  0  0  0
    6.5994  -19.2141   22.2412 C   0  0  1  0  0  0  0  0  0  0  0  0
    6.1483  -19.5251   23.6562 C   0  0  0  0  0  0  0  0  0  0  0  0
    7.1933  -20.2884   24.4157 C   0  0  0  0  0  0  0  0  0  0  0  0
    7.2599  -19.7575   25.8008 C   0  0  0  0  0  0  0  0  0  0  0  0
    6.5335  -20.2240   26.7120 O   0  0  0  0  0  0  0  0  0  0  0  0
    7.7035  -18.2245   22.2293 C   0  0  0  0  0  0  0  0  0  0  0  0
    8.8612  -18.6263   21.9886 O   0  0  0  0  0  0  0  0  0  0  0  0
    8.1287  -18.7280   26.1289 O   0  0  0  0  0  0  0  0  0  0  0  0
    6.8162  -12.5193   19.4629 N   0  0  0  0  0  0  0  0  0  0  0  0
    8.1759  -12.9684   19.4751 C   0  0  0  0  0  0  0  0  0  0  0  0
    8.9024  -12.5412   18.5544 O   0  0  0  0  0  0  0  0  0  0  0  0
    8.6958  -13.8709   20.4888 C   0  0  0  0  0  0  0  0  0  0  0  0
    7.7678  -14.8333   21.1134 C   0  0  0  0  0  0  0  0  0  0  0  0
    8.3137  -15.8260   22.0646 C   0  0  2  0  0  0  0  0  0  0  0  0
    7.4209  -16.8482   22.4909 N   0  0  0  0  0  0  0  0  0  0  0  0
    8.9512  -15.1341   23.2452 C   0  0  0  0  0  0  0  0  0  0  0  0
    8.7465  -13.9128   23.4621 O   0  0  0  0  0  0  0  0  0  0  0  0
    6.0158  -10.7002   26.8499 O   0  0  0  0  0  0  0  0  0  0  0  0
    6.5427  -11.9849   26.6350 C   0  0  0  0  0  0  0  0  0  0  0  0
    7.9110  -12.1249   26.4805 C   0  0  0  0  0  0  0  0  0  0  0  0
    8.4175  -13.3895   26.2704 C   0  0  0  0  0  0  0  0  0  0  0  0
    7.6181  -14.4980   26.2107 C   0  0  0  0  0  0  0  0  0  0  0  0
    8.1950  -15.8291   25.9854 C   0  0  0  0  0  0  0  0  0  0  0  0
    9.6284  -15.7226   25.5985 C   0  0  2  0  0  0  0  0  0  0  0  0
    9.7968  -15.8427   24.1395 N   0  0  0  0  0  0  0  0  0  0  0  0
   10.5566  -16.6108   26.3073 C   0  0  0  0  0  0  0  0  0  0  0  0
   10.5547  -16.5859   27.5859 O   0  0  0  0  0  0  0  0  0  0  0  0
    6.2381  -14.3771   26.3639 C   0  0  0  0  0  0  0  0  0  0  0  0
    5.7472  -13.1066   26.5731 C   0  0  0  0  0  0  0  0  0  0  0  0
   11.4491  -17.4894   25.7312 O   0  0  0  0  0  0  0  0  0  0  0  0
  2  3  1  0
  2  1  1  1
  4  3  1  0
  5  4  1  0
  6  5  2  0
  7  2  1  0
  8  7  2  0
  9  5  1  0
 10 11  1  0
 11 12  2  0
 11 13  1  0
 13 14  1  0
 15 14  1  1
 15 16  1  0
 16  7  1  0
 17 15  1  0
 17 18  2  0
 19 20  1  0
 20 21  2  0
 21 22  1  0
 23 22  2  0
 23 24  1  0
 25 24  1  6
 25 26  1  0
 26 17  1  0
 27 25  1  0
 28 27  2  0
 29 23  1  0
 30 20  1  0
 30 29  2  0
 31 27  1  0
M  END
$$$$
