EQY.pdb
     RDKit          3D

 31 31  0  0  1  0  0  0  0  0999 V2000
    9.5229  -17.1603   20.5961 N   0  0  0  0  0  0  0  0  0  0  0  0
    8.4433  -16.2366   20.8862 C   0  0  1  0  0  0  0  0  0  0  0  0
    7.4046  -16.3162   19.7828 C   0  0  0  0  0  0  0  0  0  0  0  0
    8.0036  -16.7900   18.4912 C   0  0  0  0  0  0  0  0  0  0  0  0
    6.9450  -16.8018   17.4500 C   0  0  0  0  0  0  0  0  0  0  0  0
    6.5843  -15.7450   16.8769 O   0  0  0  0  0  0  0  0  0  0  0  0
    7.8486  -16.5284   22.2127 C   0  0  0  0  0  0  0  0  0  0  0  0
    6.9146  -15.8057   22.6188 O   0  0  0  0  0  0  0  0  0  0  0  0
    6.3223  -17.9840   17.0796 O   0  0  0  0  0  0  0  0  0  0  0  0
    7.2919  -22.0667   25.5049 N   0  0  0  0  0  0  0  0  0  0  0  0
    7.0199  -20.9874   26.4058 C   0  0  0  0  0  0  0  0  0  0  0  0
    6.5771  -21.3086   27.5278 O   0  0  0  0  0  0  0  0  0  0  0  0
    7.2365  -19.5947   26.0511 C   0  0  0  0  0  0  0  0  0  0  0  0
    7.6997  -19.2828   24.6852 C   0  0  0  0  0  0  0  0  0  0  0  0
    7.8681  -17.8637   24.3028 C   0  0  2  0  0  0  0  0  0  0  0  0
    8.3525  -17.6181   22.9880 N   0  0  0  0  0  0  0  0  0  0  0  0
    8.6949  -17.1319   25.3322 C   0  0  0  0  0  0  0  0  0  0  0  0
    9.9510  -17.1597   25.2859 O   0  0  0  0  0  0  0  0  0  0  0  0
    7.1216  -11.0209   23.7100 O   0  0  0  0  0  0  0  0  0  0  0  0
    7.3855  -11.9033   24.7711 C   0  0  0  0  0  0  0  0  0  0  0  0
    8.6895  -12.0375   25.2154 C   0  0  0  0  0  0  0  0  0  0  0  0
    8.9373  -12.9056   26.2570 C   0  0  0  0  0  0  0  0  0  0  0  0
    7.9451  -13.6304   26.8583 C   0  0  0  0  0  0  0  0  0  0  0  0
    8.2485  -14.5452   27.9657 C   0  0  0  0  0  0  0  0  0  0  0  0
    8.8789  -15.7945   27.4584 C   0  0  2  0  0  0  0  0  0  0  0  0
    8.0774  -16.3946   26.3772 N   0  0  0  0  0  0  0  0  0  0  0  0
    9.2286  -16.7985   28.4697 C   0  0  0  0  0  0  0  0  0  0  0  0
    9.9401  -16.4267   29.4651 O   0  0  0  0  0  0  0  0  0  0  0  0
    6.6260  -13.5087   26.4248 C   0  0  0  0  0  0  0  0  0  0  0  0
    6.3945  -12.6372   25.3828 C   0  0  0  0  0  0  0  0  0  0  0  0
    8.8638  -18.1278   28.4630 O   0  0  0  0  0  0  0  0  0  0  0  0
  2  3  1  0
  2  1  1  6
  4  3  1  0
  5  4  1  0
  6  5  2  0
  7  2  1  0
  8  7  2  0
  9  5  1  0
 10 11  1  0
 11 12  2  0
 11 13  1  0
 13 14  1  0
 15 14  1  1
 15 16  1  0
 16  7  1  0
 17 15  1  0
 17 18  2  0
 19 20  1  0
 20 21  2  0
 21 22  1  0
 23 22  2  0
 23 24  1  0
 25 24  1  1
 25 26  1  0
 26 17  1  0
 27 25  1  0
 28 27  2  0
 29 23  1  0
 30 20  1  0
 30 29  2  0
 31 27  1  0
M  END
$$$$
