EQY.pdb
     RDKit          3D

 31 31  0  0  1  0  0  0  0  0999 V2000
    8.5595  -12.5162   18.5760 N   0  0  0  0  0  0  0  0  0  0  0  0
    8.6004  -13.9065   18.9863 C   0  0  1  0  0  0  0  0  0  0  0  0
    9.9229  -14.5167   18.5608 C   0  0  0  0  0  0  0  0  0  0  0  0
   11.0386  -13.5149   18.6166 C   0  0  0  0  0  0  0  0  0  0  0  0
   12.2986  -14.1799   18.1982 C   0  0  0  0  0  0  0  0  0  0  0  0
   13.3879  -13.5565   18.1784 O   0  0  0  0  0  0  0  0  0  0  0  0
    8.3944  -14.0253   20.4498 C   0  0  0  0  0  0  0  0  0  0  0  0
    9.2577  -13.5451   21.2138 O   0  0  0  0  0  0  0  0  0  0  0  0
   12.3087  -15.5127   17.8161 O   0  0  0  0  0  0  0  0  0  0  0  0
    5.0049  -19.3704   21.4738 N   0  0  0  0  0  0  0  0  0  0  0  0
    5.3817  -18.8946   22.7707 C   0  0  0  0  0  0  0  0  0  0  0  0
    4.9675  -19.5620   23.7409 O   0  0  0  0  0  0  0  0  0  0  0  0
    6.1940  -17.7053   22.9655 C   0  0  0  0  0  0  0  0  0  0  0  0
    6.5529  -16.8997   21.7825 C   0  0  0  0  0  0  0  0  0  0  0  0
    7.3173  -15.6493   21.9843 C   0  0  2  0  0  0  0  0  0  0  0  0
    7.2253  -14.6796   20.9475 N   0  0  0  0  0  0  0  0  0  0  0  0
    8.7579  -15.9563   22.3149 C   0  0  0  0  0  0  0  0  0  0  0  0
    9.6931  -15.3170   21.7696 O   0  0  0  0  0  0  0  0  0  0  0  0
   10.5159  -14.0860   30.3084 O   0  0  0  0  0  0  0  0  0  0  0  0
   10.0570  -14.4208   29.0232 C   0  0  0  0  0  0  0  0  0  0  0  0
   10.8217  -15.2728   28.2453 C   0  0  0  0  0  0  0  0  0  0  0  0
   10.3623  -15.5949   26.9864 C   0  0  0  0  0  0  0  0  0  0  0  0
    9.1868  -15.1039   26.4878 C   0  0  0  0  0  0  0  0  0  0  0  0
    8.7303  -15.4704   25.1414 C   0  0  0  0  0  0  0  0  0  0  0  0
    9.4994  -16.6352   24.6242 C   0  0  2  0  0  0  0  0  0  0  0  0
    9.0939  -16.9727   23.2483 N   0  0  0  0  0  0  0  0  0  0  0  0
    9.5107  -17.8308   25.4746 C   0  0  0  0  0  0  0  0  0  0  0  0
    8.4728  -18.0770   26.1798 O   0  0  0  0  0  0  0  0  0  0  0  0
    8.4031  -14.2446   27.2561 C   0  0  0  0  0  0  0  0  0  0  0  0
    8.8759  -13.9321   28.5122 C   0  0  0  0  0  0  0  0  0  0  0  0
   10.5417  -18.7377   25.5972 O   0  0  0  0  0  0  0  0  0  0  0  0
  2  3  1  0
  2  1  1  1
  4  3  1  0
  5  4  1  0
  6  5  2  0
  7  2  1  0
  8  7  2  0
  9  5  1  0
 10 11  1  0
 11 12  2  0
 11 13  1  0
 13 14  1  0
 15 14  1  6
 15 16  1  0
 16  7  1  0
 17 15  1  0
 17 18  2  0
 19 20  1  0
 20 21  2  0
 21 22  1  0
 23 22  2  0
 23 24  1  0
 25 24  1  1
 25 26  1  0
 26 17  1  0
 27 25  1  0
 28 27  2  0
 29 23  1  0
 30 20  1  0
 30 29  2  0
 31 27  1  0
M  END
$$$$
