RSK.pdb
     RDKit          3D

 27 26  0  0  1  0  0  0  0  0999 V2000
    7.3153  -12.8312   19.3861 N   0  0  0  0  0  0  0  0  0  0  0  0
    7.9970  -13.2674   18.2309 C   0  0  0  0  0  0  0  0  0  0  0  0
    7.6298  -12.9031   17.0668 N   0  0  0  0  0  0  0  0  0  0  0  0
    9.0961  -14.1409   18.3454 N   0  0  0  0  0  0  0  0  0  0  0  0
    9.2149  -15.2043   19.3084 C   0  0  0  0  0  0  0  0  0  0  0  0
    8.8868  -16.5591   18.8145 C   0  0  0  0  0  0  0  0  0  0  0  0
    8.9880  -17.7308   19.6912 C   0  0  0  0  0  0  0  0  0  0  0  0
    7.9585  -17.9302   20.7404 C   0  0  2  0  0  0  0  0  0  0  0  0
    6.6497  -17.4773   20.5348 N   0  0  0  0  0  0  0  0  0  0  0  0
    8.5220  -17.4793   22.0696 C   0  0  0  0  0  0  0  0  0  0  0  0
    9.7575  -17.2689   22.1049 O   0  0  0  0  0  0  0  0  0  0  0  0
    8.0343  -13.1852   16.1542 O   0  0  0  0  0  0  0  0  0  0  0  0
    6.1863  -17.3991   25.5045 C   0  0  0  0  0  0  0  0  0  0  0  0
    7.2456  -16.4911   25.4176 C   0  0  1  0  0  0  0  0  0  0  0  0
    8.3444  -17.0306   24.5336 N   0  0  0  0  0  0  0  0  0  0  0  0
    7.7610  -17.2910   23.2279 C   0  0  0  0  0  0  0  0  0  0  0  0
    8.9745  -18.2476   25.1109 O   0  0  0  0  0  0  0  0  0  0  0  0
    9.0282  -19.3617   24.5705 N   0  0  0  0  0  0  0  0  0  0  0  0
    9.5669  -18.1140   26.3979 C   0  0  1  0  0  0  0  0  0  0  0  0
   10.2844  -19.1816   27.0334 C   0  0  0  0  0  0  0  0  0  0  0  0
   11.2713  -19.9286   26.2338 C   0  0  0  0  0  0  0  0  0  0  0  0
   12.0733  -21.0095   26.8002 C   0  0  0  0  0  0  0  0  0  0  0  0
   13.1012  -21.6552   25.9326 C   0  0  0  0  0  0  0  0  0  0  0  0
   13.7426  -22.8004   26.7254 N   0  0  0  0  0  0  0  0  0  0  0  0
   14.7859  -23.3935   25.9245 C   0  0  0  0  0  0  0  0  0  0  0  0
   10.7362  -18.8354   28.3960 O   0  0  0  0  0  0  0  0  0  0  0  0
   10.8799  -17.6300   28.6871 O   0  0  0  0  0  0  0  0  0  0  0  0
  2  3  2  0
  2  1  1  0
  4  5  1  0
  4  2  1  0
  6  5  1  0
  7  6  1  0
  8  7  1  0
  8 10  1  0
  8  9  1  6
 10 11  2  0
 14 13  1  6
 13 12  1  0
 15 14  1  0
 15 10  1  0
 16 17  2  0
 16 14  1  0
 18 16  1  0
 19 25  1  0
 19 18  1  0
 19 20  1  1
 21 20  1  0
 22 21  1  0
 23 24  1  0
 23 22  1  0
 25 27  1  0
 26 25  2  0
M  END
$$$$
