RSK.pdb
     RDKit          3D

 27 26  0  0  1  0  0  0  0  0999 V2000
    9.1884  -11.3703   19.6132 N   0  0  0  0  0  0  0  0  0  0  0  0
    9.2487  -12.7794   19.5975 C   0  0  0  0  0  0  0  0  0  0  0  0
   10.3302  -13.4000   19.8584 N   0  0  0  0  0  0  0  0  0  0  0  0
    8.1050  -13.5331   19.2684 N   0  0  0  0  0  0  0  0  0  0  0  0
    8.0017  -14.9663   19.3554 C   0  0  0  0  0  0  0  0  0  0  0  0
    7.0557  -15.4827   20.3681 C   0  0  0  0  0  0  0  0  0  0  0  0
    7.5324  -16.0149   21.6491 C   0  0  0  0  0  0  0  0  0  0  0  0
    7.8303  -17.4642   21.7552 C   0  0  2  0  0  0  0  0  0  0  0  0
    6.9220  -18.4060   21.2569 N   0  0  0  0  0  0  0  0  0  0  0  0
    8.2600  -17.7721   23.1724 C   0  0  0  0  0  0  0  0  0  0  0  0
    7.3488  -17.8049   24.0328 O   0  0  0  0  0  0  0  0  0  0  0  0
   10.4984  -14.4234   19.8359 O   0  0  0  0  0  0  0  0  0  0  0  0
   12.1596  -18.9346   24.1801 C   0  0  0  0  0  0  0  0  0  0  0  0
   11.0293  -19.4042   24.8554 C   0  0  1  0  0  0  0  0  0  0  0  0
    9.9644  -18.3360   24.9277 N   0  0  0  0  0  0  0  0  0  0  0  0
    9.5810  -18.0139   23.5630 C   0  0  0  0  0  0  0  0  0  0  0  0
   10.4320  -17.1349   25.6693 O   0  0  0  0  0  0  0  0  0  0  0  0
   11.1884  -16.2587   25.2265 N   0  0  0  0  0  0  0  0  0  0  0  0
    9.9652  -16.9841   27.0051 C   0  0  1  0  0  0  0  0  0  0  0  0
   10.2965  -15.8479   27.8164 C   0  0  0  0  0  0  0  0  0  0  0  0
    9.2162  -14.9134   28.1783 C   0  0  0  0  0  0  0  0  0  0  0  0
    8.7470  -13.8756   27.2645 C   0  0  0  0  0  0  0  0  0  0  0  0
    7.2909  -13.5505   27.2533 C   0  0  0  0  0  0  0  0  0  0  0  0
    7.0596  -12.4343   26.2275 N   0  0  0  0  0  0  0  0  0  0  0  0
    5.6442  -12.1688   26.1398 C   0  0  0  0  0  0  0  0  0  0  0  0
   11.2122  -16.1842   28.9249 O   0  0  0  0  0  0  0  0  0  0  0  0
   11.3833  -17.3871   29.2114 O   0  0  0  0  0  0  0  0  0  0  0  0
  2  3  2  0
  2  1  1  0
  4  5  1  0
  4  2  1  0
  6  5  1  0
  7  6  1  0
  8  7  1  0
  8 10  1  0
  8  9  1  1
 10 11  2  0
 14 13  1  1
 13 12  1  0
 15 14  1  0
 15 10  1  0
 16 17  2  0
 16 14  1  0
 18 16  1  0
 19 25  1  0
 19 18  1  0
 19 20  1  1
 21 20  1  0
 22 21  1  0
 23 24  1  0
 23 22  1  0
 25 27  1  0
 26 25  2  0
M  END
$$$$
