RSK.pdb
     RDKit          3D

 27 26  0  0  1  0  0  0  0  0999 V2000
    6.9608  -13.5364   19.7870 N   0  0  0  0  0  0  0  0  0  0  0  0
    8.0647  -13.1935   18.9787 C   0  0  0  0  0  0  0  0  0  0  0  0
    8.3892  -11.9777   18.7801 N   0  0  0  0  0  0  0  0  0  0  0  0
    8.8237  -14.2016   18.3528 N   0  0  0  0  0  0  0  0  0  0  0  0
    8.5519  -15.6133   18.4282 C   0  0  0  0  0  0  0  0  0  0  0  0
    8.5605  -16.1983   19.7865 C   0  0  0  0  0  0  0  0  0  0  0  0
    9.8181  -16.5687   20.4444 C   0  0  0  0  0  0  0  0  0  0  0  0
    9.7668  -17.4212   21.6573 C   0  0  2  0  0  0  0  0  0  0  0  0
    8.8087  -18.4368   21.7616 N   0  0  0  0  0  0  0  0  0  0  0  0
    9.7998  -16.5324   22.8807 C   0  0  0  0  0  0  0  0  0  0  0  0
   10.7844  -15.7628   22.9800 O   0  0  0  0  0  0  0  0  0  0  0  0
    9.0793  -11.6057   18.1008 O   0  0  0  0  0  0  0  0  0  0  0  0
    6.6662  -16.3332   25.6158 C   0  0  0  0  0  0  0  0  0  0  0  0
    7.5429  -15.2573   25.4486 C   0  0  1  0  0  0  0  0  0  0  0  0
    8.9293  -15.7434   25.0997 N   0  0  0  0  0  0  0  0  0  0  0  0
    8.8197  -16.5243   23.8785 C   0  0  0  0  0  0  0  0  0  0  0  0
    9.5373  -16.5291   26.2062 O   0  0  0  0  0  0  0  0  0  0  0  0
    9.5053  -17.7626   26.3220 N   0  0  0  0  0  0  0  0  0  0  0  0
   10.2149  -15.7930   27.2183 C   0  0  1  0  0  0  0  0  0  0  0  0
   10.8571  -16.4248   28.3351 C   0  0  0  0  0  0  0  0  0  0  0  0
   12.2287  -16.9315   28.1530 C   0  0  0  0  0  0  0  0  0  0  0  0
   12.5972  -18.3089   28.4677 C   0  0  0  0  0  0  0  0  0  0  0  0
   13.9973  -18.7455   28.1932 C   0  0  0  0  0  0  0  0  0  0  0  0
   14.0964  -20.2458   28.4944 N   0  0  0  0  0  0  0  0  0  0  0  0
   15.4074  -20.7115   28.1125 C   0  0  0  0  0  0  0  0  0  0  0  0
   10.6335  -15.7055   29.6052 O   0  0  0  0  0  0  0  0  0  0  0  0
   10.2647  -14.5139   29.5574 O   0  0  0  0  0  0  0  0  0  0  0  0
  2  3  2  0
  2  1  1  0
  4  5  1  0
  4  2  1  0
  6  5  1  0
  7  6  1  0
  8  7  1  0
  8 10  1  0
  8  9  1  6
 10 11  2  0
 14 13  1  6
 13 12  1  0
 15 14  1  0
 15 10  1  0
 16 17  2  0
 16 14  1  0
 18 16  1  0
 19 25  1  0
 19 18  1  0
 19 20  1  1
 21 20  1  0
 22 21  1  0
 23 24  1  0
 23 22  1  0
 25 27  1  0
 26 25  2  0
M  END
$$$$
