RSK.pdb
     RDKit          3D

 27 26  0  0  1  0  0  0  0  0999 V2000
    6.5389  -19.3389   19.6260 N   0  0  0  0  0  0  0  0  0  0  0  0
    7.9105  -19.2907   19.3004 C   0  0  0  0  0  0  0  0  0  0  0  0
    8.4627  -20.2132   18.6171 N   0  0  0  0  0  0  0  0  0  0  0  0
    8.7070  -18.2190   19.7487 N   0  0  0  0  0  0  0  0  0  0  0  0
    8.2751  -17.1844   20.6518 C   0  0  0  0  0  0  0  0  0  0  0  0
    7.4179  -16.1331   20.0627 C   0  0  0  0  0  0  0  0  0  0  0  0
    7.9791  -14.8448   19.6420 C   0  0  0  0  0  0  0  0  0  0  0  0
    7.5892  -13.6191   20.3812 C   0  0  2  0  0  0  0  0  0  0  0  0
    7.7274  -12.3625   19.7794 N   0  0  0  0  0  0  0  0  0  0  0  0
    8.2020  -13.6666   21.7632 C   0  0  0  0  0  0  0  0  0  0  0  0
    9.4103  -13.3426   21.8449 O   0  0  0  0  0  0  0  0  0  0  0  0
    9.4669  -20.3134   18.3770 O   0  0  0  0  0  0  0  0  0  0  0  0
    6.0271  -14.3474   25.3320 C   0  0  0  0  0  0  0  0  0  0  0  0
    7.1814  -13.5647   25.2366 C   0  0  1  0  0  0  0  0  0  0  0  0
    8.1425  -14.1457   24.2272 N   0  0  0  0  0  0  0  0  0  0  0  0
    7.5131  -14.0426   22.9209 C   0  0  0  0  0  0  0  0  0  0  0  0
    8.5110  -15.5486   24.5547 O   0  0  0  0  0  0  0  0  0  0  0  0
    7.8623  -16.5589   24.2475 N   0  0  0  0  0  0  0  0  0  0  0  0
    9.7170  -15.7409   25.2854 C   0  0  1  0  0  0  0  0  0  0  0  0
   10.1576  -17.0341   25.7237 C   0  0  0  0  0  0  0  0  0  0  0  0
   11.3376  -17.6254   25.0686 C   0  0  0  0  0  0  0  0  0  0  0  0
   11.3897  -17.8646   23.6290 C   0  0  0  0  0  0  0  0  0  0  0  0
   12.6642  -18.3733   23.0435 C   0  0  0  0  0  0  0  0  0  0  0  0
   12.4947  -18.4436   21.5211 N   0  0  0  0  0  0  0  0  0  0  0  0
   13.7096  -18.9624   20.9410 C   0  0  0  0  0  0  0  0  0  0  0  0
   10.1369  -17.1775   27.1932 O   0  0  0  0  0  0  0  0  0  0  0  0
   10.3686  -18.3013   27.6849 O   0  0  0  0  0  0  0  0  0  0  0  0
  2  3  2  0
  2  1  1  0
  4  5  1  0
  4  2  1  0
  6  5  1  0
  7  6  1  0
  8  7  1  0
  8 10  1  0
  8  9  1  6
 10 11  2  0
 14 13  1  6
 13 12  1  0
 15 14  1  0
 15 10  1  0
 16 17  2  0
 16 14  1  0
 18 16  1  0
 19 25  1  0
 19 18  1  0
 19 20  1  1
 21 20  1  0
 22 21  1  0
 23 24  1  0
 23 22  1  0
 25 27  1  0
 26 25  2  0
M  END
$$$$
