RSK.pdb
     RDKit          3D

 27 26  0  0  1  0  0  0  0  0999 V2000
    7.5369  -13.5699   16.8811 N   0  0  0  0  0  0  0  0  0  0  0  0
    7.3820  -13.8689   15.5114 C   0  0  0  0  0  0  0  0  0  0  0  0
    6.6097  -13.1829   14.7659 N   0  0  0  0  0  0  0  0  0  0  0  0
    8.0711  -14.9578   14.9424 N   0  0  0  0  0  0  0  0  0  0  0  0
    9.2110  -15.6154   15.5260 C   0  0  0  0  0  0  0  0  0  0  0  0
    8.9658  -16.3112   16.8077 C   0  0  0  0  0  0  0  0  0  0  0  0
   10.0516  -16.9940   17.5195 C   0  0  0  0  0  0  0  0  0  0  0  0
   11.2151  -16.1984   17.9819 C   0  0  2  0  0  0  0  0  0  0  0  0
   12.5172  -16.6465   17.7288 N   0  0  0  0  0  0  0  0  0  0  0  0
   11.0061  -15.8254   19.4327 C   0  0  0  0  0  0  0  0  0  0  0  0
   11.7822  -16.3599   20.2596 O   0  0  0  0  0  0  0  0  0  0  0  0
    6.4497  -13.2885   13.7464 O   0  0  0  0  0  0  0  0  0  0  0  0
    7.4244  -14.5528   21.0995 C   0  0  0  0  0  0  0  0  0  0  0  0
    8.5618  -13.7928   21.3874 C   0  0  1  0  0  0  0  0  0  0  0  0
    9.8100  -14.6373   21.2934 N   0  0  0  0  0  0  0  0  0  0  0  0
   10.0214  -14.9426   19.8880 C   0  0  0  0  0  0  0  0  0  0  0  0
    9.7098  -15.8704   22.1185 O   0  0  0  0  0  0  0  0  0  0  0  0
    9.2200  -16.9487   21.7536 N   0  0  0  0  0  0  0  0  0  0  0  0
   10.2245  -15.7989   23.4434 C   0  0  1  0  0  0  0  0  0  0  0  0
   10.1440  -16.8963   24.3643 C   0  0  0  0  0  0  0  0  0  0  0  0
   11.3301  -17.7553   24.5275 C   0  0  0  0  0  0  0  0  0  0  0  0
   12.0168  -18.3575   23.3882 C   0  0  0  0  0  0  0  0  0  0  0  0
   13.2511  -19.1544   23.6486 C   0  0  0  0  0  0  0  0  0  0  0  0
   13.7709  -19.6805   22.3053 N   0  0  0  0  0  0  0  0  0  0  0  0
   14.9555  -20.4696   22.5415 C   0  0  0  0  0  0  0  0  0  0  0  0
    9.4718  -16.5340   25.6282 O   0  0  0  0  0  0  0  0  0  0  0  0
    9.2122  -15.3316   25.8409 O   0  0  0  0  0  0  0  0  0  0  0  0
  2  3  2  0
  2  1  1  0
  4  5  1  0
  4  2  1  0
  6  5  1  0
  7  6  1  0
  8  7  1  0
  8 10  1  0
  8  9  1  1
 10 11  2  0
 14 13  1  6
 13 12  1  0
 15 14  1  0
 15 10  1  0
 16 17  2  0
 16 14  1  0
 18 16  1  0
 19 25  1  0
 19 18  1  0
 19 20  1  1
 21 20  1  0
 22 21  1  0
 23 24  1  0
 23 22  1  0
 25 27  1  0
 26 25  2  0
M  END
$$$$
