RSK.pdb
     RDKit          3D

 27 26  0  0  1  0  0  0  0  0999 V2000
    9.6366  -15.1764   15.8788 N   0  0  0  0  0  0  0  0  0  0  0  0
    8.4647  -14.7841   15.1989 C   0  0  0  0  0  0  0  0  0  0  0  0
    8.5089  -14.3259   14.0111 N   0  0  0  0  0  0  0  0  0  0  0  0
    7.2124  -14.8737   15.8377 N   0  0  0  0  0  0  0  0  0  0  0  0
    6.7755  -14.0426   16.9289 C   0  0  0  0  0  0  0  0  0  0  0  0
    7.8215  -13.2114   17.5633 C   0  0  0  0  0  0  0  0  0  0  0  0
    8.1042  -13.3142   18.9989 C   0  0  0  0  0  0  0  0  0  0  0  0
    9.2577  -14.1339   19.4439 C   0  0  2  0  0  0  0  0  0  0  0  0
    9.8296  -15.0713   18.5752 N   0  0  0  0  0  0  0  0  0  0  0  0
    8.9435  -14.7230   20.8012 C   0  0  0  0  0  0  0  0  0  0  0  0
    8.3674  -13.9630   21.6150 O   0  0  0  0  0  0  0  0  0  0  0  0
    7.7125  -14.0783   13.3941 O   0  0  0  0  0  0  0  0  0  0  0  0
    9.7677  -18.7221   21.8073 C   0  0  0  0  0  0  0  0  0  0  0  0
    8.5933  -18.0826   22.2147 C   0  0  1  0  0  0  0  0  0  0  0  0
    8.8374  -16.6115   22.4523 N   0  0  0  0  0  0  0  0  0  0  0  0
    9.2531  -16.0315   21.1859 C   0  0  0  0  0  0  0  0  0  0  0  0
    9.8432  -16.3813   23.5231 O   0  0  0  0  0  0  0  0  0  0  0  0
   11.0682  -16.2892   23.3592 N   0  0  0  0  0  0  0  0  0  0  0  0
    9.3483  -16.2560   24.8515 C   0  0  1  0  0  0  0  0  0  0  0  0
   10.2119  -16.1901   25.9954 C   0  0  0  0  0  0  0  0  0  0  0  0
    9.7454  -15.4428   27.1766 C   0  0  0  0  0  0  0  0  0  0  0  0
   10.5356  -15.3516   28.4012 C   0  0  0  0  0  0  0  0  0  0  0  0
   10.0181  -14.5027   29.5136 C   0  0  0  0  0  0  0  0  0  0  0  0
   10.9940  -14.6135   30.6913 N   0  0  0  0  0  0  0  0  0  0  0  0
   10.5164  -13.7842   31.7711 C   0  0  0  0  0  0  0  0  0  0  0  0
   10.8527  -17.4844   26.3034 O   0  0  0  0  0  0  0  0  0  0  0  0
   10.1432  -18.5114   26.3174 O   0  0  0  0  0  0  0  0  0  0  0  0
  2  3  2  0
  2  1  1  0
  4  5  1  0
  4  2  1  0
  6  5  1  0
  7  6  1  0
  8  7  1  0
  8 10  1  0
  8  9  1  6
 10 11  2  0
 14 13  1  6
 13 12  1  0
 15 14  1  0
 15 10  1  0
 16 17  2  0
 16 14  1  0
 18 16  1  0
 19 25  1  0
 19 18  1  0
 19 20  1  1
 21 20  1  0
 22 21  1  0
 23 24  1  0
 23 22  1  0
 25 27  1  0
 26 25  2  0
M  END
$$$$
