RSK.pdb
     RDKit          3D

 27 26  0  0  1  0  0  0  0  0999 V2000
    9.2258  -13.2198   16.8457 N   0  0  0  0  0  0  0  0  0  0  0  0
    8.5251  -13.0444   18.0572 C   0  0  0  0  0  0  0  0  0  0  0  0
    8.8500  -12.1327   18.8854 N   0  0  0  0  0  0  0  0  0  0  0  0
    7.4542  -13.8986   18.3854 N   0  0  0  0  0  0  0  0  0  0  0  0
    6.7059  -13.8576   19.6145 C   0  0  0  0  0  0  0  0  0  0  0  0
    7.4541  -14.2266   20.8357 C   0  0  0  0  0  0  0  0  0  0  0  0
    7.3937  -15.5876   21.3796 C   0  0  0  0  0  0  0  0  0  0  0  0
    8.5312  -16.5074   21.1335 C   0  0  2  0  0  0  0  0  0  0  0  0
    8.4610  -17.4502   20.1008 N   0  0  0  0  0  0  0  0  0  0  0  0
    8.9541  -17.1237   22.4484 C   0  0  0  0  0  0  0  0  0  0  0  0
    8.7050  -18.3438   22.5940 O   0  0  0  0  0  0  0  0  0  0  0  0
    8.4078  -11.9144   19.7980 O   0  0  0  0  0  0  0  0  0  0  0  0
   12.1874  -17.5527   23.8077 C   0  0  0  0  0  0  0  0  0  0  0  0
   11.0296  -18.1208   24.3473 C   0  0  1  0  0  0  0  0  0  0  0  0
   10.0287  -17.0521   24.7165 N   0  0  0  0  0  0  0  0  0  0  0  0
    9.5888  -16.4255   23.4809 C   0  0  0  0  0  0  0  0  0  0  0  0
   10.5996  -16.0610   25.6669 O   0  0  0  0  0  0  0  0  0  0  0  0
   11.5534  -15.3036   25.4380 N   0  0  0  0  0  0  0  0  0  0  0  0
    9.9915  -15.9800   26.9509 C   0  0  1  0  0  0  0  0  0  0  0  0
   10.3482  -14.9776   27.9136 C   0  0  0  0  0  0  0  0  0  0  0  0
    9.3165  -14.0082   28.3227 C   0  0  0  0  0  0  0  0  0  0  0  0
    8.5255  -13.2579   27.3513 C   0  0  0  0  0  0  0  0  0  0  0  0
    7.1065  -12.9437   27.6885 C   0  0  0  0  0  0  0  0  0  0  0  0
    6.5512  -12.0191   26.5984 N   0  0  0  0  0  0  0  0  0  0  0  0
    5.2243  -11.5977   26.9770 C   0  0  0  0  0  0  0  0  0  0  0  0
   11.1589  -15.5147   29.0248 O   0  0  0  0  0  0  0  0  0  0  0  0
   11.5730  -14.7228   29.8964 O   0  0  0  0  0  0  0  0  0  0  0  0
  2  3  2  0
  2  1  1  0
  4  5  1  0
  4  2  1  0
  6  5  1  0
  7  6  1  0
  8  7  1  0
  8 10  1  0
  8  9  1  6
 10 11  2  0
 14 13  1  6
 13 12  1  0
 15 14  1  0
 15 10  1  0
 16 17  2  0
 16 14  1  0
 18 16  1  0
 19 25  1  0
 19 18  1  0
 19 20  1  1
 21 20  1  0
 22 21  1  0
 23 24  1  0
 23 22  1  0
 25 27  1  0
 26 25  2  0
M  END
$$$$
