RSK.pdb
     RDKit          3D

 27 26  0  0  1  0  0  0  0  0999 V2000
    8.8367  -19.0454   16.2261 N   0  0  0  0  0  0  0  0  0  0  0  0
    9.5320  -20.0914   16.8680 C   0  0  0  0  0  0  0  0  0  0  0  0
   10.3798  -20.8066   16.2416 N   0  0  0  0  0  0  0  0  0  0  0  0
    9.2819  -20.3798   18.2239 N   0  0  0  0  0  0  0  0  0  0  0  0
    8.3925  -19.6392   19.0800 C   0  0  0  0  0  0  0  0  0  0  0  0
    8.6888  -18.1972   19.2221 C   0  0  0  0  0  0  0  0  0  0  0  0
    7.8658  -17.3348   20.0768 C   0  0  0  0  0  0  0  0  0  0  0  0
    8.1802  -15.8867   20.1459 C   0  0  2  0  0  0  0  0  0  0  0  0
    8.7404  -15.2363   19.0398 N   0  0  0  0  0  0  0  0  0  0  0  0
    8.9435  -15.6130   21.4227 C   0  0  0  0  0  0  0  0  0  0  0  0
   10.1739  -15.8517   21.3945 O   0  0  0  0  0  0  0  0  0  0  0  0
   10.9744  -21.5676   16.6204 O   0  0  0  0  0  0  0  0  0  0  0  0
    6.9664  -14.8620   24.9761 C   0  0  0  0  0  0  0  0  0  0  0  0
    8.2128  -14.2498   24.8157 C   0  0  1  0  0  0  0  0  0  0  0  0
    9.0796  -15.0377   23.8629 N   0  0  0  0  0  0  0  0  0  0  0  0
    8.3667  -15.1232   22.5989 C   0  0  0  0  0  0  0  0  0  0  0  0
    9.4157  -16.3828   24.4007 O   0  0  0  0  0  0  0  0  0  0  0  0
    8.7220  -17.4033   24.2859 N   0  0  0  0  0  0  0  0  0  0  0  0
   10.6446  -16.5016   25.1085 C   0  0  1  0  0  0  0  0  0  0  0  0
   11.0842  -17.7362   25.6927 C   0  0  0  0  0  0  0  0  0  0  0  0
   12.3168  -18.3522   25.1707 C   0  0  0  0  0  0  0  0  0  0  0  0
   12.5228  -18.5923   23.7451 C   0  0  0  0  0  0  0  0  0  0  0  0
   13.7950  -18.1183   23.1261 C   0  0  0  0  0  0  0  0  0  0  0  0
   13.7397  -18.4296   21.6256 N   0  0  0  0  0  0  0  0  0  0  0  0
   14.8831  -17.8284   20.9831 C   0  0  0  0  0  0  0  0  0  0  0  0
   10.9716  -17.7442   27.1650 O   0  0  0  0  0  0  0  0  0  0  0  0
   11.2910  -18.7820   27.7807 O   0  0  0  0  0  0  0  0  0  0  0  0
  2  3  2  0
  2  1  1  0
  4  5  1  0
  4  2  1  0
  6  5  1  0
  7  6  1  0
  8  7  1  0
  8 10  1  0
  8  9  1  6
 10 11  2  0
 14 13  1  6
 13 12  1  0
 15 14  1  0
 15 10  1  0
 16 17  2  0
 16 14  1  0
 18 16  1  0
 19 25  1  0
 19 18  1  0
 19 20  1  1
 21 20  1  0
 22 21  1  0
 23 24  1  0
 23 22  1  0
 25 27  1  0
 26 25  2  0
M  END
$$$$
