RSK.pdb
     RDKit          3D

 27 26  0  0  1  0  0  0  0  0999 V2000
    9.6441  -15.1897   16.3638 N   0  0  0  0  0  0  0  0  0  0  0  0
    8.5861  -14.3049   16.0685 C   0  0  0  0  0  0  0  0  0  0  0  0
    8.1162  -14.2030   14.8889 N   0  0  0  0  0  0  0  0  0  0  0  0
    8.0385  -13.4936   17.0815 N   0  0  0  0  0  0  0  0  0  0  0  0
    8.2705  -13.6574   18.4928 C   0  0  0  0  0  0  0  0  0  0  0  0
    8.0985  -15.0291   19.0180 C   0  0  0  0  0  0  0  0  0  0  0  0
    8.2692  -15.3214   20.4453 C   0  0  0  0  0  0  0  0  0  0  0  0
    7.2090  -14.9002   21.3934 C   0  0  2  0  0  0  0  0  0  0  0  0
    6.1415  -14.1114   20.9478 N   0  0  0  0  0  0  0  0  0  0  0  0
    7.8611  -14.3379   22.6369 C   0  0  0  0  0  0  0  0  0  0  0  0
    8.6042  -13.3419   22.4707 O   0  0  0  0  0  0  0  0  0  0  0  0
    7.3868  -13.5488   14.5483 O   0  0  0  0  0  0  0  0  0  0  0  0
    6.3903  -13.8398   26.0961 C   0  0  0  0  0  0  0  0  0  0  0  0
    7.6744  -13.3748   25.7978 C   0  0  1  0  0  0  0  0  0  0  0  0
    8.4724  -14.4303   25.0704 N   0  0  0  0  0  0  0  0  0  0  0  0
    7.6854  -14.8551   23.9245 C   0  0  0  0  0  0  0  0  0  0  0  0
    8.8205  -15.5725   25.9568 O   0  0  0  0  0  0  0  0  0  0  0  0
    8.2422  -16.6682   25.9878 N   0  0  0  0  0  0  0  0  0  0  0  0
    9.9160  -15.3840   26.8452 C   0  0  1  0  0  0  0  0  0  0  0  0
   10.3483  -16.3965   27.7655 C   0  0  0  0  0  0  0  0  0  0  0  0
   11.3496  -17.3740   27.3037 C   0  0  0  0  0  0  0  0  0  0  0  0
   11.8170  -18.4677   28.1508 C   0  0  0  0  0  0  0  0  0  0  0  0
   12.8462  -19.3969   27.6000 C   0  0  0  0  0  0  0  0  0  0  0  0
   13.0826  -20.5097   28.6282 N   0  0  0  0  0  0  0  0  0  0  0  0
   13.9936  -21.4770   28.0659 C   0  0  0  0  0  0  0  0  0  0  0  0
   10.5878  -15.8698   29.1241 O   0  0  0  0  0  0  0  0  0  0  0  0
   10.6236  -14.6324   29.2850 O   0  0  0  0  0  0  0  0  0  0  0  0
  2  3  2  0
  2  1  1  0
  4  5  1  0
  4  2  1  0
  6  5  1  0
  7  6  1  0
  8  7  1  0
  8 10  1  0
  8  9  1  6
 10 11  2  0
 14 13  1  6
 13 12  1  0
 15 14  1  0
 15 10  1  0
 16 17  2  0
 16 14  1  0
 18 16  1  0
 19 25  1  0
 19 18  1  0
 19 20  1  1
 21 20  1  0
 22 21  1  0
 23 24  1  0
 23 22  1  0
 25 27  1  0
 26 25  2  0
M  END
$$$$
