RSK.pdb
     RDKit          3D

 27 26  0  0  1  0  0  0  0  0999 V2000
   16.1294  -13.4628   16.1703 N   0  0  0  0  0  0  0  0  0  0  0  0
   16.3452  -13.2851   17.5528 C   0  0  0  0  0  0  0  0  0  0  0  0
   17.5126  -13.0840   18.0215 N   0  0  0  0  0  0  0  0  0  0  0  0
   15.2627  -13.3486   18.4519 N   0  0  0  0  0  0  0  0  0  0  0  0
   14.8493  -14.5246   19.1720 C   0  0  0  0  0  0  0  0  0  0  0  0
   13.6015  -15.1626   18.6997 C   0  0  0  0  0  0  0  0  0  0  0  0
   12.3362  -14.9770   19.4182 C   0  0  0  0  0  0  0  0  0  0  0  0
   11.1207  -15.6625   18.9150 C   0  0  2  0  0  0  0  0  0  0  0  0
   10.6163  -15.3556   17.6455 N   0  0  0  0  0  0  0  0  0  0  0  0
   10.0538  -15.6137   19.9860 C   0  0  0  0  0  0  0  0  0  0  0  0
    9.3030  -14.6096   19.9747 O   0  0  0  0  0  0  0  0  0  0  0  0
   17.7974  -13.0241   19.0172 O   0  0  0  0  0  0  0  0  0  0  0  0
    9.0580  -18.8732   22.3751 C   0  0  0  0  0  0  0  0  0  0  0  0
    8.1533  -17.8596   22.0460 C   0  0  1  0  0  0  0  0  0  0  0  0
    8.8453  -16.5186   21.9922 N   0  0  0  0  0  0  0  0  0  0  0  0
    9.8661  -16.5993   20.9604 C   0  0  0  0  0  0  0  0  0  0  0  0
    9.4192  -16.1364   23.3098 O   0  0  0  0  0  0  0  0  0  0  0  0
   10.6065  -16.2547   23.6449 N   0  0  0  0  0  0  0  0  0  0  0  0
    8.5199  -15.5863   24.2656 C   0  0  1  0  0  0  0  0  0  0  0  0
    8.8876  -15.3634   25.6345 C   0  0  0  0  0  0  0  0  0  0  0  0
    8.0207  -14.4998   26.4555 C   0  0  0  0  0  0  0  0  0  0  0  0
    7.5836  -13.1819   26.0034 C   0  0  0  0  0  0  0  0  0  0  0  0
    6.6498  -12.4106   26.8747 C   0  0  0  0  0  0  0  0  0  0  0  0
    6.3551  -11.0710   26.1891 N   0  0  0  0  0  0  0  0  0  0  0  0
    5.4529  -10.3114   27.0201 C   0  0  0  0  0  0  0  0  0  0  0  0
    9.3440  -16.5937   26.3116 O   0  0  0  0  0  0  0  0  0  0  0  0
    8.8927  -17.6902   25.9215 O   0  0  0  0  0  0  0  0  0  0  0  0
  2  3  2  0
  2  1  1  0
  4  5  1  0
  4  2  1  0
  6  5  1  0
  7  6  1  0
  8  7  1  0
  8 10  1  0
  8  9  1  6
 10 11  2  0
 14 13  1  6
 13 12  1  0
 15 14  1  0
 15 10  1  0
 16 17  2  0
 16 14  1  0
 18 16  1  0
 19 25  1  0
 19 18  1  0
 19 20  1  1
 21 20  1  0
 22 21  1  0
 23 24  1  0
 23 22  1  0
 25 27  1  0
 26 25  2  0
M  END
$$$$
