VNR.pdb
     RDKit          3D

 27 26  0  0  1  0  0  0  0  0999 V2000
    7.7208  -12.0999   19.2228 C   0  0  0  0  0  0  0  0  0  0  0  0
    8.2097  -13.3109   19.9860 C   0  0  1  0  0  0  0  0  0  0  0  0
    7.3398  -13.5885   21.1683 C   0  0  0  0  0  0  0  0  0  0  0  0
    8.2701  -14.4914   19.0426 C   0  0  2  0  0  0  0  0  0  0  0  0
    7.0093  -14.7746   18.4303 N   0  0  0  0  0  0  0  0  0  0  0  0
    8.6901  -15.6970   19.8195 C   0  0  0  0  0  0  0  0  0  0  0  0
    8.0647  -16.7942   19.6911 O   0  0  0  0  0  0  0  0  0  0  0  0
   11.6293  -19.4998   20.9252 N   0  0  0  0  0  0  0  0  0  0  0  0
   12.1017  -18.5171   20.0312 C   0  0  0  0  0  0  0  0  0  0  0  0
   13.1955  -18.6570   19.4333 O   0  0  0  0  0  0  0  0  0  0  0  0
   11.2972  -17.2984   19.7911 C   0  0  0  0  0  0  0  0  0  0  0  0
   10.6348  -16.7644   21.0400 C   0  0  2  0  0  0  0  0  0  0  0  0
    9.7889  -15.6540   20.7153 N   0  0  0  0  0  0  0  0  0  0  0  0
   11.7021  -16.3691   22.0214 C   0  0  0  0  0  0  0  0  0  0  0  0
   12.6592  -15.6639   21.6420 O   0  0  0  0  0  0  0  0  0  0  0  0
   11.7098  -17.5649   29.8871 N   0  0  0  0  0  0  0  0  0  0  0  0
   11.1572  -16.2603   29.7616 C   0  0  0  0  0  0  0  0  0  0  0  0
   11.1895  -15.4529   30.7765 N   0  0  0  0  0  0  0  0  0  0  0  0
   10.5665  -15.8133   28.5473 N   0  0  0  0  0  0  0  0  0  0  0  0
   10.6800  -16.5609   27.3205 C   0  0  0  0  0  0  0  0  0  0  0  0
   12.0218  -16.5967   26.7697 C   0  0  0  0  0  0  0  0  0  0  0  0
   12.5009  -17.2587   25.5710 C   0  0  0  0  0  0  0  0  0  0  0  0
   12.7502  -16.5231   24.3373 C   0  0  2  0  0  0  0  0  0  0  0  0
   11.6409  -16.7799   23.3598 N   0  0  0  0  0  0  0  0  0  0  0  0
   13.9263  -17.0571   23.5531 C   0  0  0  0  0  0  0  0  0  0  0  0
   13.8790  -18.0503   22.8664 O   0  0  0  0  0  0  0  0  0  0  0  0
   15.1475  -16.3778   23.6173 O   0  0  0  0  0  0  0  0  0  0  0  0
  2  3  1  1
  2  1  1  0
  4  6  1  0
  4  2  1  0
  4  5  1  1
  6  7  2  0
  9 10  2  0
  9  8  1  0
 11  9  1  0
 12 11  1  6
 13  6  1  0
 13 12  1  0
 14 15  2  0
 14 12  1  0
 16 17  1  0
 17 18  2  0
 19 17  1  0
 19 20  1  0
 20 21  1  0
 21 22  1  0
 23 22  1  1
 23 24  1  0
 24 14  1  0
 25 27  1  0
 25 23  1  0
 26 25  2  0
M  END
$$$$
