VNR.pdb
     RDKit          3D

 27 26  0  0  1  0  0  0  0  0999 V2000
    8.4218  -12.2469   19.4030 C   0  0  0  0  0  0  0  0  0  0  0  0
    8.5672  -13.3453   20.4327 C   0  0  1  0  0  0  0  0  0  0  0  0
    7.9661  -12.9406   21.7390 C   0  0  0  0  0  0  0  0  0  0  0  0
    7.9373  -14.6092   19.8913 C   0  0  2  0  0  0  0  0  0  0  0  0
    6.5447  -14.4542   19.6059 N   0  0  0  0  0  0  0  0  0  0  0  0
    8.0839  -15.6874   20.9158 C   0  0  0  0  0  0  0  0  0  0  0  0
    7.1024  -16.0111   21.6530 O   0  0  0  0  0  0  0  0  0  0  0  0
   11.1405  -20.8655   21.8515 N   0  0  0  0  0  0  0  0  0  0  0  0
   10.4335  -19.7322   22.3030 C   0  0  0  0  0  0  0  0  0  0  0  0
    9.8910  -19.7148   23.4338 O   0  0  0  0  0  0  0  0  0  0  0  0
   10.3270  -18.5408   21.4316 C   0  0  0  0  0  0  0  0  0  0  0  0
    9.5458  -17.4097   22.0592 C   0  0  2  0  0  0  0  0  0  0  0  0
    9.3110  -16.3756   21.0951 N   0  0  0  0  0  0  0  0  0  0  0  0
   10.3142  -16.8897   23.2414 C   0  0  0  0  0  0  0  0  0  0  0  0
   11.4910  -16.5024   23.0911 O   0  0  0  0  0  0  0  0  0  0  0  0
    4.7716  -13.0095   26.3253 N   0  0  0  0  0  0  0  0  0  0  0  0
    5.9161  -12.1673   26.2605 C   0  0  0  0  0  0  0  0  0  0  0  0
    5.7592  -10.8841   26.1521 N   0  0  0  0  0  0  0  0  0  0  0  0
    7.2357  -12.6957   26.3117 N   0  0  0  0  0  0  0  0  0  0  0  0
    7.4909  -14.1130   26.3673 C   0  0  0  0  0  0  0  0  0  0  0  0
    8.8949  -14.4586   26.4865 C   0  0  0  0  0  0  0  0  0  0  0  0
    9.5031  -15.7625   26.6734 C   0  0  0  0  0  0  0  0  0  0  0  0
   10.4587  -16.3063   25.7162 C   0  0  2  0  0  0  0  0  0  0  0  0
    9.7303  -16.8320   24.5140 N   0  0  0  0  0  0  0  0  0  0  0  0
   11.1286  -17.5723   26.1975 C   0  0  0  0  0  0  0  0  0  0  0  0
   11.8684  -17.6184   27.1518 O   0  0  0  0  0  0  0  0  0  0  0  0
   10.8931  -18.7669   25.5087 O   0  0  0  0  0  0  0  0  0  0  0  0
  2  3  1  1
  2  1  1  0
  4  6  1  0
  4  2  1  0
  4  5  1  1
  6  7  2  0
  9 10  2  0
  9  8  1  0
 11  9  1  0
 12 11  1  6
 13  6  1  0
 13 12  1  0
 14 15  2  0
 14 12  1  0
 16 17  1  0
 17 18  2  0
 19 17  1  0
 19 20  1  0
 20 21  1  0
 21 22  1  0
 23 22  1  1
 23 24  1  0
 24 14  1  0
 25 27  1  0
 25 23  1  0
 26 25  2  0
M  END
$$$$
