VNR.pdb
     RDKit          3D

 27 26  0  0  1  0  0  0  0  0999 V2000
    4.6732  -18.4154   19.4495 C   0  0  0  0  0  0  0  0  0  0  0  0
    5.1660  -17.9595   20.8049 C   0  0  1  0  0  0  0  0  0  0  0  0
    4.8359  -16.5220   21.0415 C   0  0  0  0  0  0  0  0  0  0  0  0
    4.5709  -18.8557   21.8680 C   0  0  2  0  0  0  0  0  0  0  0  0
    3.1410  -18.8569   21.8526 N   0  0  0  0  0  0  0  0  0  0  0  0
    5.0202  -18.3651   23.2063 C   0  0  0  0  0  0  0  0  0  0  0  0
    4.1709  -18.0976   24.1111 O   0  0  0  0  0  0  0  0  0  0  0  0
    7.3191  -18.4165   27.7291 N   0  0  0  0  0  0  0  0  0  0  0  0
    7.1731  -19.5490   26.9021 C   0  0  0  0  0  0  0  0  0  0  0  0
    7.5884  -20.6753   27.2662 O   0  0  0  0  0  0  0  0  0  0  0  0
    6.5196  -19.4117   25.5814 C   0  0  0  0  0  0  0  0  0  0  0  0
    6.9620  -18.1831   24.8210 C   0  0  2  0  0  0  0  0  0  0  0  0
    6.3951  -18.1848   23.5047 N   0  0  0  0  0  0  0  0  0  0  0  0
    8.4638  -18.1623   24.7685 C   0  0  0  0  0  0  0  0  0  0  0  0
    9.1214  -18.4721   25.7829 O   0  0  0  0  0  0  0  0  0  0  0  0
    7.4364  -12.3816   19.3495 N   0  0  0  0  0  0  0  0  0  0  0  0
    7.7409  -13.7474   19.0939 C   0  0  0  0  0  0  0  0  0  0  0  0
    7.7290  -14.1865   17.8732 N   0  0  0  0  0  0  0  0  0  0  0  0
    8.0599  -14.6506   20.1453 N   0  0  0  0  0  0  0  0  0  0  0  0
    7.9589  -14.2758   21.5332 C   0  0  0  0  0  0  0  0  0  0  0  0
    9.1441  -14.5727   22.3156 C   0  0  0  0  0  0  0  0  0  0  0  0
    9.2708  -15.3844   23.5114 C   0  0  0  0  0  0  0  0  0  0  0  0
   10.0560  -16.6127   23.5237 C   0  0  2  0  0  0  0  0  0  0  0  0
    9.1409  -17.7999   23.5963 N   0  0  0  0  0  0  0  0  0  0  0  0
   10.8429  -16.8034   24.7995 C   0  0  0  0  0  0  0  0  0  0  0  0
   10.3384  -17.0674   25.8654 O   0  0  0  0  0  0  0  0  0  0  0  0
   12.2345  -16.6666   24.7636 O   0  0  0  0  0  0  0  0  0  0  0  0
  2  3  1  1
  2  1  1  0
  4  6  1  0
  4  2  1  0
  4  5  1  1
  6  7  2  0
  9 10  2  0
  9  8  1  0
 11  9  1  0
 12 11  1  6
 13  6  1  0
 13 12  1  0
 14 15  2  0
 14 12  1  0
 16 17  1  0
 17 18  2  0
 19 17  1  0
 19 20  1  0
 20 21  1  0
 21 22  1  0
 23 22  1  1
 23 24  1  0
 24 14  1  0
 25 27  1  0
 25 23  1  0
 26 25  2  0
M  END
$$$$
