VNR.pdb
     RDKit          3D

 27 26  0  0  1  0  0  0  0  0999 V2000
    7.6918  -11.5893   25.1234 C   0  0  0  0  0  0  0  0  0  0  0  0
    7.1183  -12.3405   26.3044 C   0  0  1  0  0  0  0  0  0  0  0  0
    6.4374  -11.4101   27.2542 C   0  0  0  0  0  0  0  0  0  0  0  0
    6.1785  -13.4098   25.7937 C   0  0  2  0  0  0  0  0  0  0  0  0
    5.7549  -14.3097   26.8210 N   0  0  0  0  0  0  0  0  0  0  0  0
    6.8895  -14.2034   24.7457 C   0  0  0  0  0  0  0  0  0  0  0  0
    7.5135  -15.2644   25.0560 O   0  0  0  0  0  0  0  0  0  0  0  0
    8.6260  -13.6751   18.8469 N   0  0  0  0  0  0  0  0  0  0  0  0
    7.9841  -14.4167   19.8597 C   0  0  0  0  0  0  0  0  0  0  0  0
    7.8908  -15.6656   19.7884 O   0  0  0  0  0  0  0  0  0  0  0  0
    7.4091  -13.7144   21.0286 C   0  0  0  0  0  0  0  0  0  0  0  0
    7.5776  -14.4740   22.3241 C   0  0  2  0  0  0  0  0  0  0  0  0
    6.8897  -13.8005   23.3857 N   0  0  0  0  0  0  0  0  0  0  0  0
    9.0452  -14.6040   22.6204 C   0  0  0  0  0  0  0  0  0  0  0  0
    9.7051  -13.5904   22.9279 O   0  0  0  0  0  0  0  0  0  0  0  0
    9.0682  -14.7603   27.4366 N   0  0  0  0  0  0  0  0  0  0  0  0
   10.0018  -15.4918   28.2219 C   0  0  0  0  0  0  0  0  0  0  0  0
   10.1516  -15.1957   29.4761 N   0  0  0  0  0  0  0  0  0  0  0  0
   10.7805  -16.5450   27.6674 N   0  0  0  0  0  0  0  0  0  0  0  0
   11.4347  -16.4220   26.3892 C   0  0  0  0  0  0  0  0  0  0  0  0
   10.7811  -17.1476   25.3162 C   0  0  0  0  0  0  0  0  0  0  0  0
   11.1425  -17.2271   23.9133 C   0  0  0  0  0  0  0  0  0  0  0  0
   11.0920  -16.0595   23.0420 C   0  0  2  0  0  0  0  0  0  0  0  0
    9.6877  -15.8477   22.5572 N   0  0  0  0  0  0  0  0  0  0  0  0
   11.8009  -16.2690   21.7241 C   0  0  0  0  0  0  0  0  0  0  0  0
   11.2722  -16.7428   20.7462 O   0  0  0  0  0  0  0  0  0  0  0  0
   13.1465  -15.9030   21.6133 O   0  0  0  0  0  0  0  0  0  0  0  0
  2  3  1  1
  2  1  1  0
  4  6  1  0
  4  2  1  0
  4  5  1  1
  6  7  2  0
  9 10  2  0
  9  8  1  0
 11  9  1  0
 12 11  1  6
 13  6  1  0
 13 12  1  0
 14 15  2  0
 14 12  1  0
 16 17  1  0
 17 18  2  0
 19 17  1  0
 19 20  1  0
 20 21  1  0
 21 22  1  0
 23 22  1  1
 23 24  1  0
 24 14  1  0
 25 27  1  0
 25 23  1  0
 26 25  2  0
M  END
$$$$
