VNR.pdb
     RDKit          3D

 27 26  0  0  1  0  0  0  0  0999 V2000
   18.7820  -22.1696   28.4005 C   0  0  0  0  0  0  0  0  0  0  0  0
   19.0298  -21.1037   27.3564 C   0  0  1  0  0  0  0  0  0  0  0  0
   20.2989  -21.3643   26.6127 C   0  0  0  0  0  0  0  0  0  0  0  0
   17.8370  -21.0417   26.4287 C   0  0  2  0  0  0  0  0  0  0  0  0
   17.9531  -20.0080   25.4475 N   0  0  0  0  0  0  0  0  0  0  0  0
   16.6155  -20.7706   27.2461 C   0  0  0  0  0  0  0  0  0  0  0  0
   16.3150  -19.5828   27.5782 O   0  0  0  0  0  0  0  0  0  0  0  0
   12.1384  -21.4003   29.7686 N   0  0  0  0  0  0  0  0  0  0  0  0
   12.1022  -21.9212   28.4589 C   0  0  0  0  0  0  0  0  0  0  0  0
   11.0216  -22.2842   27.9355 O   0  0  0  0  0  0  0  0  0  0  0  0
   13.3575  -22.0438   27.6849 C   0  0  0  0  0  0  0  0  0  0  0  0
   14.5863  -21.6562   28.4745 C   0  0  2  0  0  0  0  0  0  0  0  0
   15.7624  -21.8205   27.6721 N   0  0  0  0  0  0  0  0  0  0  0  0
   14.6495  -22.5016   29.7154 C   0  0  0  0  0  0  0  0  0  0  0  0
   14.8380  -23.7312   29.6160 O   0  0  0  0  0  0  0  0  0  0  0  0
   19.2807  -22.2164   33.9717 N   0  0  0  0  0  0  0  0  0  0  0  0
   19.0360  -20.8697   34.3587 C   0  0  0  0  0  0  0  0  0  0  0  0
   20.0154  -20.0189   34.3639 N   0  0  0  0  0  0  0  0  0  0  0  0
   17.7399  -20.4269   34.7426 N   0  0  0  0  0  0  0  0  0  0  0  0
   16.6198  -20.4618   33.8364 C   0  0  0  0  0  0  0  0  0  0  0  0
   15.6408  -21.4877   34.1428 C   0  0  0  0  0  0  0  0  0  0  0  0
   14.4493  -21.8641   33.4056 C   0  0  0  0  0  0  0  0  0  0  0  0
   14.5123  -22.7462   32.2467 C   0  0  2  0  0  0  0  0  0  0  0  0
   14.4998  -21.9312   30.9866 N   0  0  0  0  0  0  0  0  0  0  0  0
   13.2554  -23.5615   32.0500 C   0  0  0  0  0  0  0  0  0  0  0  0
   12.2480  -23.1287   31.5418 O   0  0  0  0  0  0  0  0  0  0  0  0
   13.2381  -24.8931   32.4780 O   0  0  0  0  0  0  0  0  0  0  0  0
  2  3  1  6
  2  1  1  0
  4  6  1  0
  4  2  1  0
  4  5  1  6
  6  7  2  0
  9 10  2  0
  9  8  1  0
 11  9  1  0
 12 11  1  6
 13  6  1  0
 13 12  1  0
 14 15  2  0
 14 12  1  0
 16 17  1  0
 17 18  2  0
 19 17  1  0
 19 20  1  0
 20 21  1  0
 21 22  1  0
 23 22  1  1
 23 24  1  0
 24 14  1  0
 25 27  1  0
 25 23  1  0
 26 25  2  0
M  END
$$$$
