VNR.pdb
     RDKit          3D

 27 26  0  0  1  0  0  0  0  0999 V2000
    7.5655  -13.4461   18.3645 C   0  0  0  0  0  0  0  0  0  0  0  0
    8.4511  -13.5125   19.5889 C   0  0  1  0  0  0  0  0  0  0  0  0
    7.8081  -12.8357   20.7550 C   0  0  0  0  0  0  0  0  0  0  0  0
    8.7686  -14.9614   19.8843 C   0  0  2  0  0  0  0  0  0  0  0  0
    7.5979  -15.7438   20.1339 N   0  0  0  0  0  0  0  0  0  0  0  0
    9.6328  -15.0177   21.1024 C   0  0  0  0  0  0  0  0  0  0  0  0
   10.7646  -14.4429   21.1143 O   0  0  0  0  0  0  0  0  0  0  0  0
    8.5902  -13.5323   25.0737 N   0  0  0  0  0  0  0  0  0  0  0  0
    8.1310  -14.8289   24.7637 C   0  0  0  0  0  0  0  0  0  0  0  0
    6.9134  -15.0547   24.5640 O   0  0  0  0  0  0  0  0  0  0  0  0
    9.0981  -15.9453   24.6713 C   0  0  0  0  0  0  0  0  0  0  0  0
   10.0016  -15.8545   23.4634 C   0  0  2  0  0  0  0  0  0  0  0  0
    9.2203  -15.7076   22.2709 N   0  0  0  0  0  0  0  0  0  0  0  0
   10.8577  -17.0883   23.4067 C   0  0  0  0  0  0  0  0  0  0  0  0
   10.3625  -18.1661   23.0189 O   0  0  0  0  0  0  0  0  0  0  0  0
   12.8028  -20.1004   17.1427 N   0  0  0  0  0  0  0  0  0  0  0  0
   14.1001  -19.5750   17.3958 C   0  0  0  0  0  0  0  0  0  0  0  0
   15.1223  -20.0676   16.7671 N   0  0  0  0  0  0  0  0  0  0  0  0
   14.3095  -18.5182   18.3245 N   0  0  0  0  0  0  0  0  0  0  0  0
   13.2306  -17.9488   19.0919 C   0  0  0  0  0  0  0  0  0  0  0  0
   13.3054  -18.2234   20.5146 C   0  0  0  0  0  0  0  0  0  0  0  0
   13.2814  -17.2934   21.6279 C   0  0  0  0  0  0  0  0  0  0  0  0
   13.2838  -17.7541   23.0110 C   0  0  2  0  0  0  0  0  0  0  0  0
   12.2070  -17.0494   23.7830 N   0  0  0  0  0  0  0  0  0  0  0  0
   14.5027  -17.3085   23.7849 C   0  0  0  0  0  0  0  0  0  0  0  0
   14.6427  -16.1946   24.2322 O   0  0  0  0  0  0  0  0  0  0  0  0
   15.5388  -18.2229   24.0017 O   0  0  0  0  0  0  0  0  0  0  0  0
  2  3  1  1
  2  1  1  0
  4  6  1  0
  4  2  1  0
  4  5  1  1
  6  7  2  0
  9 10  2  0
  9  8  1  0
 11  9  1  0
 12 11  1  1
 13  6  1  0
 13 12  1  0
 14 15  2  0
 14 12  1  0
 16 17  1  0
 17 18  2  0
 19 17  1  0
 19 20  1  0
 20 21  1  0
 21 22  1  0
 23 22  1  6
 23 24  1  0
 24 14  1  0
 25 27  1  0
 25 23  1  0
 26 25  2  0
M  END
$$$$
