VNR.pdb
     RDKit          3D

 27 26  0  0  1  0  0  0  0  0999 V2000
    7.8070  -12.5438   18.0759 C   0  0  0  0  0  0  0  0  0  0  0  0
    8.6526  -12.8492   19.2923 C   0  0  1  0  0  0  0  0  0  0  0  0
    8.0285  -12.2990   20.5329 C   0  0  0  0  0  0  0  0  0  0  0  0
    8.8578  -14.3450   19.3818 C   0  0  2  0  0  0  0  0  0  0  0  0
    7.6274  -15.0666   19.4812 N   0  0  0  0  0  0  0  0  0  0  0  0
    9.6685  -14.6392   20.6024 C   0  0  0  0  0  0  0  0  0  0  0  0
   10.8888  -14.2948   20.6618 O   0  0  0  0  0  0  0  0  0  0  0  0
    9.2031  -15.7108   26.4984 N   0  0  0  0  0  0  0  0  0  0  0  0
    9.5032  -16.3708   25.2891 C   0  0  0  0  0  0  0  0  0  0  0  0
   10.3223  -17.3202   25.2548 O   0  0  0  0  0  0  0  0  0  0  0  0
    8.8431  -15.9398   24.0366 C   0  0  0  0  0  0  0  0  0  0  0  0
    9.8158  -15.6615   22.9141 C   0  0  2  0  0  0  0  0  0  0  0  0
    9.1060  -15.3055   21.7211 N   0  0  0  0  0  0  0  0  0  0  0  0
   10.6674  -16.8810   22.6994 C   0  0  0  0  0  0  0  0  0  0  0  0
   10.1332  -17.9534   22.3504 O   0  0  0  0  0  0  0  0  0  0  0  0
   14.4683  -14.9556   16.7851 N   0  0  0  0  0  0  0  0  0  0  0  0
   15.2578  -14.5469   17.8955 C   0  0  0  0  0  0  0  0  0  0  0  0
   16.2050  -13.6780   17.7202 N   0  0  0  0  0  0  0  0  0  0  0  0
   15.0366  -15.0673   19.2007 N   0  0  0  0  0  0  0  0  0  0  0  0
   13.9710  -15.9953   19.4841 C   0  0  0  0  0  0  0  0  0  0  0  0
   14.1535  -16.7521   20.7084 C   0  0  0  0  0  0  0  0  0  0  0  0
   13.4140  -17.9033   21.1907 C   0  0  0  0  0  0  0  0  0  0  0  0
   12.9539  -17.9950   22.5710 C   0  0  2  0  0  0  0  0  0  0  0  0
   12.0556  -16.8346   22.8851 N   0  0  0  0  0  0  0  0  0  0  0  0
   14.0531  -17.7631   23.5815 C   0  0  0  0  0  0  0  0  0  0  0  0
   15.0981  -18.3700   23.5868 O   0  0  0  0  0  0  0  0  0  0  0  0
   13.8657  -16.7978   24.5764 O   0  0  0  0  0  0  0  0  0  0  0  0
  2  3  1  1
  2  1  1  0
  4  6  1  0
  4  2  1  0
  4  5  1  1
  6  7  2  0
  9 10  2  0
  9  8  1  0
 11  9  1  0
 12 11  1  1
 13  6  1  0
 13 12  1  0
 14 15  2  0
 14 12  1  0
 16 17  1  0
 17 18  2  0
 19 17  1  0
 19 20  1  0
 20 21  1  0
 21 22  1  0
 23 22  1  6
 23 24  1  0
 24 14  1  0
 25 27  1  0
 25 23  1  0
 26 25  2  0
M  END
$$$$
