VNR.pdb
     RDKit          3D

 27 26  0  0  1  0  0  0  0  0999 V2000
   12.2090  -17.9115   19.1262 C   0  0  0  0  0  0  0  0  0  0  0  0
   11.1744  -17.7090   18.0415 C   0  0  1  0  0  0  0  0  0  0  0  0
   11.4524  -18.5841   16.8632 C   0  0  0  0  0  0  0  0  0  0  0  0
    9.8015  -17.9660   18.6215 C   0  0  2  0  0  0  0  0  0  0  0  0
    8.7605  -17.8555   17.6474 N   0  0  0  0  0  0  0  0  0  0  0  0
    9.5438  -16.9562   19.6928 C   0  0  0  0  0  0  0  0  0  0  0  0
   10.2654  -16.9285   20.7368 O   0  0  0  0  0  0  0  0  0  0  0  0
    8.2479  -12.0925   18.9614 N   0  0  0  0  0  0  0  0  0  0  0  0
    7.6761  -13.3755   18.8396 C   0  0  0  0  0  0  0  0  0  0  0  0
    7.6073  -13.9515   17.7274 O   0  0  0  0  0  0  0  0  0  0  0  0
    7.1469  -14.0581   20.0413 C   0  0  0  0  0  0  0  0  0  0  0  0
    8.0926  -15.0929   20.6055 C   0  0  2  0  0  0  0  0  0  0  0  0
    8.4962  -16.0070   19.5781 N   0  0  0  0  0  0  0  0  0  0  0  0
    7.4070  -15.8090   21.7349 C   0  0  0  0  0  0  0  0  0  0  0  0
    6.4147  -16.5279   21.4984 O   0  0  0  0  0  0  0  0  0  0  0  0
    8.6823  -21.8123   28.4886 N   0  0  0  0  0  0  0  0  0  0  0  0
    7.6197  -20.9278   28.1547 C   0  0  0  0  0  0  0  0  0  0  0  0
    6.8735  -20.4414   29.0979 N   0  0  0  0  0  0  0  0  0  0  0  0
    7.3504  -20.5592   26.8075 N   0  0  0  0  0  0  0  0  0  0  0  0
    8.2380  -19.7094   26.0546 C   0  0  0  0  0  0  0  0  0  0  0  0
    7.6467  -18.4496   25.6441 C   0  0  0  0  0  0  0  0  0  0  0  0
    7.9384  -17.6402   24.4760 C   0  0  0  0  0  0  0  0  0  0  0  0
    7.2221  -16.3997   24.2053 C   0  0  2  0  0  0  0  0  0  0  0  0
    7.8642  -15.6832   23.0536 N   0  0  0  0  0  0  0  0  0  0  0  0
    7.3925  -15.3644   25.2926 C   0  0  0  0  0  0  0  0  0  0  0  0
    6.6641  -15.2739   26.2526 O   0  0  0  0  0  0  0  0  0  0  0  0
    8.4455  -14.4485   25.1964 O   0  0  0  0  0  0  0  0  0  0  0  0
  2  3  1  6
  2  1  1  0
  4  6  1  0
  4  2  1  0
  4  5  1  6
  6  7  2  0
  9 10  2  0
  9  8  1  0
 11  9  1  0
 12 11  1  6
 13  6  1  0
 13 12  1  0
 14 15  2  0
 14 12  1  0
 16 17  1  0
 17 18  2  0
 19 17  1  0
 19 20  1  0
 20 21  1  0
 21 22  1  0
 23 22  1  1
 23 24  1  0
 24 14  1  0
 25 27  1  0
 25 23  1  0
 26 25  2  0
M  END
$$$$
