VNR.pdb
     RDKit          3D

 27 26  0  0  1  0  0  0  0  0999 V2000
    7.7299  -18.9753   17.1112 C   0  0  0  0  0  0  0  0  0  0  0  0
    8.5198  -18.9671   18.4011 C   0  0  1  0  0  0  0  0  0  0  0  0
    9.9716  -19.2076   18.1441 C   0  0  0  0  0  0  0  0  0  0  0  0
    8.2844  -17.6520   19.1100 C   0  0  2  0  0  0  0  0  0  0  0  0
    8.7363  -16.5270   18.3518 N   0  0  0  0  0  0  0  0  0  0  0  0
    9.0330  -17.6710   20.4034 C   0  0  0  0  0  0  0  0  0  0  0  0
    8.8336  -18.5977   21.2477 O   0  0  0  0  0  0  0  0  0  0  0  0
   14.2400  -15.9994   22.7009 N   0  0  0  0  0  0  0  0  0  0  0  0
   12.8785  -15.6802   22.8811 C   0  0  0  0  0  0  0  0  0  0  0  0
   12.4289  -15.3728   24.0111 O   0  0  0  0  0  0  0  0  0  0  0  0
   11.9606  -15.7068   21.7206 C   0  0  0  0  0  0  0  0  0  0  0  0
   10.7837  -16.6354   21.9111 C   0  0  2  0  0  0  0  0  0  0  0  0
    9.9796  -16.6650   20.7251 N   0  0  0  0  0  0  0  0  0  0  0  0
    9.9886  -16.1700   23.0984 C   0  0  0  0  0  0  0  0  0  0  0  0
    9.7694  -14.9515   23.2555 O   0  0  0  0  0  0  0  0  0  0  0  0
    7.1695  -22.0433   25.4021 N   0  0  0  0  0  0  0  0  0  0  0  0
    6.0612  -21.6810   24.5875 C   0  0  0  0  0  0  0  0  0  0  0  0
    5.2600  -22.6038   24.1522 N   0  0  0  0  0  0  0  0  0  0  0  0
    5.8051  -20.3271   24.2345 N   0  0  0  0  0  0  0  0  0  0  0  0
    6.8493  -19.4442   23.7793 C   0  0  0  0  0  0  0  0  0  0  0  0
    6.8134  -18.1240   24.3798 C   0  0  0  0  0  0  0  0  0  0  0  0
    7.6077  -17.5943   25.4722 C   0  0  0  0  0  0  0  0  0  0  0  0
    8.7010  -16.6583   25.2407 C   0  0  2  0  0  0  0  0  0  0  0  0
    9.4872  -17.0836   24.0353 N   0  0  0  0  0  0  0  0  0  0  0  0
    9.7772  -16.7263   26.2992 C   0  0  0  0  0  0  0  0  0  0  0  0
    9.7600  -16.0733   27.3159 O   0  0  0  0  0  0  0  0  0  0  0  0
   10.8639  -17.5855   26.1057 O   0  0  0  0  0  0  0  0  0  0  0  0
  2  3  1  6
  2  1  1  0
  4  6  1  0
  4  2  1  0
  4  5  1  6
  6  7  2  0
  9 10  2  0
  9  8  1  0
 11  9  1  0
 12 11  1  6
 13  6  1  0
 13 12  1  0
 14 15  2  0
 14 12  1  0
 16 17  1  0
 17 18  2  0
 19 17  1  0
 19 20  1  0
 20 21  1  0
 21 22  1  0
 23 22  1  1
 23 24  1  0
 24 14  1  0
 25 27  1  0
 25 23  1  0
 26 25  2  0
M  END
$$$$
