VNR.pdb
     RDKit          3D

 27 26  0  0  1  0  0  0  0  0999 V2000
   10.1297  -20.0005   15.1523 C   0  0  0  0  0  0  0  0  0  0  0  0
   10.0957  -19.9843   16.6644 C   0  0  1  0  0  0  0  0  0  0  0  0
   10.3988  -21.3359   17.2235 C   0  0  0  0  0  0  0  0  0  0  0  0
   11.0671  -18.9383   17.1639 C   0  0  2  0  0  0  0  0  0  0  0  0
   12.3627  -19.0593   16.5709 N   0  0  0  0  0  0  0  0  0  0  0  0
   11.2165  -19.0987   18.6423 C   0  0  0  0  0  0  0  0  0  0  0  0
   10.2343  -18.8771   19.4152 O   0  0  0  0  0  0  0  0  0  0  0  0
   15.6707  -20.4181   22.7538 N   0  0  0  0  0  0  0  0  0  0  0  0
   14.3431  -20.5126   22.2885 C   0  0  0  0  0  0  0  0  0  0  0  0
   13.4028  -20.8027   23.0664 O   0  0  0  0  0  0  0  0  0  0  0  0
   14.0491  -20.2663   20.8592 C   0  0  0  0  0  0  0  0  0  0  0  0
   12.6894  -19.6492   20.6269 C   0  0  2  0  0  0  0  0  0  0  0  0
   12.4473  -19.4995   19.2223 N   0  0  0  0  0  0  0  0  0  0  0  0
   12.6326  -18.3249   21.3349 C   0  0  0  0  0  0  0  0  0  0  0  0
   13.5566  -17.5008   21.1782 O   0  0  0  0  0  0  0  0  0  0  0  0
    6.6128  -12.9999   19.9303 N   0  0  0  0  0  0  0  0  0  0  0  0
    8.0335  -12.9338   19.9104 C   0  0  0  0  0  0  0  0  0  0  0  0
    8.6225  -12.0929   19.1174 N   0  0  0  0  0  0  0  0  0  0  0  0
    8.8315  -13.7688   20.7407 N   0  0  0  0  0  0  0  0  0  0  0  0
    8.2505  -14.7366   21.6366 C   0  0  0  0  0  0  0  0  0  0  0  0
    9.2232  -15.5327   22.3614 C   0  0  0  0  0  0  0  0  0  0  0  0
   10.6218  -15.7684   22.0561 C   0  0  0  0  0  0  0  0  0  0  0  0
   11.4397  -16.6694   22.8588 C   0  0  2  0  0  0  0  0  0  0  0  0
   11.5565  -17.9981   22.1709 N   0  0  0  0  0  0  0  0  0  0  0  0
   10.7711  -17.0928   24.1460 C   0  0  0  0  0  0  0  0  0  0  0  0
   10.4170  -16.3189   25.0039 O   0  0  0  0  0  0  0  0  0  0  0  0
   10.5451  -18.4541   24.3757 O   0  0  0  0  0  0  0  0  0  0  0  0
  2  3  1  1
  2  1  1  0
  4  6  1  0
  4  2  1  0
  4  5  1  6
  6  7  2  0
  9 10  2  0
  9  8  1  0
 11  9  1  0
 12 11  1  6
 13  6  1  0
 13 12  1  0
 14 15  2  0
 14 12  1  0
 16 17  1  0
 17 18  2  0
 19 17  1  0
 19 20  1  0
 20 21  1  0
 21 22  1  0
 23 22  1  6
 23 24  1  0
 24 14  1  0
 25 27  1  0
 25 23  1  0
 26 25  2  0
M  END
$$$$
