QPC.pdb
     RDKit          3D

 23 23  0  0  1  0  0  0  0  0999 V2000
    2.7257  -18.4075   21.4070 N   0  0  0  0  0  0  0  0  0  0  0  0
    4.0067  -18.7801   21.8930 C   0  0  0  0  0  0  0  0  0  0  0  0
    4.0615  -19.6095   22.8342 O   0  0  0  0  0  0  0  0  0  0  0  0
    5.2624  -18.2415   21.3470 C   0  0  0  0  0  0  0  0  0  0  0  0
    4.9906  -17.1439   20.3552 C   0  0  0  0  0  0  0  0  0  0  0  0
    6.1619  -17.0818   19.3836 C   0  0  2  0  0  0  0  0  0  0  0  0
    6.4470  -18.3813   18.8515 N   0  0  0  0  0  0  0  0  0  0  0  0
    7.3262  -16.4976   20.0216 C   0  0  0  0  0  0  0  0  0  0  0  0
    8.1718  -17.3148   20.5285 O   0  0  0  0  0  0  0  0  0  0  0  0
    7.5837  -15.0932   20.1193 N   0  0  0  0  0  0  0  0  0  0  0  0
    6.7750  -14.1106   19.4321 C   0  0  0  0  0  0  0  0  0  0  0  0
    7.4612  -12.7667   19.6353 C   0  0  0  0  0  0  0  0  0  0  0  0
    8.2068  -12.9910   20.9223 C   0  0  0  0  0  0  0  0  0  0  0  0
    8.6253  -14.4319   20.8111 C   0  0  1  0  0  0  0  0  0  0  0  0
    8.9376  -14.9747   22.1645 C   0  0  0  0  0  0  0  0  0  0  0  0
    8.0165  -15.0705   22.9967 O   0  0  0  0  0  0  0  0  0  0  0  0
   10.2358  -15.3866   22.5459 N   0  0  0  0  0  0  0  0  0  0  0  0
   10.5882  -15.9125   23.8292 C   0  0  1  0  0  0  0  0  0  0  0  0
    9.8685  -17.2606   23.9674 C   0  0  0  0  0  0  0  0  0  0  0  0
   10.3546  -18.1062   25.4899 S   0  0  0  0  0  0  0  0  0  0  0  0
   12.0223  -16.1672   24.0114 C   0  0  0  0  0  0  0  0  0  0  0  0
   12.4865  -16.3470   25.3070 O   0  0  0  0  0  0  0  0  0  0  0  0
   12.8565  -16.2332   23.0754 O   0  0  0  0  0  0  0  0  0  0  0  0
  2  1  1  0
  2  3  2  0
  4  5  1  0
  4  2  1  0
  6  5  1  0
  6  7  1  1
  8  6  1  0
  8 10  1  0
  9  8  2  0
 10 14  1  0
 11 10  1  0
 11 12  1  0
 12 13  1  0
 14 13  1  0
 14 15  1  1
 15 17  1  0
 16 15  2  0
 18 17  1  0
 18 21  1  0
 18 19  1  6
 20 19  1  0
 21 22  1  0
 23 21  2  0
M  END
$$$$
