QPC.pdb
     RDKit          3D

 23 23  0  0  1  0  0  0  0  0999 V2000
   12.7655  -19.6082   23.0551 N   0  0  0  0  0  0  0  0  0  0  0  0
   12.4043  -20.1237   21.7824 C   0  0  0  0  0  0  0  0  0  0  0  0
   13.0808  -21.0741   21.3179 O   0  0  0  0  0  0  0  0  0  0  0  0
   11.2815  -19.5975   20.9903 C   0  0  0  0  0  0  0  0  0  0  0  0
   10.5354  -18.5375   21.7530 C   0  0  0  0  0  0  0  0  0  0  0  0
   10.4688  -17.2872   20.8855 C   0  0  2  0  0  0  0  0  0  0  0  0
   11.7460  -17.0110   20.2977 N   0  0  0  0  0  0  0  0  0  0  0  0
    9.9766  -16.1580   21.6513 C   0  0  0  0  0  0  0  0  0  0  0  0
   10.7852  -15.6477   22.5030 O   0  0  0  0  0  0  0  0  0  0  0  0
    8.6696  -15.5903   21.5184 N   0  0  0  0  0  0  0  0  0  0  0  0
    7.8109  -15.8849   20.3924 C   0  0  0  0  0  0  0  0  0  0  0  0
    6.6019  -14.9680   20.5186 C   0  0  0  0  0  0  0  0  0  0  0  0
    6.5601  -14.7126   22.0003 C   0  0  0  0  0  0  0  0  0  0  0  0
    8.0189  -14.6625   22.3650 C   0  0  1  0  0  0  0  0  0  0  0  0
    8.1847  -14.9071   23.8267 C   0  0  0  0  0  0  0  0  0  0  0  0
    8.4078  -16.0684   24.2162 O   0  0  0  0  0  0  0  0  0  0  0  0
    8.0998  -13.8771   24.7923 N   0  0  0  0  0  0  0  0  0  0  0  0
    8.1223  -14.0740   26.2093 C   0  0  1  0  0  0  0  0  0  0  0  0
    7.7005  -12.7438   26.8473 C   0  0  0  0  0  0  0  0  0  0  0  0
    5.9421  -12.4199   26.5777 S   0  0  0  0  0  0  0  0  0  0  0  0
    7.1944  -15.1013   26.6975 C   0  0  0  0  0  0  0  0  0  0  0  0
    7.4567  -15.6727   27.9348 O   0  0  0  0  0  0  0  0  0  0  0  0
    6.1804  -15.4975   26.0720 O   0  0  0  0  0  0  0  0  0  0  0  0
  2  1  1  0
  2  3  2  0
  4  5  1  0
  4  2  1  0
  6  5  1  0
  6  7  1  1
  8  6  1  0
  8 10  1  0
  9  8  2  0
 10 14  1  0
 11 10  1  0
 11 12  1  0
 12 13  1  0
 14 13  1  0
 14 15  1  1
 15 17  1  0
 16 15  2  0
 18 17  1  0
 18 21  1  0
 18 19  1  1
 20 19  1  0
 21 22  1  0
 23 21  2  0
M  END
$$$$
