QPC.pdb
     RDKit          3D

 23 23  0  0  1  0  0  0  0  0999 V2000
   11.0847  -18.1700   14.4928 N   0  0  0  0  0  0  0  0  0  0  0  0
    9.9647  -17.2990   14.4372 C   0  0  0  0  0  0  0  0  0  0  0  0
    9.3844  -17.1550   13.3330 O   0  0  0  0  0  0  0  0  0  0  0  0
    9.4583  -16.5638   15.6068 C   0  0  0  0  0  0  0  0  0  0  0  0
   10.4900  -16.5162   16.7002 C   0  0  0  0  0  0  0  0  0  0  0  0
   10.8082  -15.0548   16.9887 C   0  0  2  0  0  0  0  0  0  0  0  0
   12.1125  -14.7157   16.5020 N   0  0  0  0  0  0  0  0  0  0  0  0
   10.6752  -14.7716   18.4050 C   0  0  0  0  0  0  0  0  0  0  0  0
   11.6254  -15.1770   19.1617 O   0  0  0  0  0  0  0  0  0  0  0  0
    9.5703  -14.0823   18.9984 N   0  0  0  0  0  0  0  0  0  0  0  0
    8.5702  -13.4009   18.2062 C   0  0  0  0  0  0  0  0  0  0  0  0
    7.6780  -12.6519   19.1866 C   0  0  0  0  0  0  0  0  0  0  0  0
    7.8360  -13.4717   20.4378 C   0  0  0  0  0  0  0  0  0  0  0  0
    9.2773  -13.8979   20.3699 C   0  0  1  0  0  0  0  0  0  0  0  0
    9.4937  -15.0932   21.2350 C   0  0  0  0  0  0  0  0  0  0  0  0
    9.0485  -16.1926   20.8566 O   0  0  0  0  0  0  0  0  0  0  0  0
   10.1834  -15.0340   22.4683 N   0  0  0  0  0  0  0  0  0  0  0  0
   10.3834  -16.1406   23.3531 C   0  0  1  0  0  0  0  0  0  0  0  0
   11.8680  -16.1345   23.7403 C   0  0  0  0  0  0  0  0  0  0  0  0
   12.9215  -16.3630   22.2886 S   0  0  0  0  0  0  0  0  0  0  0  0
    9.6110  -16.0727   24.5995 C   0  0  0  0  0  0  0  0  0  0  0  0
    9.7246  -17.1329   25.4879 O   0  0  0  0  0  0  0  0  0  0  0  0
    8.8553  -15.1212   24.9158 O   0  0  0  0  0  0  0  0  0  0  0  0
  2  1  1  0
  2  3  2  0
  4  5  1  0
  4  2  1  0
  6  5  1  0
  6  7  1  1
  8  6  1  0
  8 10  1  0
  9  8  2  0
 10 14  1  0
 11 10  1  0
 11 12  1  0
 12 13  1  0
 14 13  1  0
 14 15  1  1
 15 17  1  0
 16 15  2  0
 18 17  1  0
 18 21  1  0
 18 19  1  1
 20 19  1  0
 21 22  1  0
 23 21  2  0
M  END
$$$$
