QPC.pdb
     RDKit          3D

 23 23  0  0  1  0  0  0  0  0999 V2000
   10.0305  -20.5109   23.2239 N   0  0  0  0  0  0  0  0  0  0  0  0
   11.2377  -19.7754   23.0899 C   0  0  0  0  0  0  0  0  0  0  0  0
   12.2706  -20.2332   23.6378 O   0  0  0  0  0  0  0  0  0  0  0  0
   11.3308  -18.5109   22.3433 C   0  0  0  0  0  0  0  0  0  0  0  0
    9.9966  -18.1293   21.7631 C   0  0  0  0  0  0  0  0  0  0  0  0
   10.0527  -16.6583   21.3720 C   0  0  2  0  0  0  0  0  0  0  0  0
   11.2038  -16.3943   20.5607 N   0  0  0  0  0  0  0  0  0  0  0  0
   10.0236  -15.8135   22.5507 C   0  0  0  0  0  0  0  0  0  0  0  0
   11.1542  -15.5335   23.0826 O   0  0  0  0  0  0  0  0  0  0  0  0
    8.8342  -15.2844   23.1454 N   0  0  0  0  0  0  0  0  0  0  0  0
    7.5469  -15.3532   22.4896 C   0  0  0  0  0  0  0  0  0  0  0  0
    6.5831  -14.5386   23.3415 C   0  0  0  0  0  0  0  0  0  0  0  0
    7.2221  -14.6248   24.7005 C   0  0  0  0  0  0  0  0  0  0  0  0
    8.6905  -14.5982   24.3740 C   0  0  1  0  0  0  0  0  0  0  0  0
    9.4732  -15.1583   25.5131 C   0  0  0  0  0  0  0  0  0  0  0  0
    9.5525  -16.3951   25.6323 O   0  0  0  0  0  0  0  0  0  0  0  0
   10.1310  -14.3461   26.4660 N   0  0  0  0  0  0  0  0  0  0  0  0
   10.6127  -14.7942   27.7366 C   0  0  1  0  0  0  0  0  0  0  0  0
   10.1981  -13.7341   28.7655 C   0  0  0  0  0  0  0  0  0  0  0  0
   10.7575  -14.1825   30.4254 S   0  0  0  0  0  0  0  0  0  0  0  0
   10.0519  -16.0745   28.1848 C   0  0  0  0  0  0  0  0  0  0  0  0
   10.9388  -17.0564   28.6039 O   0  0  0  0  0  0  0  0  0  0  0  0
    8.8253  -16.3411   28.2146 O   0  0  0  0  0  0  0  0  0  0  0  0
  2  1  1  0
  2  3  2  0
  4  5  1  0
  4  2  1  0
  6  5  1  0
  6  7  1  1
  8  6  1  0
  8 10  1  0
  9  8  2  0
 10 14  1  0
 11 10  1  0
 11 12  1  0
 12 13  1  0
 14 13  1  0
 14 15  1  1
 15 17  1  0
 16 15  2  0
 18 17  1  0
 18 21  1  0
 18 19  1  1
 20 19  1  0
 21 22  1  0
 23 21  2  0
M  END
$$$$
