QPC.pdb
     RDKit          3D

 23 23  0  0  1  0  0  0  0  0999 V2000
    2.6866  -18.3833   19.4323 N   0  0  0  0  0  0  0  0  0  0  0  0
    3.6752  -19.4025   19.4293 C   0  0  0  0  0  0  0  0  0  0  0  0
    3.2916  -20.5953   19.3474 O   0  0  0  0  0  0  0  0  0  0  0  0
    5.1175  -19.1247   19.5173 C   0  0  0  0  0  0  0  0  0  0  0  0
    5.3697  -17.6617   19.7585 C   0  0  0  0  0  0  0  0  0  0  0  0
    6.4183  -17.1902   18.7595 C   0  0  2  0  0  0  0  0  0  0  0  0
    6.7930  -18.2563   17.8786 N   0  0  0  0  0  0  0  0  0  0  0  0
    7.5683  -16.6354   19.4476 C   0  0  0  0  0  0  0  0  0  0  0  0
    8.5421  -17.4359   19.6726 O   0  0  0  0  0  0  0  0  0  0  0  0
    7.6806  -15.2767   19.8833 N   0  0  0  0  0  0  0  0  0  0  0  0
    6.7764  -14.2433   19.4290 C   0  0  0  0  0  0  0  0  0  0  0  0
    7.3211  -12.9259   19.9637 C   0  0  0  0  0  0  0  0  0  0  0  0
    8.0840  -13.3767   21.1792 C   0  0  0  0  0  0  0  0  0  0  0  0
    8.6480  -14.7003   20.7393 C   0  0  1  0  0  0  0  0  0  0  0  0
    9.0125  -15.5176   21.9322 C   0  0  0  0  0  0  0  0  0  0  0  0
    8.0994  -16.0203   22.6132 O   0  0  0  0  0  0  0  0  0  0  0  0
   10.3514  -15.7479   22.3254 N   0  0  0  0  0  0  0  0  0  0  0  0
   10.7569  -16.5797   23.4168 C   0  0  1  0  0  0  0  0  0  0  0  0
   12.1679  -17.0845   23.0876 C   0  0  0  0  0  0  0  0  0  0  0  0
   13.3320  -15.7099   22.9301 S   0  0  0  0  0  0  0  0  0  0  0  0
   10.8345  -15.8926   24.7116 C   0  0  0  0  0  0  0  0  0  0  0  0
   11.0865  -16.6639   25.8376 O   0  0  0  0  0  0  0  0  0  0  0  0
   10.6884  -14.6556   24.8692 O   0  0  0  0  0  0  0  0  0  0  0  0
  2  1  1  0
  2  3  2  0
  4  5  1  0
  4  2  1  0
  6  5  1  0
  6  7  1  1
  8  6  1  0
  8 10  1  0
  9  8  2  0
 10 14  1  0
 11 10  1  0
 11 12  1  0
 12 13  1  0
 14 13  1  0
 14 15  1  1
 15 17  1  0
 16 15  2  0
 18 17  1  0
 18 21  1  0
 18 19  1  6
 20 19  1  0
 21 22  1  0
 23 21  2  0
M  END
$$$$
