QPC.pdb
     RDKit          3D

 23 23  0  0  1  0  0  0  0  0999 V2000
    5.9704  -18.2064   24.8099 N   0  0  0  0  0  0  0  0  0  0  0  0
    6.8537  -18.4733   23.7306 C   0  0  0  0  0  0  0  0  0  0  0  0
    7.4213  -19.5929   23.6967 O   0  0  0  0  0  0  0  0  0  0  0  0
    7.1308  -17.5038   22.6591 C   0  0  0  0  0  0  0  0  0  0  0  0
    6.3768  -16.2222   22.8851 C   0  0  0  0  0  0  0  0  0  0  0  0
    7.3024  -15.0611   22.5457 C   0  0  2  0  0  0  0  0  0  0  0  0
    8.1412  -15.3920   21.4322 N   0  0  0  0  0  0  0  0  0  0  0  0
    8.0815  -14.6714   23.7054 C   0  0  0  0  0  0  0  0  0  0  0  0
    9.2768  -15.1258   23.7712 O   0  0  0  0  0  0  0  0  0  0  0  0
    7.6074  -13.8285   24.7604 N   0  0  0  0  0  0  0  0  0  0  0  0
    6.4061  -13.0332   24.6322 C   0  0  0  0  0  0  0  0  0  0  0  0
    6.3356  -12.1527   25.8724 C   0  0  0  0  0  0  0  0  0  0  0  0
    7.1141  -12.9631   26.8723 C   0  0  0  0  0  0  0  0  0  0  0  0
    8.1924  -13.5809   26.0242 C   0  0  1  0  0  0  0  0  0  0  0  0
    8.7549  -14.7782   26.7126 C   0  0  0  0  0  0  0  0  0  0  0  0
    8.0782  -15.8229   26.7420 O   0  0  0  0  0  0  0  0  0  0  0  0
   10.0251  -14.7805   27.3347 N   0  0  0  0  0  0  0  0  0  0  0  0
   10.5566  -15.8548   28.1162 C   0  0  1  0  0  0  0  0  0  0  0  0
   12.0850  -15.7454   28.0368 C   0  0  0  0  0  0  0  0  0  0  0  0
   12.8830  -17.0179   29.0434 S   0  0  0  0  0  0  0  0  0  0  0  0
   10.1933  -15.8132   29.5377 C   0  0  0  0  0  0  0  0  0  0  0  0
   10.1095  -17.0200   30.2183 O   0  0  0  0  0  0  0  0  0  0  0  0
    9.9533  -14.7608   30.1790 O   0  0  0  0  0  0  0  0  0  0  0  0
  2  1  1  0
  2  3  2  0
  4  5  1  0
  4  2  1  0
  6  5  1  0
  6  7  1  6
  8  6  1  0
  8 10  1  0
  9  8  2  0
 10 14  1  0
 11 10  1  0
 11 12  1  0
 12 13  1  0
 14 13  1  0
 14 15  1  1
 15 17  1  0
 16 15  2  0
 18 17  1  0
 18 21  1  0
 18 19  1  1
 20 19  1  0
 21 22  1  0
 23 21  2  0
M  END
$$$$
