QPC.pdb
     RDKit          3D

 23 23  0  0  1  0  0  0  0  0999 V2000
    9.4670  -20.9922   21.7186 N   0  0  0  0  0  0  0  0  0  0  0  0
   10.7041  -20.3029   21.8215 C   0  0  0  0  0  0  0  0  0  0  0  0
   11.6184  -20.8314   22.5008 O   0  0  0  0  0  0  0  0  0  0  0  0
   10.9597  -19.0074   21.1725 C   0  0  0  0  0  0  0  0  0  0  0  0
    9.7669  -18.5623   20.3717 C   0  0  0  0  0  0  0  0  0  0  0  0
   10.0570  -17.1720   19.8214 C   0  0  2  0  0  0  0  0  0  0  0  0
   11.3886  -17.1036   19.2969 N   0  0  0  0  0  0  0  0  0  0  0  0
    9.8291  -16.1615   20.8366 C   0  0  0  0  0  0  0  0  0  0  0  0
   10.8297  -15.8553   21.5745 O   0  0  0  0  0  0  0  0  0  0  0  0
    8.5807  -15.4989   21.0616 N   0  0  0  0  0  0  0  0  0  0  0  0
    7.4767  -15.5961   20.1322 C   0  0  0  0  0  0  0  0  0  0  0  0
    6.4107  -14.6262   20.6234 C   0  0  0  0  0  0  0  0  0  0  0  0
    6.7123  -14.5538   22.0953 C   0  0  0  0  0  0  0  0  0  0  0  0
    8.2138  -14.6430   22.1264 C   0  0  1  0  0  0  0  0  0  0  0  0
    8.6678  -15.0767   23.4791 C   0  0  0  0  0  0  0  0  0  0  0  0
    8.7589  -16.2957   23.7160 O   0  0  0  0  0  0  0  0  0  0  0  0
    9.0004  -14.1638   24.5069 N   0  0  0  0  0  0  0  0  0  0  0  0
    9.4084  -14.5269   25.8295 C   0  0  1  0  0  0  0  0  0  0  0  0
    9.3410  -13.2509   26.6789 C   0  0  0  0  0  0  0  0  0  0  0  0
    7.7202  -12.4612   26.5417 S   0  0  0  0  0  0  0  0  0  0  0  0
    8.5514  -15.5254   26.4800 C   0  0  0  0  0  0  0  0  0  0  0  0
    9.0273  -16.1304   27.6349 O   0  0  0  0  0  0  0  0  0  0  0  0
    7.4182  -15.8687   26.0625 O   0  0  0  0  0  0  0  0  0  0  0  0
  2  1  1  0
  2  3  2  0
  4  5  1  0
  4  2  1  0
  6  5  1  0
  6  7  1  1
  8  6  1  0
  8 10  1  0
  9  8  2  0
 10 14  1  0
 11 10  1  0
 11 12  1  0
 12 13  1  0
 14 13  1  0
 14 15  1  1
 15 17  1  0
 16 15  2  0
 18 17  1  0
 18 21  1  0
 18 19  1  1
 20 19  1  0
 21 22  1  0
 23 21  2  0
M  END
$$$$
