QPC.pdb
     RDKit          3D

 23 23  0  0  1  0  0  0  0  0999 V2000
    5.3593  -18.9059   17.7137 N   0  0  0  0  0  0  0  0  0  0  0  0
    6.5521  -19.1445   18.4463 C   0  0  0  0  0  0  0  0  0  0  0  0
    6.5654  -20.1063   19.2534 O   0  0  0  0  0  0  0  0  0  0  0  0
    7.7630  -18.3211   18.3026 C   0  0  0  0  0  0  0  0  0  0  0  0
    7.5545  -17.2305   17.2881 C   0  0  0  0  0  0  0  0  0  0  0  0
    8.7844  -16.3321   17.2979 C   0  0  2  0  0  0  0  0  0  0  0  0
    9.8958  -16.9895   16.6768 N   0  0  0  0  0  0  0  0  0  0  0  0
    9.0995  -15.9099   18.6493 C   0  0  0  0  0  0  0  0  0  0  0  0
    9.9282  -16.6389   19.2984 O   0  0  0  0  0  0  0  0  0  0  0  0
    8.5524  -14.7533   19.2906 N   0  0  0  0  0  0  0  0  0  0  0  0
    7.7075  -13.8102   18.5915 C   0  0  0  0  0  0  0  0  0  0  0  0
    7.4788  -12.6449   19.5444 C   0  0  0  0  0  0  0  0  0  0  0  0
    7.6569  -13.3021   20.8857 C   0  0  0  0  0  0  0  0  0  0  0  0
    8.7474  -14.3033   20.6174 C   0  0  1  0  0  0  0  0  0  0  0  0
    8.7265  -15.3675   21.6618 C   0  0  0  0  0  0  0  0  0  0  0  0
    7.7910  -16.1892   21.6583 O   0  0  0  0  0  0  0  0  0  0  0  0
    9.7235  -15.4858   22.6579 N   0  0  0  0  0  0  0  0  0  0  0  0
    9.7512  -16.4874   23.6794 C   0  0  1  0  0  0  0  0  0  0  0  0
   11.2012  -16.9794   23.7771 C   0  0  0  0  0  0  0  0  0  0  0  0
   12.3258  -15.6201   24.1732 S   0  0  0  0  0  0  0  0  0  0  0  0
    9.3657  -16.0098   25.0128 C   0  0  0  0  0  0  0  0  0  0  0  0
    9.2523  -16.9500   26.0275 O   0  0  0  0  0  0  0  0  0  0  0  0
    9.1319  -14.8095   25.2971 O   0  0  0  0  0  0  0  0  0  0  0  0
  2  1  1  0
  2  3  2  0
  4  5  1  0
  4  2  1  0
  6  5  1  0
  6  7  1  1
  8  6  1  0
  8 10  1  0
  9  8  2  0
 10 14  1  0
 11 10  1  0
 11 12  1  0
 12 13  1  0
 14 13  1  0
 14 15  1  1
 15 17  1  0
 16 15  2  0
 18 17  1  0
 18 21  1  0
 18 19  1  1
 20 19  1  0
 21 22  1  0
 23 21  2  0
M  END
$$$$
