MRW.pdb
     RDKit          3D

 34 35  0  0  1  0  0  0  0  0999 V2000
    5.5738  -11.8354   26.8886 C   0  0  0  0  0  0  0  0  0  0  0  0
    6.3034  -13.3810   26.2940 S   0  0  0  0  0  0  0  0  0  0  0  0
    5.1255  -14.2777   25.2688 C   0  0  0  0  0  0  0  0  0  0  0  0
    5.7138  -15.5623   24.7768 C   0  0  0  0  0  0  0  0  0  0  0  0
    7.2449  -15.5037   24.8452 C   0  0  2  0  0  0  0  0  0  0  0  0
    7.6199  -14.1922   25.2420 N   0  0  0  0  0  0  0  0  0  0  0  0
    7.7732  -15.8721   23.4948 C   0  0  0  0  0  0  0  0  0  0  0  0
    7.6737  -17.0958   23.1293 O   0  0  0  0  0  0  0  0  0  0  0  0
    7.7787  -12.6955   15.7388 N   0  0  0  0  0  0  0  0  0  0  0  0
    8.3380  -13.9793   15.5383 C   0  0  0  0  0  0  0  0  0  0  0  0
    8.3824  -14.4569   14.3445 N   0  0  0  0  0  0  0  0  0  0  0  0
    8.8338  -14.7073   16.6394 N   0  0  0  0  0  0  0  0  0  0  0  0
    8.5980  -14.1448   17.9788 C   0  0  0  0  0  0  0  0  0  0  0  0
    9.2207  -14.9846   19.0217 C   0  0  0  0  0  0  0  0  0  0  0  0
    9.0940  -14.5480   20.4091 C   0  0  0  0  0  0  0  0  0  0  0  0
    9.3303  -15.4152   21.5599 C   0  0  2  0  0  0  0  0  0  0  0  0
    8.3597  -14.9404   22.6375 N   0  0  0  0  0  0  0  0  0  0  0  0
   10.5871  -15.5682   22.2219 C   0  0  0  0  0  0  0  0  0  0  0  0
   11.3957  -14.5861   22.3171 O   0  0  0  0  0  0  0  0  0  0  0  0
    8.7507  -15.4140   14.1528 N   0  0  0  0  0  0  0  0  0  0  0  0
   11.0252  -16.7817   22.8090 C   0  0  1  0  0  0  0  0  0  0  0  0
   11.3883  -16.9010   24.2320 C   0  0  0  0  0  0  0  0  0  0  0  0
   10.3431  -16.2243   25.0378 C   0  0  0  0  0  0  0  0  0  0  0  0
   10.5367  -16.2913   26.4784 C   0  0  0  0  0  0  0  0  0  0  0  0
   10.5200  -17.4636   27.2513 N   0  0  0  0  0  0  0  0  0  0  0  0
   10.7060  -17.1331   28.5252 C   0  0  0  0  0  0  0  0  0  0  0  0
   10.8429  -15.8105   28.6187 C   0  0  0  0  0  0  0  0  0  0  0  0
   11.0664  -14.9679   29.6785 C   0  0  0  0  0  0  0  0  0  0  0  0
   11.1939  -13.6063   29.5315 C   0  0  0  0  0  0  0  0  0  0  0  0
   11.0926  -13.0665   28.2674 C   0  0  0  0  0  0  0  0  0  0  0  0
   10.8678  -13.8883   27.1846 C   0  0  0  0  0  0  0  0  0  0  0  0
   10.7408  -15.2589   27.3471 C   0  0  0  0  0  0  0  0  0  0  0  0
   11.7602  -18.2623   24.5772 O   0  0  0  0  0  0  0  0  0  0  0  0
   11.2968  -19.3678   23.8727 O   0  0  0  0  0  0  0  0  0  0  0  0
  2  1  1  0
  3  2  1  0
  4  3  1  0
  5  4  1  0
  5  6  1  6
  7  5  1  0
  8  7  2  0
  9 10  1  0
 10 11  2  0
 10 12  1  0
 12 13  1  0
 13 14  1  0
 14 15  1  0
 16 15  1  6
 16 18  1  0
 16 17  1  0
 17  7  1  0
 18 19  2  0
 20 21  1  0
 20 18  1  0
 21 22  1  6
 23 22  1  0
 24 23  2  0
 25 24  1  0
 26 25  1  0
 26 31  2  0
 27 26  1  0
 28 27  2  0
 28 29  1  0
 29 30  2  0
 30 31  1  0
 31 23  1  0
 32 33  1  0
 32 21  1  0
 34 32  2  0
M  END
$$$$
