MRW.pdb
     RDKit          3D

 34 35  0  0  1  0  0  0  0  0999 V2000
    5.7304  -12.1392   26.3620 C   0  0  0  0  0  0  0  0  0  0  0  0
    6.8386  -13.4988   25.9172 S   0  0  0  0  0  0  0  0  0  0  0  0
    5.8890  -14.9598   25.4631 C   0  0  0  0  0  0  0  0  0  0  0  0
    6.7939  -16.0907   25.0880 C   0  0  0  0  0  0  0  0  0  0  0  0
    6.6251  -16.4334   23.6026 C   0  0  2  0  0  0  0  0  0  0  0  0
    5.4866  -17.2725   23.4691 N   0  0  0  0  0  0  0  0  0  0  0  0
    7.8867  -17.0937   23.1438 C   0  0  0  0  0  0  0  0  0  0  0  0
    7.9251  -18.3741   23.1484 O   0  0  0  0  0  0  0  0  0  0  0  0
    7.9554  -13.5750   18.0465 N   0  0  0  0  0  0  0  0  0  0  0  0
    8.5251  -13.2844   19.3083 C   0  0  0  0  0  0  0  0  0  0  0  0
    8.0705  -12.2847   19.9785 N   0  0  0  0  0  0  0  0  0  0  0  0
    9.5712  -14.0879   19.8066 N   0  0  0  0  0  0  0  0  0  0  0  0
    9.9107  -15.2995   19.0433 C   0  0  0  0  0  0  0  0  0  0  0  0
    9.8227  -16.5025   19.8950 C   0  0  0  0  0  0  0  0  0  0  0  0
   10.6970  -16.5725   21.0622 C   0  0  0  0  0  0  0  0  0  0  0  0
   10.2859  -17.1107   22.3559 C   0  0  2  0  0  0  0  0  0  0  0  0
    9.0018  -16.3705   22.7187 N   0  0  0  0  0  0  0  0  0  0  0  0
   11.0846  -17.0881   23.5402 C   0  0  0  0  0  0  0  0  0  0  0  0
   11.9776  -16.1921   23.7053 O   0  0  0  0  0  0  0  0  0  0  0  0
    8.5063  -11.9875   20.8786 N   0  0  0  0  0  0  0  0  0  0  0  0
   10.9556  -18.0262   24.5950 C   0  0  1  0  0  0  0  0  0  0  0  0
   11.9370  -18.1473   25.6874 C   0  0  0  0  0  0  0  0  0  0  0  0
   11.2064  -18.1010   26.9773 C   0  0  0  0  0  0  0  0  0  0  0  0
   10.2538  -17.0087   27.1064 C   0  0  0  0  0  0  0  0  0  0  0  0
    8.9035  -17.0528   26.7235 N   0  0  0  0  0  0  0  0  0  0  0  0
    8.3556  -15.8667   26.9674 C   0  0  0  0  0  0  0  0  0  0  0  0
    9.2779  -15.0573   27.4882 C   0  0  0  0  0  0  0  0  0  0  0  0
    9.2392  -13.7571   27.9251 C   0  0  0  0  0  0  0  0  0  0  0  0
   10.3360  -13.1178   28.4543 C   0  0  0  0  0  0  0  0  0  0  0  0
   11.5228  -13.8123   28.5493 C   0  0  0  0  0  0  0  0  0  0  0  0
   11.5913  -15.1189   28.1178 C   0  0  0  0  0  0  0  0  0  0  0  0
   10.4784  -15.7510   27.5859 C   0  0  0  0  0  0  0  0  0  0  0  0
   12.8665  -19.2389   25.4532 O   0  0  0  0  0  0  0  0  0  0  0  0
   13.9841  -19.4565   26.2514 O   0  0  0  0  0  0  0  0  0  0  0  0
  2  1  1  0
  3  2  1  0
  4  3  1  0
  5  4  1  0
  5  6  1  1
  7  5  1  0
  8  7  2  0
  9 10  1  0
 10 11  2  0
 10 12  1  0
 12 13  1  0
 13 14  1  0
 14 15  1  0
 16 15  1  6
 16 18  1  0
 16 17  1  0
 17  7  1  0
 18 19  2  0
 20 21  1  0
 20 18  1  0
 21 22  1  6
 23 22  1  0
 24 23  2  0
 25 24  1  0
 26 25  1  0
 26 31  2  0
 27 26  1  0
 28 27  2  0
 28 29  1  0
 29 30  2  0
 30 31  1  0
 31 23  1  0
 32 33  1  0
 32 21  1  0
 34 32  2  0
M  END
$$$$
