MRW.pdb
     RDKit          3D

 34 35  0  0  1  0  0  0  0  0999 V2000
    8.4724  -10.6955   18.9063 C   0  0  0  0  0  0  0  0  0  0  0  0
    7.9889  -11.9120   20.1558 S   0  0  0  0  0  0  0  0  0  0  0  0
    8.5917  -13.5479   19.7056 C   0  0  0  0  0  0  0  0  0  0  0  0
    8.1216  -14.5789   20.6827 C   0  0  0  0  0  0  0  0  0  0  0  0
    8.6007  -15.9714   20.2543 C   0  0  2  0  0  0  0  0  0  0  0  0
    8.1107  -16.2241   18.9451 N   0  0  0  0  0  0  0  0  0  0  0  0
    8.0931  -16.9548   21.2612 C   0  0  0  0  0  0  0  0  0  0  0  0
    6.9961  -17.5626   21.0002 O   0  0  0  0  0  0  0  0  0  0  0  0
    7.9254  -24.0542   22.2595 N   0  0  0  0  0  0  0  0  0  0  0  0
    8.0083  -23.7812   23.6450 C   0  0  0  0  0  0  0  0  0  0  0  0
    7.3718  -24.5403   24.4659 N   0  0  0  0  0  0  0  0  0  0  0  0
    8.7806  -22.6925   24.0997 N   0  0  0  0  0  0  0  0  0  0  0  0
    8.0637  -21.4496   24.4271 C   0  0  0  0  0  0  0  0  0  0  0  0
    7.6427  -20.7437   23.2003 C   0  0  0  0  0  0  0  0  0  0  0  0
    8.3824  -19.5435   22.8208 C   0  0  0  0  0  0  0  0  0  0  0  0
    8.1808  -18.2347   23.4363 C   0  0  2  0  0  0  0  0  0  0  0  0
    8.7659  -17.2247   22.4534 N   0  0  0  0  0  0  0  0  0  0  0  0
    8.6805  -17.8502   24.7183 C   0  0  0  0  0  0  0  0  0  0  0  0
    8.2148  -18.3774   25.7825 O   0  0  0  0  0  0  0  0  0  0  0  0
    7.3613  -24.3479   25.4912 N   0  0  0  0  0  0  0  0  0  0  0  0
    9.7008  -16.8848   24.9085 C   0  0  2  0  0  0  0  0  0  0  0  0
   10.1423  -16.4337   26.2399 C   0  0  0  0  0  0  0  0  0  0  0  0
    8.9768  -16.4758   27.1562 C   0  0  0  0  0  0  0  0  0  0  0  0
    7.8569  -15.6322   26.7671 C   0  0  0  0  0  0  0  0  0  0  0  0
    6.5918  -16.0888   26.3635 N   0  0  0  0  0  0  0  0  0  0  0  0
    5.8386  -15.0361   26.0618 C   0  0  0  0  0  0  0  0  0  0  0  0
    6.5474  -13.9227   26.2489 C   0  0  0  0  0  0  0  0  0  0  0  0
    6.2496  -12.5911   26.1030 C   0  0  0  0  0  0  0  0  0  0  0  0
    7.1547  -11.5926   26.3781 C   0  0  0  0  0  0  0  0  0  0  0  0
    8.4125  -11.9447   26.8182 C   0  0  0  0  0  0  0  0  0  0  0  0
    8.7397  -13.2740   26.9734 C   0  0  0  0  0  0  0  0  0  0  0  0
    7.8181  -14.2702   26.6920 C   0  0  0  0  0  0  0  0  0  0  0  0
   11.3717  -17.0918   26.6475 O   0  0  0  0  0  0  0  0  0  0  0  0
   11.9516  -18.1195   25.9120 O   0  0  0  0  0  0  0  0  0  0  0  0
  2  1  1  0
  3  2  1  0
  4  3  1  0
  5  4  1  0
  5  6  1  6
  7  5  1  0
  8  7  2  0
  9 10  1  0
 10 11  2  0
 10 12  1  0
 12 13  1  0
 13 14  1  0
 14 15  1  0
 16 15  1  6
 16 18  1  0
 16 17  1  0
 17  7  1  0
 18 19  2  0
 20 21  1  0
 20 18  1  0
 21 22  1  6
 23 22  1  0
 24 23  2  0
 25 24  1  0
 26 25  1  0
 26 31  2  0
 27 26  1  0
 28 27  2  0
 28 29  1  0
 29 30  2  0
 30 31  1  0
 31 23  1  0
 32 33  1  0
 32 21  1  0
 34 32  2  0
M  END
$$$$
