MRW.pdb
     RDKit          3D

 34 35  0  0  1  0  0  0  0  0999 V2000
    8.5448  -11.1786   20.1393 C   0  0  0  0  0  0  0  0  0  0  0  0
    6.9516  -11.9751   19.8202 S   0  0  0  0  0  0  0  0  0  0  0  0
    7.1937  -13.6944   19.3429 C   0  0  0  0  0  0  0  0  0  0  0  0
    7.6422  -14.5157   20.5103 C   0  0  0  0  0  0  0  0  0  0  0  0
    8.0547  -15.9174   20.0440 C   0  0  2  0  0  0  0  0  0  0  0  0
    6.9340  -16.5212   19.4135 N   0  0  0  0  0  0  0  0  0  0  0  0
    8.5196  -16.6763   21.2466 C   0  0  0  0  0  0  0  0  0  0  0  0
    7.6981  -17.4967   21.7880 O   0  0  0  0  0  0  0  0  0  0  0  0
   15.1530  -19.7964   19.0236 N   0  0  0  0  0  0  0  0  0  0  0  0
   13.9439  -19.7789   18.2896 C   0  0  0  0  0  0  0  0  0  0  0  0
   13.9644  -20.1304   17.0522 N   0  0  0  0  0  0  0  0  0  0  0  0
   12.7470  -19.3813   18.9203 N   0  0  0  0  0  0  0  0  0  0  0  0
   12.8133  -19.0787   20.3590 C   0  0  0  0  0  0  0  0  0  0  0  0
   11.5384  -18.5083   20.8383 C   0  0  0  0  0  0  0  0  0  0  0  0
   11.4323  -18.1825   22.2576 C   0  0  0  0  0  0  0  0  0  0  0  0
   10.2886  -17.4959   22.8516 C   0  0  2  0  0  0  0  0  0  0  0  0
    9.7970  -16.5205   21.7861 N   0  0  0  0  0  0  0  0  0  0  0  0
   10.3288  -16.7435   24.0654 C   0  0  0  0  0  0  0  0  0  0  0  0
   10.9290  -15.6189   24.1137 O   0  0  0  0  0  0  0  0  0  0  0  0
   13.1196  -20.0440   16.4461 N   0  0  0  0  0  0  0  0  0  0  0  0
    9.7253  -17.1684   25.2756 C   0  0  1  0  0  0  0  0  0  0  0  0
   10.0695  -16.5967   26.5892 C   0  0  0  0  0  0  0  0  0  0  0  0
    8.8139  -16.3921   27.3518 C   0  0  0  0  0  0  0  0  0  0  0  0
    7.8354  -15.5297   26.7067 C   0  0  0  0  0  0  0  0  0  0  0  0
    6.7054  -15.9653   25.9959 N   0  0  0  0  0  0  0  0  0  0  0  0
    6.0625  -14.8997   25.5291 C   0  0  0  0  0  0  0  0  0  0  0  0
    6.7149  -13.7978   25.8998 C   0  0  0  0  0  0  0  0  0  0  0  0
    6.4776  -12.4611   25.7005 C   0  0  0  0  0  0  0  0  0  0  0  0
    7.2968  -11.4776   26.2038 C   0  0  0  0  0  0  0  0  0  0  0  0
    8.4017  -11.8508   26.9384 C   0  0  0  0  0  0  0  0  0  0  0  0
    8.6653  -13.1858   27.1541 C   0  0  0  0  0  0  0  0  0  0  0  0
    7.8316  -14.1667   26.6406 C   0  0  0  0  0  0  0  0  0  0  0  0
   11.1565  -17.3242   27.2214 O   0  0  0  0  0  0  0  0  0  0  0  0
   11.7216  -18.4643   26.6608 O   0  0  0  0  0  0  0  0  0  0  0  0
  2  1  1  0
  3  2  1  0
  4  3  1  0
  5  4  1  0
  5  6  1  1
  7  5  1  0
  8  7  2  0
  9 10  1  0
 10 11  2  0
 10 12  1  0
 12 13  1  0
 13 14  1  0
 14 15  1  0
 16 15  1  6
 16 18  1  0
 16 17  1  0
 17  7  1  0
 18 19  2  0
 20 21  1  0
 20 18  1  0
 21 22  1  1
 23 22  1  0
 24 23  2  0
 25 24  1  0
 26 25  1  0
 26 31  2  0
 27 26  1  0
 28 27  2  0
 28 29  1  0
 29 30  2  0
 30 31  1  0
 31 23  1  0
 32 33  1  0
 32 21  1  0
 34 32  2  0
M  END
$$$$
