MRW.pdb
     RDKit          3D

 34 35  0  0  1  0  0  0  0  0999 V2000
    5.7297  -11.1131   27.0832 C   0  0  0  0  0  0  0  0  0  0  0  0
    5.1289  -12.2797   25.8371 S   0  0  0  0  0  0  0  0  0  0  0  0
    4.5035  -13.7732   26.6250 C   0  0  0  0  0  0  0  0  0  0  0  0
    5.0392  -14.9975   25.9522 C   0  0  0  0  0  0  0  0  0  0  0  0
    6.5720  -15.0023   26.0045 C   0  0  2  0  0  0  0  0  0  0  0  0
    7.0258  -13.6727   25.7942 N   0  0  0  0  0  0  0  0  0  0  0  0
    7.0581  -15.9516   24.9553 C   0  0  0  0  0  0  0  0  0  0  0  0
    6.8454  -17.2016   25.1377 O   0  0  0  0  0  0  0  0  0  0  0  0
    9.1557  -13.2333   16.8380 N   0  0  0  0  0  0  0  0  0  0  0  0
    8.5189  -13.5585   18.0586 C   0  0  0  0  0  0  0  0  0  0  0  0
    8.4622  -12.6677   18.9852 N   0  0  0  0  0  0  0  0  0  0  0  0
    7.9612  -14.8412   18.2380 N   0  0  0  0  0  0  0  0  0  0  0  0
    7.2952  -15.1113   19.5222 C   0  0  0  0  0  0  0  0  0  0  0  0
    8.0822  -16.0590   20.3366 C   0  0  0  0  0  0  0  0  0  0  0  0
    7.5328  -16.4624   21.6278 C   0  0  0  0  0  0  0  0  0  0  0  0
    8.3206  -16.5569   22.8536 C   0  0  2  0  0  0  0  0  0  0  0  0
    7.7234  -15.5245   23.8055 N   0  0  0  0  0  0  0  0  0  0  0  0
    9.7350  -16.3711   22.9310 C   0  0  0  0  0  0  0  0  0  0  0  0
   10.2757  -15.3035   22.4893 O   0  0  0  0  0  0  0  0  0  0  0  0
    8.0909  -12.8903   19.9344 N   0  0  0  0  0  0  0  0  0  0  0  0
   10.6251  -17.3241   23.4868 C   0  0  1  0  0  0  0  0  0  0  0  0
   12.0203  -17.0097   23.8409 C   0  0  0  0  0  0  0  0  0  0  0  0
   12.0254  -15.7765   24.6649 C   0  0  0  0  0  0  0  0  0  0  0  0
   11.5897  -15.9542   26.0418 C   0  0  0  0  0  0  0  0  0  0  0  0
   11.9583  -17.0151   26.8848 N   0  0  0  0  0  0  0  0  0  0  0  0
   11.3484  -16.8570   28.0551 C   0  0  0  0  0  0  0  0  0  0  0  0
   10.6054  -15.7508   28.0156 C   0  0  0  0  0  0  0  0  0  0  0  0
    9.8029  -15.1320   28.9408 C   0  0  0  0  0  0  0  0  0  0  0  0
    9.1316  -13.9608   28.6774 C   0  0  0  0  0  0  0  0  0  0  0  0
    9.2709  -13.3856   27.4326 C   0  0  0  0  0  0  0  0  0  0  0  0
   10.0697  -13.9851   26.4835 C   0  0  0  0  0  0  0  0  0  0  0  0
   10.7403  -15.1657   26.7621 C   0  0  0  0  0  0  0  0  0  0  0  0
   12.7235  -18.1804   24.3366 O   0  0  0  0  0  0  0  0  0  0  0  0
   12.0918  -19.4009   24.5479 O   0  0  0  0  0  0  0  0  0  0  0  0
  2  1  1  0
  3  2  1  0
  4  3  1  0
  5  4  1  0
  5  6  1  6
  7  5  1  0
  8  7  2  0
  9 10  1  0
 10 11  2  0
 10 12  1  0
 12 13  1  0
 13 14  1  0
 14 15  1  0
 16 15  1  6
 16 18  1  0
 16 17  1  0
 17  7  1  0
 18 19  2  0
 20 21  1  0
 20 18  1  0
 21 22  1  6
 23 22  1  0
 24 23  2  0
 25 24  1  0
 26 25  1  0
 26 31  2  0
 27 26  1  0
 28 27  2  0
 28 29  1  0
 29 30  2  0
 30 31  1  0
 31 23  1  0
 32 33  1  0
 32 21  1  0
 34 32  2  0
M  END
$$$$
