MRW.pdb
     RDKit          3D

 34 35  0  0  1  0  0  0  0  0999 V2000
    8.7779  -11.8634   20.4284 C   0  0  0  0  0  0  0  0  0  0  0  0
    7.4000  -12.4062   21.4683 S   0  0  0  0  0  0  0  0  0  0  0  0
    7.0815  -14.1614   21.2226 C   0  0  0  0  0  0  0  0  0  0  0  0
    8.0120  -14.7362   20.2017 C   0  0  0  0  0  0  0  0  0  0  0  0
    7.7897  -16.2484   20.0749 C   0  0  2  0  0  0  0  0  0  0  0  0
    6.4022  -16.4757   19.8716 N   0  0  0  0  0  0  0  0  0  0  0  0
    8.3029  -16.8883   21.3261 C   0  0  0  0  0  0  0  0  0  0  0  0
    7.4424  -17.3287   22.1666 O   0  0  0  0  0  0  0  0  0  0  0  0
   12.3005  -18.2149   17.8622 N   0  0  0  0  0  0  0  0  0  0  0  0
   12.5835  -19.5564   18.2106 C   0  0  0  0  0  0  0  0  0  0  0  0
   13.6892  -20.0804   17.8131 N   0  0  0  0  0  0  0  0  0  0  0  0
   11.6582  -20.2904   18.9810 N   0  0  0  0  0  0  0  0  0  0  0  0
   10.7882  -19.5294   19.8920 C   0  0  0  0  0  0  0  0  0  0  0  0
   11.1214  -19.8146   21.3020 C   0  0  0  0  0  0  0  0  0  0  0  0
   11.2537  -18.6794   22.2106 C   0  0  0  0  0  0  0  0  0  0  0  0
   10.1214  -17.9240   22.7394 C   0  0  2  0  0  0  0  0  0  0  0  0
    9.6651  -17.0175   21.5998 N   0  0  0  0  0  0  0  0  0  0  0  0
   10.1681  -17.0860   23.8955 C   0  0  0  0  0  0  0  0  0  0  0  0
   10.5511  -15.8726   23.8041 O   0  0  0  0  0  0  0  0  0  0  0  0
   13.9377  -21.0680   18.0394 N   0  0  0  0  0  0  0  0  0  0  0  0
    9.8042  -17.5173   25.1958 C   0  0  1  0  0  0  0  0  0  0  0  0
   10.0768  -16.7282   26.4099 C   0  0  0  0  0  0  0  0  0  0  0  0
    8.8196  -16.6234   27.1896 C   0  0  0  0  0  0  0  0  0  0  0  0
    7.7346  -15.9247   26.5173 C   0  0  0  0  0  0  0  0  0  0  0  0
    6.7076  -16.5313   25.7762 N   0  0  0  0  0  0  0  0  0  0  0  0
    5.9170  -15.5794   25.2911 C   0  0  0  0  0  0  0  0  0  0  0  0
    6.3761  -14.3894   25.6786 C   0  0  0  0  0  0  0  0  0  0  0  0
    5.9355  -13.1065   25.4717 C   0  0  0  0  0  0  0  0  0  0  0  0
    6.5745  -12.0074   25.9965 C   0  0  0  0  0  0  0  0  0  0  0  0
    7.7042  -12.2033   26.7614 C   0  0  0  0  0  0  0  0  0  0  0  0
    8.1701  -13.4805   26.9854 C   0  0  0  0  0  0  0  0  0  0  0  0
    7.5166  -14.5793   26.4500 C   0  0  0  0  0  0  0  0  0  0  0  0
   11.2788  -17.1849   27.0863 O   0  0  0  0  0  0  0  0  0  0  0  0
   11.8337  -16.5088   28.1673 O   0  0  0  0  0  0  0  0  0  0  0  0
  2  1  1  0
  3  2  1  0
  4  3  1  0
  5  4  1  0
  5  6  1  1
  7  5  1  0
  8  7  2  0
  9 10  1  0
 10 11  2  0
 10 12  1  0
 12 13  1  0
 13 14  1  0
 14 15  1  0
 16 15  1  6
 16 18  1  0
 16 17  1  0
 17  7  1  0
 18 19  2  0
 20 21  1  0
 20 18  1  0
 21 22  1  1
 23 22  1  0
 24 23  2  0
 25 24  1  0
 26 25  1  0
 26 31  2  0
 27 26  1  0
 28 27  2  0
 28 29  1  0
 29 30  2  0
 30 31  1  0
 31 23  1  0
 32 33  1  0
 32 21  1  0
 34 32  2  0
M  END
$$$$
