MRW.pdb
     RDKit          3D

 34 35  0  0  1  0  0  0  0  0999 V2000
    8.0444  -17.2498   28.3387 C   0  0  0  0  0  0  0  0  0  0  0  0
    7.2086  -18.8481   28.4857 S   0  0  0  0  0  0  0  0  0  0  0  0
    6.3819  -19.2686   26.9423 C   0  0  0  0  0  0  0  0  0  0  0  0
    7.3463  -19.8583   25.9622 C   0  0  0  0  0  0  0  0  0  0  0  0
    6.6533  -20.0949   24.6146 C   0  0  2  0  0  0  0  0  0  0  0  0
    6.7678  -21.4743   24.2947 N   0  0  0  0  0  0  0  0  0  0  0  0
    7.3133  -19.2105   23.6043 C   0  0  0  0  0  0  0  0  0  0  0  0
    8.3921  -19.6323   23.0572 O   0  0  0  0  0  0  0  0  0  0  0  0
    8.3861  -13.9343   17.1570 N   0  0  0  0  0  0  0  0  0  0  0  0
    7.9987  -13.2604   18.3389 C   0  0  0  0  0  0  0  0  0  0  0  0
    8.7362  -12.3011   18.7760 N   0  0  0  0  0  0  0  0  0  0  0  0
    6.8212  -13.6466   19.0117 N   0  0  0  0  0  0  0  0  0  0  0  0
    6.9776  -14.2821   20.3299 C   0  0  0  0  0  0  0  0  0  0  0  0
    7.1614  -15.7410   20.1946 C   0  0  0  0  0  0  0  0  0  0  0  0
    6.7402  -16.5840   21.3099 C   0  0  0  0  0  0  0  0  0  0  0  0
    7.6324  -17.0263   22.3779 C   0  0  2  0  0  0  0  0  0  0  0  0
    6.7988  -17.9637   23.2467 N   0  0  0  0  0  0  0  0  0  0  0  0
    8.3038  -16.1579   23.2923 C   0  0  0  0  0  0  0  0  0  0  0  0
    8.1489  -14.8936   23.2213 O   0  0  0  0  0  0  0  0  0  0  0  0
    8.5650  -11.8614   19.7064 N   0  0  0  0  0  0  0  0  0  0  0  0
    9.1675  -16.6126   24.3202 C   0  0  1  0  0  0  0  0  0  0  0  0
   10.0629  -15.7164   25.0725 C   0  0  0  0  0  0  0  0  0  0  0  0
    9.5307  -15.5746   26.4496 C   0  0  0  0  0  0  0  0  0  0  0  0
    8.1535  -15.1125   26.5328 C   0  0  0  0  0  0  0  0  0  0  0  0
    7.0168  -15.9359   26.5765 N   0  0  0  0  0  0  0  0  0  0  0  0
    5.9363  -15.1633   26.6241 C   0  0  0  0  0  0  0  0  0  0  0  0
    6.3120  -13.8843   26.6143 C   0  0  0  0  0  0  0  0  0  0  0  0
    5.6115  -12.7054   26.6628 C   0  0  0  0  0  0  0  0  0  0  0  0
    6.2261  -11.4749   26.6589 C   0  0  0  0  0  0  0  0  0  0  0  0
    7.6024  -11.4246   26.6037 C   0  0  0  0  0  0  0  0  0  0  0  0
    8.3318  -12.5924   26.5536 C   0  0  0  0  0  0  0  0  0  0  0  0
    7.6995  -13.8259   26.5576 C   0  0  0  0  0  0  0  0  0  0  0  0
   11.4575  -16.0853   24.9002 O   0  0  0  0  0  0  0  0  0  0  0  0
   11.8532  -17.2041   24.1756 O   0  0  0  0  0  0  0  0  0  0  0  0
  2  1  1  0
  3  2  1  0
  4  3  1  0
  5  4  1  0
  5  6  1  6
  7  5  1  0
  8  7  2  0
  9 10  1  0
 10 11  2  0
 10 12  1  0
 12 13  1  0
 13 14  1  0
 14 15  1  0
 16 15  1  6
 16 18  1  0
 16 17  1  0
 17  7  1  0
 18 19  2  0
 20 21  1  0
 20 18  1  0
 21 22  1  1
 23 22  1  0
 24 23  2  0
 25 24  1  0
 26 25  1  0
 26 31  2  0
 27 26  1  0
 28 27  2  0
 28 29  1  0
 29 30  2  0
 30 31  1  0
 31 23  1  0
 32 33  1  0
 32 21  1  0
 34 32  2  0
M  END
$$$$
