MRW.pdb
     RDKit          3D

 34 35  0  0  1  0  0  0  0  0999 V2000
    8.6527  -11.2367   20.4578 C   0  0  0  0  0  0  0  0  0  0  0  0
    7.2697  -11.9081   19.5031 S   0  0  0  0  0  0  0  0  0  0  0  0
    7.5794  -13.6294   19.0749 C   0  0  0  0  0  0  0  0  0  0  0  0
    7.8364  -14.4478   20.3007 C   0  0  0  0  0  0  0  0  0  0  0  0
    8.1959  -15.8869   19.9105 C   0  0  2  0  0  0  0  0  0  0  0  0
    7.0979  -16.4391   19.1981 N   0  0  0  0  0  0  0  0  0  0  0  0
    8.5026  -16.6344   21.1697 C   0  0  0  0  0  0  0  0  0  0  0  0
    7.5422  -17.2626   21.7390 O   0  0  0  0  0  0  0  0  0  0  0  0
   15.3640  -22.3583   24.7025 N   0  0  0  0  0  0  0  0  0  0  0  0
   14.8901  -21.2539   23.9564 C   0  0  0  0  0  0  0  0  0  0  0  0
   15.7354  -20.5409   23.2989 N   0  0  0  0  0  0  0  0  0  0  0  0
   13.5119  -20.9556   23.9449 N   0  0  0  0  0  0  0  0  0  0  0  0
   13.0686  -19.8581   23.0704 C   0  0  0  0  0  0  0  0  0  0  0  0
   11.6062  -19.6721   23.1560 C   0  0  0  0  0  0  0  0  0  0  0  0
   11.0106  -18.6041   22.3581 C   0  0  0  0  0  0  0  0  0  0  0  0
   10.0688  -17.6216   22.8871 C   0  0  2  0  0  0  0  0  0  0  0  0
    9.7792  -16.6675   21.7320 N   0  0  0  0  0  0  0  0  0  0  0  0
   10.3126  -16.7845   24.0189 C   0  0  0  0  0  0  0  0  0  0  0  0
   11.1045  -15.7882   23.9321 O   0  0  0  0  0  0  0  0  0  0  0  0
   15.4335  -19.7131   22.7404 N   0  0  0  0  0  0  0  0  0  0  0  0
    9.7148  -16.9832   25.2887 C   0  0  1  0  0  0  0  0  0  0  0  0
   10.1026  -16.2198   26.4878 C   0  0  0  0  0  0  0  0  0  0  0  0
    8.8785  -15.9367   27.2759 C   0  0  0  0  0  0  0  0  0  0  0  0
    7.8443  -15.2011   26.5640 C   0  0  0  0  0  0  0  0  0  0  0  0
    6.7479  -15.7717   25.8976 N   0  0  0  0  0  0  0  0  0  0  0  0
    6.0344  -14.7961   25.3447 C   0  0  0  0  0  0  0  0  0  0  0  0
    6.6093  -13.6247   25.6177 C   0  0  0  0  0  0  0  0  0  0  0  0
    6.2814  -12.3291   25.3066 C   0  0  0  0  0  0  0  0  0  0  0  0
    7.0306  -11.2527   25.7212 C   0  0  0  0  0  0  0  0  0  0  0  0
    8.1572  -11.4857   26.4802 C   0  0  0  0  0  0  0  0  0  0  0  0
    8.5112  -12.7764   26.8074 C   0  0  0  0  0  0  0  0  0  0  0  0
    7.7473  -13.8522   26.3825 C   0  0  0  0  0  0  0  0  0  0  0  0
   11.2397  -16.8228   27.1616 O   0  0  0  0  0  0  0  0  0  0  0  0
   11.7642  -18.0558   26.7899 O   0  0  0  0  0  0  0  0  0  0  0  0
  2  1  1  0
  3  2  1  0
  4  3  1  0
  5  4  1  0
  5  6  1  1
  7  5  1  0
  8  7  2  0
  9 10  1  0
 10 11  2  0
 10 12  1  0
 12 13  1  0
 13 14  1  0
 14 15  1  0
 16 15  1  6
 16 18  1  0
 16 17  1  0
 17  7  1  0
 18 19  2  0
 20 21  1  0
 20 18  1  0
 21 22  1  1
 23 22  1  0
 24 23  2  0
 25 24  1  0
 26 25  1  0
 26 31  2  0
 27 26  1  0
 28 27  2  0
 28 29  1  0
 29 30  2  0
 30 31  1  0
 31 23  1  0
 32 33  1  0
 32 21  1  0
 34 32  2  0
M  END
$$$$
