HHI.pdb
     RDKit          3D

 29 30  0  0  1  0  0  0  0  0999 V2000
   27.5615  -33.9874    4.0659 N   0  0  0  0  0  0  0  0  0  0  0  0
   28.1359  -33.4753    5.2805 C   0  0  1  0  0  0  0  0  0  0  0  0
   29.3858  -32.7101    4.9837 C   0  0  0  0  0  0  0  0  0  0  0  0
   30.5194  -33.5247    4.5223 C   0  0  0  0  0  0  0  0  0  0  0  0
   30.5269  -34.8306    4.0856 C   0  0  0  0  0  0  0  0  0  0  0  0
   31.7903  -35.1655    3.7768 N   0  0  0  0  0  0  0  0  0  0  0  0
   32.5520  -34.0992    4.0136 C   0  0  0  0  0  0  0  0  0  0  0  0
   31.7892  -33.0903    4.4691 N   0  0  0  0  0  0  0  0  0  0  0  0
   27.1859  -32.7443    6.1468 C   0  0  0  0  0  0  0  0  0  0  0  0
   26.3492  -31.9760    5.5591 O   0  0  0  0  0  0  0  0  0  0  0  0
   27.1056  -32.8013    7.5399 N   0  0  0  0  0  0  0  0  0  0  0  0
   26.1984  -32.1053    8.3996 C   0  0  1  0  0  0  0  0  0  0  0  0
   26.0183  -32.6665    9.7614 C   0  0  0  0  0  0  0  0  0  0  0  0
   25.1377  -33.8526    9.7517 C   0  0  0  0  0  0  0  0  0  0  0  0
   24.0505  -34.0896    8.9570 C   0  0  0  0  0  0  0  0  0  0  0  0
   23.5736  -35.2941    9.3101 N   0  0  0  0  0  0  0  0  0  0  0  0
   24.3042  -35.8245   10.2839 C   0  0  0  0  0  0  0  0  0  0  0  0
   25.2822  -34.9143   10.5543 N   0  0  0  0  0  0  0  0  0  0  0  0
   26.5751  -30.6659    8.4639 C   0  0  0  0  0  0  0  0  0  0  0  0
   27.7618  -30.2693    8.3207 O   0  0  0  0  0  0  0  0  0  0  0  0
   22.8836  -26.8379    6.8914 C   0  0  0  0  0  0  0  0  0  0  0  0
   24.1535  -27.6315    7.0774 C   0  0  0  0  0  0  0  0  0  0  0  0
   24.6425  -27.4293    8.4828 C   0  0  2  0  0  0  0  0  0  0  0  0
   25.0146  -25.9805    8.7445 C   0  0  0  0  0  0  0  0  0  0  0  0
   25.8605  -28.2751    8.7921 C   0  0  2  0  0  0  0  0  0  0  0  0
   25.5758  -29.6859    8.6939 N   0  0  0  0  0  0  0  0  0  0  0  0
   26.2703  -27.9692   10.1788 C   0  0  0  0  0  0  0  0  0  0  0  0
   25.8029  -28.5383   11.1985 O   0  0  0  0  0  0  0  0  0  0  0  0
   27.2298  -26.9960   10.3930 O   0  0  0  0  0  0  0  0  0  0  0  0
  2  9  1  0
  2  1  1  6
  3  2  1  0
  4  3  1  0
  4  8  1  0
  5  4  2  0
  6  5  1  0
  6  7  1  0
  7  8  2  0
  9 10  2  0
 11 12  1  0
 11  9  1  0
 13 14  1  0
 12 13  1  1
 14 18  1  0
 15 14  2  0
 15 16  1  0
 16 17  1  0
 18 17  2  0
 19 20  2  0
 19 12  1  0
 22 21  1  0
 22 23  1  0
 23 25  1  0
 23 24  1  6
 25 26  1  1
 25 27  1  0
 26 19  1  0
 27 29  1  0
 28 27  2  0
M  END
$$$$
