HHI.pdb
     RDKit          3D

 29 30  0  0  1  0  0  0  0  0999 V2000
   29.7822  -31.1249  -16.7625 N   0  0  0  0  0  0  0  0  0  0  0  0
   29.5222  -32.4770  -17.1766 C   0  0  1  0  0  0  0  0  0  0  0  0
   30.3841  -33.4309  -16.4130 C   0  0  0  0  0  0  0  0  0  0  0  0
   31.7768  -33.5182  -16.8758 C   0  0  0  0  0  0  0  0  0  0  0  0
   32.5230  -32.5841  -17.5590 C   0  0  0  0  0  0  0  0  0  0  0  0
   33.7422  -33.1002  -17.7845 N   0  0  0  0  0  0  0  0  0  0  0  0
   33.7586  -34.3230  -17.2573 C   0  0  0  0  0  0  0  0  0  0  0  0
   32.5653  -34.5911  -16.6993 N   0  0  0  0  0  0  0  0  0  0  0  0
   28.0911  -32.8502  -17.1866 C   0  0  0  0  0  0  0  0  0  0  0  0
   27.3755  -32.4024  -16.2258 O   0  0  0  0  0  0  0  0  0  0  0  0
   27.4367  -33.6421  -18.1326 N   0  0  0  0  0  0  0  0  0  0  0  0
   26.0550  -34.0111  -18.1690 C   0  0  1  0  0  0  0  0  0  0  0  0
   25.6036  -34.7598  -19.3680 C   0  0  0  0  0  0  0  0  0  0  0  0
   24.1302  -34.7846  -19.4741 C   0  0  0  0  0  0  0  0  0  0  0  0
   23.2294  -33.9226  -18.9128 C   0  0  0  0  0  0  0  0  0  0  0  0
   22.0111  -34.3448  -19.2873 N   0  0  0  0  0  0  0  0  0  0  0  0
   22.1006  -35.4257  -20.0536 C   0  0  0  0  0  0  0  0  0  0  0  0
   23.4323  -35.6942  -20.1654 N   0  0  0  0  0  0  0  0  0  0  0  0
   25.6999  -34.7427  -16.9214 C   0  0  0  0  0  0  0  0  0  0  0  0
   26.3302  -35.7604  -16.5301 O   0  0  0  0  0  0  0  0  0  0  0  0
   25.8160  -32.6117  -12.3465 C   0  0  0  0  0  0  0  0  0  0  0  0
   25.7575  -33.5007  -13.5644 C   0  0  0  0  0  0  0  0  0  0  0  0
   24.3592  -34.0306  -13.7031 C   0  0  2  0  0  0  0  0  0  0  0  0
   23.9329  -34.8172  -12.4761 C   0  0  0  0  0  0  0  0  0  0  0  0
   24.2094  -34.9426  -14.9032 C   0  0  2  0  0  0  0  0  0  0  0  0
   24.6140  -34.2941  -16.1266 N   0  0  0  0  0  0  0  0  0  0  0  0
   22.7801  -35.3039  -15.0079 C   0  0  0  0  0  0  0  0  0  0  0  0
   21.9184  -34.6196  -15.6172 O   0  0  0  0  0  0  0  0  0  0  0  0
   22.3386  -36.4672  -14.4035 O   0  0  0  0  0  0  0  0  0  0  0  0
  2  9  1  0
  2  1  1  1
  3  2  1  0
  4  3  1  0
  4  8  1  0
  5  4  2  0
  6  5  1  0
  6  7  1  0
  7  8  2  0
  9 10  2  0
 11 12  1  0
 11  9  1  0
 13 14  1  0
 12 13  1  6
 14 18  1  0
 15 14  2  0
 15 16  1  0
 16 17  1  0
 18 17  2  0
 19 20  2  0
 19 12  1  0
 22 21  1  0
 22 23  1  0
 23 25  1  0
 23 24  1  1
 25 26  1  6
 25 27  1  0
 26 19  1  0
 27 29  1  0
 28 27  2  0
M  END
$$$$
