HHI.pdb
     RDKit          3D

 29 30  0  0  1  0  0  0  0  0999 V2000
   28.8769  -20.3369  -18.0910 N   0  0  0  0  0  0  0  0  0  0  0  0
   27.9992  -21.1350  -17.2785 C   0  0  1  0  0  0  0  0  0  0  0  0
   28.7906  -21.9904  -16.3416 C   0  0  0  0  0  0  0  0  0  0  0  0
   29.4889  -23.1210  -16.9705 C   0  0  0  0  0  0  0  0  0  0  0  0
   29.2421  -24.4699  -16.8450 C   0  0  0  0  0  0  0  0  0  0  0  0
   30.1389  -25.1346  -17.5918 N   0  0  0  0  0  0  0  0  0  0  0  0
   30.9248  -24.2273  -18.1684 C   0  0  0  0  0  0  0  0  0  0  0  0
   30.5393  -22.9939  -17.7979 N   0  0  0  0  0  0  0  0  0  0  0  0
   26.9177  -20.3745  -16.6156 C   0  0  0  0  0  0  0  0  0  0  0  0
   27.2379  -19.7232  -15.5625 O   0  0  0  0  0  0  0  0  0  0  0  0
   25.5821  -20.2931  -17.0152 N   0  0  0  0  0  0  0  0  0  0  0  0
   24.4908  -19.6800  -16.3226 C   0  0  1  0  0  0  0  0  0  0  0  0
   23.2986  -19.3414  -17.1386 C   0  0  0  0  0  0  0  0  0  0  0  0
   22.2885  -18.6050  -16.3510 C   0  0  0  0  0  0  0  0  0  0  0  0
   22.3427  -18.2490  -15.0320 C   0  0  0  0  0  0  0  0  0  0  0  0
   21.1999  -17.5970  -14.7643 N   0  0  0  0  0  0  0  0  0  0  0  0
   20.4323  -17.5255  -15.8455 C   0  0  0  0  0  0  0  0  0  0  0  0
   21.1225  -18.1599  -16.8352 N   0  0  0  0  0  0  0  0  0  0  0  0
   24.1114  -20.5145  -15.1490 C   0  0  0  0  0  0  0  0  0  0  0  0
   23.8346  -21.7390  -15.2496 O   0  0  0  0  0  0  0  0  0  0  0  0
   26.8214  -21.0266  -10.6744 C   0  0  0  0  0  0  0  0  0  0  0  0
   25.8865  -21.2291  -11.8414 C   0  0  0  0  0  0  0  0  0  0  0  0
   24.5911  -20.5303  -11.5434 C   0  0  2  0  0  0  0  0  0  0  0  0
   23.9200  -21.0968  -10.3045 C   0  0  0  0  0  0  0  0  0  0  0  0
   23.6042  -20.6424  -12.6871 C   0  0  2  0  0  0  0  0  0  0  0  0
   24.0533  -19.9295  -13.8580 N   0  0  0  0  0  0  0  0  0  0  0  0
   22.3296  -20.0496  -12.2306 C   0  0  0  0  0  0  0  0  0  0  0  0
   22.0752  -18.8179  -12.2437 O   0  0  0  0  0  0  0  0  0  0  0  0
   21.3365  -20.8860  -11.7532 O   0  0  0  0  0  0  0  0  0  0  0  0
  2  9  1  0
  2  1  1  1
  3  2  1  0
  4  3  1  0
  4  8  1  0
  5  4  2  0
  6  5  1  0
  6  7  1  0
  7  8  2  0
  9 10  2  0
 11 12  1  0
 11  9  1  0
 13 14  1  0
 12 13  1  6
 14 18  1  0
 15 14  2  0
 15 16  1  0
 16 17  1  0
 18 17  2  0
 19 20  2  0
 19 12  1  0
 22 21  1  0
 22 23  1  0
 23 25  1  0
 23 24  1  1
 25 26  1  6
 25 27  1  0
 26 19  1  0
 27 29  1  0
 28 27  2  0
M  END
$$$$
