HHI.pdb
     RDKit          3D

 29 30  0  0  1  0  0  0  0  0999 V2000
   22.7278  -16.8753  -17.5103 N   0  0  0  0  0  0  0  0  0  0  0  0
   23.4827  -16.8620  -16.2866 C   0  0  1  0  0  0  0  0  0  0  0  0
   22.6186  -16.4285  -15.1459 C   0  0  0  0  0  0  0  0  0  0  0  0
   21.8878  -15.1711  -15.3616 C   0  0  0  0  0  0  0  0  0  0  0  0
   22.3832  -13.9215  -15.6607 C   0  0  0  0  0  0  0  0  0  0  0  0
   21.3496  -13.0692  -15.7558 N   0  0  0  0  0  0  0  0  0  0  0  0
   20.2388  -13.7656  -15.5228 C   0  0  0  0  0  0  0  0  0  0  0  0
   20.5526  -15.0502  -15.2807 N   0  0  0  0  0  0  0  0  0  0  0  0
   24.2371  -18.1055  -16.0186 C   0  0  0  0  0  0  0  0  0  0  0  0
   23.5500  -19.1323  -15.6876 O   0  0  0  0  0  0  0  0  0  0  0  0
   25.6211  -18.2787  -16.0860 N   0  0  0  0  0  0  0  0  0  0  0  0
   26.3657  -19.4916  -15.9405 C   0  0  1  0  0  0  0  0  0  0  0  0
   27.6157  -19.5973  -16.7331 C   0  0  0  0  0  0  0  0  0  0  0  0
   28.2535  -20.9204  -16.5739 C   0  0  0  0  0  0  0  0  0  0  0  0
   27.8020  -21.9937  -15.8570 C   0  0  0  0  0  0  0  0  0  0  0  0
   28.7147  -22.9667  -16.0091 N   0  0  0  0  0  0  0  0  0  0  0  0
   29.7142  -22.5602  -16.7831 C   0  0  0  0  0  0  0  0  0  0  0  0
   29.4168  -21.2766  -17.1325 N   0  0  0  0  0  0  0  0  0  0  0  0
   26.6291  -19.7465  -14.4970 C   0  0  0  0  0  0  0  0  0  0  0  0
   27.5151  -19.1276  -13.8506 O   0  0  0  0  0  0  0  0  0  0  0  0
   25.2662  -18.6467   -9.8703 C   0  0  0  0  0  0  0  0  0  0  0  0
   26.1537  -19.3185  -10.8892 C   0  0  0  0  0  0  0  0  0  0  0  0
   25.4576  -20.5508  -11.3913 C   0  0  2  0  0  0  0  0  0  0  0  0
   25.2568  -21.5719  -10.2855 C   0  0  0  0  0  0  0  0  0  0  0  0
   26.2290  -21.2303  -12.5039 C   0  0  2  0  0  0  0  0  0  0  0  0
   25.8646  -20.7188  -13.8026 N   0  0  0  0  0  0  0  0  0  0  0  0
   25.9019  -22.6707  -12.4524 C   0  0  0  0  0  0  0  0  0  0  0  0
   26.4190  -23.4872  -11.6475 O   0  0  0  0  0  0  0  0  0  0  0  0
   24.9680  -23.1762  -13.3390 O   0  0  0  0  0  0  0  0  0  0  0  0
  2  9  1  0
  2  1  1  6
  3  2  1  0
  4  3  1  0
  4  8  1  0
  5  4  2  0
  6  5  1  0
  6  7  1  0
  7  8  2  0
  9 10  2  0
 11 12  1  0
 11  9  1  0
 13 14  1  0
 12 13  1  6
 14 18  1  0
 15 14  2  0
 15 16  1  0
 16 17  1  0
 18 17  2  0
 19 20  2  0
 19 12  1  0
 22 21  1  0
 22 23  1  0
 23 25  1  0
 23 24  1  1
 25 26  1  6
 25 27  1  0
 26 19  1  0
 27 29  1  0
 28 27  2  0
M  END
$$$$
