HHI.pdb
     RDKit          3D

 29 30  0  0  1  0  0  0  0  0999 V2000
   27.6554  -22.7766  -16.9711 N   0  0  0  0  0  0  0  0  0  0  0  0
   28.0824  -21.4298  -16.7044 C   0  0  1  0  0  0  0  0  0  0  0  0
   28.4063  -20.7231  -17.9816 C   0  0  0  0  0  0  0  0  0  0  0  0
   29.4163  -21.3852  -18.8202 C   0  0  0  0  0  0  0  0  0  0  0  0
   29.3796  -22.6354  -19.3963 C   0  0  0  0  0  0  0  0  0  0  0  0
   30.5282  -22.8258  -20.0657 N   0  0  0  0  0  0  0  0  0  0  0  0
   31.2631  -21.7258  -19.9129 C   0  0  0  0  0  0  0  0  0  0  0  0
   30.5964  -20.8381  -19.1547 N   0  0  0  0  0  0  0  0  0  0  0  0
   27.1790  -20.6651  -15.8174 C   0  0  0  0  0  0  0  0  0  0  0  0
   27.4537  -19.4273  -15.6495 O   0  0  0  0  0  0  0  0  0  0  0  0
   26.0581  -21.1507  -15.1407 N   0  0  0  0  0  0  0  0  0  0  0  0
   25.1260  -20.4181  -14.3400 C   0  0  1  0  0  0  0  0  0  0  0  0
   23.8627  -20.0118  -15.0039 C   0  0  0  0  0  0  0  0  0  0  0  0
   24.1172  -19.2711  -16.2566 C   0  0  0  0  0  0  0  0  0  0  0  0
   24.1208  -19.7536  -17.5360 C   0  0  0  0  0  0  0  0  0  0  0  0
   24.4009  -18.7128  -18.3367 N   0  0  0  0  0  0  0  0  0  0  0  0
   24.5731  -17.6036  -17.6270 C   0  0  0  0  0  0  0  0  0  0  0  0
   24.3935  -17.9629  -16.3244 N   0  0  0  0  0  0  0  0  0  0  0  0
   24.8483  -21.1681  -13.0837 C   0  0  0  0  0  0  0  0  0  0  0  0
   24.7239  -22.4210  -13.0562 O   0  0  0  0  0  0  0  0  0  0  0  0
   26.9773  -19.3983   -8.4757 C   0  0  0  0  0  0  0  0  0  0  0  0
   26.4640  -20.3768   -9.5034 C   0  0  0  0  0  0  0  0  0  0  0  0
   24.9650  -20.4147   -9.4208 C   0  0  2  0  0  0  0  0  0  0  0  0
   24.4897  -21.1460   -8.1777 C   0  0  0  0  0  0  0  0  0  0  0  0
   24.3433  -21.1022  -10.6189 C   0  0  2  0  0  0  0  0  0  0  0  0
   24.7155  -20.4654  -11.8587 N   0  0  0  0  0  0  0  0  0  0  0  0
   22.8758  -21.0182  -10.4643 C   0  0  0  0  0  0  0  0  0  0  0  0
   22.1605  -20.1126  -10.9646 O   0  0  0  0  0  0  0  0  0  0  0  0
   22.2249  -21.9890   -9.7243 O   0  0  0  0  0  0  0  0  0  0  0  0
  2  9  1  0
  2  1  1  6
  3  2  1  0
  4  3  1  0
  4  8  1  0
  5  4  2  0
  6  5  1  0
  6  7  1  0
  7  8  2  0
  9 10  2  0
 11 12  1  0
 11  9  1  0
 13 14  1  0
 12 13  1  6
 14 18  1  0
 15 14  2  0
 15 16  1  0
 16 17  1  0
 18 17  2  0
 19 20  2  0
 19 12  1  0
 22 21  1  0
 22 23  1  0
 23 25  1  0
 23 24  1  1
 25 26  1  6
 25 27  1  0
 26 19  1  0
 27 29  1  0
 28 27  2  0
M  END
$$$$
