HHI.pdb
     RDKit          3D

 29 30  0  0  1  0  0  0  0  0999 V2000
   21.5971  -10.9095  -18.9332 N   0  0  0  0  0  0  0  0  0  0  0  0
   22.0928   -9.6795  -18.3776 C   0  0  1  0  0  0  0  0  0  0  0  0
   22.8431   -8.9048  -19.4133 C   0  0  0  0  0  0  0  0  0  0  0  0
   23.9759   -9.6163  -20.0232 C   0  0  0  0  0  0  0  0  0  0  0  0
   24.1280  -10.0524  -21.3205 C   0  0  0  0  0  0  0  0  0  0  0  0
   25.3188  -10.6649  -21.4233 N   0  0  0  0  0  0  0  0  0  0  0  0
   25.8956  -10.6136  -20.2242 C   0  0  0  0  0  0  0  0  0  0  0  0
   25.0869   -9.9763  -19.3599 N   0  0  0  0  0  0  0  0  0  0  0  0
   21.0777   -8.8787  -17.6593 C   0  0  0  0  0  0  0  0  0  0  0  0
   19.9100   -8.8344  -18.1792 O   0  0  0  0  0  0  0  0  0  0  0  0
   21.2581   -8.1629  -16.4739 N   0  0  0  0  0  0  0  0  0  0  0  0
   20.2833   -7.4205  -15.7355 C   0  0  1  0  0  0  0  0  0  0  0  0
   19.8466   -8.0070  -14.4444 C   0  0  0  0  0  0  0  0  0  0  0  0
   19.0520   -9.2365  -14.6436 C   0  0  0  0  0  0  0  0  0  0  0  0
   17.7857   -9.3502  -15.1467 C   0  0  0  0  0  0  0  0  0  0  0  0
   17.4861  -10.6590  -15.1369 N   0  0  0  0  0  0  0  0  0  0  0  0
   18.4975  -11.3716  -14.6543 C   0  0  0  0  0  0  0  0  0  0  0  0
   19.4745  -10.4719  -14.3477 N   0  0  0  0  0  0  0  0  0  0  0  0
   20.7564   -6.0206  -15.5498 C   0  0  0  0  0  0  0  0  0  0  0  0
   21.8421   -5.7431  -14.9751 O   0  0  0  0  0  0  0  0  0  0  0  0
   21.9701   -1.2588  -18.5616 C   0  0  0  0  0  0  0  0  0  0  0  0
   21.2604   -1.6144  -17.2782 C   0  0  0  0  0  0  0  0  0  0  0  0
   20.9579   -3.0853  -17.2906 C   0  0  2  0  0  0  0  0  0  0  0  0
   19.9512   -3.4421  -18.3700 C   0  0  0  0  0  0  0  0  0  0  0  0
   20.3963   -3.5650  -15.9681 C   0  0  2  0  0  0  0  0  0  0  0  0
   19.9709   -4.9420  -16.0311 N   0  0  0  0  0  0  0  0  0  0  0  0
   19.2251   -2.7205  -15.6529 C   0  0  0  0  0  0  0  0  0  0  0  0
   19.2962   -1.5352  -15.2381 O   0  0  0  0  0  0  0  0  0  0  0  0
   17.9569   -3.2480  -15.8176 O   0  0  0  0  0  0  0  0  0  0  0  0
  2  9  1  0
  2  1  1  6
  3  2  1  0
  4  3  1  0
  4  8  1  0
  5  4  2  0
  6  5  1  0
  6  7  1  0
  7  8  2  0
  9 10  2  0
 11 12  1  0
 11  9  1  0
 13 14  1  0
 12 13  1  1
 14 18  1  0
 15 14  2  0
 15 16  1  0
 16 17  1  0
 18 17  2  0
 19 20  2  0
 19 12  1  0
 22 21  1  0
 22 23  1  0
 23 25  1  0
 23 24  1  6
 25 26  1  6
 25 27  1  0
 26 19  1  0
 27 29  1  0
 28 27  2  0
M  END
$$$$
