HHI.pdb
     RDKit          3D

 29 30  0  0  1  0  0  0  0  0999 V2000
   25.7095  -17.6627  -17.8407 N   0  0  0  0  0  0  0  0  0  0  0  0
   26.5141  -17.9073  -16.6743 C   0  0  1  0  0  0  0  0  0  0  0  0
   27.4741  -16.7816  -16.4580 C   0  0  0  0  0  0  0  0  0  0  0  0
   28.4417  -16.5713  -17.5448 C   0  0  0  0  0  0  0  0  0  0  0  0
   29.5794  -17.2877  -17.8426 C   0  0  0  0  0  0  0  0  0  0  0  0
   30.1623  -16.7280  -18.9153 N   0  0  0  0  0  0  0  0  0  0  0  0
   29.4106  -15.6905  -19.2785 C   0  0  0  0  0  0  0  0  0  0  0  0
   28.3570  -15.5832  -18.4506 N   0  0  0  0  0  0  0  0  0  0  0  0
   25.7447  -18.2700  -15.4644 C   0  0  0  0  0  0  0  0  0  0  0  0
   25.0664  -17.3351  -14.9152 O   0  0  0  0  0  0  0  0  0  0  0  0
   25.6810  -19.5249  -14.8550 N   0  0  0  0  0  0  0  0  0  0  0  0
   24.8949  -19.9176  -13.7261 C   0  0  1  0  0  0  0  0  0  0  0  0
   23.8266  -20.9154  -13.9812 C   0  0  0  0  0  0  0  0  0  0  0  0
   22.7226  -20.3423  -14.7783 C   0  0  0  0  0  0  0  0  0  0  0  0
   22.6003  -19.0666  -15.2551 C   0  0  0  0  0  0  0  0  0  0  0  0
   21.4343  -19.0164  -15.9191 N   0  0  0  0  0  0  0  0  0  0  0  0
   20.8194  -20.1929  -15.8837 C   0  0  0  0  0  0  0  0  0  0  0  0
   21.6340  -21.0178  -15.1667 N   0  0  0  0  0  0  0  0  0  0  0  0
   25.7910  -20.3688  -12.6255 C   0  0  0  0  0  0  0  0  0  0  0  0
   26.8788  -20.9662  -12.8395 O   0  0  0  0  0  0  0  0  0  0  0  0
   26.7368  -17.9688   -7.8209 C   0  0  0  0  0  0  0  0  0  0  0  0
   26.8466  -18.7990   -9.0762 C   0  0  0  0  0  0  0  0  0  0  0  0
   26.0239  -20.0429   -8.9006 C   0  0  2  0  0  0  0  0  0  0  0  0
   26.5753  -20.9294   -7.7979 C   0  0  0  0  0  0  0  0  0  0  0  0
   25.9654  -20.8736  -10.1660 C   0  0  2  0  0  0  0  0  0  0  0  0
   25.4262  -20.1268  -11.2763 N   0  0  0  0  0  0  0  0  0  0  0  0
   25.0820  -22.0275   -9.8966 C   0  0  0  0  0  0  0  0  0  0  0  0
   23.8278  -21.9967   -9.9863 O   0  0  0  0  0  0  0  0  0  0  0  0
   25.6505  -23.2309   -9.5195 O   0  0  0  0  0  0  0  0  0  0  0  0
  2  9  1  0
  2  1  1  6
  3  2  1  0
  4  3  1  0
  4  8  1  0
  5  4  2  0
  6  5  1  0
  6  7  1  0
  7  8  2  0
  9 10  2  0
 11 12  1  0
 11  9  1  0
 13 14  1  0
 12 13  1  6
 14 18  1  0
 15 14  2  0
 15 16  1  0
 16 17  1  0
 18 17  2  0
 19 20  2  0
 19 12  1  0
 22 21  1  0
 22 23  1  0
 23 25  1  0
 23 24  1  1
 25 26  1  6
 25 27  1  0
 26 19  1  0
 27 29  1  0
 28 27  2  0
M  END
$$$$
