HHI.pdb
     RDKit          3D

 29 30  0  0  1  0  0  0  0  0999 V2000
   16.1883  -14.1969  -17.1854 N   0  0  0  0  0  0  0  0  0  0  0  0
   16.3876  -13.3739  -16.0233 C   0  0  1  0  0  0  0  0  0  0  0  0
   16.7762  -14.2148  -14.8496 C   0  0  0  0  0  0  0  0  0  0  0  0
   15.7900  -15.2332  -14.4599 C   0  0  0  0  0  0  0  0  0  0  0  0
   14.5179  -15.0613  -13.9613 C   0  0  0  0  0  0  0  0  0  0  0  0
   13.9857  -16.2734  -13.7349 N   0  0  0  0  0  0  0  0  0  0  0  0
   14.8989  -17.1783  -14.0819 C   0  0  0  0  0  0  0  0  0  0  0  0
   16.0053  -16.5572  -14.5262 N   0  0  0  0  0  0  0  0  0  0  0  0
   17.2776  -12.2127  -16.2402 C   0  0  0  0  0  0  0  0  0  0  0  0
   18.4169  -12.4550  -16.7685 O   0  0  0  0  0  0  0  0  0  0  0  0
   17.0081  -10.8786  -15.9277 N   0  0  0  0  0  0  0  0  0  0  0  0
   17.8225   -9.7311  -16.1857 C   0  0  1  0  0  0  0  0  0  0  0  0
   17.1067   -8.4490  -16.3997 C   0  0  0  0  0  0  0  0  0  0  0  0
   16.4485   -8.4047  -17.7216 C   0  0  0  0  0  0  0  0  0  0  0  0
   16.5280   -9.3196  -18.7346 C   0  0  0  0  0  0  0  0  0  0  0  0
   15.7629   -8.8517  -19.7339 N   0  0  0  0  0  0  0  0  0  0  0  0
   15.2081   -7.6920  -19.4009 C   0  0  0  0  0  0  0  0  0  0  0  0
   15.6433   -7.4196  -18.1381 N   0  0  0  0  0  0  0  0  0  0  0  0
   18.8476   -9.5945  -15.1141 C   0  0  0  0  0  0  0  0  0  0  0  0
   18.6121   -9.8816  -13.9107 O   0  0  0  0  0  0  0  0  0  0  0  0
   23.3443  -11.9614  -15.2755 C   0  0  0  0  0  0  0  0  0  0  0  0
   22.0871  -11.2230  -14.8864 C   0  0  0  0  0  0  0  0  0  0  0  0
   22.4119   -9.7630  -14.7527 C   0  0  2  0  0  0  0  0  0  0  0  0
   23.4158   -9.5108  -13.6416 C   0  0  0  0  0  0  0  0  0  0  0  0
   21.1834   -8.9286  -14.4542 C   0  0  2  0  0  0  0  0  0  0  0  0
   20.1465   -9.1252  -15.4378 N   0  0  0  0  0  0  0  0  0  0  0  0
   21.5965   -7.5098  -14.4775 C   0  0  0  0  0  0  0  0  0  0  0  0
   21.5441   -6.7723  -15.4951 O   0  0  0  0  0  0  0  0  0  0  0  0
   22.0758   -6.9339  -13.3146 O   0  0  0  0  0  0  0  0  0  0  0  0
  2  9  1  0
  2  1  1  6
  3  2  1  0
  4  3  1  0
  4  8  1  0
  5  4  2  0
  6  5  1  0
  6  7  1  0
  7  8  2  0
  9 10  2  0
 11 12  1  0
 11  9  1  0
 13 14  1  0
 12 13  1  1
 14 18  1  0
 15 14  2  0
 15 16  1  0
 16 17  1  0
 18 17  2  0
 19 20  2  0
 19 12  1  0
 22 21  1  0
 22 23  1  0
 23 25  1  0
 23 24  1  1
 25 26  1  6
 25 27  1  0
 26 19  1  0
 27 29  1  0
 28 27  2  0
M  END
$$$$
