IGM.pdb
     RDKit          3D

 21 20  0  0  1  0  0  0  0  0999 V2000
    8.0256  -11.8627   20.1697 C   0  0  0  0  0  0  0  0  0  0  0  0
    7.7652  -13.3196   20.0094 C   0  0  0  0  0  0  0  0  0  0  0  0
    8.6634  -14.0581   19.0850 C   0  0  2  0  0  0  0  0  0  0  0  0
    8.6345  -13.3827   17.7387 C   0  0  0  0  0  0  0  0  0  0  0  0
    8.3851  -15.5346   19.0082 C   0  0  2  0  0  0  0  0  0  0  0  0
    7.1600  -15.7261   18.2707 N   0  0  0  0  0  0  0  0  0  0  0  0
    8.2795  -16.1733   20.3277 C   0  0  0  0  0  0  0  0  0  0  0  0
    7.2208  -16.3299   20.9807 O   0  0  0  0  0  0  0  0  0  0  0  0
    9.4830  -16.6691   20.9427 N   0  0  0  0  0  0  0  0  0  0  0  0
    9.4025  -17.2989   22.2342 C   0  0  0  0  0  0  0  0  0  0  0  0
    9.5533  -16.4320   23.3835 C   0  0  0  0  0  0  0  0  0  0  0  0
   10.7549  -16.0087   23.5993 O   0  0  0  0  0  0  0  0  0  0  0  0
    6.0987  -10.7427   25.9878 C   0  0  0  0  0  0  0  0  0  0  0  0
    6.2194  -12.4455   26.5961 S   0  0  0  0  0  0  0  0  0  0  0  0
    7.4669  -13.3097   25.6019 C   0  0  0  0  0  0  0  0  0  0  0  0
    7.6121  -14.7334   26.0913 C   0  0  0  0  0  0  0  0  0  0  0  0
    8.8650  -15.3814   25.5411 C   0  0  2  0  0  0  0  0  0  0  0  0
    8.5260  -16.0243   24.2602 N   0  0  0  0  0  0  0  0  0  0  0  0
    9.4179  -16.3930   26.4534 C   0  0  0  0  0  0  0  0  0  0  0  0
   10.3745  -16.0284   27.3824 O   0  0  0  0  0  0  0  0  0  0  0  0
    9.0542  -17.5950   26.4268 O   0  0  0  0  0  0  0  0  0  0  0  0
  2  1  1  0
  2  3  1  0
  3  5  1  0
  3  4  1  6
  5  6  1  1
  7  9  1  0
  7  5  1  0
  8  7  2  0
 10  9  1  0
 11 18  1  0
 11 10  1  0
 12 11  2  0
 14 13  1  0
 15 14  1  0
 17 16  1  1
 16 15  1  0
 17 18  1  0
 19 17  1  0
 20 19  1  0
 21 19  2  0
M  END
$$$$
