IGM.pdb
     RDKit          3D

 21 20  0  0  1  0  0  0  0  0999 V2000
    6.4029  -11.3730   26.8736 C   0  0  0  0  0  0  0  0  0  0  0  0
    6.0750  -12.5804   26.0668 C   0  0  0  0  0  0  0  0  0  0  0  0
    7.2123  -13.2618   25.3968 C   0  0  2  0  0  0  0  0  0  0  0  0
    7.9761  -12.2468   24.5869 C   0  0  0  0  0  0  0  0  0  0  0  0
    6.8171  -14.4741   24.5985 C   0  0  2  0  0  0  0  0  0  0  0  0
    6.1787  -15.4132   25.4885 N   0  0  0  0  0  0  0  0  0  0  0  0
    7.9524  -15.1178   23.9228 C   0  0  0  0  0  0  0  0  0  0  0  0
    8.7503  -14.5537   23.1373 O   0  0  0  0  0  0  0  0  0  0  0  0
    8.1877  -16.5166   24.1691 N   0  0  0  0  0  0  0  0  0  0  0  0
    9.3862  -17.1270   23.6573 C   0  0  0  0  0  0  0  0  0  0  0  0
   10.4400  -17.3798   24.6169 C   0  0  0  0  0  0  0  0  0  0  0  0
   11.6059  -17.6044   24.1071 O   0  0  0  0  0  0  0  0  0  0  0  0
    9.0645  -13.0575   28.6134 C   0  0  0  0  0  0  0  0  0  0  0  0
   10.3026  -14.3110   29.0378 S   0  0  0  0  0  0  0  0  0  0  0  0
   10.5050  -15.4074   27.6066 C   0  0  0  0  0  0  0  0  0  0  0  0
   11.4676  -16.5221   27.9504 C   0  0  0  0  0  0  0  0  0  0  0  0
   11.4873  -17.5865   26.8737 C   0  0  2  0  0  0  0  0  0  0  0  0
   10.3014  -17.4001   26.0207 N   0  0  0  0  0  0  0  0  0  0  0  0
   11.4671  -18.9465   27.4317 C   0  0  0  0  0  0  0  0  0  0  0  0
   10.3682  -19.7579   27.2200 O   0  0  0  0  0  0  0  0  0  0  0  0
   12.4201  -19.4131   28.1040 O   0  0  0  0  0  0  0  0  0  0  0  0
  2  1  1  0
  2  3  1  0
  3  5  1  0
  3  4  1  6
  5  6  1  1
  7  9  1  0
  7  5  1  0
  8  7  2  0
 10  9  1  0
 11 18  1  0
 11 10  1  0
 12 11  2  0
 14 13  1  0
 15 14  1  0
 17 16  1  1
 16 15  1  0
 17 18  1  0
 19 17  1  0
 20 19  1  0
 21 19  2  0
M  END
$$$$
