IGM.pdb
     RDKit          3D

 21 20  0  0  1  0  0  0  0  0999 V2000
    5.1937  -21.5058   23.9949 C   0  0  0  0  0  0  0  0  0  0  0  0
    6.5133  -21.1583   24.5901 C   0  0  0  0  0  0  0  0  0  0  0  0
    7.1207  -19.8737   24.1571 C   0  0  2  0  0  0  0  0  0  0  0  0
    6.2532  -18.7405   24.6398 C   0  0  0  0  0  0  0  0  0  0  0  0
    7.4171  -19.8009   22.6840 C   0  0  2  0  0  0  0  0  0  0  0  0
    8.0405  -21.0398   22.2864 N   0  0  0  0  0  0  0  0  0  0  0  0
    8.2807  -18.6680   22.3224 C   0  0  0  0  0  0  0  0  0  0  0  0
    9.5123  -18.5889   22.5428 O   0  0  0  0  0  0  0  0  0  0  0  0
    7.6820  -17.5404   21.6571 N   0  0  0  0  0  0  0  0  0  0  0  0
    8.4905  -16.3848   21.3704 C   0  0  0  0  0  0  0  0  0  0  0  0
    8.7796  -15.5088   22.4859 C   0  0  0  0  0  0  0  0  0  0  0  0
    9.6031  -14.5465   22.2305 O   0  0  0  0  0  0  0  0  0  0  0  0
    5.7920  -11.2530   25.6681 C   0  0  0  0  0  0  0  0  0  0  0  0
    6.4611  -12.1255   27.1086 S   0  0  0  0  0  0  0  0  0  0  0  0
    7.9030  -13.0830   26.5652 C   0  0  0  0  0  0  0  0  0  0  0  0
    7.5192  -13.9644   25.3976 C   0  0  0  0  0  0  0  0  0  0  0  0
    8.7185  -14.7089   24.8500 C   0  0  2  0  0  0  0  0  0  0  0  0
    8.2512  -15.6175   23.7894 N   0  0  0  0  0  0  0  0  0  0  0  0
    9.4089  -15.4939   25.8837 C   0  0  0  0  0  0  0  0  0  0  0  0
   10.2789  -14.8653   26.7548 O   0  0  0  0  0  0  0  0  0  0  0  0
    9.2412  -16.7320   26.0137 O   0  0  0  0  0  0  0  0  0  0  0  0
  2  1  1  0
  2  3  1  0
  3  5  1  0
  3  4  1  6
  5  6  1  1
  7  9  1  0
  7  5  1  0
  8  7  2  0
 10  9  1  0
 11 18  1  0
 11 10  1  0
 12 11  2  0
 14 13  1  0
 15 14  1  0
 17 16  1  1
 16 15  1  0
 17 18  1  0
 19 17  1  0
 20 19  1  0
 21 19  2  0
M  END
$$$$
