IGM.pdb
     RDKit          3D

 21 20  0  0  1  0  0  0  0  0999 V2000
    7.9806  -12.2788   20.3456 C   0  0  0  0  0  0  0  0  0  0  0  0
    7.8837  -13.3091   21.4158 C   0  0  0  0  0  0  0  0  0  0  0  0
    7.9408  -14.7281   20.9801 C   0  0  2  0  0  0  0  0  0  0  0  0
    6.7589  -15.0093   20.0892 C   0  0  0  0  0  0  0  0  0  0  0  0
    8.0724  -15.7122   22.1103 C   0  0  2  0  0  0  0  0  0  0  0  0
    6.8332  -15.7210   22.8490 N   0  0  0  0  0  0  0  0  0  0  0  0
    9.1912  -15.4096   23.0142 C   0  0  0  0  0  0  0  0  0  0  0  0
    9.2286  -14.4669   23.8399 O   0  0  0  0  0  0  0  0  0  0  0  0
   10.3552  -16.2552   22.9642 N   0  0  0  0  0  0  0  0  0  0  0  0
   11.5918  -15.7803   23.5267 C   0  0  0  0  0  0  0  0  0  0  0  0
   11.6051  -15.5589   24.9570 C   0  0  0  0  0  0  0  0  0  0  0  0
   12.7618  -15.2771   25.4592 O   0  0  0  0  0  0  0  0  0  0  0  0
    6.3956  -12.1219   26.8887 C   0  0  0  0  0  0  0  0  0  0  0  0
    8.0385  -12.3180   27.6278 S   0  0  0  0  0  0  0  0  0  0  0  0
    8.7247  -13.8985   27.0599 C   0  0  0  0  0  0  0  0  0  0  0  0
   10.0967  -14.1046   27.6621 C   0  0  0  0  0  0  0  0  0  0  0  0
   10.6752  -15.4480   27.2713 C   0  0  2  0  0  0  0  0  0  0  0  0
   10.4915  -15.6238   25.8207 N   0  0  0  0  0  0  0  0  0  0  0  0
   10.0248  -16.5629   27.9751 C   0  0  0  0  0  0  0  0  0  0  0  0
   10.2372  -16.7350   29.3302 O   0  0  0  0  0  0  0  0  0  0  0  0
    9.2713  -17.3806   27.3909 O   0  0  0  0  0  0  0  0  0  0  0  0
  2  1  1  0
  2  3  1  0
  3  5  1  0
  3  4  1  1
  5  6  1  1
  7  9  1  0
  7  5  1  0
  8  7  2  0
 10  9  1  0
 11 18  1  0
 11 10  1  0
 12 11  2  0
 14 13  1  0
 15 14  1  0
 17 16  1  1
 16 15  1  0
 17 18  1  0
 19 17  1  0
 20 19  1  0
 21 19  2  0
M  END
$$$$
