IGM.pdb
     RDKit          3D

 21 20  0  0  1  0  0  0  0  0999 V2000
    8.7632  -12.4339   20.4319 C   0  0  0  0  0  0  0  0  0  0  0  0
    8.5444  -13.5367   21.4077 C   0  0  0  0  0  0  0  0  0  0  0  0
    7.9120  -14.7740   20.8823 C   0  0  2  0  0  0  0  0  0  0  0  0
    6.5696  -14.4210   20.2969 C   0  0  0  0  0  0  0  0  0  0  0  0
    7.8413  -15.8979   21.8798 C   0  0  2  0  0  0  0  0  0  0  0  0
    7.0766  -15.4461   23.0167 N   0  0  0  0  0  0  0  0  0  0  0  0
    9.1633  -16.3653   22.3201 C   0  0  0  0  0  0  0  0  0  0  0  0
    9.5060  -17.5635   22.4570 O   0  0  0  0  0  0  0  0  0  0  0  0
   10.1670  -15.3799   22.6265 N   0  0  0  0  0  0  0  0  0  0  0  0
   11.5052  -15.8129   22.9312 C   0  0  0  0  0  0  0  0  0  0  0  0
   11.8183  -15.9982   24.3323 C   0  0  0  0  0  0  0  0  0  0  0  0
   13.0717  -16.1647   24.5984 O   0  0  0  0  0  0  0  0  0  0  0  0
    7.9380  -12.2319   27.1870 C   0  0  0  0  0  0  0  0  0  0  0  0
    8.8318  -13.2484   28.3920 S   0  0  0  0  0  0  0  0  0  0  0  0
    9.3725  -14.7650   27.5560 C   0  0  0  0  0  0  0  0  0  0  0  0
   10.8832  -14.8018   27.4935 C   0  0  0  0  0  0  0  0  0  0  0  0
   11.3766  -16.0478   26.7889 C   0  0  2  0  0  0  0  0  0  0  0  0
   10.8940  -16.0114   25.3979 N   0  0  0  0  0  0  0  0  0  0  0  0
   10.8962  -17.2801   27.4306 C   0  0  0  0  0  0  0  0  0  0  0  0
   11.3784  -17.6373   28.6759 O   0  0  0  0  0  0  0  0  0  0  0  0
   10.0524  -18.0369   26.8892 O   0  0  0  0  0  0  0  0  0  0  0  0
  2  1  1  0
  2  3  1  0
  3  5  1  0
  3  4  1  1
  5  6  1  1
  7  9  1  0
  7  5  1  0
  8  7  2  0
 10  9  1  0
 11 18  1  0
 11 10  1  0
 12 11  2  0
 14 13  1  0
 15 14  1  0
 17 16  1  1
 16 15  1  0
 17 18  1  0
 19 17  1  0
 20 19  1  0
 21 19  2  0
M  END
$$$$
