IGM.pdb
     RDKit          3D

 21 20  0  0  1  0  0  0  0  0999 V2000
    6.8264  -12.3775   19.3066 C   0  0  0  0  0  0  0  0  0  0  0  0
    7.7428  -13.5495   19.2536 C   0  0  0  0  0  0  0  0  0  0  0  0
    8.7848  -13.6273   20.3094 C   0  0  2  0  0  0  0  0  0  0  0  0
    9.7007  -12.4387   20.1748 C   0  0  0  0  0  0  0  0  0  0  0  0
    9.5234  -14.9374   20.3471 C   0  0  2  0  0  0  0  0  0  0  0  0
   10.3793  -15.0076   19.1878 N   0  0  0  0  0  0  0  0  0  0  0  0
    8.6309  -16.1045   20.3812 C   0  0  0  0  0  0  0  0  0  0  0  0
    8.4312  -16.8992   19.4323 O   0  0  0  0  0  0  0  0  0  0  0  0
    7.9134  -16.3781   21.5989 N   0  0  0  0  0  0  0  0  0  0  0  0
    8.3661  -17.4420   22.4559 C   0  0  0  0  0  0  0  0  0  0  0  0
    8.6154  -17.0930   23.8383 C   0  0  0  0  0  0  0  0  0  0  0  0
    9.2271  -17.9955   24.5318 O   0  0  0  0  0  0  0  0  0  0  0  0
    5.6995  -12.0426   26.3192 C   0  0  0  0  0  0  0  0  0  0  0  0
    7.4548  -11.6558   26.0883 S   0  0  0  0  0  0  0  0  0  0  0  0
    8.2494  -13.0923   25.3160 C   0  0  0  0  0  0  0  0  0  0  0  0
    8.2178  -14.2662   26.2691 C   0  0  0  0  0  0  0  0  0  0  0  0
    8.9510  -15.4613   25.6978 C   0  0  2  0  0  0  0  0  0  0  0  0
    8.2556  -15.8842   24.4704 N   0  0  0  0  0  0  0  0  0  0  0  0
    8.9950  -16.5914   26.6371 C   0  0  0  0  0  0  0  0  0  0  0  0
    9.9398  -16.6074   27.6462 O   0  0  0  0  0  0  0  0  0  0  0  0
    8.1991  -17.5603   26.5633 O   0  0  0  0  0  0  0  0  0  0  0  0
  2  1  1  0
  2  3  1  0
  3  5  1  0
  3  4  1  6
  5  6  1  6
  7  9  1  0
  7  5  1  0
  8  7  2  0
 10  9  1  0
 11 18  1  0
 11 10  1  0
 12 11  2  0
 14 13  1  0
 15 14  1  0
 17 16  1  1
 16 15  1  0
 17 18  1  0
 19 17  1  0
 20 19  1  0
 21 19  2  0
M  END
$$$$
