KPG.pdb
     RDKit          3D

 21 21  0  0  1  0  0  0  0  0999 V2000
   24.9683  -19.7345   -9.2966 N   0  0  0  0  0  0  0  0  0  0  0  0
   25.5309  -20.4216  -10.4565 C   0  0  1  0  0  0  0  0  0  0  0  0
   24.6264  -21.6398  -10.6956 C   0  0  0  0  0  0  0  0  0  0  0  0
   24.0708  -22.0564   -9.3469 C   0  0  0  0  0  0  0  0  0  0  0  0
   23.1074  -21.0659   -8.7876 C   0  0  0  0  0  0  0  0  0  0  0  0
   22.4423  -21.6911   -7.5794 C   0  0  0  0  0  0  0  0  0  0  0  0
   20.9887  -21.6012   -7.6691 N   0  0  0  0  0  0  0  0  0  0  0  0
   25.5864  -19.5212  -11.6284 C   0  0  0  0  0  0  0  0  0  0  0  0
   24.8059  -18.5204  -11.6145 O   0  0  0  0  0  0  0  0  0  0  0  0
   26.4267  -19.6839  -12.7397 N   0  0  0  0  0  0  0  0  0  0  0  0
   27.3589  -20.7614  -12.9503 C   0  0  0  0  0  0  0  0  0  0  0  0
   28.2374  -20.3140  -14.0875 C   0  0  0  0  0  0  0  0  0  0  0  0
   28.0156  -18.8273  -14.1267 C   0  0  0  0  0  0  0  0  0  0  0  0
   26.4991  -18.7603  -13.8683 C   0  0  1  0  0  0  0  0  0  0  0  0
   25.8364  -19.2860  -15.0694 C   0  0  0  0  0  0  0  0  0  0  0  0
   25.4967  -20.4873  -15.2183 O   0  0  0  0  0  0  0  0  0  0  0  0
   25.5626  -18.3879  -16.1248 N   0  0  0  0  0  0  0  0  0  0  0  0
   24.3006  -17.6772  -16.1863 C   0  0  0  0  0  0  0  0  0  0  0  0
   23.3398  -18.5156  -16.9465 C   0  0  0  0  0  0  0  0  0  0  0  0
   23.6110  -18.9134  -18.1227 O   0  0  0  0  0  0  0  0  0  0  0  0
   22.1347  -18.8926  -16.4211 O   0  0  0  0  0  0  0  0  0  0  0  0
  2  1  1  1
  3  2  1  0
  4  3  1  0
  5  4  1  0
  6  5  1  0
  7  6  1  0
  8  9  2  0
  8  2  1  0
 10  8  1  0
 11 10  1  0
 11 12  1  0
 13 12  1  0
 14 10  1  0
 14 13  1  0
 14 15  1  6
 16 15  2  0
 17 15  1  0
 18 17  1  0
 19 18  1  0
 19 21  1  0
 20 19  2  0
M  END
$$$$
