KPG.pdb
     RDKit          3D

 21 21  0  0  1  0  0  0  0  0999 V2000
   21.0978  -19.8257  -13.8975 N   0  0  0  0  0  0  0  0  0  0  0  0
   22.2352  -20.7165  -14.1140 C   0  0  1  0  0  0  0  0  0  0  0  0
   22.1787  -21.1075  -15.5983 C   0  0  0  0  0  0  0  0  0  0  0  0
   21.8144  -22.5788  -15.6601 C   0  0  0  0  0  0  0  0  0  0  0  0
   20.3840  -22.8347  -15.3277 C   0  0  0  0  0  0  0  0  0  0  0  0
   20.1079  -24.3066  -15.5513 C   0  0  0  0  0  0  0  0  0  0  0  0
   18.7863  -24.6787  -15.0575 N   0  0  0  0  0  0  0  0  0  0  0  0
   23.5050  -20.0491  -13.7542 C   0  0  0  0  0  0  0  0  0  0  0  0
   23.5718  -18.7998  -13.9681 O   0  0  0  0  0  0  0  0  0  0  0  0
   24.6270  -20.6817  -13.1988 N   0  0  0  0  0  0  0  0  0  0  0  0
   24.7158  -22.0644  -12.8055 C   0  0  0  0  0  0  0  0  0  0  0  0
   25.9682  -22.1652  -11.9771 C   0  0  0  0  0  0  0  0  0  0  0  0
   26.2414  -20.7368  -11.5948 C   0  0  0  0  0  0  0  0  0  0  0  0
   25.8968  -20.0200  -12.9133 C   0  0  1  0  0  0  0  0  0  0  0  0
   26.9456  -20.3732  -13.8795 C   0  0  0  0  0  0  0  0  0  0  0  0
   27.1022  -21.5244  -14.3603 O   0  0  0  0  0  0  0  0  0  0  0  0
   27.8351  -19.3582  -14.2963 N   0  0  0  0  0  0  0  0  0  0  0  0
   27.3597  -18.0124  -14.5500 C   0  0  0  0  0  0  0  0  0  0  0  0
   27.3003  -17.8177  -16.0205 C   0  0  0  0  0  0  0  0  0  0  0  0
   28.2395  -17.2241  -16.6376 O   0  0  0  0  0  0  0  0  0  0  0  0
   26.2447  -18.2630  -16.7675 O   0  0  0  0  0  0  0  0  0  0  0  0
  2  1  1  6
  3  2  1  0
  4  3  1  0
  5  4  1  0
  6  5  1  0
  7  6  1  0
  8  9  2  0
  8  2  1  0
 10  8  1  0
 11 10  1  0
 11 12  1  0
 13 12  1  0
 14 10  1  0
 14 13  1  0
 14 15  1  6
 16 15  2  0
 17 15  1  0
 18 17  1  0
 19 18  1  0
 19 21  1  0
 20 19  2  0
M  END
$$$$
