KPG.pdb
     RDKit          3D

 21 21  0  0  1  0  0  0  0  0999 V2000
   22.7425  -14.9915  -17.2266 N   0  0  0  0  0  0  0  0  0  0  0  0
   23.4393  -14.0471  -16.3569 C   0  0  1  0  0  0  0  0  0  0  0  0
   24.7268  -13.6680  -17.1039 C   0  0  0  0  0  0  0  0  0  0  0  0
   25.6355  -14.8823  -17.0745 C   0  0  0  0  0  0  0  0  0  0  0  0
   25.9811  -15.3789  -18.4368 C   0  0  0  0  0  0  0  0  0  0  0  0
   26.9232  -16.5541  -18.2812 C   0  0  0  0  0  0  0  0  0  0  0  0
   27.2550  -17.1420  -19.5748 N   0  0  0  0  0  0  0  0  0  0  0  0
   22.5898  -12.8723  -16.0645 C   0  0  0  0  0  0  0  0  0  0  0  0
   21.6051  -12.6748  -16.8406 O   0  0  0  0  0  0  0  0  0  0  0  0
   22.7839  -11.9716  -15.0068 N   0  0  0  0  0  0  0  0  0  0  0  0
   23.8653  -11.9972  -14.0557 C   0  0  0  0  0  0  0  0  0  0  0  0
   23.4502  -11.0614  -12.9526 C   0  0  0  0  0  0  0  0  0  0  0  0
   21.9658  -10.9316  -13.1545 C   0  0  0  0  0  0  0  0  0  0  0  0
   21.8944  -10.8577  -14.6909 C   0  0  1  0  0  0  0  0  0  0  0  0
   22.4572   -9.5588  -15.0838 C   0  0  0  0  0  0  0  0  0  0  0  0
   23.6874   -9.3340  -15.2138 O   0  0  0  0  0  0  0  0  0  0  0  0
   21.5627   -8.4940  -15.3317 N   0  0  0  0  0  0  0  0  0  0  0  0
   22.0424   -7.2250  -15.8424 C   0  0  0  0  0  0  0  0  0  0  0  0
   20.8618   -6.3729  -16.1325 C   0  0  0  0  0  0  0  0  0  0  0  0
   20.7207   -5.8199  -17.2681 O   0  0  0  0  0  0  0  0  0  0  0  0
   19.8854   -6.1477  -15.2017 O   0  0  0  0  0  0  0  0  0  0  0  0
  2  1  1  6
  3  2  1  0
  4  3  1  0
  5  4  1  0
  6  5  1  0
  7  6  1  0
  8  9  2  0
  8  2  1  0
 10  8  1  0
 11 10  1  0
 11 12  1  0
 13 12  1  0
 14 10  1  0
 14 13  1  0
 14 15  1  6
 16 15  2  0
 17 15  1  0
 18 17  1  0
 19 18  1  0
 19 21  1  0
 20 19  2  0
M  END
$$$$
