KPG.pdb
     RDKit          3D

 21 21  0  0  1  0  0  0  0  0999 V2000
   21.7459  -19.8249  -15.6571 N   0  0  0  0  0  0  0  0  0  0  0  0
   22.9151  -19.5079  -14.8407 C   0  0  1  0  0  0  0  0  0  0  0  0
   22.8682  -20.4817  -13.6538 C   0  0  0  0  0  0  0  0  0  0  0  0
   22.1790  -21.7437  -14.1371 C   0  0  0  0  0  0  0  0  0  0  0  0
   22.9992  -22.9694  -13.9206 C   0  0  0  0  0  0  0  0  0  0  0  0
   22.2495  -24.1445  -14.5124 C   0  0  0  0  0  0  0  0  0  0  0  0
   23.0260  -25.3753  -14.4076 N   0  0  0  0  0  0  0  0  0  0  0  0
   24.1602  -19.6376  -15.6282 C   0  0  0  0  0  0  0  0  0  0  0  0
   24.0409  -20.0759  -16.8134 O   0  0  0  0  0  0  0  0  0  0  0  0
   25.4472  -19.3148  -15.1733 N   0  0  0  0  0  0  0  0  0  0  0  0
   25.7767  -18.7275  -13.9001 C   0  0  0  0  0  0  0  0  0  0  0  0
   27.2067  -18.2756  -14.0260 C   0  0  0  0  0  0  0  0  0  0  0  0
   27.4243  -18.2389  -15.5133 C   0  0  0  0  0  0  0  0  0  0  0  0
   26.6733  -19.5133  -15.9409 C   0  0  1  0  0  0  0  0  0  0  0  0
   27.4605  -20.6563  -15.4591 C   0  0  0  0  0  0  0  0  0  0  0  0
   27.5087  -21.0222  -14.2572 O   0  0  0  0  0  0  0  0  0  0  0  0
   28.2111  -21.3920  -16.4028 N   0  0  0  0  0  0  0  0  0  0  0  0
   28.2515  -22.8402  -16.3531 C   0  0  0  0  0  0  0  0  0  0  0  0
   29.1046  -23.3128  -17.4724 C   0  0  0  0  0  0  0  0  0  0  0  0
   28.5863  -23.7322  -18.5544 O   0  0  0  0  0  0  0  0  0  0  0  0
   30.4698  -23.3180  -17.3897 O   0  0  0  0  0  0  0  0  0  0  0  0
  2  1  1  6
  3  2  1  0
  4  3  1  0
  5  4  1  0
  6  5  1  0
  7  6  1  0
  8  9  2  0
  8  2  1  0
 10  8  1  0
 11 10  1  0
 11 12  1  0
 13 12  1  0
 14 10  1  0
 14 13  1  0
 14 15  1  1
 16 15  2  0
 17 15  1  0
 18 17  1  0
 19 18  1  0
 19 21  1  0
 20 19  2  0
M  END
$$$$
