KPG.pdb
     RDKit          3D

 21 21  0  0  1  0  0  0  0  0999 V2000
   17.1184   -9.7910  -12.1821 N   0  0  0  0  0  0  0  0  0  0  0  0
   17.8975   -9.4563  -13.3717 C   0  0  1  0  0  0  0  0  0  0  0  0
   16.8689   -9.0762  -14.4473 C   0  0  0  0  0  0  0  0  0  0  0  0
   15.9951  -10.2940  -14.6813 C   0  0  0  0  0  0  0  0  0  0  0  0
   16.3623  -11.0399  -15.9186 C   0  0  0  0  0  0  0  0  0  0  0  0
   15.3199  -12.1149  -16.1434 C   0  0  0  0  0  0  0  0  0  0  0  0
   15.6832  -12.9797  -17.2611 N   0  0  0  0  0  0  0  0  0  0  0  0
   18.8493   -8.3604  -13.0888 C   0  0  0  0  0  0  0  0  0  0  0  0
   18.5159   -7.5368  -12.1824 O   0  0  0  0  0  0  0  0  0  0  0  0
   20.0789   -8.1643  -13.7348 N   0  0  0  0  0  0  0  0  0  0  0  0
   20.6539   -9.0150  -14.7449 C   0  0  0  0  0  0  0  0  0  0  0  0
   22.0885   -8.5770  -14.8677 C   0  0  0  0  0  0  0  0  0  0  0  0
   22.3239   -7.8149  -13.5930 C   0  0  0  0  0  0  0  0  0  0  0  0
   20.9903   -7.0555  -13.4668 C   0  0  1  0  0  0  0  0  0  0  0  0
   20.9722   -6.0421  -14.5302 C   0  0  0  0  0  0  0  0  0  0  0  0
   20.7257   -6.2917  -15.7376 O   0  0  0  0  0  0  0  0  0  0  0  0
   21.2487   -4.7026  -14.1772 N   0  0  0  0  0  0  0  0  0  0  0  0
   20.6711   -3.6032  -14.9250 C   0  0  0  0  0  0  0  0  0  0  0  0
   21.1430   -2.3357  -14.3130 C   0  0  0  0  0  0  0  0  0  0  0  0
   20.3862   -1.6607  -13.5470 O   0  0  0  0  0  0  0  0  0  0  0  0
   22.3982   -1.8439  -14.5438 O   0  0  0  0  0  0  0  0  0  0  0  0
  2  1  1  1
  3  2  1  0
  4  3  1  0
  5  4  1  0
  6  5  1  0
  7  6  1  0
  8  9  2  0
  8  2  1  0
 10  8  1  0
 11 10  1  0
 11 12  1  0
 13 12  1  0
 14 10  1  0
 14 13  1  0
 14 15  1  6
 16 15  2  0
 17 15  1  0
 18 17  1  0
 19 18  1  0
 19 21  1  0
 20 19  2  0
M  END
$$$$
