KPG.pdb
     RDKit          3D

 21 21  0  0  1  0  0  0  0  0999 V2000
   19.8980  -11.6939  -18.9820 N   0  0  0  0  0  0  0  0  0  0  0  0
   19.3908  -10.9556  -17.8281 C   0  0  1  0  0  0  0  0  0  0  0  0
   19.5355  -11.9070  -16.6310 C   0  0  0  0  0  0  0  0  0  0  0  0
   18.5567  -13.0463  -16.8438 C   0  0  0  0  0  0  0  0  0  0  0  0
   18.6966  -14.1264  -15.8261 C   0  0  0  0  0  0  0  0  0  0  0  0
   17.6156  -15.1549  -16.0839 C   0  0  0  0  0  0  0  0  0  0  0  0
   17.7895  -16.3301  -15.2367 N   0  0  0  0  0  0  0  0  0  0  0  0
   20.1374   -9.6930  -17.6389 C   0  0  0  0  0  0  0  0  0  0  0  0
   21.3313   -9.6680  -18.0689 O   0  0  0  0  0  0  0  0  0  0  0  0
   19.6334   -8.5337  -17.0308 N   0  0  0  0  0  0  0  0  0  0  0  0
   18.3278   -8.3812  -16.4421 C   0  0  0  0  0  0  0  0  0  0  0  0
   18.1509   -6.9005  -16.2392 C   0  0  0  0  0  0  0  0  0  0  0  0
   19.1897   -6.3040  -17.1481 C   0  0  0  0  0  0  0  0  0  0  0  0
   20.3622   -7.2741  -16.9129 C   0  0  1  0  0  0  0  0  0  0  0  0
   20.8512   -7.0321  -15.5489 C   0  0  0  0  0  0  0  0  0  0  0  0
   20.3226   -7.5139  -14.5148 O   0  0  0  0  0  0  0  0  0  0  0  0
   21.9860   -6.2068  -15.3857 N   0  0  0  0  0  0  0  0  0  0  0  0
   22.6814   -6.1433  -14.1154 C   0  0  0  0  0  0  0  0  0  0  0  0
   22.1391   -4.9899  -13.3540 C   0  0  0  0  0  0  0  0  0  0  0  0
   21.2451   -4.2396  -13.8571 O   0  0  0  0  0  0  0  0  0  0  0  0
   22.5724   -4.6871  -12.0927 O   0  0  0  0  0  0  0  0  0  0  0  0
  2  1  1  6
  3  2  1  0
  4  3  1  0
  5  4  1  0
  6  5  1  0
  7  6  1  0
  8  9  2  0
  8  2  1  0
 10  8  1  0
 11 10  1  0
 11 12  1  0
 13 12  1  0
 14 10  1  0
 14 13  1  0
 14 15  1  1
 16 15  2  0
 17 15  1  0
 18 17  1  0
 19 18  1  0
 19 21  1  0
 20 19  2  0
M  END
$$$$
