KPG.pdb
     RDKit          3D

 21 21  0  0  1  0  0  0  0  0999 V2000
   22.8803  -21.4238  -13.0330 N   0  0  0  0  0  0  0  0  0  0  0  0
   23.7881  -21.0275  -14.1067 C   0  0  1  0  0  0  0  0  0  0  0  0
   23.0240  -21.2894  -15.4132 C   0  0  0  0  0  0  0  0  0  0  0  0
   23.2355  -22.7484  -15.7707 C   0  0  0  0  0  0  0  0  0  0  0  0
   24.6480  -23.1891  -15.5899 C   0  0  0  0  0  0  0  0  0  0  0  0
   24.7525  -24.6267  -16.0537 C   0  0  0  0  0  0  0  0  0  0  0  0
   26.1096  -25.1381  -15.8925 N   0  0  0  0  0  0  0  0  0  0  0  0
   24.1907  -19.6117  -13.9626 C   0  0  0  0  0  0  0  0  0  0  0  0
   23.3963  -18.8565  -13.3226 O   0  0  0  0  0  0  0  0  0  0  0  0
   25.3699  -19.0461  -14.4699 N   0  0  0  0  0  0  0  0  0  0  0  0
   26.4145  -19.7455  -15.1727 C   0  0  0  0  0  0  0  0  0  0  0  0
   27.5811  -18.7952  -15.2043 C   0  0  0  0  0  0  0  0  0  0  0  0
   27.2480  -17.8083  -14.1198 C   0  0  0  0  0  0  0  0  0  0  0  0
   25.7347  -17.6376  -14.3475 C   0  0  1  0  0  0  0  0  0  0  0  0
   25.5716  -16.9021  -15.6086 C   0  0  0  0  0  0  0  0  0  0  0  0
   25.4648  -17.4499  -16.7353 O   0  0  0  0  0  0  0  0  0  0  0  0
   25.5319  -15.4911  -15.5553 N   0  0  0  0  0  0  0  0  0  0  0  0
   24.4791  -14.8047  -14.8327 C   0  0  0  0  0  0  0  0  0  0  0  0
   23.3250  -14.6407  -15.7521 C   0  0  0  0  0  0  0  0  0  0  0  0
   23.1795  -13.5765  -16.4316 O   0  0  0  0  0  0  0  0  0  0  0  0
   22.3785  -15.6157  -15.9067 O   0  0  0  0  0  0  0  0  0  0  0  0
  2  1  1  1
  3  2  1  0
  4  3  1  0
  5  4  1  0
  6  5  1  0
  7  6  1  0
  8  9  2  0
  8  2  1  0
 10  8  1  0
 11 10  1  0
 11 12  1  0
 13 12  1  0
 14 10  1  0
 14 13  1  0
 14 15  1  6
 16 15  2  0
 17 15  1  0
 18 17  1  0
 19 18  1  0
 19 21  1  0
 20 19  2  0
M  END
$$$$
