KPG.pdb
     RDKit          3D

 21 21  0  0  1  0  0  0  0  0999 V2000
   20.0443  -12.4747  -18.4735 N   0  0  0  0  0  0  0  0  0  0  0  0
   19.3843  -11.4967  -17.6122 C   0  0  1  0  0  0  0  0  0  0  0  0
   19.1805  -12.2029  -16.2635 C   0  0  0  0  0  0  0  0  0  0  0  0
   18.1560  -13.2999  -16.4828 C   0  0  0  0  0  0  0  0  0  0  0  0
   18.6084  -14.6245  -15.9702 C   0  0  0  0  0  0  0  0  0  0  0  0
   17.4816  -15.6150  -16.1749 C   0  0  0  0  0  0  0  0  0  0  0  0
   17.8782  -16.9597  -15.7705 N   0  0  0  0  0  0  0  0  0  0  0  0
   20.1975  -10.2677  -17.4885 C   0  0  0  0  0  0  0  0  0  0  0  0
   21.4247  -10.3638  -17.7978 O   0  0  0  0  0  0  0  0  0  0  0  0
   19.7228   -9.0180  -17.0636 N   0  0  0  0  0  0  0  0  0  0  0  0
   18.3758   -8.7146  -16.6535 C   0  0  0  0  0  0  0  0  0  0  0  0
   18.2961   -7.2121  -16.6216 C   0  0  0  0  0  0  0  0  0  0  0  0
   19.4745   -6.7891  -17.4545 C   0  0  0  0  0  0  0  0  0  0  0  0
   20.5320   -7.8052  -16.9852 C   0  0  1  0  0  0  0  0  0  0  0  0
   20.8829   -7.4508  -15.6033 C   0  0  0  0  0  0  0  0  0  0  0  0
   20.2063   -7.7830  -14.5970 O   0  0  0  0  0  0  0  0  0  0  0  0
   22.0531   -6.6892  -15.3887 N   0  0  0  0  0  0  0  0  0  0  0  0
   22.6156   -6.5509  -14.0598 C   0  0  0  0  0  0  0  0  0  0  0  0
   22.1997   -5.2311  -13.5220 C   0  0  0  0  0  0  0  0  0  0  0  0
   21.4454   -4.4615  -14.1958 O   0  0  0  0  0  0  0  0  0  0  0  0
   22.6051   -4.7902  -12.2925 O   0  0  0  0  0  0  0  0  0  0  0  0
  2  1  1  6
  3  2  1  0
  4  3  1  0
  5  4  1  0
  6  5  1  0
  7  6  1  0
  8  9  2  0
  8  2  1  0
 10  8  1  0
 11 10  1  0
 11 12  1  0
 13 12  1  0
 14 10  1  0
 14 13  1  0
 14 15  1  1
 16 15  2  0
 17 15  1  0
 18 17  1  0
 19 18  1  0
 19 21  1  0
 20 19  2  0
M  END
$$$$
