KPG.pdb
     RDKit          3D

 21 21  0  0  1  0  0  0  0  0999 V2000
   28.5770  -35.4396   -8.7197 N   0  0  0  0  0  0  0  0  0  0  0  0
   27.5762  -34.7614   -7.8997 C   0  0  1  0  0  0  0  0  0  0  0  0
   26.2582  -35.5089   -8.1517 C   0  0  0  0  0  0  0  0  0  0  0  0
   25.3455  -34.5637   -8.9098 C   0  0  0  0  0  0  0  0  0  0  0  0
   25.4105  -34.7573  -10.3864 C   0  0  0  0  0  0  0  0  0  0  0  0
   24.4289  -33.7990  -11.0275 C   0  0  0  0  0  0  0  0  0  0  0  0
   24.5155  -33.8470  -12.4832 N   0  0  0  0  0  0  0  0  0  0  0  0
   27.9668  -34.7716   -6.4733 C   0  0  0  0  0  0  0  0  0  0  0  0
   28.9599  -35.4974   -6.1604 O   0  0  0  0  0  0  0  0  0  0  0  0
   27.3342  -34.0476   -5.4519 N   0  0  0  0  0  0  0  0  0  0  0  0
   26.1372  -33.2577   -5.5854 C   0  0  0  0  0  0  0  0  0  0  0  0
   26.0606  -32.4321   -4.3294 C   0  0  0  0  0  0  0  0  0  0  0  0
   27.4638  -32.4944   -3.7927 C   0  0  0  0  0  0  0  0  0  0  0  0
   27.8091  -33.9685   -4.0735 C   0  0  1  0  0  0  0  0  0  0  0  0
   27.0023  -34.7803   -3.1525 C   0  0  0  0  0  0  0  0  0  0  0  0
   25.8290  -35.1627   -3.3932 O   0  0  0  0  0  0  0  0  0  0  0  0
   27.5780  -35.1561   -1.9185 N   0  0  0  0  0  0  0  0  0  0  0  0
   27.5038  -36.5264   -1.4513 C   0  0  0  0  0  0  0  0  0  0  0  0
   28.2083  -36.6037   -0.1468 C   0  0  0  0  0  0  0  0  0  0  0  0
   29.0323  -35.7016    0.2031 O   0  0  0  0  0  0  0  0  0  0  0  0
   28.0045  -37.6370    0.7258 O   0  0  0  0  0  0  0  0  0  0  0  0
  2  1  1  6
  3  2  1  0
  4  3  1  0
  5  4  1  0
  6  5  1  0
  7  6  1  0
  8  9  2  0
  8  2  1  0
 10  8  1  0
 11 10  1  0
 11 12  1  0
 13 12  1  0
 14 10  1  0
 14 13  1  0
 14 15  1  1
 16 15  2  0
 17 15  1  0
 18 17  1  0
 19 18  1  0
 19 21  1  0
 20 19  2  0
M  END
$$$$
