KPG.pdb
     RDKit          3D

 21 21  0  0  1  0  0  0  0  0999 V2000
   25.0081  -20.7526  -17.6906 N   0  0  0  0  0  0  0  0  0  0  0  0
   25.8164  -19.9841  -16.7471 C   0  0  1  0  0  0  0  0  0  0  0  0
   25.0846  -18.6455  -16.5689 C   0  0  0  0  0  0  0  0  0  0  0  0
   23.6006  -18.9234  -16.7166 C   0  0  0  0  0  0  0  0  0  0  0  0
   22.8661  -18.8456  -15.4219 C   0  0  0  0  0  0  0  0  0  0  0  0
   21.3943  -19.0608  -15.7053 C   0  0  0  0  0  0  0  0  0  0  0  0
   20.6227  -19.1391  -14.4694 N   0  0  0  0  0  0  0  0  0  0  0  0
   25.9759  -20.7143  -15.4710 C   0  0  0  0  0  0  0  0  0  0  0  0
   25.2216  -21.7194  -15.2922 O   0  0  0  0  0  0  0  0  0  0  0  0
   26.8874  -20.3880  -14.4560 N   0  0  0  0  0  0  0  0  0  0  0  0
   27.8336  -19.3023  -14.4796 C   0  0  0  0  0  0  0  0  0  0  0  0
   28.7836  -19.5747  -13.3446 C   0  0  0  0  0  0  0  0  0  0  0  0
   28.5619  -21.0336  -13.0554 C   0  0  0  0  0  0  0  0  0  0  0  0
   27.0316  -21.1218  -13.2019 C   0  0  1  0  0  0  0  0  0  0  0  0
   26.4499  -20.4043  -12.0596 C   0  0  0  0  0  0  0  0  0  0  0  0
   26.1252  -19.1898  -12.0814 O   0  0  0  0  0  0  0  0  0  0  0  0
   26.2411  -21.1210  -10.8604 N   0  0  0  0  0  0  0  0  0  0  0  0
   25.0427  -21.9135  -10.6680 C   0  0  0  0  0  0  0  0  0  0  0  0
   23.8864  -20.9850  -10.5980 C   0  0  0  0  0  0  0  0  0  0  0  0
   23.7153  -20.2327   -9.5881 O   0  0  0  0  0  0  0  0  0  0  0  0
   22.9650  -20.8991  -11.6051 O   0  0  0  0  0  0  0  0  0  0  0  0
  2  1  1  6
  3  2  1  0
  4  3  1  0
  5  4  1  0
  6  5  1  0
  7  6  1  0
  8  9  2  0
  8  2  1  0
 10  8  1  0
 11 10  1  0
 11 12  1  0
 13 12  1  0
 14 10  1  0
 14 13  1  0
 14 15  1  1
 16 15  2  0
 17 15  1  0
 18 17  1  0
 19 18  1  0
 19 21  1  0
 20 19  2  0
M  END
$$$$
