CLP.pdb
     RDKit          3D

 22 22  0  0  1  0  0  0  0  0999 V2000
   21.3367  -22.2103  -13.9130 N   0  0  0  0  0  0  0  0  0  0  0  0
   21.0248  -20.8469  -13.5409 C   0  0  1  0  0  0  0  0  0  0  0  0
   20.3281  -20.8664  -12.1937 C   0  0  0  0  0  0  0  0  0  0  0  0
   18.8431  -21.9030  -12.2474 S   0  0  0  0  0  0  0  0  0  0  0  0
   22.2913  -20.1031  -13.3803 C   0  0  0  0  0  0  0  0  0  0  0  0
   22.2788  -18.8856  -13.0681 O   0  0  0  0  0  0  0  0  0  0  0  0
   25.9967  -21.9540  -10.2976 C   0  0  0  0  0  0  0  0  0  0  0  0
   25.1304  -21.0391  -11.1378 C   0  0  1  0  0  0  0  0  0  0  0  0
   25.2234  -19.6757  -10.4503 C   0  0  0  0  0  0  0  0  0  0  0  0
   25.5943  -20.9777  -12.5356 C   0  0  0  0  0  0  0  0  0  0  0  0
   24.8257  -20.0607  -13.4723 C   0  0  2  0  0  0  0  0  0  0  0  0
   23.5148  -20.7658  -13.5791 N   0  0  0  0  0  0  0  0  0  0  0  0
   25.4142  -20.1152  -14.8182 C   0  0  0  0  0  0  0  0  0  0  0  0
   24.7589  -20.7650  -15.7095 O   0  0  0  0  0  0  0  0  0  0  0  0
   26.6281  -19.5220  -15.2429 N   0  0  0  0  0  0  0  0  0  0  0  0
   27.6631  -18.8091  -14.5491 C   0  0  0  0  0  0  0  0  0  0  0  0
   28.1868  -17.7670  -15.5405 C   0  0  0  0  0  0  0  0  0  0  0  0
   27.4264  -18.0564  -16.7985 C   0  0  0  0  0  0  0  0  0  0  0  0
   27.0986  -19.5237  -16.6454 C   0  0  1  0  0  0  0  0  0  0  0  0
   28.2796  -20.3725  -16.8050 C   0  0  0  0  0  0  0  0  0  0  0  0
   28.8055  -21.0844  -15.9239 O   0  0  0  0  0  0  0  0  0  0  0  0
   28.9002  -20.4068  -18.0629 O   0  0  0  0  0  0  0  0  0  0  0  0
  2  1  1  1
  2  5  1  0
  2  3  1  0
  4  3  1  0
  5  6  2  0
  8  7  1  1
  8 10  1  0
  9  8  1  0
 11 10  1  1
 12 11  1  0
 12  5  1  0
 13 14  2  0
 13 11  1  0
 15 13  1  0
 16 17  1  0
 16 15  1  0
 18 19  1  0
 18 17  1  0
 19 15  1  0
 19 20  1  1
 20 22  1  0
 21 20  2  0
M  END
$$$$
