CLP.pdb
     RDKit          3D

 22 22  0  0  1  0  0  0  0  0999 V2000
   19.0748  -11.5799  -20.1451 N   0  0  0  0  0  0  0  0  0  0  0  0
   19.8594  -10.3789  -19.9544 C   0  0  1  0  0  0  0  0  0  0  0  0
   19.1659   -9.2359  -20.6709 C   0  0  0  0  0  0  0  0  0  0  0  0
   19.1165   -9.5270  -22.4584 S   0  0  0  0  0  0  0  0  0  0  0  0
   19.8813  -10.0570  -18.5125 C   0  0  0  0  0  0  0  0  0  0  0  0
   18.8275  -10.1212  -17.8304 O   0  0  0  0  0  0  0  0  0  0  0  0
   23.7374  -11.5184  -14.4674 C   0  0  0  0  0  0  0  0  0  0  0  0
   22.3884  -10.9269  -14.8191 C   0  0  1  0  0  0  0  0  0  0  0  0
   22.0124  -10.0690  -13.6097 C   0  0  0  0  0  0  0  0  0  0  0  0
   22.4468  -10.1287  -16.0569 C   0  0  0  0  0  0  0  0  0  0  0  0
   21.1854   -9.3761  -16.4464 C   0  0  2  0  0  0  0  0  0  0  0  0
   21.0905   -9.6775  -17.9049 N   0  0  0  0  0  0  0  0  0  0  0  0
   21.4206   -7.9279  -16.3568 C   0  0  0  0  0  0  0  0  0  0  0  0
   22.2733   -7.4292  -17.1755 O   0  0  0  0  0  0  0  0  0  0  0  0
   20.8026   -7.0170  -15.4657 N   0  0  0  0  0  0  0  0  0  0  0  0
   19.8100   -7.1734  -14.4404 C   0  0  0  0  0  0  0  0  0  0  0  0
   18.9939   -5.8784  -14.4504 C   0  0  0  0  0  0  0  0  0  0  0  0
   19.6876   -5.0266  -15.4690 C   0  0  0  0  0  0  0  0  0  0  0  0
   21.0981   -5.5679  -15.4337 C   0  0  1  0  0  0  0  0  0  0  0  0
   21.7999   -5.1992  -14.2041 C   0  0  0  0  0  0  0  0  0  0  0  0
   22.0295   -5.9454  -13.2292 O   0  0  0  0  0  0  0  0  0  0  0  0
   22.2710   -3.8830  -14.0845 O   0  0  0  0  0  0  0  0  0  0  0  0
  2  1  1  1
  2  5  1  0
  2  3  1  0
  4  3  1  0
  5  6  2  0
  8  7  1  1
  8 10  1  0
  9  8  1  0
 11 10  1  6
 12 11  1  0
 12  5  1  0
 13 14  2  0
 13 11  1  0
 15 13  1  0
 16 17  1  0
 16 15  1  0
 18 19  1  0
 18 17  1  0
 19 15  1  0
 19 20  1  1
 20 22  1  0
 21 20  2  0
M  END
$$$$
