CLP.pdb
     RDKit          3D

 22 22  0  0  1  0  0  0  0  0999 V2000
   29.2888  -19.6769  -15.6686 N   0  0  0  0  0  0  0  0  0  0  0  0
   28.2650  -18.9921  -14.9089 C   0  0  1  0  0  0  0  0  0  0  0  0
   27.4429  -18.1496  -15.8654 C   0  0  0  0  0  0  0  0  0  0  0  0
   28.3023  -16.6075  -16.2729 S   0  0  0  0  0  0  0  0  0  0  0  0
   27.3659  -20.0034  -14.3156 C   0  0  0  0  0  0  0  0  0  0  0  0
   27.2349  -21.1318  -14.8535 O   0  0  0  0  0  0  0  0  0  0  0  0
   26.0102  -19.9447   -8.7305 C   0  0  0  0  0  0  0  0  0  0  0  0
   26.3102  -20.6092  -10.0578 C   0  0  1  0  0  0  0  0  0  0  0  0
   26.0092  -22.0913   -9.8279 C   0  0  0  0  0  0  0  0  0  0  0  0
   25.4910  -20.0491  -11.1478 C   0  0  0  0  0  0  0  0  0  0  0  0
   25.6857  -20.6511  -12.5294 C   0  0  2  0  0  0  0  0  0  0  0  0
   26.6553  -19.6966  -13.1423 N   0  0  0  0  0  0  0  0  0  0  0  0
   24.4489  -20.5148  -13.3120 C   0  0  0  0  0  0  0  0  0  0  0  0
   24.2120  -19.3617  -13.8222 O   0  0  0  0  0  0  0  0  0  0  0  0
   23.4880  -21.5225  -13.5707 N   0  0  0  0  0  0  0  0  0  0  0  0
   23.3545  -22.8824  -13.1304 C   0  0  0  0  0  0  0  0  0  0  0  0
   22.7185  -23.6377  -14.3001 C   0  0  0  0  0  0  0  0  0  0  0  0
   22.4530  -22.5679  -15.3146 C   0  0  0  0  0  0  0  0  0  0  0  0
   22.3150  -21.3345  -14.4523 C   0  0  1  0  0  0  0  0  0  0  0  0
   21.0707  -21.3357  -13.6829 C   0  0  0  0  0  0  0  0  0  0  0  0
   20.9599  -21.5197  -12.4525 O   0  0  0  0  0  0  0  0  0  0  0  0
   19.8700  -21.1101  -14.3729 O   0  0  0  0  0  0  0  0  0  0  0  0
  2  1  1  6
  2  5  1  0
  2  3  1  0
  4  3  1  0
  5  6  2  0
  8  7  1  1
  8 10  1  0
  9  8  1  0
 11 10  1  1
 12 11  1  0
 12  5  1  0
 13 14  2  0
 13 11  1  0
 15 13  1  0
 16 17  1  0
 16 15  1  0
 18 19  1  0
 18 17  1  0
 19 15  1  0
 19 20  1  1
 20 22  1  0
 21 20  2  0
M  END
$$$$
