CLP.pdb
     RDKit          3D

 22 22  0  0  1  0  0  0  0  0999 V2000
   26.3109  -21.2260  -12.4132 N   0  0  0  0  0  0  0  0  0  0  0  0
   25.8545  -20.3460  -11.3588 C   0  0  1  0  0  0  0  0  0  0  0  0
   24.3386  -20.3085  -11.3900 C   0  0  0  0  0  0  0  0  0  0  0  0
   23.7422  -19.4605  -12.8760 S   0  0  0  0  0  0  0  0  0  0  0  0
   26.2624  -20.9198  -10.0597 C   0  0  0  0  0  0  0  0  0  0  0  0
   26.2270  -22.1624   -9.8740 O   0  0  0  0  0  0  0  0  0  0  0  0
   29.3261  -20.2735   -5.2763 C   0  0  0  0  0  0  0  0  0  0  0  0
   28.1128  -19.4506   -5.6560 C   0  0  1  0  0  0  0  0  0  0  0  0
   28.4196  -18.0439   -5.1392 C   0  0  0  0  0  0  0  0  0  0  0  0
   27.8801  -19.4581   -7.1115 C   0  0  0  0  0  0  0  0  0  0  0  0
   27.0008  -20.5702   -7.6585 C   0  0  2  0  0  0  0  0  0  0  0  0
   26.6917  -20.0663   -9.0287 N   0  0  0  0  0  0  0  0  0  0  0  0
   25.7159  -20.5873   -6.9448 C   0  0  0  0  0  0  0  0  0  0  0  0
   24.8294  -19.7438   -7.3304 O   0  0  0  0  0  0  0  0  0  0  0  0
   25.3448  -21.4401   -5.8767 N   0  0  0  0  0  0  0  0  0  0  0  0
   26.0878  -22.3407   -5.0413 C   0  0  0  0  0  0  0  0  0  0  0  0
   25.1361  -23.4979   -4.7277 C   0  0  0  0  0  0  0  0  0  0  0  0
   23.8474  -23.0853   -5.3707 C   0  0  0  0  0  0  0  0  0  0  0  0
   23.9594  -21.5783   -5.3768 C   0  0  1  0  0  0  0  0  0  0  0  0
   23.8228  -21.0094   -4.0358 C   0  0  0  0  0  0  0  0  0  0  0  0
   24.7264  -20.4687   -3.3642 O   0  0  0  0  0  0  0  0  0  0  0  0
   22.5620  -21.0648   -3.4227 O   0  0  0  0  0  0  0  0  0  0  0  0
  2  1  1  6
  2  5  1  0
  2  3  1  0
  4  3  1  0
  5  6  2  0
  8  7  1  6
  8 10  1  0
  9  8  1  0
 11 10  1  1
 12 11  1  0
 12  5  1  0
 13 14  2  0
 13 11  1  0
 15 13  1  0
 16 17  1  0
 16 15  1  0
 18 19  1  0
 18 17  1  0
 19 15  1  0
 19 20  1  1
 20 22  1  0
 21 20  2  0
M  END
$$$$
