CLP.pdb
     RDKit          3D

 22 22  0  0  1  0  0  0  0  0999 V2000
   39.2097  -24.6067    4.7402 N   0  0  0  0  0  0  0  0  0  0  0  0
   37.8239  -25.0218    4.7830 C   0  0  1  0  0  0  0  0  0  0  0  0
   37.7443  -26.3472    5.5160 C   0  0  0  0  0  0  0  0  0  0  0  0
   36.0231  -26.8810    5.7039 S   0  0  0  0  0  0  0  0  0  0  0  0
   37.0610  -24.0288    5.5672 C   0  0  0  0  0  0  0  0  0  0  0  0
   37.5375  -23.5552    6.6295 O   0  0  0  0  0  0  0  0  0  0  0  0
   33.3126  -19.9161    5.4285 C   0  0  0  0  0  0  0  0  0  0  0  0
   32.8438  -21.3478    5.2746 C   0  0  1  0  0  0  0  0  0  0  0  0
   31.7119  -21.2784    4.2478 C   0  0  0  0  0  0  0  0  0  0  0  0
   33.9325  -22.2350    4.8269 C   0  0  0  0  0  0  0  0  0  0  0  0
   34.9768  -22.6140    5.8636 C   0  0  2  0  0  0  0  0  0  0  0  0
   35.7951  -23.6148    5.1181 N   0  0  0  0  0  0  0  0  0  0  0  0
   34.3434  -23.3600    6.9605 C   0  0  0  0  0  0  0  0  0  0  0  0
   34.0387  -24.5841    6.7263 O   0  0  0  0  0  0  0  0  0  0  0  0
   34.0360  -22.8758    8.2553 N   0  0  0  0  0  0  0  0  0  0  0  0
   34.1003  -21.5717    8.8522 C   0  0  0  0  0  0  0  0  0  0  0  0
   34.4681  -21.8036   10.3198 C   0  0  0  0  0  0  0  0  0  0  0  0
   34.4924  -23.2958   10.4508 C   0  0  0  0  0  0  0  0  0  0  0  0
   33.5431  -23.7298    9.3580 C   0  0  1  0  0  0  0  0  0  0  0  0
   32.1502  -23.4213    9.6825 C   0  0  0  0  0  0  0  0  0  0  0  0
   31.4229  -24.0376   10.4894 O   0  0  0  0  0  0  0  0  0  0  0  0
   31.5500  -22.3299    9.0365 O   0  0  0  0  0  0  0  0  0  0  0  0
  2  1  1  1
  2  5  1  0
  2  3  1  0
  4  3  1  0
  5  6  2  0
  8  7  1  6
  8 10  1  0
  9  8  1  0
 11 10  1  6
 12 11  1  0
 12  5  1  0
 13 14  2  0
 13 11  1  0
 15 13  1  0
 16 17  1  0
 16 15  1  0
 18 19  1  0
 18 17  1  0
 19 15  1  0
 19 20  1  1
 20 22  1  0
 21 20  2  0
M  END
$$$$
