CLP.pdb
     RDKit          3D

 22 22  0  0  1  0  0  0  0  0999 V2000
   22.3479  -11.0380  -20.4702 N   0  0  0  0  0  0  0  0  0  0  0  0
   22.5276   -9.6697  -20.0343 C   0  0  1  0  0  0  0  0  0  0  0  0
   21.7999   -8.7592  -21.0048 C   0  0  0  0  0  0  0  0  0  0  0  0
   22.7499   -8.5503  -22.5334 S   0  0  0  0  0  0  0  0  0  0  0  0
   21.8927   -9.5124  -18.7094 C   0  0  0  0  0  0  0  0  0  0  0  0
   20.7781  -10.0422  -18.4713 O   0  0  0  0  0  0  0  0  0  0  0  0
   23.7847  -11.6168  -14.7014 C   0  0  0  0  0  0  0  0  0  0  0  0
   22.7385  -10.8974  -15.5269 C   0  0  1  0  0  0  0  0  0  0  0  0
   21.4034  -11.2936  -14.8939 C   0  0  0  0  0  0  0  0  0  0  0  0
   22.9377   -9.4370  -15.5105 C   0  0  0  0  0  0  0  0  0  0  0  0
   21.9754   -8.6055  -16.3422 C   0  0  2  0  0  0  0  0  0  0  0  0
   22.5434   -8.7647  -17.7129 N   0  0  0  0  0  0  0  0  0  0  0  0
   22.1326   -7.1816  -16.0124 C   0  0  0  0  0  0  0  0  0  0  0  0
   23.1654   -6.5886  -16.4896 O   0  0  0  0  0  0  0  0  0  0  0  0
   21.2626   -6.3870  -15.2267 N   0  0  0  0  0  0  0  0  0  0  0  0
   20.0412   -6.6724  -14.5283 C   0  0  0  0  0  0  0  0  0  0  0  0
   19.2031   -5.3945  -14.6169 C   0  0  0  0  0  0  0  0  0  0  0  0
   20.1054   -4.4227  -15.3139 C   0  0  0  0  0  0  0  0  0  0  0  0
   21.4776   -4.9479  -14.9603 C   0  0  1  0  0  0  0  0  0  0  0  0
   21.8121   -4.7154  -13.5551 C   0  0  0  0  0  0  0  0  0  0  0  0
   21.8608   -5.5769  -12.6521 O   0  0  0  0  0  0  0  0  0  0  0  0
   22.1116   -3.4033  -13.1582 O   0  0  0  0  0  0  0  0  0  0  0  0
  2  1  1  6
  2  5  1  0
  2  3  1  0
  4  3  1  0
  5  6  2  0
  8  7  1  1
  8 10  1  0
  9  8  1  0
 11 10  1  1
 12 11  1  0
 12  5  1  0
 13 14  2  0
 13 11  1  0
 15 13  1  0
 16 17  1  0
 16 15  1  0
 18 19  1  0
 18 17  1  0
 19 15  1  0
 19 20  1  1
 20 22  1  0
 21 20  2  0
M  END
$$$$
