LKQ.pdb
     RDKit          3D

 27 26  0  0  1  0  0  0  0  0999 V2000
    9.1273  -13.2771   19.8911 C   0  0  0  0  0  0  0  0  0  0  0  0
    7.6861  -13.2623   20.2821 C   0  0  2  0  0  0  0  0  0  0  0  0
    7.1396  -11.8481   20.2063 C   0  0  0  0  0  0  0  0  0  0  0  0
    7.3913  -13.9073   21.6059 C   0  0  0  0  0  0  0  0  0  0  0  0
    7.9241  -15.3156   21.6435 C   0  0  2  0  0  0  0  0  0  0  0  0
    7.4194  -16.0518   20.5036 N   0  0  0  0  0  0  0  0  0  0  0  0
    7.5796  -16.0209   22.8926 C   0  0  0  0  0  0  0  0  0  0  0  0
    7.0418  -15.3586   23.8163 O   0  0  0  0  0  0  0  0  0  0  0  0
    7.8089  -17.3845   23.1282 N   0  0  0  0  0  0  0  0  0  0  0  0
    7.4324  -17.9789   24.4242 C   0  0  1  0  0  0  0  0  0  0  0  0
    7.1090  -19.4246   24.2562 C   0  0  0  0  0  0  0  0  0  0  0  0
    6.7813  -20.0575   25.5768 C   0  0  0  0  0  0  0  0  0  0  0  0
    6.5231  -21.5403   25.4508 C   0  0  0  0  0  0  0  0  0  0  0  0
    6.1164  -22.1454   26.7838 C   0  0  0  0  0  0  0  0  0  0  0  0
    5.8844  -23.5541   26.6644 N   0  0  0  0  0  0  0  0  0  0  0  0
    8.5189  -17.7276   25.4069 C   0  0  0  0  0  0  0  0  0  0  0  0
    9.6977  -18.0514   25.2103 O   0  0  0  0  0  0  0  0  0  0  0  0
   10.1118  -13.3529   26.1132 N   0  0  0  0  0  0  0  0  0  0  0  0
    9.9108  -13.8309   27.4370 C   0  0  0  0  0  0  0  0  0  0  0  0
   10.8369  -13.6801   28.2735 O   0  0  0  0  0  0  0  0  0  0  0  0
    8.6261  -14.4898   27.7962 C   0  0  0  0  0  0  0  0  0  0  0  0
    8.9437  -15.7526   28.6040 C   0  0  0  0  0  0  0  0  0  0  0  0
    9.2876  -16.8816   27.6512 C   0  0  2  0  0  0  0  0  0  0  0  0
    8.2511  -17.0817   26.6633 N   0  0  0  0  0  0  0  0  0  0  0  0
    9.4211  -18.1235   28.4429 C   0  0  0  0  0  0  0  0  0  0  0  0
   10.4222  -18.2299   29.3919 O   0  0  0  0  0  0  0  0  0  0  0  0
    8.6526  -19.1019   28.2887 O   0  0  0  0  0  0  0  0  0  0  0  0
  2  1  1  1
  3  2  1  0
  4  5  1  0
  4  2  1  0
  5  7  1  0
  5  6  1  6
  7  8  2  0
  9 10  1  0
  9  7  1  0
 10 11  1  6
 12 11  1  0
 13 14  1  0
 13 12  1  0
 15 14  1  0
 16 10  1  0
 16 17  2  0
 18 19  1  0
 19 21  1  0
 20 19  2  0
 21 22  1  0
 23 22  1  1
 23 24  1  0
 23 25  1  0
 24 16  1  0
 25 26  1  0
 27 25  2  0
M  END
$$$$
