LKQ.pdb
     RDKit          3D

 27 26  0  0  1  0  0  0  0  0999 V2000
    7.8857  -12.7699   26.9822 C   0  0  0  0  0  0  0  0  0  0  0  0
    7.2653  -13.5483   25.8689 C   0  0  2  0  0  0  0  0  0  0  0  0
    6.3067  -12.6678   25.0879 C   0  0  0  0  0  0  0  0  0  0  0  0
    6.6241  -14.8392   26.2909 C   0  0  0  0  0  0  0  0  0  0  0  0
    6.2449  -15.6642   25.0891 C   0  0  2  0  0  0  0  0  0  0  0  0
    5.5081  -16.8333   25.5208 N   0  0  0  0  0  0  0  0  0  0  0  0
    7.4141  -16.0720   24.2873 C   0  0  0  0  0  0  0  0  0  0  0  0
    8.1299  -17.0105   24.7209 O   0  0  0  0  0  0  0  0  0  0  0  0
    7.7894  -15.4871   23.0689 N   0  0  0  0  0  0  0  0  0  0  0  0
    8.9486  -16.0163   22.3268 C   0  0  1  0  0  0  0  0  0  0  0  0
    9.0470  -15.3666   20.9885 C   0  0  0  0  0  0  0  0  0  0  0  0
    8.2541  -16.1251   19.9648 C   0  0  0  0  0  0  0  0  0  0  0  0
    8.5282  -15.6445   18.5595 C   0  0  0  0  0  0  0  0  0  0  0  0
    7.6368  -16.3491   17.5509 C   0  0  0  0  0  0  0  0  0  0  0  0
    7.7205  -15.7284   16.2624 N   0  0  0  0  0  0  0  0  0  0  0  0
   10.1717  -15.8500   23.1549 C   0  0  0  0  0  0  0  0  0  0  0  0
   10.5895  -14.7469   23.5312 O   0  0  0  0  0  0  0  0  0  0  0  0
    9.9155  -19.2514   28.1118 N   0  0  0  0  0  0  0  0  0  0  0  0
   10.8708  -18.3314   27.5997 C   0  0  0  0  0  0  0  0  0  0  0  0
   11.5249  -17.6335   28.4154 O   0  0  0  0  0  0  0  0  0  0  0  0
   11.0712  -18.2178   26.1298 C   0  0  0  0  0  0  0  0  0  0  0  0
   11.8511  -16.9288   25.8499 C   0  0  0  0  0  0  0  0  0  0  0  0
   12.1477  -16.8370   24.3652 C   0  0  2  0  0  0  0  0  0  0  0  0
   10.9490  -16.9859   23.5705 N   0  0  0  0  0  0  0  0  0  0  0  0
   13.0762  -17.9335   24.0157 C   0  0  0  0  0  0  0  0  0  0  0  0
   12.6627  -18.9382   23.1590 O   0  0  0  0  0  0  0  0  0  0  0  0
   14.2430  -17.9936   24.4701 O   0  0  0  0  0  0  0  0  0  0  0  0
  2  1  1  1
  3  2  1  0
  4  5  1  0
  4  2  1  0
  5  7  1  0
  5  6  1  1
  7  8  2  0
  9 10  1  0
  9  7  1  0
 10 11  1  6
 12 11  1  0
 13 14  1  0
 13 12  1  0
 15 14  1  0
 16 10  1  0
 16 17  2  0
 18 19  1  0
 19 21  1  0
 20 19  2  0
 21 22  1  0
 23 22  1  1
 23 24  1  0
 23 25  1  0
 24 16  1  0
 25 26  1  0
 27 25  2  0
M  END
$$$$
