LKQ.pdb
     RDKit          3D

 27 26  0  0  1  0  0  0  0  0999 V2000
    7.9582  -14.0492   18.0987 C   0  0  0  0  0  0  0  0  0  0  0  0
    7.6982  -13.1278   19.2448 C   0  0  2  0  0  0  0  0  0  0  0  0
    8.3414  -11.7776   18.9848 C   0  0  0  0  0  0  0  0  0  0  0  0
    8.0774  -13.6801   20.5889 C   0  0  0  0  0  0  0  0  0  0  0  0
    7.5253  -15.0697   20.7696 C   0  0  2  0  0  0  0  0  0  0  0  0
    6.0924  -14.9970   20.9640 N   0  0  0  0  0  0  0  0  0  0  0  0
    8.1515  -15.7887   21.8953 C   0  0  0  0  0  0  0  0  0  0  0  0
    8.5977  -15.1099   22.8551 O   0  0  0  0  0  0  0  0  0  0  0  0
    8.2871  -17.1825   21.9753 N   0  0  0  0  0  0  0  0  0  0  0  0
    9.0275  -17.7846   23.0996 C   0  0  1  0  0  0  0  0  0  0  0  0
    8.3513  -19.0328   23.5553 C   0  0  0  0  0  0  0  0  0  0  0  0
    9.0963  -19.6596   24.6973 C   0  0  0  0  0  0  0  0  0  0  0  0
    8.4402  -20.9328   25.1766 C   0  0  0  0  0  0  0  0  0  0  0  0
    9.2090  -21.5489   26.3331 C   0  0  0  0  0  0  0  0  0  0  0  0
    8.6088  -22.7784   26.7583 N   0  0  0  0  0  0  0  0  0  0  0  0
   10.4415  -17.9943   22.6924 C   0  0  0  0  0  0  0  0  0  0  0  0
   10.7685  -18.6554   21.6978 O   0  0  0  0  0  0  0  0  0  0  0  0
   12.9421  -14.2916   19.8579 N   0  0  0  0  0  0  0  0  0  0  0  0
   14.1993  -14.7265   20.3595 C   0  0  0  0  0  0  0  0  0  0  0  0
   15.2428  -14.2128   19.8826 O   0  0  0  0  0  0  0  0  0  0  0  0
   14.2496  -15.7659   21.4229 C   0  0  0  0  0  0  0  0  0  0  0  0
   12.8150  -16.0618   21.8731 C   0  0  0  0  0  0  0  0  0  0  0  0
   12.8292  -17.2113   22.8626 C   0  0  2  0  0  0  0  0  0  0  0  0
   11.5255  -17.4282   23.4486 N   0  0  0  0  0  0  0  0  0  0  0  0
   13.7751  -16.8698   23.9468 C   0  0  0  0  0  0  0  0  0  0  0  0
   13.3077  -16.6928   25.2369 O   0  0  0  0  0  0  0  0  0  0  0  0
   15.0044  -16.7311   23.7442 O   0  0  0  0  0  0  0  0  0  0  0  0
  2  1  1  6
  3  2  1  0
  4  5  1  0
  4  2  1  0
  5  7  1  0
  5  6  1  1
  7  8  2  0
  9 10  1  0
  9  7  1  0
 10 11  1  6
 12 11  1  0
 13 14  1  0
 13 12  1  0
 15 14  1  0
 16 10  1  0
 16 17  2  0
 18 19  1  0
 19 21  1  0
 20 19  2  0
 21 22  1  0
 23 22  1  6
 23 24  1  0
 23 25  1  0
 24 16  1  0
 25 26  1  0
 27 25  2  0
M  END
$$$$
