LKQ.pdb
     RDKit          3D

 27 26  0  0  1  0  0  0  0  0999 V2000
    9.1570  -12.9758   19.0901 C   0  0  0  0  0  0  0  0  0  0  0  0
    7.7068  -13.3312   19.0615 C   0  0  2  0  0  0  0  0  0  0  0  0
    6.8861  -12.1373   18.6082 C   0  0  0  0  0  0  0  0  0  0  0  0
    7.1824  -13.9194   20.3400 C   0  0  0  0  0  0  0  0  0  0  0  0
    8.0628  -15.0482   20.8083 C   0  0  2  0  0  0  0  0  0  0  0  0
    8.1357  -16.0617   19.7768 N   0  0  0  0  0  0  0  0  0  0  0  0
    7.5951  -15.6475   22.0726 C   0  0  0  0  0  0  0  0  0  0  0  0
    7.0750  -14.8884   22.9296 O   0  0  0  0  0  0  0  0  0  0  0  0
    7.6878  -17.0101   22.3920 N   0  0  0  0  0  0  0  0  0  0  0  0
    7.3011  -17.4768   23.7364 C   0  0  1  0  0  0  0  0  0  0  0  0
    7.2251  -18.9655   23.7655 C   0  0  0  0  0  0  0  0  0  0  0  0
    5.9934  -19.4532   23.0604 C   0  0  0  0  0  0  0  0  0  0  0  0
    5.8989  -20.9605   23.0532 C   0  0  0  0  0  0  0  0  0  0  0  0
    4.6711  -21.4334   22.2934 C   0  0  0  0  0  0  0  0  0  0  0  0
    4.6343  -22.8629   22.2057 N   0  0  0  0  0  0  0  0  0  0  0  0
    8.2470  -16.9145   24.7357 C   0  0  0  0  0  0  0  0  0  0  0  0
    9.4760  -16.9258   24.5856 O   0  0  0  0  0  0  0  0  0  0  0  0
    6.7495  -12.0941   28.0604 N   0  0  0  0  0  0  0  0  0  0  0  0
    7.1363  -12.1669   26.6943 C   0  0  0  0  0  0  0  0  0  0  0  0
    6.8805  -11.1882   25.9481 O   0  0  0  0  0  0  0  0  0  0  0  0
    7.8256  -13.3838   26.1866 C   0  0  0  0  0  0  0  0  0  0  0  0
    8.0567  -14.3324   27.3677 C   0  0  0  0  0  0  0  0  0  0  0  0
    8.6652  -15.6250   26.8583 C   0  0  2  0  0  0  0  0  0  0  0  0
    7.7733  -16.3157   25.9540 N   0  0  0  0  0  0  0  0  0  0  0  0
    8.9173  -16.5017   28.0223 C   0  0  0  0  0  0  0  0  0  0  0  0
    8.2298  -17.6960   28.1454 O   0  0  0  0  0  0  0  0  0  0  0  0
    9.7417  -16.2044   28.9186 O   0  0  0  0  0  0  0  0  0  0  0  0
  2  1  1  1
  3  2  1  0
  4  5  1  0
  4  2  1  0
  5  7  1  0
  5  6  1  6
  7  8  2  0
  9 10  1  0
  9  7  1  0
 10 11  1  6
 12 11  1  0
 13 14  1  0
 13 12  1  0
 15 14  1  0
 16 10  1  0
 16 17  2  0
 18 19  1  0
 19 21  1  0
 20 19  2  0
 21 22  1  0
 23 22  1  1
 23 24  1  0
 23 25  1  0
 24 16  1  0
 25 26  1  0
 27 25  2  0
M  END
$$$$
