LKQ.pdb
     RDKit          3D

 27 26  0  0  1  0  0  0  0  0999 V2000
    6.0323  -12.4715   25.1618 C   0  0  0  0  0  0  0  0  0  0  0  0
    6.3618  -13.2322   26.4040 C   0  0  2  0  0  0  0  0  0  0  0  0
    6.9208  -12.2932   27.4577 C   0  0  0  0  0  0  0  0  0  0  0  0
    7.2479  -14.4255   26.1893 C   0  0  0  0  0  0  0  0  0  0  0  0
    6.6887  -15.3184   25.1129 C   0  0  2  0  0  0  0  0  0  0  0  0
    5.8865  -16.3597   25.7198 N   0  0  0  0  0  0  0  0  0  0  0  0
    7.7392  -15.9180   24.2684 C   0  0  0  0  0  0  0  0  0  0  0  0
    8.3949  -16.8833   24.7370 O   0  0  0  0  0  0  0  0  0  0  0  0
    8.0635  -15.4887   22.9730 N   0  0  0  0  0  0  0  0  0  0  0  0
    9.1971  -16.1040   22.2581 C   0  0  1  0  0  0  0  0  0  0  0  0
    9.1625  -15.7314   20.8149 C   0  0  0  0  0  0  0  0  0  0  0  0
    8.9376  -16.9402   19.9545 C   0  0  0  0  0  0  0  0  0  0  0  0
    8.8432  -16.5881   18.4888 C   0  0  0  0  0  0  0  0  0  0  0  0
    8.4296  -17.7905   17.6574 C   0  0  0  0  0  0  0  0  0  0  0  0
    8.3433  -17.4546   16.2672 N   0  0  0  0  0  0  0  0  0  0  0  0
   10.4633  -15.7216   22.9362 C   0  0  0  0  0  0  0  0  0  0  0  0
   10.7502  -14.5521   23.2245 O   0  0  0  0  0  0  0  0  0  0  0  0
   10.4492  -17.2738   28.2529 N   0  0  0  0  0  0  0  0  0  0  0  0
   11.6287  -16.4827   28.1875 C   0  0  0  0  0  0  0  0  0  0  0  0
   11.9539  -15.8107   29.1988 O   0  0  0  0  0  0  0  0  0  0  0  0
   12.4395  -16.4691   26.9402 C   0  0  0  0  0  0  0  0  0  0  0  0
   11.4824  -16.5284   25.7449 C   0  0  0  0  0  0  0  0  0  0  0  0
   12.2886  -16.5515   24.4603 C   0  0  2  0  0  0  0  0  0  0  0  0
   11.4408  -16.7112   23.3000 N   0  0  0  0  0  0  0  0  0  0  0  0
   13.2140  -17.7033   24.5217 C   0  0  0  0  0  0  0  0  0  0  0  0
   12.9950  -18.8053   23.7143 O   0  0  0  0  0  0  0  0  0  0  0  0
   14.2062  -17.7252   25.2875 O   0  0  0  0  0  0  0  0  0  0  0  0
  2  1  1  6
  3  2  1  0
  4  5  1  0
  4  2  1  0
  5  7  1  0
  5  6  1  1
  7  8  2  0
  9 10  1  0
  9  7  1  0
 10 11  1  6
 12 11  1  0
 13 14  1  0
 13 12  1  0
 15 14  1  0
 16 10  1  0
 16 17  2  0
 18 19  1  0
 19 21  1  0
 20 19  2  0
 21 22  1  0
 23 22  1  1
 23 24  1  0
 23 25  1  0
 24 16  1  0
 25 26  1  0
 27 25  2  0
M  END
$$$$
