LKQ.pdb
     RDKit          3D

 27 26  0  0  1  0  0  0  0  0999 V2000
    5.2340  -12.3831   26.5833 C   0  0  0  0  0  0  0  0  0  0  0  0
    6.4509  -13.0324   27.1558 C   0  0  2  0  0  0  0  0  0  0  0  0
    7.2246  -12.0367   28.0009 C   0  0  0  0  0  0  0  0  0  0  0  0
    7.3296  -13.7129   26.1457 C   0  0  0  0  0  0  0  0  0  0  0  0
    6.5328  -14.6824   25.3127 C   0  0  2  0  0  0  0  0  0  0  0  0
    6.2715  -15.8790   26.0849 N   0  0  0  0  0  0  0  0  0  0  0  0
    7.2074  -15.0346   24.0489 C   0  0  0  0  0  0  0  0  0  0  0  0
    7.8416  -16.1193   23.9997 O   0  0  0  0  0  0  0  0  0  0  0  0
    7.1938  -14.2445   22.8901 N   0  0  0  0  0  0  0  0  0  0  0  0
    7.9633  -14.6664   21.7049 C   0  0  1  0  0  0  0  0  0  0  0  0
    7.8439  -13.6493   20.6213 C   0  0  0  0  0  0  0  0  0  0  0  0
    8.6219  -14.0656   19.4075 C   0  0  0  0  0  0  0  0  0  0  0  0
    7.8213  -13.9122   18.1360 C   0  0  0  0  0  0  0  0  0  0  0  0
    8.6013  -14.4056   16.9291 C   0  0  0  0  0  0  0  0  0  0  0  0
    7.8633  -14.2051   15.7176 N   0  0  0  0  0  0  0  0  0  0  0  0
    9.3680  -14.9357   22.1093 C   0  0  0  0  0  0  0  0  0  0  0  0
   10.0218  -14.1736   22.8339 O   0  0  0  0  0  0  0  0  0  0  0  0
   10.9886  -19.6392   24.8336 N   0  0  0  0  0  0  0  0  0  0  0  0
   10.8487  -18.3345   25.3807 C   0  0  0  0  0  0  0  0  0  0  0  0
   10.5988  -18.2250   26.6077 O   0  0  0  0  0  0  0  0  0  0  0  0
   10.9995  -17.1451   24.4995 C   0  0  0  0  0  0  0  0  0  0  0  0
   11.3598  -17.6330   23.0923 C   0  0  0  0  0  0  0  0  0  0  0  0
   11.3806  -16.4496   22.1436 C   0  0  2  0  0  0  0  0  0  0  0  0
   10.0546  -16.1204   21.6706 N   0  0  0  0  0  0  0  0  0  0  0  0
   12.2132  -16.8133   20.9769 C   0  0  0  0  0  0  0  0  0  0  0  0
   11.6292  -16.9451   19.7296 O   0  0  0  0  0  0  0  0  0  0  0  0
   13.4475  -17.0111   21.0705 O   0  0  0  0  0  0  0  0  0  0  0  0
  2  1  1  6
  3  2  1  0
  4  5  1  0
  4  2  1  0
  5  7  1  0
  5  6  1  1
  7  8  2  0
  9 10  1  0
  9  7  1  0
 10 11  1  6
 12 11  1  0
 13 14  1  0
 13 12  1  0
 15 14  1  0
 16 10  1  0
 16 17  2  0
 18 19  1  0
 19 21  1  0
 20 19  2  0
 21 22  1  0
 23 22  1  1
 23 24  1  0
 23 25  1  0
 24 16  1  0
 25 26  1  0
 27 25  2  0
M  END
$$$$
