LKQ.pdb
     RDKit          3D

 27 26  0  0  1  0  0  0  0  0999 V2000
    9.4869  -12.9330   19.3117 C   0  0  0  0  0  0  0  0  0  0  0  0
    7.9974  -13.0405   19.3190 C   0  0  2  0  0  0  0  0  0  0  0  0
    7.3745  -11.6690   19.1316 C   0  0  0  0  0  0  0  0  0  0  0  0
    7.4285  -13.7569   20.5100 C   0  0  0  0  0  0  0  0  0  0  0  0
    8.1547  -15.0547   20.7489 C   0  0  2  0  0  0  0  0  0  0  0  0
    7.9591  -15.9318   19.6136 N   0  0  0  0  0  0  0  0  0  0  0  0
    7.7224  -15.7287   21.9878 C   0  0  0  0  0  0  0  0  0  0  0  0
    7.4943  -15.0171   22.9991 O   0  0  0  0  0  0  0  0  0  0  0  0
    7.5457  -17.1137   22.1228 N   0  0  0  0  0  0  0  0  0  0  0  0
    7.1583  -17.6804   23.4279 C   0  0  1  0  0  0  0  0  0  0  0  0
    6.6218  -19.0606   23.2541 C   0  0  0  0  0  0  0  0  0  0  0  0
    5.2481  -19.0296   22.6507 C   0  0  0  0  0  0  0  0  0  0  0  0
    4.6974  -20.4158   22.4135 C   0  0  0  0  0  0  0  0  0  0  0  0
    3.2631  -20.3626   21.9154 C   0  0  0  0  0  0  0  0  0  0  0  0
    2.7850  -21.6686   21.5712 N   0  0  0  0  0  0  0  0  0  0  0  0
    8.3210  -17.6112   24.3512 C   0  0  0  0  0  0  0  0  0  0  0  0
    9.4829  -17.8498   23.9957 O   0  0  0  0  0  0  0  0  0  0  0  0
   10.4309  -14.4942   30.6852 N   0  0  0  0  0  0  0  0  0  0  0  0
    9.9139  -14.4735   29.3609 C   0  0  0  0  0  0  0  0  0  0  0  0
    9.2035  -13.4969   29.0122 O   0  0  0  0  0  0  0  0  0  0  0  0
   10.2219  -15.5936   28.4313 C   0  0  0  0  0  0  0  0  0  0  0  0
    8.9920  -15.8385   27.5507 C   0  0  0  0  0  0  0  0  0  0  0  0
    9.2840  -16.9753   26.5899 C   0  0  2  0  0  0  0  0  0  0  0  0
    8.1529  -17.2560   25.7343 N   0  0  0  0  0  0  0  0  0  0  0  0
    9.5744  -18.1857   27.3884 C   0  0  0  0  0  0  0  0  0  0  0  0
   10.8124  -18.3333   27.9881 O   0  0  0  0  0  0  0  0  0  0  0  0
    8.7323  -19.1005   27.5483 O   0  0  0  0  0  0  0  0  0  0  0  0
  2  1  1  1
  3  2  1  0
  4  5  1  0
  4  2  1  0
  5  7  1  0
  5  6  1  6
  7  8  2  0
  9 10  1  0
  9  7  1  0
 10 11  1  6
 12 11  1  0
 13 14  1  0
 13 12  1  0
 15 14  1  0
 16 10  1  0
 16 17  2  0
 18 19  1  0
 19 21  1  0
 20 19  2  0
 21 22  1  0
 23 22  1  1
 23 24  1  0
 23 25  1  0
 24 16  1  0
 25 26  1  0
 27 25  2  0
M  END
$$$$
