LKQ.pdb
     RDKit          3D

 27 26  0  0  1  0  0  0  0  0999 V2000
    6.1018  -11.8176   25.0240 C   0  0  0  0  0  0  0  0  0  0  0  0
    5.9556  -12.7168   26.2073 C   0  0  2  0  0  0  0  0  0  0  0  0
    6.1373  -11.9251   27.4897 C   0  0  0  0  0  0  0  0  0  0  0  0
    6.8274  -13.9392   26.1745 C   0  0  0  0  0  0  0  0  0  0  0  0
    6.3556  -14.9027   25.1173 C   0  0  2  0  0  0  0  0  0  0  0  0
    5.4263  -15.8448   25.7047 N   0  0  0  0  0  0  0  0  0  0  0  0
    7.4667  -15.6262   24.4705 C   0  0  0  0  0  0  0  0  0  0  0  0
    8.0756  -16.4971   25.1426 O   0  0  0  0  0  0  0  0  0  0  0  0
    7.8973  -15.4136   23.1526 N   0  0  0  0  0  0  0  0  0  0  0  0
    9.0394  -16.1801   22.6209 C   0  0  1  0  0  0  0  0  0  0  0  0
    9.1610  -15.9740   21.1493 C   0  0  0  0  0  0  0  0  0  0  0  0
   10.3509  -16.7066   20.6020 C   0  0  0  0  0  0  0  0  0  0  0  0
    9.9532  -17.8187   19.6607 C   0  0  0  0  0  0  0  0  0  0  0  0
   11.1721  -18.5432   19.1153 C   0  0  0  0  0  0  0  0  0  0  0  0
   10.8001  -19.5148   18.1303 N   0  0  0  0  0  0  0  0  0  0  0  0
   10.2662  -15.8067   23.3725 C   0  0  0  0  0  0  0  0  0  0  0  0
   10.8031  -14.6946   23.2821 O   0  0  0  0  0  0  0  0  0  0  0  0
   11.8060  -17.3248   29.0406 N   0  0  0  0  0  0  0  0  0  0  0  0
   11.4536  -16.0003   28.6625 C   0  0  0  0  0  0  0  0  0  0  0  0
   11.0692  -15.2059   29.5576 O   0  0  0  0  0  0  0  0  0  0  0  0
   11.5468  -15.5913   27.2351 C   0  0  0  0  0  0  0  0  0  0  0  0
   12.0593  -16.7872   26.4255 C   0  0  0  0  0  0  0  0  0  0  0  0
   12.1283  -16.4049   24.9593 C   0  0  2  0  0  0  0  0  0  0  0  0
   10.9061  -16.7374   24.2622 N   0  0  0  0  0  0  0  0  0  0  0  0
   13.2371  -17.1631   24.3407 C   0  0  0  0  0  0  0  0  0  0  0  0
   12.9770  -18.3601   23.6974 O   0  0  0  0  0  0  0  0  0  0  0  0
   14.4240  -16.7611   24.3745 O   0  0  0  0  0  0  0  0  0  0  0  0
  2  1  1  6
  3  2  1  0
  4  5  1  0
  4  2  1  0
  5  7  1  0
  5  6  1  1
  7  8  2  0
  9 10  1  0
  9  7  1  0
 10 11  1  6
 12 11  1  0
 13 14  1  0
 13 12  1  0
 15 14  1  0
 16 10  1  0
 16 17  2  0
 18 19  1  0
 19 21  1  0
 20 19  2  0
 21 22  1  0
 23 22  1  1
 23 24  1  0
 23 25  1  0
 24 16  1  0
 25 26  1  0
 27 25  2  0
M  END
$$$$
