LKQ.pdb
     RDKit          3D

 27 26  0  0  1  0  0  0  0  0999 V2000
    9.0862  -12.9695   18.5439 C   0  0  0  0  0  0  0  0  0  0  0  0
    7.7550  -13.2327   19.1675 C   0  0  2  0  0  0  0  0  0  0  0  0
    7.1357  -11.9313   19.6439 C   0  0  0  0  0  0  0  0  0  0  0  0
    7.7664  -14.2767   20.2471 C   0  0  0  0  0  0  0  0  0  0  0  0
    8.4470  -15.5320   19.7681 C   0  0  2  0  0  0  0  0  0  0  0  0
    7.5140  -16.3179   18.9881 N   0  0  0  0  0  0  0  0  0  0  0  0
    8.9884  -16.3433   20.8748 C   0  0  0  0  0  0  0  0  0  0  0  0
    8.2260  -16.6136   21.8375 O   0  0  0  0  0  0  0  0  0  0  0  0
   10.2992  -16.8392   20.9337 N   0  0  0  0  0  0  0  0  0  0  0  0
   10.7232  -17.6581   22.0844 C   0  0  1  0  0  0  0  0  0  0  0  0
   11.5958  -18.7781   21.6292 C   0  0  0  0  0  0  0  0  0  0  0  0
   12.0054  -19.6424   22.7855 C   0  0  0  0  0  0  0  0  0  0  0  0
   12.9626  -20.7346   22.3709 C   0  0  0  0  0  0  0  0  0  0  0  0
   13.3795  -21.5843   23.5593 C   0  0  0  0  0  0  0  0  0  0  0  0
   12.3590  -22.5286   23.9050 N   0  0  0  0  0  0  0  0  0  0  0  0
   11.3698  -16.7789   23.0934 C   0  0  0  0  0  0  0  0  0  0  0  0
   12.2372  -15.9430   22.8064 O   0  0  0  0  0  0  0  0  0  0  0  0
   10.5891  -13.6284   29.7083 N   0  0  0  0  0  0  0  0  0  0  0  0
   10.4671  -14.7842   28.8895 C   0  0  0  0  0  0  0  0  0  0  0  0
    9.5655  -15.6166   29.1618 O   0  0  0  0  0  0  0  0  0  0  0  0
   11.3973  -14.9786   27.7447 C   0  0  0  0  0  0  0  0  0  0  0  0
   10.6881  -15.8346   26.6900 C   0  0  0  0  0  0  0  0  0  0  0  0
   11.5721  -15.9489   25.4628 C   0  0  2  0  0  0  0  0  0  0  0  0
   11.0138  -16.8552   24.4844 N   0  0  0  0  0  0  0  0  0  0  0  0
   12.8841  -16.4792   25.8920 C   0  0  0  0  0  0  0  0  0  0  0  0
   13.1389  -17.8364   25.8060 O   0  0  0  0  0  0  0  0  0  0  0  0
   13.7921  -15.7391   26.3386 O   0  0  0  0  0  0  0  0  0  0  0  0
  2  1  1  1
  3  2  1  0
  4  5  1  0
  4  2  1  0
  5  7  1  0
  5  6  1  1
  7  8  2  0
  9 10  1  0
  9  7  1  0
 10 11  1  6
 12 11  1  0
 13 14  1  0
 13 12  1  0
 15 14  1  0
 16 10  1  0
 16 17  2  0
 18 19  1  0
 19 21  1  0
 20 19  2  0
 21 22  1  0
 23 22  1  1
 23 24  1  0
 23 25  1  0
 24 16  1  0
 25 26  1  0
 27 25  2  0
M  END
$$$$
