LKQ.pdb
     RDKit          3D

 27 26  0  0  1  0  0  0  0  0999 V2000
    9.2895  -12.8033   19.4615 C   0  0  0  0  0  0  0  0  0  0  0  0
    7.8189  -13.0584   19.5079 C   0  0  2  0  0  0  0  0  0  0  0  0
    7.0578  -11.7758   19.2250 C   0  0  0  0  0  0  0  0  0  0  0  0
    7.3405  -13.7291   20.7636 C   0  0  0  0  0  0  0  0  0  0  0  0
    8.1030  -15.0043   21.0109 C   0  0  2  0  0  0  0  0  0  0  0  0
    7.9830  -15.8687   19.8556 N   0  0  0  0  0  0  0  0  0  0  0  0
    7.6475  -15.7136   22.2215 C   0  0  0  0  0  0  0  0  0  0  0  0
    7.6318  -15.0797   23.3073 O   0  0  0  0  0  0  0  0  0  0  0  0
    7.2278  -17.0517   22.2519 N   0  0  0  0  0  0  0  0  0  0  0  0
    6.8685  -17.6793   23.5371 C   0  0  1  0  0  0  0  0  0  0  0  0
    6.1090  -18.9407   23.3027 C   0  0  0  0  0  0  0  0  0  0  0  0
    4.7617  -18.6524   22.7077 C   0  0  0  0  0  0  0  0  0  0  0  0
    4.4136  -19.6094   21.5924 C   0  0  0  0  0  0  0  0  0  0  0  0
    3.0348  -19.3181   21.0247 C   0  0  0  0  0  0  0  0  0  0  0  0
    2.0171  -20.0198   21.7490 N   0  0  0  0  0  0  0  0  0  0  0  0
    8.1019  -17.8742   24.3433 C   0  0  0  0  0  0  0  0  0  0  0  0
    9.1709  -18.2704   23.8600 O   0  0  0  0  0  0  0  0  0  0  0  0
   11.4427  -14.4015   27.5022 N   0  0  0  0  0  0  0  0  0  0  0  0
   10.0477  -14.3712   27.7747 C   0  0  0  0  0  0  0  0  0  0  0  0
    9.5526  -13.3129   28.2385 O   0  0  0  0  0  0  0  0  0  0  0  0
    9.2177  -15.5768   27.5081 C   0  0  0  0  0  0  0  0  0  0  0  0
   10.0979  -16.6216   26.8139 C   0  0  0  0  0  0  0  0  0  0  0  0
    9.2831  -17.8770   26.5678 C   0  0  2  0  0  0  0  0  0  0  0  0
    8.1175  -17.6071   25.7560 N   0  0  0  0  0  0  0  0  0  0  0  0
    8.8282  -18.3911   27.8776 C   0  0  0  0  0  0  0  0  0  0  0  0
    9.7545  -18.8635   28.7903 O   0  0  0  0  0  0  0  0  0  0  0  0
    7.6178  -18.4181   28.2029 O   0  0  0  0  0  0  0  0  0  0  0  0
  2  1  1  1
  3  2  1  0
  4  5  1  0
  4  2  1  0
  5  7  1  0
  5  6  1  6
  7  8  2  0
  9 10  1  0
  9  7  1  0
 10 11  1  6
 12 11  1  0
 13 14  1  0
 13 12  1  0
 15 14  1  0
 16 10  1  0
 16 17  2  0
 18 19  1  0
 19 21  1  0
 20 19  2  0
 21 22  1  0
 23 22  1  1
 23 24  1  0
 23 25  1  0
 24 16  1  0
 25 26  1  0
 27 25  2  0
M  END
$$$$
