LKQ.pdb
     RDKit          3D

 27 26  0  0  1  0  0  0  0  0999 V2000
    5.6032  -12.4666   26.7484 C   0  0  0  0  0  0  0  0  0  0  0  0
    6.7815  -13.1787   27.3268 C   0  0  2  0  0  0  0  0  0  0  0  0
    7.6269  -12.2142   28.1389 C   0  0  0  0  0  0  0  0  0  0  0  0
    7.6037  -13.9402   26.3270 C   0  0  0  0  0  0  0  0  0  0  0  0
    6.7270  -14.8196   25.4746 C   0  0  2  0  0  0  0  0  0  0  0  0
    6.4071  -16.0301   26.2017 N   0  0  0  0  0  0  0  0  0  0  0  0
    7.3478  -15.1578   24.1798 C   0  0  0  0  0  0  0  0  0  0  0  0
    8.0390  -16.2060   24.1116 O   0  0  0  0  0  0  0  0  0  0  0  0
    7.2238  -14.3920   23.0112 N   0  0  0  0  0  0  0  0  0  0  0  0
    7.9856  -14.7650   21.8049 C   0  0  1  0  0  0  0  0  0  0  0  0
    7.5654  -13.9250   20.6470 C   0  0  0  0  0  0  0  0  0  0  0  0
    8.1838  -14.4208   19.3727 C   0  0  0  0  0  0  0  0  0  0  0  0
    7.8354  -13.5468   18.1913 C   0  0  0  0  0  0  0  0  0  0  0  0
    8.3224  -14.1588   16.8888 C   0  0  0  0  0  0  0  0  0  0  0  0
    7.8853  -13.3919   15.7603 N   0  0  0  0  0  0  0  0  0  0  0  0
    9.4392  -14.6752   22.1023 C   0  0  0  0  0  0  0  0  0  0  0  0
    9.9519  -13.7129   22.6891 O   0  0  0  0  0  0  0  0  0  0  0  0
   10.0814  -18.0624   26.0851 N   0  0  0  0  0  0  0  0  0  0  0  0
   11.4872  -17.8970   25.9521 C   0  0  0  0  0  0  0  0  0  0  0  0
   12.2270  -18.3017   26.8843 O   0  0  0  0  0  0  0  0  0  0  0  0
   12.0422  -17.2573   24.7288 C   0  0  0  0  0  0  0  0  0  0  0  0
   10.8718  -16.7542   23.8771 C   0  0  0  0  0  0  0  0  0  0  0  0
   11.4098  -16.1673   22.5861 C   0  0  2  0  0  0  0  0  0  0  0  0
   10.3440  -15.7236   21.7156 N   0  0  0  0  0  0  0  0  0  0  0  0
   12.1722  -17.2236   21.8862 C   0  0  0  0  0  0  0  0  0  0  0  0
   11.6704  -17.7769   20.7216 O   0  0  0  0  0  0  0  0  0  0  0  0
   13.2733  -17.6472   22.3098 O   0  0  0  0  0  0  0  0  0  0  0  0
  2  1  1  6
  3  2  1  0
  4  5  1  0
  4  2  1  0
  5  7  1  0
  5  6  1  1
  7  8  2  0
  9 10  1  0
  9  7  1  0
 10 11  1  6
 12 11  1  0
 13 14  1  0
 13 12  1  0
 15 14  1  0
 16 10  1  0
 16 17  2  0
 18 19  1  0
 19 21  1  0
 20 19  2  0
 21 22  1  0
 23 22  1  1
 23 24  1  0
 23 25  1  0
 24 16  1  0
 25 26  1  0
 27 25  2  0
M  END
$$$$
