LKQ.pdb
     RDKit          3D

 27 26  0  0  1  0  0  0  0  0999 V2000
    5.8732  -12.5229   27.8514 C   0  0  0  0  0  0  0  0  0  0  0  0
    6.7333  -12.8531   26.6761 C   0  0  2  0  0  0  0  0  0  0  0  0
    6.9417  -11.6178   25.8188 C   0  0  0  0  0  0  0  0  0  0  0  0
    6.2598  -14.0252   25.8651 C   0  0  0  0  0  0  0  0  0  0  0  0
    7.4284  -14.8067   25.3246 C   0  0  2  0  0  0  0  0  0  0  0  0
    8.6632  -14.1701   25.7323 N   0  0  0  0  0  0  0  0  0  0  0  0
    7.3915  -14.9426   23.8561 C   0  0  0  0  0  0  0  0  0  0  0  0
    6.4586  -15.6154   23.3481 O   0  0  0  0  0  0  0  0  0  0  0  0
    8.3258  -14.3732   22.9784 N   0  0  0  0  0  0  0  0  0  0  0  0
    8.2457  -14.6600   21.5341 C   0  0  1  0  0  0  0  0  0  0  0  0
    8.0258  -13.4002   20.7676 C   0  0  0  0  0  0  0  0  0  0  0  0
    7.9208  -13.6792   19.2969 C   0  0  0  0  0  0  0  0  0  0  0  0
    8.7211  -12.6997   18.4715 C   0  0  0  0  0  0  0  0  0  0  0  0
    8.9428  -13.2179   17.0606 C   0  0  0  0  0  0  0  0  0  0  0  0
    7.6972  -13.4728   16.4002 N   0  0  0  0  0  0  0  0  0  0  0  0
    9.4665  -15.3986   21.1179 C   0  0  0  0  0  0  0  0  0  0  0  0
    9.5832  -15.9454   20.0130 O   0  0  0  0  0  0  0  0  0  0  0  0
   14.7072  -16.1243   18.9968 N   0  0  0  0  0  0  0  0  0  0  0  0
   13.9513  -14.9244   19.0973 C   0  0  0  0  0  0  0  0  0  0  0  0
   14.3938  -13.8908   18.5352 O   0  0  0  0  0  0  0  0  0  0  0  0
   12.6711  -14.9205   19.8554 C   0  0  0  0  0  0  0  0  0  0  0  0
   12.9326  -15.5183   21.2420 C   0  0  0  0  0  0  0  0  0  0  0  0
   11.7348  -16.3489   21.6617 C   0  0  2  0  0  0  0  0  0  0  0  0
   10.5991  -15.5186   21.9955 N   0  0  0  0  0  0  0  0  0  0  0  0
   12.1135  -17.1232   22.8632 C   0  0  0  0  0  0  0  0  0  0  0  0
   11.3734  -16.9956   24.0252 O   0  0  0  0  0  0  0  0  0  0  0  0
   13.0939  -17.9043   22.8751 O   0  0  0  0  0  0  0  0  0  0  0  0
  2  1  1  1
  3  2  1  0
  4  5  1  0
  4  2  1  0
  5  7  1  0
  5  6  1  6
  7  8  2  0
  9 10  1  0
  9  7  1  0
 10 11  1  6
 12 11  1  0
 13 14  1  0
 13 12  1  0
 15 14  1  0
 16 10  1  0
 16 17  2  0
 18 19  1  0
 19 21  1  0
 20 19  2  0
 21 22  1  0
 23 22  1  1
 23 24  1  0
 23 25  1  0
 24 16  1  0
 25 26  1  0
 27 25  2  0
M  END
$$$$
