TTE.pdb
     RDKit          3D

 24 23  0  0  1  0  0  0  0  0999 V2000
   -3.8338  -27.8259   30.0324 C   0  0  0  0  0  0  0  0  0  0  0  0
   -2.3975  -27.5370   30.4456 C   0  0  1  0  0  0  0  0  0  0  0  0
   -1.6135  -28.6649   30.3903 O   0  0  0  0  0  0  0  0  0  0  0  0
   -1.8834  -26.4001   29.5938 C   0  0  2  0  0  0  0  0  0  0  0  0
   -0.5073  -26.1498   29.9711 N   0  0  0  0  0  0  0  0  0  0  0  0
   -2.6632  -25.1670   29.7576 C   0  0  0  0  0  0  0  0  0  0  0  0
   -2.5860  -24.5189   30.8302 O   0  0  0  0  0  0  0  0  0  0  0  0
   -2.6801  -22.0696   27.5208 C   0  0  0  0  0  0  0  0  0  0  0  0
   -4.1017  -22.6161   27.6174 C   0  0  1  0  0  0  0  0  0  0  0  0
   -4.4221  -23.3776   26.4964 O   0  0  0  0  0  0  0  0  0  0  0  0
   -4.2865  -23.4270   28.8954 C   0  0  2  0  0  0  0  0  0  0  0  0
   -3.5263  -24.6356   28.7607 N   0  0  0  0  0  0  0  0  0  0  0  0
   -5.7364  -23.6697   29.0535 C   0  0  0  0  0  0  0  0  0  0  0  0
   -6.1743  -24.8203   28.8367 O   0  0  0  0  0  0  0  0  0  0  0  0
   -6.6098  -22.6483   29.4355 N   0  0  0  0  0  0  0  0  0  0  0  0
   -8.0032  -22.8364   29.7855 C   0  0  1  0  0  0  0  0  0  0  0  0
   -8.0690  -23.7277   31.0033 C   0  0  0  0  0  0  0  0  0  0  0  0
   -8.1560  -25.1819   30.7058 C   0  0  0  0  0  0  0  0  0  0  0  0
   -8.1716  -26.0723   31.8664 C   0  0  0  0  0  0  0  0  0  0  0  0
   -9.2375  -26.5016   32.3594 O   0  0  0  0  0  0  0  0  0  0  0  0
   -8.6132  -21.5222   30.2083 C   0  0  0  0  0  0  0  0  0  0  0  0
   -7.9456  -20.6059   30.6996 O   0  0  0  0  0  0  0  0  0  0  0  0
   -6.9735  -26.4516   32.4368 O   0  0  0  0  0  0  0  0  0  0  0  0
   -9.9796  -21.3442   30.0346 O   0  0  0  0  0  0  0  0  0  0  0  0
  2  1  1  6
  2  3  1  0
  4  5  1  1
  4  2  1  0
  4  6  1  0
  6  7  2  0
  9  8  1  6
  9 11  1  0
 10  9  1  0
 11 13  1  0
 12  6  1  0
 11 12  1  6
 13 15  1  0
 13 14  2  0
 15 16  1  0
 16 21  1  0
 16 17  1  1
 18 19  1  0
 18 17  1  0
 19 20  2  0
 21 22  2  0
 21 24  1  0
 23 19  1  0
M  END
$$$$
