TTE.pdb
     RDKit          3D

 24 23  0  0  1  0  0  0  0  0999 V2000
    7.3514  -16.1662   19.5267 C   0  0  0  0  0  0  0  0  0  0  0  0
    8.0363  -14.9011   19.0291 C   0  0  1  0  0  0  0  0  0  0  0  0
    7.7656  -14.6617   17.7027 O   0  0  0  0  0  0  0  0  0  0  0  0
    7.6425  -13.7636   19.9420 C   0  0  2  0  0  0  0  0  0  0  0  0
    7.9838  -12.5225   19.2775 N   0  0  0  0  0  0  0  0  0  0  0  0
    8.3176  -13.8180   21.2446 C   0  0  0  0  0  0  0  0  0  0  0  0
    9.5351  -13.5225   21.3281 O   0  0  0  0  0  0  0  0  0  0  0  0
    6.8929  -12.6167   24.7797 C   0  0  0  0  0  0  0  0  0  0  0  0
    7.3328  -14.0775   24.8199 C   0  0  1  0  0  0  0  0  0  0  0  0
    6.2370  -14.9324   24.7330 O   0  0  0  0  0  0  0  0  0  0  0  0
    8.3403  -14.3723   23.7141 C   0  0  2  0  0  0  0  0  0  0  0  0
    7.6752  -14.1921   22.4564 N   0  0  0  0  0  0  0  0  0  0  0  0
    8.8242  -15.7542   23.9203 C   0  0  0  0  0  0  0  0  0  0  0  0
    8.4821  -16.6331   23.0999 O   0  0  0  0  0  0  0  0  0  0  0  0
    9.6447  -16.0863   25.0012 N   0  0  0  0  0  0  0  0  0  0  0  0
   10.2191  -17.3959   25.2346 C   0  0  1  0  0  0  0  0  0  0  0  0
   11.4444  -17.5373   24.3625 C   0  0  0  0  0  0  0  0  0  0  0  0
   12.2103  -18.7954   24.5654 C   0  0  0  0  0  0  0  0  0  0  0  0
   13.4084  -18.9546   23.7412 C   0  0  0  0  0  0  0  0  0  0  0  0
   14.3233  -19.7503   24.0467 O   0  0  0  0  0  0  0  0  0  0  0  0
   10.7160  -17.4979   26.6561 C   0  0  0  0  0  0  0  0  0  0  0  0
   10.8624  -16.5093   27.3827 O   0  0  0  0  0  0  0  0  0  0  0  0
   13.5351  -18.2041   22.5900 O   0  0  0  0  0  0  0  0  0  0  0  0
   11.0182  -18.7566   27.1593 O   0  0  0  0  0  0  0  0  0  0  0  0
  2  1  1  1
  2  3  1  0
  4  5  1  6
  4  2  1  0
  4  6  1  0
  6  7  2  0
  9  8  1  6
  9 11  1  0
 10  9  1  0
 11 13  1  0
 12  6  1  0
 11 12  1  6
 13 15  1  0
 13 14  2  0
 15 16  1  0
 16 21  1  0
 16 17  1  6
 18 19  1  0
 18 17  1  0
 19 20  2  0
 21 22  2  0
 21 24  1  0
 23 19  1  0
M  END
$$$$
