TTE.pdb
     RDKit          3D

 24 23  0  0  1  0  0  0  0  0999 V2000
    7.3513  -19.1110   19.3279 C   0  0  0  0  0  0  0  0  0  0  0  0
    8.0232  -18.7656   18.0064 C   0  0  1  0  0  0  0  0  0  0  0  0
    7.5040  -19.4952   16.9634 O   0  0  0  0  0  0  0  0  0  0  0  0
    7.9266  -17.2712   17.8068 C   0  0  2  0  0  0  0  0  0  0  0  0
    8.4692  -16.9619   16.4997 N   0  0  0  0  0  0  0  0  0  0  0  0
    8.6582  -16.5111   18.8279 C   0  0  0  0  0  0  0  0  0  0  0  0
    9.9137  -16.4991   18.8153 O   0  0  0  0  0  0  0  0  0  0  0  0
    7.5354  -12.9445   20.4898 C   0  0  0  0  0  0  0  0  0  0  0  0
    7.7937  -14.0489   21.5109 C   0  0  1  0  0  0  0  0  0  0  0  0
    6.5991  -14.6161   21.9470 O   0  0  0  0  0  0  0  0  0  0  0  0
    8.7225  -15.1133   20.9369 C   0  0  2  0  0  0  0  0  0  0  0  0
    8.0310  -15.7641   19.8623 N   0  0  0  0  0  0  0  0  0  0  0  0
    9.0705  -16.0319   22.0420 C   0  0  0  0  0  0  0  0  0  0  0  0
    8.3297  -17.0165   22.2529 O   0  0  0  0  0  0  0  0  0  0  0  0
   10.1967  -15.8188   22.8407 N   0  0  0  0  0  0  0  0  0  0  0  0
   10.6332  -16.6946   23.9093 C   0  0  1  0  0  0  0  0  0  0  0  0
   12.1088  -16.9628   23.7282 C   0  0  0  0  0  0  0  0  0  0  0  0
   12.9293  -15.7571   23.4392 C   0  0  0  0  0  0  0  0  0  0  0  0
   14.3587  -15.9906   23.2335 C   0  0  0  0  0  0  0  0  0  0  0  0
   14.8240  -16.3209   22.1209 O   0  0  0  0  0  0  0  0  0  0  0  0
   10.5064  -15.9924   25.2392 C   0  0  0  0  0  0  0  0  0  0  0  0
   10.2306  -14.7917   25.3344 O   0  0  0  0  0  0  0  0  0  0  0  0
   15.2227  -15.8423   24.2994 O   0  0  0  0  0  0  0  0  0  0  0  0
   10.7092  -16.7325   26.3968 O   0  0  0  0  0  0  0  0  0  0  0  0
  2  1  1  1
  2  3  1  0
  4  5  1  6
  4  2  1  0
  4  6  1  0
  6  7  2  0
  9  8  1  6
  9 11  1  0
 10  9  1  0
 11 13  1  0
 12  6  1  0
 11 12  1  6
 13 15  1  0
 13 14  2  0
 15 16  1  0
 16 21  1  0
 16 17  1  6
 18 19  1  0
 18 17  1  0
 19 20  2  0
 21 22  2  0
 21 24  1  0
 23 19  1  0
M  END
$$$$
