TTE.pdb
     RDKit          3D

 24 23  0  0  1  0  0  0  0  0999 V2000
    8.0901  -19.4155   19.4409 C   0  0  0  0  0  0  0  0  0  0  0  0
    9.1708  -18.9844   18.4593 C   0  0  1  0  0  0  0  0  0  0  0  0
    9.1844  -19.7754   17.3349 O   0  0  0  0  0  0  0  0  0  0  0  0
    8.9780  -17.5155   18.1636 C   0  0  2  0  0  0  0  0  0  0  0  0
    9.8103  -17.1784   17.0269 N   0  0  0  0  0  0  0  0  0  0  0  0
    9.3341  -16.6541   19.2979 C   0  0  0  0  0  0  0  0  0  0  0  0
   10.5427  -16.4585   19.5764 O   0  0  0  0  0  0  0  0  0  0  0  0
    7.3635  -13.3012   20.5777 C   0  0  0  0  0  0  0  0  0  0  0  0
    7.5240  -14.3726   21.6526 C   0  0  1  0  0  0  0  0  0  0  0  0
    6.3500  -15.1052   21.8078 O   0  0  0  0  0  0  0  0  0  0  0  0
    8.6987  -15.2908   21.3336 C   0  0  2  0  0  0  0  0  0  0  0  0
    8.3823  -16.0045   20.1306 N   0  0  0  0  0  0  0  0  0  0  0  0
    8.8892  -16.1787   22.5004 C   0  0  0  0  0  0  0  0  0  0  0  0
    8.6728  -17.4018   22.3591 O   0  0  0  0  0  0  0  0  0  0  0  0
    9.3007  -15.6786   23.7383 N   0  0  0  0  0  0  0  0  0  0  0  0
   10.0505  -16.4267   24.7271 C   0  0  1  0  0  0  0  0  0  0  0  0
   11.4414  -16.6626   24.1872 C   0  0  0  0  0  0  0  0  0  0  0  0
   12.3506  -17.3938   25.1088 C   0  0  0  0  0  0  0  0  0  0  0  0
   13.7248  -17.5748   24.6412 C   0  0  0  0  0  0  0  0  0  0  0  0
   14.2766  -18.6967   24.6202 O   0  0  0  0  0  0  0  0  0  0  0  0
   10.2324  -15.5981   25.9754 C   0  0  0  0  0  0  0  0  0  0  0  0
   10.1302  -14.3667   25.9778 O   0  0  0  0  0  0  0  0  0  0  0  0
   14.4367  -16.4742   24.2093 O   0  0  0  0  0  0  0  0  0  0  0  0
   10.5262  -16.2536   27.1640 O   0  0  0  0  0  0  0  0  0  0  0  0
  2  1  1  1
  2  3  1  0
  4  5  1  6
  4  2  1  0
  4  6  1  0
  6  7  2  0
  9  8  1  6
  9 11  1  0
 10  9  1  0
 11 13  1  0
 12  6  1  0
 11 12  1  6
 13 15  1  0
 13 14  2  0
 15 16  1  0
 16 21  1  0
 16 17  1  6
 18 19  1  0
 18 17  1  0
 19 20  2  0
 21 22  2  0
 21 24  1  0
 23 19  1  0
M  END
$$$$
