TTE.pdb
     RDKit          3D

 24 23  0  0  1  0  0  0  0  0999 V2000
    6.9889  -19.4646   17.1122 C   0  0  0  0  0  0  0  0  0  0  0  0
    7.7747  -18.7641   18.2116 C   0  0  1  0  0  0  0  0  0  0  0  0
    8.9280  -19.4428   18.5269 O   0  0  0  0  0  0  0  0  0  0  0  0
    8.0115  -17.3352   17.7823 C   0  0  2  0  0  0  0  0  0  0  0  0
    8.7658  -17.3623   16.5458 N   0  0  0  0  0  0  0  0  0  0  0  0
    8.7487  -16.5538   18.7832 C   0  0  0  0  0  0  0  0  0  0  0  0
   10.0033  -16.5191   18.7458 O   0  0  0  0  0  0  0  0  0  0  0  0
    7.5283  -13.0037   20.4007 C   0  0  0  0  0  0  0  0  0  0  0  0
    7.8776  -14.0657   21.4395 C   0  0  1  0  0  0  0  0  0  0  0  0
    6.7286  -14.6726   21.9402 O   0  0  0  0  0  0  0  0  0  0  0  0
    8.8298  -15.1040   20.8562 C   0  0  2  0  0  0  0  0  0  0  0  0
    8.1282  -15.8104   19.8240 N   0  0  0  0  0  0  0  0  0  0  0  0
    9.2574  -15.9790   21.9687 C   0  0  0  0  0  0  0  0  0  0  0  0
    8.6434  -17.0526   22.1512 O   0  0  0  0  0  0  0  0  0  0  0  0
   10.3202  -15.6291   22.8052 N   0  0  0  0  0  0  0  0  0  0  0  0
   10.8491  -16.4617   23.8665 C   0  0  1  0  0  0  0  0  0  0  0  0
   12.2858  -16.0633   24.1091 C   0  0  0  0  0  0  0  0  0  0  0  0
   13.2781  -16.7587   23.2473 C   0  0  0  0  0  0  0  0  0  0  0  0
   14.6401  -16.2259   23.2823 C   0  0  0  0  0  0  0  0  0  0  0  0
   15.6043  -16.8963   23.7116 O   0  0  0  0  0  0  0  0  0  0  0  0
   10.1231  -16.1774   25.1588 C   0  0  0  0  0  0  0  0  0  0  0  0
    9.3342  -15.2349   25.2857 O   0  0  0  0  0  0  0  0  0  0  0  0
   14.8704  -14.9434   22.8276 O   0  0  0  0  0  0  0  0  0  0  0  0
   10.3568  -17.0130   26.2432 O   0  0  0  0  0  0  0  0  0  0  0  0
  2  1  1  6
  2  3  1  0
  4  5  1  6
  4  2  1  0
  4  6  1  0
  6  7  2  0
  9  8  1  6
  9 11  1  0
 10  9  1  0
 11 13  1  0
 12  6  1  0
 11 12  1  6
 13 15  1  0
 13 14  2  0
 15 16  1  0
 16 21  1  0
 16 17  1  1
 18 19  1  0
 18 17  1  0
 19 20  2  0
 21 22  2  0
 21 24  1  0
 23 19  1  0
M  END
$$$$
