TTE.pdb
     RDKit          3D

 24 23  0  0  1  0  0  0  0  0999 V2000
    9.3291  -16.7757   16.9988 C   0  0  0  0  0  0  0  0  0  0  0  0
    9.2397  -15.3741   16.4115 C   0  0  1  0  0  0  0  0  0  0  0  0
    8.8308  -15.3954   15.0991 O   0  0  0  0  0  0  0  0  0  0  0  0
    8.3515  -14.5446   17.3087 C   0  0  2  0  0  0  0  0  0  0  0  0
    8.0793  -13.2938   16.6305 N   0  0  0  0  0  0  0  0  0  0  0  0
    8.9615  -14.2655   18.6147 C   0  0  0  0  0  0  0  0  0  0  0  0
    9.9506  -13.4955   18.6885 O   0  0  0  0  0  0  0  0  0  0  0  0
    7.2708  -13.2260   21.9745 C   0  0  0  0  0  0  0  0  0  0  0  0
    8.0638  -14.5150   22.1711 C   0  0  1  0  0  0  0  0  0  0  0  0
    7.2229  -15.6249   22.1677 O   0  0  0  0  0  0  0  0  0  0  0  0
    9.1490  -14.6528   21.1089 C   0  0  2  0  0  0  0  0  0  0  0  0
    8.5012  -14.8196   19.8404 N   0  0  0  0  0  0  0  0  0  0  0  0
    9.9871  -15.8105   21.4877 C   0  0  0  0  0  0  0  0  0  0  0  0
    9.6428  -16.9473   21.0979 O   0  0  0  0  0  0  0  0  0  0  0  0
   11.1394  -15.6548   22.2622 N   0  0  0  0  0  0  0  0  0  0  0  0
   11.9849  -16.7395   22.7181 C   0  0  1  0  0  0  0  0  0  0  0  0
   13.4257  -16.3103   22.5709 C   0  0  0  0  0  0  0  0  0  0  0  0
   13.7341  -15.5897   21.3075 C   0  0  0  0  0  0  0  0  0  0  0  0
   15.1249  -15.1711   21.1332 C   0  0  0  0  0  0  0  0  0  0  0  0
   15.9483  -15.8557   20.4875 O   0  0  0  0  0  0  0  0  0  0  0  0
   11.7774  -16.9727   24.1948 C   0  0  0  0  0  0  0  0  0  0  0  0
   12.3069  -17.9099   24.8015 O   0  0  0  0  0  0  0  0  0  0  0  0
   15.5438  -13.9837   21.6982 O   0  0  0  0  0  0  0  0  0  0  0  0
   10.9576  -16.0945   24.8915 O   0  0  0  0  0  0  0  0  0  0  0  0
  2  1  1  1
  2  3  1  0
  4  5  1  6
  4  2  1  0
  4  6  1  0
  6  7  2  0
  9  8  1  6
  9 11  1  0
 10  9  1  0
 11 13  1  0
 12  6  1  0
 11 12  1  6
 13 15  1  0
 13 14  2  0
 15 16  1  0
 16 21  1  0
 16 17  1  1
 18 19  1  0
 18 17  1  0
 19 20  2  0
 21 22  2  0
 21 24  1  0
 23 19  1  0
M  END
$$$$
