LQQ.pdb
     RDKit          3D

 27 26  0  0  1  0  0  0  0  0999 V2000
    7.6858  -12.1492   27.2357 C   0  0  0  0  0  0  0  0  0  0  0  0
    6.8483  -12.5646   26.0739 C   0  0  1  0  0  0  0  0  0  0  0  0
    6.4339  -11.4047   25.2035 C   0  0  0  0  0  0  0  0  0  0  0  0
    7.5037  -13.6275   25.2236 C   0  0  0  0  0  0  0  0  0  0  0  0
    6.5293  -14.2076   24.2371 C   0  0  2  0  0  0  0  0  0  0  0  0
    5.2482  -14.3698   24.8776 N   0  0  0  0  0  0  0  0  0  0  0  0
    7.0170  -15.4431   23.6041 C   0  0  0  0  0  0  0  0  0  0  0  0
    6.1638  -16.1781   23.0051 O   0  0  0  0  0  0  0  0  0  0  0  0
   10.1785  -13.0162   19.6981 N   0  0  0  0  0  0  0  0  0  0  0  0
    8.8005  -13.4093   19.7158 C   0  0  0  0  0  0  0  0  0  0  0  0
    8.0583  -13.1437   18.7621 O   0  0  0  0  0  0  0  0  0  0  0  0
    8.2837  -14.1347   20.8945 C   0  0  0  0  0  0  0  0  0  0  0  0
    9.3266  -14.4056   21.9317 C   0  0  0  0  0  0  0  0  0  0  0  0
    9.2488  -15.7975   22.4403 C   0  0  2  0  0  0  0  0  0  0  0  0
    8.3399  -15.8863   23.6002 N   0  0  0  0  0  0  0  0  0  0  0  0
   10.5519  -16.4160   22.7905 C   0  0  0  0  0  0  0  0  0  0  0  0
   11.5314  -16.3952   22.0189 O   0  0  0  0  0  0  0  0  0  0  0  0
    9.5576  -14.8613   28.5616 N   0  0  0  0  0  0  0  0  0  0  0  0
   10.8437  -15.4187   28.6986 C   0  0  0  0  0  0  0  0  0  0  0  0
   11.2882  -15.6056   29.8542 O   0  0  0  0  0  0  0  0  0  0  0  0
   11.6220  -15.7617   27.5025 C   0  0  0  0  0  0  0  0  0  0  0  0
   10.8389  -16.1483   26.3045 C   0  0  0  0  0  0  0  0  0  0  0  0
   11.6265  -16.4876   25.0795 C   0  0  2  0  0  0  0  0  0  0  0  0
   10.7645  -17.0785   24.0443 N   0  0  0  0  0  0  0  0  0  0  0  0
   12.7819  -17.3675   25.3606 C   0  0  0  0  0  0  0  0  0  0  0  0
   12.8005  -18.6929   24.9573 O   0  0  0  0  0  0  0  0  0  0  0  0
   13.7992  -16.9491   25.9795 O   0  0  0  0  0  0  0  0  0  0  0  0
  2  1  1  1
  2  3  1  0
  4  2  1  0
  5  4  1  0
  5  6  1  1
  7  8  2  0
  7  5  1  0
  9 10  1  0
 10 12  1  0
 11 10  2  0
 12 13  1  0
 14 13  1  1
 14 15  1  0
 15  7  1  0
 16 17  2  0
 16 14  1  0
 18 19  1  0
 19 21  1  0
 20 19  2  0
 21 22  1  0
 23 22  1  1
 23 24  1  0
 24 16  1  0
 25 23  1  0
 26 25  1  0
 27 25  2  0
M  END
$$$$
