LQQ.pdb
     RDKit          3D

 27 26  0  0  1  0  0  0  0  0999 V2000
    6.7992  -12.5179   28.0868 C   0  0  0  0  0  0  0  0  0  0  0  0
    6.3617  -12.7668   26.6830 C   0  0  1  0  0  0  0  0  0  0  0  0
    6.2799  -11.5052   25.8606 C   0  0  0  0  0  0  0  0  0  0  0  0
    7.2209  -13.7829   25.9680 C   0  0  0  0  0  0  0  0  0  0  0  0
    7.1208  -13.6223   24.4770 C   0  0  2  0  0  0  0  0  0  0  0  0
    5.7864  -13.9650   24.0531 N   0  0  0  0  0  0  0  0  0  0  0  0
    8.1640  -14.3593   23.7467 C   0  0  0  0  0  0  0  0  0  0  0  0
    9.3372  -14.3765   24.2470 O   0  0  0  0  0  0  0  0  0  0  0  0
    9.3701  -13.2286   18.1374 N   0  0  0  0  0  0  0  0  0  0  0  0
    8.2044  -14.0438   18.3118 C   0  0  0  0  0  0  0  0  0  0  0  0
    7.3074  -14.0492   17.4596 O   0  0  0  0  0  0  0  0  0  0  0  0
    8.0939  -14.8745   19.5285 C   0  0  0  0  0  0  0  0  0  0  0  0
    9.2320  -14.6902   20.4811 C   0  0  0  0  0  0  0  0  0  0  0  0
    9.0812  -15.5379   21.6898 C   0  0  2  0  0  0  0  0  0  0  0  0
    7.9836  -15.0467   22.5461 N   0  0  0  0  0  0  0  0  0  0  0  0
   10.3091  -15.6945   22.5089 C   0  0  0  0  0  0  0  0  0  0  0  0
   11.0636  -14.7376   22.7736 O   0  0  0  0  0  0  0  0  0  0  0  0
   11.4460  -19.5410   27.3242 N   0  0  0  0  0  0  0  0  0  0  0  0
   10.5057  -18.5274   27.0558 C   0  0  0  0  0  0  0  0  0  0  0  0
    9.5120  -18.4264   27.8108 O   0  0  0  0  0  0  0  0  0  0  0  0
   10.7085  -17.6271   25.9145 C   0  0  0  0  0  0  0  0  0  0  0  0
   11.7946  -17.9988   24.9765 C   0  0  0  0  0  0  0  0  0  0  0  0
   11.9697  -17.1157   23.7826 C   0  0  2  0  0  0  0  0  0  0  0  0
   10.7043  -16.9631   23.0484 N   0  0  0  0  0  0  0  0  0  0  0  0
   13.0459  -17.5744   22.8772 C   0  0  0  0  0  0  0  0  0  0  0  0
   14.3735  -17.5845   23.2737 O   0  0  0  0  0  0  0  0  0  0  0  0
   12.8012  -17.9757   21.7059 O   0  0  0  0  0  0  0  0  0  0  0  0
  2  1  1  1
  2  3  1  0
  4  2  1  0
  5  4  1  0
  5  6  1  6
  7  8  2  0
  7  5  1  0
  9 10  1  0
 10 12  1  0
 11 10  2  0
 12 13  1  0
 14 13  1  6
 14 15  1  0
 15  7  1  0
 16 17  2  0
 16 14  1  0
 18 19  1  0
 19 21  1  0
 20 19  2  0
 21 22  1  0
 23 22  1  1
 23 24  1  0
 24 16  1  0
 25 23  1  0
 26 25  1  0
 27 25  2  0
M  END
$$$$
