LQQ.pdb
     RDKit          3D

 27 26  0  0  1  0  0  0  0  0999 V2000
    7.8131  -11.6311   20.3352 C   0  0  0  0  0  0  0  0  0  0  0  0
    7.7830  -13.0683   19.9386 C   0  0  1  0  0  0  0  0  0  0  0  0
    8.5480  -13.3434   18.6682 C   0  0  0  0  0  0  0  0  0  0  0  0
    8.2661  -13.9927   21.0313 C   0  0  0  0  0  0  0  0  0  0  0  0
    8.0954  -15.4327   20.6361 C   0  0  2  0  0  0  0  0  0  0  0  0
    6.7045  -15.6836   20.3530 N   0  0  0  0  0  0  0  0  0  0  0  0
    8.6613  -16.3708   21.6182 C   0  0  0  0  0  0  0  0  0  0  0  0
    7.8847  -16.8175   22.5261 O   0  0  0  0  0  0  0  0  0  0  0  0
   12.8854  -20.9982   21.7332 N   0  0  0  0  0  0  0  0  0  0  0  0
   11.8295  -20.6833   20.8169 C   0  0  0  0  0  0  0  0  0  0  0  0
   11.5027  -21.4859   19.9337 O   0  0  0  0  0  0  0  0  0  0  0  0
   11.1413  -19.3823   20.9458 C   0  0  0  0  0  0  0  0  0  0  0  0
   11.6202  -18.5674   22.1049 C   0  0  0  0  0  0  0  0  0  0  0  0
   10.5373  -17.7252   22.6707 C   0  0  2  0  0  0  0  0  0  0  0  0
    9.9822  -16.8193   21.6457 N   0  0  0  0  0  0  0  0  0  0  0  0
   10.9121  -16.9362   23.8708 C   0  0  0  0  0  0  0  0  0  0  0  0
   11.4266  -15.8030   23.7928 O   0  0  0  0  0  0  0  0  0  0  0  0
    7.7131  -13.3120   26.4895 N   0  0  0  0  0  0  0  0  0  0  0  0
    8.5406  -13.8541   27.4918 C   0  0  0  0  0  0  0  0  0  0  0  0
    8.7710  -13.1608   28.5087 O   0  0  0  0  0  0  0  0  0  0  0  0
    9.1058  -15.1982   27.3241 C   0  0  0  0  0  0  0  0  0  0  0  0
   10.2024  -15.3250   26.3346 C   0  0  0  0  0  0  0  0  0  0  0  0
   10.9885  -16.5963   26.3764 C   0  0  2  0  0  0  0  0  0  0  0  0
   10.7039  -17.4323   25.2000 N   0  0  0  0  0  0  0  0  0  0  0  0
   10.7807  -17.3635   27.6240 C   0  0  0  0  0  0  0  0  0  0  0  0
   11.3529  -16.9694   28.8228 O   0  0  0  0  0  0  0  0  0  0  0  0
   10.0744  -18.4091   27.6498 O   0  0  0  0  0  0  0  0  0  0  0  0
  2  1  1  1
  2  3  1  0
  4  2  1  0
  5  4  1  0
  5  6  1  1
  7  8  2  0
  7  5  1  0
  9 10  1  0
 10 12  1  0
 11 10  2  0
 12 13  1  0
 14 13  1  6
 14 15  1  0
 15  7  1  0
 16 17  2  0
 16 14  1  0
 18 19  1  0
 19 21  1  0
 20 19  2  0
 21 22  1  0
 23 22  1  1
 23 24  1  0
 24 16  1  0
 25 23  1  0
 26 25  1  0
 27 25  2  0
M  END
$$$$
