LQQ.pdb
     RDKit          3D

 27 26  0  0  1  0  0  0  0  0999 V2000
    7.0608  -12.0688   27.5769 C   0  0  0  0  0  0  0  0  0  0  0  0
    6.6783  -12.7545   26.3090 C   0  0  1  0  0  0  0  0  0  0  0  0
    6.7736  -11.8547   25.1024 C   0  0  0  0  0  0  0  0  0  0  0  0
    7.4657  -14.0197   26.0612 C   0  0  0  0  0  0  0  0  0  0  0  0
    6.9494  -14.7499   24.8532 C   0  0  2  0  0  0  0  0  0  0  0  0
    5.6429  -15.2837   25.1460 N   0  0  0  0  0  0  0  0  0  0  0  0
    7.8869  -15.7662   24.3498 C   0  0  0  0  0  0  0  0  0  0  0  0
    7.8161  -16.9370   24.8509 O   0  0  0  0  0  0  0  0  0  0  0  0
   10.8554  -19.6454   21.0194 N   0  0  0  0  0  0  0  0  0  0  0  0
   10.9572  -18.3574   20.3994 C   0  0  0  0  0  0  0  0  0  0  0  0
   10.6310  -18.2012   19.2161 O   0  0  0  0  0  0  0  0  0  0  0  0
   11.4611  -17.2218   21.1991 C   0  0  0  0  0  0  0  0  0  0  0  0
   10.3919  -16.2577   21.6042 C   0  0  0  0  0  0  0  0  0  0  0  0
    9.8515  -16.5688   22.9508 C   0  0  2  0  0  0  0  0  0  0  0  0
    8.8543  -15.5622   23.3654 N   0  0  0  0  0  0  0  0  0  0  0  0
   10.8693  -16.7199   24.0206 C   0  0  0  0  0  0  0  0  0  0  0  0
   11.5770  -15.7700   24.4100 O   0  0  0  0  0  0  0  0  0  0  0  0
   12.0830  -19.2127   30.5158 N   0  0  0  0  0  0  0  0  0  0  0  0
   11.9267  -19.7433   29.2206 C   0  0  0  0  0  0  0  0  0  0  0  0
   11.3158  -20.8291   29.0951 O   0  0  0  0  0  0  0  0  0  0  0  0
   12.4753  -19.0230   28.0655 C   0  0  0  0  0  0  0  0  0  0  0  0
   11.5542  -18.8313   26.9199 C   0  0  0  0  0  0  0  0  0  0  0  0
   12.1096  -18.1022   25.7383 C   0  0  2  0  0  0  0  0  0  0  0  0
   11.1015  -17.9748   24.6747 N   0  0  0  0  0  0  0  0  0  0  0  0
   13.3488  -18.7146   25.2115 C   0  0  0  0  0  0  0  0  0  0  0  0
   14.6016  -18.2668   25.5988 O   0  0  0  0  0  0  0  0  0  0  0  0
   13.3183  -19.6700   24.3874 O   0  0  0  0  0  0  0  0  0  0  0  0
  2  1  1  1
  2  3  1  0
  4  2  1  0
  5  4  1  0
  5  6  1  1
  7  8  2  0
  7  5  1  0
  9 10  1  0
 10 12  1  0
 11 10  2  0
 12 13  1  0
 14 13  1  6
 14 15  1  0
 15  7  1  0
 16 17  2  0
 16 14  1  0
 18 19  1  0
 19 21  1  0
 20 19  2  0
 21 22  1  0
 23 22  1  1
 23 24  1  0
 24 16  1  0
 25 23  1  0
 26 25  1  0
 27 25  2  0
M  END
$$$$
