LQQ.pdb
     RDKit          3D

 27 26  0  0  1  0  0  0  0  0999 V2000
    6.1099  -23.3247   21.8115 C   0  0  0  0  0  0  0  0  0  0  0  0
    6.4750  -23.1086   20.3819 C   0  0  1  0  0  0  0  0  0  0  0  0
    5.5107  -22.2011   19.6599 C   0  0  0  0  0  0  0  0  0  0  0  0
    7.8845  -22.5950   20.2035 C   0  0  0  0  0  0  0  0  0  0  0  0
    8.1764  -22.3083   18.7573 C   0  0  2  0  0  0  0  0  0  0  0  0
    8.1633  -23.5456   18.0180 N   0  0  0  0  0  0  0  0  0  0  0  0
    9.4120  -21.5337   18.5614 C   0  0  0  0  0  0  0  0  0  0  0  0
   10.5225  -22.1476   18.6907 O   0  0  0  0  0  0  0  0  0  0  0  0
   10.6024  -18.0053   14.3826 N   0  0  0  0  0  0  0  0  0  0  0  0
   11.8028  -17.6504   15.0803 C   0  0  0  0  0  0  0  0  0  0  0  0
   12.7645  -17.1653   14.4713 O   0  0  0  0  0  0  0  0  0  0  0  0
   11.8703  -17.8771   16.5387 C   0  0  0  0  0  0  0  0  0  0  0  0
   10.5649  -18.2939   17.1378 C   0  0  0  0  0  0  0  0  0  0  0  0
   10.7324  -19.4113   18.0998 C   0  0  2  0  0  0  0  0  0  0  0  0
    9.4783  -20.1766   18.2443 N   0  0  0  0  0  0  0  0  0  0  0  0
   11.2249  -19.0193   19.4441 C   0  0  0  0  0  0  0  0  0  0  0  0
   10.4611  -18.8634   20.4174 O   0  0  0  0  0  0  0  0  0  0  0  0
   13.0615  -21.4727   24.2899 N   0  0  0  0  0  0  0  0  0  0  0  0
   12.8528  -21.8279   22.9432 C   0  0  0  0  0  0  0  0  0  0  0  0
   12.3947  -22.9665   22.6952 O   0  0  0  0  0  0  0  0  0  0  0  0
   13.1724  -20.8706   21.8776 C   0  0  0  0  0  0  0  0  0  0  0  0
   12.6287  -19.5018   22.0470 C   0  0  0  0  0  0  0  0  0  0  0  0
   13.0934  -18.4779   21.0612 C   0  0  2  0  0  0  0  0  0  0  0  0
   12.6168  -18.7948   19.7062 N   0  0  0  0  0  0  0  0  0  0  0  0
   14.5612  -18.2936   21.0678 C   0  0  0  0  0  0  0  0  0  0  0  0
   15.2266  -17.8042   22.1803 O   0  0  0  0  0  0  0  0  0  0  0  0
   15.2695  -18.5737   20.0615 O   0  0  0  0  0  0  0  0  0  0  0  0
  2  1  1  1
  2  3  1  0
  4  2  1  0
  5  4  1  0
  5  6  1  6
  7  8  2  0
  7  5  1  0
  9 10  1  0
 10 12  1  0
 11 10  2  0
 12 13  1  0
 14 13  1  6
 14 15  1  0
 15  7  1  0
 16 17  2  0
 16 14  1  0
 18 19  1  0
 19 21  1  0
 20 19  2  0
 21 22  1  0
 23 22  1  1
 23 24  1  0
 24 16  1  0
 25 23  1  0
 26 25  1  0
 27 25  2  0
M  END
$$$$
