LQQ.pdb
     RDKit          3D

 27 26  0  0  1  0  0  0  0  0999 V2000
    6.9778  -11.3926   26.9263 C   0  0  0  0  0  0  0  0  0  0  0  0
    6.4031  -12.4806   26.0838 C   0  0  1  0  0  0  0  0  0  0  0  0
    5.7852  -11.9702   24.8061 C   0  0  0  0  0  0  0  0  0  0  0  0
    7.4002  -13.5697   25.7648 C   0  0  0  0  0  0  0  0  0  0  0  0
    6.7404  -14.7134   25.0468 C   0  0  2  0  0  0  0  0  0  0  0  0
    5.6967  -15.2556   25.8800 N   0  0  0  0  0  0  0  0  0  0  0  0
    7.6963  -15.7323   24.5852 C   0  0  0  0  0  0  0  0  0  0  0  0
    7.8668  -16.7606   25.3205 O   0  0  0  0  0  0  0  0  0  0  0  0
    9.9919  -16.8213   18.7657 N   0  0  0  0  0  0  0  0  0  0  0  0
   10.6808  -17.7908   19.5653 C   0  0  0  0  0  0  0  0  0  0  0  0
   11.3891  -18.6553   19.0344 O   0  0  0  0  0  0  0  0  0  0  0  0
   10.5268  -17.7393   21.0338 C   0  0  0  0  0  0  0  0  0  0  0  0
    9.5601  -16.6955   21.4951 C   0  0  0  0  0  0  0  0  0  0  0  0
    9.4008  -16.7061   22.9705 C   0  0  2  0  0  0  0  0  0  0  0  0
    8.4390  -15.6741   23.4056 N   0  0  0  0  0  0  0  0  0  0  0  0
   10.6598  -16.5594   23.7429 C   0  0  0  0  0  0  0  0  0  0  0  0
   11.1177  -15.4470   24.0713 O   0  0  0  0  0  0  0  0  0  0  0  0
    9.7940  -15.8486   28.5888 N   0  0  0  0  0  0  0  0  0  0  0  0
   10.9558  -16.6070   28.8302 C   0  0  0  0  0  0  0  0  0  0  0  0
   11.6878  -16.2794   29.7919 O   0  0  0  0  0  0  0  0  0  0  0  0
   11.2776  -17.7460   27.9624 C   0  0  0  0  0  0  0  0  0  0  0  0
   10.8770  -17.6157   26.5410 C   0  0  0  0  0  0  0  0  0  0  0  0
   11.9632  -17.7898   25.5281 C   0  0  2  0  0  0  0  0  0  0  0  0
   11.4301  -17.6946   24.1604 N   0  0  0  0  0  0  0  0  0  0  0  0
   12.7227  -19.0468   25.7055 C   0  0  0  0  0  0  0  0  0  0  0  0
   12.6241  -20.0890   24.7978 O   0  0  0  0  0  0  0  0  0  0  0  0
   13.4920  -19.2237   26.6902 O   0  0  0  0  0  0  0  0  0  0  0  0
  2  1  1  6
  2  3  1  0
  4  2  1  0
  5  4  1  0
  5  6  1  1
  7  8  2  0
  7  5  1  0
  9 10  1  0
 10 12  1  0
 11 10  2  0
 12 13  1  0
 14 13  1  6
 14 15  1  0
 15  7  1  0
 16 17  2  0
 16 14  1  0
 18 19  1  0
 19 21  1  0
 20 19  2  0
 21 22  1  0
 23 22  1  1
 23 24  1  0
 24 16  1  0
 25 23  1  0
 26 25  1  0
 27 25  2  0
M  END
$$$$
