FRL.pdb
     RDKit          3D

 31 31  0  0  1  0  0  0  0  0999 V2000
   19.3638   -8.1336  -15.0522 N   0  0  0  0  0  0  0  0  0  0  0  0
   20.5626   -8.1124  -15.8568 C   0  0  1  0  0  0  0  0  0  0  0  0
   21.7542   -8.2327  -14.9232 C   0  0  0  0  0  0  0  0  0  0  0  0
   22.0202   -6.9783  -14.1811 C   0  0  0  0  0  0  0  0  0  0  0  0
   22.6174   -5.9232  -14.8785 C   0  0  0  0  0  0  0  0  0  0  0  0
   22.8650   -4.7667  -14.2125 C   0  0  0  0  0  0  0  0  0  0  0  0
   22.5300   -4.6521  -12.8836 C   0  0  0  0  0  0  0  0  0  0  0  0
   21.9393   -5.6934  -12.1914 C   0  0  0  0  0  0  0  0  0  0  0  0
   21.6754   -6.8935  -12.8583 C   0  0  0  0  0  0  0  0  0  0  0  0
   20.6487   -9.2506  -16.7961 C   0  0  0  0  0  0  0  0  0  0  0  0
   19.9629  -10.2691  -16.4970 O   0  0  0  0  0  0  0  0  0  0  0  0
   20.7012  -13.0055  -24.0046 N   0  0  0  0  0  0  0  0  0  0  0  0
   19.5093  -12.4835  -23.4376 C   0  0  0  0  0  0  0  0  0  0  0  0
   18.3829  -12.9725  -23.8138 N   0  0  0  0  0  0  0  0  0  0  0  0
   19.5939  -11.4488  -22.4851 N   0  0  0  0  0  0  0  0  0  0  0  0
   20.8088  -10.7129  -22.2589 C   0  0  0  0  0  0  0  0  0  0  0  0
   20.5987   -9.5731  -21.2699 C   0  0  0  0  0  0  0  0  0  0  0  0
   21.7089   -9.5675  -20.2675 C   0  0  0  0  0  0  0  0  0  0  0  0
   21.3744  -10.2630  -18.9497 C   0  0  2  0  0  0  0  0  0  0  0  0
   21.4562   -9.1769  -17.9520 N   0  0  0  0  0  0  0  0  0  0  0  0
   22.4120  -11.2560  -18.6126 C   0  0  0  0  0  0  0  0  0  0  0  0
   23.5854  -10.8227  -18.3776 O   0  0  0  0  0  0  0  0  0  0  0  0
   17.5040  -12.6068  -23.4057 C   0  0  0  0  0  0  0  0  0  0  0  0
   21.8611  -14.4867  -14.6840 C   0  0  1  0  0  0  0  0  0  0  0  0
   22.6456  -13.6860  -15.6737 C   0  0  0  0  0  0  0  0  0  0  0  0
   23.9418  -13.1782  -15.0430 C   0  0  0  0  0  0  0  0  0  0  0  0
   22.9277  -14.3956  -16.9633 C   0  0  2  0  0  0  0  0  0  0  0  0
   23.3076  -13.5234  -18.1155 N   0  0  0  0  0  0  0  0  0  0  0  0
   22.2337  -12.6405  -18.5229 C   0  0  0  0  0  0  0  0  0  0  0  0
   23.8805  -14.2731  -19.2529 O   0  0  0  0  0  0  0  0  0  0  0  0
   23.3144  -14.2855  -20.3655 O   0  0  0  0  0  0  0  0  0  0  0  0
  2  1  1  1
  3  4  1  0
  3  2  1  0
  4  9  2  0
  5  6  2  0
  5  4  1  0
  6  7  1  0
  7  8  2  0
  9  8  1  0
 10  2  1  0
 10 20  1  0
 11 10  2  0
 13 15  1  0
 13 12  1  0
 14 13  2  0
 16 15  1  0
 16 17  1  0
 18 17  1  0
 19 18  1  6
 20 19  1  0
 21 19  1  0
 21 22  2  0
 24 23  1  1
 24 25  1  0
 26 24  1  0
 27 28  1  0
 27 26  1  1
 28 21  1  0
 29 27  1  0
 30 29  2  0
 31 29  1  0
M  END
$$$$
