FRL.pdb
     RDKit          3D

 31 31  0  0  1  0  0  0  0  0999 V2000
   23.0713  -19.5316  -18.6791 N   0  0  0  0  0  0  0  0  0  0  0  0
   23.6811  -18.7667  -17.6170 C   0  0  1  0  0  0  0  0  0  0  0  0
   22.5697  -18.2096  -16.7449 C   0  0  0  0  0  0  0  0  0  0  0  0
   21.7971  -17.1442  -17.4252 C   0  0  0  0  0  0  0  0  0  0  0  0
   22.5117  -16.1726  -18.1335 C   0  0  0  0  0  0  0  0  0  0  0  0
   21.8173  -15.1916  -18.7641 C   0  0  0  0  0  0  0  0  0  0  0  0
   20.4438  -15.1685  -18.6980 C   0  0  0  0  0  0  0  0  0  0  0  0
   19.7345  -16.1277  -17.9986 C   0  0  0  0  0  0  0  0  0  0  0  0
   20.4300  -17.1472  -17.3418 C   0  0  0  0  0  0  0  0  0  0  0  0
   24.5378  -19.5852  -16.7332 C   0  0  0  0  0  0  0  0  0  0  0  0
   24.1361  -20.7619  -16.5066 O   0  0  0  0  0  0  0  0  0  0  0  0
   30.4014  -23.9282  -16.2485 N   0  0  0  0  0  0  0  0  0  0  0  0
   30.2990  -23.2561  -17.4944 C   0  0  0  0  0  0  0  0  0  0  0  0
   30.6562  -23.8770  -18.5603 N   0  0  0  0  0  0  0  0  0  0  0  0
   29.8130  -21.9341  -17.5273 N   0  0  0  0  0  0  0  0  0  0  0  0
   29.1103  -21.3481  -16.4175 C   0  0  0  0  0  0  0  0  0  0  0  0
   28.7456  -19.8939  -16.6887 C   0  0  0  0  0  0  0  0  0  0  0  0
   27.9791  -19.3438  -15.5279 C   0  0  0  0  0  0  0  0  0  0  0  0
   26.5809  -19.9336  -15.3570 C   0  0  2  0  0  0  0  0  0  0  0  0
   25.7298  -19.0590  -16.1891 N   0  0  0  0  0  0  0  0  0  0  0  0
   26.1297  -19.7944  -13.9593 C   0  0  0  0  0  0  0  0  0  0  0  0
   25.8150  -18.6286  -13.5571 O   0  0  0  0  0  0  0  0  0  0  0  0
   30.6910  -23.3685  -19.4619 C   0  0  0  0  0  0  0  0  0  0  0  0
   21.7813  -19.9073  -10.6399 C   0  0  2  0  0  0  0  0  0  0  0  0
   23.2703  -19.9691  -10.5173 C   0  0  0  0  0  0  0  0  0  0  0  0
   23.6806  -21.0652   -9.5344 C   0  0  0  0  0  0  0  0  0  0  0  0
   23.9952  -20.1281  -11.8194 C   0  0  1  0  0  0  0  0  0  0  0  0
   25.4060  -20.6108  -11.7233 N   0  0  0  0  0  0  0  0  0  0  0  0
   26.0103  -20.8260  -13.0222 C   0  0  0  0  0  0  0  0  0  0  0  0
   25.5658  -21.7765  -10.8292 O   0  0  0  0  0  0  0  0  0  0  0  0
   25.4392  -22.9408  -11.2616 O   0  0  0  0  0  0  0  0  0  0  0  0
  2  1  1  6
  3  4  1  0
  3  2  1  0
  4  9  2  0
  5  6  2  0
  5  4  1  0
  6  7  1  0
  7  8  2  0
  9  8  1  0
 10  2  1  0
 10 20  1  0
 11 10  2  0
 13 15  1  0
 13 12  1  0
 14 13  2  0
 16 15  1  0
 16 17  1  0
 18 17  1  0
 19 18  1  1
 20 19  1  0
 21 19  1  0
 21 22  2  0
 24 23  1  1
 24 25  1  0
 26 24  1  0
 27 28  1  0
 27 26  1  6
 28 21  1  0
 29 27  1  0
 30 29  2  0
 31 29  1  0
M  END
$$$$
