FRL.pdb
     RDKit          3D

 31 31  0  0  1  0  0  0  0  0999 V2000
   28.4834  -19.9940  -12.9419 N   0  0  0  0  0  0  0  0  0  0  0  0
   27.5967  -21.1212  -12.7749 C   0  0  1  0  0  0  0  0  0  0  0  0
   27.3433  -21.3000  -11.2882 C   0  0  0  0  0  0  0  0  0  0  0  0
   28.5933  -21.5180  -10.5236 C   0  0  0  0  0  0  0  0  0  0  0  0
   28.7147  -20.8883   -9.2806 C   0  0  0  0  0  0  0  0  0  0  0  0
   29.8532  -21.0807   -8.5673 C   0  0  0  0  0  0  0  0  0  0  0  0
   30.8539  -21.8793   -9.0697 C   0  0  0  0  0  0  0  0  0  0  0  0
   30.7369  -22.5032  -10.2983 C   0  0  0  0  0  0  0  0  0  0  0  0
   29.5723  -22.3186  -11.0494 C   0  0  0  0  0  0  0  0  0  0  0  0
   26.2751  -20.9157  -13.4043 C   0  0  0  0  0  0  0  0  0  0  0  0
   25.8269  -19.7343  -13.3789 O   0  0  0  0  0  0  0  0  0  0  0  0
   26.9687  -20.3484  -19.0521 N   0  0  0  0  0  0  0  0  0  0  0  0
   25.8503  -20.6187  -19.8833 C   0  0  0  0  0  0  0  0  0  0  0  0
   25.6326  -19.8530  -20.8911 N   0  0  0  0  0  0  0  0  0  0  0  0
   25.0141  -21.7115  -19.5809 N   0  0  0  0  0  0  0  0  0  0  0  0
   25.1845  -22.5005  -18.3904 C   0  0  0  0  0  0  0  0  0  0  0  0
   25.0679  -21.6500  -17.1317 C   0  0  0  0  0  0  0  0  0  0  0  0
   24.4756  -22.4666  -16.0273 C   0  0  0  0  0  0  0  0  0  0  0  0
   24.3128  -21.7192  -14.7056 C   0  0  2  0  0  0  0  0  0  0  0  0
   25.5772  -21.9929  -13.9927 N   0  0  0  0  0  0  0  0  0  0  0  0
   23.2178  -22.3079  -13.9115 C   0  0  0  0  0  0  0  0  0  0  0  0
   23.5379  -23.0748  -12.9475 O   0  0  0  0  0  0  0  0  0  0  0  0
   24.8201  -20.0356  -21.5068 C   0  0  0  0  0  0  0  0  0  0  0  0
   21.2712  -20.0579  -10.0679 C   0  0  2  0  0  0  0  0  0  0  0  0
   20.7608  -19.6483  -11.4125 C   0  0  0  0  0  0  0  0  0  0  0  0
   20.7061  -18.1249  -11.5221 C   0  0  0  0  0  0  0  0  0  0  0  0
   21.5134  -20.2349  -12.5682 C   0  0  1  0  0  0  0  0  0  0  0  0
   21.0010  -21.5411  -13.0818 N   0  0  0  0  0  0  0  0  0  0  0  0
   21.8485  -22.1047  -14.1127 C   0  0  0  0  0  0  0  0  0  0  0  0
   19.5803  -21.4941  -13.4859 O   0  0  0  0  0  0  0  0  0  0  0  0
   19.2499  -21.1306  -14.6336 O   0  0  0  0  0  0  0  0  0  0  0  0
  2  1  1  1
  3  4  1  0
  3  2  1  0
  4  9  2  0
  5  6  2  0
  5  4  1  0
  6  7  1  0
  7  8  2  0
  9  8  1  0
 10  2  1  0
 10 20  1  0
 11 10  2  0
 13 15  1  0
 13 12  1  0
 14 13  2  0
 16 15  1  0
 16 17  1  0
 18 17  1  0
 19 18  1  6
 20 19  1  0
 21 19  1  0
 21 22  2  0
 24 23  1  1
 24 25  1  0
 26 24  1  0
 27 28  1  0
 27 26  1  1
 28 21  1  0
 29 27  1  0
 30 29  2  0
 31 29  1  0
M  END
$$$$
