FRL.pdb
     RDKit          3D

 31 31  0  0  1  0  0  0  0  0999 V2000
   28.1208  -20.9672  -10.6498 N   0  0  0  0  0  0  0  0  0  0  0  0
   26.7000  -20.9167  -10.3978 C   0  0  1  0  0  0  0  0  0  0  0  0
   26.4110  -19.6558   -9.6023 C   0  0  0  0  0  0  0  0  0  0  0  0
   26.9285  -19.7306   -8.2161 C   0  0  0  0  0  0  0  0  0  0  0  0
   26.1711  -20.4361   -7.2754 C   0  0  0  0  0  0  0  0  0  0  0  0
   26.6337  -20.5154   -6.0018 C   0  0  0  0  0  0  0  0  0  0  0  0
   27.8211  -19.9105   -5.6616 C   0  0  0  0  0  0  0  0  0  0  0  0
   28.5721  -19.2124   -6.5894 C   0  0  0  0  0  0  0  0  0  0  0  0
   28.1141  -19.1184   -7.9069 C   0  0  0  0  0  0  0  0  0  0  0  0
   25.8961  -20.8259  -11.6350 C   0  0  0  0  0  0  0  0  0  0  0  0
   26.2823  -19.9747  -12.4856 O   0  0  0  0  0  0  0  0  0  0  0  0
   26.7518  -25.3259  -15.4875 N   0  0  0  0  0  0  0  0  0  0  0  0
   26.0293  -25.3101  -16.7091 C   0  0  0  0  0  0  0  0  0  0  0  0
   26.6394  -25.6404  -17.7898 N   0  0  0  0  0  0  0  0  0  0  0  0
   24.6717  -24.9332  -16.7029 N   0  0  0  0  0  0  0  0  0  0  0  0
   23.9639  -24.6380  -15.4860 C   0  0  0  0  0  0  0  0  0  0  0  0
   24.0872  -23.1672  -15.1077 C   0  0  0  0  0  0  0  0  0  0  0  0
   24.0717  -23.0293  -13.6183 C   0  0  0  0  0  0  0  0  0  0  0  0
   24.0485  -21.5870  -13.1171 C   0  0  2  0  0  0  0  0  0  0  0  0
   24.7691  -21.6540  -11.8295 N   0  0  0  0  0  0  0  0  0  0  0  0
   22.6649  -21.1624  -12.8312 C   0  0  0  0  0  0  0  0  0  0  0  0
   22.1567  -21.5249  -11.7220 O   0  0  0  0  0  0  0  0  0  0  0  0
   26.1352  -25.6052  -18.6938 C   0  0  0  0  0  0  0  0  0  0  0  0
   20.1455  -16.2677  -14.0914 C   0  0  1  0  0  0  0  0  0  0  0  0
   20.5690  -17.5059  -13.3678 C   0  0  0  0  0  0  0  0  0  0  0  0
   20.2288  -17.3993  -11.8817 C   0  0  0  0  0  0  0  0  0  0  0  0
   20.0270  -18.7788  -13.9443 C   0  0  2  0  0  0  0  0  0  0  0  0
   20.4931  -20.0388  -13.2902 N   0  0  0  0  0  0  0  0  0  0  0  0
   21.8471  -20.3923  -13.6647 C   0  0  0  0  0  0  0  0  0  0  0  0
   19.5520  -21.1663  -13.4552 O   0  0  0  0  0  0  0  0  0  0  0  0
   19.7924  -22.0924  -14.2572 O   0  0  0  0  0  0  0  0  0  0  0  0
  2  1  1  6
  3  4  1  0
  3  2  1  0
  4  9  2  0
  5  6  2  0
  5  4  1  0
  6  7  1  0
  7  8  2  0
  9  8  1  0
 10  2  1  0
 10 20  1  0
 11 10  2  0
 13 15  1  0
 13 12  1  0
 14 13  2  0
 16 15  1  0
 16 17  1  0
 18 17  1  0
 19 18  1  1
 20 19  1  0
 21 19  1  0
 21 22  2  0
 24 23  1  1
 24 25  1  0
 26 24  1  0
 27 28  1  0
 27 26  1  1
 28 21  1  0
 29 27  1  0
 30 29  2  0
 31 29  1  0
M  END
$$$$
