FRL.pdb
     RDKit          3D

 31 31  0  0  1  0  0  0  0  0999 V2000
   28.8407  -21.0531   -9.2345 N   0  0  0  0  0  0  0  0  0  0  0  0
   27.4068  -20.9236   -9.1252 C   0  0  1  0  0  0  0  0  0  0  0  0
   27.1098  -19.6404   -8.3693 C   0  0  0  0  0  0  0  0  0  0  0  0
   27.6239  -19.6704   -6.9802 C   0  0  0  0  0  0  0  0  0  0  0  0
   26.9193  -20.4309   -6.0413 C   0  0  0  0  0  0  0  0  0  0  0  0
   27.3796  -20.4700   -4.7651 C   0  0  0  0  0  0  0  0  0  0  0  0
   28.5137  -19.7725   -4.4204 C   0  0  0  0  0  0  0  0  0  0  0  0
   29.2125  -19.0198   -5.3464 C   0  0  0  0  0  0  0  0  0  0  0  0
   28.7558  -18.9658   -6.6666 C   0  0  0  0  0  0  0  0  0  0  0  0
   26.7353  -20.8032  -10.4366 C   0  0  0  0  0  0  0  0  0  0  0  0
   27.2303  -19.9599  -11.2373 O   0  0  0  0  0  0  0  0  0  0  0  0
   23.1984  -26.3603  -15.1429 N   0  0  0  0  0  0  0  0  0  0  0  0
   23.5208  -25.3513  -16.0878 C   0  0  0  0  0  0  0  0  0  0  0  0
   22.7913  -25.2358  -17.1384 N   0  0  0  0  0  0  0  0  0  0  0  0
   24.6260  -24.5108  -15.8494 N   0  0  0  0  0  0  0  0  0  0  0  0
   25.1636  -24.3069  -14.5310 C   0  0  0  0  0  0  0  0  0  0  0  0
   24.2156  -23.4947  -13.6576 C   0  0  0  0  0  0  0  0  0  0  0  0
   24.8863  -23.1635  -12.3623 C   0  0  0  0  0  0  0  0  0  0  0  0
   25.1630  -21.6759  -12.1559 C   0  0  2  0  0  0  0  0  0  0  0  0
   25.6102  -21.5965  -10.7504 N   0  0  0  0  0  0  0  0  0  0  0  0
   23.9147  -20.8982  -12.2703 C   0  0  0  0  0  0  0  0  0  0  0  0
   23.1965  -20.7833  -11.2258 O   0  0  0  0  0  0  0  0  0  0  0  0
   22.9629  -24.4556  -17.7977 C   0  0  0  0  0  0  0  0  0  0  0  0
   21.2633  -16.0860  -14.9923 C   0  0  2  0  0  0  0  0  0  0  0  0
   21.0880  -17.3925  -14.2862 C   0  0  0  0  0  0  0  0  0  0  0  0
   19.9523  -18.1947  -14.9207 C   0  0  0  0  0  0  0  0  0  0  0  0
   22.3333  -18.2212  -14.1938 C   0  0  1  0  0  0  0  0  0  0  0  0
   22.2125  -19.4917  -13.4167 N   0  0  0  0  0  0  0  0  0  0  0  0
   23.4365  -20.2664  -13.4231 C   0  0  0  0  0  0  0  0  0  0  0  0
   21.0344  -20.2994  -13.7957 O   0  0  0  0  0  0  0  0  0  0  0  0
   21.0649  -21.0542  -14.7895 O   0  0  0  0  0  0  0  0  0  0  0  0
  2  1  1  6
  3  4  1  0
  3  2  1  0
  4  9  2  0
  5  6  2  0
  5  4  1  0
  6  7  1  0
  7  8  2  0
  9  8  1  0
 10  2  1  0
 10 20  1  0
 11 10  2  0
 13 15  1  0
 13 12  1  0
 14 13  2  0
 16 15  1  0
 16 17  1  0
 18 17  1  0
 19 18  1  1
 20 19  1  0
 21 19  1  0
 21 22  2  0
 24 23  1  1
 24 25  1  0
 26 24  1  0
 27 28  1  0
 27 26  1  1
 28 21  1  0
 29 27  1  0
 30 29  2  0
 31 29  1  0
M  END
$$$$
