FRL.pdb
     RDKit          3D

 31 31  0  0  1  0  0  0  0  0999 V2000
   26.2403  -15.8503  -19.4051 N   0  0  0  0  0  0  0  0  0  0  0  0
   26.2208  -16.4829  -18.1073 C   0  0  1  0  0  0  0  0  0  0  0  0
   26.0031  -15.4014  -17.0636 C   0  0  0  0  0  0  0  0  0  0  0  0
   27.0881  -14.3926  -17.0596 C   0  0  0  0  0  0  0  0  0  0  0  0
   26.7223  -13.0426  -17.0681 C   0  0  0  0  0  0  0  0  0  0  0  0
   27.7054  -12.1068  -17.0621 C   0  0  0  0  0  0  0  0  0  0  0  0
   29.0249  -12.4943  -17.0478 C   0  0  0  0  0  0  0  0  0  0  0  0
   29.3897  -13.8282  -17.0393 C   0  0  0  0  0  0  0  0  0  0  0  0
   28.3930  -14.8085  -17.0453 C   0  0  0  0  0  0  0  0  0  0  0  0
   25.1112  -17.4469  -17.9504 C   0  0  0  0  0  0  0  0  0  0  0  0
   24.0691  -17.2069  -18.6240 O   0  0  0  0  0  0  0  0  0  0  0  0
   27.7143  -25.0242  -16.6022 N   0  0  0  0  0  0  0  0  0  0  0  0
   26.3177  -24.8295  -16.4396 C   0  0  0  0  0  0  0  0  0  0  0  0
   25.5518  -25.8598  -16.4085 N   0  0  0  0  0  0  0  0  0  0  0  0
   25.8132  -23.5195  -16.3193 N   0  0  0  0  0  0  0  0  0  0  0  0
   26.6750  -22.3752  -16.1897 C   0  0  0  0  0  0  0  0  0  0  0  0
   25.8785  -21.0937  -15.9780 C   0  0  0  0  0  0  0  0  0  0  0  0
   24.9239  -20.9029  -17.1137 C   0  0  0  0  0  0  0  0  0  0  0  0
   24.1641  -19.5786  -17.0852 C   0  0  2  0  0  0  0  0  0  0  0  0
   25.2356  -18.5619  -17.0931 N   0  0  0  0  0  0  0  0  0  0  0  0
   23.4243  -19.4354  -15.8169 C   0  0  0  0  0  0  0  0  0  0  0  0
   24.0851  -19.0820  -14.7882 O   0  0  0  0  0  0  0  0  0  0  0  0
   24.5393  -25.7399  -16.2261 C   0  0  0  0  0  0  0  0  0  0  0  0
   18.7413  -18.6599  -12.8671 C   0  0  2  0  0  0  0  0  0  0  0  0
   20.0832  -18.0016  -12.8211 C   0  0  0  0  0  0  0  0  0  0  0  0
   20.8706  -18.4780  -11.6009 C   0  0  0  0  0  0  0  0  0  0  0  0
   20.8964  -18.1599  -14.0700 C   0  0  2  0  0  0  0  0  0  0  0  0
   21.4349  -19.5300  -14.3257 N   0  0  0  0  0  0  0  0  0  0  0  0
   22.0548  -19.6500  -15.6295 C   0  0  0  0  0  0  0  0  0  0  0  0
   20.4507  -20.6025  -14.0707 O   0  0  0  0  0  0  0  0  0  0  0  0
   20.1284  -20.9159  -12.9060 O   0  0  0  0  0  0  0  0  0  0  0  0
  2  1  1  6
  3  4  1  0
  3  2  1  0
  4  9  2  0
  5  6  2  0
  5  4  1  0
  6  7  1  0
  7  8  2  0
  9  8  1  0
 10  2  1  0
 10 20  1  0
 11 10  2  0
 13 15  1  0
 13 12  1  0
 14 13  2  0
 16 15  1  0
 16 17  1  0
 18 17  1  0
 19 18  1  1
 20 19  1  0
 21 19  1  0
 21 22  2  0
 24 23  1  1
 24 25  1  0
 26 24  1  0
 27 28  1  0
 27 26  1  1
 28 21  1  0
 29 27  1  0
 30 29  2  0
 31 29  1  0
M  END
$$$$
