FRL.pdb
     RDKit          3D

 31 31  0  0  1  0  0  0  0  0999 V2000
   22.4841  -25.3466  -16.1284 N   0  0  0  0  0  0  0  0  0  0  0  0
   21.4308  -26.1940  -15.6209 C   0  0  1  0  0  0  0  0  0  0  0  0
   21.9609  -27.6160  -15.5658 C   0  0  0  0  0  0  0  0  0  0  0  0
   22.1763  -28.1920  -16.9136 C   0  0  0  0  0  0  0  0  0  0  0  0
   23.4201  -27.9852  -17.5191 C   0  0  0  0  0  0  0  0  0  0  0  0
   23.6330  -28.5091  -18.7530 C   0  0  0  0  0  0  0  0  0  0  0  0
   22.6384  -29.2238  -19.3787 C   0  0  0  0  0  0  0  0  0  0  0  0
   21.4077  -29.4298  -18.7827 C   0  0  0  0  0  0  0  0  0  0  0  0
   21.1672  -28.8990  -17.5118 C   0  0  0  0  0  0  0  0  0  0  0  0
   21.0208  -25.8452  -14.2442 C   0  0  0  0  0  0  0  0  0  0  0  0
   21.8424  -25.1514  -13.5802 O   0  0  0  0  0  0  0  0  0  0  0  0
   19.7795  -20.3696  -13.7654 N   0  0  0  0  0  0  0  0  0  0  0  0
   19.5029  -20.9808  -15.0163 C   0  0  0  0  0  0  0  0  0  0  0  0
   20.1142  -20.5505  -16.0605 N   0  0  0  0  0  0  0  0  0  0  0  0
   18.5700  -22.0347  -15.0778 N   0  0  0  0  0  0  0  0  0  0  0  0
   17.8821  -22.5185  -13.9109 C   0  0  0  0  0  0  0  0  0  0  0  0
   18.0590  -24.0219  -13.7380 C   0  0  0  0  0  0  0  0  0  0  0  0
   19.0664  -24.2884  -12.6650 C   0  0  0  0  0  0  0  0  0  0  0  0
   19.3418  -25.7686  -12.4098 C   0  0  2  0  0  0  0  0  0  0  0  0
   19.7788  -26.2738  -13.7273 N   0  0  0  0  0  0  0  0  0  0  0  0
   18.0944  -26.4717  -12.0550 C   0  0  0  0  0  0  0  0  0  0  0  0
   17.1846  -26.5379  -12.9426 O   0  0  0  0  0  0  0  0  0  0  0  0
   19.9494  -21.0077  -16.9751 C   0  0  0  0  0  0  0  0  0  0  0  0
   18.0377  -30.8887   -8.7128 C   0  0  1  0  0  0  0  0  0  0  0  0
   17.9006  -29.8467   -9.7765 C   0  0  0  0  0  0  0  0  0  0  0  0
   17.8286  -30.4985  -11.1570 C   0  0  0  0  0  0  0  0  0  0  0  0
   16.7542  -28.9021   -9.5773 C   0  0  2  0  0  0  0  0  0  0  0  0
   16.5949  -27.8442  -10.6204 N   0  0  0  0  0  0  0  0  0  0  0  0
   17.8084  -27.0808  -10.8287 C   0  0  0  0  0  0  0  0  0  0  0  0
   15.4174  -26.9786  -10.4008 O   0  0  0  0  0  0  0  0  0  0  0  0
   15.5475  -25.7513  -10.2130 O   0  0  0  0  0  0  0  0  0  0  0  0
  2  1  1  1
  3  4  1  0
  3  2  1  0
  4  9  2  0
  5  6  2  0
  5  4  1  0
  6  7  1  0
  7  8  2  0
  9  8  1  0
 10  2  1  0
 10 20  1  0
 11 10  2  0
 13 15  1  0
 13 12  1  0
 14 13  2  0
 16 15  1  0
 16 17  1  0
 18 17  1  0
 19 18  1  6
 20 19  1  0
 21 19  1  0
 21 22  2  0
 24 23  1  6
 24 25  1  0
 26 24  1  0
 27 28  1  0
 27 26  1  6
 28 21  1  0
 29 27  1  0
 30 29  2  0
 31 29  1  0
M  END
$$$$
