FRL.pdb
     RDKit          3D

 31 31  0  0  1  0  0  0  0  0999 V2000
   26.9206  -21.6344   -8.4228 N   0  0  0  0  0  0  0  0  0  0  0  0
   26.5211  -20.2694   -8.6721 C   0  0  1  0  0  0  0  0  0  0  0  0
   27.6659  -19.3637   -8.2534 C   0  0  0  0  0  0  0  0  0  0  0  0
   28.0685  -19.5760   -6.8435 C   0  0  0  0  0  0  0  0  0  0  0  0
   29.3203  -20.1520   -6.6033 C   0  0  0  0  0  0  0  0  0  0  0  0
   29.7040  -20.3504   -5.3166 C   0  0  0  0  0  0  0  0  0  0  0  0
   28.8694  -19.9876   -4.2854 C   0  0  0  0  0  0  0  0  0  0  0  0
   27.6313  -19.4179   -4.5197 C   0  0  0  0  0  0  0  0  0  0  0  0
   27.2164  -19.2046   -5.8376 C   0  0  0  0  0  0  0  0  0  0  0  0
   26.2684  -19.9928  -10.1020 C   0  0  0  0  0  0  0  0  0  0  0  0
   25.8609  -18.8286  -10.3776 O   0  0  0  0  0  0  0  0  0  0  0  0
   26.3979  -23.4527  -17.0162 N   0  0  0  0  0  0  0  0  0  0  0  0
   27.4333  -22.6708  -17.5919 C   0  0  0  0  0  0  0  0  0  0  0  0
   27.4356  -22.4924  -18.8637 N   0  0  0  0  0  0  0  0  0  0  0  0
   28.4245  -22.1170  -16.7579 N   0  0  0  0  0  0  0  0  0  0  0  0
   28.3818  -22.2470  -15.3261 C   0  0  0  0  0  0  0  0  0  0  0  0
   27.2499  -21.4258  -14.7214 C   0  0  0  0  0  0  0  0  0  0  0  0
   27.3035  -21.5195  -13.2295 C   0  0  0  0  0  0  0  0  0  0  0  0
   26.2868  -20.6410  -12.5039 C   0  0  2  0  0  0  0  0  0  0  0  0
   26.4791  -20.9880  -11.0811 N   0  0  0  0  0  0  0  0  0  0  0  0
   24.9125  -21.0286  -12.8746 C   0  0  0  0  0  0  0  0  0  0  0  0
   24.5159  -22.1877  -12.5296 O   0  0  0  0  0  0  0  0  0  0  0  0
   28.1388  -21.8636  -19.2913 C   0  0  0  0  0  0  0  0  0  0  0  0
   20.3563  -17.7852  -12.8263 C   0  0  2  0  0  0  0  0  0  0  0  0
   21.2379  -18.9843  -12.6816 C   0  0  0  0  0  0  0  0  0  0  0  0
   20.5800  -20.0253  -11.7764 C   0  0  0  0  0  0  0  0  0  0  0  0
   21.6623  -19.6040  -13.9785 C   0  0  2  0  0  0  0  0  0  0  0  0
   22.6555  -20.7153  -13.8737 N   0  0  0  0  0  0  0  0  0  0  0  0
   23.9912  -20.2414  -13.5733 C   0  0  0  0  0  0  0  0  0  0  0  0
   22.6321  -21.6322  -15.0324 O   0  0  0  0  0  0  0  0  0  0  0  0
   23.4952  -21.5550  -15.9311 O   0  0  0  0  0  0  0  0  0  0  0  0
  2  1  1  6
  3  4  1  0
  3  2  1  0
  4  9  2  0
  5  6  2  0
  5  4  1  0
  6  7  1  0
  7  8  2  0
  9  8  1  0
 10  2  1  0
 10 20  1  0
 11 10  2  0
 13 15  1  0
 13 12  1  0
 14 13  2  0
 16 15  1  0
 16 17  1  0
 18 17  1  0
 19 18  1  6
 20 19  1  0
 21 19  1  0
 21 22  2  0
 24 23  1  1
 24 25  1  0
 26 24  1  0
 27 28  1  0
 27 26  1  1
 28 21  1  0
 29 27  1  0
 30 29  2  0
 31 29  1  0
M  END
$$$$
