FRL.pdb
     RDKit          3D

 31 31  0  0  1  0  0  0  0  0999 V2000
   15.9833  -14.5662    5.9815 N   0  0  0  0  0  0  0  0  0  0  0  0
   16.5603  -15.5736    5.1230 C   0  0  1  0  0  0  0  0  0  0  0  0
   18.0682  -15.3935    5.1394 C   0  0  0  0  0  0  0  0  0  0  0  0
   18.5023  -14.1911    4.3905 C   0  0  0  0  0  0  0  0  0  0  0  0
   18.4055  -14.2225    2.9956 C   0  0  0  0  0  0  0  0  0  0  0  0
   18.7971  -13.1273    2.2960 C   0  0  0  0  0  0  0  0  0  0  0  0
   19.2754  -12.0214    2.9591 C   0  0  0  0  0  0  0  0  0  0  0  0
   19.3723  -11.9873    4.3381 C   0  0  0  0  0  0  0  0  0  0  0  0
   18.9742  -13.1047    5.0782 C   0  0  0  0  0  0  0  0  0  0  0  0
   16.2971  -16.9512    5.5899 C   0  0  0  0  0  0  0  0  0  0  0  0
   16.1895  -17.1016    6.8401 O   0  0  0  0  0  0  0  0  0  0  0  0
   15.1680  -22.8562   -0.0639 N   0  0  0  0  0  0  0  0  0  0  0  0
   14.3407  -21.9678    0.6716 C   0  0  0  0  0  0  0  0  0  0  0  0
   13.2323  -21.5835    0.1491 N   0  0  0  0  0  0  0  0  0  0  0  0
   14.7564  -21.5333    1.9457 N   0  0  0  0  0  0  0  0  0  0  0  0
   15.3672  -22.4225    2.8971 C   0  0  0  0  0  0  0  0  0  0  0  0
   15.7105  -21.7046    4.1964 C   0  0  0  0  0  0  0  0  0  0  0  0
   15.7604  -20.2291    3.9563 C   0  0  0  0  0  0  0  0  0  0  0  0
   16.1185  -19.3999    5.1877 C   0  0  2  0  0  0  0  0  0  0  0  0
   16.1764  -18.0171    4.6717 N   0  0  0  0  0  0  0  0  0  0  0  0
   17.4671  -19.7511    5.6717 C   0  0  0  0  0  0  0  0  0  0  0  0
   18.4525  -19.4794    4.9133 O   0  0  0  0  0  0  0  0  0  0  0  0
   12.5862  -20.9888    0.6984 C   0  0  0  0  0  0  0  0  0  0  0  0
   20.9862  -20.7218   10.3863 C   0  0  2  0  0  0  0  0  0  0  0  0
   20.9180  -20.0901    9.0326 C   0  0  0  0  0  0  0  0  0  0  0  0
   21.7267  -20.9031    8.0222 C   0  0  0  0  0  0  0  0  0  0  0  0
   19.5273  -19.8516    8.5274 C   0  0  2  0  0  0  0  0  0  0  0  0
   19.1436  -20.6088    7.2977 N   0  0  0  0  0  0  0  0  0  0  0  0
   17.7752  -20.3577    6.8939 C   0  0  0  0  0  0  0  0  0  0  0  0
   19.4491  -22.0523    7.3804 O   0  0  0  0  0  0  0  0  0  0  0  0
   18.6722  -22.8421    7.9558 O   0  0  0  0  0  0  0  0  0  0  0  0
  2  1  1  1
  3  4  1  0
  3  2  1  0
  4  9  2  0
  5  6  2  0
  5  4  1  0
  6  7  1  0
  7  8  2  0
  9  8  1  0
 10  2  1  0
 10 20  1  0
 11 10  2  0
 13 15  1  0
 13 12  1  0
 14 13  2  0
 16 15  1  0
 16 17  1  0
 18 17  1  0
 19 18  1  6
 20 19  1  0
 21 19  1  0
 21 22  2  0
 24 23  1  1
 24 25  1  0
 26 24  1  0
 27 28  1  0
 27 26  1  6
 28 21  1  0
 29 27  1  0
 30 29  2  0
 31 29  1  0
M  END
$$$$
