FRL.pdb
     RDKit          3D

 31 31  0  0  1  0  0  0  0  0999 V2000
   27.3603  -22.3924  -11.8481 N   0  0  0  0  0  0  0  0  0  0  0  0
   26.3406  -21.5424  -11.2801 C   0  0  1  0  0  0  0  0  0  0  0  0
   26.9752  -20.1998  -10.9622 C   0  0  0  0  0  0  0  0  0  0  0  0
   27.5639  -20.1601   -9.6033 C   0  0  0  0  0  0  0  0  0  0  0  0
   26.7334  -19.7780   -8.5447 C   0  0  0  0  0  0  0  0  0  0  0  0
   27.2580  -19.7393   -7.2935 C   0  0  0  0  0  0  0  0  0  0  0  0
   28.5769  -20.0712   -7.0892 C   0  0  0  0  0  0  0  0  0  0  0  0
   29.4005  -20.4494   -8.1337 C   0  0  0  0  0  0  0  0  0  0  0  0
   28.8804  -20.4961   -9.4306 C   0  0  0  0  0  0  0  0  0  0  0  0
   25.2282  -21.2701  -12.2146 C   0  0  0  0  0  0  0  0  0  0  0  0
   25.4957  -21.3883  -13.4442 O   0  0  0  0  0  0  0  0  0  0  0  0
   18.0649  -24.1370   -8.4355 N   0  0  0  0  0  0  0  0  0  0  0  0
   17.6982  -24.1617   -9.8065 C   0  0  0  0  0  0  0  0  0  0  0  0
   16.5248  -24.5768  -10.1228 N   0  0  0  0  0  0  0  0  0  0  0  0
   18.6263  -23.7344  -10.7766 N   0  0  0  0  0  0  0  0  0  0  0  0
   19.8474  -23.0607  -10.4248 C   0  0  0  0  0  0  0  0  0  0  0  0
   20.6281  -22.6316  -11.6608 C   0  0  0  0  0  0  0  0  0  0  0  0
   21.9013  -21.9662  -11.2442 C   0  0  0  0  0  0  0  0  0  0  0  0
   22.7540  -21.4517  -12.4019 C   0  0  2  0  0  0  0  0  0  0  0  0
   23.9521  -20.9026  -11.7349 N   0  0  0  0  0  0  0  0  0  0  0  0
   22.0748  -20.3353  -13.0864 C   0  0  0  0  0  0  0  0  0  0  0  0
   21.7803  -19.3114  -12.3901 O   0  0  0  0  0  0  0  0  0  0  0  0
   16.2470  -24.6159  -11.1198 C   0  0  0  0  0  0  0  0  0  0  0  0
   22.9902  -18.3920  -18.2221 C   0  0  2  0  0  0  0  0  0  0  0  0
   22.6915  -18.5062  -16.7614 C   0  0  0  0  0  0  0  0  0  0  0  0
   23.0149  -17.1952  -16.0456 C   0  0  0  0  0  0  0  0  0  0  0  0
   21.2955  -18.9508  -16.4453 C   0  0  2  0  0  0  0  0  0  0  0  0
   20.9938  -19.1654  -14.9978 N   0  0  0  0  0  0  0  0  0  0  0  0
   21.7193  -20.2877  -14.4385 C   0  0  0  0  0  0  0  0  0  0  0  0
   19.5467  -19.2299  -14.7051 O   0  0  0  0  0  0  0  0  0  0  0  0
   19.0031  -20.3066  -14.3830 O   0  0  0  0  0  0  0  0  0  0  0  0
  2  1  1  6
  3  4  1  0
  3  2  1  0
  4  9  2  0
  5  6  2  0
  5  4  1  0
  6  7  1  0
  7  8  2  0
  9  8  1  0
 10  2  1  0
 10 20  1  0
 11 10  2  0
 13 15  1  0
 13 12  1  0
 14 13  2  0
 16 15  1  0
 16 17  1  0
 18 17  1  0
 19 18  1  1
 20 19  1  0
 21 19  1  0
 21 22  2  0
 24 23  1  1
 24 25  1  0
 26 24  1  0
 27 28  1  0
 27 26  1  1
 28 21  1  0
 29 27  1  0
 30 29  2  0
 31 29  1  0
M  END
$$$$
