FRL.pdb
     RDKit          3D

 31 31  0  0  1  0  0  0  0  0999 V2000
   26.1066  -10.2217  -18.9031 N   0  0  0  0  0  0  0  0  0  0  0  0
   25.3306  -10.4018  -17.6989 C   0  0  1  0  0  0  0  0  0  0  0  0
   26.1444   -9.8660  -16.5341 C   0  0  0  0  0  0  0  0  0  0  0  0
   27.3937  -10.6323  -16.3170 C   0  0  0  0  0  0  0  0  0  0  0  0
   28.5964  -10.0462  -16.7249 C   0  0  0  0  0  0  0  0  0  0  0  0
   29.7494  -10.7352  -16.5302 C   0  0  0  0  0  0  0  0  0  0  0  0
   29.7179  -11.9790  -15.9443 C   0  0  0  0  0  0  0  0  0  0  0  0
   28.5304  -12.5611  -15.5400 C   0  0  0  0  0  0  0  0  0  0  0  0
   27.3310  -11.8686  -15.7310 C   0  0  0  0  0  0  0  0  0  0  0  0
   24.0623   -9.6426  -17.7092 C   0  0  0  0  0  0  0  0  0  0  0  0
   24.0621   -8.5731  -18.3825 O   0  0  0  0  0  0  0  0  0  0  0  0
   16.1307  -12.8666  -15.5890 N   0  0  0  0  0  0  0  0  0  0  0  0
   15.8271  -11.6540  -16.2613 C   0  0  0  0  0  0  0  0  0  0  0  0
   14.5952  -11.3587  -16.4726 N   0  0  0  0  0  0  0  0  0  0  0  0
   16.8787  -10.8138  -16.6772 N   0  0  0  0  0  0  0  0  0  0  0  0
   18.2608  -11.1679  -16.4943 C   0  0  0  0  0  0  0  0  0  0  0  0
   19.1892  -10.0219  -16.8764 C   0  0  0  0  0  0  0  0  0  0  0  0
   20.6082  -10.4939  -16.8449 C   0  0  0  0  0  0  0  0  0  0  0  0
   21.6391   -9.4216  -17.1908 C   0  0  2  0  0  0  0  0  0  0  0  0
   22.9330  -10.1083  -17.0010 N   0  0  0  0  0  0  0  0  0  0  0  0
   21.5766   -8.3135  -16.2190 C   0  0  0  0  0  0  0  0  0  0  0  0
   21.8783   -8.5745  -15.0103 O   0  0  0  0  0  0  0  0  0  0  0  0
   14.3585  -10.5461  -17.0695 C   0  0  0  0  0  0  0  0  0  0  0  0
   22.3124   -3.8609  -13.4160 C   0  0  1  0  0  0  0  0  0  0  0  0
   21.7088   -3.6337  -14.7652 C   0  0  0  0  0  0  0  0  0  0  0  0
   22.2205   -2.3249  -15.3661 C   0  0  0  0  0  0  0  0  0  0  0  0
   21.8957   -4.7666  -15.7285 C   0  0  1  0  0  0  0  0  0  0  0  0
   21.0965   -5.9973  -15.4474 N   0  0  0  0  0  0  0  0  0  0  0  0
   21.2167   -6.9903  -16.4954 C   0  0  0  0  0  0  0  0  0  0  0  0
   19.6881   -5.7139  -15.1009 O   0  0  0  0  0  0  0  0  0  0  0  0
   18.7713   -5.9091  -15.9255 O   0  0  0  0  0  0  0  0  0  0  0  0
  2  1  1  6
  3  4  1  0
  3  2  1  0
  4  9  2  0
  5  6  2  0
  5  4  1  0
  6  7  1  0
  7  8  2  0
  9  8  1  0
 10  2  1  0
 10 20  1  0
 11 10  2  0
 13 15  1  0
 13 12  1  0
 14 13  2  0
 16 15  1  0
 16 17  1  0
 18 17  1  0
 19 18  1  1
 20 19  1  0
 21 19  1  0
 21 22  2  0
 24 23  1  1
 24 25  1  0
 26 24  1  0
 27 28  1  0
 27 26  1  1
 28 21  1  0
 29 27  1  0
 30 29  2  0
 31 29  1  0
M  END
$$$$
