FRL.pdb
     RDKit          3D

 31 31  0  0  1  0  0  0  0  0999 V2000
   25.7629  -17.6626  -16.6233 N   0  0  0  0  0  0  0  0  0  0  0  0
   26.6317  -18.1171  -15.5633 C   0  0  1  0  0  0  0  0  0  0  0  0
   27.4053  -16.9169  -15.0464 C   0  0  0  0  0  0  0  0  0  0  0  0
   28.3471  -16.3745  -16.0533 C   0  0  0  0  0  0  0  0  0  0  0  0
   29.4348  -17.1719  -16.4238 C   0  0  0  0  0  0  0  0  0  0  0  0
   30.3047  -16.6894  -17.3471 C   0  0  0  0  0  0  0  0  0  0  0  0
   30.1063  -15.4439  -17.8954 C   0  0  0  0  0  0  0  0  0  0  0  0
   29.0319  -14.6531  -17.5311 C   0  0  0  0  0  0  0  0  0  0  0  0
   28.1235  -15.1309  -16.5818 C   0  0  0  0  0  0  0  0  0  0  0  0
   25.8940  -18.6703  -14.4080 C   0  0  0  0  0  0  0  0  0  0  0  0
   24.8232  -18.0751  -14.0977 O   0  0  0  0  0  0  0  0  0  0  0  0
   23.5090  -25.8423  -13.7366 N   0  0  0  0  0  0  0  0  0  0  0  0
   22.3867  -25.3186  -13.0432 C   0  0  0  0  0  0  0  0  0  0  0  0
   21.5558  -26.1386  -12.5080 N   0  0  0  0  0  0  0  0  0  0  0  0
   22.2152  -23.9225  -12.9632 N   0  0  0  0  0  0  0  0  0  0  0  0
   23.0979  -23.0024  -13.6290 C   0  0  0  0  0  0  0  0  0  0  0  0
   24.4480  -22.9131  -12.9285 C   0  0  0  0  0  0  0  0  0  0  0  0
   25.3053  -21.9002  -13.6186 C   0  0  0  0  0  0  0  0  0  0  0  0
   25.4435  -20.5751  -12.8722 C   0  0  2  0  0  0  0  0  0  0  0  0
   26.3789  -19.7986  -13.7113 N   0  0  0  0  0  0  0  0  0  0  0  0
   26.0899  -20.7855  -11.5630 C   0  0  0  0  0  0  0  0  0  0  0  0
   27.0421  -21.6282  -11.5067 O   0  0  0  0  0  0  0  0  0  0  0  0
   20.7492  -25.7728  -11.9710 C   0  0  0  0  0  0  0  0  0  0  0  0
   28.9445  -20.8302   -7.0684 C   0  0  1  0  0  0  0  0  0  0  0  0
   27.7331  -19.9547   -7.1131 C   0  0  0  0  0  0  0  0  0  0  0  0
   27.9669  -18.6771   -6.3075 C   0  0  0  0  0  0  0  0  0  0  0  0
   27.2527  -19.6281   -8.4947 C   0  0  1  0  0  0  0  0  0  0  0  0
   26.2798  -20.5934   -9.0896 N   0  0  0  0  0  0  0  0  0  0  0  0
   25.7591  -20.1442  -10.3647 C   0  0  0  0  0  0  0  0  0  0  0  0
   25.2077  -20.9946   -8.1549 O   0  0  0  0  0  0  0  0  0  0  0  0
   24.0580  -20.5179   -8.2523 O   0  0  0  0  0  0  0  0  0  0  0  0
  2  1  1  6
  3  4  1  0
  3  2  1  0
  4  9  2  0
  5  6  2  0
  5  4  1  0
  6  7  1  0
  7  8  2  0
  9  8  1  0
 10  2  1  0
 10 20  1  0
 11 10  2  0
 13 15  1  0
 13 12  1  0
 14 13  2  0
 16 15  1  0
 16 17  1  0
 18 17  1  0
 19 18  1  6
 20 19  1  0
 21 19  1  0
 21 22  2  0
 24 23  1  1
 24 25  1  0
 26 24  1  0
 27 28  1  0
 27 26  1  6
 28 21  1  0
 29 27  1  0
 30 29  2  0
 31 29  1  0
M  END
$$$$
