VGF.pdb
     RDKit          3D

 23 23  0  0  1  0  0  0  0  0999 V2000
    7.3396  -13.0842   18.2912 C   0  0  0  0  0  0  0  0  0  0  0  0
    8.6291  -13.8634   18.0831 C   0  0  2  0  0  0  0  0  0  0  0  0
    8.8319  -14.2670   16.6621 C   0  0  0  0  0  0  0  0  0  0  0  0
    8.6510  -15.0250   19.0475 C   0  0  2  0  0  0  0  0  0  0  0  0
    7.6950  -15.9997   18.6414 N   0  0  0  0  0  0  0  0  0  0  0  0
    8.4643  -14.6362   20.4361 C   0  0  0  0  0  0  0  0  0  0  0  0
    9.2793  -13.9867   21.1381 O   0  0  0  0  0  0  0  0  0  0  0  0
    7.2353  -15.0176   21.1011 N   0  0  0  0  0  0  0  0  0  0  0  0
    6.9479  -14.5601   22.4179 C   0  0  0  0  0  0  0  0  0  0  0  0
    7.7265  -15.2152   23.4786 C   0  0  0  0  0  0  0  0  0  0  0  0
    7.4139  -16.4302   23.8155 O   0  0  0  0  0  0  0  0  0  0  0  0
    8.8034  -14.6189   24.1702 N   0  0  0  0  0  0  0  0  0  0  0  0
    9.2791  -15.1697   25.4492 C   0  0  1  0  0  0  0  0  0  0  0  0
    8.0568  -15.2525   26.3287 C   0  0  0  0  0  0  0  0  0  0  0  0
    7.3997  -13.9546   26.5653 C   0  0  0  0  0  0  0  0  0  0  0  0
    8.1522  -12.8457   26.8582 C   0  0  0  0  0  0  0  0  0  0  0  0
    7.5610  -11.6231   27.0800 C   0  0  0  0  0  0  0  0  0  0  0  0
    6.1921  -11.5259   27.0034 C   0  0  0  0  0  0  0  0  0  0  0  0
    5.4350  -12.6319   26.7107 C   0  0  0  0  0  0  0  0  0  0  0  0
    6.0344  -13.8463   26.4913 C   0  0  0  0  0  0  0  0  0  0  0  0
    9.9120  -16.4871   25.2062 C   0  0  0  0  0  0  0  0  0  0  0  0
   10.3447  -17.1551   26.1687 O   0  0  0  0  0  0  0  0  0  0  0  0
   10.0369  -17.0012   23.9290 O   0  0  0  0  0  0  0  0  0  0  0  0
  2  1  1  6
  2  3  1  0
  4  6  1  0
  4  2  1  0
  4  5  1  6
  6  8  1  0
  7  6  2  0
  8  9  1  0
  9 10  1  0
 10 11  2  0
 10 12  1  0
 12 13  1  0
 13 21  1  0
 13 14  1  1
 15 14  1  0
 15 16  2  0
 17 16  1  0
 18 17  2  0
 19 20  2  0
 19 18  1  0
 20 15  1  0
 21 22  2  0
 21 23  1  0
M  END
$$$$
