VGF.pdb
     RDKit          3D

 23 23  0  0  1  0  0  0  0  0999 V2000
    7.5917  -12.9298   21.6796 C   0  0  0  0  0  0  0  0  0  0  0  0
    7.8696  -13.0561   20.1895 C   0  0  2  0  0  0  0  0  0  0  0  0
    6.6898  -12.6922   19.3535 C   0  0  0  0  0  0  0  0  0  0  0  0
    8.3975  -14.4436   19.9139 C   0  0  2  0  0  0  0  0  0  0  0  0
    7.3532  -15.3954   20.0939 N   0  0  0  0  0  0  0  0  0  0  0  0
    9.5763  -14.7867   20.6930 C   0  0  0  0  0  0  0  0  0  0  0  0
   10.6701  -14.1681   20.6905 O   0  0  0  0  0  0  0  0  0  0  0  0
    9.5170  -15.9434   21.5628 N   0  0  0  0  0  0  0  0  0  0  0  0
   10.6363  -16.3121   22.3610 C   0  0  0  0  0  0  0  0  0  0  0  0
   10.4055  -16.2419   23.8109 C   0  0  0  0  0  0  0  0  0  0  0  0
   11.4354  -16.2467   24.6027 O   0  0  0  0  0  0  0  0  0  0  0  0
    9.1337  -16.1685   24.4198 N   0  0  0  0  0  0  0  0  0  0  0  0
    8.9914  -16.2205   25.8835 C   0  0  1  0  0  0  0  0  0  0  0  0
    7.5715  -15.7961   26.1631 C   0  0  0  0  0  0  0  0  0  0  0  0
    7.3326  -14.3520   25.9901 C   0  0  0  0  0  0  0  0  0  0  0  0
    7.3975  -13.5095   27.0707 C   0  0  0  0  0  0  0  0  0  0  0  0
    7.1810  -12.1577   26.9326 C   0  0  0  0  0  0  0  0  0  0  0  0
    6.8959  -11.6566   25.6849 C   0  0  0  0  0  0  0  0  0  0  0  0
    6.8300  -12.4950   24.6010 C   0  0  0  0  0  0  0  0  0  0  0  0
    7.0475  -13.8414   24.7493 C   0  0  0  0  0  0  0  0  0  0  0  0
    9.2921  -17.5932   26.3531 C   0  0  0  0  0  0  0  0  0  0  0  0
    9.5532  -17.7941   27.5578 O   0  0  0  0  0  0  0  0  0  0  0  0
    9.2908  -18.6680   25.4836 O   0  0  0  0  0  0  0  0  0  0  0  0
  2  1  1  1
  2  3  1  0
  4  6  1  0
  4  2  1  0
  4  5  1  1
  6  8  1  0
  7  6  2  0
  8  9  1  0
  9 10  1  0
 10 11  2  0
 10 12  1  0
 12 13  1  0
 13 21  1  0
 13 14  1  6
 15 14  1  0
 15 16  2  0
 17 16  1  0
 18 17  2  0
 19 20  2  0
 19 18  1  0
 20 15  1  0
 21 22  2  0
 21 23  1  0
M  END
$$$$
