VGF.pdb
     RDKit          3D

 23 23  0  0  1  0  0  0  0  0999 V2000
    6.9254  -12.8999   19.3081 C   0  0  0  0  0  0  0  0  0  0  0  0
    8.4099  -13.2183   19.2171 C   0  0  2  0  0  0  0  0  0  0  0  0
    9.0880  -12.4799   18.1134 C   0  0  0  0  0  0  0  0  0  0  0  0
    8.5767  -14.7164   19.1302 C   0  0  2  0  0  0  0  0  0  0  0  0
    8.1074  -15.1758   17.8663 N   0  0  0  0  0  0  0  0  0  0  0  0
    7.9552  -15.4391   20.2283 C   0  0  0  0  0  0  0  0  0  0  0  0
    6.9549  -16.1949   20.1439 O   0  0  0  0  0  0  0  0  0  0  0  0
    8.5173  -15.2959   21.5555 N   0  0  0  0  0  0  0  0  0  0  0  0
    7.9468  -15.9803   22.6655 C   0  0  0  0  0  0  0  0  0  0  0  0
    8.6723  -15.8070   23.9320 C   0  0  0  0  0  0  0  0  0  0  0  0
    9.8947  -15.3695   23.8903 O   0  0  0  0  0  0  0  0  0  0  0  0
    8.1371  -16.0829   25.2091 N   0  0  0  0  0  0  0  0  0  0  0  0
    8.9695  -15.9748   26.4178 C   0  0  1  0  0  0  0  0  0  0  0  0
    8.1081  -15.2702   27.4355 C   0  0  0  0  0  0  0  0  0  0  0  0
    7.4953  -14.0239   26.9418 C   0  0  0  0  0  0  0  0  0  0  0  0
    6.2481  -14.0493   26.3713 C   0  0  0  0  0  0  0  0  0  0  0  0
    5.6551  -12.8981   25.9061 C   0  0  0  0  0  0  0  0  0  0  0  0
    6.3355  -11.7095   26.0215 C   0  0  0  0  0  0  0  0  0  0  0  0
    7.5831  -11.6787   26.5913 C   0  0  0  0  0  0  0  0  0  0  0  0
    8.1655  -12.8322   27.0521 C   0  0  0  0  0  0  0  0  0  0  0  0
    9.3847  -17.3313   26.8455 C   0  0  0  0  0  0  0  0  0  0  0  0
    8.7995  -18.3339   26.3846 O   0  0  0  0  0  0  0  0  0  0  0  0
   10.4133  -17.5178   27.7500 O   0  0  0  0  0  0  0  0  0  0  0  0
  2  1  1  6
  2  3  1  0
  4  6  1  0
  4  2  1  0
  4  5  1  6
  6  8  1  0
  7  6  2  0
  8  9  1  0
  9 10  1  0
 10 11  2  0
 10 12  1  0
 12 13  1  0
 13 21  1  0
 13 14  1  1
 15 14  1  0
 15 16  2  0
 17 16  1  0
 18 17  2  0
 19 20  2  0
 19 18  1  0
 20 15  1  0
 21 22  2  0
 21 23  1  0
M  END
$$$$
