VGF.pdb
     RDKit          3D

 23 23  0  0  1  0  0  0  0  0999 V2000
    7.1123  -17.0827   18.4455 C   0  0  0  0  0  0  0  0  0  0  0  0
    7.3503  -18.4496   19.0687 C   0  0  2  0  0  0  0  0  0  0  0  0
    6.2743  -19.4266   18.7355 C   0  0  0  0  0  0  0  0  0  0  0  0
    7.5631  -18.2718   20.5529 C   0  0  2  0  0  0  0  0  0  0  0  0
    6.3222  -17.9583   21.1782 N   0  0  0  0  0  0  0  0  0  0  0  0
    8.5917  -17.2989   20.8842 C   0  0  0  0  0  0  0  0  0  0  0  0
    9.8308  -17.4579   20.7489 O   0  0  0  0  0  0  0  0  0  0  0  0
    8.1833  -16.0176   21.4221 N   0  0  0  0  0  0  0  0  0  0  0  0
    9.1514  -15.0579   21.8313 C   0  0  0  0  0  0  0  0  0  0  0  0
    9.4625  -15.0743   23.2677 C   0  0  0  0  0  0  0  0  0  0  0  0
   10.4305  -14.3236   23.7001 O   0  0  0  0  0  0  0  0  0  0  0  0
    8.7820  -15.8534   24.2287 N   0  0  0  0  0  0  0  0  0  0  0  0
    9.1716  -15.8154   25.6472 C   0  0  1  0  0  0  0  0  0  0  0  0
    7.8936  -15.5624   26.4068 C   0  0  0  0  0  0  0  0  0  0  0  0
    7.3869  -14.1837   26.2847 C   0  0  0  0  0  0  0  0  0  0  0  0
    8.0766  -13.1441   26.8551 C   0  0  0  0  0  0  0  0  0  0  0  0
    7.6243  -11.8487   26.7515 C   0  0  0  0  0  0  0  0  0  0  0  0
    6.4602  -11.6068   26.0619 C   0  0  0  0  0  0  0  0  0  0  0  0
    5.7668  -12.6430   25.4897 C   0  0  0  0  0  0  0  0  0  0  0  0
    6.2263  -13.9311   25.5987 C   0  0  0  0  0  0  0  0  0  0  0  0
    9.8195  -17.0981   26.0083 C   0  0  0  0  0  0  0  0  0  0  0  0
    9.8569  -18.0302   25.1778 O   0  0  0  0  0  0  0  0  0  0  0  0
   10.3895  -17.2916   27.2528 O   0  0  0  0  0  0  0  0  0  0  0  0
  2  1  1  1
  2  3  1  0
  4  6  1  0
  4  2  1  0
  4  5  1  1
  6  8  1  0
  7  6  2  0
  8  9  1  0
  9 10  1  0
 10 11  2  0
 10 12  1  0
 12 13  1  0
 13 21  1  0
 13 14  1  1
 15 14  1  0
 15 16  2  0
 17 16  1  0
 18 17  2  0
 19 20  2  0
 19 18  1  0
 20 15  1  0
 21 22  2  0
 21 23  1  0
M  END
$$$$
