VGF.pdb
     RDKit          3D

 23 23  0  0  1  0  0  0  0  0999 V2000
    6.7476  -13.1974   19.7901 C   0  0  0  0  0  0  0  0  0  0  0  0
    8.2584  -13.0267   19.7464 C   0  0  2  0  0  0  0  0  0  0  0  0
    8.6820  -11.8920   18.8768 C   0  0  0  0  0  0  0  0  0  0  0  0
    8.8813  -14.3465   19.3594 C   0  0  2  0  0  0  0  0  0  0  0  0
    8.5599  -14.6463   18.0045 N   0  0  0  0  0  0  0  0  0  0  0  0
    8.5309  -15.4421   20.2489 C   0  0  0  0  0  0  0  0  0  0  0  0
    7.8796  -16.4699   19.9352 O   0  0  0  0  0  0  0  0  0  0  0  0
    8.9574  -15.3729   21.6314 N   0  0  0  0  0  0  0  0  0  0  0  0
    8.6321  -16.4134   22.5465 C   0  0  0  0  0  0  0  0  0  0  0  0
    9.1618  -16.2240   23.9045 C   0  0  0  0  0  0  0  0  0  0  0  0
   10.4012  -15.8592   24.0402 O   0  0  0  0  0  0  0  0  0  0  0  0
    8.4185  -16.4101   25.0904 N   0  0  0  0  0  0  0  0  0  0  0  0
    9.0446  -16.2371   26.4108 C   0  0  1  0  0  0  0  0  0  0  0  0
    7.9673  -15.6557   27.2916 C   0  0  0  0  0  0  0  0  0  0  0  0
    7.5280  -14.3073   26.8902 C   0  0  0  0  0  0  0  0  0  0  0  0
    8.3892  -13.2444   26.9916 C   0  0  0  0  0  0  0  0  0  0  0  0
    8.0021  -11.9773   26.6200 C   0  0  0  0  0  0  0  0  0  0  0  0
    6.7279  -11.7879   26.1409 C   0  0  0  0  0  0  0  0  0  0  0  0
    5.8627  -12.8476   26.0375 C   0  0  0  0  0  0  0  0  0  0  0  0
    6.2586  -14.1071   26.4106 C   0  0  0  0  0  0  0  0  0  0  0  0
    9.5429  -17.5481   26.8885 C   0  0  0  0  0  0  0  0  0  0  0  0
   10.2012  -17.6136   27.9479 O   0  0  0  0  0  0  0  0  0  0  0  0
    9.2951  -18.7122   26.1852 O   0  0  0  0  0  0  0  0  0  0  0  0
  2  1  1  6
  2  3  1  0
  4  6  1  0
  4  2  1  0
  4  5  1  6
  6  8  1  0
  7  6  2  0
  8  9  1  0
  9 10  1  0
 10 11  2  0
 10 12  1  0
 12 13  1  0
 13 21  1  0
 13 14  1  1
 15 14  1  0
 15 16  2  0
 17 16  1  0
 18 17  2  0
 19 20  2  0
 19 18  1  0
 20 15  1  0
 21 22  2  0
 21 23  1  0
M  END
$$$$
