VGF.pdb
     RDKit          3D

 23 23  0  0  1  0  0  0  0  0999 V2000
    7.6396  -19.0460   18.3662 C   0  0  0  0  0  0  0  0  0  0  0  0
    7.9127  -17.7119   17.6886 C   0  0  2  0  0  0  0  0  0  0  0  0
    8.6314  -17.8646   16.3911 C   0  0  0  0  0  0  0  0  0  0  0  0
    8.6250  -16.8109   18.6687 C   0  0  2  0  0  0  0  0  0  0  0  0
    9.8927  -17.3712   18.9969 N   0  0  0  0  0  0  0  0  0  0  0  0
    7.8466  -16.5103   19.8595 C   0  0  0  0  0  0  0  0  0  0  0  0
    6.7824  -15.8431   19.8983 O   0  0  0  0  0  0  0  0  0  0  0  0
    8.3142  -17.0118   21.1353 N   0  0  0  0  0  0  0  0  0  0  0  0
    7.6150  -16.7082   22.3373 C   0  0  0  0  0  0  0  0  0  0  0  0
    8.4764  -16.3710   23.4796 C   0  0  0  0  0  0  0  0  0  0  0  0
    9.7424  -16.1756   23.2638 O   0  0  0  0  0  0  0  0  0  0  0  0
    8.0293  -16.2410   24.8126 N   0  0  0  0  0  0  0  0  0  0  0  0
    8.9624  -15.8801   25.8918 C   0  0  1  0  0  0  0  0  0  0  0  0
    8.1126  -15.2313   26.9555 C   0  0  0  0  0  0  0  0  0  0  0  0
    7.6190  -13.8907   26.5929 C   0  0  0  0  0  0  0  0  0  0  0  0
    8.5013  -12.8527   26.4324 C   0  0  0  0  0  0  0  0  0  0  0  0
    8.0637  -11.5935   26.0913 C   0  0  0  0  0  0  0  0  0  0  0  0
    6.7169  -11.3865   25.9116 C   0  0  0  0  0  0  0  0  0  0  0  0
    5.8304  -12.4212   26.0709 C   0  0  0  0  0  0  0  0  0  0  0  0
    6.2769  -13.6731   26.4110 C   0  0  0  0  0  0  0  0  0  0  0  0
    9.6552  -17.1014   26.3646 C   0  0  0  0  0  0  0  0  0  0  0  0
    9.1982  -18.2267   26.0732 O   0  0  0  0  0  0  0  0  0  0  0  0
   10.8059  -17.0270   27.1271 O   0  0  0  0  0  0  0  0  0  0  0  0
  2  1  1  1
  2  3  1  0
  4  6  1  0
  4  2  1  0
  4  5  1  1
  6  8  1  0
  7  6  2  0
  8  9  1  0
  9 10  1  0
 10 11  2  0
 10 12  1  0
 12 13  1  0
 13 21  1  0
 13 14  1  1
 15 14  1  0
 15 16  2  0
 17 16  1  0
 18 17  2  0
 19 20  2  0
 19 18  1  0
 20 15  1  0
 21 22  2  0
 21 23  1  0
M  END
$$$$
