VGF.pdb
     RDKit          3D

 23 23  0  0  1  0  0  0  0  0999 V2000
    8.4482  -13.5282   16.8912 C   0  0  0  0  0  0  0  0  0  0  0  0
    7.7876  -13.7864   18.2367 C   0  0  2  0  0  0  0  0  0  0  0  0
    7.5835  -12.5368   19.0243 C   0  0  0  0  0  0  0  0  0  0  0  0
    8.5853  -14.8371   18.9712 C   0  0  2  0  0  0  0  0  0  0  0  0
    8.4904  -16.0782   18.2788 N   0  0  0  0  0  0  0  0  0  0  0  0
    8.2211  -14.9751   20.3722 C   0  0  0  0  0  0  0  0  0  0  0  0
    8.4405  -14.1339   21.2795 O   0  0  0  0  0  0  0  0  0  0  0  0
    7.5411  -16.1826   20.7935 N   0  0  0  0  0  0  0  0  0  0  0  0
    7.0884  -16.3329   22.1346 C   0  0  0  0  0  0  0  0  0  0  0  0
    8.1353  -16.1858   23.1557 C   0  0  0  0  0  0  0  0  0  0  0  0
    9.3773  -16.1992   22.7753 O   0  0  0  0  0  0  0  0  0  0  0  0
    7.8935  -16.0288   24.5379 N   0  0  0  0  0  0  0  0  0  0  0  0
    9.0024  -16.0336   25.5054 C   0  0  1  0  0  0  0  0  0  0  0  0
    9.2901  -14.5812   25.7918 C   0  0  0  0  0  0  0  0  0  0  0  0
    8.1346  -13.8344   26.3204 C   0  0  0  0  0  0  0  0  0  0  0  0
    6.8637  -14.1582   25.9184 C   0  0  0  0  0  0  0  0  0  0  0  0
    5.7698  -13.4769   26.4007 C   0  0  0  0  0  0  0  0  0  0  0  0
    5.9686  -12.4567   27.3001 C   0  0  0  0  0  0  0  0  0  0  0  0
    7.2376  -12.1290   27.7053 C   0  0  0  0  0  0  0  0  0  0  0  0
    8.3217  -12.8145   27.2184 C   0  0  0  0  0  0  0  0  0  0  0  0
    8.5943  -16.7948   26.7092 C   0  0  0  0  0  0  0  0  0  0  0  0
    7.4400  -17.2659   26.7843 O   0  0  0  0  0  0  0  0  0  0  0  0
    9.4668  -16.9994   27.7618 O   0  0  0  0  0  0  0  0  0  0  0  0
  2  1  1  6
  2  3  1  0
  4  6  1  0
  4  2  1  0
  4  5  1  6
  6  8  1  0
  7  6  2  0
  8  9  1  0
  9 10  1  0
 10 11  2  0
 10 12  1  0
 12 13  1  0
 13 21  1  0
 13 14  1  1
 15 14  1  0
 15 16  2  0
 17 16  1  0
 18 17  2  0
 19 20  2  0
 19 18  1  0
 20 15  1  0
 21 22  2  0
 21 23  1  0
M  END
$$$$
