VGF.pdb
     RDKit          3D

 23 23  0  0  1  0  0  0  0  0999 V2000
    7.9155  -12.9747   21.8077 C   0  0  0  0  0  0  0  0  0  0  0  0
    8.0746  -13.2662   20.3234 C   0  0  2  0  0  0  0  0  0  0  0  0
    6.9853  -12.6656   19.5012 C   0  0  0  0  0  0  0  0  0  0  0  0
    8.2157  -14.7580   20.1379 C   0  0  2  0  0  0  0  0  0  0  0  0
    6.9925  -15.3994   20.4864 N   0  0  0  0  0  0  0  0  0  0  0  0
    9.3450  -15.3322   20.8515 C   0  0  0  0  0  0  0  0  0  0  0  0
   10.5498  -15.0016   20.7174 O   0  0  0  0  0  0  0  0  0  0  0  0
    9.0914  -16.3852   21.8132 N   0  0  0  0  0  0  0  0  0  0  0  0
   10.1626  -17.1514   22.3530 C   0  0  0  0  0  0  0  0  0  0  0  0
   10.4949  -16.8418   23.7509 C   0  0  0  0  0  0  0  0  0  0  0  0
   11.5781  -17.3500   24.2569 O   0  0  0  0  0  0  0  0  0  0  0  0
    9.7179  -16.0233   24.5995 N   0  0  0  0  0  0  0  0  0  0  0  0
   10.1150  -15.7901   25.9971 C   0  0  1  0  0  0  0  0  0  0  0  0
    9.9424  -14.3086   26.2204 C   0  0  0  0  0  0  0  0  0  0  0  0
    8.5381  -13.8612   26.2134 C   0  0  0  0  0  0  0  0  0  0  0  0
    7.6531  -14.3862   25.3062 C   0  0  0  0  0  0  0  0  0  0  0  0
    6.3369  -13.9859   25.2829 C   0  0  0  0  0  0  0  0  0  0  0  0
    5.9153  -13.0430   26.1898 C   0  0  0  0  0  0  0  0  0  0  0  0
    6.7963  -12.5148   27.0991 C   0  0  0  0  0  0  0  0  0  0  0  0
    8.1067  -12.9208   27.1140 C   0  0  0  0  0  0  0  0  0  0  0  0
    9.2668  -16.6160   26.8881 C   0  0  0  0  0  0  0  0  0  0  0  0
    9.4469  -16.5821   28.1235 O   0  0  0  0  0  0  0  0  0  0  0  0
    8.2712  -17.4308   26.3823 O   0  0  0  0  0  0  0  0  0  0  0  0
  2  1  1  1
  2  3  1  0
  4  6  1  0
  4  2  1  0
  4  5  1  1
  6  8  1  0
  7  6  2  0
  8  9  1  0
  9 10  1  0
 10 11  2  0
 10 12  1  0
 12 13  1  0
 13 21  1  0
 13 14  1  1
 15 14  1  0
 15 16  2  0
 17 16  1  0
 18 17  2  0
 19 20  2  0
 19 18  1  0
 20 15  1  0
 21 22  2  0
 21 23  1  0
M  END
$$$$
