VGF.pdb
     RDKit          3D

 23 23  0  0  1  0  0  0  0  0999 V2000
    7.9054  -12.6850   21.1770 C   0  0  0  0  0  0  0  0  0  0  0  0
    8.4223  -13.2979   19.8845 C   0  0  2  0  0  0  0  0  0  0  0  0
    8.1864  -12.4228   18.7005 C   0  0  0  0  0  0  0  0  0  0  0  0
    7.8335  -14.6805   19.7377 C   0  0  2  0  0  0  0  0  0  0  0  0
    6.4212  -14.5827   19.5796 N   0  0  0  0  0  0  0  0  0  0  0  0
    8.1911  -15.5865   20.8174 C   0  0  0  0  0  0  0  0  0  0  0  0
    9.3326  -16.0653   21.0333 O   0  0  0  0  0  0  0  0  0  0  0  0
    7.1586  -15.9942   21.7477 N   0  0  0  0  0  0  0  0  0  0  0  0
    7.4492  -16.8994   22.8069 C   0  0  0  0  0  0  0  0  0  0  0  0
    8.2357  -16.3240   23.9073 C   0  0  0  0  0  0  0  0  0  0  0  0
    9.2844  -15.6156   23.6142 O   0  0  0  0  0  0  0  0  0  0  0  0
    7.9364  -16.4830   25.2780 N   0  0  0  0  0  0  0  0  0  0  0  0
    8.8627  -16.0021   26.3155 C   0  0  1  0  0  0  0  0  0  0  0  0
    7.9925  -15.3361   27.3516 C   0  0  0  0  0  0  0  0  0  0  0  0
    7.4672  -14.0225   26.9381 C   0  0  0  0  0  0  0  0  0  0  0  0
    6.1531  -13.8927   26.5668 C   0  0  0  0  0  0  0  0  0  0  0  0
    5.6400  -12.6760   26.1800 C   0  0  0  0  0  0  0  0  0  0  0  0
    6.4698  -11.5803   26.1701 C   0  0  0  0  0  0  0  0  0  0  0  0
    7.7848  -11.7047   26.5406 C   0  0  0  0  0  0  0  0  0  0  0  0
    8.2866  -12.9225   26.9247 C   0  0  0  0  0  0  0  0  0  0  0  0
    9.6312  -17.1500   26.8512 C   0  0  0  0  0  0  0  0  0  0  0  0
    9.2179  -18.3141   26.6673 O   0  0  0  0  0  0  0  0  0  0  0  0
   10.8058  -16.9639   27.5560 O   0  0  0  0  0  0  0  0  0  0  0  0
  2  1  1  1
  2  3  1  0
  4  6  1  0
  4  2  1  0
  4  5  1  1
  6  8  1  0
  7  6  2  0
  8  9  1  0
  9 10  1  0
 10 11  2  0
 10 12  1  0
 12 13  1  0
 13 21  1  0
 13 14  1  1
 15 14  1  0
 15 16  2  0
 17 16  1  0
 18 17  2  0
 19 20  2  0
 19 18  1  0
 20 15  1  0
 21 22  2  0
 21 23  1  0
M  END
$$$$
