VGF.pdb
     RDKit          3D

 23 23  0  0  1  0  0  0  0  0999 V2000
    8.1370  -13.0583   21.7243 C   0  0  0  0  0  0  0  0  0  0  0  0
    7.8211  -14.1671   20.7322 C   0  0  2  0  0  0  0  0  0  0  0  0
    6.4299  -14.0829   20.2023 C   0  0  0  0  0  0  0  0  0  0  0  0
    8.1405  -15.4949   21.3760 C   0  0  2  0  0  0  0  0  0  0  0  0
    7.2532  -15.7213   22.4670 N   0  0  0  0  0  0  0  0  0  0  0  0
    9.5312  -15.6308   21.7783 C   0  0  0  0  0  0  0  0  0  0  0  0
   10.5206  -15.7006   21.0068 O   0  0  0  0  0  0  0  0  0  0  0  0
    9.8383  -15.6944   23.1923 N   0  0  0  0  0  0  0  0  0  0  0  0
   11.1800  -15.8555   23.6393 C   0  0  0  0  0  0  0  0  0  0  0  0
   11.3518  -15.7977   25.0979 C   0  0  0  0  0  0  0  0  0  0  0  0
   12.5350  -16.0092   25.5907 O   0  0  0  0  0  0  0  0  0  0  0  0
   10.3167  -15.5264   26.0191 N   0  0  0  0  0  0  0  0  0  0  0  0
   10.5601  -15.5834   27.4693 C   0  0  1  0  0  0  0  0  0  0  0  0
   10.0055  -14.2933   28.0193 C   0  0  0  0  0  0  0  0  0  0  0  0
    8.8750  -13.7491   27.2459 C   0  0  0  0  0  0  0  0  0  0  0  0
    9.0042  -12.5526   26.5877 C   0  0  0  0  0  0  0  0  0  0  0  0
    7.9634  -12.0266   25.8572 C   0  0  0  0  0  0  0  0  0  0  0  0
    6.7799  -12.7227   25.7947 C   0  0  0  0  0  0  0  0  0  0  0  0
    6.6456  -13.9198   26.4511 C   0  0  0  0  0  0  0  0  0  0  0  0
    7.6895  -14.4357   27.1768 C   0  0  0  0  0  0  0  0  0  0  0  0
    9.8986  -16.7862   28.0267 C   0  0  0  0  0  0  0  0  0  0  0  0
    9.1662  -17.4866   27.2966 O   0  0  0  0  0  0  0  0  0  0  0  0
   10.0731  -17.1573   29.3469 O   0  0  0  0  0  0  0  0  0  0  0  0
  2  1  1  1
  2  3  1  0
  4  6  1  0
  4  2  1  0
  4  5  1  1
  6  8  1  0
  7  6  2  0
  8  9  1  0
  9 10  1  0
 10 11  2  0
 10 12  1  0
 12 13  1  0
 13 21  1  0
 13 14  1  1
 15 14  1  0
 15 16  2  0
 17 16  1  0
 18 17  2  0
 19 20  2  0
 19 18  1  0
 20 15  1  0
 21 22  2  0
 21 23  1  0
M  END
$$$$
