VGF.pdb
     RDKit          3D

 23 23  0  0  1  0  0  0  0  0999 V2000
    7.9108  -12.7466   21.5697 C   0  0  0  0  0  0  0  0  0  0  0  0
    8.2822  -13.2354   20.1781 C   0  0  2  0  0  0  0  0  0  0  0  0
    7.5738  -12.4876   19.0999 C   0  0  0  0  0  0  0  0  0  0  0  0
    8.0645  -14.7283   20.1179 C   0  0  2  0  0  0  0  0  0  0  0  0
    6.6760  -15.0136   20.2579 N   0  0  0  0  0  0  0  0  0  0  0  0
    8.8650  -15.4754   21.0747 C   0  0  0  0  0  0  0  0  0  0  0  0
   10.1189  -15.5551   21.0871 O   0  0  0  0  0  0  0  0  0  0  0  0
    8.1841  -16.2065   22.1233 N   0  0  0  0  0  0  0  0  0  0  0  0
    8.9127  -17.0269   23.0300 C   0  0  0  0  0  0  0  0  0  0  0  0
    9.3306  -16.3526   24.2674 C   0  0  0  0  0  0  0  0  0  0  0  0
   10.2168  -15.4060   24.1876 O   0  0  0  0  0  0  0  0  0  0  0  0
    8.8373  -16.6572   25.5548 N   0  0  0  0  0  0  0  0  0  0  0  0
    9.4963  -16.1323   26.7613 C   0  0  1  0  0  0  0  0  0  0  0  0
    8.3939  -15.5094   27.5807 C   0  0  0  0  0  0  0  0  0  0  0  0
    7.7904  -14.3149   26.9634 C   0  0  0  0  0  0  0  0  0  0  0  0
    6.6158  -14.4214   26.2627 C   0  0  0  0  0  0  0  0  0  0  0  0
    6.0325  -13.3195   25.6805 C   0  0  0  0  0  0  0  0  0  0  0  0
    6.6481  -12.0976   25.8111 C   0  0  0  0  0  0  0  0  0  0  0  0
    7.8228  -11.9857   26.5108 C   0  0  0  0  0  0  0  0  0  0  0  0
    8.3962  -13.0906   27.0877 C   0  0  0  0  0  0  0  0  0  0  0  0
   10.1859  -17.2417   27.4606 C   0  0  0  0  0  0  0  0  0  0  0  0
   10.8818  -17.0023   28.4698 O   0  0  0  0  0  0  0  0  0  0  0  0
   10.0777  -18.5478   27.0208 O   0  0  0  0  0  0  0  0  0  0  0  0
  2  1  1  1
  2  3  1  0
  4  6  1  0
  4  2  1  0
  4  5  1  1
  6  8  1  0
  7  6  2  0
  8  9  1  0
  9 10  1  0
 10 11  2  0
 10 12  1  0
 12 13  1  0
 13 21  1  0
 13 14  1  1
 15 14  1  0
 15 16  2  0
 17 16  1  0
 18 17  2  0
 19 20  2  0
 19 18  1  0
 20 15  1  0
 21 22  2  0
 21 23  1  0
M  END
$$$$
