VGF.pdb
     RDKit          3D

 23 23  0  0  1  0  0  0  0  0999 V2000
    8.2321  -13.3698   18.6783 C   0  0  0  0  0  0  0  0  0  0  0  0
    7.2993  -13.7258   19.8257 C   0  0  2  0  0  0  0  0  0  0  0  0
    7.3138  -12.7062   20.9136 C   0  0  0  0  0  0  0  0  0  0  0  0
    7.6321  -15.1192   20.3025 C   0  0  2  0  0  0  0  0  0  0  0  0
    6.6225  -15.5696   21.2006 N   0  0  0  0  0  0  0  0  0  0  0  0
    8.9594  -15.2371   20.8845 C   0  0  0  0  0  0  0  0  0  0  0  0
   10.0486  -15.1702   20.2615 O   0  0  0  0  0  0  0  0  0  0  0  0
    9.0710  -15.4520   22.3125 N   0  0  0  0  0  0  0  0  0  0  0  0
   10.3464  -15.5322   22.9392 C   0  0  0  0  0  0  0  0  0  0  0  0
   10.3037  -15.7627   24.3902 C   0  0  0  0  0  0  0  0  0  0  0  0
   11.4081  -15.6587   25.0663 O   0  0  0  0  0  0  0  0  0  0  0  0
    9.1395  -16.0931   25.1176 N   0  0  0  0  0  0  0  0  0  0  0  0
    9.1917  -16.3068   26.5727 C   0  0  1  0  0  0  0  0  0  0  0  0
    7.8689  -15.8083   27.0982 C   0  0  0  0  0  0  0  0  0  0  0  0
    7.5457  -14.4281   26.6947 C   0  0  0  0  0  0  0  0  0  0  0  0
    8.1480  -13.3683   27.3238 C   0  0  0  0  0  0  0  0  0  0  0  0
    7.8640  -12.0714   26.9620 C   0  0  0  0  0  0  0  0  0  0  0  0
    6.9595  -11.8488   25.9514 C   0  0  0  0  0  0  0  0  0  0  0  0
    6.3544  -12.9052   25.3190 C   0  0  0  0  0  0  0  0  0  0  0  0
    6.6446  -14.1945   25.6872 C   0  0  0  0  0  0  0  0  0  0  0  0
    9.4219  -17.7449   26.8451 C   0  0  0  0  0  0  0  0  0  0  0  0
    9.5626  -18.1392   28.0219 O   0  0  0  0  0  0  0  0  0  0  0  0
    9.4851  -18.6707   25.8205 O   0  0  0  0  0  0  0  0  0  0  0  0
  2  1  1  6
  2  3  1  0
  4  6  1  0
  4  2  1  0
  4  5  1  1
  6  8  1  0
  7  6  2  0
  8  9  1  0
  9 10  1  0
 10 11  2  0
 10 12  1  0
 12 13  1  0
 13 21  1  0
 13 14  1  1
 15 14  1  0
 15 16  2  0
 17 16  1  0
 18 17  2  0
 19 20  2  0
 19 18  1  0
 20 15  1  0
 21 22  2  0
 21 23  1  0
M  END
$$$$
