VGF.pdb
     RDKit          3D

 23 23  0  0  1  0  0  0  0  0999 V2000
    6.4132  -16.4443   21.5123 C   0  0  0  0  0  0  0  0  0  0  0  0
    6.7949  -16.6634   20.0564 C   0  0  2  0  0  0  0  0  0  0  0  0
    5.8379  -17.5554   19.3409 C   0  0  0  0  0  0  0  0  0  0  0  0
    8.2243  -17.1465   20.0006 C   0  0  2  0  0  0  0  0  0  0  0  0
    8.2977  -18.4773   20.5030 N   0  0  0  0  0  0  0  0  0  0  0  0
    9.1661  -16.2663   20.6734 C   0  0  0  0  0  0  0  0  0  0  0  0
    9.4510  -15.0904   20.3343 O   0  0  0  0  0  0  0  0  0  0  0  0
    9.8566  -16.7607   21.8467 N   0  0  0  0  0  0  0  0  0  0  0  0
   10.7452  -15.9214   22.5760 C   0  0  0  0  0  0  0  0  0  0  0  0
   10.4513  -15.8180   24.0125 C   0  0  0  0  0  0  0  0  0  0  0  0
   11.3365  -15.2671   24.7874 O   0  0  0  0  0  0  0  0  0  0  0  0
    9.2650  -16.2770   24.6252 N   0  0  0  0  0  0  0  0  0  0  0  0
    9.0757  -16.1723   26.0808 C   0  0  1  0  0  0  0  0  0  0  0  0
    7.6300  -15.7868   26.2698 C   0  0  0  0  0  0  0  0  0  0  0  0
    7.4041  -14.3331   26.3581 C   0  0  0  0  0  0  0  0  0  0  0  0
    6.1535  -13.8471   26.6436 C   0  0  0  0  0  0  0  0  0  0  0  0
    5.9196  -12.4941   26.7339 C   0  0  0  0  0  0  0  0  0  0  0  0
    6.9662  -11.6263   26.5324 C   0  0  0  0  0  0  0  0  0  0  0  0
    8.2188  -12.1072   26.2467 C   0  0  0  0  0  0  0  0  0  0  0  0
    8.4415  -13.4581   26.1589 C   0  0  0  0  0  0  0  0  0  0  0  0
    9.4200  -17.4684   26.7106 C   0  0  0  0  0  0  0  0  0  0  0  0
    9.5871  -18.4802   25.9977 O   0  0  0  0  0  0  0  0  0  0  0  0
    9.5628  -17.5879   28.0805 O   0  0  0  0  0  0  0  0  0  0  0  0
  2  1  1  1
  2  3  1  0
  4  6  1  0
  4  2  1  0
  4  5  1  1
  6  8  1  0
  7  6  2  0
  8  9  1  0
  9 10  1  0
 10 11  2  0
 10 12  1  0
 12 13  1  0
 13 21  1  0
 13 14  1  6
 15 14  1  0
 15 16  2  0
 17 16  1  0
 18 17  2  0
 19 20  2  0
 19 18  1  0
 20 15  1  0
 21 22  2  0
 21 23  1  0
M  END
$$$$
