HLE.pdb
     RDKit          3D

 28 28  0  0  1  0  0  0  0  0999 V2000
    8.1466  -15.9773   20.8855 N   0  0  0  0  0  0  0  0  0  0  0  0
    8.7435  -14.6950   21.2070 C   0  0  1  0  0  0  0  0  0  0  0  0
    7.8474  -13.6118   20.7185 C   0  0  0  0  0  0  0  0  0  0  0  0
    7.9577  -13.5480   19.2380 C   0  0  0  0  0  0  0  0  0  0  0  0
    8.4367  -12.5156   18.4343 C   0  0  0  0  0  0  0  0  0  0  0  0
    8.3699  -12.8421   17.1472 N   0  0  0  0  0  0  0  0  0  0  0  0
    7.8522  -14.0779   17.0963 C   0  0  0  0  0  0  0  0  0  0  0  0
    7.5994  -14.5149   18.3459 N   0  0  0  0  0  0  0  0  0  0  0  0
    8.9620  -14.6607   22.6753 C   0  0  0  0  0  0  0  0  0  0  0  0
   10.1028  -14.3934   23.1591 O   0  0  0  0  0  0  0  0  0  0  0  0
    5.4426  -12.4213   26.4105 C   0  0  0  0  0  0  0  0  0  0  0  0
    6.7037  -12.8673   25.7119 C   0  0  1  0  0  0  0  0  0  0  0  0
    7.8448  -12.1229   26.4212 C   0  0  0  0  0  0  0  0  0  0  0  0
    6.9359  -14.3280   25.7854 C   0  0  0  0  0  0  0  0  0  0  0  0
    8.0856  -14.8877   25.0540 C   0  0  2  0  0  0  0  0  0  0  0  0
    7.9309  -14.9203   23.6173 N   0  0  0  0  0  0  0  0  0  0  0  0
    8.6619  -16.1309   25.5826 C   0  0  0  0  0  0  0  0  0  0  0  0
    7.9446  -17.1652   25.5632 O   0  0  0  0  0  0  0  0  0  0  0  0
    9.9745  -16.2536   26.1100 N   0  0  0  0  0  0  0  0  0  0  0  0
   10.4793  -17.5059   26.6105 C   0  0  1  0  0  0  0  0  0  0  0  0
   11.8519  -17.8652   26.1345 C   0  0  0  0  0  0  0  0  0  0  0  0
   11.9855  -18.8663   25.0682 C   0  0  0  0  0  0  0  0  0  0  0  0
   13.3120  -19.2241   24.5933 C   0  0  0  0  0  0  0  0  0  0  0  0
   14.3976  -18.8764   25.1070 O   0  0  0  0  0  0  0  0  0  0  0  0
   10.3891  -17.6211   28.0995 C   0  0  0  0  0  0  0  0  0  0  0  0
    9.9721  -16.6664   28.7718 O   0  0  0  0  0  0  0  0  0  0  0  0
   13.3456  -20.0445   23.4384 O   0  0  0  0  0  0  0  0  0  0  0  0
   10.7687  -18.7864   28.7274 O   0  0  0  0  0  0  0  0  0  0  0  0
  2  1  1  1
  3  4  1  0
  3  2  1  0
  4  8  1  0
  5  4  2  0
  5  6  1  0
  6  7  1  0
  8  7  2  0
  9  2  1  0
  9 16  1  0
 10  9  2  0
 12 13  1  1
 12 11  1  0
 15 14  1  1
 14 12  1  0
 15 16  1  0
 17 15  1  0
 18 17  2  0
 19 17  1  0
 20 25  1  0
 20 19  1  0
 20 21  1  1
 22 21  1  0
 23 22  1  0
 24 23  2  0
 25 28  1  0
 26 25  2  0
 27 23  1  0
M  END
$$$$
