HLE.pdb
     RDKit          3D

 28 28  0  0  1  0  0  0  0  0999 V2000
    7.6316  -15.9096   21.1876 N   0  0  0  0  0  0  0  0  0  0  0  0
    8.6985  -14.9449   21.3749 C   0  0  1  0  0  0  0  0  0  0  0  0
    8.3517  -13.6967   20.6424 C   0  0  0  0  0  0  0  0  0  0  0  0
    8.3311  -14.0005   19.1879 C   0  0  0  0  0  0  0  0  0  0  0  0
    8.7584  -15.1471   18.5216 C   0  0  0  0  0  0  0  0  0  0  0  0
    8.5741  -15.0337   17.2098 N   0  0  0  0  0  0  0  0  0  0  0  0
    8.0303  -13.8250   17.0068 C   0  0  0  0  0  0  0  0  0  0  0  0
    7.8784  -13.1926   18.1872 N   0  0  0  0  0  0  0  0  0  0  0  0
    8.8649  -14.7426   22.8366 C   0  0  0  0  0  0  0  0  0  0  0  0
    9.9144  -14.2088   23.3061 O   0  0  0  0  0  0  0  0  0  0  0  0
    5.6489  -12.4349   26.6340 C   0  0  0  0  0  0  0  0  0  0  0  0
    6.8563  -12.9804   25.9117 C   0  0  1  0  0  0  0  0  0  0  0  0
    8.0679  -12.3463   26.6112 C   0  0  0  0  0  0  0  0  0  0  0  0
    6.9616  -14.4566   25.9663 C   0  0  0  0  0  0  0  0  0  0  0  0
    8.0555  -15.1044   25.2224 C   0  0  2  0  0  0  0  0  0  0  0  0
    7.8817  -15.1258   23.7876 N   0  0  0  0  0  0  0  0  0  0  0  0
    8.5398  -16.3883   25.7460 C   0  0  0  0  0  0  0  0  0  0  0  0
    7.6884  -17.2855   25.9801 O   0  0  0  0  0  0  0  0  0  0  0  0
    9.9022  -16.6948   26.0030 N   0  0  0  0  0  0  0  0  0  0  0  0
   10.3081  -17.9709   26.5324 C   0  0  1  0  0  0  0  0  0  0  0  0
   11.5256  -18.5587   25.8905 C   0  0  0  0  0  0  0  0  0  0  0  0
   11.6849  -18.4281   24.4364 C   0  0  0  0  0  0  0  0  0  0  0  0
   12.8748  -18.9707   23.8016 C   0  0  0  0  0  0  0  0  0  0  0  0
   13.8248  -19.5405   24.3812 O   0  0  0  0  0  0  0  0  0  0  0  0
   10.4438  -17.9711   28.0224 C   0  0  0  0  0  0  0  0  0  0  0  0
   10.3128  -16.9144   28.6578 O   0  0  0  0  0  0  0  0  0  0  0  0
   12.9349  -18.8253   22.3934 O   0  0  0  0  0  0  0  0  0  0  0  0
   10.7143  -19.1434   28.6923 O   0  0  0  0  0  0  0  0  0  0  0  0
  2  1  1  1
  3  4  1  0
  3  2  1  0
  4  8  1  0
  5  4  2  0
  5  6  1  0
  6  7  1  0
  8  7  2  0
  9  2  1  0
  9 16  1  0
 10  9  2  0
 12 13  1  1
 12 11  1  0
 15 14  1  1
 14 12  1  0
 15 16  1  0
 17 15  1  0
 18 17  2  0
 19 17  1  0
 20 25  1  0
 20 19  1  0
 20 21  1  6
 22 21  1  0
 23 22  1  0
 24 23  2  0
 25 28  1  0
 26 25  2  0
 27 23  1  0
M  END
$$$$
