HLE.pdb
     RDKit          3D

 28 28  0  0  1  0  0  0  0  0999 V2000
    8.9048  -15.1534   20.3175 N   0  0  0  0  0  0  0  0  0  0  0  0
    8.0961  -15.8547   21.2963 C   0  0  1  0  0  0  0  0  0  0  0  0
    8.1860  -17.3170   21.0348 C   0  0  0  0  0  0  0  0  0  0  0  0
    7.4909  -17.6048   19.7533 C   0  0  0  0  0  0  0  0  0  0  0  0
    6.5029  -16.8688   19.1027 C   0  0  0  0  0  0  0  0  0  0  0  0
    6.1315  -17.4624   17.9725 N   0  0  0  0  0  0  0  0  0  0  0  0
    6.8647  -18.5806   17.8733 C   0  0  0  0  0  0  0  0  0  0  0  0
    7.6864  -18.6793   18.9370 N   0  0  0  0  0  0  0  0  0  0  0  0
    8.5885  -15.4661   22.6422 C   0  0  0  0  0  0  0  0  0  0  0  0
    9.8290  -15.4446   22.9020 O   0  0  0  0  0  0  0  0  0  0  0  0
    5.7041  -12.1848   26.3324 C   0  0  0  0  0  0  0  0  0  0  0  0
    6.8241  -12.7873   25.5201 C   0  0  1  0  0  0  0  0  0  0  0  0
    8.0345  -11.8717   25.7570 C   0  0  0  0  0  0  0  0  0  0  0  0
    7.1604  -14.1748   25.9136 C   0  0  0  0  0  0  0  0  0  0  0  0
    8.1233  -14.9196   25.0841 C   0  0  2  0  0  0  0  0  0  0  0  0
    7.7224  -15.1011   23.7073 N   0  0  0  0  0  0  0  0  0  0  0  0
    8.6889  -16.1430   25.6675 C   0  0  0  0  0  0  0  0  0  0  0  0
    7.9430  -17.1537   25.7491 O   0  0  0  0  0  0  0  0  0  0  0  0
   10.0209  -16.2716   26.1424 N   0  0  0  0  0  0  0  0  0  0  0  0
   10.5211  -17.5111   26.6781 C   0  0  1  0  0  0  0  0  0  0  0  0
   11.9067  -17.8704   26.2409 C   0  0  0  0  0  0  0  0  0  0  0  0
   12.5169  -19.0938   26.7775 C   0  0  0  0  0  0  0  0  0  0  0  0
   13.8860  -19.4216   26.4146 C   0  0  0  0  0  0  0  0  0  0  0  0
   14.2617  -19.9249   25.3336 O   0  0  0  0  0  0  0  0  0  0  0  0
   10.3969  -17.5990   28.1665 C   0  0  0  0  0  0  0  0  0  0  0  0
   10.0933  -16.5929   28.8245 O   0  0  0  0  0  0  0  0  0  0  0  0
   14.8637  -19.1321   27.3986 O   0  0  0  0  0  0  0  0  0  0  0  0
   10.6192  -18.7961   28.8097 O   0  0  0  0  0  0  0  0  0  0  0  0
  2  1  1  6
  3  4  1  0
  3  2  1  0
  4  8  1  0
  5  4  2  0
  5  6  1  0
  6  7  1  0
  8  7  2  0
  9  2  1  0
  9 16  1  0
 10  9  2  0
 12 13  1  1
 12 11  1  0
 15 14  1  1
 14 12  1  0
 15 16  1  0
 17 15  1  0
 18 17  2  0
 19 17  1  0
 20 25  1  0
 20 19  1  0
 20 21  1  1
 22 21  1  0
 23 22  1  0
 24 23  2  0
 25 28  1  0
 26 25  2  0
 27 23  1  0
M  END
$$$$
