HLE.pdb
     RDKit          3D

 28 28  0  0  1  0  0  0  0  0999 V2000
    7.6427  -16.2370   20.7456 N   0  0  0  0  0  0  0  0  0  0  0  0
    9.0685  -16.2207   21.0119 C   0  0  1  0  0  0  0  0  0  0  0  0
    9.7506  -15.4596   19.9301 C   0  0  0  0  0  0  0  0  0  0  0  0
    8.7568  -14.5507   19.3019 C   0  0  0  0  0  0  0  0  0  0  0  0
    7.7149  -14.8541   18.4280 C   0  0  0  0  0  0  0  0  0  0  0  0
    7.0452  -13.7581   18.0847 N   0  0  0  0  0  0  0  0  0  0  0  0
    7.6356  -12.7378   18.7236 C   0  0  0  0  0  0  0  0  0  0  0  0
    8.6663  -13.1993   19.4590 N   0  0  0  0  0  0  0  0  0  0  0  0
    9.2634  -15.6298   22.3602 C   0  0  0  0  0  0  0  0  0  0  0  0
   10.4250  -15.4799   22.8451 O   0  0  0  0  0  0  0  0  0  0  0  0
    8.4123  -12.3675   26.6576 C   0  0  0  0  0  0  0  0  0  0  0  0
    7.3027  -13.3583   26.4041 C   0  0  1  0  0  0  0  0  0  0  0  0
    6.0049  -12.6078   26.7388 C   0  0  0  0  0  0  0  0  0  0  0  0
    7.2534  -13.8468   25.0069 C   0  0  0  0  0  0  0  0  0  0  0  0
    8.3024  -14.7783   24.5577 C   0  0  2  0  0  0  0  0  0  0  0  0
    8.1856  -15.2026   23.1809 N   0  0  0  0  0  0  0  0  0  0  0  0
    8.6273  -15.8908   25.4599 C   0  0  0  0  0  0  0  0  0  0  0  0
    7.7085  -16.7024   25.7457 O   0  0  0  0  0  0  0  0  0  0  0  0
    9.9068  -16.1220   26.0305 N   0  0  0  0  0  0  0  0  0  0  0  0
   10.1839  -17.2873   26.8297 C   0  0  1  0  0  0  0  0  0  0  0  0
   11.3874  -18.0688   26.4046 C   0  0  0  0  0  0  0  0  0  0  0  0
   11.4463  -18.5725   25.0263 C   0  0  0  0  0  0  0  0  0  0  0  0
   12.7420  -18.7597   24.3942 C   0  0  0  0  0  0  0  0  0  0  0  0
   12.9444  -19.2248   23.2514 O   0  0  0  0  0  0  0  0  0  0  0  0
   10.2351  -16.9939   28.2959 C   0  0  0  0  0  0  0  0  0  0  0  0
   10.1699  -15.8225   28.6972 O   0  0  0  0  0  0  0  0  0  0  0  0
   13.8613  -18.3694   25.1704 O   0  0  0  0  0  0  0  0  0  0  0  0
   10.3547  -18.0226   29.2035 O   0  0  0  0  0  0  0  0  0  0  0  0
  2  1  1  6
  3  4  1  0
  3  2  1  0
  4  8  1  0
  5  4  2  0
  5  6  1  0
  6  7  1  0
  8  7  2  0
  9  2  1  0
  9 16  1  0
 10  9  2  0
 12 13  1  6
 12 11  1  0
 15 14  1  1
 14 12  1  0
 15 16  1  0
 17 15  1  0
 18 17  2  0
 19 17  1  0
 20 25  1  0
 20 19  1  0
 20 21  1  6
 22 21  1  0
 23 22  1  0
 24 23  2  0
 25 28  1  0
 26 25  2  0
 27 23  1  0
M  END
$$$$
