HLE.pdb
     RDKit          3D

 28 28  0  0  1  0  0  0  0  0999 V2000
    7.4974  -15.1728   21.3965 N   0  0  0  0  0  0  0  0  0  0  0  0
    8.9102  -15.0179   21.6866 C   0  0  1  0  0  0  0  0  0  0  0  0
    9.3844  -13.7371   21.0954 C   0  0  0  0  0  0  0  0  0  0  0  0
    8.7767  -13.5930   19.7470 C   0  0  0  0  0  0  0  0  0  0  0  0
    7.6688  -12.8441   19.3559 C   0  0  0  0  0  0  0  0  0  0  0  0
    7.4378  -12.9778   18.0534 N   0  0  0  0  0  0  0  0  0  0  0  0
    8.3818  -13.8064   17.5844 C   0  0  0  0  0  0  0  0  0  0  0  0
    9.1938  -14.1843   18.5915 N   0  0  0  0  0  0  0  0  0  0  0  0
    9.0720  -15.0811   23.1613 C   0  0  0  0  0  0  0  0  0  0  0  0
   10.2102  -14.9346   23.6996 O   0  0  0  0  0  0  0  0  0  0  0  0
    5.7817  -12.4904   26.6481 C   0  0  0  0  0  0  0  0  0  0  0  0
    6.9702  -13.1402   25.9829 C   0  0  1  0  0  0  0  0  0  0  0  0
    8.2014  -12.4514   26.5904 C   0  0  0  0  0  0  0  0  0  0  0  0
    7.0499  -14.6015   26.2102 C   0  0  0  0  0  0  0  0  0  0  0  0
    8.0858  -15.3624   25.4907 C   0  0  2  0  0  0  0  0  0  0  0  0
    7.9867  -15.3059   24.0498 N   0  0  0  0  0  0  0  0  0  0  0  0
    8.3669  -16.7187   25.9791 C   0  0  0  0  0  0  0  0  0  0  0  0
    7.3867  -17.4505   26.2762 O   0  0  0  0  0  0  0  0  0  0  0  0
    9.6666  -17.2687   26.1356 N   0  0  0  0  0  0  0  0  0  0  0  0
    9.8796  -18.5549   26.7471 C   0  0  1  0  0  0  0  0  0  0  0  0
   10.9020  -19.4114   26.0682 C   0  0  0  0  0  0  0  0  0  0  0  0
   11.3797  -19.0133   24.7377 C   0  0  0  0  0  0  0  0  0  0  0  0
   11.7524  -20.0421   23.7806 C   0  0  0  0  0  0  0  0  0  0  0  0
   11.0317  -20.4914   22.8631 O   0  0  0  0  0  0  0  0  0  0  0  0
   10.1538  -18.4677   28.2153 C   0  0  0  0  0  0  0  0  0  0  0  0
   10.3400  -17.3634   28.7476 O   0  0  0  0  0  0  0  0  0  0  0  0
   13.0611  -20.5654   23.9266 O   0  0  0  0  0  0  0  0  0  0  0  0
   10.2004  -19.6123   28.9795 O   0  0  0  0  0  0  0  0  0  0  0  0
  2  1  1  1
  3  4  1  0
  3  2  1  0
  4  8  1  0
  5  4  2  0
  5  6  1  0
  6  7  1  0
  8  7  2  0
  9  2  1  0
  9 16  1  0
 10  9  2  0
 12 13  1  1
 12 11  1  0
 15 14  1  1
 14 12  1  0
 15 16  1  0
 17 15  1  0
 18 17  2  0
 19 17  1  0
 20 25  1  0
 20 19  1  0
 20 21  1  6
 22 21  1  0
 23 22  1  0
 24 23  2  0
 25 28  1  0
 26 25  2  0
 27 23  1  0
M  END
$$$$
