HLE.pdb
     RDKit          3D

 28 28  0  0  1  0  0  0  0  0999 V2000
    9.7178  -16.4000   20.3679 N   0  0  0  0  0  0  0  0  0  0  0  0
    8.5647  -16.5617   21.2329 C   0  0  1  0  0  0  0  0  0  0  0  0
    8.2645  -18.0131   21.3671 C   0  0  0  0  0  0  0  0  0  0  0  0
    7.6820  -18.4889   20.0854 C   0  0  0  0  0  0  0  0  0  0  0  0
    7.5147  -17.8013   18.8852 C   0  0  0  0  0  0  0  0  0  0  0  0
    6.9493  -18.5771   17.9653 N   0  0  0  0  0  0  0  0  0  0  0  0
    6.7431  -19.7670   18.5481 C   0  0  0  0  0  0  0  0  0  0  0  0
    7.1787  -19.7286   19.8229 N   0  0  0  0  0  0  0  0  0  0  0  0
    8.8819  -15.9043   22.5260 C   0  0  0  0  0  0  0  0  0  0  0  0
   10.0570  -15.9309   23.0005 O   0  0  0  0  0  0  0  0  0  0  0  0
    8.4710  -12.1781   26.5669 C   0  0  0  0  0  0  0  0  0  0  0  0
    7.2880  -13.1034   26.4197 C   0  0  1  0  0  0  0  0  0  0  0  0
    6.0580  -12.2440   26.7481 C   0  0  0  0  0  0  0  0  0  0  0  0
    7.1508  -13.6770   25.0613 C   0  0  0  0  0  0  0  0  0  0  0  0
    8.1247  -14.6965   24.6345 C   0  0  2  0  0  0  0  0  0  0  0  0
    7.9115  -15.2169   23.3030 N   0  0  0  0  0  0  0  0  0  0  0  0
    8.4408  -15.7535   25.6039 C   0  0  0  0  0  0  0  0  0  0  0  0
    7.5208  -16.5508   25.9240 O   0  0  0  0  0  0  0  0  0  0  0  0
    9.7132  -15.9464   26.2039 N   0  0  0  0  0  0  0  0  0  0  0  0
    9.9627  -17.0209   27.1296 C   0  0  1  0  0  0  0  0  0  0  0  0
   11.1231  -17.8975   26.7762 C   0  0  0  0  0  0  0  0  0  0  0  0
   11.1807  -18.4761   25.4276 C   0  0  0  0  0  0  0  0  0  0  0  0
   12.3064  -19.3220   25.0661 C   0  0  0  0  0  0  0  0  0  0  0  0
   12.2623  -20.5507   24.8394 O   0  0  0  0  0  0  0  0  0  0  0  0
   10.0614  -16.5601   28.5496 C   0  0  0  0  0  0  0  0  0  0  0  0
   10.0153  -15.3496   28.8141 O   0  0  0  0  0  0  0  0  0  0  0  0
   13.5575  -18.6638   24.9693 O   0  0  0  0  0  0  0  0  0  0  0  0
   10.2037  -17.4779   29.5663 O   0  0  0  0  0  0  0  0  0  0  0  0
  2  1  1  6
  3  4  1  0
  3  2  1  0
  4  8  1  0
  5  4  2  0
  5  6  1  0
  6  7  1  0
  8  7  2  0
  9  2  1  0
  9 16  1  0
 10  9  2  0
 12 13  1  6
 12 11  1  0
 15 14  1  1
 14 12  1  0
 15 16  1  0
 17 15  1  0
 18 17  2  0
 19 17  1  0
 20 25  1  0
 20 19  1  0
 20 21  1  6
 22 21  1  0
 23 22  1  0
 24 23  2  0
 25 28  1  0
 26 25  2  0
 27 23  1  0
M  END
$$$$
