HLE.pdb
     RDKit          3D

 28 28  0  0  1  0  0  0  0  0999 V2000
    9.7758  -16.2918   20.8668 N   0  0  0  0  0  0  0  0  0  0  0  0
    8.8156  -16.5993   21.9096 C   0  0  1  0  0  0  0  0  0  0  0  0
    8.9827  -18.0223   22.3122 C   0  0  0  0  0  0  0  0  0  0  0  0
    8.5092  -18.8810   21.1956 C   0  0  0  0  0  0  0  0  0  0  0  0
    8.0688  -18.5118   19.9264 C   0  0  0  0  0  0  0  0  0  0  0  0
    7.7256  -19.5786   19.2110 N   0  0  0  0  0  0  0  0  0  0  0  0
    7.9358  -20.6449   19.9964 C   0  0  0  0  0  0  0  0  0  0  0  0
    8.4068  -20.2407   21.1926 N   0  0  0  0  0  0  0  0  0  0  0  0
    9.0437  -15.6423   23.0219 C   0  0  0  0  0  0  0  0  0  0  0  0
   10.2161  -15.3774   23.4246 O   0  0  0  0  0  0  0  0  0  0  0  0
    7.8785  -11.5732   26.5995 C   0  0  0  0  0  0  0  0  0  0  0  0
    6.9575  -12.7681   26.6364 C   0  0  1  0  0  0  0  0  0  0  0  0
    5.5668  -12.1982   26.9538 C   0  0  0  0  0  0  0  0  0  0  0  0
    6.9123  -13.5200   25.3614 C   0  0  0  0  0  0  0  0  0  0  0  0
    8.1129  -14.2690   24.9520 C   0  0  2  0  0  0  0  0  0  0  0  0
    7.9873  -14.9739   23.6965 N   0  0  0  0  0  0  0  0  0  0  0  0
    8.7685  -15.0806   25.9857 C   0  0  0  0  0  0  0  0  0  0  0  0
    9.3465  -14.4770   26.9271 O   0  0  0  0  0  0  0  0  0  0  0  0
    8.7935  -16.5002   26.0043 N   0  0  0  0  0  0  0  0  0  0  0  0
    9.3159  -17.2371   27.1257 C   0  0  1  0  0  0  0  0  0  0  0  0
    8.8380  -18.6519   27.2251 C   0  0  0  0  0  0  0  0  0  0  0  0
    9.3074  -19.4742   28.3477 C   0  0  0  0  0  0  0  0  0  0  0  0
    8.8799  -20.8607   28.4389 C   0  0  0  0  0  0  0  0  0  0  0  0
    8.0961  -21.4433   27.6583 O   0  0  0  0  0  0  0  0  0  0  0  0
   10.8075  -17.1749   27.2244 C   0  0  0  0  0  0  0  0  0  0  0  0
   11.3512  -17.0361   28.3301 O   0  0  0  0  0  0  0  0  0  0  0  0
    9.4188  -21.5949   29.5245 O   0  0  0  0  0  0  0  0  0  0  0  0
   11.5805  -17.2712   26.0888 O   0  0  0  0  0  0  0  0  0  0  0  0
  2  1  1  6
  3  4  1  0
  3  2  1  0
  4  8  1  0
  5  4  2  0
  5  6  1  0
  6  7  1  0
  8  7  2  0
  9  2  1  0
  9 16  1  0
 10  9  2  0
 12 13  1  6
 12 11  1  0
 15 14  1  1
 14 12  1  0
 15 16  1  0
 17 15  1  0
 18 17  2  0
 19 17  1  0
 20 25  1  0
 20 19  1  0
 20 21  1  6
 22 21  1  0
 23 22  1  0
 24 23  2  0
 25 28  1  0
 26 25  2  0
 27 23  1  0
M  END
$$$$
