HLE.pdb
     RDKit          3D

 28 28  0  0  1  0  0  0  0  0999 V2000
   10.1796  -14.1542   20.8100 N   0  0  0  0  0  0  0  0  0  0  0  0
    8.8152  -14.2936   21.2822 C   0  0  1  0  0  0  0  0  0  0  0  0
    8.1219  -15.3165   20.4529 C   0  0  0  0  0  0  0  0  0  0  0  0
    7.9304  -14.7587   19.0889 C   0  0  0  0  0  0  0  0  0  0  0  0
    8.3715  -13.5460   18.5634 C   0  0  0  0  0  0  0  0  0  0  0  0
    7.9941  -13.4093   17.2960 N   0  0  0  0  0  0  0  0  0  0  0  0
    7.3097  -14.5190   16.9828 C   0  0  0  0  0  0  0  0  0  0  0  0
    7.2632  -15.3392   18.0511 N   0  0  0  0  0  0  0  0  0  0  0  0
    8.8762  -14.6469   22.7232 C   0  0  0  0  0  0  0  0  0  0  0  0
    9.9190  -15.1651   23.2243 O   0  0  0  0  0  0  0  0  0  0  0  0
    5.2517  -12.1293   26.3885 C   0  0  0  0  0  0  0  0  0  0  0  0
    6.5470  -12.6008   25.7742 C   0  0  1  0  0  0  0  0  0  0  0  0
    7.6551  -11.9426   26.6100 C   0  0  0  0  0  0  0  0  0  0  0  0
    6.7105  -14.0725   25.7948 C   0  0  0  0  0  0  0  0  0  0  0  0
    7.8354  -14.6585   25.0458 C   0  0  2  0  0  0  0  0  0  0  0  0
    7.7941  -14.4342   23.6185 N   0  0  0  0  0  0  0  0  0  0  0  0
    8.2058  -16.0388   25.3843 C   0  0  0  0  0  0  0  0  0  0  0  0
    7.3463  -16.9396   25.1986 O   0  0  0  0  0  0  0  0  0  0  0  0
    9.4677  -16.4338   25.9019 N   0  0  0  0  0  0  0  0  0  0  0  0
    9.7187  -17.7790   26.3501 C   0  0  1  0  0  0  0  0  0  0  0  0
   10.8977  -18.4440   25.7118 C   0  0  0  0  0  0  0  0  0  0  0  0
   10.8763  -18.6687   24.2606 C   0  0  0  0  0  0  0  0  0  0  0  0
   12.0582  -18.3507   23.4761 C   0  0  0  0  0  0  0  0  0  0  0  0
   12.6484  -19.1205   22.6871 O   0  0  0  0  0  0  0  0  0  0  0  0
    9.7877  -17.8971   27.8400 C   0  0  0  0  0  0  0  0  0  0  0  0
    9.6673  -16.8870   28.5490 O   0  0  0  0  0  0  0  0  0  0  0  0
   12.5655  -17.0382   23.6422 O   0  0  0  0  0  0  0  0  0  0  0  0
    9.9851  -19.1265   28.4281 O   0  0  0  0  0  0  0  0  0  0  0  0
  2  1  1  6
  3  4  1  0
  3  2  1  0
  4  8  1  0
  5  4  2  0
  5  6  1  0
  6  7  1  0
  8  7  2  0
  9  2  1  0
  9 16  1  0
 10  9  2  0
 12 13  1  1
 12 11  1  0
 15 14  1  6
 14 12  1  0
 15 16  1  0
 17 15  1  0
 18 17  2  0
 19 17  1  0
 20 25  1  0
 20 19  1  0
 20 21  1  6
 22 21  1  0
 23 22  1  0
 24 23  2  0
 25 28  1  0
 26 25  2  0
 27 23  1  0
M  END
$$$$
