HLE.pdb
     RDKit          3D

 28 28  0  0  1  0  0  0  0  0999 V2000
    9.7028  -15.6807   19.9653 N   0  0  0  0  0  0  0  0  0  0  0  0
    8.5803  -16.1092   20.7780 C   0  0  1  0  0  0  0  0  0  0  0  0
    8.4535  -17.5888   20.6802 C   0  0  0  0  0  0  0  0  0  0  0  0
    7.9626  -17.9255   19.3186 C   0  0  0  0  0  0  0  0  0  0  0  0
    7.8101  -17.0982   18.2079 C   0  0  0  0  0  0  0  0  0  0  0  0
    7.3376  -17.7779   17.1676 N   0  0  0  0  0  0  0  0  0  0  0  0
    7.1779  -19.0428   17.5825 C   0  0  0  0  0  0  0  0  0  0  0  0
    7.5496  -19.1464   18.8738 N   0  0  0  0  0  0  0  0  0  0  0  0
    8.8233  -15.6295   22.1621 C   0  0  0  0  0  0  0  0  0  0  0  0
    9.9143  -15.8793   22.7571 O   0  0  0  0  0  0  0  0  0  0  0  0
    8.0746  -12.2560   26.6168 C   0  0  0  0  0  0  0  0  0  0  0  0
    6.9643  -13.1870   26.1955 C   0  0  1  0  0  0  0  0  0  0  0  0
    5.6627  -12.4437   26.5315 C   0  0  0  0  0  0  0  0  0  0  0  0
    6.9907  -13.5254   24.7540 C   0  0  0  0  0  0  0  0  0  0  0  0
    8.0076  -14.4809   24.2818 C   0  0  2  0  0  0  0  0  0  0  0  0
    7.8705  -14.8755   22.8981 N   0  0  0  0  0  0  0  0  0  0  0  0
    8.3018  -15.6196   25.1614 C   0  0  0  0  0  0  0  0  0  0  0  0
    7.3887  -16.4646   25.3532 O   0  0  0  0  0  0  0  0  0  0  0  0
    9.5461  -15.8412   25.8087 N   0  0  0  0  0  0  0  0  0  0  0  0
    9.7845  -17.0066   26.6201 C   0  0  1  0  0  0  0  0  0  0  0  0
   10.9323  -17.8577   26.1750 C   0  0  0  0  0  0  0  0  0  0  0  0
   10.9524  -18.3395   24.7878 C   0  0  0  0  0  0  0  0  0  0  0  0
   12.0545  -19.1771   24.3437 C   0  0  0  0  0  0  0  0  0  0  0  0
   13.2321  -18.8044   24.1500 O   0  0  0  0  0  0  0  0  0  0  0  0
    9.8936  -16.6929   28.0790 C   0  0  0  0  0  0  0  0  0  0  0  0
    9.8966  -15.5135   28.4617 O   0  0  0  0  0  0  0  0  0  0  0  0
   11.7331  -20.5384   24.1174 O   0  0  0  0  0  0  0  0  0  0  0  0
    9.9910  -17.7117   29.0002 O   0  0  0  0  0  0  0  0  0  0  0  0
  2  1  1  6
  3  4  1  0
  3  2  1  0
  4  8  1  0
  5  4  2  0
  5  6  1  0
  6  7  1  0
  8  7  2  0
  9  2  1  0
  9 16  1  0
 10  9  2  0
 12 13  1  6
 12 11  1  0
 15 14  1  1
 14 12  1  0
 15 16  1  0
 17 15  1  0
 18 17  2  0
 19 17  1  0
 20 25  1  0
 20 19  1  0
 20 21  1  6
 22 21  1  0
 23 22  1  0
 24 23  2  0
 25 28  1  0
 26 25  2  0
 27 23  1  0
M  END
$$$$
