RAP.pdb
     RDKit          3D

 24 24  0  0  1  0  0  0  0  0999 V2000
    6.0014  -18.4635   23.7913 N   0  0  0  0  0  0  0  0  0  0  0  0
    5.1319  -18.5234   22.6627 C   0  0  0  0  0  0  0  0  0  0  0  0
    3.8365  -18.6352   22.8208 N   0  0  0  0  0  0  0  0  0  0  0  0
    5.5930  -18.4672   21.3261 N   0  0  0  0  0  0  0  0  0  0  0  0
    6.2202  -17.2268   20.8400 C   0  0  0  0  0  0  0  0  0  0  0  0
    7.6025  -17.2214   21.4326 C   0  0  0  0  0  0  0  0  0  0  0  0
    8.3964  -15.9871   21.2324 C   0  0  0  0  0  0  0  0  0  0  0  0
    7.5925  -14.7059   21.4238 C   0  0  2  0  0  0  0  0  0  0  0  0
    8.0482  -13.6971   20.4817 N   0  0  0  0  0  0  0  0  0  0  0  0
    7.9648  -14.1671   22.7773 C   0  0  0  0  0  0  0  0  0  0  0  0
    9.1465  -13.7640   22.9096 O   0  0  0  0  0  0  0  0  0  0  0  0
    3.2780  -18.7505   21.9546 C   0  0  0  0  0  0  0  0  0  0  0  0
    6.1388  -13.5443   25.9188 C   0  0  1  0  0  0  0  0  0  0  0  0
    7.4601  -13.6843   25.1282 N   0  0  0  0  0  0  0  0  0  0  0  0
    7.0029  -14.1347   23.8005 C   0  0  0  0  0  0  0  0  0  0  0  0
    8.2871  -14.7487   25.7189 O   0  0  0  0  0  0  0  0  0  0  0  0
    8.3186  -15.9209   25.1913 N   0  0  0  0  0  0  0  0  0  0  0  0
    9.0985  -14.6134   26.8767 C   0  0  0  0  0  0  0  0  0  0  0  0
    9.2651  -13.4471   27.7242 C   0  0  0  0  0  0  0  0  0  0  0  0
   10.7247  -13.6682   28.1724 C   0  0  0  0  0  0  0  0  0  0  0  0
   10.6113  -15.1193   28.6255 C   0  0  2  0  0  0  0  0  0  0  0  0
    9.8946  -15.7156   27.4055 C   0  0  0  0  0  0  0  0  0  0  0  0
    9.0579  -16.7989   27.9183 O   0  0  0  0  0  0  0  0  0  0  0  0
    9.5968  -18.0004   28.4142 O   0  0  0  0  0  0  0  0  0  0  0  0
  1  2  1  0
  2  3  2  0
  4  2  1  0
  5  4  1  0
  6  5  1  0
  7  6  1  0
  8 10  1  0
  8  7  1  0
  8  9  1  6
 10 11  2  0
 10 14  1  0
 13 12  1  6
 14 13  1  0
 15 13  1  0
 16 15  2  0
 17 15  1  0
 17 18  1  0
 19 18  1  0
 20 19  1  0
 21 20  1  0
 21 17  1  0
 22 23  1  0
 21 22  1  1
 24 22  2  0
M  END
$$$$
