RAP.pdb
     RDKit          3D

 24 24  0  0  1  0  0  0  0  0999 V2000
    7.2333  -12.4962   20.1827 N   0  0  0  0  0  0  0  0  0  0  0  0
    8.5436  -12.7805   19.6974 C   0  0  0  0  0  0  0  0  0  0  0  0
    9.4769  -11.8617   19.7119 N   0  0  0  0  0  0  0  0  0  0  0  0
    8.9207  -14.0423   19.1796 N   0  0  0  0  0  0  0  0  0  0  0  0
    7.8802  -15.0590   18.9515 C   0  0  0  0  0  0  0  0  0  0  0  0
    7.9782  -15.9978   20.1224 C   0  0  0  0  0  0  0  0  0  0  0  0
    7.0347  -17.1396   20.1274 C   0  0  0  0  0  0  0  0  0  0  0  0
    7.2043  -18.0669   21.3256 C   0  0  2  0  0  0  0  0  0  0  0  0
    6.3040  -19.2009   21.1979 N   0  0  0  0  0  0  0  0  0  0  0  0
    6.7048  -17.3098   22.5249 C   0  0  0  0  0  0  0  0  0  0  0  0
    5.5447  -16.8372   22.4405 O   0  0  0  0  0  0  0  0  0  0  0  0
   10.3704  -12.1095   19.2472 C   0  0  0  0  0  0  0  0  0  0  0  0
    6.6764  -17.6642   25.8010 C   0  0  1  0  0  0  0  0  0  0  0  0
    6.9462  -16.4955   24.8255 N   0  0  0  0  0  0  0  0  0  0  0  0
    7.5301  -17.1734   23.6533 C   0  0  0  0  0  0  0  0  0  0  0  0
    7.9618  -15.5939   25.3925 O   0  0  0  0  0  0  0  0  0  0  0  0
    9.2142  -15.8331   25.2264 N   0  0  0  0  0  0  0  0  0  0  0  0
    7.6918  -14.4225   26.1489 C   0  0  0  0  0  0  0  0  0  0  0  0
    6.4020  -13.8441   26.4774 C   0  0  0  0  0  0  0  0  0  0  0  0
    6.7988  -12.3539   26.5234 C   0  0  0  0  0  0  0  0  0  0  0  0
    8.0116  -12.4647   27.4403 C   0  0  2  0  0  0  0  0  0  0  0  0
    8.7512  -13.6208   26.7518 C   0  0  0  0  0  0  0  0  0  0  0  0
    9.4481  -14.3439   27.8139 O   0  0  0  0  0  0  0  0  0  0  0  0
    9.0621  -15.6309   28.2313 O   0  0  0  0  0  0  0  0  0  0  0  0
  1  2  1  0
  2  3  2  0
  4  2  1  0
  5  4  1  0
  6  5  1  0
  7  6  1  0
  8 10  1  0
  8  7  1  0
  8  9  1  6
 10 11  2  0
 10 14  1  0
 13 12  1  6
 14 13  1  0
 15 13  1  0
 16 15  2  0
 17 15  1  0
 17 18  1  0
 19 18  1  0
 20 19  1  0
 21 20  1  0
 21 17  1  0
 22 23  1  0
 21 22  1  1
 24 22  2  0
M  END
$$$$
