RAP.pdb
     RDKit          3D

 24 24  0  0  1  0  0  0  0  0999 V2000
    8.8274  -12.6779   18.6429 N   0  0  0  0  0  0  0  0  0  0  0  0
    8.6425  -13.6802   17.6457 C   0  0  0  0  0  0  0  0  0  0  0  0
    9.1694  -13.5446   16.4544 N   0  0  0  0  0  0  0  0  0  0  0  0
    7.8969  -14.8627   17.8653 N   0  0  0  0  0  0  0  0  0  0  0  0
    8.0741  -15.5922   19.1321 C   0  0  0  0  0  0  0  0  0  0  0  0
    7.2072  -14.8739   20.1292 C   0  0  0  0  0  0  0  0  0  0  0  0
    6.1712  -15.6894   20.8042 C   0  0  0  0  0  0  0  0  0  0  0  0
    6.7251  -16.9297   21.4965 C   0  0  2  0  0  0  0  0  0  0  0  0
    5.9579  -18.0974   21.0958 N   0  0  0  0  0  0  0  0  0  0  0  0
    6.4385  -16.7633   22.9631 C   0  0  0  0  0  0  0  0  0  0  0  0
    5.2302  -16.6474   23.2839 O   0  0  0  0  0  0  0  0  0  0  0  0
    9.0859  -14.3618   15.8212 C   0  0  0  0  0  0  0  0  0  0  0  0
    7.2189  -17.8270   25.9656 C   0  0  1  0  0  0  0  0  0  0  0  0
    7.1646  -16.4406   25.2833 N   0  0  0  0  0  0  0  0  0  0  0  0
    7.5014  -16.7505   23.8814 C   0  0  0  0  0  0  0  0  0  0  0  0
    8.2177  -15.5709   25.8312 O   0  0  0  0  0  0  0  0  0  0  0  0
    9.4579  -15.8236   25.6044 N   0  0  0  0  0  0  0  0  0  0  0  0
    7.9990  -14.4182   26.6316 C   0  0  0  0  0  0  0  0  0  0  0  0
    6.7387  -13.7734   26.9506 C   0  0  0  0  0  0  0  0  0  0  0  0
    7.2262  -12.3149   27.0739 C   0  0  0  0  0  0  0  0  0  0  0  0
    8.4020  -12.5419   28.0173 C   0  0  2  0  0  0  0  0  0  0  0  0
    9.0880  -13.7122   27.2981 C   0  0  0  0  0  0  0  0  0  0  0  0
    9.7065  -14.5231   28.3452 O   0  0  0  0  0  0  0  0  0  0  0  0
   10.8814  -14.1289   29.0116 O   0  0  0  0  0  0  0  0  0  0  0  0
  1  2  1  0
  2  3  2  0
  4  2  1  0
  5  4  1  0
  6  5  1  0
  7  6  1  0
  8 10  1  0
  8  7  1  0
  8  9  1  6
 10 11  2  0
 10 14  1  0
 13 12  1  6
 14 13  1  0
 15 13  1  0
 16 15  2  0
 17 15  1  0
 17 18  1  0
 19 18  1  0
 20 19  1  0
 21 20  1  0
 21 17  1  0
 22 23  1  0
 21 22  1  1
 24 22  2  0
M  END
$$$$
