RAP.pdb
     RDKit          3D

 24 24  0  0  1  0  0  0  0  0999 V2000
    9.4786  -11.6213   18.8951 N   0  0  0  0  0  0  0  0  0  0  0  0
    9.2088  -13.0109   18.7227 C   0  0  0  0  0  0  0  0  0  0  0  0
   10.0563  -13.7841   18.0907 N   0  0  0  0  0  0  0  0  0  0  0  0
    8.0378  -13.6385   19.2097 N   0  0  0  0  0  0  0  0  0  0  0  0
    7.9738  -14.0250   20.6292 C   0  0  0  0  0  0  0  0  0  0  0  0
    6.5859  -14.5677   20.8314 C   0  0  0  0  0  0  0  0  0  0  0  0
    6.3606  -15.9672   20.4013 C   0  0  0  0  0  0  0  0  0  0  0  0
    7.1186  -16.9926   21.2370 C   0  0  2  0  0  0  0  0  0  0  0  0
    6.6538  -18.3303   20.9096 N   0  0  0  0  0  0  0  0  0  0  0  0
    6.6971  -16.7752   22.6639 C   0  0  0  0  0  0  0  0  0  0  0  0
    5.4670  -16.6217   22.8632 O   0  0  0  0  0  0  0  0  0  0  0  0
    9.8489  -14.8001   18.1073 C   0  0  0  0  0  0  0  0  0  0  0  0
    7.4131  -17.8056   25.7829 C   0  0  1  0  0  0  0  0  0  0  0  0
    7.1943  -16.4646   25.0453 N   0  0  0  0  0  0  0  0  0  0  0  0
    7.6671  -16.7592   23.6798 C   0  0  0  0  0  0  0  0  0  0  0  0
    8.0641  -15.4274   25.6227 O   0  0  0  0  0  0  0  0  0  0  0  0
    9.3347  -15.4567   25.4276 N   0  0  0  0  0  0  0  0  0  0  0  0
    7.6262  -14.3367   26.4200 C   0  0  0  0  0  0  0  0  0  0  0  0
    6.2656  -13.9625   26.7590 C   0  0  0  0  0  0  0  0  0  0  0  0
    6.4438  -12.4336   26.8641 C   0  0  0  0  0  0  0  0  0  0  0  0
    7.6573  -12.4040   27.7864 C   0  0  2  0  0  0  0  0  0  0  0  0
    8.5575  -13.4148   27.0614 C   0  0  0  0  0  0  0  0  0  0  0  0
    9.3480  -14.0703   28.1016 O   0  0  0  0  0  0  0  0  0  0  0  0
   10.4143  -13.4284   28.7579 O   0  0  0  0  0  0  0  0  0  0  0  0
  1  2  1  0
  2  3  2  0
  4  2  1  0
  5  4  1  0
  6  5  1  0
  7  6  1  0
  8 10  1  0
  8  7  1  0
  8  9  1  6
 10 11  2  0
 10 14  1  0
 13 12  1  6
 14 13  1  0
 15 13  1  0
 16 15  2  0
 17 15  1  0
 17 18  1  0
 19 18  1  0
 20 19  1  0
 21 20  1  0
 21 17  1  0
 22 23  1  0
 21 22  1  1
 24 22  2  0
M  END
$$$$
