RAP.pdb
     RDKit          3D

 24 24  0  0  1  0  0  0  0  0999 V2000
    9.1836  -14.2315   17.5237 N   0  0  0  0  0  0  0  0  0  0  0  0
    9.0058  -13.3124   18.5993 C   0  0  0  0  0  0  0  0  0  0  0  0
    8.5640  -12.0996   18.3775 N   0  0  0  0  0  0  0  0  0  0  0  0
    9.2856  -13.6356   19.9482 N   0  0  0  0  0  0  0  0  0  0  0  0
    8.8797  -14.9537   20.4643 C   0  0  0  0  0  0  0  0  0  0  0  0
    7.3762  -14.9259   20.4875 C   0  0  0  0  0  0  0  0  0  0  0  0
    6.6934  -16.2203   20.2588 C   0  0  0  0  0  0  0  0  0  0  0  0
    7.1220  -17.3166   21.2276 C   0  0  2  0  0  0  0  0  0  0  0  0
    6.4085  -18.5456   20.9223 N   0  0  0  0  0  0  0  0  0  0  0  0
    6.6216  -16.9060   22.5847 C   0  0  0  0  0  0  0  0  0  0  0  0
    5.4257  -16.5283   22.6456 O   0  0  0  0  0  0  0  0  0  0  0  0
    8.5748  -11.4531   19.1884 C   0  0  0  0  0  0  0  0  0  0  0  0
    6.7282  -17.5827   25.8424 C   0  0  2  0  0  0  0  0  0  0  0  0
    7.0038  -16.3552   24.9438 N   0  0  0  0  0  0  0  0  0  0  0  0
    7.4852  -16.9660   23.6909 C   0  0  0  0  0  0  0  0  0  0  0  0
    8.0950  -15.5503   25.5157 O   0  0  0  0  0  0  0  0  0  0  0  0
    9.3084  -15.9742   25.4793 N   0  0  0  0  0  0  0  0  0  0  0  0
    7.9429  -14.2846   26.1418 C   0  0  0  0  0  0  0  0  0  0  0  0
    6.7454  -13.4707   26.2407 C   0  0  0  0  0  0  0  0  0  0  0  0
    7.3923  -12.0701   26.2389 C   0  0  0  0  0  0  0  0  0  0  0  0
    8.4372  -12.2954   27.3258 C   0  0  2  0  0  0  0  0  0  0  0  0
    9.0413  -13.6182   26.8330 C   0  0  0  0  0  0  0  0  0  0  0  0
    9.4551  -14.3447   28.0320 O   0  0  0  0  0  0  0  0  0  0  0  0
   10.6006  -13.9947   28.7703 O   0  0  0  0  0  0  0  0  0  0  0  0
  1  2  1  0
  2  3  2  0
  4  2  1  0
  5  4  1  0
  6  5  1  0
  7  6  1  0
  8 10  1  0
  8  7  1  0
  8  9  1  6
 10 11  2  0
 10 14  1  0
 13 12  1  6
 14 13  1  0
 15 13  1  0
 16 15  2  0
 17 15  1  0
 17 18  1  0
 19 18  1  0
 20 19  1  0
 21 20  1  0
 21 17  1  0
 22 23  1  0
 21 22  1  1
 24 22  2  0
M  END
$$$$
