RAP.pdb
     RDKit          3D

 24 24  0  0  1  0  0  0  0  0999 V2000
    8.3291  -12.8871   16.9056 N   0  0  0  0  0  0  0  0  0  0  0  0
    7.7129  -14.0731   16.4085 C   0  0  0  0  0  0  0  0  0  0  0  0
    7.5385  -14.2484   15.1224 N   0  0  0  0  0  0  0  0  0  0  0  0
    7.2580  -15.1188   17.2463 N   0  0  0  0  0  0  0  0  0  0  0  0
    8.2086  -15.7525   18.1754 C   0  0  0  0  0  0  0  0  0  0  0  0
    8.3224  -14.8034   19.3365 C   0  0  0  0  0  0  0  0  0  0  0  0
    9.6244  -14.7849   20.0425 C   0  0  0  0  0  0  0  0  0  0  0  0
    9.7484  -15.8529   21.1234 C   0  0  2  0  0  0  0  0  0  0  0  0
    9.1153  -17.0811   20.6725 N   0  0  0  0  0  0  0  0  0  0  0  0
    8.9090  -15.3876   22.2809 C   0  0  0  0  0  0  0  0  0  0  0  0
    8.8058  -14.1450   22.4289 O   0  0  0  0  0  0  0  0  0  0  0  0
    7.1332  -15.1589   14.8353 C   0  0  0  0  0  0  0  0  0  0  0  0
    6.8459  -17.0817   24.8281 C   0  0  2  0  0  0  0  0  0  0  0  0
    7.4986  -15.8083   24.2426 N   0  0  0  0  0  0  0  0  0  0  0  0
    8.2925  -16.3336   23.1163 C   0  0  0  0  0  0  0  0  0  0  0  0
    8.4224  -15.2211   25.2262 O   0  0  0  0  0  0  0  0  0  0  0  0
    9.6105  -15.6916   25.3693 N   0  0  0  0  0  0  0  0  0  0  0  0
    8.1247  -14.1301   26.0854 C   0  0  0  0  0  0  0  0  0  0  0  0
    6.8852  -13.3826   26.1899 C   0  0  0  0  0  0  0  0  0  0  0  0
    7.4550  -12.0043   26.5845 C   0  0  0  0  0  0  0  0  0  0  0  0
    8.3564  -12.4454   27.7320 C   0  0  2  0  0  0  0  0  0  0  0  0
    9.0867  -13.6128   27.0527 C   0  0  0  0  0  0  0  0  0  0  0  0
    9.3738  -14.5799   28.1104 O   0  0  0  0  0  0  0  0  0  0  0  0
   10.3796  -14.3719   29.0721 O   0  0  0  0  0  0  0  0  0  0  0  0
  1  2  1  0
  2  3  2  0
  4  2  1  0
  5  4  1  0
  6  5  1  0
  7  6  1  0
  8 10  1  0
  8  7  1  0
  8  9  1  6
 10 11  2  0
 10 14  1  0
 13 12  1  6
 14 13  1  0
 15 13  1  0
 16 15  2  0
 17 15  1  0
 17 18  1  0
 19 18  1  0
 20 19  1  0
 21 20  1  0
 21 17  1  0
 22 23  1  0
 21 22  1  1
 24 22  2  0
M  END
$$$$
