RAP.pdb
     RDKit          3D

 24 24  0  0  1  0  0  0  0  0999 V2000
    7.9003  -13.9220   14.9119 N   0  0  0  0  0  0  0  0  0  0  0  0
    8.3565  -13.9750   16.2618 C   0  0  0  0  0  0  0  0  0  0  0  0
    8.4899  -15.1225   16.8789 N   0  0  0  0  0  0  0  0  0  0  0  0
    8.6900  -12.8226   17.0122 N   0  0  0  0  0  0  0  0  0  0  0  0
    8.2253  -12.7203   18.4058 C   0  0  0  0  0  0  0  0  0  0  0  0
    7.9756  -14.1363   18.8466 C   0  0  0  0  0  0  0  0  0  0  0  0
    7.3564  -14.3074   20.1813 C   0  0  0  0  0  0  0  0  0  0  0  0
    7.8042  -15.5725   20.9048 C   0  0  2  0  0  0  0  0  0  0  0  0
    7.1846  -16.7339   20.2883 N   0  0  0  0  0  0  0  0  0  0  0  0
    7.2129  -15.5061   22.2856 C   0  0  0  0  0  0  0  0  0  0  0  0
    6.1244  -14.8899   22.3953 O   0  0  0  0  0  0  0  0  0  0  0  0
    8.6697  -15.0753   17.8993 C   0  0  0  0  0  0  0  0  0  0  0  0
    7.1772  -17.3949   25.2191 C   0  0  2  0  0  0  0  0  0  0  0  0
    7.2909  -15.9440   24.6974 N   0  0  0  0  0  0  0  0  0  0  0  0
    7.8805  -16.1214   23.3574 C   0  0  0  0  0  0  0  0  0  0  0  0
    8.2429  -15.1868   25.5257 O   0  0  0  0  0  0  0  0  0  0  0  0
    9.5021  -15.4421   25.4732 N   0  0  0  0  0  0  0  0  0  0  0  0
    7.9006  -14.1468   26.4303 C   0  0  0  0  0  0  0  0  0  0  0  0
    6.6030  -13.5323   26.6413 C   0  0  0  0  0  0  0  0  0  0  0  0
    7.0581  -12.1097   27.0278 C   0  0  0  0  0  0  0  0  0  0  0  0
    8.0814  -12.4756   28.0969 C   0  0  2  0  0  0  0  0  0  0  0  0
    8.8739  -13.5503   27.3388 C   0  0  0  0  0  0  0  0  0  0  0  0
    9.3342  -14.5008   28.3494 O   0  0  0  0  0  0  0  0  0  0  0  0
   10.4073  -14.2223   29.2158 O   0  0  0  0  0  0  0  0  0  0  0  0
  1  2  1  0
  2  3  2  0
  4  2  1  0
  5  4  1  0
  6  5  1  0
  7  6  1  0
  8 10  1  0
  8  7  1  0
  8  9  1  6
 10 11  2  0
 10 14  1  0
 13 12  1  6
 14 13  1  0
 15 13  1  0
 16 15  2  0
 17 15  1  0
 17 18  1  0
 19 18  1  0
 20 19  1  0
 21 20  1  0
 21 17  1  0
 22 23  1  0
 21 22  1  1
 24 22  2  0
M  END
$$$$
