IYI.pdb
     RDKit          3D

 29 29  0  0  1  0  0  0  0  0999 V2000
   29.8660  -17.1375  -17.7392 C   0  0  0  0  0  0  0  0  0  0  0  0
   28.6557  -18.0337  -17.7264 C   0  0  0  0  0  0  0  0  0  0  0  0
   27.9026  -17.7827  -16.4364 C   0  0  2  0  0  0  0  0  0  0  0  0
   28.8161  -18.0733  -15.2916 C   0  0  0  0  0  0  0  0  0  0  0  0
   26.6627  -18.6360  -16.4545 C   0  0  2  0  0  0  0  0  0  0  0  0
   25.9382  -18.3601  -17.6739 N   0  0  0  0  0  0  0  0  0  0  0  0
   25.8155  -18.4660  -15.2731 C   0  0  0  0  0  0  0  0  0  0  0  0
   25.2204  -17.3870  -15.0682 O   0  0  0  0  0  0  0  0  0  0  0  0
   19.4943  -20.1247   -9.5108 O   0  0  0  0  0  0  0  0  0  0  0  0
   20.4750  -20.1035  -10.4970 C   0  0  0  0  0  0  0  0  0  0  0  0
   21.3144  -21.1734  -10.6657 C   0  0  0  0  0  0  0  0  0  0  0  0
   22.2799  -21.1357  -11.6469 C   0  0  0  0  0  0  0  0  0  0  0  0
   22.4702  -20.0697  -12.4975 C   0  0  0  0  0  0  0  0  0  0  0  0
   23.5047  -20.0421  -13.5413 C   0  0  0  0  0  0  0  0  0  0  0  0
   24.8215  -19.4511  -13.1596 C   0  0  2  0  0  0  0  0  0  0  0  0
   25.6831  -19.5465  -14.3673 N   0  0  0  0  0  0  0  0  0  0  0  0
   25.5220  -20.0751  -12.0293 C   0  0  0  0  0  0  0  0  0  0  0  0
   26.1847  -21.1467  -12.3053 O   0  0  0  0  0  0  0  0  0  0  0  0
   21.5976  -18.9909  -12.3015 C   0  0  0  0  0  0  0  0  0  0  0  0
   20.6372  -19.0249  -11.3275 C   0  0  0  0  0  0  0  0  0  0  0  0
   28.3611  -19.4914   -6.7211 C   0  0  0  0  0  0  0  0  0  0  0  0
   27.5632  -20.4449   -7.6136 C   0  0  0  0  0  0  0  0  0  0  0  0
   26.9047  -19.6096   -8.6565 C   0  0  2  0  0  0  0  0  0  0  0  0
   25.9764  -18.5976   -8.0308 C   0  0  0  0  0  0  0  0  0  0  0  0
   26.1323  -20.4294   -9.6760 C   0  0  2  0  0  0  0  0  0  0  0  0
   25.5360  -19.6047  -10.6895 N   0  0  0  0  0  0  0  0  0  0  0  0
   25.1581  -21.3220   -9.0111 C   0  0  0  0  0  0  0  0  0  0  0  0
   25.5125  -22.4017   -8.5038 O   0  0  0  0  0  0  0  0  0  0  0  0
   23.8047  -21.0055   -8.9178 O   0  0  0  0  0  0  0  0  0  0  0  0
  2  1  1  0
  3  2  1  0
  3  4  1  1
  5  3  1  0
  5  6  1  6
  7  8  2  0
  7  5  1  0
  9 10  1  0
 10 11  2  0
 11 12  1  0
 13 14  1  0
 13 12  2  0
 15 14  1  6
 15 16  1  0
 16  7  1  0
 17 26  1  0
 17 15  1  0
 18 17  2  0
 19 13  1  0
 20 19  2  0
 20 10  1  0
 21 22  1  0
 22 23  1  0
 23 25  1  0
 23 24  1  1
 25 27  1  0
 25 26  1  6
 27 29  1  0
 28 27  2  0
M  END
$$$$
