IYI.pdb
     RDKit          3D

 29 29  0  0  1  0  0  0  0  0999 V2000
   33.1183  -27.1311  -22.8176 C   0  0  0  0  0  0  0  0  0  0  0  0
   31.8552  -26.7778  -22.0774 C   0  0  0  0  0  0  0  0  0  0  0  0
   31.0412  -28.0444  -21.9120 C   0  0  2  0  0  0  0  0  0  0  0  0
   30.7812  -28.6192  -23.2654 C   0  0  0  0  0  0  0  0  0  0  0  0
   29.7905  -27.6911  -21.1526 C   0  0  2  0  0  0  0  0  0  0  0  0
   30.1136  -26.6526  -20.2014 N   0  0  0  0  0  0  0  0  0  0  0  0
   29.1535  -28.8382  -20.5039 C   0  0  0  0  0  0  0  0  0  0  0  0
   28.8420  -29.8503  -21.1665 O   0  0  0  0  0  0  0  0  0  0  0  0
   27.0365  -34.1775  -13.6693 O   0  0  0  0  0  0  0  0  0  0  0  0
   27.5262  -33.2040  -14.5336 C   0  0  0  0  0  0  0  0  0  0  0  0
   26.8672  -32.0119  -14.6832 C   0  0  0  0  0  0  0  0  0  0  0  0
   27.3660  -31.0592  -15.5432 C   0  0  0  0  0  0  0  0  0  0  0  0
   28.5134  -31.2204  -16.2872 C   0  0  0  0  0  0  0  0  0  0  0  0
   29.0355  -30.1951  -17.2019 C   0  0  0  0  0  0  0  0  0  0  0  0
   28.2012  -29.8833  -18.4001 C   0  0  2  0  0  0  0  0  0  0  0  0
   28.8970  -28.7795  -19.1125 N   0  0  0  0  0  0  0  0  0  0  0  0
   26.8108  -29.4811  -18.1495 C   0  0  0  0  0  0  0  0  0  0  0  0
   26.5978  -28.2101  -18.0957 O   0  0  0  0  0  0  0  0  0  0  0  0
   29.1655  -32.4486  -16.1137 C   0  0  0  0  0  0  0  0  0  0  0  0
   28.6727  -33.3976  -15.2600 C   0  0  0  0  0  0  0  0  0  0  0  0
   22.2415  -27.8731  -20.3368 C   0  0  0  0  0  0  0  0  0  0  0  0
   22.5317  -28.5885  -19.0154 C   0  0  0  0  0  0  0  0  0  0  0  0
   23.9046  -29.1560  -19.1249 C   0  0  2  0  0  0  0  0  0  0  0  0
   23.9790  -30.1796  -20.2313 C   0  0  0  0  0  0  0  0  0  0  0  0
   24.3937  -29.7855  -17.8315 C   0  0  2  0  0  0  0  0  0  0  0  0
   25.7051  -30.3543  -17.9719 N   0  0  0  0  0  0  0  0  0  0  0  0
   23.4019  -30.7457  -17.3002 C   0  0  0  0  0  0  0  0  0  0  0  0
   23.4019  -31.9381  -17.6564 O   0  0  0  0  0  0  0  0  0  0  0  0
   22.4241  -30.3709  -16.3816 O   0  0  0  0  0  0  0  0  0  0  0  0
  2  1  1  0
  3  2  1  0
  3  4  1  6
  5  3  1  0
  5  6  1  1
  7  8  2  0
  7  5  1  0
  9 10  1  0
 10 11  2  0
 11 12  1  0
 13 14  1  0
 13 12  2  0
 15 14  1  1
 15 16  1  0
 16  7  1  0
 17 26  1  0
 17 15  1  0
 18 17  2  0
 19 13  1  0
 20 19  2  0
 20 10  1  0
 21 22  1  0
 22 23  1  0
 23 25  1  0
 23 24  1  6
 25 27  1  0
 25 26  1  6
 27 29  1  0
 28 27  2  0
M  END
$$$$
