IYI.pdb
     RDKit          3D

 29 29  0  0  1  0  0  0  0  0999 V2000
   28.0857  -18.9506  -18.2759 C   0  0  0  0  0  0  0  0  0  0  0  0
   27.2954  -20.2019  -18.5545 C   0  0  0  0  0  0  0  0  0  0  0  0
   26.7655  -20.7228  -17.2347 C   0  0  2  0  0  0  0  0  0  0  0  0
   25.8664  -19.6872  -16.6444 C   0  0  0  0  0  0  0  0  0  0  0  0
   27.9476  -21.0650  -16.3677 C   0  0  2  0  0  0  0  0  0  0  0  0
   28.7234  -22.0836  -17.0374 N   0  0  0  0  0  0  0  0  0  0  0  0
   27.5821  -21.4705  -15.0097 C   0  0  0  0  0  0  0  0  0  0  0  0
   26.8945  -22.4953  -14.8162 O   0  0  0  0  0  0  0  0  0  0  0  0
   27.3799  -20.2646   -6.0769 O   0  0  0  0  0  0  0  0  0  0  0  0
   27.6720  -20.2713   -7.4368 C   0  0  0  0  0  0  0  0  0  0  0  0
   28.5853  -21.1561   -7.9474 C   0  0  0  0  0  0  0  0  0  0  0  0
   28.8626  -21.1491   -9.2962 C   0  0  0  0  0  0  0  0  0  0  0  0
   28.2720  -20.2923  -10.1980 C   0  0  0  0  0  0  0  0  0  0  0  0
   28.5767  -20.2950  -11.6359 C   0  0  0  0  0  0  0  0  0  0  0  0
   27.5775  -20.9540  -12.5281 C   0  0  2  0  0  0  0  0  0  0  0  0
   28.0220  -20.6802  -13.9200 N   0  0  0  0  0  0  0  0  0  0  0  0
   26.1803  -20.5235  -12.3853 C   0  0  0  0  0  0  0  0  0  0  0  0
   25.9070  -19.3505  -12.8468 O   0  0  0  0  0  0  0  0  0  0  0  0
   27.3428  -19.3993   -9.6473 C   0  0  0  0  0  0  0  0  0  0  0  0
   27.0649  -19.4036   -8.3075 C   0  0  0  0  0  0  0  0  0  0  0  0
   22.2541  -21.4913  -15.0569 C   0  0  0  0  0  0  0  0  0  0  0  0
   23.3009  -20.8806  -14.1223 C   0  0  0  0  0  0  0  0  0  0  0  0
   22.8617  -21.1777  -12.7302 C   0  0  2  0  0  0  0  0  0  0  0  0
   21.4934  -20.6009  -12.4612 C   0  0  0  0  0  0  0  0  0  0  0  0
   23.8319  -20.6680  -11.6781 C   0  0  2  0  0  0  0  0  0  0  0  0
   25.1273  -21.2760  -11.8008 N   0  0  0  0  0  0  0  0  0  0  0  0
   23.2593  -20.7984  -10.3205 C   0  0  0  0  0  0  0  0  0  0  0  0
   22.2278  -20.1843   -9.9924 O   0  0  0  0  0  0  0  0  0  0  0  0
   23.8380  -21.6077   -9.3454 O   0  0  0  0  0  0  0  0  0  0  0  0
  2  1  1  0
  3  2  1  0
  3  4  1  1
  5  3  1  0
  5  6  1  6
  7  8  2  0
  7  5  1  0
  9 10  1  0
 10 11  2  0
 11 12  1  0
 13 14  1  0
 13 12  2  0
 15 14  1  1
 15 16  1  0
 16  7  1  0
 17 26  1  0
 17 15  1  0
 18 17  2  0
 19 13  1  0
 20 19  2  0
 20 10  1  0
 21 22  1  0
 22 23  1  0
 23 25  1  0
 23 24  1  1
 25 27  1  0
 25 26  1  1
 27 29  1  0
 28 27  2  0
M  END
$$$$
