IYI.pdb
     RDKit          3D

 29 29  0  0  1  0  0  0  0  0999 V2000
   26.6331  -17.5349  -16.1872 C   0  0  0  0  0  0  0  0  0  0  0  0
   26.4842  -18.7451  -15.3033 C   0  0  0  0  0  0  0  0  0  0  0  0
   27.8491  -19.0823  -14.7397 C   0  0  2  0  0  0  0  0  0  0  0  0
   28.7565  -19.4282  -15.8740 C   0  0  0  0  0  0  0  0  0  0  0  0
   27.6723  -20.1964  -13.7430 C   0  0  2  0  0  0  0  0  0  0  0  0
   27.0149  -21.2996  -14.4054 N   0  0  0  0  0  0  0  0  0  0  0  0
   26.9589  -19.7922  -12.5306 C   0  0  0  0  0  0  0  0  0  0  0  0
   26.8227  -18.5832  -12.2472 O   0  0  0  0  0  0  0  0  0  0  0  0
   20.8605  -19.0386  -14.7680 O   0  0  0  0  0  0  0  0  0  0  0  0
   21.6940  -19.5600  -13.7840 C   0  0  0  0  0  0  0  0  0  0  0  0
   22.4812  -20.6506  -14.0460 C   0  0  0  0  0  0  0  0  0  0  0  0
   23.3006  -21.1539  -13.0602 C   0  0  0  0  0  0  0  0  0  0  0  0
   23.3903  -20.6262  -11.7915 C   0  0  0  0  0  0  0  0  0  0  0  0
   24.2694  -21.1729  -10.7481 C   0  0  0  0  0  0  0  0  0  0  0  0
   25.5617  -20.4599  -10.5239 C   0  0  2  0  0  0  0  0  0  0  0  0
   26.4263  -20.7960  -11.6856 N   0  0  0  0  0  0  0  0  0  0  0  0
   26.2866  -20.7811   -9.2872 C   0  0  0  0  0  0  0  0  0  0  0  0
   26.9296  -21.8992   -9.2907 O   0  0  0  0  0  0  0  0  0  0  0  0
   22.5743  -19.5122  -11.5530 C   0  0  0  0  0  0  0  0  0  0  0  0
   21.7589  -19.0095  -12.5301 C   0  0  0  0  0  0  0  0  0  0  0  0
   29.7009  -18.2065   -5.9586 C   0  0  0  0  0  0  0  0  0  0  0  0
   28.9687  -19.2201   -6.8411 C   0  0  0  0  0  0  0  0  0  0  0  0
   27.7164  -19.5904   -6.1244 C   0  0  2  0  0  0  0  0  0  0  0  0
   28.0239  -20.1812   -4.7703 C   0  0  0  0  0  0  0  0  0  0  0  0
   26.8484  -20.5623   -6.9055 C   0  0  2  0  0  0  0  0  0  0  0  0
   26.3429  -19.9790   -8.1168 N   0  0  0  0  0  0  0  0  0  0  0  0
   25.7835  -21.1289   -6.0495 C   0  0  0  0  0  0  0  0  0  0  0  0
   24.6009  -20.7566   -6.1577 O   0  0  0  0  0  0  0  0  0  0  0  0
   26.0440  -22.1003   -5.0856 O   0  0  0  0  0  0  0  0  0  0  0  0
  2  1  1  0
  3  2  1  0
  3  4  1  6
  5  3  1  0
  5  6  1  6
  7  8  2  0
  7  5  1  0
  9 10  1  0
 10 11  2  0
 11 12  1  0
 13 14  1  0
 13 12  2  0
 15 14  1  6
 15 16  1  0
 16  7  1  0
 17 26  1  0
 17 15  1  0
 18 17  2  0
 19 13  1  0
 20 19  2  0
 20 10  1  0
 21 22  1  0
 22 23  1  0
 23 25  1  0
 23 24  1  1
 25 27  1  0
 25 26  1  6
 27 29  1  0
 28 27  2  0
M  END
$$$$
