IYI.pdb
     RDKit          3D

 29 29  0  0  1  0  0  0  0  0999 V2000
   28.6365  -18.6128  -17.3038 C   0  0  0  0  0  0  0  0  0  0  0  0
   28.8916  -19.4599  -16.0850 C   0  0  0  0  0  0  0  0  0  0  0  0
   27.9313  -19.0180  -15.0002 C   0  0  2  0  0  0  0  0  0  0  0  0
   28.0742  -17.5433  -14.8144 C   0  0  0  0  0  0  0  0  0  0  0  0
   28.2370  -19.8177  -13.7620 C   0  0  2  0  0  0  0  0  0  0  0  0
   28.2179  -21.2200  -14.1098 N   0  0  0  0  0  0  0  0  0  0  0  0
   27.3431  -19.5275  -12.6399 C   0  0  0  0  0  0  0  0  0  0  0  0
   27.1445  -18.3497  -12.2742 O   0  0  0  0  0  0  0  0  0  0  0  0
   20.0887  -20.4960   -7.6954 O   0  0  0  0  0  0  0  0  0  0  0  0
   21.1738  -20.6551   -8.5510 C   0  0  0  0  0  0  0  0  0  0  0  0
   22.2185  -21.4713   -8.2045 C   0  0  0  0  0  0  0  0  0  0  0  0
   23.2849  -21.6174   -9.0635 C   0  0  0  0  0  0  0  0  0  0  0  0
   23.3824  -20.9845  -10.2825 C   0  0  0  0  0  0  0  0  0  0  0  0
   24.5264  -21.1491  -11.1905 C   0  0  0  0  0  0  0  0  0  0  0  0
   25.7617  -20.3819  -10.8526 C   0  0  2  0  0  0  0  0  0  0  0  0
   26.7081  -20.6058  -11.9770 N   0  0  0  0  0  0  0  0  0  0  0  0
   26.4327  -20.7327   -9.5937 C   0  0  0  0  0  0  0  0  0  0  0  0
   27.2415  -21.7357   -9.6522 O   0  0  0  0  0  0  0  0  0  0  0  0
   22.2999  -20.1568  -10.6097 C   0  0  0  0  0  0  0  0  0  0  0  0
   21.2387  -20.0093   -9.7586 C   0  0  0  0  0  0  0  0  0  0  0  0
   29.9802  -19.3139   -5.2764 C   0  0  0  0  0  0  0  0  0  0  0  0
   28.7947  -20.2459   -5.5376 C   0  0  0  0  0  0  0  0  0  0  0  0
   28.0807  -19.7113   -6.7307 C   0  0  2  0  0  0  0  0  0  0  0  0
   27.5434  -18.3268   -6.4627 C   0  0  0  0  0  0  0  0  0  0  0  0
   26.9429  -20.6052   -7.1938 C   0  0  2  0  0  0  0  0  0  0  0  0
   26.2741  -20.0711   -8.3472 N   0  0  0  0  0  0  0  0  0  0  0  0
   26.0187  -20.9084   -6.0795 C   0  0  0  0  0  0  0  0  0  0  0  0
   26.4150  -21.4837   -5.0496 O   0  0  0  0  0  0  0  0  0  0  0  0
   24.6681  -20.5696   -6.1222 O   0  0  0  0  0  0  0  0  0  0  0  0
  2  1  1  0
  3  2  1  0
  3  4  1  1
  5  3  1  0
  5  6  1  6
  7  8  2  0
  7  5  1  0
  9 10  1  0
 10 11  2  0
 11 12  1  0
 13 14  1  0
 13 12  2  0
 15 14  1  6
 15 16  1  0
 16  7  1  0
 17 26  1  0
 17 15  1  0
 18 17  2  0
 19 13  1  0
 20 19  2  0
 20 10  1  0
 21 22  1  0
 22 23  1  0
 23 25  1  0
 23 24  1  1
 25 27  1  0
 25 26  1  6
 27 29  1  0
 28 27  2  0
M  END
$$$$
