IYI.pdb
     RDKit          3D

 29 29  0  0  1  0  0  0  0  0999 V2000
   21.3108  -20.8161  -14.1955 C   0  0  0  0  0  0  0  0  0  0  0  0
   21.9227  -19.9817  -13.1012 C   0  0  0  0  0  0  0  0  0  0  0  0
   22.6861  -20.9092  -12.1786 C   0  0  2  0  0  0  0  0  0  0  0  0
   21.7323  -21.9162  -11.6256 C   0  0  0  0  0  0  0  0  0  0  0  0
   23.3533  -20.0642  -11.1266 C   0  0  2  0  0  0  0  0  0  0  0  0
   23.7667  -18.8211  -11.7361 N   0  0  0  0  0  0  0  0  0  0  0  0
   24.4689  -20.7337  -10.4560 C   0  0  0  0  0  0  0  0  0  0  0  0
   24.2836  -21.7915   -9.8177 O   0  0  0  0  0  0  0  0  0  0  0  0
   33.1353  -22.6522   -9.2855 O   0  0  0  0  0  0  0  0  0  0  0  0
   31.8823  -22.2055   -9.6920 C   0  0  0  0  0  0  0  0  0  0  0  0
   31.4014  -20.9970   -9.2607 C   0  0  0  0  0  0  0  0  0  0  0  0
   30.1588  -20.5701   -9.6729 C   0  0  0  0  0  0  0  0  0  0  0  0
   29.3382  -21.2898  -10.5124 C   0  0  0  0  0  0  0  0  0  0  0  0
   28.0135  -20.8226  -10.9453 C   0  0  0  0  0  0  0  0  0  0  0  0
   26.9423  -20.7986   -9.9056 C   0  0  2  0  0  0  0  0  0  0  0  0
   25.7609  -20.1608  -10.5439 N   0  0  0  0  0  0  0  0  0  0  0  0
   27.2486  -20.0844   -8.6590 C   0  0  0  0  0  0  0  0  0  0  0  0
   26.7482  -18.9000   -8.5561 O   0  0  0  0  0  0  0  0  0  0  0  0
   29.8562  -22.5207  -10.9370 C   0  0  0  0  0  0  0  0  0  0  0  0
   31.0905  -22.9480  -10.5294 C   0  0  0  0  0  0  0  0  0  0  0  0
   26.2686  -18.7141   -3.4409 C   0  0  0  0  0  0  0  0  0  0  0  0
   27.4076  -18.5542   -4.4505 C   0  0  0  0  0  0  0  0  0  0  0  0
   27.1404  -19.5143   -5.5576 C   0  0  2  0  0  0  0  0  0  0  0  0
   26.7238  -20.8600   -5.0164 C   0  0  0  0  0  0  0  0  0  0  0  0
   28.3286  -19.6979   -6.4864 C   0  0  2  0  0  0  0  0  0  0  0  0
   28.0264  -20.5798   -7.5791 N   0  0  0  0  0  0  0  0  0  0  0  0
   29.5339  -20.1055   -5.7321 C   0  0  0  0  0  0  0  0  0  0  0  0
   29.9533  -19.4338   -4.7721 O   0  0  0  0  0  0  0  0  0  0  0  0
   30.2576  -21.2519   -6.0523 O   0  0  0  0  0  0  0  0  0  0  0  0
  2  1  1  0
  3  2  1  0
  3  4  1  1
  5  3  1  0
  5  6  1  6
  7  8  2  0
  7  5  1  0
  9 10  1  0
 10 11  2  0
 11 12  1  0
 13 14  1  0
 13 12  2  0
 15 14  1  6
 15 16  1  0
 16  7  1  0
 17 26  1  0
 17 15  1  0
 18 17  2  0
 19 13  1  0
 20 19  2  0
 20 10  1  0
 21 22  1  0
 22 23  1  0
 23 25  1  0
 23 24  1  1
 25 27  1  0
 25 26  1  6
 27 29  1  0
 28 27  2  0
M  END
$$$$
