IYI.pdb
     RDKit          3D

 29 29  0  0  1  0  0  0  0  0999 V2000
   28.5832  -16.4105  -18.1711 C   0  0  0  0  0  0  0  0  0  0  0  0
   27.9051  -17.6953  -17.7743 C   0  0  0  0  0  0  0  0  0  0  0  0
   26.9718  -17.3934  -16.6201 C   0  0  2  0  0  0  0  0  0  0  0  0
   27.7698  -16.7879  -15.5128 C   0  0  0  0  0  0  0  0  0  0  0  0
   26.2818  -18.6759  -16.2394 C   0  0  2  0  0  0  0  0  0  0  0  0
   25.6316  -19.2091  -17.4144 N   0  0  0  0  0  0  0  0  0  0  0  0
   25.3457  -18.5303  -15.1236 C   0  0  0  0  0  0  0  0  0  0  0  0
   24.3789  -17.7433  -15.2042 O   0  0  0  0  0  0  0  0  0  0  0  0
   23.1630  -25.3959  -14.3775 O   0  0  0  0  0  0  0  0  0  0  0  0
   23.2000  -24.0287  -14.1240 C   0  0  0  0  0  0  0  0  0  0  0  0
   22.5098  -23.4990  -13.0653 C   0  0  0  0  0  0  0  0  0  0  0  0
   22.5574  -22.1433  -12.8288 C   0  0  0  0  0  0  0  0  0  0  0  0
   23.2691  -21.2527  -13.6011 C   0  0  0  0  0  0  0  0  0  0  0  0
   23.3118  -19.8073  -13.3378 C   0  0  0  0  0  0  0  0  0  0  0  0
   24.5995  -19.2626  -12.8145 C   0  0  2  0  0  0  0  0  0  0  0  0
   25.5560  -19.2974  -13.9520 N   0  0  0  0  0  0  0  0  0  0  0  0
   25.1982  -19.9664  -11.6725 C   0  0  0  0  0  0  0  0  0  0  0  0
   26.0807  -20.8598  -11.9669 O   0  0  0  0  0  0  0  0  0  0  0  0
   23.9645  -21.8229  -14.6759 C   0  0  0  0  0  0  0  0  0  0  0  0
   23.9195  -23.1696  -14.9138 C   0  0  0  0  0  0  0  0  0  0  0  0
   27.7574  -17.8531   -7.6569 C   0  0  0  0  0  0  0  0  0  0  0  0
   27.2679  -18.7253   -8.8153 C   0  0  0  0  0  0  0  0  0  0  0  0
   26.2434  -19.6504   -8.2554 C   0  0  2  0  0  0  0  0  0  0  0  0
   26.8391  -20.5316   -7.1850 C   0  0  0  0  0  0  0  0  0  0  0  0
   25.5894  -20.5245   -9.3120 C   0  0  2  0  0  0  0  0  0  0  0  0
   24.8983  -19.7464  -10.3020 N   0  0  0  0  0  0  0  0  0  0  0  0
   24.7339  -21.5587   -8.6903 C   0  0  0  0  0  0  0  0  0  0  0  0
   25.2278  -22.5294   -8.0882 O   0  0  0  0  0  0  0  0  0  0  0  0
   23.3431  -21.5025   -8.7445 O   0  0  0  0  0  0  0  0  0  0  0  0
  2  1  1  0
  3  2  1  0
  3  4  1  1
  5  3  1  0
  5  6  1  6
  7  8  2  0
  7  5  1  0
  9 10  1  0
 10 11  2  0
 11 12  1  0
 13 14  1  0
 13 12  2  0
 15 14  1  6
 15 16  1  0
 16  7  1  0
 17 26  1  0
 17 15  1  0
 18 17  2  0
 19 13  1  0
 20 19  2  0
 20 10  1  0
 21 22  1  0
 22 23  1  0
 23 25  1  0
 23 24  1  1
 25 27  1  0
 25 26  1  6
 27 29  1  0
 28 27  2  0
M  END
$$$$
