AIF.pdb
     RDKit          3D

 25 25  0  0  1  0  0  0  0  0999 V2000
   25.8915  -15.9713  -14.8560 C   0  0  0  0  0  0  0  0  0  0  0  0
   26.9213  -17.0467  -15.0360 C   0  0  2  0  0  0  0  0  0  0  0  0
   27.2729  -17.1526  -16.4185 N   0  0  0  0  0  0  0  0  0  0  0  0
   26.4408  -18.3669  -14.5038 C   0  0  0  0  0  0  0  0  0  0  0  0
   25.7730  -19.1278  -15.2375 O   0  0  0  0  0  0  0  0  0  0  0  0
   29.8556  -21.0896  -11.2978 C   0  0  0  0  0  0  0  0  0  0  0  0
   28.7743  -20.6598  -12.2728 C   0  0  0  0  0  0  0  0  0  0  0  0
   27.3970  -20.6326  -11.6496 C   0  0  2  0  0  0  0  0  0  0  0  0
   27.0203  -22.0781  -11.3228 C   0  0  0  0  0  0  0  0  0  0  0  0
   26.3782  -19.9986  -12.5585 C   0  0  2  0  0  0  0  0  0  0  0  0
   26.7243  -18.7781  -13.1849 N   0  0  0  0  0  0  0  0  0  0  0  0
   24.9988  -20.1047  -12.0981 C   0  0  0  0  0  0  0  0  0  0  0  0
   24.6310  -19.4715  -11.0819 O   0  0  0  0  0  0  0  0  0  0  0  0
   24.0077  -20.9059  -12.7462 N   0  0  0  0  0  0  0  0  0  0  0  0
   22.6194  -20.8166  -12.2724 C   0  0  1  0  0  0  0  0  0  0  0  0
   22.1507  -19.3802  -12.3291 C   0  0  0  0  0  0  0  0  0  0  0  0
   20.7338  -19.2786  -11.9876 C   0  0  0  0  0  0  0  0  0  0  0  0
   19.7888  -19.0449  -12.9421 C   0  0  0  0  0  0  0  0  0  0  0  0
   18.4632  -18.9679  -12.5847 C   0  0  0  0  0  0  0  0  0  0  0  0
   18.0679  -19.1228  -11.2762 C   0  0  0  0  0  0  0  0  0  0  0  0
   19.0195  -19.3592  -10.3088 C   0  0  0  0  0  0  0  0  0  0  0  0
   20.3384  -19.4356  -10.6652 C   0  0  0  0  0  0  0  0  0  0  0  0
   21.7571  -21.7656  -12.9838 C   0  0  0  0  0  0  0  0  0  0  0  0
   20.6507  -22.4124  -12.4703 O   0  0  0  0  0  0  0  0  0  0  0  0
   22.0357  -22.0398  -14.2011 O   0  0  0  0  0  0  0  0  0  0  0  0
  2  4  1  0
  2  1  1  6
  3  2  1  0
  4  5  2  0
  6  7  1  0
  8 10  1  0
  8  9  1  6
  8  7  1  0
 10 11  1  1
 11  4  1  0
 12 14  1  0
 12 10  1  0
 13 12  2  0
 15 14  1  0
 15 16  1  6
 17 16  1  0
 18 17  2  0
 19 18  1  0
 20 19  2  0
 20 21  1  0
 21 22  2  0
 22 17  1  0
 23 24  1  0
 23 15  1  0
 25 23  2  0
M  END
$$$$
