AIF.pdb
     RDKit          3D

 25 25  0  0  1  0  0  0  0  0999 V2000
   21.7635  -19.5374  -12.7588 C   0  0  0  0  0  0  0  0  0  0  0  0
   22.7607  -19.9363  -13.8056 C   0  0  2  0  0  0  0  0  0  0  0  0
   22.1219  -20.7430  -14.7991 N   0  0  0  0  0  0  0  0  0  0  0  0
   23.9343  -20.6570  -13.2051 C   0  0  0  0  0  0  0  0  0  0  0  0
   23.8700  -21.8890  -13.0014 O   0  0  0  0  0  0  0  0  0  0  0  0
   28.7441  -20.5259  -15.2022 C   0  0  0  0  0  0  0  0  0  0  0  0
   27.4654  -20.7627  -14.4190 C   0  0  0  0  0  0  0  0  0  0  0  0
   27.5863  -20.3735  -12.9630 C   0  0  2  0  0  0  0  0  0  0  0  0
   28.6528  -21.2759  -12.3413 C   0  0  0  0  0  0  0  0  0  0  0  0
   26.2756  -20.5005  -12.2336 C   0  0  2  0  0  0  0  0  0  0  0  0
   25.1204  -19.9766  -12.8603 N   0  0  0  0  0  0  0  0  0  0  0  0
   26.3577  -20.3034  -10.7913 C   0  0  0  0  0  0  0  0  0  0  0  0
   26.1599  -19.1658  -10.3059 O   0  0  0  0  0  0  0  0  0  0  0  0
   26.6573  -21.3508   -9.8653 N   0  0  0  0  0  0  0  0  0  0  0  0
   26.5730  -21.0564   -8.4279 C   0  0  1  0  0  0  0  0  0  0  0  0
   27.2617  -19.7429   -8.1334 C   0  0  0  0  0  0  0  0  0  0  0  0
   27.8795  -19.7618   -6.8096 C   0  0  0  0  0  0  0  0  0  0  0  0
   28.6322  -20.8193   -6.3928 C   0  0  0  0  0  0  0  0  0  0  0  0
   29.2084  -20.7961   -5.1444 C   0  0  0  0  0  0  0  0  0  0  0  0
   29.0404  -19.7217   -4.3019 C   0  0  0  0  0  0  0  0  0  0  0  0
   28.2806  -18.6512   -4.7193 C   0  0  0  0  0  0  0  0  0  0  0  0
   27.7076  -18.6749   -5.9616 C   0  0  0  0  0  0  0  0  0  0  0  0
   25.1879  -21.1360   -7.9534 C   0  0  0  0  0  0  0  0  0  0  0  0
   24.0504  -20.9066   -8.7013 O   0  0  0  0  0  0  0  0  0  0  0  0
   24.9854  -21.4456   -6.7295 O   0  0  0  0  0  0  0  0  0  0  0  0
  2  4  1  0
  2  1  1  1
  3  2  1  0
  4  5  2  0
  6  7  1  0
  8 10  1  0
  8  9  1  1
  8  7  1  0
 10 11  1  6
 11  4  1  0
 12 14  1  0
 12 10  1  0
 13 12  2  0
 15 14  1  0
 15 16  1  6
 17 16  1  0
 18 17  2  0
 19 18  1  0
 20 19  2  0
 20 21  1  0
 21 22  2  0
 22 17  1  0
 23 24  1  0
 23 15  1  0
 25 23  2  0
M  END
$$$$
