AIF.pdb
     RDKit          3D

 25 25  0  0  1  0  0  0  0  0999 V2000
   29.2841  -18.7639  -14.3838 C   0  0  0  0  0  0  0  0  0  0  0  0
   27.8494  -19.0766  -14.6888 C   0  0  2  0  0  0  0  0  0  0  0  0
   27.3629  -18.1823  -15.6936 N   0  0  0  0  0  0  0  0  0  0  0  0
   26.9948  -19.0105  -13.4549 C   0  0  0  0  0  0  0  0  0  0  0  0
   26.5937  -17.9035  -13.0344 O   0  0  0  0  0  0  0  0  0  0  0  0
   22.3865  -21.0781  -13.3272 C   0  0  0  0  0  0  0  0  0  0  0  0
   23.6687  -20.3330  -13.0025 C   0  0  0  0  0  0  0  0  0  0  0  0
   24.4268  -20.9429  -11.8452 C   0  0  2  0  0  0  0  0  0  0  0  0
   23.5428  -20.8081  -10.6048 C   0  0  0  0  0  0  0  0  0  0  0  0
   25.7626  -20.2818  -11.6340 C   0  0  2  0  0  0  0  0  0  0  0  0
   26.6273  -20.1745  -12.7486 N   0  0  0  0  0  0  0  0  0  0  0  0
   26.4047  -20.5944  -10.3627 C   0  0  0  0  0  0  0  0  0  0  0  0
   26.9792  -21.6968  -10.2097 O   0  0  0  0  0  0  0  0  0  0  0  0
   26.4241  -19.7023   -9.2456 N   0  0  0  0  0  0  0  0  0  0  0  0
   27.0232  -20.1716   -7.9884 C   0  0  1  0  0  0  0  0  0  0  0  0
   27.8002  -19.0476   -7.3409 C   0  0  0  0  0  0  0  0  0  0  0  0
   28.2890  -19.4420   -6.0218 C   0  0  0  0  0  0  0  0  0  0  0  0
   27.6860  -19.0022   -4.8809 C   0  0  0  0  0  0  0  0  0  0  0  0
   28.1666  -19.4046   -3.6570 C   0  0  0  0  0  0  0  0  0  0  0  0
   29.2499  -20.2468   -3.5588 C   0  0  0  0  0  0  0  0  0  0  0  0
   29.8620  -20.6934   -4.7091 C   0  0  0  0  0  0  0  0  0  0  0  0
   29.3832  -20.2926   -5.9266 C   0  0  0  0  0  0  0  0  0  0  0  0
   26.0150  -20.7909   -7.1223 C   0  0  0  0  0  0  0  0  0  0  0  0
   24.6478  -20.6160   -7.2006 O   0  0  0  0  0  0  0  0  0  0  0  0
   26.4147  -21.5740   -6.1940 O   0  0  0  0  0  0  0  0  0  0  0  0
  2  4  1  0
  2  1  1  1
  3  2  1  0
  4  5  2  0
  6  7  1  0
  8 10  1  0
  8  9  1  1
  8  7  1  0
 10 11  1  6
 11  4  1  0
 12 14  1  0
 12 10  1  0
 13 12  2  0
 15 14  1  0
 15 16  1  1
 17 16  1  0
 18 17  2  0
 19 18  1  0
 20 19  2  0
 20 21  1  0
 21 22  2  0
 22 17  1  0
 23 24  1  0
 23 15  1  0
 25 23  2  0
M  END
$$$$
