AIF.pdb
     RDKit          3D

 25 25  0  0  1  0  0  0  0  0999 V2000
   32.2500  -22.9425   -9.9138 C   0  0  0  0  0  0  0  0  0  0  0  0
   31.7557  -22.6320  -11.2953 C   0  0  2  0  0  0  0  0  0  0  0  0
   32.8585  -22.2795  -12.1353 N   0  0  0  0  0  0  0  0  0  0  0  0
   30.7240  -21.5400  -11.2808 C   0  0  0  0  0  0  0  0  0  0  0  0
   31.0636  -20.3666  -11.0142 O   0  0  0  0  0  0  0  0  0  0  0  0
   29.2196  -20.4935  -14.7779 C   0  0  0  0  0  0  0  0  0  0  0  0
   28.5959  -19.6779  -13.6597 C   0  0  0  0  0  0  0  0  0  0  0  0
   27.6447  -20.4833  -12.8038 C   0  0  2  0  0  0  0  0  0  0  0  0
   26.4095  -19.6151  -12.5613 C   0  0  0  0  0  0  0  0  0  0  0  0
   28.2748  -20.9058  -11.5035 C   0  0  2  0  0  0  0  0  0  0  0  0
   29.3673  -21.8027  -11.5625 N   0  0  0  0  0  0  0  0  0  0  0  0
   27.3337  -21.1258  -10.4118 C   0  0  0  0  0  0  0  0  0  0  0  0
   26.8630  -22.2699  -10.2163 O   0  0  0  0  0  0  0  0  0  0  0  0
   26.8982  -20.0943   -9.5225 N   0  0  0  0  0  0  0  0  0  0  0  0
   26.1190  -20.4783   -8.3371 C   0  0  1  0  0  0  0  0  0  0  0  0
   26.1488  -19.3592   -7.3207 C   0  0  0  0  0  0  0  0  0  0  0  0
   27.2644  -19.5257   -6.3922 C   0  0  0  0  0  0  0  0  0  0  0  0
   27.2605  -20.5081   -5.4470 C   0  0  0  0  0  0  0  0  0  0  0  0
   28.3342  -20.6420   -4.5983 C   0  0  0  0  0  0  0  0  0  0  0  0
   29.4190  -19.8003   -4.6834 C   0  0  0  0  0  0  0  0  0  0  0  0
   29.4269  -18.8064   -5.6370 C   0  0  0  0  0  0  0  0  0  0  0  0
   28.3581  -18.6738   -6.4812 C   0  0  0  0  0  0  0  0  0  0  0  0
   24.7729  -20.9230   -8.7119 C   0  0  0  0  0  0  0  0  0  0  0  0
   23.9986  -21.8484   -8.0411 O   0  0  0  0  0  0  0  0  0  0  0  0
   24.2407  -20.4206   -9.7603 O   0  0  0  0  0  0  0  0  0  0  0  0
  2  4  1  0
  2  1  1  1
  3  2  1  0
  4  5  2  0
  6  7  1  0
  8 10  1  0
  8  9  1  1
  8  7  1  0
 10 11  1  6
 11  4  1  0
 12 14  1  0
 12 10  1  0
 13 12  2  0
 15 14  1  0
 15 16  1  1
 17 16  1  0
 18 17  2  0
 19 18  1  0
 20 19  2  0
 20 21  1  0
 21 22  2  0
 22 17  1  0
 23 24  1  0
 23 15  1  0
 25 23  2  0
M  END
$$$$
