AIF.pdb
     RDKit          3D

 25 25  0  0  1  0  0  0  0  0999 V2000
   20.0681  -11.2436  -21.6858 C   0  0  0  0  0  0  0  0  0  0  0  0
   19.2883  -10.8958  -20.4529 C   0  0  2  0  0  0  0  0  0  0  0  0
   17.8880  -10.9202  -20.7438 N   0  0  0  0  0  0  0  0  0  0  0  0
   19.6963   -9.5601  -19.8991 C   0  0  0  0  0  0  0  0  0  0  0  0
   20.8782   -9.3711  -19.5376 O   0  0  0  0  0  0  0  0  0  0  0  0
   17.1387   -5.8912  -22.1380 C   0  0  0  0  0  0  0  0  0  0  0  0
   18.4274   -5.9078  -21.3356 C   0  0  0  0  0  0  0  0  0  0  0  0
   18.1939   -6.0702  -19.8506 C   0  0  2  0  0  0  0  0  0  0  0  0
   18.5503   -4.7385  -19.1889 C   0  0  0  0  0  0  0  0  0  0  0  0
   19.0053   -7.1982  -19.2714 C   0  0  2  0  0  0  0  0  0  0  0  0
   18.7742   -8.5005  -19.7737 N   0  0  0  0  0  0  0  0  0  0  0  0
   19.2411   -7.1064  -17.8354 C   0  0  0  0  0  0  0  0  0  0  0  0
   18.3592   -7.4912  -17.0336 O   0  0  0  0  0  0  0  0  0  0  0  0
   20.4460   -6.5918  -17.2628 N   0  0  0  0  0  0  0  0  0  0  0  0
   20.5604   -6.5514  -15.7982 C   0  0  1  0  0  0  0  0  0  0  0  0
   21.7317   -7.3976  -15.3529 C   0  0  0  0  0  0  0  0  0  0  0  0
   21.8991   -7.3370  -13.9028 C   0  0  0  0  0  0  0  0  0  0  0  0
   22.4792   -6.2607  -13.2997 C   0  0  0  0  0  0  0  0  0  0  0  0
   22.6086   -6.2337  -11.9310 C   0  0  0  0  0  0  0  0  0  0  0  0
   22.1622   -7.2764  -11.1524 C   0  0  0  0  0  0  0  0  0  0  0  0
   21.5756   -8.3657  -11.7578 C   0  0  0  0  0  0  0  0  0  0  0  0
   21.4471   -8.3918  -13.1198 C   0  0  0  0  0  0  0  0  0  0  0  0
   20.5886   -5.1693  -15.3092 C   0  0  0  0  0  0  0  0  0  0  0  0
   19.9371   -4.6804  -14.1945 O   0  0  0  0  0  0  0  0  0  0  0  0
   21.2762   -4.3114  -15.9617 O   0  0  0  0  0  0  0  0  0  0  0  0
  2  4  1  0
  2  1  1  6
  3  2  1  0
  4  5  2  0
  6  7  1  0
  8 10  1  0
  8  9  1  1
  8  7  1  0
 10 11  1  1
 11  4  1  0
 12 14  1  0
 12 10  1  0
 13 12  2  0
 15 14  1  0
 15 16  1  6
 17 16  1  0
 18 17  2  0
 19 18  1  0
 20 19  2  0
 20 21  1  0
 21 22  2  0
 22 17  1  0
 23 24  1  0
 23 15  1  0
 25 23  2  0
M  END
$$$$
