AIF.pdb
     RDKit          3D

 25 25  0  0  1  0  0  0  0  0999 V2000
   19.2275  -10.7921  -18.8828 C   0  0  0  0  0  0  0  0  0  0  0  0
   20.2302  -11.6926  -18.2247 C   0  0  2  0  0  0  0  0  0  0  0  0
   19.5660  -12.8315  -17.6699 N   0  0  0  0  0  0  0  0  0  0  0  0
   21.0174  -10.9666  -17.1709 C   0  0  0  0  0  0  0  0  0  0  0  0
   20.4673  -10.6434  -16.0955 O   0  0  0  0  0  0  0  0  0  0  0  0
   26.6212  -10.7644  -14.6937 C   0  0  0  0  0  0  0  0  0  0  0  0
   25.3215  -10.0546  -15.0275 C   0  0  0  0  0  0  0  0  0  0  0  0
   24.5652  -10.7130  -16.1591 C   0  0  2  0  0  0  0  0  0  0  0  0
   25.4788  -10.6927  -17.3852 C   0  0  0  0  0  0  0  0  0  0  0  0
   23.2593  -10.0203  -16.4440 C   0  0  2  0  0  0  0  0  0  0  0  0
   22.3748  -10.6351  -17.3613 N   0  0  0  0  0  0  0  0  0  0  0  0
   23.3434   -8.5668  -16.5231 C   0  0  0  0  0  0  0  0  0  0  0  0
   23.9019   -8.0279  -17.5062 O   0  0  0  0  0  0  0  0  0  0  0  0
   22.8164   -7.6883  -15.5257 N   0  0  0  0  0  0  0  0  0  0  0  0
   22.8685   -6.2406  -15.7734 C   0  0  1  0  0  0  0  0  0  0  0  0
   21.6981   -5.8267  -16.6365 C   0  0  0  0  0  0  0  0  0  0  0  0
   21.7158   -4.3873  -16.8862 C   0  0  0  0  0  0  0  0  0  0  0  0
   20.7375   -3.5708  -16.4015 C   0  0  0  0  0  0  0  0  0  0  0  0
   20.7943   -2.2189  -16.6464 C   0  0  0  0  0  0  0  0  0  0  0  0
   21.8238   -1.6694  -17.3748 C   0  0  0  0  0  0  0  0  0  0  0  0
   22.8142   -2.4908  -17.8664 C   0  0  0  0  0  0  0  0  0  0  0  0
   22.7571   -3.8360  -17.6222 C   0  0  0  0  0  0  0  0  0  0  0  0
   22.9908   -5.4945  -14.5170 C   0  0  0  0  0  0  0  0  0  0  0  0
   23.7031   -4.3281  -14.3219 O   0  0  0  0  0  0  0  0  0  0  0  0
   22.3887   -5.9478  -13.4841 O   0  0  0  0  0  0  0  0  0  0  0  0
  2  4  1  0
  2  1  1  1
  3  2  1  0
  4  5  2  0
  6  7  1  0
  8 10  1  0
  8  9  1  6
  8  7  1  0
 10 11  1  6
 11  4  1  0
 12 14  1  0
 12 10  1  0
 13 12  2  0
 15 14  1  0
 15 16  1  1
 17 16  1  0
 18 17  2  0
 19 18  1  0
 20 19  2  0
 20 21  1  0
 21 22  2  0
 22 17  1  0
 23 24  1  0
 23 15  1  0
 25 23  2  0
M  END
$$$$
