AIF.pdb
     RDKit          3D

 25 25  0  0  1  0  0  0  0  0999 V2000
   22.1066  -28.7216  -15.8058 C   0  0  0  0  0  0  0  0  0  0  0  0
   22.5119  -27.7425  -16.8671 C   0  0  2  0  0  0  0  0  0  0  0  0
   23.9381  -27.6427  -16.9134 N   0  0  0  0  0  0  0  0  0  0  0  0
   21.8885  -26.3941  -16.6424 C   0  0  0  0  0  0  0  0  0  0  0  0
   22.5995  -25.4332  -16.2759 O   0  0  0  0  0  0  0  0  0  0  0  0
   19.4887  -24.3627  -20.3799 C   0  0  0  0  0  0  0  0  0  0  0  0
   20.0637  -24.0935  -19.0009 C   0  0  0  0  0  0  0  0  0  0  0  0
   19.0913  -24.4070  -17.8863 C   0  0  2  0  0  0  0  0  0  0  0  0
   18.3601  -23.1079  -17.5459 C   0  0  0  0  0  0  0  0  0  0  0  0
   19.7836  -24.9734  -16.6755 C   0  0  2  0  0  0  0  0  0  0  0  0
   20.5083  -26.1779  -16.8352 N   0  0  0  0  0  0  0  0  0  0  0  0
   19.0380  -24.8439  -15.4292 C   0  0  0  0  0  0  0  0  0  0  0  0
   18.0866  -25.6224  -15.1889 O   0  0  0  0  0  0  0  0  0  0  0  0
   19.3268  -23.8599  -14.4329 N   0  0  0  0  0  0  0  0  0  0  0  0
   18.4495  -23.7798  -13.2566 C   0  0  1  0  0  0  0  0  0  0  0  0
   19.2227  -24.1618  -12.0146 C   0  0  0  0  0  0  0  0  0  0  0  0
   19.5969  -25.5737  -12.0453 C   0  0  0  0  0  0  0  0  0  0  0  0
   18.7521  -26.5418  -11.5896 C   0  0  0  0  0  0  0  0  0  0  0  0
   19.1340  -27.8617  -11.6458 C   0  0  0  0  0  0  0  0  0  0  0  0
   20.3582  -28.2281  -12.1554 C   0  0  0  0  0  0  0  0  0  0  0  0
   21.2146  -27.2530  -12.6169 C   0  0  0  0  0  0  0  0  0  0  0  0
   20.8339  -25.9399  -12.5606 C   0  0  0  0  0  0  0  0  0  0  0  0
   17.7856  -22.4745  -13.1816 C   0  0  0  0  0  0  0  0  0  0  0  0
   18.0200  -21.3870  -13.9991 O   0  0  0  0  0  0  0  0  0  0  0  0
   16.8983  -22.2991  -12.2779 O   0  0  0  0  0  0  0  0  0  0  0  0
  2  4  1  0
  2  1  1  1
  3  2  1  0
  4  5  2  0
  6  7  1  0
  8 10  1  0
  8  9  1  1
  8  7  1  0
 10 11  1  6
 11  4  1  0
 12 14  1  0
 12 10  1  0
 13 12  2  0
 15 14  1  0
 15 16  1  1
 17 16  1  0
 18 17  2  0
 19 18  1  0
 20 19  2  0
 20 21  1  0
 21 22  2  0
 22 17  1  0
 23 24  1  0
 23 15  1  0
 25 23  2  0
M  END
$$$$
