AIF.pdb
     RDKit          3D

 25 25  0  0  1  0  0  0  0  0999 V2000
   21.8870  -19.9263  -12.2543 C   0  0  0  0  0  0  0  0  0  0  0  0
   23.0313  -19.5181  -13.1336 C   0  0  2  0  0  0  0  0  0  0  0  0
   22.6518  -19.6380  -14.5075 N   0  0  0  0  0  0  0  0  0  0  0  0
   24.2646  -20.3268  -12.8469 C   0  0  0  0  0  0  0  0  0  0  0  0
   24.3347  -21.5133  -13.2350 O   0  0  0  0  0  0  0  0  0  0  0  0
   28.9768  -19.4519  -14.6163 C   0  0  0  0  0  0  0  0  0  0  0  0
   27.7078  -19.9255  -13.9306 C   0  0  0  0  0  0  0  0  0  0  0  0
   27.8351  -19.9729  -12.4248 C   0  0  2  0  0  0  0  0  0  0  0  0
   28.9899  -20.9208  -12.0986 C   0  0  0  0  0  0  0  0  0  0  0  0
   26.5598  -20.4237  -11.7641 C   0  0  2  0  0  0  0  0  0  0  0  0
   25.3586  -19.7804  -12.1445 N   0  0  0  0  0  0  0  0  0  0  0  0
   26.6857  -20.7423  -10.3467 C   0  0  0  0  0  0  0  0  0  0  0  0
   27.8129  -20.7194   -9.8010 O   0  0  0  0  0  0  0  0  0  0  0  0
   25.5778  -21.0893   -9.5123 N   0  0  0  0  0  0  0  0  0  0  0  0
   25.7003  -20.8720   -8.0640 C   0  0  1  0  0  0  0  0  0  0  0  0
   26.3676  -19.5409   -7.8009 C   0  0  0  0  0  0  0  0  0  0  0  0
   27.3499  -19.6520   -6.7252 C   0  0  0  0  0  0  0  0  0  0  0  0
   28.3921  -18.7791   -6.6229 C   0  0  0  0  0  0  0  0  0  0  0  0
   29.2901  -18.9075   -5.5895 C   0  0  0  0  0  0  0  0  0  0  0  0
   29.1583  -19.9044   -4.6507 C   0  0  0  0  0  0  0  0  0  0  0  0
   28.1067  -20.7884   -4.7504 C   0  0  0  0  0  0  0  0  0  0  0  0
   27.2134  -20.6600   -5.7790 C   0  0  0  0  0  0  0  0  0  0  0  0
   24.4082  -21.0471   -7.3931 C   0  0  0  0  0  0  0  0  0  0  0  0
   24.2044  -21.5570   -6.1265 O   0  0  0  0  0  0  0  0  0  0  0  0
   23.3495  -20.7022   -8.0215 O   0  0  0  0  0  0  0  0  0  0  0  0
  2  4  1  0
  2  1  1  1
  3  2  1  0
  4  5  2  0
  6  7  1  0
  8 10  1  0
  8  9  1  6
  8  7  1  0
 10 11  1  1
 11  4  1  0
 12 14  1  0
 12 10  1  0
 13 12  2  0
 15 14  1  0
 15 16  1  6
 17 16  1  0
 18 17  2  0
 19 18  1  0
 20 19  2  0
 20 21  1  0
 21 22  2  0
 22 17  1  0
 23 24  1  0
 23 15  1  0
 25 23  2  0
M  END
$$$$
