LRK.pdb
     RDKit          3D

 29 28  0  0  1  0  0  0  0  0999 V2000
    7.1521  -12.1409   27.7096 C   0  0  0  0  0  0  0  0  0  0  0  0
    7.0442  -13.1875   26.6380 C   0  0  1  0  0  0  0  0  0  0  0  0
    8.1394  -12.9613   25.6085 C   0  0  0  0  0  0  0  0  0  0  0  0
    7.1522  -14.5781   27.2081 C   0  0  0  0  0  0  0  0  0  0  0  0
    6.4391  -15.5412   26.3305 C   0  0  2  0  0  0  0  0  0  0  0  0
    6.1284  -16.7883   26.9668 N   0  0  0  0  0  0  0  0  0  0  0  0
    7.2273  -15.8620   25.0890 C   0  0  0  0  0  0  0  0  0  0  0  0
    8.1247  -16.7433   25.0762 O   0  0  0  0  0  0  0  0  0  0  0  0
    7.9705  -12.4889   17.0361 N   0  0  0  0  0  0  0  0  0  0  0  0
    8.1463  -13.8689   16.7739 C   0  0  0  0  0  0  0  0  0  0  0  0
    8.5901  -14.3273   15.6396 N   0  0  0  0  0  0  0  0  0  0  0  0
    7.8240  -14.8264   17.7998 N   0  0  0  0  0  0  0  0  0  0  0  0
    7.2950  -14.3760   19.0633 C   0  0  0  0  0  0  0  0  0  0  0  0
    8.0641  -14.9761   20.2185 C   0  0  0  0  0  0  0  0  0  0  0  0
    7.3442  -14.6645   21.4851 C   0  0  0  0  0  0  0  0  0  0  0  0
    7.7507  -15.4652   22.6768 C   0  0  2  0  0  0  0  0  0  0  0  0
    6.9876  -15.1748   23.8664 N   0  0  0  0  0  0  0  0  0  0  0  0
    9.2154  -15.4219   22.8746 C   0  0  0  0  0  0  0  0  0  0  0  0
    9.7143  -14.3633   23.3227 O   0  0  0  0  0  0  0  0  0  0  0  0
    8.7969  -15.3501   15.6105 N   0  0  0  0  0  0  0  0  0  0  0  0
   10.0892  -16.5045   22.5867 C   0  0  2  0  0  0  0  0  0  0  0  0
   11.5184  -16.4719   22.8311 C   0  0  0  0  0  0  0  0  0  0  0  0
   11.9226  -17.7978   23.3801 C   0  0  0  0  0  0  0  0  0  0  0  0
   13.3899  -17.9051   23.6984 C   0  0  0  0  0  0  0  0  0  0  0  0
   13.7954  -19.2941   24.1098 C   0  0  0  0  0  0  0  0  0  0  0  0
   15.2930  -19.2404   24.4137 N   0  0  0  0  0  0  0  0  0  0  0  0
   15.7426  -20.5360   24.8437 C   0  0  0  0  0  0  0  0  0  0  0  0
   12.1992  -16.0907   21.5873 O   0  0  0  0  0  0  0  0  0  0  0  0
   11.7372  -16.3300   20.4378 O   0  0  0  0  0  0  0  0  0  0  0  0
  2  1  1  1
  2  3  1  0
  4  2  1  0
  5  4  1  0
  5  6  1  1
  7  8  2  0
  7  5  1  0
  9 10  1  0
 10 12  1  0
 11 10  2  0
 12 13  1  0
 13 14  1  0
 16 15  1  6
 15 14  1  0
 16 17  1  0
 17  7  1  0
 18 16  1  0
 19 18  2  0
 20 18  1  0
 21 27  1  0
 21 20  1  0
 21 22  1  6
 23 22  1  0
 24 23  1  0
 25 24  1  0
 26 25  1  0
 27 29  1  0
 28 27  2  0
M  END
$$$$
