LRK.pdb
     RDKit          3D

 29 28  0  0  1  0  0  0  0  0999 V2000
    4.9130  -12.0479   27.5282 C   0  0  0  0  0  0  0  0  0  0  0  0
    6.0486  -12.0288   26.5457 C   0  0  1  0  0  0  0  0  0  0  0  0
    7.2890  -11.4757   27.2284 C   0  0  0  0  0  0  0  0  0  0  0  0
    6.3317  -13.4040   25.9985 C   0  0  0  0  0  0  0  0  0  0  0  0
    7.5720  -13.3776   25.1817 C   0  0  2  0  0  0  0  0  0  0  0  0
    7.6070  -12.3227   24.2108 N   0  0  0  0  0  0  0  0  0  0  0  0
    7.7849  -14.6695   24.4393 C   0  0  0  0  0  0  0  0  0  0  0  0
    7.7055  -15.7883   25.0085 O   0  0  0  0  0  0  0  0  0  0  0  0
    7.8774  -12.8705   17.5854 N   0  0  0  0  0  0  0  0  0  0  0  0
    9.0051  -13.6202   17.9982 C   0  0  0  0  0  0  0  0  0  0  0  0
   10.2125  -13.1351   18.0229 N   0  0  0  0  0  0  0  0  0  0  0  0
    8.8270  -14.9871   18.4143 N   0  0  0  0  0  0  0  0  0  0  0  0
    7.5219  -15.4535   18.8121 C   0  0  0  0  0  0  0  0  0  0  0  0
    7.3736  -15.4331   20.3166 C   0  0  0  0  0  0  0  0  0  0  0  0
    8.6858  -15.7802   20.9309 C   0  0  0  0  0  0  0  0  0  0  0  0
    8.7151  -15.8167   22.4223 C   0  0  2  0  0  0  0  0  0  0  0  0
    8.0877  -14.6787   23.0492 N   0  0  0  0  0  0  0  0  0  0  0  0
   10.0761  -16.1063   22.9224 C   0  0  0  0  0  0  0  0  0  0  0  0
   10.5868  -15.2967   23.7313 O   0  0  0  0  0  0  0  0  0  0  0  0
   10.9689  -13.8070   18.2803 N   0  0  0  0  0  0  0  0  0  0  0  0
   10.8385  -17.2428   22.5412 C   0  0  1  0  0  0  0  0  0  0  0  0
   11.7681  -17.9212   23.4240 C   0  0  0  0  0  0  0  0  0  0  0  0
   11.0316  -18.3048   24.6622 C   0  0  0  0  0  0  0  0  0  0  0  0
   11.8904  -18.9774   25.6995 C   0  0  0  0  0  0  0  0  0  0  0  0
   11.1023  -19.4437   26.8931 C   0  0  0  0  0  0  0  0  0  0  0  0
   12.1114  -20.0282   27.8820 N   0  0  0  0  0  0  0  0  0  0  0  0
   11.5971  -19.9106   29.2189 C   0  0  0  0  0  0  0  0  0  0  0  0
   12.3712  -19.0452   22.6970 O   0  0  0  0  0  0  0  0  0  0  0  0
   11.7027  -19.8899   22.0399 O   0  0  0  0  0  0  0  0  0  0  0  0
  2  1  1  1
  2  3  1  0
  4  2  1  0
  5  4  1  0
  5  6  1  6
  7  8  2  0
  7  5  1  0
  9 10  1  0
 10 12  1  0
 11 10  2  0
 12 13  1  0
 13 14  1  0
 16 15  1  6
 15 14  1  0
 16 17  1  0
 17  7  1  0
 18 16  1  0
 19 18  2  0
 20 18  1  0
 21 27  1  0
 21 20  1  0
 21 22  1  6
 23 22  1  0
 24 23  1  0
 25 24  1  0
 26 25  1  0
 27 29  1  0
 28 27  2  0
M  END
$$$$
