LRK.pdb
     RDKit          3D

 29 28  0  0  1  0  0  0  0  0999 V2000
    7.2104  -12.0363   27.9864 C   0  0  0  0  0  0  0  0  0  0  0  0
    6.4119  -13.0963   27.2835 C   0  0  1  0  0  0  0  0  0  0  0  0
    5.3110  -12.4342   26.4710 C   0  0  0  0  0  0  0  0  0  0  0  0
    7.2793  -13.9395   26.3850 C   0  0  0  0  0  0  0  0  0  0  0  0
    6.4333  -14.8651   25.5890 C   0  0  2  0  0  0  0  0  0  0  0  0
    6.0522  -16.0554   26.2925 N   0  0  0  0  0  0  0  0  0  0  0  0
    7.1151  -15.3004   24.3197 C   0  0  0  0  0  0  0  0  0  0  0  0
    7.7601  -16.3775   24.2430 O   0  0  0  0  0  0  0  0  0  0  0  0
    7.5503  -15.5873   17.1254 N   0  0  0  0  0  0  0  0  0  0  0  0
    8.4491  -14.6439   16.5716 C   0  0  0  0  0  0  0  0  0  0  0  0
    9.0301  -14.8058   15.4184 N   0  0  0  0  0  0  0  0  0  0  0  0
    8.7467  -13.4413   17.3053 N   0  0  0  0  0  0  0  0  0  0  0  0
    8.0613  -13.1662   18.5438 C   0  0  0  0  0  0  0  0  0  0  0  0
    8.3988  -14.2016   19.5924 C   0  0  0  0  0  0  0  0  0  0  0  0
    7.6950  -13.8482   20.8571 C   0  0  0  0  0  0  0  0  0  0  0  0
    7.8582  -14.8139   21.9828 C   0  0  2  0  0  0  0  0  0  0  0  0
    7.0577  -14.5035   23.1424 N   0  0  0  0  0  0  0  0  0  0  0  0
    9.2871  -15.0484   22.2818 C   0  0  0  0  0  0  0  0  0  0  0  0
    9.8691  -14.2326   23.0343 O   0  0  0  0  0  0  0  0  0  0  0  0
    9.6943  -14.0529   15.1326 N   0  0  0  0  0  0  0  0  0  0  0  0
   10.0387  -16.1389   21.7678 C   0  0  2  0  0  0  0  0  0  0  0  0
   11.3639  -16.4953   22.2373 C   0  0  0  0  0  0  0  0  0  0  0  0
   11.2669  -17.8065   22.9400 C   0  0  0  0  0  0  0  0  0  0  0  0
   12.5949  -18.3650   23.3764 C   0  0  0  0  0  0  0  0  0  0  0  0
   12.4784  -19.7388   23.9782 C   0  0  0  0  0  0  0  0  0  0  0  0
   13.8994  -20.1886   24.3192 N   0  0  0  0  0  0  0  0  0  0  0  0
   13.8602  -21.4997   24.9067 C   0  0  0  0  0  0  0  0  0  0  0  0
   12.2869  -16.4791   21.0956 O   0  0  0  0  0  0  0  0  0  0  0  0
   13.4271  -15.9397   21.1282 O   0  0  0  0  0  0  0  0  0  0  0  0
  2  1  1  6
  2  3  1  0
  4  2  1  0
  5  4  1  0
  5  6  1  1
  7  8  2  0
  7  5  1  0
  9 10  1  0
 10 12  1  0
 11 10  2  0
 12 13  1  0
 13 14  1  0
 16 15  1  6
 15 14  1  0
 16 17  1  0
 17  7  1  0
 18 16  1  0
 19 18  2  0
 20 18  1  0
 21 27  1  0
 21 20  1  0
 21 22  1  6
 23 22  1  0
 24 23  1  0
 25 24  1  0
 26 25  1  0
 27 29  1  0
 28 27  2  0
M  END
$$$$
