LRK.pdb
     RDKit          3D

 29 28  0  0  1  0  0  0  0  0999 V2000
    8.3752  -12.7187   19.8675 C   0  0  0  0  0  0  0  0  0  0  0  0
    8.4706  -13.6561   21.0369 C   0  0  1  0  0  0  0  0  0  0  0  0
    8.0743  -12.9148   22.3034 C   0  0  0  0  0  0  0  0  0  0  0  0
    7.5911  -14.8655   20.8512 C   0  0  0  0  0  0  0  0  0  0  0  0
    8.2486  -15.8330   19.9359 C   0  0  2  0  0  0  0  0  0  0  0  0
    7.3379  -16.5316   19.0760 N   0  0  0  0  0  0  0  0  0  0  0  0
    9.0347  -16.8739   20.6869 C   0  0  0  0  0  0  0  0  0  0  0  0
    8.4970  -17.6404   21.5268 O   0  0  0  0  0  0  0  0  0  0  0  0
   12.3093  -21.4347   17.6152 N   0  0  0  0  0  0  0  0  0  0  0  0
   12.3515  -20.5591   16.5035 C   0  0  0  0  0  0  0  0  0  0  0  0
   12.0853  -20.9389   15.2875 N   0  0  0  0  0  0  0  0  0  0  0  0
   12.7040  -19.1783   16.7088 N   0  0  0  0  0  0  0  0  0  0  0  0
   12.9971  -18.7007   18.0375 C   0  0  0  0  0  0  0  0  0  0  0  0
   11.9254  -19.1258   19.0155 C   0  0  0  0  0  0  0  0  0  0  0  0
   12.2972  -18.6387   20.3735 C   0  0  0  0  0  0  0  0  0  0  0  0
   11.1885  -18.0450   21.1765 C   0  0  2  0  0  0  0  0  0  0  0  0
   10.4325  -17.0354   20.4759 N   0  0  0  0  0  0  0  0  0  0  0  0
   11.6628  -17.6244   22.5123 C   0  0  0  0  0  0  0  0  0  0  0  0
   12.2032  -16.4983   22.6135 O   0  0  0  0  0  0  0  0  0  0  0  0
   12.1985  -20.2115   14.5474 N   0  0  0  0  0  0  0  0  0  0  0  0
   11.5449  -18.4183   23.6845 C   0  0  2  0  0  0  0  0  0  0  0  0
   12.0949  -18.0391   24.9719 C   0  0  0  0  0  0  0  0  0  0  0  0
   11.4836  -18.9164   26.0108 C   0  0  0  0  0  0  0  0  0  0  0  0
   12.0825  -18.7479   27.3815 C   0  0  0  0  0  0  0  0  0  0  0  0
   11.3731  -19.5608   28.4299 C   0  0  0  0  0  0  0  0  0  0  0  0
   12.1567  -19.3771   29.7299 N   0  0  0  0  0  0  0  0  0  0  0  0
   11.4872  -20.0700   30.7963 C   0  0  0  0  0  0  0  0  0  0  0  0
   13.5595  -18.1087   24.8960 O   0  0  0  0  0  0  0  0  0  0  0  0
   14.3287  -17.3660   25.5659 O   0  0  0  0  0  0  0  0  0  0  0  0
  2  1  1  6
  2  3  1  0
  4  2  1  0
  5  4  1  0
  5  6  1  1
  7  8  2  0
  7  5  1  0
  9 10  1  0
 10 12  1  0
 11 10  2  0
 12 13  1  0
 13 14  1  0
 16 15  1  6
 15 14  1  0
 16 17  1  0
 17  7  1  0
 18 16  1  0
 19 18  2  0
 20 18  1  0
 21 27  1  0
 21 20  1  0
 21 22  1  6
 23 22  1  0
 24 23  1  0
 25 24  1  0
 26 25  1  0
 27 29  1  0
 28 27  2  0
M  END
$$$$
