LRK.pdb
     RDKit          3D

 29 28  0  0  1  0  0  0  0  0999 V2000
    7.8952  -12.2249   28.0469 C   0  0  0  0  0  0  0  0  0  0  0  0
    6.9222  -13.1473   27.3702 C   0  0  1  0  0  0  0  0  0  0  0  0
    6.0679  -12.3465   26.4010 C   0  0  0  0  0  0  0  0  0  0  0  0
    7.6290  -14.2582   26.6375 C   0  0  0  0  0  0  0  0  0  0  0  0
    6.6668  -14.9829   25.7685 C   0  0  2  0  0  0  0  0  0  0  0  0
    6.1505  -16.1877   26.3505 N   0  0  0  0  0  0  0  0  0  0  0  0
    7.2758  -15.3571   24.4439 C   0  0  0  0  0  0  0  0  0  0  0  0
    7.8620  -16.4553   24.2642 O   0  0  0  0  0  0  0  0  0  0  0  0
    7.6371  -15.3678   17.3397 N   0  0  0  0  0  0  0  0  0  0  0  0
    8.4935  -14.3862   16.7852 C   0  0  0  0  0  0  0  0  0  0  0  0
    9.1258  -14.5470   15.6591 N   0  0  0  0  0  0  0  0  0  0  0  0
    8.6865  -13.1438   17.4869 N   0  0  0  0  0  0  0  0  0  0  0  0
    8.0391  -12.9271   18.7570 C   0  0  0  0  0  0  0  0  0  0  0  0
    8.4614  -13.9705   19.7664 C   0  0  0  0  0  0  0  0  0  0  0  0
    7.6688  -13.7778   21.0130 C   0  0  0  0  0  0  0  0  0  0  0  0
    7.9626  -14.7307   22.1231 C   0  0  2  0  0  0  0  0  0  0  0  0
    7.2129  -14.4752   23.3291 N   0  0  0  0  0  0  0  0  0  0  0  0
    9.4192  -14.8686   22.3366 C   0  0  0  0  0  0  0  0  0  0  0  0
   10.0080  -13.9560   22.9618 O   0  0  0  0  0  0  0  0  0  0  0  0
    9.7685  -13.7724   15.3823 N   0  0  0  0  0  0  0  0  0  0  0  0
   10.1899  -15.9694   21.8756 C   0  0  2  0  0  0  0  0  0  0  0  0
   11.6102  -16.1195   22.1285 C   0  0  0  0  0  0  0  0  0  0  0  0
   11.8783  -17.5583   22.4124 C   0  0  0  0  0  0  0  0  0  0  0  0
   13.3366  -17.8825   22.5976 C   0  0  0  0  0  0  0  0  0  0  0  0
   13.5858  -19.3544   22.7836 C   0  0  0  0  0  0  0  0  0  0  0  0
   15.0967  -19.5250   22.9450 N   0  0  0  0  0  0  0  0  0  0  0  0
   15.3952  -20.8972   23.2505 C   0  0  0  0  0  0  0  0  0  0  0  0
   12.3513  -15.5723   20.9854 O   0  0  0  0  0  0  0  0  0  0  0  0
   13.4511  -14.9633   21.0942 O   0  0  0  0  0  0  0  0  0  0  0  0
  2  1  1  6
  2  3  1  0
  4  2  1  0
  5  4  1  0
  5  6  1  1
  7  8  2  0
  7  5  1  0
  9 10  1  0
 10 12  1  0
 11 10  2  0
 12 13  1  0
 13 14  1  0
 16 15  1  6
 15 14  1  0
 16 17  1  0
 17  7  1  0
 18 16  1  0
 19 18  2  0
 20 18  1  0
 21 27  1  0
 21 20  1  0
 21 22  1  6
 23 22  1  0
 24 23  1  0
 25 24  1  0
 26 25  1  0
 27 29  1  0
 28 27  2  0
M  END
$$$$
