LRK.pdb
     RDKit          3D

 29 28  0  0  1  0  0  0  0  0999 V2000
    5.9471  -11.7247   26.2403 C   0  0  0  0  0  0  0  0  0  0  0  0
    6.8898  -12.8780   26.4312 C   0  0  1  0  0  0  0  0  0  0  0  0
    7.7688  -12.6080   27.6415 C   0  0  0  0  0  0  0  0  0  0  0  0
    6.1475  -14.1767   26.6130 C   0  0  0  0  0  0  0  0  0  0  0  0
    7.0264  -15.3169   26.2473 C   0  0  2  0  0  0  0  0  0  0  0  0
    8.3537  -15.2233   26.7826 N   0  0  0  0  0  0  0  0  0  0  0  0
    7.1604  -15.4688   24.7559 C   0  0  0  0  0  0  0  0  0  0  0  0
    6.3696  -16.1783   24.0827 O   0  0  0  0  0  0  0  0  0  0  0  0
    9.0314  -15.3897   17.2676 N   0  0  0  0  0  0  0  0  0  0  0  0
    8.4108  -14.1186   17.2082 C   0  0  0  0  0  0  0  0  0  0  0  0
    8.8201  -13.1622   16.4262 N   0  0  0  0  0  0  0  0  0  0  0  0
    7.2704  -13.8529   18.0461 N   0  0  0  0  0  0  0  0  0  0  0  0
    7.4638  -13.4162   19.4067 C   0  0  0  0  0  0  0  0  0  0  0  0
    8.0735  -14.5148   20.2477 C   0  0  0  0  0  0  0  0  0  0  0  0
    7.9669  -14.1323   21.6837 C   0  0  0  0  0  0  0  0  0  0  0  0
    8.4846  -15.1328   22.6622 C   0  0  2  0  0  0  0  0  0  0  0  0
    8.1975  -14.8096   24.0387 N   0  0  0  0  0  0  0  0  0  0  0  0
    9.9051  -15.4494   22.4010 C   0  0  0  0  0  0  0  0  0  0  0  0
   10.7745  -14.7889   23.0160 O   0  0  0  0  0  0  0  0  0  0  0  0
    8.3651  -12.2330   16.5654 N   0  0  0  0  0  0  0  0  0  0  0  0
   10.3429  -16.4533   21.4960 C   0  0  1  0  0  0  0  0  0  0  0  0
   11.3078  -17.4804   21.8388 C   0  0  0  0  0  0  0  0  0  0  0  0
   10.7613  -18.2624   22.9845 C   0  0  0  0  0  0  0  0  0  0  0  0
   11.6169  -19.4333   23.3878 C   0  0  0  0  0  0  0  0  0  0  0  0
   11.9023  -19.4634   24.8645 C   0  0  0  0  0  0  0  0  0  0  0  0
   12.7329  -20.7207   25.1237 N   0  0  0  0  0  0  0  0  0  0  0  0
   13.0981  -20.7773   26.5126 C   0  0  0  0  0  0  0  0  0  0  0  0
   11.5960  -18.2739   20.6377 O   0  0  0  0  0  0  0  0  0  0  0  0
   10.7190  -18.6038   19.7926 O   0  0  0  0  0  0  0  0  0  0  0  0
  2  1  1  1
  2  3  1  0
  4  2  1  0
  5  4  1  0
  5  6  1  1
  7  8  2  0
  7  5  1  0
  9 10  1  0
 10 12  1  0
 11 10  2  0
 12 13  1  0
 13 14  1  0
 16 15  1  6
 15 14  1  0
 16 17  1  0
 17  7  1  0
 18 16  1  0
 19 18  2  0
 20 18  1  0
 21 27  1  0
 21 20  1  0
 21 22  1  6
 23 22  1  0
 24 23  1  0
 25 24  1  0
 26 25  1  0
 27 29  1  0
 28 27  2  0
M  END
$$$$
