LRK.pdb
     RDKit          3D

 29 28  0  0  1  0  0  0  0  0999 V2000
    6.3032  -12.1921   18.7942 C   0  0  0  0  0  0  0  0  0  0  0  0
    7.5847  -12.9645   18.6662 C   0  0  1  0  0  0  0  0  0  0  0  0
    8.7585  -12.0084   18.8033 C   0  0  0  0  0  0  0  0  0  0  0  0
    7.6825  -14.0524   19.7042 C   0  0  0  0  0  0  0  0  0  0  0  0
    9.0403  -14.6540   19.6796 C   0  0  2  0  0  0  0  0  0  0  0  0
    9.3577  -15.3239   18.4519 N   0  0  0  0  0  0  0  0  0  0  0  0
    9.2348  -15.6506   20.7906 C   0  0  0  0  0  0  0  0  0  0  0  0
    9.0238  -15.3579   21.9955 O   0  0  0  0  0  0  0  0  0  0  0  0
   12.6830  -21.9421   18.9270 N   0  0  0  0  0  0  0  0  0  0  0  0
   11.4205  -22.4051   19.3698 C   0  0  0  0  0  0  0  0  0  0  0  0
   11.2318  -23.5931   19.8664 N   0  0  0  0  0  0  0  0  0  0  0  0
   10.2785  -21.5334   19.2738 N   0  0  0  0  0  0  0  0  0  0  0  0
   10.4481  -20.1722   18.8293 C   0  0  0  0  0  0  0  0  0  0  0  0
   11.1052  -19.3299   19.8991 C   0  0  0  0  0  0  0  0  0  0  0  0
   10.2219  -19.3064   21.0986 C   0  0  0  0  0  0  0  0  0  0  0  0
    9.8099  -17.9537   21.5751 C   0  0  2  0  0  0  0  0  0  0  0  0
    9.6698  -16.9783   20.5212 N   0  0  0  0  0  0  0  0  0  0  0  0
   10.6538  -17.5053   22.7033 C   0  0  0  0  0  0  0  0  0  0  0  0
   11.8070  -17.0899   22.4425 O   0  0  0  0  0  0  0  0  0  0  0  0
   10.2408  -23.8502   20.0705 N   0  0  0  0  0  0  0  0  0  0  0  0
   10.2382  -17.5183   24.0618 C   0  0  2  0  0  0  0  0  0  0  0  0
   11.0404  -17.0010   25.1538 C   0  0  0  0  0  0  0  0  0  0  0  0
   10.1406  -16.2392   26.0662 C   0  0  0  0  0  0  0  0  0  0  0  0
   10.8468  -15.6187   27.2419 C   0  0  0  0  0  0  0  0  0  0  0  0
    9.9020  -14.9386   28.1948 C   0  0  0  0  0  0  0  0  0  0  0  0
   10.7627  -14.3201   29.2969 N   0  0  0  0  0  0  0  0  0  0  0  0
    9.9202  -13.6251   30.2311 C   0  0  0  0  0  0  0  0  0  0  0  0
   11.7497  -18.1199   25.7867 O   0  0  0  0  0  0  0  0  0  0  0  0
   11.3409  -19.3131   25.7533 O   0  0  0  0  0  0  0  0  0  0  0  0
  2  1  1  1
  2  3  1  0
  4  2  1  0
  5  4  1  0
  5  6  1  6
  7  8  2  0
  7  5  1  0
  9 10  1  0
 10 12  1  0
 11 10  2  0
 12 13  1  0
 13 14  1  0
 16 15  1  6
 15 14  1  0
 16 17  1  0
 17  7  1  0
 18 16  1  0
 19 18  2  0
 20 18  1  0
 21 27  1  0
 21 20  1  0
 21 22  1  6
 23 22  1  0
 24 23  1  0
 25 24  1  0
 26 25  1  0
 27 29  1  0
 28 27  2  0
M  END
$$$$
