LRK.pdb
     RDKit          3D

 29 28  0  0  1  0  0  0  0  0999 V2000
    8.0240  -12.1493   27.8293 C   0  0  0  0  0  0  0  0  0  0  0  0
    7.0244  -13.1052   27.2440 C   0  0  1  0  0  0  0  0  0  0  0  0
    5.9609  -12.3179   26.4960 C   0  0  0  0  0  0  0  0  0  0  0  0
    7.6808  -14.0947   26.3163 C   0  0  0  0  0  0  0  0  0  0  0  0
    6.6474  -14.9406   25.6662 C   0  0  2  0  0  0  0  0  0  0  0  0
    6.2693  -16.0909   26.4346 N   0  0  0  0  0  0  0  0  0  0  0  0
    7.0930  -15.4367   24.3169 C   0  0  0  0  0  0  0  0  0  0  0  0
    7.5478  -16.5972   24.1482 O   0  0  0  0  0  0  0  0  0  0  0  0
    9.8955  -14.9071   17.4571 N   0  0  0  0  0  0  0  0  0  0  0  0
    8.7521  -14.4933   16.7320 C   0  0  0  0  0  0  0  0  0  0  0  0
    8.4870  -14.9034   15.5257 N   0  0  0  0  0  0  0  0  0  0  0  0
    7.8265  -13.5747   17.3425 N   0  0  0  0  0  0  0  0  0  0  0  0
    8.1028  -13.0399   18.6528 C   0  0  0  0  0  0  0  0  0  0  0  0
    8.3905  -14.1471   19.6413 C   0  0  0  0  0  0  0  0  0  0  0  0
    7.6252  -13.8821   20.8918 C   0  0  0  0  0  0  0  0  0  0  0  0
    7.7652  -14.9062   21.9681 C   0  0  2  0  0  0  0  0  0  0  0  0
    7.0175  -14.6052   23.1647 N   0  0  0  0  0  0  0  0  0  0  0  0
    9.1864  -15.2337   22.2115 C   0  0  0  0  0  0  0  0  0  0  0  0
    9.8423  -14.4727   22.9605 O   0  0  0  0  0  0  0  0  0  0  0  0
    7.6437  -14.4834   15.0761 N   0  0  0  0  0  0  0  0  0  0  0  0
    9.8520  -16.3552   21.6478 C   0  0  2  0  0  0  0  0  0  0  0  0
   11.1966  -16.7593   22.0114 C   0  0  0  0  0  0  0  0  0  0  0  0
   11.0933  -17.9119   22.9514 C   0  0  0  0  0  0  0  0  0  0  0  0
   12.4193  -18.5263   23.3121 C   0  0  0  0  0  0  0  0  0  0  0  0
   12.2755  -19.7828   24.1267 C   0  0  0  0  0  0  0  0  0  0  0  0
   13.6920  -20.2780   24.4201 N   0  0  0  0  0  0  0  0  0  0  0  0
   13.6278  -21.4724   25.2169 C   0  0  0  0  0  0  0  0  0  0  0  0
   11.9522  -17.0363   20.7835 O   0  0  0  0  0  0  0  0  0  0  0  0
   11.4363  -17.5312   19.7438 O   0  0  0  0  0  0  0  0  0  0  0  0
  2  1  1  6
  2  3  1  0
  4  2  1  0
  5  4  1  0
  5  6  1  1
  7  8  2  0
  7  5  1  0
  9 10  1  0
 10 12  1  0
 11 10  2  0
 12 13  1  0
 13 14  1  0
 16 15  1  6
 15 14  1  0
 16 17  1  0
 17  7  1  0
 18 16  1  0
 19 18  2  0
 20 18  1  0
 21 27  1  0
 21 20  1  0
 21 22  1  1
 23 22  1  0
 24 23  1  0
 25 24  1  0
 26 25  1  0
 27 29  1  0
 28 27  2  0
M  END
$$$$
