MIW.pdb
     RDKit          3D

 31 32  0  0  1  0  0  0  0  0999 V2000
   27.3462  -15.8017  -14.6548 C   0  0  0  0  0  0  0  0  0  0  0  0
   28.6368  -15.8335  -15.9358 S   0  0  0  0  0  0  0  0  0  0  0  0
   28.1491  -17.0605  -17.1989 C   0  0  0  0  0  0  0  0  0  0  0  0
   27.1741  -18.0269  -16.5643 C   0  0  0  0  0  0  0  0  0  0  0  0
   26.8036  -19.1345  -17.4916 C   0  0  2  0  0  0  0  0  0  0  0  0
   26.1738  -18.6725  -18.7036 N   0  0  0  0  0  0  0  0  0  0  0  0
   25.9402  -20.1809  -16.8286 C   0  0  0  0  0  0  0  0  0  0  0  0
   24.7134  -20.0358  -16.7665 O   0  0  0  0  0  0  0  0  0  0  0  0
   26.2867  -25.5531  -17.5073 C   0  0  0  0  0  0  0  0  0  0  0  0
   25.9141  -24.0942  -17.2324 C   0  0  0  0  0  0  0  0  0  0  0  0
   26.0796  -23.7728  -15.7690 C   0  0  2  0  0  0  0  0  0  0  0  0
   25.1244  -24.6481  -14.9946 C   0  0  0  0  0  0  0  0  0  0  0  0
   25.9310  -22.3207  -15.4252 C   0  0  2  0  0  0  0  0  0  0  0  0
   26.5072  -21.3464  -16.2643 N   0  0  0  0  0  0  0  0  0  0  0  0
   25.9569  -22.0046  -13.9846 C   0  0  0  0  0  0  0  0  0  0  0  0
   27.0095  -21.9945  -13.2949 O   0  0  0  0  0  0  0  0  0  0  0  0
   24.7584  -21.6865  -13.2866 N   0  0  0  0  0  0  0  0  0  0  0  0
   24.7861  -21.2047  -11.8955 C   0  0  1  0  0  0  0  0  0  0  0  0
   25.6301  -19.9924  -11.7819 C   0  0  0  0  0  0  0  0  0  0  0  0
   26.9224  -20.2585  -11.1426 C   0  0  0  0  0  0  0  0  0  0  0  0
   28.0995  -20.7181  -11.7167 C   0  0  0  0  0  0  0  0  0  0  0  0
   29.0654  -20.8769  -10.8010 N   0  0  0  0  0  0  0  0  0  0  0  0
   28.5220  -20.5182   -9.6100 C   0  0  0  0  0  0  0  0  0  0  0  0
   29.1023  -20.4835   -8.3587 C   0  0  0  0  0  0  0  0  0  0  0  0
   28.3754  -20.0632   -7.2761 C   0  0  0  0  0  0  0  0  0  0  0  0
   27.0621  -19.6707   -7.4161 C   0  0  0  0  0  0  0  0  0  0  0  0
   26.5045  -19.7141   -8.6714 C   0  0  0  0  0  0  0  0  0  0  0  0
   27.2133  -20.1338   -9.7795 C   0  0  0  0  0  0  0  0  0  0  0  0
   23.4268  -21.0856  -11.3708 C   0  0  0  0  0  0  0  0  0  0  0  0
   22.4327  -21.2127  -12.1725 O   0  0  0  0  0  0  0  0  0  0  0  0
   23.0716  -20.8485  -10.0567 O   0  0  0  0  0  0  0  0  0  0  0  0
  2  1  1  0
  3  2  1  0
  4  3  1  0
  5  4  1  0
  5  6  1  6
  7  5  1  0
  8  7  2  0
  9 10  1  0
 11 13  1  0
 11 10  1  0
 11 12  1  1
 13 14  1  6
 14  7  1  0
 15 13  1  0
 15 17  1  0
 16 15  2  0
 18 17  1  0
 18 29  1  0
 18 19  1  6
 20 19  1  0
 20 21  2  0
 22 21  1  0
 23 22  1  0
 24 23  2  0
 25 24  1  0
 26 25  2  0
 26 27  1  0
 27 28  2  0
 28 23  1  0
 28 20  1  0
 29 31  1  0
 30 29  2  0
M  END
$$$$
