MIW.pdb
     RDKit          3D

 31 32  0  0  1  0  0  0  0  0999 V2000
   26.7913  -16.1523  -15.9130 C   0  0  0  0  0  0  0  0  0  0  0  0
   28.2117  -17.1971  -16.3582 S   0  0  0  0  0  0  0  0  0  0  0  0
   27.6187  -18.5059  -17.4870 C   0  0  0  0  0  0  0  0  0  0  0  0
   26.6660  -19.3941  -16.7184 C   0  0  0  0  0  0  0  0  0  0  0  0
   27.3237  -20.0297  -15.5406 C   0  0  2  0  0  0  0  0  0  0  0  0
   28.3919  -20.9276  -15.9040 N   0  0  0  0  0  0  0  0  0  0  0  0
   26.3401  -20.7370  -14.6394 C   0  0  0  0  0  0  0  0  0  0  0  0
   26.0521  -21.9243  -14.8329 O   0  0  0  0  0  0  0  0  0  0  0  0
   26.6668  -20.8678   -9.3098 C   0  0  0  0  0  0  0  0  0  0  0  0
   26.3560  -21.1347  -10.7846 C   0  0  0  0  0  0  0  0  0  0  0  0
   25.0501  -20.4909  -11.1749 C   0  0  2  0  0  0  0  0  0  0  0  0
   23.9574  -21.1326  -10.3550 C   0  0  0  0  0  0  0  0  0  0  0  0
   24.7526  -20.5173  -12.6445 C   0  0  2  0  0  0  0  0  0  0  0  0
   25.7257  -20.0655  -13.5579 N   0  0  0  0  0  0  0  0  0  0  0  0
   23.3563  -20.2173  -13.0139 C   0  0  0  0  0  0  0  0  0  0  0  0
   22.8736  -19.0552  -13.0180 O   0  0  0  0  0  0  0  0  0  0  0  0
   22.4636  -21.2580  -13.3945 N   0  0  0  0  0  0  0  0  0  0  0  0
   21.0451  -20.9852  -13.6799 C   0  0  1  0  0  0  0  0  0  0  0  0
   20.7529  -21.2008  -15.1162 C   0  0  0  0  0  0  0  0  0  0  0  0
   21.3254  -20.1592  -15.9745 C   0  0  0  0  0  0  0  0  0  0  0  0
   22.5677  -20.1259  -16.5926 C   0  0  0  0  0  0  0  0  0  0  0  0
   22.7509  -18.9836  -17.2698 N   0  0  0  0  0  0  0  0  0  0  0  0
   21.6187  -18.2549  -17.0983 C   0  0  0  0  0  0  0  0  0  0  0  0
   21.2929  -17.0129  -17.6031 C   0  0  0  0  0  0  0  0  0  0  0  0
   20.0722  -16.4569  -17.3243 C   0  0  0  0  0  0  0  0  0  0  0  0
   19.1551  -17.1225  -16.5406 C   0  0  0  0  0  0  0  0  0  0  0  0
   19.5012  -18.3578  -16.0478 C   0  0  0  0  0  0  0  0  0  0  0  0
   20.7242  -18.9415  -16.3124 C   0  0  0  0  0  0  0  0  0  0  0  0
   20.1887  -21.7072  -12.7405 C   0  0  0  0  0  0  0  0  0  0  0  0
   20.6626  -22.7222  -12.1142 O   0  0  0  0  0  0  0  0  0  0  0  0
   18.8757  -21.4090  -12.4301 O   0  0  0  0  0  0  0  0  0  0  0  0
  2  1  1  0
  3  2  1  0
  4  3  1  0
  5  4  1  0
  5  6  1  6
  7  5  1  0
  8  7  2  0
  9 10  1  0
 11 13  1  0
 11 10  1  0
 11 12  1  1
 13 14  1  6
 14  7  1  0
 15 13  1  0
 15 17  1  0
 16 15  2  0
 18 17  1  0
 18 29  1  0
 18 19  1  6
 20 19  1  0
 20 21  2  0
 22 21  1  0
 23 22  1  0
 24 23  2  0
 25 24  1  0
 26 25  2  0
 26 27  1  0
 27 28  2  0
 28 23  1  0
 28 20  1  0
 29 31  1  0
 30 29  2  0
M  END
$$$$
