MIW.pdb
     RDKit          3D

 31 32  0  0  1  0  0  0  0  0999 V2000
   28.2948  -17.0092  -15.9277 C   0  0  0  0  0  0  0  0  0  0  0  0
   29.3184  -18.2683  -16.7488 S   0  0  0  0  0  0  0  0  0  0  0  0
   28.2415  -19.2295  -17.8691 C   0  0  0  0  0  0  0  0  0  0  0  0
   27.1494  -19.8671  -17.0395 C   0  0  0  0  0  0  0  0  0  0  0  0
   27.6998  -20.8073  -16.0211 C   0  0  2  0  0  0  0  0  0  0  0  0
   28.4098  -21.9198  -16.6019 N   0  0  0  0  0  0  0  0  0  0  0  0
   26.6435  -21.3114  -15.0672 C   0  0  0  0  0  0  0  0  0  0  0  0
   25.9605  -22.3024  -15.3527 O   0  0  0  0  0  0  0  0  0  0  0  0
   25.1330  -21.1670   -9.0122 C   0  0  0  0  0  0  0  0  0  0  0  0
   24.6575  -21.2356  -10.4655 C   0  0  0  0  0  0  0  0  0  0  0  0
   25.7980  -20.9513  -11.4092 C   0  0  2  0  0  0  0  0  0  0  0  0
   26.4685  -19.6791  -10.9509 C   0  0  0  0  0  0  0  0  0  0  0  0
   25.4161  -20.9062  -12.8587 C   0  0  2  0  0  0  0  0  0  0  0  0
   26.4079  -20.6681  -13.8307 N   0  0  0  0  0  0  0  0  0  0  0  0
   24.0968  -20.3131  -13.1483 C   0  0  0  0  0  0  0  0  0  0  0  0
   23.8103  -19.1101  -12.9154 O   0  0  0  0  0  0  0  0  0  0  0  0
   23.0559  -21.0959  -13.7215 N   0  0  0  0  0  0  0  0  0  0  0  0
   21.7855  -20.4869  -14.1495 C   0  0  1  0  0  0  0  0  0  0  0  0
   21.8228  -20.1688  -15.5961 C   0  0  0  0  0  0  0  0  0  0  0  0
   20.6010  -19.5068  -16.0633 C   0  0  0  0  0  0  0  0  0  0  0  0
   20.0810  -18.2752  -15.6903 C   0  0  0  0  0  0  0  0  0  0  0  0
   18.9184  -18.0233  -16.3081 N   0  0  0  0  0  0  0  0  0  0  0  0
   18.6675  -19.0984  -17.0978 C   0  0  0  0  0  0  0  0  0  0  0  0
   17.6086  -19.3285  -17.9517 C   0  0  0  0  0  0  0  0  0  0  0  0
   17.5561  -20.4848  -18.6846 C   0  0  0  0  0  0  0  0  0  0  0  0
   18.5519  -21.4316  -18.5829 C   0  0  0  0  0  0  0  0  0  0  0  0
   19.5965  -21.1819  -17.7256 C   0  0  0  0  0  0  0  0  0  0  0  0
   19.6746  -20.0257  -16.9747 C   0  0  0  0  0  0  0  0  0  0  0  0
   20.6554  -21.3012  -13.7056 C   0  0  0  0  0  0  0  0  0  0  0  0
   20.7872  -22.5764  -13.6472 O   0  0  0  0  0  0  0  0  0  0  0  0
   19.4118  -20.8391  -13.3194 O   0  0  0  0  0  0  0  0  0  0  0  0
  2  1  1  0
  3  2  1  0
  4  3  1  0
  5  4  1  0
  5  6  1  6
  7  5  1  0
  8  7  2  0
  9 10  1  0
 11 13  1  0
 11 10  1  0
 11 12  1  1
 13 14  1  6
 14  7  1  0
 15 13  1  0
 15 17  1  0
 16 15  2  0
 18 17  1  0
 18 29  1  0
 18 19  1  6
 20 19  1  0
 20 21  2  0
 22 21  1  0
 23 22  1  0
 24 23  2  0
 25 24  1  0
 26 25  2  0
 26 27  1  0
 27 28  2  0
 28 23  1  0
 28 20  1  0
 29 31  1  0
 30 29  2  0
M  END
$$$$
