MIW.pdb
     RDKit          3D

 31 32  0  0  1  0  0  0  0  0999 V2000
   21.5046  -29.3434  -20.7958 C   0  0  0  0  0  0  0  0  0  0  0  0
   21.9220  -30.8081  -19.8018 S   0  0  0  0  0  0  0  0  0  0  0  0
   22.8991  -30.2534  -18.3608 C   0  0  0  0  0  0  0  0  0  0  0  0
   23.1656  -31.4552  -17.4822 C   0  0  0  0  0  0  0  0  0  0  0  0
   24.2712  -32.3018  -18.0160 C   0  0  2  0  0  0  0  0  0  0  0  0
   23.8901  -33.0651  -19.1785 N   0  0  0  0  0  0  0  0  0  0  0  0
   24.8578  -33.2171  -16.9680 C   0  0  0  0  0  0  0  0  0  0  0  0
   24.3063  -34.2889  -16.6903 O   0  0  0  0  0  0  0  0  0  0  0  0
   30.5367  -33.9309  -15.8911 C   0  0  0  0  0  0  0  0  0  0  0  0
   29.2125  -33.1985  -15.6613 C   0  0  0  0  0  0  0  0  0  0  0  0
   28.0727  -34.1812  -15.5748 C   0  0  2  0  0  0  0  0  0  0  0  0
   28.0582  -34.9829  -16.8535 C   0  0  0  0  0  0  0  0  0  0  0  0
   26.7385  -33.5685  -15.2688 C   0  0  2  0  0  0  0  0  0  0  0  0
   26.0447  -32.8755  -16.2805 N   0  0  0  0  0  0  0  0  0  0  0  0
   26.5941  -33.0097  -13.9113 C   0  0  0  0  0  0  0  0  0  0  0  0
   26.6282  -31.7770  -13.6608 O   0  0  0  0  0  0  0  0  0  0  0  0
   26.4034  -33.8629  -12.7885 N   0  0  0  0  0  0  0  0  0  0  0  0
   26.3976  -33.3327  -11.4149 C   0  0  1  0  0  0  0  0  0  0  0  0
   25.0085  -33.1721  -10.9254 C   0  0  0  0  0  0  0  0  0  0  0  0
   24.9441  -32.5884   -9.5821 C   0  0  0  0  0  0  0  0  0  0  0  0
   24.5381  -31.3159   -9.2043 C   0  0  0  0  0  0  0  0  0  0  0  0
   24.6545  -31.1339   -7.8814 N   0  0  0  0  0  0  0  0  0  0  0  0
   25.1414  -32.2972   -7.3795 C   0  0  0  0  0  0  0  0  0  0  0  0
   25.4231  -32.6358   -6.0720 C   0  0  0  0  0  0  0  0  0  0  0  0
   25.8926  -33.8876   -5.7727 C   0  0  0  0  0  0  0  0  0  0  0  0
   26.0906  -34.8237   -6.7641 C   0  0  0  0  0  0  0  0  0  0  0  0
   25.8041  -34.4644   -8.0593 C   0  0  0  0  0  0  0  0  0  0  0  0
   25.3305  -33.2101   -8.3895 C   0  0  0  0  0  0  0  0  0  0  0  0
   27.2864  -34.1196  -10.5617 C   0  0  0  0  0  0  0  0  0  0  0  0
   27.3110  -35.3961  -10.6917 O   0  0  0  0  0  0  0  0  0  0  0  0
   28.1437  -33.6293   -9.5953 O   0  0  0  0  0  0  0  0  0  0  0  0
  2  1  1  0
  3  2  1  0
  4  3  1  0
  5  4  1  0
  5  6  1  6
  7  5  1  0
  8  7  2  0
  9 10  1  0
 11 13  1  0
 11 10  1  0
 11 12  1  6
 13 14  1  6
 14  7  1  0
 15 13  1  0
 15 17  1  0
 16 15  2  0
 18 17  1  0
 18 29  1  0
 18 19  1  1
 20 19  1  0
 20 21  2  0
 22 21  1  0
 23 22  1  0
 24 23  2  0
 25 24  1  0
 26 25  2  0
 26 27  1  0
 27 28  2  0
 28 23  1  0
 28 20  1  0
 29 31  1  0
 30 29  2  0
M  END
$$$$
