MIW.pdb
     RDKit          3D

 31 32  0  0  1  0  0  0  0  0999 V2000
   29.5783  -26.2674  -19.3907 C   0  0  0  0  0  0  0  0  0  0  0  0
   30.0157  -24.9582  -20.5748 S   0  0  0  0  0  0  0  0  0  0  0  0
   28.8827  -23.5504  -20.3046 C   0  0  0  0  0  0  0  0  0  0  0  0
   29.1211  -23.0155  -18.9102 C   0  0  0  0  0  0  0  0  0  0  0  0
   27.8609  -22.9488  -18.1156 C   0  0  2  0  0  0  0  0  0  0  0  0
   26.7557  -22.3868  -18.8518 N   0  0  0  0  0  0  0  0  0  0  0  0
   28.0377  -22.2122  -16.8094 C   0  0  0  0  0  0  0  0  0  0  0  0
   28.9733  -22.4941  -16.0509 O   0  0  0  0  0  0  0  0  0  0  0  0
   28.0326  -17.6836  -17.4383 C   0  0  0  0  0  0  0  0  0  0  0  0
   28.4471  -18.4049  -16.1535 C   0  0  0  0  0  0  0  0  0  0  0  0
   27.2325  -18.8911  -15.4046 C   0  0  2  0  0  0  0  0  0  0  0  0
   27.2013  -18.1855  -14.0707 C   0  0  0  0  0  0  0  0  0  0  0  0
   27.1365  -20.3812  -15.2656 C   0  0  2  0  0  0  0  0  0  0  0  0
   27.1444  -21.1880  -16.4208 N   0  0  0  0  0  0  0  0  0  0  0  0
   26.2739  -20.8612  -14.1694 C   0  0  0  0  0  0  0  0  0  0  0  0
   25.0490  -21.1134  -14.3096 O   0  0  0  0  0  0  0  0  0  0  0  0
   26.8015  -21.0680  -12.8641 N   0  0  0  0  0  0  0  0  0  0  0  0
   25.9303  -21.4290  -11.7334 C   0  0  1  0  0  0  0  0  0  0  0  0
   26.7411  -21.8201  -10.5566 C   0  0  0  0  0  0  0  0  0  0  0  0
   26.5501  -20.9236   -9.4124 C   0  0  0  0  0  0  0  0  0  0  0  0
   25.4118  -20.2253   -9.0342 C   0  0  0  0  0  0  0  0  0  0  0  0
   25.6335  -19.4730   -7.9471 N   0  0  0  0  0  0  0  0  0  0  0  0
   26.9305  -19.6764   -7.6028 C   0  0  0  0  0  0  0  0  0  0  0  0
   27.6483  -19.1513   -6.5480 C   0  0  0  0  0  0  0  0  0  0  0  0
   28.9583  -19.5078   -6.3637 C   0  0  0  0  0  0  0  0  0  0  0  0
   29.5779  -20.3901   -7.2216 C   0  0  0  0  0  0  0  0  0  0  0  0
   28.8441  -20.8999   -8.2657 C   0  0  0  0  0  0  0  0  0  0  0  0
   27.5229  -20.5577   -8.4755 C   0  0  0  0  0  0  0  0  0  0  0  0
   24.9362  -20.3824  -11.5021 C   0  0  0  0  0  0  0  0  0  0  0  0
   25.2276  -19.1668  -11.7927 O   0  0  0  0  0  0  0  0  0  0  0  0
   23.6640  -20.5564  -10.9919 O   0  0  0  0  0  0  0  0  0  0  0  0
  2  1  1  0
  3  2  1  0
  4  3  1  0
  5  4  1  0
  5  6  1  6
  7  5  1  0
  8  7  2  0
  9 10  1  0
 11 13  1  0
 11 10  1  0
 11 12  1  1
 13 14  1  6
 14  7  1  0
 15 13  1  0
 15 17  1  0
 16 15  2  0
 18 17  1  0
 18 29  1  0
 18 19  1  1
 20 19  1  0
 20 21  2  0
 22 21  1  0
 23 22  1  0
 24 23  2  0
 25 24  1  0
 26 25  2  0
 26 27  1  0
 27 28  2  0
 28 23  1  0
 28 20  1  0
 29 31  1  0
 30 29  2  0
M  END
$$$$
