MIW.pdb
     RDKit          3D

 31 32  0  0  1  0  0  0  0  0999 V2000
   27.4598  -16.8736  -16.4163 C   0  0  0  0  0  0  0  0  0  0  0  0
   28.5468  -18.2258  -16.9615 S   0  0  0  0  0  0  0  0  0  0  0  0
   27.5279  -19.4364  -17.8754 C   0  0  0  0  0  0  0  0  0  0  0  0
   26.5242  -20.0292  -16.9118 C   0  0  0  0  0  0  0  0  0  0  0  0
   27.1652  -20.9678  -15.9463 C   0  0  2  0  0  0  0  0  0  0  0  0
   27.7651  -22.1139  -16.5832 N   0  0  0  0  0  0  0  0  0  0  0  0
   26.2178  -21.4186  -14.8605 C   0  0  0  0  0  0  0  0  0  0  0  0
   25.5152  -22.4245  -15.0176 O   0  0  0  0  0  0  0  0  0  0  0  0
   25.3950  -21.2216   -8.7135 C   0  0  0  0  0  0  0  0  0  0  0  0
   24.7381  -21.2032  -10.0959 C   0  0  0  0  0  0  0  0  0  0  0  0
   25.7780  -21.0311  -11.1734 C   0  0  2  0  0  0  0  0  0  0  0  0
   26.6558  -19.8666  -10.7842 C   0  0  0  0  0  0  0  0  0  0  0  0
   25.2262  -20.8924  -12.5610 C   0  0  2  0  0  0  0  0  0  0  0  0
   26.1087  -20.7076  -13.6436 N   0  0  0  0  0  0  0  0  0  0  0  0
   23.9446  -20.1692  -12.6639 C   0  0  0  0  0  0  0  0  0  0  0  0
   23.8525  -18.9142  -12.6473 O   0  0  0  0  0  0  0  0  0  0  0  0
   22.7166  -20.8768  -12.7910 N   0  0  0  0  0  0  0  0  0  0  0  0
   21.4359  -20.1677  -12.9492 C   0  0  1  0  0  0  0  0  0  0  0  0
   21.4969  -19.2342  -14.0980 C   0  0  0  0  0  0  0  0  0  0  0  0
   21.6795  -19.9225  -15.3795 C   0  0  0  0  0  0  0  0  0  0  0  0
   21.0668  -21.0791  -15.8416 C   0  0  0  0  0  0  0  0  0  0  0  0
   21.5205  -21.4266  -17.0541 N   0  0  0  0  0  0  0  0  0  0  0  0
   22.4416  -20.4906  -17.3974 C   0  0  0  0  0  0  0  0  0  0  0  0
   23.1874  -20.3797  -18.5528 C   0  0  0  0  0  0  0  0  0  0  0  0
   24.0564  -19.3324  -18.7114 C   0  0  0  0  0  0  0  0  0  0  0  0
   24.2003  -18.3786  -17.7277 C   0  0  0  0  0  0  0  0  0  0  0  0
   23.4482  -18.5094  -16.5850 C   0  0  0  0  0  0  0  0  0  0  0  0
   22.5654  -19.5547  -16.3984 C   0  0  0  0  0  0  0  0  0  0  0  0
   20.3254  -21.1184  -12.9596 C   0  0  0  0  0  0  0  0  0  0  0  0
   20.5772  -22.3744  -13.0376 O   0  0  0  0  0  0  0  0  0  0  0  0
   18.9804  -20.8109  -12.8860 O   0  0  0  0  0  0  0  0  0  0  0  0
  2  1  1  0
  3  2  1  0
  4  3  1  0
  5  4  1  0
  5  6  1  6
  7  5  1  0
  8  7  2  0
  9 10  1  0
 11 13  1  0
 11 10  1  0
 11 12  1  1
 13 14  1  6
 14  7  1  0
 15 13  1  0
 15 17  1  0
 16 15  2  0
 18 17  1  0
 18 29  1  0
 18 19  1  6
 20 19  1  0
 20 21  2  0
 22 21  1  0
 23 22  1  0
 24 23  2  0
 25 24  1  0
 26 25  2  0
 26 27  1  0
 27 28  2  0
 28 23  1  0
 28 20  1  0
 29 31  1  0
 30 29  2  0
M  END
$$$$
