MIW.pdb
     RDKit          3D

 31 32  0  0  1  0  0  0  0  0999 V2000
   28.2463  -27.4753  -16.3897 C   0  0  0  0  0  0  0  0  0  0  0  0
   27.0394  -27.1660  -17.7146 S   0  0  0  0  0  0  0  0  0  0  0  0
   27.3272  -25.4806  -18.3589 C   0  0  0  0  0  0  0  0  0  0  0  0
   27.7898  -24.6108  -17.2114 C   0  0  0  0  0  0  0  0  0  0  0  0
   28.0653  -23.2117  -17.6481 C   0  0  2  0  0  0  0  0  0  0  0  0
   29.1794  -23.1108  -18.5579 N   0  0  0  0  0  0  0  0  0  0  0  0
   28.2631  -22.2699  -16.4846 C   0  0  0  0  0  0  0  0  0  0  0  0
   29.3476  -22.2229  -15.8917 O   0  0  0  0  0  0  0  0  0  0  0  0
   28.0442  -17.0876  -16.5684 C   0  0  0  0  0  0  0  0  0  0  0  0
   28.2466  -18.5626  -16.2133 C   0  0  0  0  0  0  0  0  0  0  0  0
   27.1685  -19.0322  -15.2702 C   0  0  2  0  0  0  0  0  0  0  0  0
   27.2559  -18.1949  -14.0175 C   0  0  0  0  0  0  0  0  0  0  0  0
   27.1886  -20.5029  -14.9774 C   0  0  2  0  0  0  0  0  0  0  0  0
   27.2207  -21.4226  -16.0444 N   0  0  0  0  0  0  0  0  0  0  0  0
   26.3992  -20.9267  -13.8056 C   0  0  0  0  0  0  0  0  0  0  0  0
   25.1785  -21.2272  -13.8627 O   0  0  0  0  0  0  0  0  0  0  0  0
   26.9980  -21.0188  -12.5180 N   0  0  0  0  0  0  0  0  0  0  0  0
   26.2206  -21.4345  -11.3388 C   0  0  1  0  0  0  0  0  0  0  0  0
   27.1195  -21.7054  -10.1926 C   0  0  0  0  0  0  0  0  0  0  0  0
   26.8493  -20.8378   -9.0421 C   0  0  0  0  0  0  0  0  0  0  0  0
   25.6877  -20.1467   -8.7265 C   0  0  0  0  0  0  0  0  0  0  0  0
   25.8332  -19.4228   -7.6078 N   0  0  0  0  0  0  0  0  0  0  0  0
   27.1030  -19.6376   -7.1792 C   0  0  0  0  0  0  0  0  0  0  0  0
   27.7456  -19.1410   -6.0638 C   0  0  0  0  0  0  0  0  0  0  0  0
   29.0394  -19.5049   -5.7977 C   0  0  0  0  0  0  0  0  0  0  0  0
   29.7170  -20.3665   -6.6324 C   0  0  0  0  0  0  0  0  0  0  0  0
   29.0577  -20.8481   -7.7378 C   0  0  0  0  0  0  0  0  0  0  0  0
   27.7545  -20.4978   -8.0306 C   0  0  0  0  0  0  0  0  0  0  0  0
   25.1340  -20.4897  -11.0863 C   0  0  0  0  0  0  0  0  0  0  0  0
   25.3094  -19.2472  -11.3553 O   0  0  0  0  0  0  0  0  0  0  0  0
   23.8856  -20.7911  -10.5765 O   0  0  0  0  0  0  0  0  0  0  0  0
  2  1  1  0
  3  2  1  0
  4  3  1  0
  5  4  1  0
  5  6  1  6
  7  5  1  0
  8  7  2  0
  9 10  1  0
 11 13  1  0
 11 10  1  0
 11 12  1  1
 13 14  1  6
 14  7  1  0
 15 13  1  0
 15 17  1  0
 16 15  2  0
 18 17  1  0
 18 29  1  0
 18 19  1  1
 20 19  1  0
 20 21  2  0
 22 21  1  0
 23 22  1  0
 24 23  2  0
 25 24  1  0
 26 25  2  0
 26 27  1  0
 27 28  2  0
 28 23  1  0
 28 20  1  0
 29 31  1  0
 30 29  2  0
M  END
$$$$
