MIW.pdb
     RDKit          3D

 31 32  0  0  1  0  0  0  0  0999 V2000
  -11.1696  -15.0988  -81.3383 C   0  0  0  0  0  0  0  0  0  0  0  0
  -11.1702  -16.3942  -82.6147 S   0  0  0  0  0  0  0  0  0  0  0  0
  -12.8910  -16.9661  -82.8387 C   0  0  0  0  0  0  0  0  0  0  0  0
  -12.8836  -18.4781  -82.8734 C   0  0  0  0  0  0  0  0  0  0  0  0
  -12.1469  -19.0588  -81.7141 C   0  0  2  0  0  0  0  0  0  0  0  0
  -12.7762  -18.7825  -80.4465 N   0  0  0  0  0  0  0  0  0  0  0  0
  -10.6991  -18.6315  -81.6749 C   0  0  0  0  0  0  0  0  0  0  0  0
  -10.3467  -17.6693  -80.9820 O   0  0  0  0  0  0  0  0  0  0  0  0
   -6.2965  -18.5848  -80.8867 C   0  0  0  0  0  0  0  0  0  0  0  0
   -6.6263  -18.7504  -82.3722 C   0  0  0  0  0  0  0  0  0  0  0  0
   -7.3234  -20.0645  -82.6159 C   0  0  2  0  0  0  0  0  0  0  0  0
   -7.3475  -20.3034  -84.1060 C   0  0  0  0  0  0  0  0  0  0  0  0
   -8.6847  -20.1764  -81.9968 C   0  0  2  0  0  0  0  0  0  0  0  0
   -9.7145  -19.3149  -82.4243 N   0  0  0  0  0  0  0  0  0  0  0  0
   -8.7021  -20.5129  -80.5607 C   0  0  0  0  0  0  0  0  0  0  0  0
   -8.9851  -19.6842  -79.6569 O   0  0  0  0  0  0  0  0  0  0  0  0
   -8.3910  -21.8285  -80.1167 N   0  0  0  0  0  0  0  0  0  0  0  0
   -8.0656  -22.1053  -78.7076 C   0  0  1  0  0  0  0  0  0  0  0  0
   -6.6536  -22.5340  -78.5746 C   0  0  0  0  0  0  0  0  0  0  0  0
   -6.3269  -23.6830  -79.4245 C   0  0  0  0  0  0  0  0  0  0  0  0
   -5.0969  -24.2928  -79.6291 C   0  0  0  0  0  0  0  0  0  0  0  0
   -5.1856  -25.2978  -80.5117 N   0  0  0  0  0  0  0  0  0  0  0  0
   -6.4869  -25.3535  -80.8939 C   0  0  0  0  0  0  0  0  0  0  0  0
   -7.1047  -26.2213  -81.7707 C   0  0  0  0  0  0  0  0  0  0  0  0
   -8.4510  -26.1198  -82.0031 C   0  0  0  0  0  0  0  0  0  0  0  0
   -9.2065  -25.1567  -81.3708 C   0  0  0  0  0  0  0  0  0  0  0  0
   -8.5702  -24.3026  -80.5023 C   0  0  0  0  0  0  0  0  0  0  0  0
   -7.2150  -24.3819  -80.2497 C   0  0  0  0  0  0  0  0  0  0  0  0
   -8.4733  -20.9852  -77.8613 C   0  0  0  0  0  0  0  0  0  0  0  0
   -9.7238  -20.7603  -77.6798 O   0  0  0  0  0  0  0  0  0  0  0  0
   -7.6354  -20.1071  -77.2011 O   0  0  0  0  0  0  0  0  0  0  0  0
  2  1  1  0
  3  2  1  0
  4  3  1  0
  5  4  1  0
  5  6  1  1
  7  5  1  0
  8  7  2  0
  9 10  1  0
 11 13  1  0
 11 10  1  0
 11 12  1  6
 13 14  1  1
 14  7  1  0
 15 13  1  0
 15 17  1  0
 16 15  2  0
 18 17  1  0
 18 29  1  0
 18 19  1  6
 20 19  1  0
 20 21  2  0
 22 21  1  0
 23 22  1  0
 24 23  2  0
 25 24  1  0
 26 25  2  0
 26 27  1  0
 27 28  2  0
 28 23  1  0
 28 20  1  0
 29 31  1  0
 30 29  2  0
M  END
$$$$
