YYY.pdb
     RDKit          3D

 37 39  0  0  1  0  0  0  0  0999 V2000
    6.1056  -10.8969   25.9492 O   0  0  0  0  0  0  0  0  0  0  0  0
    6.2798  -12.2798   26.1337 C   0  0  0  0  0  0  0  0  0  0  0  0
    5.1578  -13.0719   26.2859 C   0  0  0  0  0  0  0  0  0  0  0  0
    5.3037  -14.4360   26.4689 C   0  0  0  0  0  0  0  0  0  0  0  0
    6.5510  -15.0346   26.5042 C   0  0  0  0  0  0  0  0  0  0  0  0
    6.7040  -16.4806   26.6994 C   0  0  0  0  0  0  0  0  0  0  0  0
    6.4082  -17.2313   25.4237 C   0  0  2  0  0  0  0  0  0  0  0  0
    6.4151  -18.6644   25.6234 N   0  0  0  0  0  0  0  0  0  0  0  0
    7.3272  -16.8226   24.3321 C   0  0  0  0  0  0  0  0  0  0  0  0
    8.2839  -17.5883   24.0584 O   0  0  0  0  0  0  0  0  0  0  0  0
    7.6427  -14.2075   26.3482 C   0  0  0  0  0  0  0  0  0  0  0  0
    7.5224  -12.8451   26.1644 C   0  0  0  0  0  0  0  0  0  0  0  0
    9.0217  -13.4709   16.3712 O   0  0  0  0  0  0  0  0  0  0  0  0
    8.4988  -13.6602   17.6453 C   0  0  0  0  0  0  0  0  0  0  0  0
    7.7861  -14.8111   17.8809 C   0  0  0  0  0  0  0  0  0  0  0  0
    7.2625  -14.9997   19.1585 C   0  0  0  0  0  0  0  0  0  0  0  0
    7.4217  -14.1044   20.1800 C   0  0  0  0  0  0  0  0  0  0  0  0
    6.8886  -14.2908   21.5321 C   0  0  0  0  0  0  0  0  0  0  0  0
    7.7047  -15.3009   22.3657 C   0  0  2  0  0  0  0  0  0  0  0  0
    7.1285  -15.6059   23.6241 N   0  0  0  0  0  0  0  0  0  0  0  0
    9.0949  -14.8160   22.3879 C   0  0  0  0  0  0  0  0  0  0  0  0
    9.2968  -13.5702   22.2355 O   0  0  0  0  0  0  0  0  0  0  0  0
    8.1635  -12.9521   19.8575 C   0  0  0  0  0  0  0  0  0  0  0  0
    8.6987  -12.7118   18.6309 C   0  0  0  0  0  0  0  0  0  0  0  0
   12.5289  -15.3100   30.0420 O   0  0  0  0  0  0  0  0  0  0  0  0
   11.9252  -15.4922   28.8033 C   0  0  0  0  0  0  0  0  0  0  0  0
   11.9444  -14.4815   27.8778 C   0  0  0  0  0  0  0  0  0  0  0  0
   11.3349  -14.6703   26.6313 C   0  0  0  0  0  0  0  0  0  0  0  0
   10.7145  -15.8470   26.3079 C   0  0  0  0  0  0  0  0  0  0  0  0
   10.0902  -16.0163   24.9963 C   0  0  0  0  0  0  0  0  0  0  0  0
   10.9663  -15.6946   23.8185 C   0  0  2  0  0  0  0  0  0  0  0  0
   10.2538  -15.6059   22.5641 N   0  0  0  0  0  0  0  0  0  0  0  0
   12.0861  -16.6365   23.6570 C   0  0  0  0  0  0  0  0  0  0  0  0
   13.2475  -16.4886   24.3887 O   0  0  0  0  0  0  0  0  0  0  0  0
   10.6890  -16.8638   27.2251 C   0  0  0  0  0  0  0  0  0  0  0  0
   11.2903  -16.6797   28.4569 C   0  0  0  0  0  0  0  0  0  0  0  0
   11.9980  -17.5842   22.8524 O   0  0  0  0  0  0  0  0  0  0  0  0
  2  1  1  0
  3  2  2  0
  4  3  1  0
  5 11  1  0
  5  4  2  0
  6  5  1  0
  7  6  1  0
  7  8  1  1
  9  7  1  0
 10  9  2  0
 11 12  2  0
 12  2  1  0
 13 14  1  0
 14 24  2  0
 14 15  1  0
 15 16  2  0
 16 17  1  0
 17 18  1  0
 19 18  1  1
 19 20  1  0
 20  9  1  0
 21 19  1  0
 21 32  1  0
 22 21  2  0
 23 17  2  0
 24 23  1  0
 25 26  1  0
 26 36  2  0
 27 26  1  0
 27 28  2  0
 28 29  1  0
 29 35  2  0
 29 30  1  0
 31 32  1  0
 31 33  1  0
 31 30  1  1
 33 37  2  0
 33 34  1  0
 36 35  1  0
M  END
$$$$
