YYY.pdb
     RDKit          3D

 37 39  0  0  1  0  0  0  0  0999 V2000
    8.2613  -20.8495   11.5490 O   0  0  0  0  0  0  0  0  0  0  0  0
    9.3192  -20.1788   12.1873 C   0  0  0  0  0  0  0  0  0  0  0  0
   10.6155  -20.5289   11.8609 C   0  0  0  0  0  0  0  0  0  0  0  0
   11.6737  -19.8829   12.4758 C   0  0  0  0  0  0  0  0  0  0  0  0
   11.4696  -18.8882   13.4162 C   0  0  0  0  0  0  0  0  0  0  0  0
   12.5925  -18.2050   14.0680 C   0  0  0  0  0  0  0  0  0  0  0  0
   12.3078  -17.9765   15.5327 C   0  0  2  0  0  0  0  0  0  0  0  0
   11.1012  -17.2043   15.7368 N   0  0  0  0  0  0  0  0  0  0  0  0
   13.4742  -17.3682   16.2202 C   0  0  0  0  0  0  0  0  0  0  0  0
   14.6074  -17.8559   15.9872 O   0  0  0  0  0  0  0  0  0  0  0  0
   10.1612  -18.5704   13.7118 C   0  0  0  0  0  0  0  0  0  0  0  0
    9.0899  -19.2003   13.1119 C   0  0  0  0  0  0  0  0  0  0  0  0
   18.9271  -11.7849   20.0657 O   0  0  0  0  0  0  0  0  0  0  0  0
   17.7601  -12.3694   19.5871 C   0  0  0  0  0  0  0  0  0  0  0  0
   17.7175  -12.7212   18.2596 C   0  0  0  0  0  0  0  0  0  0  0  0
   16.5471  -13.3071   17.7810 C   0  0  0  0  0  0  0  0  0  0  0  0
   15.4492  -13.5474   18.5602 C   0  0  0  0  0  0  0  0  0  0  0  0
   14.2149  -14.1725   18.0777 C   0  0  0  0  0  0  0  0  0  0  0  0
   14.3499  -15.6972   17.8833 C   0  0  2  0  0  0  0  0  0  0  0  0
   13.3100  -16.2725   17.1110 N   0  0  0  0  0  0  0  0  0  0  0  0
   14.5694  -16.2827   19.2165 C   0  0  0  0  0  0  0  0  0  0  0  0
   13.5905  -16.3091   20.0272 O   0  0  0  0  0  0  0  0  0  0  0  0
   15.5731  -13.1581   19.9076 C   0  0  0  0  0  0  0  0  0  0  0  0
   16.6874  -12.5825   20.4326 C   0  0  0  0  0  0  0  0  0  0  0  0
   11.7502  -22.0839   20.2025 O   0  0  0  0  0  0  0  0  0  0  0  0
   12.8477  -21.2637   20.4366 C   0  0  0  0  0  0  0  0  0  0  0  0
   13.1420  -20.8631   21.7138 C   0  0  0  0  0  0  0  0  0  0  0  0
   14.2489  -20.0370   21.9443 C   0  0  0  0  0  0  0  0  0  0  0  0
   15.0531  -19.6141   20.9203 C   0  0  0  0  0  0  0  0  0  0  0  0
   16.2048  -18.7550   21.1924 C   0  0  0  0  0  0  0  0  0  0  0  0
   15.9534  -17.2791   21.0638 C   0  0  2  0  0  0  0  0  0  0  0  0
   15.7792  -16.8301   19.7011 N   0  0  0  0  0  0  0  0  0  0  0  0
   16.9970  -16.4577   21.6991 C   0  0  0  0  0  0  0  0  0  0  0  0
   17.3067  -16.6147   23.0354 O   0  0  0  0  0  0  0  0  0  0  0  0
   14.7683  -20.0081   19.6398 C   0  0  0  0  0  0  0  0  0  0  0  0
   13.6756  -20.8240   19.4097 C   0  0  0  0  0  0  0  0  0  0  0  0
   17.6167  -15.6055   21.0336 O   0  0  0  0  0  0  0  0  0  0  0  0
  2  1  1  0
  3  2  2  0
  4  3  1  0
  5 11  1  0
  5  4  2  0
  6  5  1  0
  7  6  1  0
  7  8  1  6
  9  7  1  0
 10  9  2  0
 11 12  2  0
 12  2  1  0
 13 14  1  0
 14 24  2  0
 14 15  1  0
 15 16  2  0
 16 17  1  0
 17 18  1  0
 19 18  1  1
 19 20  1  0
 20  9  1  0
 21 19  1  0
 21 32  1  0
 22 21  2  0
 23 17  2  0
 24 23  1  0
 25 26  1  0
 26 36  2  0
 27 26  1  0
 27 28  2  0
 28 29  1  0
 29 35  2  0
 29 30  1  0
 31 32  1  0
 31 33  1  0
 31 30  1  6
 33 37  2  0
 33 34  1  0
 36 35  1  0
M  END
$$$$
