YYY.pdb
     RDKit          3D

 37 39  0  0  1  0  0  0  0  0999 V2000
    9.7817  -22.9900   16.2681 O   0  0  0  0  0  0  0  0  0  0  0  0
    9.9322  -21.9880   17.2427 C   0  0  0  0  0  0  0  0  0  0  0  0
   11.2087  -21.5728   17.5711 C   0  0  0  0  0  0  0  0  0  0  0  0
   11.3824  -20.5878   18.5276 C   0  0  0  0  0  0  0  0  0  0  0  0
   10.3058  -20.0017   19.1702 C   0  0  0  0  0  0  0  0  0  0  0  0
   10.4917  -18.9584   20.1848 C   0  0  0  0  0  0  0  0  0  0  0  0
   10.1323  -17.5999   19.6336 C   0  0  2  0  0  0  0  0  0  0  0  0
   11.0259  -17.1918   18.5712 N   0  0  0  0  0  0  0  0  0  0  0  0
   10.0578  -16.5829   20.7121 C   0  0  0  0  0  0  0  0  0  0  0  0
   11.1381  -16.1086   21.1415 O   0  0  0  0  0  0  0  0  0  0  0  0
    9.0507  -20.4455   18.8123 C   0  0  0  0  0  0  0  0  0  0  0  0
    8.8525  -21.4260   17.8617 C   0  0  0  0  0  0  0  0  0  0  0  0
    6.6307  -11.4196   27.0314 O   0  0  0  0  0  0  0  0  0  0  0  0
    6.7653  -12.2468   25.9223 C   0  0  0  0  0  0  0  0  0  0  0  0
    7.3943  -11.7345   24.8134 C   0  0  0  0  0  0  0  0  0  0  0  0
    7.5288  -12.5649   23.7023 C   0  0  0  0  0  0  0  0  0  0  0  0
    7.0701  -13.8527   23.6616 C   0  0  0  0  0  0  0  0  0  0  0  0
    7.2124  -14.7438   22.5073 C   0  0  0  0  0  0  0  0  0  0  0  0
    8.6458  -15.2911   22.3439 C   0  0  2  0  0  0  0  0  0  0  0  0
    8.8055  -16.1635   21.2383 N   0  0  0  0  0  0  0  0  0  0  0  0
    9.0552  -15.8220   23.6550 C   0  0  0  0  0  0  0  0  0  0  0  0
    8.7644  -17.0287   23.9295 O   0  0  0  0  0  0  0  0  0  0  0  0
    6.4379  -14.3016   24.8368 C   0  0  0  0  0  0  0  0  0  0  0  0
    6.2767  -13.5396   25.9513 C   0  0  0  0  0  0  0  0  0  0  0  0
   12.2419  -16.7609   31.9200 O   0  0  0  0  0  0  0  0  0  0  0  0
   11.9664  -16.3041   30.6365 C   0  0  0  0  0  0  0  0  0  0  0  0
   11.0905  -15.2659   30.4534 C   0  0  0  0  0  0  0  0  0  0  0  0
   10.8166  -14.8093   29.1583 C   0  0  0  0  0  0  0  0  0  0  0  0
   11.4044  -15.3759   28.0594 C   0  0  0  0  0  0  0  0  0  0  0  0
   11.1018  -14.8747   26.7193 C   0  0  0  0  0  0  0  0  0  0  0  0
   10.1553  -15.7188   25.9133 C   0  0  2  0  0  0  0  0  0  0  0  0
    9.7521  -15.1170   24.6625 N   0  0  0  0  0  0  0  0  0  0  0  0
    8.9466  -16.1049   26.6598 C   0  0  0  0  0  0  0  0  0  0  0  0
    8.9194  -17.2599   27.4157 O   0  0  0  0  0  0  0  0  0  0  0  0
   12.2811  -16.4141   28.2305 C   0  0  0  0  0  0  0  0  0  0  0  0
   12.5533  -16.8668   29.5086 C   0  0  0  0  0  0  0  0  0  0  0  0
    7.9274  -15.3889   26.6176 O   0  0  0  0  0  0  0  0  0  0  0  0
  2  1  1  0
  3  2  2  0
  4  3  1  0
  5 11  1  0
  5  4  2  0
  6  5  1  0
  7  6  1  0
  7  8  1  6
  9  7  1  0
 10  9  2  0
 11 12  2  0
 12  2  1  0
 13 14  1  0
 14 24  2  0
 14 15  1  0
 15 16  2  0
 16 17  1  0
 17 18  1  0
 19 18  1  1
 19 20  1  0
 20  9  1  0
 21 19  1  0
 21 32  1  0
 22 21  2  0
 23 17  2  0
 24 23  1  0
 25 26  1  0
 26 36  2  0
 27 26  1  0
 27 28  2  0
 28 29  1  0
 29 35  2  0
 29 30  1  0
 31 32  1  0
 31 33  1  0
 31 30  1  1
 33 37  2  0
 33 34  1  0
 36 35  1  0
M  END
$$$$
