YYY.pdb
     RDKit          3D

 37 39  0  0  1  0  0  0  0  0999 V2000
    5.4504  -12.7811   16.1304 O   0  0  0  0  0  0  0  0  0  0  0  0
    6.1680  -13.4229   17.1549 C   0  0  0  0  0  0  0  0  0  0  0  0
    7.3794  -12.8870   17.5481 C   0  0  0  0  0  0  0  0  0  0  0  0
    8.1042  -13.5009   18.5546 C   0  0  0  0  0  0  0  0  0  0  0  0
    7.6472  -14.6456   19.1840 C   0  0  0  0  0  0  0  0  0  0  0  0
    8.4173  -15.2959   20.2501 C   0  0  0  0  0  0  0  0  0  0  0  0
    9.6824  -15.9114   19.7029 C   0  0  2  0  0  0  0  0  0  0  0  0
    9.4069  -16.9101   18.6928 N   0  0  0  0  0  0  0  0  0  0  0  0
   10.5349  -16.4497   20.7922 C   0  0  0  0  0  0  0  0  0  0  0  0
   10.5967  -17.6971   20.9214 O   0  0  0  0  0  0  0  0  0  0  0  0
    6.4343  -15.1461   18.7610 C   0  0  0  0  0  0  0  0  0  0  0  0
    5.6938  -14.5517   17.7597 C   0  0  0  0  0  0  0  0  0  0  0  0
   16.2532  -14.3807   18.1218 O   0  0  0  0  0  0  0  0  0  0  0  0
   15.5484  -14.5728   19.3045 C   0  0  0  0  0  0  0  0  0  0  0  0
   14.4751  -13.7513   19.5514 C   0  0  0  0  0  0  0  0  0  0  0  0
   13.7694  -13.9450   20.7374 C   0  0  0  0  0  0  0  0  0  0  0  0
   14.0891  -14.9036   21.6590 C   0  0  0  0  0  0  0  0  0  0  0  0
   13.3524  -15.1294   22.9052 C   0  0  0  0  0  0  0  0  0  0  0  0
   12.0992  -16.0085   22.7114 C   0  0  2  0  0  0  0  0  0  0  0  0
   11.2542  -15.5805   21.6571 N   0  0  0  0  0  0  0  0  0  0  0  0
   11.4667  -16.1527   24.0334 C   0  0  0  0  0  0  0  0  0  0  0  0
   11.9488  -15.4874   25.0034 O   0  0  0  0  0  0  0  0  0  0  0  0
   15.2009  -15.7030   21.3318 C   0  0  0  0  0  0  0  0  0  0  0  0
   15.9285  -15.5623   20.1918 C   0  0  0  0  0  0  0  0  0  0  0  0
    7.5964  -11.0286   26.2237 O   0  0  0  0  0  0  0  0  0  0  0  0
    7.7826  -12.4003   26.0979 C   0  0  0  0  0  0  0  0  0  0  0  0
    8.1122  -13.1495   27.1972 C   0  0  0  0  0  0  0  0  0  0  0  0
    8.2985  -14.5310   27.0651 C   0  0  0  0  0  0  0  0  0  0  0  0
    8.1595  -15.1606   25.8573 C   0  0  0  0  0  0  0  0  0  0  0  0
    8.3562  -16.6058   25.7511 C   0  0  0  0  0  0  0  0  0  0  0  0
    9.7871  -17.0579   25.6705 C   0  0  2  0  0  0  0  0  0  0  0  0
   10.3564  -16.9701   24.3449 N   0  0  0  0  0  0  0  0  0  0  0  0
    9.9909  -18.4241   26.1797 C   0  0  0  0  0  0  0  0  0  0  0  0
    9.6974  -18.7428   27.4906 O   0  0  0  0  0  0  0  0  0  0  0  0
    7.8306  -14.4218   24.7520 C   0  0  0  0  0  0  0  0  0  0  0  0
    7.6461  -13.0571   24.8800 C   0  0  0  0  0  0  0  0  0  0  0  0
   10.4338  -19.3143   25.4283 O   0  0  0  0  0  0  0  0  0  0  0  0
  2  1  1  0
  3  2  2  0
  4  3  1  0
  5 11  1  0
  5  4  2  0
  6  5  1  0
  7  6  1  0
  7  8  1  6
  9  7  1  0
 10  9  2  0
 11 12  2  0
 12  2  1  0
 13 14  1  0
 14 24  2  0
 14 15  1  0
 15 16  2  0
 16 17  1  0
 17 18  1  0
 19 18  1  1
 19 20  1  0
 20  9  1  0
 21 19  1  0
 21 32  1  0
 22 21  2  0
 23 17  2  0
 24 23  1  0
 25 26  1  0
 26 36  2  0
 27 26  1  0
 27 28  2  0
 28 29  1  0
 29 35  2  0
 29 30  1  0
 31 32  1  0
 31 33  1  0
 31 30  1  6
 33 37  2  0
 33 34  1  0
 36 35  1  0
M  END
$$$$
