YYY.pdb
     RDKit          3D

 37 39  0  0  1  0  0  0  0  0999 V2000
    7.5828  -22.9361   15.3862 O   0  0  0  0  0  0  0  0  0  0  0  0
    8.0793  -22.0118   16.3221 C   0  0  0  0  0  0  0  0  0  0  0  0
    7.5538  -22.0194   17.6001 C   0  0  0  0  0  0  0  0  0  0  0  0
    8.0264  -21.1191   18.5390 C   0  0  0  0  0  0  0  0  0  0  0  0
    9.0182  -20.2038   18.2325 C   0  0  0  0  0  0  0  0  0  0  0  0
    9.5173  -19.2493   19.2286 C   0  0  0  0  0  0  0  0  0  0  0  0
    9.1962  -17.8308   18.8245 C   0  0  2  0  0  0  0  0  0  0  0  0
    9.9485  -17.4147   17.6605 N   0  0  0  0  0  0  0  0  0  0  0  0
    9.3756  -16.8927   19.9607 C   0  0  0  0  0  0  0  0  0  0  0  0
   10.5262  -16.4313   20.1594 O   0  0  0  0  0  0  0  0  0  0  0  0
    9.5142  -20.2311   16.9465 C   0  0  0  0  0  0  0  0  0  0  0  0
    9.0590  -21.1191   15.9934 C   0  0  0  0  0  0  0  0  0  0  0  0
    7.3965  -11.7744   26.9064 O   0  0  0  0  0  0  0  0  0  0  0  0
    7.2900  -12.6093   25.8000 C   0  0  0  0  0  0  0  0  0  0  0  0
    7.6412  -12.0969   24.5745 C   0  0  0  0  0  0  0  0  0  0  0  0
    7.5341  -12.9349   23.4662 C   0  0  0  0  0  0  0  0  0  0  0  0
    7.1010  -14.2302   23.5374 C   0  0  0  0  0  0  0  0  0  0  0  0
    6.9928  -15.1293   22.3855 C   0  0  0  0  0  0  0  0  0  0  0  0
    8.3621  -15.6432   21.8937 C   0  0  2  0  0  0  0  0  0  0  0  0
    8.2808  -16.5323   20.7929 N   0  0  0  0  0  0  0  0  0  0  0  0
    9.0854  -16.1384   23.0769 C   0  0  0  0  0  0  0  0  0  0  0  0
    8.5262  -17.0290   23.7911 O   0  0  0  0  0  0  0  0  0  0  0  0
    6.7607  -14.6787   24.8278 C   0  0  0  0  0  0  0  0  0  0  0  0
    6.8437  -13.9095   25.9459 C   0  0  0  0  0  0  0  0  0  0  0  0
   11.0085  -15.3615   31.3212 O   0  0  0  0  0  0  0  0  0  0  0  0
   10.7104  -15.2704   29.9666 C   0  0  0  0  0  0  0  0  0  0  0  0
   10.4710  -16.4082   29.2410 C   0  0  0  0  0  0  0  0  0  0  0  0
   10.1708  -16.3110   27.8767 C   0  0  0  0  0  0  0  0  0  0  0  0
   10.1093  -15.1001   27.2410 C   0  0  0  0  0  0  0  0  0  0  0  0
    9.7893  -15.0298   25.8158 C   0  0  0  0  0  0  0  0  0  0  0  0
   10.7634  -15.7173   24.9013 C   0  0  2  0  0  0  0  0  0  0  0  0
   10.3632  -15.7192   23.5124 N   0  0  0  0  0  0  0  0  0  0  0  0
   11.0586  -17.1014   25.3068 C   0  0  0  0  0  0  0  0  0  0  0  0
   12.3090  -17.4508   25.7764 O   0  0  0  0  0  0  0  0  0  0  0  0
   10.3470  -13.9565   27.9563 C   0  0  0  0  0  0  0  0  0  0  0  0
   10.6436  -14.0500   29.3038 C   0  0  0  0  0  0  0  0  0  0  0  0
   10.1772  -17.9794   25.2303 O   0  0  0  0  0  0  0  0  0  0  0  0
  2  1  1  0
  3  2  2  0
  4  3  1  0
  5 11  1  0
  5  4  2  0
  6  5  1  0
  7  6  1  0
  7  8  1  6
  9  7  1  0
 10  9  2  0
 11 12  2  0
 12  2  1  0
 13 14  1  0
 14 24  2  0
 14 15  1  0
 15 16  2  0
 16 17  1  0
 17 18  1  0
 19 18  1  1
 19 20  1  0
 20  9  1  0
 21 19  1  0
 21 32  1  0
 22 21  2  0
 23 17  2  0
 24 23  1  0
 25 26  1  0
 26 36  2  0
 27 26  1  0
 27 28  2  0
 28 29  1  0
 29 35  2  0
 29 30  1  0
 31 32  1  0
 31 33  1  0
 31 30  1  1
 33 37  2  0
 33 34  1  0
 36 35  1  0
M  END
$$$$
