YYY.pdb
     RDKit          3D

 37 39  0  0  1  0  0  0  0  0999 V2000
    5.7345  -12.6658   16.3273 O   0  0  0  0  0  0  0  0  0  0  0  0
    6.8071  -13.2103   17.0549 C   0  0  0  0  0  0  0  0  0  0  0  0
    6.8126  -13.0672   18.4293 C   0  0  0  0  0  0  0  0  0  0  0  0
    7.8578  -13.5947   19.1674 C   0  0  0  0  0  0  0  0  0  0  0  0
    8.9063  -14.2668   18.5640 C   0  0  0  0  0  0  0  0  0  0  0  0
   10.0141  -14.8244   19.3478 C   0  0  0  0  0  0  0  0  0  0  0  0
   11.0450  -15.4609   18.4474 C   0  0  2  0  0  0  0  0  0  0  0  0
   10.4516  -16.4065   17.5268 N   0  0  0  0  0  0  0  0  0  0  0  0
   12.1438  -16.0739   19.2348 C   0  0  0  0  0  0  0  0  0  0  0  0
   12.1743  -17.3265   19.3157 O   0  0  0  0  0  0  0  0  0  0  0  0
    8.8607  -14.3866   17.1914 C   0  0  0  0  0  0  0  0  0  0  0  0
    7.8295  -13.8693   16.4343 C   0  0  0  0  0  0  0  0  0  0  0  0
   18.1523  -14.0786   16.0457 O   0  0  0  0  0  0  0  0  0  0  0  0
   17.4692  -14.2676   17.2416 C   0  0  0  0  0  0  0  0  0  0  0  0
   16.5419  -13.3216   17.6063 C   0  0  0  0  0  0  0  0  0  0  0  0
   15.8578  -13.5122   18.8054 C   0  0  0  0  0  0  0  0  0  0  0  0
   16.0617  -14.5846   19.6293 C   0  0  0  0  0  0  0  0  0  0  0  0
   15.3443  -14.8076   20.8872 C   0  0  0  0  0  0  0  0  0  0  0  0
   14.1404  -15.7602   20.7315 C   0  0  2  0  0  0  0  0  0  0  0  0
   13.1250  -15.2678   19.8741 N   0  0  0  0  0  0  0  0  0  0  0  0
   13.7161  -16.1420   22.0889 C   0  0  0  0  0  0  0  0  0  0  0  0
   13.3866  -15.2164   22.8956 O   0  0  0  0  0  0  0  0  0  0  0  0
   17.0275  -15.5075   19.1847 C   0  0  0  0  0  0  0  0  0  0  0  0
   17.7268  -15.3763   18.0260 C   0  0  0  0  0  0  0  0  0  0  0  0
    7.8708  -14.2360   23.0149 O   0  0  0  0  0  0  0  0  0  0  0  0
    8.8270  -15.2166   23.2517 C   0  0  0  0  0  0  0  0  0  0  0  0
    9.3329  -15.3877   24.5139 C   0  0  0  0  0  0  0  0  0  0  0  0
   10.2959  -16.3772   24.7473 C   0  0  0  0  0  0  0  0  0  0  0  0
   10.7507  -17.1861   23.7408 C   0  0  0  0  0  0  0  0  0  0  0  0
   11.7541  -18.2138   24.0159 C   0  0  0  0  0  0  0  0  0  0  0  0
   13.1835  -17.7562   23.9414 C   0  0  2  0  0  0  0  0  0  0  0  0
   13.6347  -17.4569   22.6012 N   0  0  0  0  0  0  0  0  0  0  0  0
   14.1270  -18.7063   24.5534 C   0  0  0  0  0  0  0  0  0  0  0  0
   13.9992  -19.0787   25.8766 O   0  0  0  0  0  0  0  0  0  0  0  0
   10.2523  -17.0238   22.4755 C   0  0  0  0  0  0  0  0  0  0  0  0
    9.3011  -16.0472   22.2426 C   0  0  0  0  0  0  0  0  0  0  0  0
   15.0581  -19.1882   23.8795 O   0  0  0  0  0  0  0  0  0  0  0  0
  2  1  1  0
  3  2  2  0
  4  3  1  0
  5 11  1  0
  5  4  2  0
  6  5  1  0
  7  6  1  0
  7  8  1  1
  9  7  1  0
 10  9  2  0
 11 12  2  0
 12  2  1  0
 13 14  1  0
 14 24  2  0
 14 15  1  0
 15 16  2  0
 16 17  1  0
 17 18  1  0
 19 18  1  1
 19 20  1  0
 20  9  1  0
 21 19  1  0
 21 32  1  0
 22 21  2  0
 23 17  2  0
 24 23  1  0
 25 26  1  0
 26 36  2  0
 27 26  1  0
 27 28  2  0
 28 29  1  0
 29 35  2  0
 29 30  1  0
 31 32  1  0
 31 33  1  0
 31 30  1  6
 33 37  2  0
 33 34  1  0
 36 35  1  0
M  END
$$$$
