YYY.pdb
     RDKit          3D

 37 39  0  0  1  0  0  0  0  0999 V2000
   14.8248  -22.1170   16.6638 O   0  0  0  0  0  0  0  0  0  0  0  0
   14.4425  -21.0502   17.4958 C   0  0  0  0  0  0  0  0  0  0  0  0
   13.5841  -21.3081   18.5476 C   0  0  0  0  0  0  0  0  0  0  0  0
   13.1935  -20.2742   19.3805 C   0  0  0  0  0  0  0  0  0  0  0  0
   13.6413  -18.9787   19.1891 C   0  0  0  0  0  0  0  0  0  0  0  0
   13.2253  -17.8836   20.0723 C   0  0  0  0  0  0  0  0  0  0  0  0
   11.7256  -17.7127   20.0500 C   0  0  2  0  0  0  0  0  0  0  0  0
   11.2290  -17.4530   18.7160 N   0  0  0  0  0  0  0  0  0  0  0  0
   11.2871  -16.6724   21.0136 C   0  0  0  0  0  0  0  0  0  0  0  0
   12.0835  -15.7336   21.2602 O   0  0  0  0  0  0  0  0  0  0  0  0
   14.4960  -18.7662   18.1286 C   0  0  0  0  0  0  0  0  0  0  0  0
   14.8995  -19.7807   17.2847 C   0  0  0  0  0  0  0  0  0  0  0  0
    7.5035  -13.2314   16.9609 O   0  0  0  0  0  0  0  0  0  0  0  0
    7.6334  -13.7414   18.2476 C   0  0  0  0  0  0  0  0  0  0  0  0
    7.2250  -15.0345   18.4686 C   0  0  0  0  0  0  0  0  0  0  0  0
    7.3558  -15.5446   19.7589 C   0  0  0  0  0  0  0  0  0  0  0  0
    7.8662  -14.8285   20.8062 C   0  0  0  0  0  0  0  0  0  0  0  0
    8.0220  -15.3514   22.1661 C   0  0  0  0  0  0  0  0  0  0  0  0
    9.4765  -15.7481   22.4943 C   0  0  2  0  0  0  0  0  0  0  0  0
   10.0098  -16.7402   21.6341 N   0  0  0  0  0  0  0  0  0  0  0  0
    9.5267  -16.0430   23.9362 C   0  0  0  0  0  0  0  0  0  0  0  0
    9.4652  -17.2593   24.3008 O   0  0  0  0  0  0  0  0  0  0  0  0
    8.2611  -13.5128   20.4974 C   0  0  0  0  0  0  0  0  0  0  0  0
    8.1582  -12.9596   19.2597 C   0  0  0  0  0  0  0  0  0  0  0  0
    5.4294  -10.6422   26.6245 O   0  0  0  0  0  0  0  0  0  0  0  0
    6.4806  -11.5369   26.7869 C   0  0  0  0  0  0  0  0  0  0  0  0
    6.5636  -12.2951   27.9256 C   0  0  0  0  0  0  0  0  0  0  0  0
    7.6246  -13.1952   28.0843 C   0  0  0  0  0  0  0  0  0  0  0  0
    8.5906  -13.3404   27.1251 C   0  0  0  0  0  0  0  0  0  0  0  0
    9.6845  -14.2918   27.3171 C   0  0  0  0  0  0  0  0  0  0  0  0
    9.6922  -15.4642   26.3772 C   0  0  2  0  0  0  0  0  0  0  0  0
    9.6381  -15.0968   24.9803 N   0  0  0  0  0  0  0  0  0  0  0  0
    8.6160  -16.4310   26.6505 C   0  0  0  0  0  0  0  0  0  0  0  0
    7.6365  -16.6852   25.7114 O   0  0  0  0  0  0  0  0  0  0  0  0
    8.5178  -12.5877   25.9832 C   0  0  0  0  0  0  0  0  0  0  0  0
    7.4708  -11.6981   25.8243 C   0  0  0  0  0  0  0  0  0  0  0  0
    8.5767  -17.0348   27.7401 O   0  0  0  0  0  0  0  0  0  0  0  0
  2  1  1  0
  3  2  2  0
  4  3  1  0
  5 11  1  0
  5  4  2  0
  6  5  1  0
  7  6  1  0
  7  8  1  6
  9  7  1  0
 10  9  2  0
 11 12  2  0
 12  2  1  0
 13 14  1  0
 14 24  2  0
 14 15  1  0
 15 16  2  0
 16 17  1  0
 17 18  1  0
 19 18  1  6
 19 20  1  0
 20  9  1  0
 21 19  1  0
 21 32  1  0
 22 21  2  0
 23 17  2  0
 24 23  1  0
 25 26  1  0
 26 36  2  0
 27 26  1  0
 27 28  2  0
 28 29  1  0
 29 35  2  0
 29 30  1  0
 31 32  1  0
 31 33  1  0
 31 30  1  1
 33 37  2  0
 33 34  1  0
 36 35  1  0
M  END
$$$$
