YYY.pdb
     RDKit          3D

 37 39  0  0  1  0  0  0  0  0999 V2000
    0.4894  -23.8669   25.1810 O   0  0  0  0  0  0  0  0  0  0  0  0
    1.5707  -23.0202   24.8806 C   0  0  0  0  0  0  0  0  0  0  0  0
    2.8407  -23.4114   25.2598 C   0  0  0  0  0  0  0  0  0  0  0  0
    3.9212  -22.5947   24.9751 C   0  0  0  0  0  0  0  0  0  0  0  0
    3.7654  -21.3877   24.3162 C   0  0  0  0  0  0  0  0  0  0  0  0
    4.9117  -20.5226   24.0162 C   0  0  0  0  0  0  0  0  0  0  0  0
    5.1693  -20.4648   22.5299 C   0  0  2  0  0  0  0  0  0  0  0  0
    5.5654  -21.7507   21.9976 N   0  0  0  0  0  0  0  0  0  0  0  0
    6.1508  -19.4033   22.1937 C   0  0  0  0  0  0  0  0  0  0  0  0
    7.3630  -19.7260   22.1404 O   0  0  0  0  0  0  0  0  0  0  0  0
    2.4819  -21.0365   23.9561 C   0  0  0  0  0  0  0  0  0  0  0  0
    1.3892  -21.8339   24.2289 C   0  0  0  0  0  0  0  0  0  0  0  0
    9.5362  -11.6727   19.6384 O   0  0  0  0  0  0  0  0  0  0  0  0
    8.6361  -12.6596   20.0236 C   0  0  0  0  0  0  0  0  0  0  0  0
    8.6574  -13.8496   19.3371 C   0  0  0  0  0  0  0  0  0  0  0  0
    7.7546  -14.8381   19.7243 C   0  0  0  0  0  0  0  0  0  0  0  0
    6.8570  -14.6838   20.7445 C   0  0  0  0  0  0  0  0  0  0  0  0
    5.9086  -15.7153   21.1731 C   0  0  0  0  0  0  0  0  0  0  0  0
    6.6027  -16.9711   21.7407 C   0  0  2  0  0  0  0  0  0  0  0  0
    5.7294  -18.0691   21.9420 N   0  0  0  0  0  0  0  0  0  0  0  0
    7.3832  -16.5383   22.9120 C   0  0  0  0  0  0  0  0  0  0  0  0
    6.7660  -16.3550   24.0081 O   0  0  0  0  0  0  0  0  0  0  0  0
    6.8989  -13.4368   21.3968 C   0  0  0  0  0  0  0  0  0  0  0  0
    7.7555  -12.4344   21.0651 C   0  0  0  0  0  0  0  0  0  0  0  0
   11.0969  -14.0604   30.0978 O   0  0  0  0  0  0  0  0  0  0  0  0
   10.4699  -14.3865   28.9009 C   0  0  0  0  0  0  0  0  0  0  0  0
   10.1252  -15.6875   28.6418 C   0  0  0  0  0  0  0  0  0  0  0  0
    9.4936  -16.0108   27.4345 C   0  0  0  0  0  0  0  0  0  0  0  0
    9.2080  -15.0551   26.4968 C   0  0  0  0  0  0  0  0  0  0  0  0
    8.5437  -15.4223   25.2469 C   0  0  0  0  0  0  0  0  0  0  0  0
    9.4596  -15.7822   24.1111 C   0  0  2  0  0  0  0  0  0  0  0  0
    8.7760  -16.2999   22.9476 N   0  0  0  0  0  0  0  0  0  0  0  0
   10.5140  -16.7338   24.4984 C   0  0  0  0  0  0  0  0  0  0  0  0
   11.6680  -16.2987   25.1191 O   0  0  0  0  0  0  0  0  0  0  0  0
    9.5482  -13.7518   26.7451 C   0  0  0  0  0  0  0  0  0  0  0  0
   10.1721  -13.4301   27.9367 C   0  0  0  0  0  0  0  0  0  0  0  0
   10.3761  -17.9510   24.2688 O   0  0  0  0  0  0  0  0  0  0  0  0
  2  1  1  0
  3  2  2  0
  4  3  1  0
  5 11  1  0
  5  4  2  0
  6  5  1  0
  7  6  1  0
  7  8  1  1
  9  7  1  0
 10  9  2  0
 11 12  2  0
 12  2  1  0
 13 14  1  0
 14 24  2  0
 14 15  1  0
 15 16  2  0
 16 17  1  0
 17 18  1  0
 19 18  1  1
 19 20  1  0
 20  9  1  0
 21 19  1  0
 21 32  1  0
 22 21  2  0
 23 17  2  0
 24 23  1  0
 25 26  1  0
 26 36  2  0
 27 26  1  0
 27 28  2  0
 28 29  1  0
 29 35  2  0
 29 30  1  0
 31 32  1  0
 31 33  1  0
 31 30  1  1
 33 37  2  0
 33 34  1  0
 36 35  1  0
M  END
$$$$
