YYY.pdb
     RDKit          3D

 37 39  0  0  1  0  0  0  0  0999 V2000
   11.8994  -22.4626   16.4325 O   0  0  0  0  0  0  0  0  0  0  0  0
   11.8041  -21.2605   17.1554 C   0  0  0  0  0  0  0  0  0  0  0  0
   12.6290  -21.0808   18.2493 C   0  0  0  0  0  0  0  0  0  0  0  0
   12.5536  -19.9059   18.9768 C   0  0  0  0  0  0  0  0  0  0  0  0
   11.6685  -18.8974   18.6377 C   0  0  0  0  0  0  0  0  0  0  0  0
   11.5890  -17.6529   19.4106 C   0  0  0  0  0  0  0  0  0  0  0  0
   11.0795  -17.9169   20.8068 C   0  0  2  0  0  0  0  0  0  0  0  0
    9.8083  -18.6080   20.7989 N   0  0  0  0  0  0  0  0  0  0  0  0
   11.0222  -16.6668   21.6052 C   0  0  0  0  0  0  0  0  0  0  0  0
   12.0915  -16.0291   21.7669 O   0  0  0  0  0  0  0  0  0  0  0  0
   10.8647  -19.1182   17.5397 C   0  0  0  0  0  0  0  0  0  0  0  0
   10.9218  -20.2811   16.7990 C   0  0  0  0  0  0  0  0  0  0  0  0
    7.0441  -13.7206   17.1731 O   0  0  0  0  0  0  0  0  0  0  0  0
    7.3515  -13.8540   18.5223 C   0  0  0  0  0  0  0  0  0  0  0  0
    6.8235  -14.9285   19.1965 C   0  0  0  0  0  0  0  0  0  0  0  0
    7.1325  -15.0612   20.5490 C   0  0  0  0  0  0  0  0  0  0  0  0
    7.9282  -14.1832   21.2318 C   0  0  0  0  0  0  0  0  0  0  0  0
    8.2733  -14.3125   22.6500 C   0  0  0  0  0  0  0  0  0  0  0  0
    9.6384  -14.9952   22.8763 C   0  0  2  0  0  0  0  0  0  0  0  0
    9.7978  -16.2112   22.1659 N   0  0  0  0  0  0  0  0  0  0  0  0
    9.8501  -15.0606   24.3321 C   0  0  0  0  0  0  0  0  0  0  0  0
    9.9961  -13.9681   24.9654 O   0  0  0  0  0  0  0  0  0  0  0  0
    8.4291  -13.1103   20.4700 C   0  0  0  0  0  0  0  0  0  0  0  0
    8.1632  -12.9272   19.1492 C   0  0  0  0  0  0  0  0  0  0  0  0
    6.6186  -10.5519   27.1860 O   0  0  0  0  0  0  0  0  0  0  0  0
    6.9086  -11.8978   26.9948 C   0  0  0  0  0  0  0  0  0  0  0  0
    8.0701  -12.4250   27.4963 C   0  0  0  0  0  0  0  0  0  0  0  0
    8.3575  -13.7815   27.3011 C   0  0  0  0  0  0  0  0  0  0  0  0
    7.5031  -14.6038   26.6171 C   0  0  0  0  0  0  0  0  0  0  0  0
    7.8284  -16.0177   26.4328 C   0  0  0  0  0  0  0  0  0  0  0  0
    9.2947  -16.3460   26.4202 C   0  0  2  0  0  0  0  0  0  0  0  0
    9.9097  -16.2347   25.1170 N   0  0  0  0  0  0  0  0  0  0  0  0
    9.5930  -17.6795   26.9680 C   0  0  0  0  0  0  0  0  0  0  0  0
   10.2463  -18.6282   26.2069 O   0  0  0  0  0  0  0  0  0  0  0  0
    6.3396  -14.0877   26.1114 C   0  0  0  0  0  0  0  0  0  0  0  0
    6.0536  -12.7482   26.3029 C   0  0  0  0  0  0  0  0  0  0  0  0
    9.2568  -17.9692   28.1326 O   0  0  0  0  0  0  0  0  0  0  0  0
  2  1  1  0
  3  2  2  0
  4  3  1  0
  5 11  1  0
  5  4  2  0
  6  5  1  0
  7  6  1  0
  7  8  1  6
  9  7  1  0
 10  9  2  0
 11 12  2  0
 12  2  1  0
 13 14  1  0
 14 24  2  0
 14 15  1  0
 15 16  2  0
 16 17  1  0
 17 18  1  0
 19 18  1  1
 19 20  1  0
 20  9  1  0
 21 19  1  0
 21 32  1  0
 22 21  2  0
 23 17  2  0
 24 23  1  0
 25 26  1  0
 26 36  2  0
 27 26  1  0
 27 28  2  0
 28 29  1  0
 29 35  2  0
 29 30  1  0
 31 32  1  0
 31 33  1  0
 31 30  1  6
 33 37  2  0
 33 34  1  0
 36 35  1  0
M  END
$$$$
