YYY.pdb
     RDKit          3D

 37 39  0  0  1  0  0  0  0  0999 V2000
    5.1754  -26.3532   26.1608 O   0  0  0  0  0  0  0  0  0  0  0  0
    5.6311  -25.2618   25.4008 C   0  0  0  0  0  0  0  0  0  0  0  0
    6.7616  -24.5890   25.8237 C   0  0  0  0  0  0  0  0  0  0  0  0
    7.2296  -23.5113   25.0922 C   0  0  0  0  0  0  0  0  0  0  0  0
    6.5928  -23.0843   23.9400 C   0  0  0  0  0  0  0  0  0  0  0  0
    7.0895  -21.9410   23.1663 C   0  0  0  0  0  0  0  0  0  0  0  0
    7.1164  -20.6897   24.0101 C   0  0  2  0  0  0  0  0  0  0  0  0
    5.8058  -20.3525   24.5224 N   0  0  0  0  0  0  0  0  0  0  0  0
    7.7286  -19.5557   23.2735 C   0  0  0  0  0  0  0  0  0  0  0  0
    8.8708  -19.7290   22.7819 O   0  0  0  0  0  0  0  0  0  0  0  0
    5.4693  -23.7838   23.5543 C   0  0  0  0  0  0  0  0  0  0  0  0
    4.9838  -24.8612   24.2671 C   0  0  0  0  0  0  0  0  0  0  0  0
    8.4137  -12.0688   18.7030 O   0  0  0  0  0  0  0  0  0  0  0  0
    7.9430  -13.0506   19.5672 C   0  0  0  0  0  0  0  0  0  0  0  0
    7.5992  -14.2670   19.0287 C   0  0  0  0  0  0  0  0  0  0  0  0
    7.1276  -15.2504   19.8963 C   0  0  0  0  0  0  0  0  0  0  0  0
    6.9916  -15.0664   21.2446 C   0  0  0  0  0  0  0  0  0  0  0  0
    6.5086  -16.0916   22.1734 C   0  0  0  0  0  0  0  0  0  0  0  0
    7.5631  -17.1784   22.4700 C   0  0  2  0  0  0  0  0  0  0  0  0
    7.0431  -18.3184   23.1323 N   0  0  0  0  0  0  0  0  0  0  0  0
    8.6988  -16.5079   23.1250 C   0  0  0  0  0  0  0  0  0  0  0  0
    9.7316  -16.2603   22.4265 O   0  0  0  0  0  0  0  0  0  0  0  0
    7.3646  -13.7936   21.7169 C   0  0  0  0  0  0  0  0  0  0  0  0
    7.8308  -12.7946   20.9210 C   0  0  0  0  0  0  0  0  0  0  0  0
    4.8042  -12.2890   27.1530 O   0  0  0  0  0  0  0  0  0  0  0  0
    6.0506  -12.7163   26.7105 C   0  0  0  0  0  0  0  0  0  0  0  0
    6.1625  -13.8888   26.0097 C   0  0  0  0  0  0  0  0  0  0  0  0
    7.4205  -14.3149   25.5659 C   0  0  0  0  0  0  0  0  0  0  0  0
    8.5526  -13.5865   25.8149 C   0  0  0  0  0  0  0  0  0  0  0  0
    9.8522  -14.0548   25.3351 C   0  0  0  0  0  0  0  0  0  0  0  0
    9.9499  -15.5316   25.0749 C   0  0  2  0  0  0  0  0  0  0  0  0
    8.7638  -16.1019   24.4774 N   0  0  0  0  0  0  0  0  0  0  0  0
   10.2898  -16.3090   26.2781 C   0  0  0  0  0  0  0  0  0  0  0  0
    9.4719  -17.3316   26.7154 O   0  0  0  0  0  0  0  0  0  0  0  0
    8.4527  -12.4133   26.5146 C   0  0  0  0  0  0  0  0  0  0  0  0
    7.2113  -11.9905   26.9538 C   0  0  0  0  0  0  0  0  0  0  0  0
   11.3266  -16.0510   26.9198 O   0  0  0  0  0  0  0  0  0  0  0  0
  2  1  1  0
  3  2  2  0
  4  3  1  0
  5 11  1  0
  5  4  2  0
  6  5  1  0
  7  6  1  0
  7  8  1  6
  9  7  1  0
 10  9  2  0
 11 12  2  0
 12  2  1  0
 13 14  1  0
 14 24  2  0
 14 15  1  0
 15 16  2  0
 16 17  1  0
 17 18  1  0
 19 18  1  1
 19 20  1  0
 20  9  1  0
 21 19  1  0
 21 32  1  0
 22 21  2  0
 23 17  2  0
 24 23  1  0
 25 26  1  0
 26 36  2  0
 27 26  1  0
 27 28  2  0
 28 29  1  0
 29 35  2  0
 29 30  1  0
 31 32  1  0
 31 33  1  0
 31 30  1  1
 33 37  2  0
 33 34  1  0
 36 35  1  0
M  END
$$$$
