YYY.pdb
     RDKit          3D

 37 39  0  0  1  0  0  0  0  0999 V2000
   -0.4809  -22.5686   21.9823 O   0  0  0  0  0  0  0  0  0  0  0  0
    0.5337  -21.6265   21.7385 C   0  0  0  0  0  0  0  0  0  0  0  0
    0.1928  -20.2885   21.6829 C   0  0  0  0  0  0  0  0  0  0  0  0
    1.1741  -19.3422   21.4442 C   0  0  0  0  0  0  0  0  0  0  0  0
    2.4979  -19.7001   21.2578 C   0  0  0  0  0  0  0  0  0  0  0  0
    3.5368  -18.6958   21.0037 C   0  0  0  0  0  0  0  0  0  0  0  0
    4.7230  -18.9048   21.9136 C   0  0  2  0  0  0  0  0  0  0  0  0
    4.3446  -18.8908   23.3102 N   0  0  0  0  0  0  0  0  0  0  0  0
    5.8025  -17.9277   21.6253 C   0  0  0  0  0  0  0  0  0  0  0  0
    6.2721  -17.9048   20.4611 O   0  0  0  0  0  0  0  0  0  0  0  0
    2.7938  -21.0450   21.3215 C   0  0  0  0  0  0  0  0  0  0  0  0
    1.8328  -22.0067   21.5582 C   0  0  0  0  0  0  0  0  0  0  0  0
    9.2765  -12.0715   17.8276 O   0  0  0  0  0  0  0  0  0  0  0  0
    8.6358  -12.7158   18.8797 C   0  0  0  0  0  0  0  0  0  0  0  0
    9.0871  -12.4670   20.1534 C   0  0  0  0  0  0  0  0  0  0  0  0
    8.4439  -13.1134   21.2073 C   0  0  0  0  0  0  0  0  0  0  0  0
    7.3953  -13.9749   21.0380 C   0  0  0  0  0  0  0  0  0  0  0  0
    6.6996  -14.6545   22.1340 C   0  0  0  0  0  0  0  0  0  0  0  0
    7.2739  -16.0550   22.4333 C   0  0  2  0  0  0  0  0  0  0  0  0
    6.2855  -17.0506   22.6345 N   0  0  0  0  0  0  0  0  0  0  0  0
    8.2619  -15.8926   23.5130 C   0  0  0  0  0  0  0  0  0  0  0  0
    9.2894  -15.1807   23.2821 O   0  0  0  0  0  0  0  0  0  0  0  0
    6.9937  -14.1761   19.7036 C   0  0  0  0  0  0  0  0  0  0  0  0
    7.5812  -13.5752   18.6347 C   0  0  0  0  0  0  0  0  0  0  0  0
    6.6456  -10.3477   25.9040 O   0  0  0  0  0  0  0  0  0  0  0  0
    7.1501  -11.6142   26.1751 C   0  0  0  0  0  0  0  0  0  0  0  0
    8.4992  -11.7925   26.3382 C   0  0  0  0  0  0  0  0  0  0  0  0
    9.0023  -13.0705   26.6113 C   0  0  0  0  0  0  0  0  0  0  0  0
    8.1769  -14.1572   26.7210 C   0  0  0  0  0  0  0  0  0  0  0  0
    8.7312  -15.4790   27.0112 C   0  0  0  0  0  0  0  0  0  0  0  0
    9.2034  -16.2572   25.8156 C   0  0  2  0  0  0  0  0  0  0  0  0
    8.1876  -16.4568   24.8069 N   0  0  0  0  0  0  0  0  0  0  0  0
    9.7787  -17.5656   26.1682 C   0  0  0  0  0  0  0  0  0  0  0  0
   10.7867  -17.6669   27.1061 O   0  0  0  0  0  0  0  0  0  0  0  0
    6.8271  -13.9908   26.5597 C   0  0  0  0  0  0  0  0  0  0  0  0
    6.3278  -12.7296   26.2899 C   0  0  0  0  0  0  0  0  0  0  0  0
    9.3596  -18.6037   25.6202 O   0  0  0  0  0  0  0  0  0  0  0  0
  2  1  1  0
  3  2  2  0
  4  3  1  0
  5 11  1  0
  5  4  2  0
  6  5  1  0
  7  6  1  0
  7  8  1  1
  9  7  1  0
 10  9  2  0
 11 12  2  0
 12  2  1  0
 13 14  1  0
 14 24  2  0
 14 15  1  0
 15 16  2  0
 16 17  1  0
 17 18  1  0
 19 18  1  1
 19 20  1  0
 20  9  1  0
 21 19  1  0
 21 32  1  0
 22 21  2  0
 23 17  2  0
 24 23  1  0
 25 26  1  0
 26 36  2  0
 27 26  1  0
 27 28  2  0
 28 29  1  0
 29 35  2  0
 29 30  1  0
 31 32  1  0
 31 33  1  0
 31 30  1  1
 33 37  2  0
 33 34  1  0
 36 35  1  0
M  END
$$$$
