LYQ.pdb
     RDKit          3D

 30 30  0  0  1  0  0  0  0  0999 V2000
   28.8162  -19.6956   -5.3788 C   0  0  0  0  0  0  0  0  0  0  0  0
   27.7223  -20.3990   -6.1419 C   0  0  1  0  0  0  0  0  0  0  0  0
   26.5495  -20.5573   -5.1965 C   0  0  0  0  0  0  0  0  0  0  0  0
   27.3449  -19.6718   -7.4087 C   0  0  0  0  0  0  0  0  0  0  0  0
   26.3157  -20.4176   -8.2094 C   0  0  2  0  0  0  0  0  0  0  0  0
   26.7504  -21.7958   -8.3066 N   0  0  0  0  0  0  0  0  0  0  0  0
   26.2413  -19.8611   -9.5612 C   0  0  0  0  0  0  0  0  0  0  0  0
   25.8435  -18.6829   -9.7677 O   0  0  0  0  0  0  0  0  0  0  0  0
   27.4030  -18.4080  -18.1909 O   0  0  0  0  0  0  0  0  0  0  0  0
   27.5061  -18.8508  -16.8777 C   0  0  0  0  0  0  0  0  0  0  0  0
   27.4198  -20.1955  -16.5586 C   0  0  0  0  0  0  0  0  0  0  0  0
   27.5213  -20.6410  -15.2582 C   0  0  0  0  0  0  0  0  0  0  0  0
   27.7146  -19.7626  -14.2062 C   0  0  0  0  0  0  0  0  0  0  0  0
   27.8248  -20.2140  -12.8009 C   0  0  0  0  0  0  0  0  0  0  0  0
   26.5384  -20.0544  -12.0677 C   0  0  2  0  0  0  0  0  0  0  0  0
   26.6074  -20.6012  -10.7179 N   0  0  0  0  0  0  0  0  0  0  0  0
   25.3414  -20.5500  -12.7820 C   0  0  0  0  0  0  0  0  0  0  0  0
   24.9569  -21.7451  -12.7759 O   0  0  0  0  0  0  0  0  0  0  0  0
   27.7979  -18.4163  -14.5542 C   0  0  0  0  0  0  0  0  0  0  0  0
   27.6985  -17.9574  -15.8476 C   0  0  0  0  0  0  0  0  0  0  0  0
   20.1544  -21.9662  -13.7472 N   0  0  0  0  0  0  0  0  0  0  0  0
   20.7872  -21.6865  -12.5072 C   0  0  0  0  0  0  0  0  0  0  0  0
   20.4501  -22.3794  -11.5215 O   0  0  0  0  0  0  0  0  0  0  0  0
   21.7942  -20.6366  -12.3695 C   0  0  0  0  0  0  0  0  0  0  0  0
   22.0687  -19.8342  -13.6009 C   0  0  0  0  0  0  0  0  0  0  0  0
   23.3621  -20.1593  -14.2919 C   0  0  2  0  0  0  0  0  0  0  0  0
   24.5111  -19.6596  -13.5579 N   0  0  0  0  0  0  0  0  0  0  0  0
   23.3677  -19.4969  -15.6285 C   0  0  0  0  0  0  0  0  0  0  0  0
   24.2567  -18.4730  -15.9441 O   0  0  0  0  0  0  0  0  0  0  0  0
   22.5570  -19.8584  -16.5049 O   0  0  0  0  0  0  0  0  0  0  0  0
  2  1  1  1
  2  3  1  0
  4  2  1  0
  5  4  1  0
  5  6  1  6
  7  5  1  0
  7  8  2  0
  9 10  1  0
 10 11  2  0
 11 12  1  0
 13 12  2  0
 13 14  1  0
 15 14  1  6
 15 16  1  0
 16  7  1  0
 17 15  1  0
 18 17  2  0
 19 13  1  0
 20 10  1  0
 20 19  2  0
 21 22  1  0
 22 23  2  0
 22 24  1  0
 24 25  1  0
 26 25  1  1
 26 27  1  0
 27 17  1  0
 28 29  1  0
 28 26  1  0
 30 28  2  0
M  END
$$$$
