LYQ.pdb
     RDKit          3D

 30 30  0  0  1  0  0  0  0  0999 V2000
   30.9670  -24.6885  -17.9254 C   0  0  0  0  0  0  0  0  0  0  0  0
   29.8782  -23.6552  -18.0687 C   0  0  1  0  0  0  0  0  0  0  0  0
   29.2304  -23.8741  -19.4202 C   0  0  0  0  0  0  0  0  0  0  0  0
   28.8809  -23.7093  -16.9380 C   0  0  0  0  0  0  0  0  0  0  0  0
   27.8503  -22.6207  -17.0341 C   0  0  2  0  0  0  0  0  0  0  0  0
   28.5535  -21.3634  -17.1839 N   0  0  0  0  0  0  0  0  0  0  0  0
   27.0692  -22.5676  -15.7973 C   0  0  0  0  0  0  0  0  0  0  0  0
   26.3702  -23.5453  -15.4170 O   0  0  0  0  0  0  0  0  0  0  0  0
   23.6860  -20.3288   -7.9638 O   0  0  0  0  0  0  0  0  0  0  0  0
   24.4418  -20.3478   -9.1298 C   0  0  0  0  0  0  0  0  0  0  0  0
   25.6200  -21.0703   -9.2167 C   0  0  0  0  0  0  0  0  0  0  0  0
   26.3741  -21.0933  -10.3702 C   0  0  0  0  0  0  0  0  0  0  0  0
   25.9884  -20.3930  -11.5000 C   0  0  0  0  0  0  0  0  0  0  0  0
   26.7804  -20.3988  -12.7504 C   0  0  0  0  0  0  0  0  0  0  0  0
   26.2115  -21.3347  -13.7596 C   0  0  2  0  0  0  0  0  0  0  0  0
   27.0457  -21.4256  -14.9519 N   0  0  0  0  0  0  0  0  0  0  0  0
   24.7969  -21.0903  -14.1173 C   0  0  0  0  0  0  0  0  0  0  0  0
   24.4119  -20.2061  -14.9209 O   0  0  0  0  0  0  0  0  0  0  0  0
   24.8002  -19.6749  -11.3862 C   0  0  0  0  0  0  0  0  0  0  0  0
   24.0374  -19.6429  -10.2415 C   0  0  0  0  0  0  0  0  0  0  0  0
   19.7982  -25.1746  -13.8671 N   0  0  0  0  0  0  0  0  0  0  0  0
   19.2391  -23.8877  -14.0857 C   0  0  0  0  0  0  0  0  0  0  0  0
   18.0013  -23.8209  -14.2554 O   0  0  0  0  0  0  0  0  0  0  0  0
   20.0605  -22.6795  -14.1134 C   0  0  0  0  0  0  0  0  0  0  0  0
   21.5218  -22.8817  -13.8697 C   0  0  0  0  0  0  0  0  0  0  0  0
   22.3453  -21.6257  -13.8874 C   0  0  2  0  0  0  0  0  0  0  0  0
   23.7332  -21.8809  -13.5448 N   0  0  0  0  0  0  0  0  0  0  0  0
   21.8019  -20.6854  -12.8647 C   0  0  0  0  0  0  0  0  0  0  0  0
   20.9535  -19.6342  -13.2015 O   0  0  0  0  0  0  0  0  0  0  0  0
   22.1063  -20.8296  -11.6636 O   0  0  0  0  0  0  0  0  0  0  0  0
  2  1  1  1
  2  3  1  0
  4  2  1  0
  5  4  1  0
  5  6  1  1
  7  5  1  0
  7  8  2  0
  9 10  1  0
 10 11  2  0
 11 12  1  0
 13 12  2  0
 13 14  1  0
 15 14  1  1
 15 16  1  0
 16  7  1  0
 17 15  1  0
 18 17  2  0
 19 13  1  0
 20 10  1  0
 20 19  2  0
 21 22  1  0
 22 23  2  0
 22 24  1  0
 24 25  1  0
 26 25  1  1
 26 27  1  0
 27 17  1  0
 28 29  1  0
 28 26  1  0
 30 28  2  0
M  END
$$$$
