LYQ.pdb
     RDKit          3D

 30 30  0  0  1  0  0  0  0  0999 V2000
   29.3259  -12.0313  -16.1998 C   0  0  0  0  0  0  0  0  0  0  0  0
   27.9085  -11.8321  -16.6741 C   0  0  1  0  0  0  0  0  0  0  0  0
   27.6063  -12.9446  -17.6567 C   0  0  0  0  0  0  0  0  0  0  0  0
   26.9208  -11.7881  -15.5345 C   0  0  0  0  0  0  0  0  0  0  0  0
   25.5571  -11.3416  -15.9788 C   0  0  2  0  0  0  0  0  0  0  0  0
   25.4053  -11.7149  -17.3699 N   0  0  0  0  0  0  0  0  0  0  0  0
   25.4561   -9.8847  -15.8786 C   0  0  0  0  0  0  0  0  0  0  0  0
   25.6337   -9.2856  -14.7838 O   0  0  0  0  0  0  0  0  0  0  0  0
   24.6402   -1.2659  -17.6417 O   0  0  0  0  0  0  0  0  0  0  0  0
   24.8765   -2.6328  -17.7259 C   0  0  0  0  0  0  0  0  0  0  0  0
   25.9659   -3.2184  -17.1031 C   0  0  0  0  0  0  0  0  0  0  0  0
   26.2058   -4.5734  -17.1828 C   0  0  0  0  0  0  0  0  0  0  0  0
   25.3666   -5.4156  -17.8914 C   0  0  0  0  0  0  0  0  0  0  0  0
   25.6022   -6.8732  -17.9947 C   0  0  0  0  0  0  0  0  0  0  0  0
   24.9467   -7.6182  -16.8843 C   0  0  2  0  0  0  0  0  0  0  0  0
   25.1549   -9.0570  -16.9939 N   0  0  0  0  0  0  0  0  0  0  0  0
   23.5170   -7.3020  -16.6723 C   0  0  0  0  0  0  0  0  0  0  0  0
   22.5672   -7.9182  -17.2147 O   0  0  0  0  0  0  0  0  0  0  0  0
   24.2788   -4.8015  -18.5079 C   0  0  0  0  0  0  0  0  0  0  0  0
   24.0270   -3.4507  -18.4369 C   0  0  0  0  0  0  0  0  0  0  0  0
   18.5721   -8.0238  -14.4187 N   0  0  0  0  0  0  0  0  0  0  0  0
   19.7936   -8.7439  -14.3433 C   0  0  0  0  0  0  0  0  0  0  0  0
   19.8133   -9.7668  -13.6232 O   0  0  0  0  0  0  0  0  0  0  0  0
   20.9887   -8.3227  -15.0711 C   0  0  0  0  0  0  0  0  0  0  0  0
   20.8305   -7.1124  -15.9347 C   0  0  0  0  0  0  0  0  0  0  0  0
   21.7047   -5.9499  -15.5600 C   0  0  2  0  0  0  0  0  0  0  0  0
   23.1101   -6.2278  -15.7979 N   0  0  0  0  0  0  0  0  0  0  0  0
   21.5461   -5.6857  -14.1003 C   0  0  0  0  0  0  0  0  0  0  0  0
   20.3041   -5.4341  -13.5238 O   0  0  0  0  0  0  0  0  0  0  0  0
   22.5472   -5.6860  -13.3561 O   0  0  0  0  0  0  0  0  0  0  0  0
  2  1  1  1
  2  3  1  0
  4  2  1  0
  5  4  1  0
  5  6  1  6
  7  5  1  0
  7  8  2  0
  9 10  1  0
 10 11  2  0
 11 12  1  0
 13 12  2  0
 13 14  1  0
 15 14  1  6
 15 16  1  0
 16  7  1  0
 17 15  1  0
 18 17  2  0
 19 13  1  0
 20 10  1  0
 20 19  2  0
 21 22  1  0
 22 23  2  0
 22 24  1  0
 24 25  1  0
 26 25  1  1
 26 27  1  0
 27 17  1  0
 28 29  1  0
 28 26  1  0
 30 28  2  0
M  END
$$$$
