LYQ.pdb
     RDKit          3D

 30 30  0  0  1  0  0  0  0  0999 V2000
   27.2955  -16.8241  -20.4323 C   0  0  0  0  0  0  0  0  0  0  0  0
   28.0023  -18.0412  -19.8911 C   0  0  1  0  0  0  0  0  0  0  0  0
   29.3930  -17.6035  -19.4802 C   0  0  0  0  0  0  0  0  0  0  0  0
   27.2460  -18.6899  -18.7582 C   0  0  0  0  0  0  0  0  0  0  0  0
   28.0236  -19.8043  -18.1179 C   0  0  2  0  0  0  0  0  0  0  0  0
   28.0779  -20.9003  -19.0632 N   0  0  0  0  0  0  0  0  0  0  0  0
   27.3280  -20.2663  -16.9157 C   0  0  0  0  0  0  0  0  0  0  0  0
   26.3224  -21.0233  -16.9862 O   0  0  0  0  0  0  0  0  0  0  0  0
   24.7648  -21.1218   -8.4590 O   0  0  0  0  0  0  0  0  0  0  0  0
   25.5093  -20.8960   -9.6105 C   0  0  0  0  0  0  0  0  0  0  0  0
   25.9439  -21.9416  -10.4077 C   0  0  0  0  0  0  0  0  0  0  0  0
   26.6826  -21.7243  -11.5510 C   0  0  0  0  0  0  0  0  0  0  0  0
   27.0261  -20.4467  -11.9576 C   0  0  0  0  0  0  0  0  0  0  0  0
   27.8200  -20.1856  -13.1793 C   0  0  0  0  0  0  0  0  0  0  0  0
   26.9819  -20.2588  -14.4081 C   0  0  2  0  0  0  0  0  0  0  0  0
   27.7333  -19.8981  -15.6043 N   0  0  0  0  0  0  0  0  0  0  0  0
   25.7014  -19.5207  -14.3413 C   0  0  0  0  0  0  0  0  0  0  0  0
   25.5964  -18.2738  -14.4417 O   0  0  0  0  0  0  0  0  0  0  0  0
   26.5768  -19.4134  -11.1385 C   0  0  0  0  0  0  0  0  0  0  0  0
   25.8389  -19.6154   -9.9949 C   0  0  0  0  0  0  0  0  0  0  0  0
   22.8998  -18.5852  -18.0533 N   0  0  0  0  0  0  0  0  0  0  0  0
   22.3172  -19.7889  -17.5757 C   0  0  0  0  0  0  0  0  0  0  0  0
   21.9546  -20.6291  -18.4289 O   0  0  0  0  0  0  0  0  0  0  0  0
   22.1414  -20.0530  -16.1493 C   0  0  0  0  0  0  0  0  0  0  0  0
   22.6250  -18.9812  -15.2257 C   0  0  0  0  0  0  0  0  0  0  0  0
   23.2147  -19.4767  -13.9362 C   0  0  2  0  0  0  0  0  0  0  0  0
   24.4486  -20.2120  -14.1499 N   0  0  0  0  0  0  0  0  0  0  0  0
   22.2451  -20.4138  -13.2981 C   0  0  0  0  0  0  0  0  0  0  0  0
   20.9932  -19.9959  -12.8549 O   0  0  0  0  0  0  0  0  0  0  0  0
   22.5477  -21.6146  -13.1482 O   0  0  0  0  0  0  0  0  0  0  0  0
  2  1  1  1
  2  3  1  0
  4  2  1  0
  5  4  1  0
  5  6  1  6
  7  5  1  0
  7  8  2  0
  9 10  1  0
 10 11  2  0
 11 12  1  0
 13 12  2  0
 13 14  1  0
 15 14  1  1
 15 16  1  0
 16  7  1  0
 17 15  1  0
 18 17  2  0
 19 13  1  0
 20 10  1  0
 20 19  2  0
 21 22  1  0
 22 23  2  0
 22 24  1  0
 24 25  1  0
 26 25  1  6
 26 27  1  0
 27 17  1  0
 28 29  1  0
 28 26  1  0
 30 28  2  0
M  END
$$$$
