LYQ.pdb
     RDKit          3D

 30 30  0  0  1  0  0  0  0  0999 V2000
   19.7906  -16.8810  -17.3092 C   0  0  0  0  0  0  0  0  0  0  0  0
   20.1268  -15.5064  -17.8300 C   0  0  1  0  0  0  0  0  0  0  0  0
   18.9057  -14.9980  -18.5681 C   0  0  0  0  0  0  0  0  0  0  0  0
   20.5679  -14.5677  -16.7343 C   0  0  0  0  0  0  0  0  0  0  0  0
   20.8098  -13.1742  -17.2404 C   0  0  2  0  0  0  0  0  0  0  0  0
   21.8688  -13.2435  -18.2260 N   0  0  0  0  0  0  0  0  0  0  0  0
   21.2586  -12.3189  -16.1406 C   0  0  0  0  0  0  0  0  0  0  0  0
   20.5855  -12.2000  -15.0814 O   0  0  0  0  0  0  0  0  0  0  0  0
   28.1826  -12.2761  -18.2924 O   0  0  0  0  0  0  0  0  0  0  0  0
   27.1960  -11.9790  -17.3599 C   0  0  0  0  0  0  0  0  0  0  0  0
   27.3452  -12.3005  -16.0213 C   0  0  0  0  0  0  0  0  0  0  0  0
   26.3703  -12.0086  -15.0916 C   0  0  0  0  0  0  0  0  0  0  0  0
   25.1924  -11.3782  -15.4530 C   0  0  0  0  0  0  0  0  0  0  0  0
   24.1289  -11.0552  -14.4756 C   0  0  0  0  0  0  0  0  0  0  0  0
   22.8689  -10.6358  -15.1495 C   0  0  2  0  0  0  0  0  0  0  0  0
   22.4678  -11.5739  -16.1910 N   0  0  0  0  0  0  0  0  0  0  0  0
   22.8578   -9.2448  -15.6534 C   0  0  0  0  0  0  0  0  0  0  0  0
   23.1312   -8.9166  -16.8339 O   0  0  0  0  0  0  0  0  0  0  0  0
   25.0675  -11.0658  -16.8048 C   0  0  0  0  0  0  0  0  0  0  0  0
   26.0320  -11.3511  -17.7437 C   0  0  0  0  0  0  0  0  0  0  0  0
   18.9858   -5.1473  -17.2299 N   0  0  0  0  0  0  0  0  0  0  0  0
   18.7636   -6.0862  -16.1880 C   0  0  0  0  0  0  0  0  0  0  0  0
   17.5997   -6.1803  -15.7387 O   0  0  0  0  0  0  0  0  0  0  0  0
   19.8384   -6.9179  -15.6510 C   0  0  0  0  0  0  0  0  0  0  0  0
   21.1825   -6.7269  -16.2775 C   0  0  0  0  0  0  0  0  0  0  0  0
   22.3406   -6.8006  -15.3240 C   0  0  2  0  0  0  0  0  0  0  0  0
   22.5200   -8.1388  -14.7892 N   0  0  0  0  0  0  0  0  0  0  0  0
   22.0661   -5.8954  -14.1704 C   0  0  0  0  0  0  0  0  0  0  0  0
   22.0411   -4.5100  -14.3056 O   0  0  0  0  0  0  0  0  0  0  0  0
   21.8496   -6.3768  -13.0401 O   0  0  0  0  0  0  0  0  0  0  0  0
  2  1  1  1
  2  3  1  0
  4  2  1  0
  5  4  1  0
  5  6  1  6
  7  5  1  0
  7  8  2  0
  9 10  1  0
 10 11  2  0
 11 12  1  0
 13 12  2  0
 13 14  1  0
 15 14  1  6
 15 16  1  0
 16  7  1  0
 17 15  1  0
 18 17  2  0
 19 13  1  0
 20 10  1  0
 20 19  2  0
 21 22  1  0
 22 23  2  0
 22 24  1  0
 24 25  1  0
 26 25  1  6
 26 27  1  0
 27 17  1  0
 28 29  1  0
 28 26  1  0
 30 28  2  0
M  END
$$$$
