LYQ.pdb
     RDKit          3D

 30 30  0  0  1  0  0  0  0  0999 V2000
   31.2249  -23.5217  -18.7599 C   0  0  0  0  0  0  0  0  0  0  0  0
   29.9998  -22.6452  -18.6917 C   0  0  1  0  0  0  0  0  0  0  0  0
   29.2644  -22.8033  -20.0065 C   0  0  0  0  0  0  0  0  0  0  0  0
   29.1276  -22.9664  -17.5034 C   0  0  0  0  0  0  0  0  0  0  0  0
   27.8894  -22.1171  -17.4587 C   0  0  2  0  0  0  0  0  0  0  0  0
   28.2929  -20.7426  -17.6725 N   0  0  0  0  0  0  0  0  0  0  0  0
   27.2690  -22.2152  -16.1365 C   0  0  0  0  0  0  0  0  0  0  0  0
   26.8741  -23.3195  -15.6743 O   0  0  0  0  0  0  0  0  0  0  0  0
   24.3342  -20.7891   -7.9623 O   0  0  0  0  0  0  0  0  0  0  0  0
   24.9633  -20.6513   -9.1938 C   0  0  0  0  0  0  0  0  0  0  0  0
   24.4101  -19.8868  -10.2073 C   0  0  0  0  0  0  0  0  0  0  0  0
   25.0291  -19.7461  -11.4308 C   0  0  0  0  0  0  0  0  0  0  0  0
   26.2366  -20.3642  -11.7053 C   0  0  0  0  0  0  0  0  0  0  0  0
   26.9213  -20.2315  -13.0108 C   0  0  0  0  0  0  0  0  0  0  0  0
   26.3493  -21.1541  -14.0303 C   0  0  2  0  0  0  0  0  0  0  0  0
   27.0722  -21.0873  -15.2946 N   0  0  0  0  0  0  0  0  0  0  0  0
   24.8907  -21.0291  -14.2440 C   0  0  0  0  0  0  0  0  0  0  0  0
   24.3520  -20.1461  -14.9554 O   0  0  0  0  0  0  0  0  0  0  0  0
   26.7712  -21.1268  -10.6694 C   0  0  0  0  0  0  0  0  0  0  0  0
   26.1648  -21.2761   -9.4434 C   0  0  0  0  0  0  0  0  0  0  0  0
   20.8469  -25.8041  -14.6571 N   0  0  0  0  0  0  0  0  0  0  0  0
   21.0199  -24.8746  -15.7166 C   0  0  0  0  0  0  0  0  0  0  0  0
   20.7058  -25.2512  -16.8676 O   0  0  0  0  0  0  0  0  0  0  0  0
   21.5411  -23.5284  -15.4902 C   0  0  0  0  0  0  0  0  0  0  0  0
   21.9098  -23.2035  -14.0781 C   0  0  0  0  0  0  0  0  0  0  0  0
   22.5365  -21.8525  -13.8833 C   0  0  2  0  0  0  0  0  0  0  0  0
   23.9627  -21.9468  -13.6267 N   0  0  0  0  0  0  0  0  0  0  0  0
   21.9136  -21.2058  -12.6920 C   0  0  0  0  0  0  0  0  0  0  0  0
   20.6719  -20.5792  -12.7538 O   0  0  0  0  0  0  0  0  0  0  0  0
   22.5095  -21.2164  -11.5961 O   0  0  0  0  0  0  0  0  0  0  0  0
  2  1  1  6
  2  3  1  0
  4  2  1  0
  5  4  1  0
  5  6  1  1
  7  5  1  0
  7  8  2  0
  9 10  1  0
 10 11  2  0
 11 12  1  0
 13 12  2  0
 13 14  1  0
 15 14  1  1
 15 16  1  0
 16  7  1  0
 17 15  1  0
 18 17  2  0
 19 13  1  0
 20 10  1  0
 20 19  2  0
 21 22  1  0
 22 23  2  0
 22 24  1  0
 24 25  1  0
 26 25  1  1
 26 27  1  0
 27 17  1  0
 28 29  1  0
 28 26  1  0
 30 28  2  0
M  END
$$$$
