LYQ.pdb
     RDKit          3D

 30 30  0  0  1  0  0  0  0  0999 V2000
   18.3782  -15.3367  -20.8500 C   0  0  0  0  0  0  0  0  0  0  0  0
   19.8451  -15.5709  -20.5909 C   0  0  1  0  0  0  0  0  0  0  0  0
   20.5633  -15.4089  -21.9146 C   0  0  0  0  0  0  0  0  0  0  0  0
   20.3943  -14.6571  -19.5236 C   0  0  0  0  0  0  0  0  0  0  0  0
   21.8851  -14.7760  -19.3830 C   0  0  2  0  0  0  0  0  0  0  0  0
   22.1636  -16.0301  -18.7140 N   0  0  0  0  0  0  0  0  0  0  0  0
   22.3923  -13.6856  -18.5484 C   0  0  0  0  0  0  0  0  0  0  0  0
   22.1350  -13.6248  -17.3158 O   0  0  0  0  0  0  0  0  0  0  0  0
   27.2391  -16.4616  -16.0004 O   0  0  0  0  0  0  0  0  0  0  0  0
   26.7523  -15.2780  -16.5419 C   0  0  0  0  0  0  0  0  0  0  0  0
   26.6438  -15.0993  -17.9108 C   0  0  0  0  0  0  0  0  0  0  0  0
   26.1617  -13.9278  -18.4540 C   0  0  0  0  0  0  0  0  0  0  0  0
   25.7619  -12.8711  -17.6546 C   0  0  0  0  0  0  0  0  0  0  0  0
   25.2428  -11.6020  -18.2118 C   0  0  0  0  0  0  0  0  0  0  0  0
   23.7539  -11.5755  -18.2301 C   0  0  2  0  0  0  0  0  0  0  0  0
   23.1987  -12.6350  -19.0637 N   0  0  0  0  0  0  0  0  0  0  0  0
   23.1520  -10.2657  -18.5635 C   0  0  0  0  0  0  0  0  0  0  0  0
   22.7541   -9.9397  -19.7087 O   0  0  0  0  0  0  0  0  0  0  0  0
   25.8811  -13.0766  -16.2819 C   0  0  0  0  0  0  0  0  0  0  0  0
   26.3604  -14.2403  -15.7258 C   0  0  0  0  0  0  0  0  0  0  0  0
   19.8280   -7.3496  -13.4903 N   0  0  0  0  0  0  0  0  0  0  0  0
   20.7735   -6.9536  -14.4729 C   0  0  0  0  0  0  0  0  0  0  0  0
   21.3858   -5.8796  -14.2804 O   0  0  0  0  0  0  0  0  0  0  0  0
   21.0347   -7.7557  -15.6661 C   0  0  0  0  0  0  0  0  0  0  0  0
   22.0308   -7.1877  -16.6256 C   0  0  0  0  0  0  0  0  0  0  0  0
   22.2655   -8.0152  -17.8569 C   0  0  2  0  0  0  0  0  0  0  0  0
   22.9781   -9.2446  -17.5578 N   0  0  0  0  0  0  0  0  0  0  0  0
   23.1114   -7.2316  -18.8034 C   0  0  0  0  0  0  0  0  0  0  0  0
   22.6536   -6.0690  -19.4174 O   0  0  0  0  0  0  0  0  0  0  0  0
   24.2692   -7.6147  -19.0657 O   0  0  0  0  0  0  0  0  0  0  0  0
  2  1  1  6
  2  3  1  0
  4  2  1  0
  5  4  1  0
  5  6  1  1
  7  5  1  0
  7  8  2  0
  9 10  1  0
 10 11  2  0
 11 12  1  0
 13 12  2  0
 13 14  1  0
 15 14  1  6
 15 16  1  0
 16  7  1  0
 17 15  1  0
 18 17  2  0
 19 13  1  0
 20 10  1  0
 20 19  2  0
 21 22  1  0
 22 23  2  0
 22 24  1  0
 24 25  1  0
 26 25  1  1
 26 27  1  0
 27 17  1  0
 28 29  1  0
 28 26  1  0
 30 28  2  0
M  END
$$$$
