LYQ.pdb
     RDKit          3D

 30 30  0  0  1  0  0  0  0  0999 V2000
   29.0790  -18.2718  -14.2070 C   0  0  0  0  0  0  0  0  0  0  0  0
   28.7443  -19.6898  -14.5953 C   0  0  1  0  0  0  0  0  0  0  0  0
   28.4194  -20.4372  -13.3184 C   0  0  0  0  0  0  0  0  0  0  0  0
   27.6246  -19.7615  -15.6038 C   0  0  0  0  0  0  0  0  0  0  0  0
   27.3033  -21.1745  -15.9996 C   0  0  2  0  0  0  0  0  0  0  0  0
   28.4571  -21.7084  -16.6935 N   0  0  0  0  0  0  0  0  0  0  0  0
   26.1658  -21.1843  -16.9209 C   0  0  0  0  0  0  0  0  0  0  0  0
   26.2608  -20.7221  -18.0899 O   0  0  0  0  0  0  0  0  0  0  0  0
   25.7548  -27.8740  -17.9078 O   0  0  0  0  0  0  0  0  0  0  0  0
   25.3662  -26.5566  -18.1189 C   0  0  0  0  0  0  0  0  0  0  0  0
   24.0930  -26.2399  -18.5620 C   0  0  0  0  0  0  0  0  0  0  0  0
   23.7015  -24.9353  -18.7733 C   0  0  0  0  0  0  0  0  0  0  0  0
   24.5651  -23.8766  -18.5520 C   0  0  0  0  0  0  0  0  0  0  0  0
   24.1711  -22.4671  -18.7729 C   0  0  0  0  0  0  0  0  0  0  0  0
   23.7795  -21.7978  -17.5014 C   0  0  2  0  0  0  0  0  0  0  0  0
   24.8937  -21.7084  -16.5653 N   0  0  0  0  0  0  0  0  0  0  0  0
   22.5753  -22.3514  -16.8440 C   0  0  0  0  0  0  0  0  0  0  0  0
   22.5766  -23.3597  -16.0961 O   0  0  0  0  0  0  0  0  0  0  0  0
   25.8390  -24.2223  -18.1068 C   0  0  0  0  0  0  0  0  0  0  0  0
   26.2435  -25.5197  -17.8916 C   0  0  0  0  0  0  0  0  0  0  0  0
   17.6803  -18.9668  -14.8645 N   0  0  0  0  0  0  0  0  0  0  0  0
   19.0126  -18.7436  -15.3022 C   0  0  0  0  0  0  0  0  0  0  0  0
   19.4422  -17.5693  -15.2577 O   0  0  0  0  0  0  0  0  0  0  0  0
   19.8621  -19.8292  -15.7870 C   0  0  0  0  0  0  0  0  0  0  0  0
   19.2423  -21.1899  -15.7841 C   0  0  0  0  0  0  0  0  0  0  0  0
   20.1036  -22.2780  -16.3587 C   0  0  2  0  0  0  0  0  0  0  0  0
   21.2777  -21.7457  -17.0274 N   0  0  0  0  0  0  0  0  0  0  0  0
   19.3116  -23.0231  -17.3799 C   0  0  0  0  0  0  0  0  0  0  0  0
   19.6945  -23.0804  -18.7172 O   0  0  0  0  0  0  0  0  0  0  0  0
   18.2694  -23.6207  -17.0438 O   0  0  0  0  0  0  0  0  0  0  0  0
  2  1  1  1
  2  3  1  0
  4  2  1  0
  5  4  1  0
  5  6  1  6
  7  5  1  0
  7  8  2  0
  9 10  1  0
 10 11  2  0
 11 12  1  0
 13 12  2  0
 13 14  1  0
 15 14  1  6
 15 16  1  0
 16  7  1  0
 17 15  1  0
 18 17  2  0
 19 13  1  0
 20 10  1  0
 20 19  2  0
 21 22  1  0
 22 23  2  0
 22 24  1  0
 24 25  1  0
 26 25  1  6
 26 27  1  0
 27 17  1  0
 28 29  1  0
 28 26  1  0
 30 28  2  0
M  END
$$$$
