LYQ.pdb
     RDKit          3D

 30 30  0  0  1  0  0  0  0  0999 V2000
   26.2725  -15.5732  -14.8128 C   0  0  0  0  0  0  0  0  0  0  0  0
   25.9395  -15.2998  -16.2578 C   0  0  1  0  0  0  0  0  0  0  0  0
   26.4851  -16.4573  -17.0682 C   0  0  0  0  0  0  0  0  0  0  0  0
   24.4618  -15.0901  -16.4783 C   0  0  0  0  0  0  0  0  0  0  0  0
   24.1156  -14.9581  -17.9340 C   0  0  2  0  0  0  0  0  0  0  0  0
   24.7005  -13.7229  -18.4134 N   0  0  0  0  0  0  0  0  0  0  0  0
   22.6628  -14.8721  -18.0917 C   0  0  0  0  0  0  0  0  0  0  0  0
   21.9887  -13.9795  -17.5103 O   0  0  0  0  0  0  0  0  0  0  0  0
   20.4397   -9.7348  -20.9791 O   0  0  0  0  0  0  0  0  0  0  0  0
   20.3179  -11.1077  -20.8022 C   0  0  0  0  0  0  0  0  0  0  0  0
   21.3545  -11.9720  -21.1120 C   0  0  0  0  0  0  0  0  0  0  0  0
   21.2399  -13.3346  -20.9388 C   0  0  0  0  0  0  0  0  0  0  0  0
   20.0796  -13.9055  -20.4455 C   0  0  0  0  0  0  0  0  0  0  0  0
   19.9294  -15.3652  -20.2519 C   0  0  0  0  0  0  0  0  0  0  0  0
   20.4657  -15.8052  -18.9341 C   0  0  2  0  0  0  0  0  0  0  0  0
   21.9230  -15.7768  -18.9002 N   0  0  0  0  0  0  0  0  0  0  0  0
   19.9472  -17.1016  -18.4449 C   0  0  0  0  0  0  0  0  0  0  0  0
   20.5521  -18.1956  -18.5602 O   0  0  0  0  0  0  0  0  0  0  0  0
   19.0527  -13.0145  -20.1419 C   0  0  0  0  0  0  0  0  0  0  0  0
   19.1530  -11.6525  -20.3096 C   0  0  0  0  0  0  0  0  0  0  0  0
   20.7068  -20.4429  -14.3548 N   0  0  0  0  0  0  0  0  0  0  0  0
   19.4871  -21.0398  -14.7702 C   0  0  0  0  0  0  0  0  0  0  0  0
   19.1620  -22.1190  -14.2270 O   0  0  0  0  0  0  0  0  0  0  0  0
   18.6333  -20.4321  -15.7885 C   0  0  0  0  0  0  0  0  0  0  0  0
   19.0856  -19.1050  -16.3081 C   0  0  0  0  0  0  0  0  0  0  0  0
   18.1623  -18.4697  -17.3080 C   0  0  2  0  0  0  0  0  0  0  0  0
   18.6686  -17.1934  -17.7809 N   0  0  0  0  0  0  0  0  0  0  0  0
   16.8508  -18.2088  -16.6467 C   0  0  0  0  0  0  0  0  0  0  0  0
   16.3215  -16.9262  -16.5316 O   0  0  0  0  0  0  0  0  0  0  0  0
   16.1924  -19.1577  -16.1756 O   0  0  0  0  0  0  0  0  0  0  0  0
  2  1  1  1
  2  3  1  0
  4  2  1  0
  5  4  1  0
  5  6  1  1
  7  5  1  0
  7  8  2  0
  9 10  1  0
 10 11  2  0
 11 12  1  0
 13 12  2  0
 13 14  1  0
 15 14  1  6
 15 16  1  0
 16  7  1  0
 17 15  1  0
 18 17  2  0
 19 13  1  0
 20 10  1  0
 20 19  2  0
 21 22  1  0
 22 23  2  0
 22 24  1  0
 24 25  1  0
 26 25  1  1
 26 27  1  0
 27 17  1  0
 28 29  1  0
 28 26  1  0
 30 28  2  0
M  END
$$$$
