QAV.pdb
     RDKit          3D

 22 21  0  0  1  0  0  0  0  0999 V2000
   10.1730  -14.0474   17.3176 N   0  0  0  0  0  0  0  0  0  0  0  0
   10.7606  -13.3173   18.4042 C   0  0  0  0  0  0  0  0  0  0  0  0
   11.9963  -13.1711   18.3670 O   0  0  0  0  0  0  0  0  0  0  0  0
    9.8798  -12.8155   19.4527 C   0  0  0  0  0  0  0  0  0  0  0  0
    8.4859  -13.3683   19.4807 C   0  0  0  0  0  0  0  0  0  0  0  0
    8.4898  -14.8030   19.8477 C   0  0  2  0  0  0  0  0  0  0  0  0
    7.7497  -15.6190   18.9294 N   0  0  0  0  0  0  0  0  0  0  0  0
    7.9637  -15.0526   21.2186 C   0  0  0  0  0  0  0  0  0  0  0  0
    6.9494  -14.4341   21.6223 O   0  0  0  0  0  0  0  0  0  0  0  0
    8.4149  -17.6558   23.8074 C   0  0  0  0  0  0  0  0  0  0  0  0
    7.9508  -16.2530   23.4078 C   0  0  2  0  0  0  0  0  0  0  0  0
    8.5589  -15.9751   22.1216 N   0  0  0  0  0  0  0  0  0  0  0  0
    8.3112  -15.2566   24.4336 C   0  0  0  0  0  0  0  0  0  0  0  0
    9.4617  -14.7537   24.3703 O   0  0  0  0  0  0  0  0  0  0  0  0
    5.7883  -12.5193   25.8132 C   0  0  0  0  0  0  0  0  0  0  0  0
    6.5125  -13.1919   26.9539 C   0  0  2  0  0  0  0  0  0  0  0  0
    6.8085  -12.1715   28.0294 C   0  0  0  0  0  0  0  0  0  0  0  0
    7.7981  -13.8714   26.4807 C   0  0  2  0  0  0  0  0  0  0  0  0
    7.4581  -14.8305   25.4766 N   0  0  0  0  0  0  0  0  0  0  0  0
    8.5235  -14.4667   27.6264 C   0  0  0  0  0  0  0  0  0  0  0  0
    9.0625  -13.7212   28.4798 O   0  0  0  0  0  0  0  0  0  0  0  0
    8.6309  -15.8380   27.7936 O   0  0  0  0  0  0  0  0  0  0  0  0
  1  2  1  0
  2  3  2  0
  2  4  1  0
  4  5  1  0
  5  6  1  0
  6  8  1  0
  6  7  1  6
  8  9  2  0
 11 10  1  1
 11 13  1  0
 12  8  1  0
 12 11  1  0
 13 14  2  0
 16 15  1  6
 16 18  1  0
 17 16  1  0
 18 20  1  0
 18 19  1  6
 19 13  1  0
 20 21  2  0
 20 22  1  0
M  END
$$$$
