QAV.pdb
     RDKit          3D

 22 21  0  0  1  0  0  0  0  0999 V2000
    8.4097  -13.9912   15.4241 N   0  0  0  0  0  0  0  0  0  0  0  0
    7.6909  -14.6792   16.4582 C   0  0  0  0  0  0  0  0  0  0  0  0
    7.5823  -15.9125   16.3285 O   0  0  0  0  0  0  0  0  0  0  0  0
    7.1486  -13.8926   17.5601 C   0  0  0  0  0  0  0  0  0  0  0  0
    8.1236  -13.0505   18.3281 C   0  0  0  0  0  0  0  0  0  0  0  0
    8.8787  -13.8680   19.3050 C   0  0  2  0  0  0  0  0  0  0  0  0
    9.2646  -15.1480   18.7860 N   0  0  0  0  0  0  0  0  0  0  0  0
    8.1340  -14.0876   20.5761 C   0  0  0  0  0  0  0  0  0  0  0  0
    7.6737  -13.1072   21.2096 O   0  0  0  0  0  0  0  0  0  0  0  0
    6.9595  -17.0377   22.5546 C   0  0  0  0  0  0  0  0  0  0  0  0
    7.1848  -15.5343   22.3761 C   0  0  2  0  0  0  0  0  0  0  0  0
    7.9076  -15.3773   21.1293 N   0  0  0  0  0  0  0  0  0  0  0  0
    7.9062  -14.9599   23.5270 C   0  0  0  0  0  0  0  0  0  0  0  0
    9.1622  -15.0121   23.5051 O   0  0  0  0  0  0  0  0  0  0  0  0
    7.8670  -11.8236   27.3428 C   0  0  0  0  0  0  0  0  0  0  0  0
    7.1525  -12.5730   26.2446 C   0  0  2  0  0  0  0  0  0  0  0  0
    5.8007  -13.0271   26.7468 C   0  0  0  0  0  0  0  0  0  0  0  0
    7.9756  -13.7622   25.7481 C   0  0  2  0  0  0  0  0  0  0  0  0
    7.2874  -14.3585   24.6461 N   0  0  0  0  0  0  0  0  0  0  0  0
    8.2319  -14.7145   26.8529 C   0  0  0  0  0  0  0  0  0  0  0  0
    7.4969  -15.7221   26.9922 O   0  0  0  0  0  0  0  0  0  0  0  0
    9.2695  -14.5315   27.7527 O   0  0  0  0  0  0  0  0  0  0  0  0
  1  2  1  0
  2  3  2  0
  2  4  1  0
  4  5  1  0
  5  6  1  0
  6  8  1  0
  6  7  1  6
  8  9  2  0
 11 10  1  1
 11 13  1  0
 12  8  1  0
 12 11  1  0
 13 14  2  0
 16 15  1  1
 16 18  1  0
 17 16  1  0
 18 20  1  0
 18 19  1  6
 19 13  1  0
 20 21  2  0
 20 22  1  0
M  END
$$$$
