QAV.pdb
     RDKit          3D

 22 21  0  0  1  0  0  0  0  0999 V2000
   13.5419  -14.2901   22.0267 N   0  0  0  0  0  0  0  0  0  0  0  0
   13.8292  -14.3490   20.6220 C   0  0  0  0  0  0  0  0  0  0  0  0
   15.0162  -14.5561   20.3093 O   0  0  0  0  0  0  0  0  0  0  0  0
   12.7274  -14.1603   19.6853 C   0  0  0  0  0  0  0  0  0  0  0  0
   11.3530  -14.0563   20.2769 C   0  0  0  0  0  0  0  0  0  0  0  0
   10.7132  -15.3883   20.3737 C   0  0  2  0  0  0  0  0  0  0  0  0
    9.9204  -15.7148   19.2240 N   0  0  0  0  0  0  0  0  0  0  0  0
    9.8579  -15.5344   21.5843 C   0  0  0  0  0  0  0  0  0  0  0  0
    8.7300  -14.9860   21.6241 O   0  0  0  0  0  0  0  0  0  0  0  0
    9.5625  -17.9146   24.3200 C   0  0  0  0  0  0  0  0  0  0  0  0
    9.3418  -16.4791   23.8371 C   0  0  2  0  0  0  0  0  0  0  0  0
   10.2542  -16.2786   22.7286 N   0  0  0  0  0  0  0  0  0  0  0  0
    9.5509  -15.5084   24.9276 C   0  0  0  0  0  0  0  0  0  0  0  0
   10.6926  -14.9917   25.0289 O   0  0  0  0  0  0  0  0  0  0  0  0
    6.3928  -14.5501   27.6985 C   0  0  0  0  0  0  0  0  0  0  0  0
    7.3954  -13.5268   27.2232 C   0  0  2  0  0  0  0  0  0  0  0  0
    6.8448  -12.8137   26.0091 C   0  0  0  0  0  0  0  0  0  0  0  0
    8.7478  -14.1681   26.9102 C   0  0  2  0  0  0  0  0  0  0  0  0
    8.5630  -15.1212   25.8609 N   0  0  0  0  0  0  0  0  0  0  0  0
    9.3372  -14.7613   28.1325 C   0  0  0  0  0  0  0  0  0  0  0  0
    9.3250  -16.0061   28.2910 O   0  0  0  0  0  0  0  0  0  0  0  0
    9.9107  -13.9806   29.1232 O   0  0  0  0  0  0  0  0  0  0  0  0
  1  2  1  0
  2  3  2  0
  2  4  1  0
  4  5  1  0
  5  6  1  0
  6  8  1  0
  6  7  1  6
  8  9  2  0
 11 10  1  1
 11 13  1  0
 12  8  1  0
 12 11  1  0
 13 14  2  0
 16 15  1  6
 16 18  1  0
 17 16  1  0
 18 20  1  0
 18 19  1  6
 19 13  1  0
 20 21  2  0
 20 22  1  0
M  END
$$$$
