QAV.pdb
     RDKit          3D

 22 21  0  0  1  0  0  0  0  0999 V2000
   11.5157  -18.1480   17.1850 N   0  0  0  0  0  0  0  0  0  0  0  0
   10.1808  -18.5318   17.5457 C   0  0  0  0  0  0  0  0  0  0  0  0
    9.6200  -19.3514   16.7951 O   0  0  0  0  0  0  0  0  0  0  0  0
    9.5930  -17.9381   18.7410 C   0  0  0  0  0  0  0  0  0  0  0  0
   10.4206  -16.9139   19.4591 C   0  0  0  0  0  0  0  0  0  0  0  0
   10.4132  -17.1533   20.9205 C   0  0  2  0  0  0  0  0  0  0  0  0
   10.2468  -18.5364   21.2615 N   0  0  0  0  0  0  0  0  0  0  0  0
    9.3644  -16.3704   21.6313 C   0  0  0  0  0  0  0  0  0  0  0  0
    9.1794  -15.1637   21.3413 O   0  0  0  0  0  0  0  0  0  0  0  0
    6.5450  -17.0589   23.9496 C   0  0  0  0  0  0  0  0  0  0  0  0
    7.5796  -16.0996   23.3562 C   0  0  2  0  0  0  0  0  0  0  0  0
    8.5378  -16.9241   22.6466 N   0  0  0  0  0  0  0  0  0  0  0  0
    8.2074  -15.2732   24.4040 C   0  0  0  0  0  0  0  0  0  0  0  0
    9.4035  -15.5252   24.6981 O   0  0  0  0  0  0  0  0  0  0  0  0
    5.8360  -12.5619   26.7374 C   0  0  0  0  0  0  0  0  0  0  0  0
    7.2809  -12.2498   26.4324 C   0  0  2  0  0  0  0  0  0  0  0  0
    7.3534  -11.3568   25.2146 C   0  0  0  0  0  0  0  0  0  0  0  0
    8.0988  -13.5245   26.2213 C   0  0  2  0  0  0  0  0  0  0  0  0
    7.5617  -14.2239   25.0962 N   0  0  0  0  0  0  0  0  0  0  0  0
    8.1152  -14.3421   27.4560 C   0  0  0  0  0  0  0  0  0  0  0  0
    7.3466  -15.3284   27.5623 O   0  0  0  0  0  0  0  0  0  0  0  0
    8.9611  -14.0541   28.5149 O   0  0  0  0  0  0  0  0  0  0  0  0
  1  2  1  0
  2  3  2  0
  2  4  1  0
  4  5  1  0
  5  6  1  0
  6  8  1  0
  6  7  1  6
  8  9  2  0
 11 10  1  1
 11 13  1  0
 12  8  1  0
 12 11  1  0
 13 14  2  0
 16 15  1  6
 16 18  1  0
 17 16  1  0
 18 20  1  0
 18 19  1  6
 19 13  1  0
 20 21  2  0
 20 22  1  0
M  END
$$$$
