QAV.pdb
     RDKit          3D

 22 21  0  0  1  0  0  0  0  0999 V2000
    6.9807  -15.3922   17.4498 N   0  0  0  0  0  0  0  0  0  0  0  0
    7.8590  -14.5539   16.6849 C   0  0  0  0  0  0  0  0  0  0  0  0
    8.0958  -14.9204   15.5191 O   0  0  0  0  0  0  0  0  0  0  0  0
    8.4006  -13.3599   17.3236 C   0  0  0  0  0  0  0  0  0  0  0  0
    7.8580  -13.0185   18.6796 C   0  0  0  0  0  0  0  0  0  0  0  0
    8.8003  -13.4248   19.7474 C   0  0  2  0  0  0  0  0  0  0  0  0
    9.7250  -14.4362   19.3246 N   0  0  0  0  0  0  0  0  0  0  0  0
    8.1112  -13.9097   20.9756 C   0  0  0  0  0  0  0  0  0  0  0  0
    7.2843  -13.1708   21.5628 O   0  0  0  0  0  0  0  0  0  0  0  0
    7.8079  -17.0996   22.8701 C   0  0  0  0  0  0  0  0  0  0  0  0
    7.7380  -15.5721   22.8006 C   0  0  2  0  0  0  0  0  0  0  0  0
    8.3409  -15.1951   21.5374 N   0  0  0  0  0  0  0  0  0  0  0  0
    8.4091  -14.9515   23.9580 C   0  0  0  0  0  0  0  0  0  0  0  0
    9.6633  -14.8710   23.9227 O   0  0  0  0  0  0  0  0  0  0  0  0
    6.1247  -13.1954   27.1177 C   0  0  0  0  0  0  0  0  0  0  0  0
    7.4964  -12.7006   26.7281 C   0  0  2  0  0  0  0  0  0  0  0  0
    7.3592  -11.6218   25.6779 C   0  0  0  0  0  0  0  0  0  0  0  0
    8.3830  -13.8401   26.2244 C   0  0  2  0  0  0  0  0  0  0  0  0
    7.7442  -14.4440   25.0971 N   0  0  0  0  0  0  0  0  0  0  0  0
    8.6620  -14.8027   27.3147 C   0  0  0  0  0  0  0  0  0  0  0  0
    8.0821  -15.9154   27.3291 O   0  0  0  0  0  0  0  0  0  0  0  0
    9.5536  -14.5158   28.3357 O   0  0  0  0  0  0  0  0  0  0  0  0
  1  2  1  0
  2  3  2  0
  2  4  1  0
  4  5  1  0
  5  6  1  0
  6  8  1  0
  6  7  1  6
  8  9  2  0
 11 10  1  1
 11 13  1  0
 12  8  1  0
 12 11  1  0
 13 14  2  0
 16 15  1  6
 16 18  1  0
 17 16  1  0
 18 20  1  0
 18 19  1  6
 19 13  1  0
 20 21  2  0
 20 22  1  0
M  END
$$$$
