QAV.pdb
     RDKit          3D

 22 21  0  0  1  0  0  0  0  0999 V2000
    8.8646  -12.2080   18.5818 N   0  0  0  0  0  0  0  0  0  0  0  0
    8.4860  -13.3185   17.7556 C   0  0  0  0  0  0  0  0  0  0  0  0
    9.2474  -13.5867   16.8080 O   0  0  0  0  0  0  0  0  0  0  0  0
    7.2566  -14.0320   18.0821 C   0  0  0  0  0  0  0  0  0  0  0  0
    6.8484  -14.0415   19.5253 C   0  0  0  0  0  0  0  0  0  0  0  0
    7.8339  -14.7750   20.3522 C   0  0  2  0  0  0  0  0  0  0  0  0
    8.1753  -16.0586   19.8112 N   0  0  0  0  0  0  0  0  0  0  0  0
    7.3817  -14.9689   21.7580 C   0  0  0  0  0  0  0  0  0  0  0  0
    6.8251  -14.0270   22.3724 O   0  0  0  0  0  0  0  0  0  0  0  0
    7.2524  -17.7869   24.2120 C   0  0  0  0  0  0  0  0  0  0  0  0
    7.1719  -16.2994   23.8603 C   0  0  2  0  0  0  0  0  0  0  0  0
    7.5478  -16.1912   22.4645 N   0  0  0  0  0  0  0  0  0  0  0  0
    8.0327  -15.4920   24.7447 C   0  0  0  0  0  0  0  0  0  0  0  0
    9.2698  -15.5122   24.5210 O   0  0  0  0  0  0  0  0  0  0  0  0
    6.3586  -12.6009   27.3598 C   0  0  0  0  0  0  0  0  0  0  0  0
    7.7643  -12.5268   26.8150 C   0  0  2  0  0  0  0  0  0  0  0  0
    7.7466  -11.8169   25.4803 C   0  0  0  0  0  0  0  0  0  0  0  0
    8.3902  -13.9158   26.6838 C   0  0  2  0  0  0  0  0  0  0  0  0
    7.5664  -14.7019   25.8196 N   0  0  0  0  0  0  0  0  0  0  0  0
    8.5785  -14.5294   28.0184 C   0  0  0  0  0  0  0  0  0  0  0  0
    7.8164  -15.4528   28.3944 O   0  0  0  0  0  0  0  0  0  0  0  0
    9.5806  -14.1154   28.8810 O   0  0  0  0  0  0  0  0  0  0  0  0
  1  2  1  0
  2  3  2  0
  2  4  1  0
  4  5  1  0
  5  6  1  0
  6  8  1  0
  6  7  1  6
  8  9  2  0
 11 10  1  1
 11 13  1  0
 12  8  1  0
 12 11  1  0
 13 14  2  0
 16 15  1  6
 16 18  1  0
 17 16  1  0
 18 20  1  0
 18 19  1  6
 19 13  1  0
 20 21  2  0
 20 22  1  0
M  END
$$$$
