QAV.pdb
     RDKit          3D

 22 21  0  0  1  0  0  0  0  0999 V2000
   10.7777  -12.4452   19.7567 N   0  0  0  0  0  0  0  0  0  0  0  0
    9.8537  -12.8236   18.7260 C   0  0  0  0  0  0  0  0  0  0  0  0
   10.3514  -13.2422   17.6645 O   0  0  0  0  0  0  0  0  0  0  0  0
    8.4270  -12.6864   18.9959 C   0  0  0  0  0  0  0  0  0  0  0  0
    7.9445  -13.1811   20.3271 C   0  0  0  0  0  0  0  0  0  0  0  0
    8.2715  -14.6134   20.5129 C   0  0  2  0  0  0  0  0  0  0  0  0
    7.5786  -15.4706   19.5953 N   0  0  0  0  0  0  0  0  0  0  0  0
    7.9991  -15.0961   21.8953 C   0  0  0  0  0  0  0  0  0  0  0  0
    7.0391  -14.6189   22.5475 O   0  0  0  0  0  0  0  0  0  0  0  0
    8.4781  -18.0898   23.8044 C   0  0  0  0  0  0  0  0  0  0  0  0
    8.4461  -16.5608   23.8672 C   0  0  2  0  0  0  0  0  0  0  0  0
    8.7835  -16.0925   22.5375 N   0  0  0  0  0  0  0  0  0  0  0  0
    9.3650  -16.0474   24.9003 C   0  0  0  0  0  0  0  0  0  0  0  0
   10.5818  -15.9579   24.5972 O   0  0  0  0  0  0  0  0  0  0  0  0
    8.8936  -12.9358   27.0924 C   0  0  0  0  0  0  0  0  0  0  0  0
    9.2220  -14.0910   28.0066 C   0  0  2  0  0  0  0  0  0  0  0  0
   10.1291  -13.6088   29.1158 C   0  0  0  0  0  0  0  0  0  0  0  0
    9.8663  -15.2477   27.2416 C   0  0  2  0  0  0  0  0  0  0  0  0
    8.9748  -15.6514   26.1996 N   0  0  0  0  0  0  0  0  0  0  0  0
   10.2138  -16.3521   28.1649 C   0  0  0  0  0  0  0  0  0  0  0  0
    9.3815  -17.2640   28.3893 O   0  0  0  0  0  0  0  0  0  0  0  0
   11.4434  -16.4171   28.8004 O   0  0  0  0  0  0  0  0  0  0  0  0
  1  2  1  0
  2  3  2  0
  2  4  1  0
  4  5  1  0
  5  6  1  0
  6  8  1  0
  6  7  1  6
  8  9  2  0
 11 10  1  6
 11 13  1  0
 12  8  1  0
 12 11  1  0
 13 14  2  0
 16 15  1  6
 16 18  1  0
 17 16  1  0
 18 20  1  0
 18 19  1  6
 19 13  1  0
 20 21  2  0
 20 22  1  0
M  END
$$$$
