ATS.pdb
     RDKit          3D

 19 18  0  0  1  0  0  0  0  0999 V2000
   19.8732  -12.7346  -15.7196 C   0  0  0  0  0  0  0  0  0  0  0  0
   18.5975  -11.9682  -15.9130 C   0  0  2  0  0  0  0  0  0  0  0  0
   17.8683  -12.5469  -17.0247 N   0  0  0  0  0  0  0  0  0  0  0  0
   18.9110  -10.5328  -16.1974 C   0  0  0  0  0  0  0  0  0  0  0  0
   19.4751  -10.2326  -17.2741 O   0  0  0  0  0  0  0  0  0  0  0  0
   16.3698   -7.9119  -16.5734 C   0  0  0  0  0  0  0  0  0  0  0  0
   17.3374   -7.4809  -15.4957 C   0  0  1  0  0  0  0  0  0  0  0  0
   16.8201   -7.7070  -14.2209 O   0  0  0  0  0  0  0  0  0  0  0  0
   18.7013   -8.0926  -15.6741 C   0  0  2  0  0  0  0  0  0  0  0  0
   18.6011   -9.4812  -15.3047 N   0  0  0  0  0  0  0  0  0  0  0  0
   19.7543   -7.4483  -14.9030 C   0  0  0  0  0  0  0  0  0  0  0  0
   19.9516   -7.8227  -13.7196 O   0  0  0  0  0  0  0  0  0  0  0  0
   23.3779   -7.2317  -15.3472 O   0  0  0  0  0  0  0  0  0  0  0  0
   22.9826   -5.9070  -15.1798 C   0  0  0  0  0  0  0  0  0  0  0  0
   21.6165   -5.8291  -14.5272 C   0  0  2  0  0  0  0  0  0  0  0  0
   20.5997   -6.4089  -15.3796 N   0  0  0  0  0  0  0  0  0  0  0  0
   21.2918   -4.4320  -14.1469 C   0  0  0  0  0  0  0  0  0  0  0  0
   21.9990   -3.8515  -13.1032 O   0  0  0  0  0  0  0  0  0  0  0  0
   20.4167   -3.7724  -14.7264 O   0  0  0  0  0  0  0  0  0  0  0  0
  2  3  1  0
  2  1  1  6
  4  2  1  0
  5  4  2  0
  7  6  1  6
  7  8  1  0
  7  9  1  0
  9 11  1  0
  9 10  1  1
 10  4  1  0
 11 12  2  0
 15 14  1  6
 14 13  1  0
 16 15  1  0
 16 11  1  0
 17 18  1  0
 17 15  1  0
 19 17  2  0
M  END
$$$$
