ATS.pdb
     RDKit          3D

 19 18  0  0  1  0  0  0  0  0999 V2000
   16.6819   -9.5819  -17.1089 C   0  0  0  0  0  0  0  0  0  0  0  0
   17.7816  -10.5587  -16.8108 C   0  0  2  0  0  0  0  0  0  0  0  0
   17.2184  -11.6986  -16.1137 N   0  0  0  0  0  0  0  0  0  0  0  0
   18.8222   -9.9007  -15.9601 C   0  0  0  0  0  0  0  0  0  0  0  0
   18.6261   -9.7946  -14.7281 O   0  0  0  0  0  0  0  0  0  0  0  0
   23.5706   -8.6600  -15.5326 C   0  0  0  0  0  0  0  0  0  0  0  0
   22.3894   -9.3210  -16.2043 C   0  0  1  0  0  0  0  0  0  0  0  0
   22.5054  -10.7103  -16.1964 O   0  0  0  0  0  0  0  0  0  0  0  0
   21.0750   -8.8556  -15.6366 C   0  0  2  0  0  0  0  0  0  0  0  0
   20.0322   -9.3844  -16.4778 N   0  0  0  0  0  0  0  0  0  0  0  0
   20.9439   -7.4096  -15.5327 C   0  0  0  0  0  0  0  0  0  0  0  0
   20.9303   -6.7270  -16.5879 O   0  0  0  0  0  0  0  0  0  0  0  0
   18.3945   -5.1846  -14.2166 O   0  0  0  0  0  0  0  0  0  0  0  0
   19.5545   -4.7243  -13.5987 C   0  0  0  0  0  0  0  0  0  0  0  0
   20.7882   -5.2356  -14.3160 C   0  0  2  0  0  0  0  0  0  0  0  0
   20.8269   -6.6830  -14.3159 N   0  0  0  0  0  0  0  0  0  0  0  0
   22.0196   -4.6471  -13.7336 C   0  0  0  0  0  0  0  0  0  0  0  0
   22.2675   -3.2974  -13.9415 O   0  0  0  0  0  0  0  0  0  0  0  0
   22.8273   -5.3166  -13.0731 O   0  0  0  0  0  0  0  0  0  0  0  0
  2  3  1  0
  2  1  1  1
  4  2  1  0
  5  4  2  0
  7  6  1  1
  7  8  1  0
  7  9  1  0
  9 11  1  0
  9 10  1  6
 10  4  1  0
 11 12  2  0
 15 14  1  1
 14 13  1  0
 16 15  1  0
 16 11  1  0
 17 18  1  0
 17 15  1  0
 19 17  2  0
M  END
$$$$
