ATS.pdb
     RDKit          3D

 19 18  0  0  1  0  0  0  0  0999 V2000
   16.3164  -10.8585  -16.0431 C   0  0  0  0  0  0  0  0  0  0  0  0
   17.6542  -11.4369  -16.4010 C   0  0  2  0  0  0  0  0  0  0  0  0
   17.6502  -12.8528  -16.0886 N   0  0  0  0  0  0  0  0  0  0  0  0
   18.7270  -10.7430  -15.6219 C   0  0  0  0  0  0  0  0  0  0  0  0
   18.7742  -10.8936  -14.3798 O   0  0  0  0  0  0  0  0  0  0  0  0
   22.3246  -11.2515  -15.9122 C   0  0  0  0  0  0  0  0  0  0  0  0
   22.0720   -9.7749  -16.1106 C   0  0  1  0  0  0  0  0  0  0  0  0
   22.1468   -9.4174  -17.4560 O   0  0  0  0  0  0  0  0  0  0  0  0
   20.7854   -9.3244  -15.4717 C   0  0  2  0  0  0  0  0  0  0  0  0
   19.7048   -9.9147  -16.2190 N   0  0  0  0  0  0  0  0  0  0  0  0
   20.6176   -7.8797  -15.4129 C   0  0  0  0  0  0  0  0  0  0  0  0
   19.7155   -7.3478  -16.1078 O   0  0  0  0  0  0  0  0  0  0  0  0
   19.4170   -4.0038  -13.8755 O   0  0  0  0  0  0  0  0  0  0  0  0
   19.6903   -5.3631  -14.0052 C   0  0  0  0  0  0  0  0  0  0  0  0
   21.0865   -5.5837  -14.5531 C   0  0  2  0  0  0  0  0  0  0  0  0
   21.4009   -6.9954  -14.6213 N   0  0  0  0  0  0  0  0  0  0  0  0
   22.0896   -4.8290  -13.7618 C   0  0  0  0  0  0  0  0  0  0  0  0
   22.2234   -3.4671  -13.9938 O   0  0  0  0  0  0  0  0  0  0  0  0
   22.8058   -5.3711  -12.9075 O   0  0  0  0  0  0  0  0  0  0  0  0
  2  3  1  0
  2  1  1  1
  4  2  1  0
  5  4  2  0
  7  6  1  6
  7  8  1  0
  7  9  1  0
  9 11  1  0
  9 10  1  6
 10  4  1  0
 11 12  2  0
 15 14  1  1
 14 13  1  0
 16 15  1  0
 16 11  1  0
 17 18  1  0
 17 15  1  0
 19 17  2  0
M  END
$$$$
