ATS.pdb
     RDKit          3D

 19 18  0  0  1  0  0  0  0  0999 V2000
   24.1458  -12.1703  -15.9110 C   0  0  0  0  0  0  0  0  0  0  0  0
   22.6699  -12.2277  -15.6447 C   0  0  2  0  0  0  0  0  0  0  0  0
   22.1030  -13.3348  -16.3899 N   0  0  0  0  0  0  0  0  0  0  0  0
   22.0315  -10.9429  -16.0705 C   0  0  0  0  0  0  0  0  0  0  0  0
   21.9282  -10.6877  -17.2920 O   0  0  0  0  0  0  0  0  0  0  0  0
   18.5900   -9.7976  -15.8232 C   0  0  0  0  0  0  0  0  0  0  0  0
   19.4589   -8.8341  -15.0487 C   0  0  1  0  0  0  0  0  0  0  0  0
   19.4203   -9.0945  -13.6796 O   0  0  0  0  0  0  0  0  0  0  0  0
   20.8668   -8.7809  -15.5793 C   0  0  2  0  0  0  0  0  0  0  0  0
   21.5311   -9.9871  -15.1569 N   0  0  0  0  0  0  0  0  0  0  0  0
   21.6279   -7.6176  -15.1479 C   0  0  0  0  0  0  0  0  0  0  0  0
   22.3178   -7.7017  -14.1007 O   0  0  0  0  0  0  0  0  0  0  0  0
   23.2559   -3.0634  -15.7788 O   0  0  0  0  0  0  0  0  0  0  0  0
   22.4903   -4.1130  -16.2801 C   0  0  0  0  0  0  0  0  0  0  0  0
   22.4226   -5.2553  -15.2859 C   0  0  2  0  0  0  0  0  0  0  0  0
   21.6618   -6.3652  -15.8206 N   0  0  0  0  0  0  0  0  0  0  0  0
   21.8856   -4.7904  -13.9831 C   0  0  0  0  0  0  0  0  0  0  0  0
   22.7851   -4.4668  -12.9768 O   0  0  0  0  0  0  0  0  0  0  0  0
   20.6698   -4.6827  -13.7663 O   0  0  0  0  0  0  0  0  0  0  0  0
  2  3  1  0
  2  1  1  6
  4  2  1  0
  5  4  2  0
  7  6  1  6
  7  8  1  0
  7  9  1  0
  9 11  1  0
  9 10  1  1
 10  4  1  0
 11 12  2  0
 15 14  1  6
 14 13  1  0
 16 15  1  0
 16 11  1  0
 17 18  1  0
 17 15  1  0
 19 17  2  0
M  END
$$$$
