ATS.pdb
     RDKit          3D

 19 18  0  0  1  0  0  0  0  0999 V2000
   16.8000   -9.0657  -17.5393 C   0  0  0  0  0  0  0  0  0  0  0  0
   17.8093  -10.1596  -17.3475 C   0  0  2  0  0  0  0  0  0  0  0  0
   17.1459  -11.3116  -16.7683 N   0  0  0  0  0  0  0  0  0  0  0  0
   18.8991   -9.6849  -16.4383 C   0  0  0  0  0  0  0  0  0  0  0  0
   18.6491   -9.5119  -15.2237 O   0  0  0  0  0  0  0  0  0  0  0  0
   23.7529   -8.8426  -15.8533 C   0  0  0  0  0  0  0  0  0  0  0  0
   22.5613   -9.4813  -16.5283 C   0  0  1  0  0  0  0  0  0  0  0  0
   22.6296  -10.8730  -16.4814 O   0  0  0  0  0  0  0  0  0  0  0  0
   21.2542   -8.9566  -15.9967 C   0  0  2  0  0  0  0  0  0  0  0  0
   20.2147   -9.4170  -16.8811 N   0  0  0  0  0  0  0  0  0  0  0  0
   21.1946   -7.5075  -15.8722 C   0  0  0  0  0  0  0  0  0  0  0  0
   21.1736   -6.8118  -16.9187 O   0  0  0  0  0  0  0  0  0  0  0  0
   19.2376   -5.2202  -13.1944 O   0  0  0  0  0  0  0  0  0  0  0  0
   19.7517   -4.8055  -14.4203 C   0  0  0  0  0  0  0  0  0  0  0  0
   21.1535   -5.3438  -14.6283 C   0  0  2  0  0  0  0  0  0  0  0  0
   21.1572   -6.7916  -14.6441 N   0  0  0  0  0  0  0  0  0  0  0  0
   22.0854   -4.7972  -13.6110 C   0  0  0  0  0  0  0  0  0  0  0  0
   22.6851   -5.6804  -12.7241 O   0  0  0  0  0  0  0  0  0  0  0  0
   22.3433   -3.5875  -13.5286 O   0  0  0  0  0  0  0  0  0  0  0  0
  2  3  1  0
  2  1  1  1
  4  2  1  0
  5  4  2  0
  7  6  1  1
  7  8  1  0
  7  9  1  0
  9 11  1  0
  9 10  1  6
 10  4  1  0
 11 12  2  0
 15 14  1  1
 14 13  1  0
 16 15  1  0
 16 11  1  0
 17 18  1  0
 17 15  1  0
 19 17  2  0
M  END
$$$$
