ATS.pdb
     RDKit          3D

 19 18  0  0  1  0  0  0  0  0999 V2000
   16.6067  -10.8030  -15.2555 C   0  0  0  0  0  0  0  0  0  0  0  0
   17.6539  -11.4868  -16.0849 C   0  0  2  0  0  0  0  0  0  0  0  0
   17.9242  -12.7919  -15.5138 N   0  0  0  0  0  0  0  0  0  0  0  0
   18.9036  -10.6636  -16.0962 C   0  0  0  0  0  0  0  0  0  0  0  0
   19.7810  -10.8733  -15.2279 O   0  0  0  0  0  0  0  0  0  0  0  0
   21.7242   -7.3694  -18.5017 C   0  0  0  0  0  0  0  0  0  0  0  0
   20.6626   -8.4421  -18.4260 C   0  0  1  0  0  0  0  0  0  0  0  0
   20.9989   -9.5528  -19.1986 O   0  0  0  0  0  0  0  0  0  0  0  0
   20.3277   -8.8155  -17.0065 C   0  0  2  0  0  0  0  0  0  0  0  0
   19.1523   -9.6470  -17.0468 N   0  0  0  0  0  0  0  0  0  0  0  0
   20.1029   -7.6802  -16.1237 C   0  0  0  0  0  0  0  0  0  0  0  0
   19.0303   -7.0342  -16.2320 O   0  0  0  0  0  0  0  0  0  0  0  0
   22.6785   -6.1308  -12.9661 O   0  0  0  0  0  0  0  0  0  0  0  0
   21.2866   -6.1660  -12.9425 C   0  0  0  0  0  0  0  0  0  0  0  0
   20.7191   -6.0433  -14.3428 C   0  0  2  0  0  0  0  0  0  0  0  0
   21.0091   -7.2257  -15.1265 N   0  0  0  0  0  0  0  0  0  0  0  0
   21.2052   -4.8065  -15.0031 C   0  0  0  0  0  0  0  0  0  0  0  0
   20.7785   -3.5826  -14.5067 O   0  0  0  0  0  0  0  0  0  0  0  0
   21.9736   -4.8310  -15.9756 O   0  0  0  0  0  0  0  0  0  0  0  0
  2  3  1  0
  2  1  1  1
  4  2  1  0
  5  4  2  0
  7  6  1  1
  7  8  1  0
  7  9  1  0
  9 11  1  0
  9 10  1  6
 10  4  1  0
 11 12  2  0
 15 14  1  1
 14 13  1  0
 16 15  1  0
 16 11  1  0
 17 18  1  0
 17 15  1  0
 19 17  2  0
M  END
$$$$
