ATS.pdb
     RDKit          3D

 19 18  0  0  1  0  0  0  0  0999 V2000
   14.6414  -13.4209  -16.3682 C   0  0  0  0  0  0  0  0  0  0  0  0
   16.0685  -13.8374  -16.5739 C   0  0  2  0  0  0  0  0  0  0  0  0
   16.2404  -15.1844  -16.0654 N   0  0  0  0  0  0  0  0  0  0  0  0
   16.9770  -12.8956  -15.8480 C   0  0  0  0  0  0  0  0  0  0  0  0
   17.1113  -13.0102  -14.6084 O   0  0  0  0  0  0  0  0  0  0  0  0
   20.5610  -12.5223  -15.9082 C   0  0  0  0  0  0  0  0  0  0  0  0
   19.9745  -11.1971  -16.3362 C   0  0  1  0  0  0  0  0  0  0  0  0
   20.0238  -11.0368  -17.7202 O   0  0  0  0  0  0  0  0  0  0  0  0
   18.5899  -10.9806  -15.7863 C   0  0  2  0  0  0  0  0  0  0  0  0
   17.7030  -11.8684  -16.4934 N   0  0  0  0  0  0  0  0  0  0  0  0
   18.1090   -9.6108  -15.8915 C   0  0  0  0  0  0  0  0  0  0  0  0
   17.6545   -9.2133  -16.9937 O   0  0  0  0  0  0  0  0  0  0  0  0
   15.4929   -7.6887  -14.1561 O   0  0  0  0  0  0  0  0  0  0  0  0
   16.6236   -6.8825  -14.0531 C   0  0  0  0  0  0  0  0  0  0  0  0
   17.6761   -7.2964  -15.0626 C   0  0  2  0  0  0  0  0  0  0  0  0
   18.1073   -8.6597  -14.8343 N   0  0  0  0  0  0  0  0  0  0  0  0
   18.8152   -6.3455  -15.0580 C   0  0  0  0  0  0  0  0  0  0  0  0
   18.5613   -5.0110  -15.3424 O   0  0  0  0  0  0  0  0  0  0  0  0
   19.9765   -6.7016  -14.8103 O   0  0  0  0  0  0  0  0  0  0  0  0
  2  3  1  0
  2  1  1  1
  4  2  1  0
  5  4  2  0
  7  6  1  6
  7  8  1  0
  7  9  1  0
  9 11  1  0
  9 10  1  6
 10  4  1  0
 11 12  2  0
 15 14  1  1
 14 13  1  0
 16 15  1  0
 16 11  1  0
 17 18  1  0
 17 15  1  0
 19 17  2  0
M  END
$$$$
