WMN.pdb
     RDKit          3D

 31 32  0  0  1  0  0  0  0  0999 V2000
    7.2213  -17.9346   25.5528 N   0  0  0  0  0  0  0  0  0  0  0  0
    7.5469  -16.6121   25.0954 C   0  0  1  0  0  0  0  0  0  0  0  0
    8.7101  -16.0221   25.8277 C   0  0  0  0  0  0  0  0  0  0  0  0
    8.2311  -15.1289   26.9181 C   0  0  0  0  0  0  0  0  0  0  0  0
    8.2773  -15.3917   28.2812 C   0  0  0  0  0  0  0  0  0  0  0  0
    7.7744  -14.3163   28.8943 N   0  0  0  0  0  0  0  0  0  0  0  0
    7.4076  -13.3791   28.0089 C   0  0  0  0  0  0  0  0  0  0  0  0
    6.8449  -12.1339   28.1687 C   0  0  0  0  0  0  0  0  0  0  0  0
    6.5429  -11.3407   27.0571 C   0  0  0  0  0  0  0  0  0  0  0  0
    6.8101  -11.8079   25.7890 C   0  0  0  0  0  0  0  0  0  0  0  0
    7.3765  -13.0646   25.6641 C   0  0  0  0  0  0  0  0  0  0  0  0
    7.6881  -13.8738   26.7463 C   0  0  0  0  0  0  0  0  0  0  0  0
    7.7787  -16.6533   23.6255 C   0  0  0  0  0  0  0  0  0  0  0  0
    8.0485  -17.7365   23.0482 O   0  0  0  0  0  0  0  0  0  0  0  0
    7.6315  -12.0112   17.1175 C   0  0  0  0  0  0  0  0  0  0  0  0
    7.3207  -12.2640   18.8704 S   0  0  0  0  0  0  0  0  0  0  0  0
    7.8738  -13.9279   19.4139 C   0  0  0  0  0  0  0  0  0  0  0  0
    7.6558  -14.0990   20.8900 C   0  0  0  0  0  0  0  0  0  0  0  0
    7.9786  -15.4595   21.4057 C   0  0  2  0  0  0  0  0  0  0  0  0
    7.6952  -15.4581   22.8687 N   0  0  0  0  0  0  0  0  0  0  0  0
    9.3380  -15.9409   21.2097 C   0  0  0  0  0  0  0  0  0  0  0  0
    9.5758  -16.6592   20.1735 O   0  0  0  0  0  0  0  0  0  0  0  0
   11.9951  -16.2492   18.9907 N   0  0  0  0  0  0  0  0  0  0  0  0
   12.6585  -15.2417   19.7262 C   0  0  0  0  0  0  0  0  0  0  0  0
   13.1795  -14.2840   19.1147 O   0  0  0  0  0  0  0  0  0  0  0  0
   12.7349  -15.3183   21.1828 C   0  0  0  0  0  0  0  0  0  0  0  0
   11.7594  -16.3112   21.7772 C   0  0  2  0  0  0  0  0  0  0  0  0
   10.4648  -15.7188   22.0211 N   0  0  0  0  0  0  0  0  0  0  0  0
   12.2885  -16.8011   23.0749 C   0  0  0  0  0  0  0  0  0  0  0  0
   11.6645  -16.6293   24.1478 O   0  0  0  0  0  0  0  0  0  0  0  0
   13.5264  -17.4692   23.0449 O   0  0  0  0  0  0  0  0  0  0  0  0
  2  3  1  0
  2  1  1  1
  2 13  1  0
  3  4  1  0
  4 12  1  0
  4  5  2  0
  5  6  1  0
  7  6  1  0
  7  8  2  0
  9  8  1  0
 10  9  2  0
 11 12  2  0
 11 10  1  0
 12  7  1  0
 13 14  2  0
 16 15  1  0
 16 17  1  0
 19 18  1  1
 18 17  1  0
 19 21  1  0
 20 13  1  0
 20 19  1  0
 21 22  2  0
 23 24  1  0
 24 25  2  0
 24 26  1  0
 27 26  1  1
 27 29  1  0
 28 27  1  0
 28 21  1  0
 29 30  2  0
 29 31  1  0
M  END
$$$$
