WMN.pdb
     RDKit          3D

 31 32  0  0  1  0  0  0  0  0999 V2000
    6.3979  -18.3939   25.4277 N   0  0  0  0  0  0  0  0  0  0  0  0
    6.9831  -17.1520   25.0040 C   0  0  1  0  0  0  0  0  0  0  0  0
    8.2986  -16.8833   25.6636 C   0  0  0  0  0  0  0  0  0  0  0  0
    8.1539  -15.8020   26.6765 C   0  0  0  0  0  0  0  0  0  0  0  0
    8.2885  -15.9359   28.0524 C   0  0  0  0  0  0  0  0  0  0  0  0
    8.1095  -14.7186   28.5735 N   0  0  0  0  0  0  0  0  0  0  0  0
    7.8679  -13.8111   27.6170 C   0  0  0  0  0  0  0  0  0  0  0  0
    7.6197  -12.4592   27.6744 C   0  0  0  0  0  0  0  0  0  0  0  0
    7.3838  -11.7280   26.5058 C   0  0  0  0  0  0  0  0  0  0  0  0
    7.3994  -12.3647   25.2842 C   0  0  0  0  0  0  0  0  0  0  0  0
    7.6525  -13.7253   25.2624 C   0  0  0  0  0  0  0  0  0  0  0  0
    7.8908  -14.4770   26.4030 C   0  0  0  0  0  0  0  0  0  0  0  0
    7.0958  -17.1532   23.5197 C   0  0  0  0  0  0  0  0  0  0  0  0
    7.3095  -18.2212   22.8929 O   0  0  0  0  0  0  0  0  0  0  0  0
    7.3049  -11.4824   20.6081 C   0  0  0  0  0  0  0  0  0  0  0  0
    7.6825  -12.4827   19.1625 S   0  0  0  0  0  0  0  0  0  0  0  0
    7.2401  -14.2434   19.4342 C   0  0  0  0  0  0  0  0  0  0  0  0
    6.9477  -14.4948   20.8858 C   0  0  0  0  0  0  0  0  0  0  0  0
    7.3338  -15.8522   21.3649 C   0  0  2  0  0  0  0  0  0  0  0  0
    6.9616  -15.9367   22.8054 N   0  0  0  0  0  0  0  0  0  0  0  0
    8.7333  -16.2306   21.2373 C   0  0  0  0  0  0  0  0  0  0  0  0
    9.1654  -16.5440   20.0705 O   0  0  0  0  0  0  0  0  0  0  0  0
   13.8962  -16.4888   21.7832 N   0  0  0  0  0  0  0  0  0  0  0  0
   13.3712  -15.7545   22.8702 C   0  0  0  0  0  0  0  0  0  0  0  0
   14.1578  -15.2379   23.6929 O   0  0  0  0  0  0  0  0  0  0  0  0
   11.9275  -15.6011   23.0306 C   0  0  0  0  0  0  0  0  0  0  0  0
   11.1309  -16.3517   21.9852 C   0  0  2  0  0  0  0  0  0  0  0  0
    9.7110  -16.2993   22.2456 N   0  0  0  0  0  0  0  0  0  0  0  0
   11.5424  -17.7780   21.9863 C   0  0  0  0  0  0  0  0  0  0  0  0
   12.5651  -18.1690   21.3771 O   0  0  0  0  0  0  0  0  0  0  0  0
   10.7291  -18.6735   22.7048 O   0  0  0  0  0  0  0  0  0  0  0  0
  2  3  1  0
  2  1  1  1
  2 13  1  0
  3  4  1  0
  4 12  1  0
  4  5  2  0
  5  6  1  0
  7  6  1  0
  7  8  2  0
  9  8  1  0
 10  9  2  0
 11 12  2  0
 11 10  1  0
 12  7  1  0
 13 14  2  0
 16 15  1  0
 16 17  1  0
 19 18  1  1
 18 17  1  0
 19 21  1  0
 20 13  1  0
 20 19  1  0
 21 22  2  0
 23 24  1  0
 24 25  2  0
 24 26  1  0
 27 26  1  1
 27 29  1  0
 28 27  1  0
 28 21  1  0
 29 30  2  0
 29 31  1  0
M  END
$$$$
