WMN.pdb
     RDKit          3D

 31 32  0  0  1  0  0  0  0  0999 V2000
    6.5182  -17.7071   25.9622 N   0  0  0  0  0  0  0  0  0  0  0  0
    7.2120  -16.5637   25.4371 C   0  0  1  0  0  0  0  0  0  0  0  0
    8.4514  -16.2403   26.2097 C   0  0  0  0  0  0  0  0  0  0  0  0
    8.2308  -15.0334   27.0527 C   0  0  0  0  0  0  0  0  0  0  0  0
    8.4672  -14.9246   28.4170 C   0  0  0  0  0  0  0  0  0  0  0  0
    8.1644  -13.6685   28.7577 N   0  0  0  0  0  0  0  0  0  0  0  0
    7.7476  -12.9640   27.6963 C   0  0  0  0  0  0  0  0  0  0  0  0
    7.3296  -11.6598   27.5654 C   0  0  0  0  0  0  0  0  0  0  0  0
    6.9282  -11.1618   26.3217 C   0  0  0  0  0  0  0  0  0  0  0  0
    6.9503  -11.9825   25.2154 C   0  0  0  0  0  0  0  0  0  0  0  0
    7.3763  -13.2888   25.3823 C   0  0  0  0  0  0  0  0  0  0  0  0
    7.7811  -13.8111   26.6013 C   0  0  0  0  0  0  0  0  0  0  0  0
    7.5005  -16.7946   23.9951 C   0  0  0  0  0  0  0  0  0  0  0  0
    7.6350  -17.9606   23.5459 O   0  0  0  0  0  0  0  0  0  0  0  0
    8.0911  -11.6948   19.3521 C   0  0  0  0  0  0  0  0  0  0  0  0
    7.4307  -13.2045   18.6325 S   0  0  0  0  0  0  0  0  0  0  0  0
    8.0705  -14.6922   19.4969 C   0  0  0  0  0  0  0  0  0  0  0  0
    7.6857  -14.6638   20.9484 C   0  0  0  0  0  0  0  0  0  0  0  0
    8.0954  -15.8731   21.7171 C   0  0  2  0  0  0  0  0  0  0  0  0
    7.6257  -15.6878   23.1191 N   0  0  0  0  0  0  0  0  0  0  0  0
    9.5155  -16.1891   21.7547 C   0  0  0  0  0  0  0  0  0  0  0  0
   10.2714  -15.4642   22.4959 O   0  0  0  0  0  0  0  0  0  0  0  0
   11.9321  -19.4493   23.3252 N   0  0  0  0  0  0  0  0  0  0  0  0
   11.5844  -19.7303   21.9850 C   0  0  0  0  0  0  0  0  0  0  0  0
   10.8996  -20.7454   21.7333 O   0  0  0  0  0  0  0  0  0  0  0  0
   12.0198  -18.8461   20.9070 C   0  0  0  0  0  0  0  0  0  0  0  0
   11.6280  -17.4011   21.1295 C   0  0  2  0  0  0  0  0  0  0  0  0
   10.1969  -17.2132   21.0733 N   0  0  0  0  0  0  0  0  0  0  0  0
   12.2404  -16.5589   20.0714 C   0  0  0  0  0  0  0  0  0  0  0  0
   13.3890  -16.0744   20.1976 O   0  0  0  0  0  0  0  0  0  0  0  0
   11.4698  -16.3290   18.9169 O   0  0  0  0  0  0  0  0  0  0  0  0
  2  3  1  0
  2  1  1  1
  2 13  1  0
  3  4  1  0
  4 12  1  0
  4  5  2  0
  5  6  1  0
  7  6  1  0
  7  8  2  0
  9  8  1  0
 10  9  2  0
 11 12  2  0
 11 10  1  0
 12  7  1  0
 13 14  2  0
 16 15  1  0
 16 17  1  0
 19 18  1  6
 18 17  1  0
 19 21  1  0
 20 13  1  0
 20 19  1  0
 21 22  2  0
 23 24  1  0
 24 25  2  0
 24 26  1  0
 27 26  1  6
 27 29  1  0
 28 27  1  0
 28 21  1  0
 29 30  2  0
 29 31  1  0
M  END
$$$$
