WMN.pdb
     RDKit          3D

 31 32  0  0  1  0  0  0  0  0999 V2000
    7.1500  -17.9644   25.9892 N   0  0  0  0  0  0  0  0  0  0  0  0
    7.4511  -16.7086   25.3595 C   0  0  1  0  0  0  0  0  0  0  0  0
    8.7692  -16.1505   25.7940 C   0  0  0  0  0  0  0  0  0  0  0  0
    8.5641  -15.0736   26.8011 C   0  0  0  0  0  0  0  0  0  0  0  0
    9.0871  -15.0353   28.0873 C   0  0  0  0  0  0  0  0  0  0  0  0
    8.6802  -13.8842   28.6304 N   0  0  0  0  0  0  0  0  0  0  0  0
    7.9278  -13.1810   27.7724 C   0  0  0  0  0  0  0  0  0  0  0  0
    7.2949  -11.9650   27.8881 C   0  0  0  0  0  0  0  0  0  0  0  0
    6.5474  -11.4470   26.8256 C   0  0  0  0  0  0  0  0  0  0  0  0
    6.4418  -12.1589   25.6509 C   0  0  0  0  0  0  0  0  0  0  0  0
    7.0910  -13.3784   25.5681 C   0  0  0  0  0  0  0  0  0  0  0  0
    7.8399  -13.9177   26.6031 C   0  0  0  0  0  0  0  0  0  0  0  0
    7.3801  -16.8801   23.8825 C   0  0  0  0  0  0  0  0  0  0  0  0
    7.5079  -18.0164   23.3612 O   0  0  0  0  0  0  0  0  0  0  0  0
    8.4894  -11.4524   19.7295 C   0  0  0  0  0  0  0  0  0  0  0  0
    7.2573  -12.5615   19.0330 S   0  0  0  0  0  0  0  0  0  0  0  0
    7.5278  -14.2914   19.5844 C   0  0  0  0  0  0  0  0  0  0  0  0
    7.2878  -14.4166   21.0617 C   0  0  0  0  0  0  0  0  0  0  0  0
    7.5436  -15.7773   21.6132 C   0  0  2  0  0  0  0  0  0  0  0  0
    7.1671  -15.7498   23.0548 N   0  0  0  0  0  0  0  0  0  0  0  0
    8.9006  -16.2934   21.5107 C   0  0  0  0  0  0  0  0  0  0  0  0
    9.1848  -17.0364   20.5041 O   0  0  0  0  0  0  0  0  0  0  0  0
   14.0533  -16.7880   21.5482 N   0  0  0  0  0  0  0  0  0  0  0  0
   13.7247  -15.8597   22.5614 C   0  0  0  0  0  0  0  0  0  0  0  0
   14.6444  -15.3074   23.2032 O   0  0  0  0  0  0  0  0  0  0  0  0
   12.3281  -15.5492   22.8554 C   0  0  0  0  0  0  0  0  0  0  0  0
   11.3528  -16.3886   22.0586 C   0  0  2  0  0  0  0  0  0  0  0  0
    9.9800  -16.0817   22.3868 N   0  0  0  0  0  0  0  0  0  0  0  0
   11.5832  -17.8243   22.3583 C   0  0  0  0  0  0  0  0  0  0  0  0
   11.2275  -18.3356   23.4454 O   0  0  0  0  0  0  0  0  0  0  0  0
   12.2213  -18.5867   21.3627 O   0  0  0  0  0  0  0  0  0  0  0  0
  2  3  1  0
  2  1  1  1
  2 13  1  0
  3  4  1  0
  4 12  1  0
  4  5  2  0
  5  6  1  0
  7  6  1  0
  7  8  2  0
  9  8  1  0
 10  9  2  0
 11 12  2  0
 11 10  1  0
 12  7  1  0
 13 14  2  0
 16 15  1  0
 16 17  1  0
 19 18  1  1
 18 17  1  0
 19 21  1  0
 20 13  1  0
 20 19  1  0
 21 22  2  0
 23 24  1  0
 24 25  2  0
 24 26  1  0
 27 26  1  1
 27 29  1  0
 28 27  1  0
 28 21  1  0
 29 30  2  0
 29 31  1  0
M  END
$$$$
