WMN.pdb
     RDKit          3D

 31 32  0  0  1  0  0  0  0  0999 V2000
    6.9514  -17.6177   25.7778 N   0  0  0  0  0  0  0  0  0  0  0  0
    7.3808  -16.4276   25.0969 C   0  0  1  0  0  0  0  0  0  0  0  0
    8.6862  -15.9108   25.6132 C   0  0  0  0  0  0  0  0  0  0  0  0
    8.4529  -14.9243   26.7034 C   0  0  0  0  0  0  0  0  0  0  0  0
    8.9131  -15.0143   28.0109 C   0  0  0  0  0  0  0  0  0  0  0  0
    8.5025  -13.9074   28.6367 N   0  0  0  0  0  0  0  0  0  0  0  0
    7.8066  -13.1123   27.8120 C   0  0  0  0  0  0  0  0  0  0  0  0
    7.1925  -11.8970   28.0081 C   0  0  0  0  0  0  0  0  0  0  0  0
    6.5079  -11.2679   26.9632 C   0  0  0  0  0  0  0  0  0  0  0  0
    6.4462  -11.8684   25.7249 C   0  0  0  0  0  0  0  0  0  0  0  0
    7.0750  -13.0907   25.5620 C   0  0  0  0  0  0  0  0  0  0  0  0
    7.7617  -13.7385   26.5776 C   0  0  0  0  0  0  0  0  0  0  0  0
    7.4304  -16.6998   23.6342 C   0  0  0  0  0  0  0  0  0  0  0  0
    7.6405  -17.8618   23.2041 O   0  0  0  0  0  0  0  0  0  0  0  0
    8.5111  -11.4731   19.5344 C   0  0  0  0  0  0  0  0  0  0  0  0
    7.6391  -12.6872   18.5351 S   0  0  0  0  0  0  0  0  0  0  0  0
    7.8576  -14.3832   19.2026 C   0  0  0  0  0  0  0  0  0  0  0  0
    7.5190  -14.4208   20.6654 C   0  0  0  0  0  0  0  0  0  0  0  0
    7.7064  -15.7533   21.3060 C   0  0  2  0  0  0  0  0  0  0  0  0
    7.2395  -15.6371   22.7164 N   0  0  0  0  0  0  0  0  0  0  0  0
    9.0543  -16.3019   21.3204 C   0  0  0  0  0  0  0  0  0  0  0  0
    9.4082  -17.0481   20.3384 O   0  0  0  0  0  0  0  0  0  0  0  0
   14.2130  -15.7462   21.5213 N   0  0  0  0  0  0  0  0  0  0  0  0
   13.7363  -15.6111   22.8445 C   0  0  0  0  0  0  0  0  0  0  0  0
   14.5583  -15.5274   23.7826 O   0  0  0  0  0  0  0  0  0  0  0  0
   12.3012  -15.5698   23.1129 C   0  0  0  0  0  0  0  0  0  0  0  0
   11.4715  -16.1755   22.0013 C   0  0  2  0  0  0  0  0  0  0  0  0
   10.0571  -16.1197   22.2892 N   0  0  0  0  0  0  0  0  0  0  0  0
   11.8464  -17.6018   21.8315 C   0  0  0  0  0  0  0  0  0  0  0  0
   12.5701  -17.9843   20.8829 O   0  0  0  0  0  0  0  0  0  0  0  0
   11.3504  -18.5073   22.7873 O   0  0  0  0  0  0  0  0  0  0  0  0
  2  3  1  0
  2  1  1  1
  2 13  1  0
  3  4  1  0
  4 12  1  0
  4  5  2  0
  5  6  1  0
  7  6  1  0
  7  8  2  0
  9  8  1  0
 10  9  2  0
 11 12  2  0
 11 10  1  0
 12  7  1  0
 13 14  2  0
 16 15  1  0
 16 17  1  0
 19 18  1  1
 18 17  1  0
 19 21  1  0
 20 13  1  0
 20 19  1  0
 21 22  2  0
 23 24  1  0
 24 25  2  0
 24 26  1  0
 27 26  1  1
 27 29  1  0
 28 27  1  0
 28 21  1  0
 29 30  2  0
 29 31  1  0
M  END
$$$$
