WMN.pdb
     RDKit          3D

 31 32  0  0  1  0  0  0  0  0999 V2000
    9.0738  -15.4991   24.6561 N   0  0  0  0  0  0  0  0  0  0  0  0
    8.4662  -16.7989   24.5815 C   0  0  1  0  0  0  0  0  0  0  0  0
    7.2328  -16.9045   25.4213 C   0  0  0  0  0  0  0  0  0  0  0  0
    6.7416  -15.5473   25.7854 C   0  0  0  0  0  0  0  0  0  0  0  0
    5.4159  -15.1368   25.8432 C   0  0  0  0  0  0  0  0  0  0  0  0
    5.4286  -13.8607   26.2391 N   0  0  0  0  0  0  0  0  0  0  0  0
    6.6808  -13.4261   26.4388 C   0  0  0  0  0  0  0  0  0  0  0  0
    7.1781  -12.2060   26.8347 C   0  0  0  0  0  0  0  0  0  0  0  0
    8.5565  -12.0050   26.9592 C   0  0  0  0  0  0  0  0  0  0  0  0
    9.4271  -13.0363   26.6833 C   0  0  0  0  0  0  0  0  0  0  0  0
    8.8934  -14.2506   26.2877 C   0  0  0  0  0  0  0  0  0  0  0  0
    7.5323  -14.4809   26.1560 C   0  0  0  0  0  0  0  0  0  0  0  0
    8.1961  -17.1242   23.1542 C   0  0  0  0  0  0  0  0  0  0  0  0
    7.6095  -18.1899   22.8385 O   0  0  0  0  0  0  0  0  0  0  0  0
    7.7332  -11.4596   20.7803 C   0  0  0  0  0  0  0  0  0  0  0  0
    8.1902  -12.9418   19.8706 S   0  0  0  0  0  0  0  0  0  0  0  0
    7.4961  -14.4486   20.6564 C   0  0  0  0  0  0  0  0  0  0  0  0
    7.9206  -15.6776   19.9046 C   0  0  0  0  0  0  0  0  0  0  0  0
    8.6898  -16.6612   20.7182 C   0  0  2  0  0  0  0  0  0  0  0  0
    8.6056  -16.2232   22.1401 N   0  0  0  0  0  0  0  0  0  0  0  0
   10.0944  -16.8472   20.3855 C   0  0  0  0  0  0  0  0  0  0  0  0
   10.3780  -17.3332   19.2325 O   0  0  0  0  0  0  0  0  0  0  0  0
   12.3527  -14.1109   18.9568 N   0  0  0  0  0  0  0  0  0  0  0  0
   13.0329  -15.3445   19.0656 C   0  0  0  0  0  0  0  0  0  0  0  0
   13.2891  -15.9925   18.0278 O   0  0  0  0  0  0  0  0  0  0  0  0
   13.4316  -15.8563   20.3743 C   0  0  0  0  0  0  0  0  0  0  0  0
   12.5598  -16.9954   20.8571 C   0  0  2  0  0  0  0  0  0  0  0  0
   11.2211  -16.5558   21.1749 N   0  0  0  0  0  0  0  0  0  0  0  0
   13.1523  -17.5786   22.0871 C   0  0  0  0  0  0  0  0  0  0  0  0
   13.5740  -18.7580   22.1198 O   0  0  0  0  0  0  0  0  0  0  0  0
   13.2189  -16.7439   23.2177 O   0  0  0  0  0  0  0  0  0  0  0  0
  2  3  1  0
  2  1  1  6
  2 13  1  0
  3  4  1  0
  4 12  1  0
  4  5  2  0
  5  6  1  0
  7  6  1  0
  7  8  2  0
  9  8  1  0
 10  9  2  0
 11 12  2  0
 11 10  1  0
 12  7  1  0
 13 14  2  0
 16 15  1  0
 16 17  1  0
 19 18  1  6
 18 17  1  0
 19 21  1  0
 20 13  1  0
 20 19  1  0
 21 22  2  0
 23 24  1  0
 24 25  2  0
 24 26  1  0
 27 26  1  1
 27 29  1  0
 28 27  1  0
 28 21  1  0
 29 30  2  0
 29 31  1  0
M  END
$$$$
