WMN.pdb
     RDKit          3D

 31 32  0  0  1  0  0  0  0  0999 V2000
    6.3542  -18.0202   21.6928 N   0  0  0  0  0  0  0  0  0  0  0  0
    7.6447  -17.5305   22.0919 C   0  0  1  0  0  0  0  0  0  0  0  0
    8.3676  -16.8440   20.9767 C   0  0  0  0  0  0  0  0  0  0  0  0
    7.6085  -15.6419   20.5357 C   0  0  0  0  0  0  0  0  0  0  0  0
    6.2539  -15.4034   20.7298 C   0  0  0  0  0  0  0  0  0  0  0  0
    5.9995  -14.2007   20.2063 N   0  0  0  0  0  0  0  0  0  0  0  0
    7.1070  -13.6521   19.6875 C   0  0  0  0  0  0  0  0  0  0  0  0
    7.3265  -12.4534   19.0491 C   0  0  0  0  0  0  0  0  0  0  0  0
    8.6020  -12.1170   18.5842 C   0  0  0  0  0  0  0  0  0  0  0  0
    9.6503  -12.9921   18.7658 C   0  0  0  0  0  0  0  0  0  0  0  0
    9.3947  -14.1890   19.4121 C   0  0  0  0  0  0  0  0  0  0  0  0
    8.1423  -14.5504   19.8848 C   0  0  0  0  0  0  0  0  0  0  0  0
    7.4793  -16.6436   23.2759 C   0  0  0  0  0  0  0  0  0  0  0  0
    6.4830  -15.8840   23.3750 O   0  0  0  0  0  0  0  0  0  0  0  0
    6.7704  -11.3312   27.5005 C   0  0  0  0  0  0  0  0  0  0  0  0
    6.6835  -12.6578   26.2898 S   0  0  0  0  0  0  0  0  0  0  0  0
    7.3262  -14.2336   26.9780 C   0  0  0  0  0  0  0  0  0  0  0  0
    7.3141  -15.3094   25.9301 C   0  0  0  0  0  0  0  0  0  0  0  0
    8.6121  -15.4918   25.2208 C   0  0  2  0  0  0  0  0  0  0  0  0
    8.4562  -16.6549   24.3023 N   0  0  0  0  0  0  0  0  0  0  0  0
    9.7930  -15.7190   26.0406 C   0  0  0  0  0  0  0  0  0  0  0  0
    9.7876  -15.2613   27.2392 O   0  0  0  0  0  0  0  0  0  0  0  0
   10.7021  -20.0855   28.3302 N   0  0  0  0  0  0  0  0  0  0  0  0
   10.4948  -19.9031   26.9446 C   0  0  0  0  0  0  0  0  0  0  0  0
   10.6143  -20.8821   26.1766 O   0  0  0  0  0  0  0  0  0  0  0  0
   10.1455  -18.5870   26.4160 C   0  0  0  0  0  0  0  0  0  0  0  0
   11.3470  -17.6875   26.2209 C   0  0  2  0  0  0  0  0  0  0  0  0
   10.9760  -16.3951   25.6930 N   0  0  0  0  0  0  0  0  0  0  0  0
   12.2828  -18.3216   25.2585 C   0  0  0  0  0  0  0  0  0  0  0  0
   13.0259  -19.2736   25.5921 O   0  0  0  0  0  0  0  0  0  0  0  0
   12.2970  -17.8031   23.9506 O   0  0  0  0  0  0  0  0  0  0  0  0
  2  3  1  0
  2  1  1  6
  2 13  1  0
  3  4  1  0
  4 12  1  0
  4  5  2  0
  5  6  1  0
  7  6  1  0
  7  8  2  0
  9  8  1  0
 10  9  2  0
 11 12  2  0
 11 10  1  0
 12  7  1  0
 13 14  2  0
 16 15  1  0
 16 17  1  0
 19 18  1  1
 18 17  1  0
 19 21  1  0
 20 13  1  0
 20 19  1  0
 21 22  2  0
 23 24  1  0
 24 25  2  0
 24 26  1  0
 27 26  1  6
 27 29  1  0
 28 27  1  0
 28 21  1  0
 29 30  2  0
 29 31  1  0
M  END
$$$$
