WMN.pdb
     RDKit          3D

 31 32  0  0  1  0  0  0  0  0999 V2000
    6.9389  -18.4925   24.5291 N   0  0  0  0  0  0  0  0  0  0  0  0
    7.3231  -17.1543   24.1739 C   0  0  1  0  0  0  0  0  0  0  0  0
    8.1677  -16.5026   25.2224 C   0  0  0  0  0  0  0  0  0  0  0  0
    7.4523  -15.3345   25.8053 C   0  0  0  0  0  0  0  0  0  0  0  0
    6.1628  -15.3294   26.3215 C   0  0  0  0  0  0  0  0  0  0  0  0
    5.9336  -14.0893   26.7632 N   0  0  0  0  0  0  0  0  0  0  0  0
    6.9962  -13.2975   26.5620 C   0  0  0  0  0  0  0  0  0  0  0  0
    7.2179  -11.9685   26.8403 C   0  0  0  0  0  0  0  0  0  0  0  0
    8.4369  -11.3659   26.5132 C   0  0  0  0  0  0  0  0  0  0  0  0
    9.4268  -12.1074   25.9065 C   0  0  0  0  0  0  0  0  0  0  0  0
    9.1708  -13.4415   25.6410 C   0  0  0  0  0  0  0  0  0  0  0  0
    7.9736  -14.0673   25.9539 C   0  0  0  0  0  0  0  0  0  0  0  0
    8.0041  -17.1831   22.8505 C   0  0  0  0  0  0  0  0  0  0  0  0
    8.4633  -18.2576   22.3879 O   0  0  0  0  0  0  0  0  0  0  0  0
    8.1398  -11.7127   19.4434 C   0  0  0  0  0  0  0  0  0  0  0  0
    6.7513  -12.8239   19.1773 S   0  0  0  0  0  0  0  0  0  0  0  0
    7.0582  -14.4691   19.9315 C   0  0  0  0  0  0  0  0  0  0  0  0
    8.5311  -14.6964   20.1177 C   0  0  0  0  0  0  0  0  0  0  0  0
    8.8742  -15.9713   20.8092 C   0  0  2  0  0  0  0  0  0  0  0  0
    8.1371  -15.9858   22.1042 N   0  0  0  0  0  0  0  0  0  0  0  0
   10.2808  -16.2206   21.0874 C   0  0  0  0  0  0  0  0  0  0  0  0
   11.0860  -16.2886   20.0908 O   0  0  0  0  0  0  0  0  0  0  0  0
   13.3259  -14.3519   20.0526 N   0  0  0  0  0  0  0  0  0  0  0  0
   13.7111  -14.5087   21.4029 C   0  0  0  0  0  0  0  0  0  0  0  0
   14.9233  -14.4470   21.7017 O   0  0  0  0  0  0  0  0  0  0  0  0
   12.7055  -14.7402   22.4367 C   0  0  0  0  0  0  0  0  0  0  0  0
   12.3130  -16.1961   22.5679 C   0  0  2  0  0  0  0  0  0  0  0  0
   10.9018  -16.3995   22.3363 N   0  0  0  0  0  0  0  0  0  0  0  0
   12.6218  -16.6649   23.9422 C   0  0  0  0  0  0  0  0  0  0  0  0
   11.9280  -16.3207   24.9271 O   0  0  0  0  0  0  0  0  0  0  0  0
   13.7325  -17.5160   24.0886 O   0  0  0  0  0  0  0  0  0  0  0  0
  2  3  1  0
  2  1  1  1
  2 13  1  0
  3  4  1  0
  4 12  1  0
  4  5  2  0
  5  6  1  0
  7  6  1  0
  7  8  2  0
  9  8  1  0
 10  9  2  0
 11 12  2  0
 11 10  1  0
 12  7  1  0
 13 14  2  0
 16 15  1  0
 16 17  1  0
 19 18  1  1
 18 17  1  0
 19 21  1  0
 20 13  1  0
 20 19  1  0
 21 22  2  0
 23 24  1  0
 24 25  2  0
 24 26  1  0
 27 26  1  1
 27 29  1  0
 28 27  1  0
 28 21  1  0
 29 30  2  0
 29 31  1  0
M  END
$$$$
