WMN.pdb
     RDKit          3D

 31 32  0  0  1  0  0  0  0  0999 V2000
    7.0034  -17.3543   25.6590 N   0  0  0  0  0  0  0  0  0  0  0  0
    7.2880  -16.2225   24.8210 C   0  0  1  0  0  0  0  0  0  0  0  0
    8.5068  -15.4751   25.2609 C   0  0  0  0  0  0  0  0  0  0  0  0
    8.2122  -14.6909   26.4914 C   0  0  0  0  0  0  0  0  0  0  0  0
    8.6854  -14.9528   27.7707 C   0  0  0  0  0  0  0  0  0  0  0  0
    8.2026  -13.9894   28.5608 N   0  0  0  0  0  0  0  0  0  0  0  0
    7.4480  -13.1251   27.8678 C   0  0  0  0  0  0  0  0  0  0  0  0
    6.7520  -12.0015   28.2495 C   0  0  0  0  0  0  0  0  0  0  0  0
    6.0189  -11.2653   27.3131 C   0  0  0  0  0  0  0  0  0  0  0  0
    5.9915  -11.6667   25.9955 C   0  0  0  0  0  0  0  0  0  0  0  0
    6.7029  -12.8013   25.6457 C   0  0  0  0  0  0  0  0  0  0  0  0
    7.4393  -13.5511   26.5502 C   0  0  0  0  0  0  0  0  0  0  0  0
    7.3976  -16.6825   23.4095 C   0  0  0  0  0  0  0  0  0  0  0  0
    7.4940  -17.9059   23.1386 O   0  0  0  0  0  0  0  0  0  0  0  0
    8.6582  -12.5878   18.1135 C   0  0  0  0  0  0  0  0  0  0  0  0
    7.5272  -12.2853   19.4781 S   0  0  0  0  0  0  0  0  0  0  0  0
    7.6246  -13.6197   20.7350 C   0  0  0  0  0  0  0  0  0  0  0  0
    7.4804  -14.9662   20.0854 C   0  0  0  0  0  0  0  0  0  0  0  0
    7.7975  -16.1167   20.9780 C   0  0  2  0  0  0  0  0  0  0  0  0
    7.3940  -15.7308   22.3596 N   0  0  0  0  0  0  0  0  0  0  0  0
    9.1815  -16.5652   21.0205 C   0  0  0  0  0  0  0  0  0  0  0  0
    9.6446  -17.1783   19.9930 O   0  0  0  0  0  0  0  0  0  0  0  0
   14.6322  -16.2506   23.4289 N   0  0  0  0  0  0  0  0  0  0  0  0
   13.8378  -15.9886   22.2903 C   0  0  0  0  0  0  0  0  0  0  0  0
   14.3632  -16.0355   21.1570 O   0  0  0  0  0  0  0  0  0  0  0  0
   12.4204  -15.6669   22.4355 C   0  0  0  0  0  0  0  0  0  0  0  0
   11.5078  -16.7732   21.9517 C   0  0  2  0  0  0  0  0  0  0  0  0
   10.1136  -16.4123   22.0622 N   0  0  0  0  0  0  0  0  0  0  0  0
   11.7311  -17.9880   22.7752 C   0  0  0  0  0  0  0  0  0  0  0  0
   10.9706  -18.2895   23.7242 O   0  0  0  0  0  0  0  0  0  0  0  0
   12.8392  -18.7878   22.4404 O   0  0  0  0  0  0  0  0  0  0  0  0
  2  3  1  0
  2  1  1  1
  2 13  1  0
  3  4  1  0
  4 12  1  0
  4  5  2  0
  5  6  1  0
  7  6  1  0
  7  8  2  0
  9  8  1  0
 10  9  2  0
 11 12  2  0
 11 10  1  0
 12  7  1  0
 13 14  2  0
 16 15  1  0
 16 17  1  0
 19 18  1  6
 18 17  1  0
 19 21  1  0
 20 13  1  0
 20 19  1  0
 21 22  2  0
 23 24  1  0
 24 25  2  0
 24 26  1  0
 27 26  1  1
 27 29  1  0
 28 27  1  0
 28 21  1  0
 29 30  2  0
 29 31  1  0
M  END
$$$$
