VHP.pdb
     RDKit          3D

 25 26  0  0  1  0  0  0  0  0999 V2000
   24.2504  -17.4714  -19.3251 C   0  0  0  0  0  0  0  0  0  0  0  0
   24.4483  -18.6105  -18.3183 C   0  0  2  0  0  0  0  0  0  0  0  0
   23.3158  -18.5032  -17.3393 C   0  0  0  0  0  0  0  0  0  0  0  0
   25.8084  -18.3870  -17.7087 C   0  0  2  0  0  0  0  0  0  0  0  0
   26.7635  -18.5890  -18.8134 N   0  0  0  0  0  0  0  0  0  0  0  0
   26.1507  -19.3636  -16.6478 C   0  0  0  0  0  0  0  0  0  0  0  0
   26.4986  -20.5616  -16.9346 O   0  0  0  0  0  0  0  0  0  0  0  0
   26.1209  -19.0568  -15.2730 N   0  0  0  0  0  0  0  0  0  0  0  0
   26.3837  -20.1253  -14.2271 C   0  0  1  0  0  0  0  0  0  0  0  0
   27.1848  -19.3232  -13.2323 C   0  0  0  0  0  0  0  0  0  0  0  0
   27.4776  -19.8902  -11.9357 C   0  0  0  0  0  0  0  0  0  0  0  0
   28.4248  -20.7059  -11.3970 C   0  0  0  0  0  0  0  0  0  0  0  0
   28.2540  -20.8679  -10.0775 N   0  0  0  0  0  0  0  0  0  0  0  0
   27.1756  -20.1380   -9.7705 C   0  0  0  0  0  0  0  0  0  0  0  0
   26.6976  -19.5513  -10.8421 N   0  0  0  0  0  0  0  0  0  0  0  0
   25.0063  -20.3338  -13.6559 C   0  0  0  0  0  0  0  0  0  0  0  0
   24.2079  -19.3279  -13.7909 O   0  0  0  0  0  0  0  0  0  0  0  0
   24.4856  -21.4466  -13.0197 N   0  0  0  0  0  0  0  0  0  0  0  0
   25.0292  -22.7479  -12.6638 C   0  0  0  0  0  0  0  0  0  0  0  0
   23.8577  -23.6537  -13.0500 C   0  0  0  0  0  0  0  0  0  0  0  0
   22.7167  -22.9153  -12.4097 C   0  0  0  0  0  0  0  0  0  0  0  0
   23.0883  -21.4784  -12.5285 C   0  0  1  0  0  0  0  0  0  0  0  0
   22.9967  -20.7986  -11.2232 C   0  0  0  0  0  0  0  0  0  0  0  0
   24.0209  -20.4826  -10.5849 O   0  0  0  0  0  0  0  0  0  0  0  0
   21.7512  -20.5108  -10.7066 O   0  0  0  0  0  0  0  0  0  0  0  0
  2  3  1  1
  2  1  1  0
  4  2  1  0
  4  5  1  6
  6  7  2  0
  6  4  1  0
  8  6  1  0
  9 10  1  1
  9  8  1  0
 11 10  1  0
 11 15  1  0
 12 11  2  0
 13 12  1  0
 13 14  1  0
 14 15  2  0
 16  9  1  0
 17 16  2  0
 18 19  1  0
 18 16  1  0
 20 19  1  0
 21 22  1  0
 21 20  1  0
 22 18  1  0
 23 25  1  0
 22 23  1  1
 24 23  2  0
M  END
$$$$
