VHP.pdb
     RDKit          3D

 25 26  0  0  1  0  0  0  0  0999 V2000
   20.0834  -17.9306  -19.4385 C   0  0  0  0  0  0  0  0  0  0  0  0
   21.2363  -17.7102  -18.4522 C   0  0  2  0  0  0  0  0  0  0  0  0
   22.4492  -18.3286  -19.0835 C   0  0  0  0  0  0  0  0  0  0  0  0
   20.8090  -18.3727  -17.1677 C   0  0  2  0  0  0  0  0  0  0  0  0
   19.6600  -17.5819  -16.6901 N   0  0  0  0  0  0  0  0  0  0  0  0
   21.8426  -18.3311  -16.1065 C   0  0  0  0  0  0  0  0  0  0  0  0
   22.1167  -17.2443  -15.4881 O   0  0  0  0  0  0  0  0  0  0  0  0
   22.5867  -19.4579  -15.7044 N   0  0  0  0  0  0  0  0  0  0  0  0
   23.6900  -19.3381  -14.6687 C   0  0  1  0  0  0  0  0  0  0  0  0
   23.3035  -20.4669  -13.7460 C   0  0  0  0  0  0  0  0  0  0  0  0
   24.2091  -20.8628  -12.6917 C   0  0  0  0  0  0  0  0  0  0  0  0
   25.3641  -21.5754  -12.5872 C   0  0  0  0  0  0  0  0  0  0  0  0
   25.8363  -21.5820  -11.3327 N   0  0  0  0  0  0  0  0  0  0  0  0
   24.9631  -20.8564  -10.6248 C   0  0  0  0  0  0  0  0  0  0  0  0
   23.9960  -20.4200  -11.3965 N   0  0  0  0  0  0  0  0  0  0  0  0
   24.8948  -19.7745  -15.4592 C   0  0  0  0  0  0  0  0  0  0  0  0
   24.6382  -20.5850  -16.4312 O   0  0  0  0  0  0  0  0  0  0  0  0
   26.2224  -19.4232  -15.2904 N   0  0  0  0  0  0  0  0  0  0  0  0
   26.9314  -18.6111  -14.3142 C   0  0  0  0  0  0  0  0  0  0  0  0
   27.8761  -17.8332  -15.2332 C   0  0  0  0  0  0  0  0  0  0  0  0
   28.4150  -18.9497  -16.0819 C   0  0  0  0  0  0  0  0  0  0  0  0
   27.2763  -19.8995  -16.2163 C   0  0  1  0  0  0  0  0  0  0  0  0
   27.6844  -21.2694  -15.8544 C   0  0  0  0  0  0  0  0  0  0  0  0
   27.2591  -21.8190  -14.8183 O   0  0  0  0  0  0  0  0  0  0  0  0
   28.5528  -21.9479  -16.6830 O   0  0  0  0  0  0  0  0  0  0  0  0
  2  3  1  6
  2  1  1  0
  4  2  1  0
  4  5  1  1
  6  7  2  0
  6  4  1  0
  8  6  1  0
  9 10  1  1
  9  8  1  0
 11 10  1  0
 11 15  1  0
 12 11  2  0
 13 12  1  0
 13 14  1  0
 14 15  2  0
 16  9  1  0
 17 16  2  0
 18 19  1  0
 18 16  1  0
 20 19  1  0
 21 22  1  0
 21 20  1  0
 22 18  1  0
 23 25  1  0
 22 23  1  1
 24 23  2  0
M  END
$$$$
