VHP.pdb
     RDKit          3D

 25 26  0  0  1  0  0  0  0  0999 V2000
    8.8331  -25.4939   -2.8394 C   0  0  0  0  0  0  0  0  0  0  0  0
   10.0951  -24.6253   -2.7809 C   0  0  2  0  0  0  0  0  0  0  0  0
   11.0663  -25.2351   -3.7489 C   0  0  0  0  0  0  0  0  0  0  0  0
   10.5538  -24.6649   -1.3459 C   0  0  2  0  0  0  0  0  0  0  0  0
    9.4011  -24.1884   -0.5598 N   0  0  0  0  0  0  0  0  0  0  0  0
   11.6873  -23.7540   -1.0601 C   0  0  0  0  0  0  0  0  0  0  0  0
   12.7979  -23.8580   -1.6879 O   0  0  0  0  0  0  0  0  0  0  0  0
   11.6323  -22.7263   -0.0979 N   0  0  0  0  0  0  0  0  0  0  0  0
   12.8202  -21.8109    0.1378 C   0  0  1  0  0  0  0  0  0  0  0  0
   12.1341  -20.4699    0.0589 C   0  0  0  0  0  0  0  0  0  0  0  0
   11.9703  -19.8318   -1.2273 C   0  0  0  0  0  0  0  0  0  0  0  0
   12.2816  -20.1095   -2.5229 C   0  0  0  0  0  0  0  0  0  0  0  0
   11.8252  -19.1675   -3.3603 N   0  0  0  0  0  0  0  0  0  0  0  0
   11.2090  -18.2724   -2.5799 C   0  0  0  0  0  0  0  0  0  0  0  0
   11.2774  -18.6359   -1.3212 N   0  0  0  0  0  0  0  0  0  0  0  0
   13.1335  -22.0892    1.5839 C   0  0  0  0  0  0  0  0  0  0  0  0
   12.1460  -22.5614    2.2691 O   0  0  0  0  0  0  0  0  0  0  0  0
   14.3240  -21.9153    2.2672 N   0  0  0  0  0  0  0  0  0  0  0  0
   15.6659  -21.5235    1.8658 C   0  0  0  0  0  0  0  0  0  0  0  0
   16.5000  -22.5197    2.6744 C   0  0  0  0  0  0  0  0  0  0  0  0
   15.8562  -22.3847    4.0251 C   0  0  0  0  0  0  0  0  0  0  0  0
   14.4192  -22.1299    3.7299 C   0  0  1  0  0  0  0  0  0  0  0  0
   13.9352  -20.9363    4.4476 C   0  0  0  0  0  0  0  0  0  0  0  0
   13.7355  -19.8591    3.8509 O   0  0  0  0  0  0  0  0  0  0  0  0
   13.7017  -21.0220    5.8038 O   0  0  0  0  0  0  0  0  0  0  0  0
  2  3  1  6
  2  1  1  0
  4  2  1  0
  4  5  1  1
  6  7  2  0
  6  4  1  0
  8  6  1  0
  9 10  1  1
  9  8  1  0
 11 10  1  0
 11 15  1  0
 12 11  2  0
 13 12  1  0
 13 14  1  0
 14 15  2  0
 16  9  1  0
 17 16  2  0
 18 19  1  0
 18 16  1  0
 20 19  1  0
 21 22  1  0
 21 20  1  0
 22 18  1  0
 23 25  1  0
 22 23  1  1
 24 23  2  0
M  END
$$$$
