VHP.pdb
     RDKit          3D

 25 26  0  0  1  0  0  0  0  0999 V2000
   24.9393  -36.5816  -15.5111 C   0  0  0  0  0  0  0  0  0  0  0  0
   23.7395  -35.8843  -16.1628 C   0  0  2  0  0  0  0  0  0  0  0  0
   23.4639  -36.6309  -17.4352 C   0  0  0  0  0  0  0  0  0  0  0  0
   24.1612  -34.4526  -16.3716 C   0  0  2  0  0  0  0  0  0  0  0  0
   25.4007  -34.5282  -17.1663 N   0  0  0  0  0  0  0  0  0  0  0  0
   24.4886  -33.7411  -15.1135 C   0  0  0  0  0  0  0  0  0  0  0  0
   25.7023  -33.5544  -14.7522 O   0  0  0  0  0  0  0  0  0  0  0  0
   23.5125  -33.2263  -14.2375 N   0  0  0  0  0  0  0  0  0  0  0  0
   23.9067  -32.4117  -13.0187 C   0  0  1  0  0  0  0  0  0  0  0  0
   22.6447  -31.6087  -12.8241 C   0  0  0  0  0  0  0  0  0  0  0  0
   22.5432  -30.7091  -11.6978 C   0  0  0  0  0  0  0  0  0  0  0  0
   23.3522  -30.2798  -10.6909 C   0  0  0  0  0  0  0  0  0  0  0  0
   22.7523  -29.3571   -9.9258 N   0  0  0  0  0  0  0  0  0  0  0  0
   21.5360  -29.1952  -10.4590 C   0  0  0  0  0  0  0  0  0  0  0  0
   21.3839  -29.9763  -11.5021 N   0  0  0  0  0  0  0  0  0  0  0  0
   23.9540  -33.4710  -11.9500 C   0  0  0  0  0  0  0  0  0  0  0  0
   23.2888  -34.5436  -12.2231 O   0  0  0  0  0  0  0  0  0  0  0  0
   24.6115  -33.4527  -10.7326 N   0  0  0  0  0  0  0  0  0  0  0  0
   25.3960  -32.4507  -10.0285 C   0  0  0  0  0  0  0  0  0  0  0  0
   26.5490  -33.3135   -9.5109 C   0  0  0  0  0  0  0  0  0  0  0  0
   25.7873  -34.4730   -8.9342 C   0  0  0  0  0  0  0  0  0  0  0  0
   24.6075  -34.6268   -9.8292 C   0  0  1  0  0  0  0  0  0  0  0  0
   23.3548  -34.6612   -9.0522 C   0  0  0  0  0  0  0  0  0  0  0  0
   22.5225  -33.7347   -9.1248 O   0  0  0  0  0  0  0  0  0  0  0  0
   23.1074  -35.7420   -8.2326 O   0  0  0  0  0  0  0  0  0  0  0  0
  2  3  1  6
  2  1  1  0
  4  2  1  0
  4  5  1  6
  6  7  2  0
  6  4  1  0
  8  6  1  0
  9 10  1  1
  9  8  1  0
 11 10  1  0
 11 15  1  0
 12 11  2  0
 13 12  1  0
 13 14  1  0
 14 15  2  0
 16  9  1  0
 17 16  2  0
 18 19  1  0
 18 16  1  0
 20 19  1  0
 21 22  1  0
 21 20  1  0
 22 18  1  0
 23 25  1  0
 22 23  1  1
 24 23  2  0
M  END
$$$$
