VHP.pdb
     RDKit          3D

 25 26  0  0  1  0  0  0  0  0999 V2000
   19.6722  -22.7004  -14.4325 C   0  0  0  0  0  0  0  0  0  0  0  0
   19.5061  -21.1836  -14.5823 C   0  0  2  0  0  0  0  0  0  0  0  0
   18.0516  -20.9496  -14.8686 C   0  0  0  0  0  0  0  0  0  0  0  0
   20.4246  -20.7798  -15.7068 C   0  0  2  0  0  0  0  0  0  0  0  0
   20.0415  -21.6368  -16.8437 N   0  0  0  0  0  0  0  0  0  0  0  0
   21.8565  -21.0379  -15.4249 C   0  0  0  0  0  0  0  0  0  0  0  0
   22.3233  -22.2294  -15.3936 O   0  0  0  0  0  0  0  0  0  0  0  0
   22.7939  -20.0161  -15.1756 N   0  0  0  0  0  0  0  0  0  0  0  0
   24.2587  -20.3384  -14.9411 C   0  0  1  0  0  0  0  0  0  0  0  0
   24.8944  -19.1115  -15.5457 C   0  0  0  0  0  0  0  0  0  0  0  0
   26.3023  -18.8645  -15.3334 C   0  0  0  0  0  0  0  0  0  0  0  0
   27.3394  -19.4885  -14.7107 C   0  0  0  0  0  0  0  0  0  0  0  0
   28.4946  -18.8303  -14.8809 N   0  0  0  0  0  0  0  0  0  0  0  0
   28.1852  -17.7654  -15.6296 C   0  0  0  0  0  0  0  0  0  0  0  0
   26.9039  -17.7587  -15.9117 N   0  0  0  0  0  0  0  0  0  0  0  0
   24.3569  -20.2235  -13.4431 C   0  0  0  0  0  0  0  0  0  0  0  0
   23.4500  -19.4835  -12.8977 O   0  0  0  0  0  0  0  0  0  0  0  0
   25.2728  -20.8022  -12.5824 N   0  0  0  0  0  0  0  0  0  0  0  0
   26.4188  -21.6772  -12.7736 C   0  0  0  0  0  0  0  0  0  0  0  0
   26.2116  -22.6625  -11.6211 C   0  0  0  0  0  0  0  0  0  0  0  0
   25.9467  -21.7102  -10.4897 C   0  0  0  0  0  0  0  0  0  0  0  0
   25.2149  -20.5767  -11.1194 C   0  0  1  0  0  0  0  0  0  0  0  0
   25.8456  -19.2872  -10.7823 C   0  0  0  0  0  0  0  0  0  0  0  0
   26.5610  -18.6818  -11.6057 O   0  0  0  0  0  0  0  0  0  0  0  0
   25.6350  -18.7483   -9.5308 O   0  0  0  0  0  0  0  0  0  0  0  0
  2  3  1  6
  2  1  1  0
  4  2  1  0
  4  5  1  6
  6  7  2  0
  6  4  1  0
  8  6  1  0
  9 10  1  6
  9  8  1  0
 11 10  1  0
 11 15  1  0
 12 11  2  0
 13 12  1  0
 13 14  1  0
 14 15  2  0
 16  9  1  0
 17 16  2  0
 18 19  1  0
 18 16  1  0
 20 19  1  0
 21 22  1  0
 21 20  1  0
 22 18  1  0
 23 25  1  0
 22 23  1  6
 24 23  2  0
M  END
$$$$
