VHP.pdb
     RDKit          3D

 25 26  0  0  1  0  0  0  0  0999 V2000
   26.3309  -18.0526  -19.0451 C   0  0  0  0  0  0  0  0  0  0  0  0
   26.5795  -16.8144  -18.1759 C   0  0  2  0  0  0  0  0  0  0  0  0
   26.8514  -15.6853  -19.1264 C   0  0  0  0  0  0  0  0  0  0  0  0
   27.7472  -17.1637  -17.2895 C   0  0  2  0  0  0  0  0  0  0  0  0
   28.8432  -17.5072  -18.2138 N   0  0  0  0  0  0  0  0  0  0  0  0
   27.5076  -18.3487  -16.4322 C   0  0  0  0  0  0  0  0  0  0  0  0
   27.9002  -19.5147  -16.7856 O   0  0  0  0  0  0  0  0  0  0  0  0
   26.8450  -18.2859  -15.1905 N   0  0  0  0  0  0  0  0  0  0  0  0
   26.7063  -19.5180  -14.3146 C   0  0  1  0  0  0  0  0  0  0  0  0
   26.6343  -18.8645  -12.9570 C   0  0  0  0  0  0  0  0  0  0  0  0
   26.3129  -19.6677  -11.7995 C   0  0  0  0  0  0  0  0  0  0  0  0
   26.0765  -20.9816  -11.5344 C   0  0  0  0  0  0  0  0  0  0  0  0
   25.8827  -21.2013  -10.2264 N   0  0  0  0  0  0  0  0  0  0  0  0
   26.0000  -20.0009   -9.6473 C   0  0  0  0  0  0  0  0  0  0  0  0
   26.2532  -19.0797  -10.5465 N   0  0  0  0  0  0  0  0  0  0  0  0
   25.3241  -19.9920  -14.6771 C   0  0  0  0  0  0  0  0  0  0  0  0
   24.5419  -19.0738  -15.1381 O   0  0  0  0  0  0  0  0  0  0  0  0
   24.7879  -21.2646  -14.5899 N   0  0  0  0  0  0  0  0  0  0  0  0
   25.3231  -22.5559  -14.1880 C   0  0  0  0  0  0  0  0  0  0  0  0
   24.7219  -23.4552  -15.2705 C   0  0  0  0  0  0  0  0  0  0  0  0
   23.2925  -22.9930  -15.2491 C   0  0  0  0  0  0  0  0  0  0  0  0
   23.3751  -21.5386  -14.9410 C   0  0  1  0  0  0  0  0  0  0  0  0
   22.4967  -21.1867  -13.8102 C   0  0  0  0  0  0  0  0  0  0  0  0
   22.9651  -20.9247  -12.6840 O   0  0  0  0  0  0  0  0  0  0  0  0
   21.1331  -21.1491  -14.0109 O   0  0  0  0  0  0  0  0  0  0  0  0
  2  3  1  6
  2  1  1  0
  4  2  1  0
  4  5  1  6
  6  7  2  0
  6  4  1  0
  8  6  1  0
  9 10  1  1
  9  8  1  0
 11 10  1  0
 11 15  1  0
 12 11  2  0
 13 12  1  0
 13 14  1  0
 14 15  2  0
 16  9  1  0
 17 16  2  0
 18 19  1  0
 18 16  1  0
 20 19  1  0
 21 22  1  0
 21 20  1  0
 22 18  1  0
 23 25  1  0
 22 23  1  1
 24 23  2  0
M  END
$$$$
