VHP.pdb
     RDKit          3D

 25 26  0  0  1  0  0  0  0  0999 V2000
   30.4128  -18.1719  -19.5357 C   0  0  0  0  0  0  0  0  0  0  0  0
   29.3654  -17.6619  -18.5390 C   0  0  2  0  0  0  0  0  0  0  0  0
   30.1111  -17.3461  -17.2755 C   0  0  0  0  0  0  0  0  0  0  0  0
   28.3602  -18.7756  -18.3951 C   0  0  2  0  0  0  0  0  0  0  0  0
   27.7702  -18.9375  -19.7365 N   0  0  0  0  0  0  0  0  0  0  0  0
   27.2525  -18.4581  -17.4632 C   0  0  0  0  0  0  0  0  0  0  0  0
   26.6768  -17.3150  -17.4803 O   0  0  0  0  0  0  0  0  0  0  0  0
   26.7580  -19.3683  -16.5082 N   0  0  0  0  0  0  0  0  0  0  0  0
   25.6693  -18.9627  -15.5311 C   0  0  1  0  0  0  0  0  0  0  0  0
   24.5006  -18.8482  -16.4778 C   0  0  0  0  0  0  0  0  0  0  0  0
   23.1849  -18.5684  -15.9496 C   0  0  0  0  0  0  0  0  0  0  0  0
   22.5732  -17.5452  -15.2927 C   0  0  0  0  0  0  0  0  0  0  0  0
   21.2711  -17.7893  -15.0881 N   0  0  0  0  0  0  0  0  0  0  0  0
   21.0502  -18.9932  -15.6283 C   0  0  0  0  0  0  0  0  0  0  0  0
   22.1563  -19.4760  -16.1427 N   0  0  0  0  0  0  0  0  0  0  0  0
   25.4973  -20.2255  -14.7296 C   0  0  0  0  0  0  0  0  0  0  0  0
   25.6269  -21.3170  -15.4072 O   0  0  0  0  0  0  0  0  0  0  0  0
   25.2288  -20.3719  -13.3801 N   0  0  0  0  0  0  0  0  0  0  0  0
   25.0076  -19.4334  -12.2913 C   0  0  0  0  0  0  0  0  0  0  0  0
   25.8291  -20.0951  -11.1826 C   0  0  0  0  0  0  0  0  0  0  0  0
   25.3529  -21.5153  -11.2980 C   0  0  0  0  0  0  0  0  0  0  0  0
   25.1029  -21.7081  -12.7531 C   0  0  1  0  0  0  0  0  0  0  0  0
   23.7529  -22.2517  -12.9905 C   0  0  0  0  0  0  0  0  0  0  0  0
   22.8267  -21.5260  -13.4048 O   0  0  0  0  0  0  0  0  0  0  0  0
   23.5195  -23.5886  -12.7470 O   0  0  0  0  0  0  0  0  0  0  0  0
  2  3  1  1
  2  1  1  0
  4  2  1  0
  4  5  1  6
  6  7  2  0
  6  4  1  0
  8  6  1  0
  9 10  1  6
  9  8  1  0
 11 10  1  0
 11 15  1  0
 12 11  2  0
 13 12  1  0
 13 14  1  0
 14 15  2  0
 16  9  1  0
 17 16  2  0
 18 19  1  0
 18 16  1  0
 20 19  1  0
 21 22  1  0
 21 20  1  0
 22 18  1  0
 23 25  1  0
 22 23  1  1
 24 23  2  0
M  END
$$$$
