VHP.pdb
     RDKit          3D

 25 26  0  0  1  0  0  0  0  0999 V2000
   27.0352  -17.2967  -19.7566 C   0  0  0  0  0  0  0  0  0  0  0  0
   26.6325  -18.4573  -18.8394 C   0  0  2  0  0  0  0  0  0  0  0  0
   25.2183  -18.1842  -18.4177 C   0  0  0  0  0  0  0  0  0  0  0  0
   27.6235  -18.4453  -17.7041 C   0  0  2  0  0  0  0  0  0  0  0  0
   28.9185  -18.7889  -18.3195 N   0  0  0  0  0  0  0  0  0  0  0  0
   27.3469  -19.4646  -16.6644 C   0  0  0  0  0  0  0  0  0  0  0  0
   27.5406  -20.7102  -16.8870 O   0  0  0  0  0  0  0  0  0  0  0  0
   26.8610  -19.1498  -15.3800 N   0  0  0  0  0  0  0  0  0  0  0  0
   26.5381  -20.2419  -14.3762 C   0  0  1  0  0  0  0  0  0  0  0  0
   26.7403  -19.4803  -13.0901 C   0  0  0  0  0  0  0  0  0  0  0  0
   26.3419  -20.0833  -11.8387 C   0  0  0  0  0  0  0  0  0  0  0  0
   26.8772  -20.9514  -10.9373 C   0  0  0  0  0  0  0  0  0  0  0  0
   26.0766  -21.1289   -9.8771 N   0  0  0  0  0  0  0  0  0  0  0  0
   25.0097  -20.3555  -10.1090 C   0  0  0  0  0  0  0  0  0  0  0  0
   25.1372  -19.7283  -11.2542 N   0  0  0  0  0  0  0  0  0  0  0  0
   25.0574  -20.4166  -14.5861 C   0  0  0  0  0  0  0  0  0  0  0  0
   24.4509  -19.3743  -15.0480 O   0  0  0  0  0  0  0  0  0  0  0  0
   24.2703  -21.5317  -14.3597 N   0  0  0  0  0  0  0  0  0  0  0  0
   24.5398  -22.8652  -13.8454 C   0  0  0  0  0  0  0  0  0  0  0  0
   23.7140  -23.7104  -14.8179 C   0  0  0  0  0  0  0  0  0  0  0  0
   22.4163  -22.9535  -14.8063 C   0  0  0  0  0  0  0  0  0  0  0  0
   22.8168  -21.5284  -14.6460 C   0  0  1  0  0  0  0  0  0  0  0  0
   22.0849  -20.8950  -13.5337 C   0  0  0  0  0  0  0  0  0  0  0  0
   22.6468  -20.6450  -12.4483 O   0  0  0  0  0  0  0  0  0  0  0  0
   20.7544  -20.5765  -13.7059 O   0  0  0  0  0  0  0  0  0  0  0  0
  2  3  1  1
  2  1  1  0
  4  2  1  0
  4  5  1  6
  6  7  2  0
  6  4  1  0
  8  6  1  0
  9 10  1  1
  9  8  1  0
 11 10  1  0
 11 15  1  0
 12 11  2  0
 13 12  1  0
 13 14  1  0
 14 15  2  0
 16  9  1  0
 17 16  2  0
 18 19  1  0
 18 16  1  0
 20 19  1  0
 21 22  1  0
 21 20  1  0
 22 18  1  0
 23 25  1  0
 22 23  1  1
 24 23  2  0
M  END
$$$$
