VHP.pdb
     RDKit          3D

 25 26  0  0  1  0  0  0  0  0999 V2000
   26.8705  -23.2919  -18.6954 C   0  0  0  0  0  0  0  0  0  0  0  0
   26.6928  -22.1241  -17.7180 C   0  0  2  0  0  0  0  0  0  0  0  0
   27.5070  -22.4678  -16.5051 C   0  0  0  0  0  0  0  0  0  0  0  0
   25.2116  -22.0313  -17.4555 C   0  0  2  0  0  0  0  0  0  0  0  0
   24.6183  -21.6144  -18.7392 N   0  0  0  0  0  0  0  0  0  0  0  0
   24.8506  -21.0038  -16.4503 C   0  0  0  0  0  0  0  0  0  0  0  0
   25.4022  -19.8487  -16.4533 O   0  0  0  0  0  0  0  0  0  0  0  0
   23.8944  -21.2131  -15.4370 N   0  0  0  0  0  0  0  0  0  0  0  0
   23.5784  -20.1280  -14.4234 C   0  0  1  0  0  0  0  0  0  0  0  0
   22.2052  -19.7221  -14.8974 C   0  0  0  0  0  0  0  0  0  0  0  0
   22.0767  -18.6757  -15.8858 C   0  0  0  0  0  0  0  0  0  0  0  0
   22.9127  -17.8748  -16.6016 C   0  0  0  0  0  0  0  0  0  0  0  0
   22.2432  -17.0922  -17.4595 N   0  0  0  0  0  0  0  0  0  0  0  0
   20.9536  -17.4037  -17.2862 C   0  0  0  0  0  0  0  0  0  0  0  0
   20.8244  -18.3317  -16.3679 N   0  0  0  0  0  0  0  0  0  0  0  0
   23.4163  -20.9323  -13.1609 C   0  0  0  0  0  0  0  0  0  0  0  0
   22.9340  -22.1176  -13.3340 O   0  0  0  0  0  0  0  0  0  0  0  0
   23.7170  -20.5789  -11.8574 N   0  0  0  0  0  0  0  0  0  0  0  0
   24.3628  -19.4250  -11.2518 C   0  0  0  0  0  0  0  0  0  0  0  0
   25.2538  -20.1161  -10.2172 C   0  0  0  0  0  0  0  0  0  0  0  0
   24.2680  -21.0637   -9.5948 C   0  0  0  0  0  0  0  0  0  0  0  0
   23.3674  -21.4540  -10.7144 C   0  0  1  0  0  0  0  0  0  0  0  0
   21.9524  -21.2624  -10.3466 C   0  0  0  0  0  0  0  0  0  0  0  0
   21.2788  -20.3299  -10.8293 O   0  0  0  0  0  0  0  0  0  0  0  0
   21.3714  -22.1356   -9.4515 O   0  0  0  0  0  0  0  0  0  0  0  0
  2  3  1  1
  2  1  1  0
  4  2  1  0
  4  5  1  6
  6  7  2  0
  6  4  1  0
  8  6  1  0
  9 10  1  6
  9  8  1  0
 11 10  1  0
 11 15  1  0
 12 11  2  0
 13 12  1  0
 13 14  1  0
 14 15  2  0
 16  9  1  0
 17 16  2  0
 18 19  1  0
 18 16  1  0
 20 19  1  0
 21 22  1  0
 21 20  1  0
 22 18  1  0
 23 25  1  0
 22 23  1  1
 24 23  2  0
M  END
$$$$
