YGN.pdb
     RDKit          3D

 25 25  0  0  1  0  0  0  0  0999 V2000
   20.7180  -17.1298  -25.3733 O   0  0  0  0  0  0  0  0  0  0  0  0
   21.4173  -17.4734  -24.2012 C   0  0  0  0  0  0  0  0  0  0  0  0
   22.4327  -16.6578  -23.7453 C   0  0  0  0  0  0  0  0  0  0  0  0
   23.0909  -17.0252  -22.6005 C   0  0  0  0  0  0  0  0  0  0  0  0
   22.7989  -18.1581  -21.8801 C   0  0  0  0  0  0  0  0  0  0  0  0
   23.5159  -18.5508  -20.6389 C   0  0  0  0  0  0  0  0  0  0  0  0
   22.6934  -18.0537  -19.4682 C   0  0  2  0  0  0  0  0  0  0  0  0
   22.8990  -16.6292  -19.3595 N   0  0  0  0  0  0  0  0  0  0  0  0
   23.1346  -18.7018  -18.1958 C   0  0  0  0  0  0  0  0  0  0  0  0
   23.1112  -19.9533  -18.0757 O   0  0  0  0  0  0  0  0  0  0  0  0
   21.7654  -18.9597  -22.3711 C   0  0  0  0  0  0  0  0  0  0  0  0
   21.0891  -18.6129  -23.5184 C   0  0  0  0  0  0  0  0  0  0  0  0
   23.5911  -17.9397  -17.0878 N   0  0  0  0  0  0  0  0  0  0  0  0
   23.9808  -18.6112  -15.8845 C   0  0  0  0  0  0  0  0  0  0  0  0
   22.9096  -19.2569  -15.1340 C   0  0  0  0  0  0  0  0  0  0  0  0
   23.1942  -19.8692  -14.0450 O   0  0  0  0  0  0  0  0  0  0  0  0
   20.7074  -18.9693  -12.1542 N   0  0  0  0  0  0  0  0  0  0  0  0
   19.6115  -18.5006  -12.9749 C   0  0  0  0  0  0  0  0  0  0  0  0
   18.8443  -17.6677  -12.4762 O   0  0  0  0  0  0  0  0  0  0  0  0
   19.5055  -19.0501  -14.3193 C   0  0  0  0  0  0  0  0  0  0  0  0
   20.5463  -20.0798  -14.6926 C   0  0  2  0  0  0  0  0  0  0  0  0
   21.5423  -19.2956  -15.4672 N   0  0  0  0  0  0  0  0  0  0  0  0
   19.9208  -21.0826  -15.5828 C   0  0  0  0  0  0  0  0  0  0  0  0
   20.1885  -21.0355  -16.8034 O   0  0  0  0  0  0  0  0  0  0  0  0
   19.0702  -22.0497  -15.1227 O   0  0  0  0  0  0  0  0  0  0  0  0
  2  1  1  0
  3  2  2  0
  4  5  2  0
  4  3  1  0
  5 11  1  0
  6  5  1  0
  7  6  1  0
  7  8  1  1
  9 13  1  0
  9  7  1  0
 10  9  2  0
 11 12  2  0
 12  2  1  0
 14 15  1  0
 14 13  1  0
 15 16  2  0
 18 17  1  0
 18 20  1  0
 19 18  2  0
 21 20  1  6
 22 21  1  0
 22 15  1  0
 23 25  1  0
 23 21  1  0
 24 23  2  0
M  END
$$$$
