YGN.pdb
     RDKit          3D

 25 25  0  0  1  0  0  0  0  0999 V2000
   25.8141  -17.9174  -23.2696 O   0  0  0  0  0  0  0  0  0  0  0  0
   25.6454  -18.2749  -21.9188 C   0  0  0  0  0  0  0  0  0  0  0  0
   26.7523  -18.5083  -21.1285 C   0  0  0  0  0  0  0  0  0  0  0  0
   26.5483  -18.8545  -19.8180 C   0  0  0  0  0  0  0  0  0  0  0  0
   25.3061  -18.9826  -19.2450 C   0  0  0  0  0  0  0  0  0  0  0  0
   25.0913  -19.3576  -17.8230 C   0  0  0  0  0  0  0  0  0  0  0  0
   24.4208  -18.1814  -17.1442 C   0  0  2  0  0  0  0  0  0  0  0  0
   25.3618  -17.0871  -17.1293 N   0  0  0  0  0  0  0  0  0  0  0  0
   24.0540  -18.5195  -15.7354 C   0  0  0  0  0  0  0  0  0  0  0  0
   24.5988  -17.9210  -14.7730 O   0  0  0  0  0  0  0  0  0  0  0  0
   24.2089  -18.7388  -20.0747 C   0  0  0  0  0  0  0  0  0  0  0  0
   24.3870  -18.3899  -21.3940 C   0  0  0  0  0  0  0  0  0  0  0  0
   23.0889  -19.5165  -15.4328 N   0  0  0  0  0  0  0  0  0  0  0  0
   22.6510  -19.6845  -14.0799 C   0  0  0  0  0  0  0  0  0  0  0  0
   21.5740  -20.6451  -13.8683 C   0  0  0  0  0  0  0  0  0  0  0  0
   20.9894  -21.1590  -14.8862 O   0  0  0  0  0  0  0  0  0  0  0  0
   19.0252  -23.8535   -9.2431 N   0  0  0  0  0  0  0  0  0  0  0  0
   19.0661  -23.5134  -10.6491 C   0  0  0  0  0  0  0  0  0  0  0  0
   18.3038  -24.1289  -11.4047 O   0  0  0  0  0  0  0  0  0  0  0  0
   20.0024  -22.4744  -11.0547 C   0  0  0  0  0  0  0  0  0  0  0  0
   20.0186  -22.1430  -12.5287 C   0  0  2  0  0  0  0  0  0  0  0  0
   21.0718  -21.1006  -12.6344 N   0  0  0  0  0  0  0  0  0  0  0  0
   18.7128  -21.5512  -12.8944 C   0  0  0  0  0  0  0  0  0  0  0  0
   18.4677  -20.3847  -12.5161 O   0  0  0  0  0  0  0  0  0  0  0  0
   17.7745  -22.2271  -13.6247 O   0  0  0  0  0  0  0  0  0  0  0  0
  2  1  1  0
  3  2  2  0
  4  5  2  0
  4  3  1  0
  5 11  1  0
  6  5  1  0
  7  6  1  0
  7  8  1  1
  9 13  1  0
  9  7  1  0
 10  9  2  0
 11 12  2  0
 12  2  1  0
 14 15  1  0
 14 13  1  0
 15 16  2  0
 18 17  1  0
 18 20  1  0
 19 18  2  0
 21 20  1  1
 22 21  1  0
 22 15  1  0
 23 25  1  0
 23 21  1  0
 24 23  2  0
M  END
$$$$
