YGN.pdb
     RDKit          3D

 25 25  0  0  1  0  0  0  0  0999 V2000
   26.7854  -20.5243   -7.3833 O   0  0  0  0  0  0  0  0  0  0  0  0
   26.5076  -20.5377   -8.7630 C   0  0  0  0  0  0  0  0  0  0  0  0
   27.0826  -21.4995   -9.5683 C   0  0  0  0  0  0  0  0  0  0  0  0
   26.7884  -21.4805  -10.9070 C   0  0  0  0  0  0  0  0  0  0  0  0
   25.9544  -20.5599  -11.4940 C   0  0  0  0  0  0  0  0  0  0  0  0
   25.6387  -20.5449  -12.9463 C   0  0  0  0  0  0  0  0  0  0  0  0
   26.6256  -21.4679  -13.6304 C   0  0  2  0  0  0  0  0  0  0  0  0
   27.8379  -20.7202  -13.8644 N   0  0  0  0  0  0  0  0  0  0  0  0
   26.0899  -21.9389  -14.9438 C   0  0  0  0  0  0  0  0  0  0  0  0
   25.9817  -21.1429  -15.9111 O   0  0  0  0  0  0  0  0  0  0  0  0
   25.3905  -19.6015  -10.6484 C   0  0  0  0  0  0  0  0  0  0  0  0
   25.6699  -19.5989   -9.3009 C   0  0  0  0  0  0  0  0  0  0  0  0
   25.6876  -23.2856  -15.1474 N   0  0  0  0  0  0  0  0  0  0  0  0
   24.5640  -23.5645  -15.9902 C   0  0  0  0  0  0  0  0  0  0  0  0
   23.2527  -23.2397  -15.4402 C   0  0  0  0  0  0  0  0  0  0  0  0
   22.6663  -24.0922  -14.6842 O   0  0  0  0  0  0  0  0  0  0  0  0
   23.3050  -20.2753  -12.8253 N   0  0  0  0  0  0  0  0  0  0  0  0
   21.9508  -20.7676  -12.9584 C   0  0  0  0  0  0  0  0  0  0  0  0
   21.4387  -21.2973  -11.9643 O   0  0  0  0  0  0  0  0  0  0  0  0
   21.3057  -20.5971  -14.2528 C   0  0  0  0  0  0  0  0  0  0  0  0
   21.1551  -21.8508  -15.0825 C   0  0  2  0  0  0  0  0  0  0  0  0
   22.5156  -22.0574  -15.6421 N   0  0  0  0  0  0  0  0  0  0  0  0
   20.2127  -21.5747  -16.1892 C   0  0  0  0  0  0  0  0  0  0  0  0
   20.6839  -21.3956  -17.3337 O   0  0  0  0  0  0  0  0  0  0  0  0
   18.8587  -21.5101  -16.0072 O   0  0  0  0  0  0  0  0  0  0  0  0
  2  1  1  0
  3  2  2  0
  4  5  2  0
  4  3  1  0
  5 11  1  0
  6  5  1  0
  7  6  1  0
  7  8  1  6
  9 13  1  0
  9  7  1  0
 10  9  2  0
 11 12  2  0
 12  2  1  0
 14 15  1  0
 14 13  1  0
 15 16  2  0
 18 17  1  0
 18 20  1  0
 19 18  2  0
 21 20  1  1
 22 21  1  0
 22 15  1  0
 23 25  1  0
 23 21  1  0
 24 23  2  0
M  END
$$$$
