YGN.pdb
     RDKit          3D

 25 25  0  0  1  0  0  0  0  0999 V2000
   20.1347    4.7385  -16.7470 O   0  0  0  0  0  0  0  0  0  0  0  0
   20.4024    3.4361  -17.2085 C   0  0  0  0  0  0  0  0  0  0  0  0
   19.7532    2.9593  -18.3290 C   0  0  0  0  0  0  0  0  0  0  0  0
   20.0399    1.6861  -18.7481 C   0  0  0  0  0  0  0  0  0  0  0  0
   20.9359    0.8568  -18.1180 C   0  0  0  0  0  0  0  0  0  0  0  0
   21.2430   -0.5228  -18.5779 C   0  0  0  0  0  0  0  0  0  0  0  0
   20.2667   -1.4539  -17.8895 C   0  0  2  0  0  0  0  0  0  0  0  0
   19.2374   -0.6429  -17.2845 N   0  0  0  0  0  0  0  0  0  0  0  0
   20.9494   -2.2422  -16.8188 C   0  0  0  0  0  0  0  0  0  0  0  0
   20.9404   -1.8412  -15.6271 O   0  0  0  0  0  0  0  0  0  0  0  0
   21.5741    1.3727  -16.9875 C   0  0  0  0  0  0  0  0  0  0  0  0
   21.3037    2.6478  -16.5462 C   0  0  0  0  0  0  0  0  0  0  0  0
   21.6258   -3.4585  -17.1020 N   0  0  0  0  0  0  0  0  0  0  0  0
   22.1235   -4.2550  -16.0212 C   0  0  0  0  0  0  0  0  0  0  0  0
   21.2250   -5.2881  -15.5182 C   0  0  0  0  0  0  0  0  0  0  0  0
   20.0233   -4.9702  -15.2069 O   0  0  0  0  0  0  0  0  0  0  0  0
   18.6314   -9.6177  -15.4374 N   0  0  0  0  0  0  0  0  0  0  0  0
   19.9985   -9.9306  -15.7942 C   0  0  0  0  0  0  0  0  0  0  0  0
   20.2055  -11.0144  -16.3540 O   0  0  0  0  0  0  0  0  0  0  0  0
   21.0149   -8.9416  -15.4632 C   0  0  0  0  0  0  0  0  0  0  0  0
   20.5043   -7.6416  -14.8868 C   0  0  2  0  0  0  0  0  0  0  0  0
   21.5215   -6.6504  -15.3222 N   0  0  0  0  0  0  0  0  0  0  0  0
   20.5236   -7.7393  -13.4106 C   0  0  0  0  0  0  0  0  0  0  0  0
   21.5949   -7.4862  -12.8172 O   0  0  0  0  0  0  0  0  0  0  0  0
   19.4227   -8.0917  -12.6796 O   0  0  0  0  0  0  0  0  0  0  0  0
  2  1  1  0
  3  2  2  0
  4  5  2  0
  4  3  1  0
  5 11  1  0
  6  5  1  0
  7  6  1  0
  7  8  1  1
  9 13  1  0
  9  7  1  0
 10  9  2  0
 11 12  2  0
 12  2  1  0
 14 15  1  0
 14 13  1  0
 15 16  2  0
 18 17  1  0
 18 20  1  0
 19 18  2  0
 21 20  1  6
 22 21  1  0
 22 15  1  0
 23 25  1  0
 23 21  1  0
 24 23  2  0
M  END
$$$$
