YGN.pdb
     RDKit          3D

 25 25  0  0  1  0  0  0  0  0999 V2000
   28.6169  -19.8062   -4.9933 O   0  0  0  0  0  0  0  0  0  0  0  0
   28.4114  -19.9018   -6.3824 C   0  0  0  0  0  0  0  0  0  0  0  0
   27.1429  -20.1360   -6.8728 C   0  0  0  0  0  0  0  0  0  0  0  0
   26.9820  -20.2228   -8.2312 C   0  0  0  0  0  0  0  0  0  0  0  0
   28.0096  -20.0901   -9.1334 C   0  0  0  0  0  0  0  0  0  0  0  0
   27.8286  -20.1845  -10.6056 C   0  0  0  0  0  0  0  0  0  0  0  0
   26.6232  -21.0671  -10.8546 C   0  0  2  0  0  0  0  0  0  0  0  0
   27.0421  -22.4391  -10.6953 N   0  0  0  0  0  0  0  0  0  0  0  0
   26.1061  -20.8803  -12.2444 C   0  0  0  0  0  0  0  0  0  0  0  0
   26.7735  -21.2792  -13.2325 O   0  0  0  0  0  0  0  0  0  0  0  0
   29.2795  -19.8538   -8.6013 C   0  0  0  0  0  0  0  0  0  0  0  0
   29.4675  -19.7625   -7.2411 C   0  0  0  0  0  0  0  0  0  0  0  0
   24.8575  -20.2533  -12.4995 N   0  0  0  0  0  0  0  0  0  0  0  0
   24.4206  -20.0801  -13.8521 C   0  0  0  0  0  0  0  0  0  0  0  0
   23.0962  -19.4951  -14.0289 C   0  0  0  0  0  0  0  0  0  0  0  0
   22.3601  -19.2980  -12.9986 O   0  0  0  0  0  0  0  0  0  0  0  0
   18.9481  -18.0865  -18.1595 N   0  0  0  0  0  0  0  0  0  0  0  0
   19.7114  -17.4858  -17.0869 C   0  0  0  0  0  0  0  0  0  0  0  0
   19.2335  -16.4828  -16.5423 O   0  0  0  0  0  0  0  0  0  0  0  0
   20.9785  -18.1142  -16.7399 C   0  0  0  0  0  0  0  0  0  0  0  0
   21.0860  -18.6414  -15.3280 C   0  0  2  0  0  0  0  0  0  0  0  0
   22.4957  -19.1014  -15.2400 N   0  0  0  0  0  0  0  0  0  0  0  0
   20.1861  -19.8076  -15.1892 C   0  0  0  0  0  0  0  0  0  0  0  0
   20.5959  -20.9191  -15.5898 O   0  0  0  0  0  0  0  0  0  0  0  0
   18.9357  -19.7144  -14.6431 O   0  0  0  0  0  0  0  0  0  0  0  0
  2  1  1  0
  3  2  2  0
  4  5  2  0
  4  3  1  0
  5 11  1  0
  6  5  1  0
  7  6  1  0
  7  8  1  6
  9 13  1  0
  9  7  1  0
 10  9  2  0
 11 12  2  0
 12  2  1  0
 14 15  1  0
 14 13  1  0
 15 16  2  0
 18 17  1  0
 18 20  1  0
 19 18  2  0
 21 20  1  6
 22 21  1  0
 22 15  1  0
 23 25  1  0
 23 21  1  0
 24 23  2  0
M  END
$$$$
