YGN.pdb
     RDKit          3D

 25 25  0  0  1  0  0  0  0  0999 V2000
   26.3250  -16.1695  -22.0991 O   0  0  0  0  0  0  0  0  0  0  0  0
   25.8246  -14.8628  -21.9469 C   0  0  0  0  0  0  0  0  0  0  0  0
   26.0716  -13.9169  -22.9208 C   0  0  0  0  0  0  0  0  0  0  0  0
   25.5681  -12.6552  -22.7375 C   0  0  0  0  0  0  0  0  0  0  0  0
   24.8316  -12.2772  -21.6410 C   0  0  0  0  0  0  0  0  0  0  0  0
   24.2876  -10.9075  -21.4484 C   0  0  0  0  0  0  0  0  0  0  0  0
   25.4349  -10.0274  -20.9978 C   0  0  2  0  0  0  0  0  0  0  0  0
   25.7505  -10.3798  -19.6341 N   0  0  0  0  0  0  0  0  0  0  0  0
   25.0478   -8.5847  -21.0446 C   0  0  0  0  0  0  0  0  0  0  0  0
   24.6978   -8.0528  -22.1288 O   0  0  0  0  0  0  0  0  0  0  0  0
   24.6013  -13.2606  -20.6759 C   0  0  0  0  0  0  0  0  0  0  0  0
   25.0960  -14.5347  -20.8362 C   0  0  0  0  0  0  0  0  0  0  0  0
   25.0602   -7.7692  -19.8818 N   0  0  0  0  0  0  0  0  0  0  0  0
   24.6355   -6.4049  -19.9746 C   0  0  0  0  0  0  0  0  0  0  0  0
   23.2405   -6.1425  -19.6389 C   0  0  0  0  0  0  0  0  0  0  0  0
   22.8070   -4.9373  -19.6779 O   0  0  0  0  0  0  0  0  0  0  0  0
   18.1602   -6.7171  -18.3115 N   0  0  0  0  0  0  0  0  0  0  0  0
   18.7188   -8.0023  -18.6725 C   0  0  0  0  0  0  0  0  0  0  0  0
   17.9630   -8.9811  -18.6341 O   0  0  0  0  0  0  0  0  0  0  0  0
   20.1248   -8.0334  -19.0507 C   0  0  0  0  0  0  0  0  0  0  0  0
   20.8571   -6.7144  -18.9685 C   0  0  2  0  0  0  0  0  0  0  0  0
   22.2657   -7.0852  -19.2607 N   0  0  0  0  0  0  0  0  0  0  0  0
   20.7670   -6.2097  -17.5806 C   0  0  0  0  0  0  0  0  0  0  0  0
   19.7250   -5.6089  -17.2384 O   0  0  0  0  0  0  0  0  0  0  0  0
   21.7719   -6.3761  -16.6678 O   0  0  0  0  0  0  0  0  0  0  0  0
  2  1  1  0
  3  2  2  0
  4  5  2  0
  4  3  1  0
  5 11  1  0
  6  5  1  0
  7  6  1  0
  7  8  1  1
  9 13  1  0
  9  7  1  0
 10  9  2  0
 11 12  2  0
 12  2  1  0
 14 15  1  0
 14 13  1  0
 15 16  2  0
 18 17  1  0
 18 20  1  0
 19 18  2  0
 21 20  1  1
 22 21  1  0
 22 15  1  0
 23 25  1  0
 23 21  1  0
 24 23  2  0
M  END
$$$$
