YGN.pdb
     RDKit          3D

 25 25  0  0  1  0  0  0  0  0999 V2000
   17.1554  -13.4879  -17.4418 O   0  0  0  0  0  0  0  0  0  0  0  0
   17.8320  -12.5206  -16.6753 C   0  0  0  0  0  0  0  0  0  0  0  0
   17.8325  -11.2020  -17.0820 C   0  0  0  0  0  0  0  0  0  0  0  0
   18.5023  -10.2887  -16.3099 C   0  0  0  0  0  0  0  0  0  0  0  0
   19.1732  -10.6092  -15.1545 C   0  0  0  0  0  0  0  0  0  0  0  0
   19.8972   -9.6141  -14.3211 C   0  0  0  0  0  0  0  0  0  0  0  0
   21.0981   -9.1489  -15.1181 C   0  0  2  0  0  0  0  0  0  0  0  0
   21.9721  -10.2831  -15.2993 N   0  0  0  0  0  0  0  0  0  0  0  0
   21.8420   -8.0810  -14.3833 C   0  0  0  0  0  0  0  0  0  0  0  0
   22.8265   -8.3730  -13.6576 O   0  0  0  0  0  0  0  0  0  0  0  0
   19.1514  -11.9531  -14.7736 C   0  0  0  0  0  0  0  0  0  0  0  0
   18.4862  -12.8895  -15.5316 C   0  0  0  0  0  0  0  0  0  0  0  0
   21.4708   -6.7132  -14.4748 N   0  0  0  0  0  0  0  0  0  0  0  0
   22.2726   -5.7214  -13.8237 C   0  0  0  0  0  0  0  0  0  0  0  0
   21.8674   -4.3347  -14.0250 C   0  0  0  0  0  0  0  0  0  0  0  0
   22.5005   -3.4057  -13.4102 O   0  0  0  0  0  0  0  0  0  0  0  0
   22.4479   -2.4153  -16.9736 N   0  0  0  0  0  0  0  0  0  0  0  0
   21.0802   -2.3266  -17.4380 C   0  0  0  0  0  0  0  0  0  0  0  0
   20.8982   -2.2675  -18.6605 O   0  0  0  0  0  0  0  0  0  0  0  0
   20.0338   -2.3143  -16.4254 C   0  0  0  0  0  0  0  0  0  0  0  0
   20.5034   -2.4218  -14.9933 C   0  0  2  0  0  0  0  0  0  0  0  0
   20.8235   -3.8648  -14.8446 N   0  0  0  0  0  0  0  0  0  0  0  0
   19.3748   -2.0813  -14.0991 C   0  0  0  0  0  0  0  0  0  0  0  0
   19.0046   -0.8880  -14.0456 O   0  0  0  0  0  0  0  0  0  0  0  0
   18.7282   -3.0156  -13.3378 O   0  0  0  0  0  0  0  0  0  0  0  0
  2  1  1  0
  3  2  2  0
  4  5  2  0
  4  3  1  0
  5 11  1  0
  6  5  1  0
  7  6  1  0
  7  8  1  1
  9 13  1  0
  9  7  1  0
 10  9  2  0
 11 12  2  0
 12  2  1  0
 14 15  1  0
 14 13  1  0
 15 16  2  0
 18 17  1  0
 18 20  1  0
 19 18  2  0
 21 20  1  6
 22 21  1  0
 22 15  1  0
 23 25  1  0
 23 21  1  0
 24 23  2  0
M  END
$$$$
