YGN.pdb
     RDKit          3D

 25 25  0  0  1  0  0  0  0  0999 V2000
   31.0239  -22.3694   -9.5513 O   0  0  0  0  0  0  0  0  0  0  0  0
   30.1431  -21.6405  -10.3723 C   0  0  0  0  0  0  0  0  0  0  0  0
   30.5922  -21.1253  -11.5711 C   0  0  0  0  0  0  0  0  0  0  0  0
   29.7054  -20.4211  -12.3435 C   0  0  0  0  0  0  0  0  0  0  0  0
   28.3955  -20.1982  -11.9941 C   0  0  0  0  0  0  0  0  0  0  0  0
   27.4384  -19.4342  -12.8364 C   0  0  0  0  0  0  0  0  0  0  0  0
   26.4331  -20.4248  -13.3858 C   0  0  2  0  0  0  0  0  0  0  0  0
   27.1230  -21.2767  -14.3248 N   0  0  0  0  0  0  0  0  0  0  0  0
   25.3269  -19.7181  -14.1003 C   0  0  0  0  0  0  0  0  0  0  0  0
   24.6865  -18.7970  -13.5324 O   0  0  0  0  0  0  0  0  0  0  0  0
   27.9760  -20.7343  -10.7742 C   0  0  0  0  0  0  0  0  0  0  0  0
   28.8468  -21.4452   -9.9803 C   0  0  0  0  0  0  0  0  0  0  0  0
   24.9608  -20.0549  -15.4306 N   0  0  0  0  0  0  0  0  0  0  0  0
   24.0472  -21.1340  -15.6571 C   0  0  0  0  0  0  0  0  0  0  0  0
   22.6787  -20.9235  -15.1985 C   0  0  0  0  0  0  0  0  0  0  0  0
   21.7260  -21.5641  -15.7677 O   0  0  0  0  0  0  0  0  0  0  0  0
   22.9968  -20.5575  -10.4997 N   0  0  0  0  0  0  0  0  0  0  0  0
   21.7960  -20.8824  -11.2390 C   0  0  0  0  0  0  0  0  0  0  0  0
   21.3458  -22.0284  -11.1160 O   0  0  0  0  0  0  0  0  0  0  0  0
   21.2194  -19.8313  -12.0656 C   0  0  0  0  0  0  0  0  0  0  0  0
   20.9295  -20.2074  -13.5000 C   0  0  2  0  0  0  0  0  0  0  0  0
   22.2508  -20.0688  -14.1647 N   0  0  0  0  0  0  0  0  0  0  0  0
   19.9939  -19.2127  -14.0695 C   0  0  0  0  0  0  0  0  0  0  0  0
   18.7792  -19.3199  -13.7923 O   0  0  0  0  0  0  0  0  0  0  0  0
   20.4062  -18.1903  -14.8789 O   0  0  0  0  0  0  0  0  0  0  0  0
  2  1  1  0
  3  2  2  0
  4  5  2  0
  4  3  1  0
  5 11  1  0
  6  5  1  0
  7  6  1  0
  7  8  1  6
  9 13  1  0
  9  7  1  0
 10  9  2  0
 11 12  2  0
 12  2  1  0
 14 15  1  0
 14 13  1  0
 15 16  2  0
 18 17  1  0
 18 20  1  0
 19 18  2  0
 21 20  1  1
 22 21  1  0
 22 15  1  0
 23 25  1  0
 23 21  1  0
 24 23  2  0
M  END
$$$$
