YGN.pdb
     RDKit          3D

 25 25  0  0  1  0  0  0  0  0999 V2000
   19.1273  -22.8757   -9.7255 O   0  0  0  0  0  0  0  0  0  0  0  0
   19.9772  -22.3588  -10.7212 C   0  0  0  0  0  0  0  0  0  0  0  0
   20.5891  -21.1364  -10.5327 C   0  0  0  0  0  0  0  0  0  0  0  0
   21.4098  -20.6657  -11.5246 C   0  0  0  0  0  0  0  0  0  0  0  0
   21.6590  -21.3398  -12.6955 C   0  0  0  0  0  0  0  0  0  0  0  0
   22.5506  -20.8243  -13.7672 C   0  0  0  0  0  0  0  0  0  0  0  0
   21.7124  -19.9321  -14.6589 C   0  0  2  0  0  0  0  0  0  0  0  0
   20.6470  -20.7358  -15.2088 N   0  0  0  0  0  0  0  0  0  0  0  0
   22.5311  -19.3846  -15.7830 C   0  0  0  0  0  0  0  0  0  0  0  0
   22.4867  -19.9151  -16.9222 O   0  0  0  0  0  0  0  0  0  0  0  0
   21.0228  -22.5736  -12.8519 C   0  0  0  0  0  0  0  0  0  0  0  0
   20.1940  -23.0682  -11.8709 C   0  0  0  0  0  0  0  0  0  0  0  0
   23.3799  -18.2591  -15.6105 N   0  0  0  0  0  0  0  0  0  0  0  0
   24.1579  -17.7884  -16.7167 C   0  0  0  0  0  0  0  0  0  0  0  0
   25.2516  -18.6526  -17.1462 C   0  0  0  0  0  0  0  0  0  0  0  0
   25.9635  -18.3021  -18.1524 O   0  0  0  0  0  0  0  0  0  0  0  0
   29.4498  -22.4300  -15.6524 N   0  0  0  0  0  0  0  0  0  0  0  0
   28.1391  -22.6031  -16.2408 C   0  0  0  0  0  0  0  0  0  0  0  0
   27.9593  -23.6067  -16.9419 O   0  0  0  0  0  0  0  0  0  0  0  0
   27.1426  -21.5798  -15.9569 C   0  0  0  0  0  0  0  0  0  0  0  0
   26.7383  -20.7133  -17.1268 C   0  0  2  0  0  0  0  0  0  0  0  0
   25.6432  -19.8769  -16.5718 N   0  0  0  0  0  0  0  0  0  0  0  0
   26.1917  -21.5826  -18.1920 C   0  0  0  0  0  0  0  0  0  0  0  0
   26.8869  -21.7700  -19.2144 O   0  0  0  0  0  0  0  0  0  0  0  0
   24.9665  -22.1832  -18.0985 O   0  0  0  0  0  0  0  0  0  0  0  0
  2  1  1  0
  3  2  2  0
  4  5  2  0
  4  3  1  0
  5 11  1  0
  6  5  1  0
  7  6  1  0
  7  8  1  6
  9 13  1  0
  9  7  1  0
 10  9  2  0
 11 12  2  0
 12  2  1  0
 14 15  1  0
 14 13  1  0
 15 16  2  0
 18 17  1  0
 18 20  1  0
 19 18  2  0
 21 20  1  1
 22 21  1  0
 22 15  1  0
 23 25  1  0
 23 21  1  0
 24 23  2  0
M  END
$$$$
