YGN.pdb
     RDKit          3D

 25 25  0  0  1  0  0  0  0  0999 V2000
   28.0329  -19.3915   -5.5800 O   0  0  0  0  0  0  0  0  0  0  0  0
   27.7170  -19.8823   -6.8607 C   0  0  0  0  0  0  0  0  0  0  0  0
   26.3972  -20.0768   -7.2135 C   0  0  0  0  0  0  0  0  0  0  0  0
   26.1287  -20.5561   -8.4693 C   0  0  0  0  0  0  0  0  0  0  0  0
   27.0967  -20.8543   -9.3975 C   0  0  0  0  0  0  0  0  0  0  0  0
   26.7992  -21.3733  -10.7581 C   0  0  0  0  0  0  0  0  0  0  0  0
   26.6866  -20.1774  -11.6807 C   0  0  2  0  0  0  0  0  0  0  0  0
   25.5663  -19.3830  -11.2364 N   0  0  0  0  0  0  0  0  0  0  0  0
   26.4385  -20.6139  -13.0884 C   0  0  0  0  0  0  0  0  0  0  0  0
   27.2211  -21.4194  -13.6539 O   0  0  0  0  0  0  0  0  0  0  0  0
   28.4213  -20.6452   -9.0058 C   0  0  0  0  0  0  0  0  0  0  0  0
   28.7173  -20.1648   -7.7506 C   0  0  0  0  0  0  0  0  0  0  0  0
   25.3244  -20.1421  -13.8321 N   0  0  0  0  0  0  0  0  0  0  0  0
   25.2060  -20.4865  -15.2169 C   0  0  0  0  0  0  0  0  0  0  0  0
   24.1515  -21.4361  -15.5544 C   0  0  0  0  0  0  0  0  0  0  0  0
   23.6293  -21.3966  -16.7240 O   0  0  0  0  0  0  0  0  0  0  0  0
   24.8260  -26.0969  -14.9285 N   0  0  0  0  0  0  0  0  0  0  0  0
   23.6475  -25.4753  -15.4930 C   0  0  0  0  0  0  0  0  0  0  0  0
   23.4114  -25.6868  -16.6890 O   0  0  0  0  0  0  0  0  0  0  0  0
   22.8392  -24.6528  -14.6037 C   0  0  0  0  0  0  0  0  0  0  0  0
   22.4634  -23.2877  -15.1312 C   0  0  2  0  0  0  0  0  0  0  0  0
   23.6094  -22.4349  -14.7234 N   0  0  0  0  0  0  0  0  0  0  0  0
   21.2443  -22.8291  -14.4294 C   0  0  0  0  0  0  0  0  0  0  0  0
   21.3127  -21.7785  -13.7546 O   0  0  0  0  0  0  0  0  0  0  0  0
   20.0573  -23.5056  -14.4929 O   0  0  0  0  0  0  0  0  0  0  0  0
  2  1  1  0
  3  2  2  0
  4  5  2  0
  4  3  1  0
  5 11  1  0
  6  5  1  0
  7  6  1  0
  7  8  1  1
  9 13  1  0
  9  7  1  0
 10  9  2  0
 11 12  2  0
 12  2  1  0
 14 15  1  0
 14 13  1  0
 15 16  2  0
 18 17  1  0
 18 20  1  0
 19 18  2  0
 21 20  1  1
 22 21  1  0
 22 15  1  0
 23 25  1  0
 23 21  1  0
 24 23  2  0
M  END
$$$$
