YGN.pdb
     RDKit          3D

 25 25  0  0  1  0  0  0  0  0999 V2000
   19.7535  -23.1584   -6.1378 O   0  0  0  0  0  0  0  0  0  0  0  0
   20.5473  -22.5150   -7.1057 C   0  0  0  0  0  0  0  0  0  0  0  0
   20.9509  -21.2109   -6.9040 C   0  0  0  0  0  0  0  0  0  0  0  0
   21.7229  -20.6177   -7.8688 C   0  0  0  0  0  0  0  0  0  0  0  0
   22.1187  -21.2455   -9.0251 C   0  0  0  0  0  0  0  0  0  0  0  0
   22.9566  -20.5970  -10.0674 C   0  0  0  0  0  0  0  0  0  0  0  0
   24.2947  -21.3065  -10.0741 C   0  0  2  0  0  0  0  0  0  0  0  0
   25.0046  -20.9181   -8.8790 N   0  0  0  0  0  0  0  0  0  0  0  0
   25.1029  -20.9051  -11.2655 C   0  0  0  0  0  0  0  0  0  0  0  0
   25.5755  -19.7432  -11.3539 O   0  0  0  0  0  0  0  0  0  0  0  0
   21.6917  -22.5647   -9.1955 C   0  0  0  0  0  0  0  0  0  0  0  0
   20.9159  -23.1828   -8.2417 C   0  0  0  0  0  0  0  0  0  0  0  0
   25.3646  -21.8080  -12.3300 N   0  0  0  0  0  0  0  0  0  0  0  0
   26.0354  -21.3364  -13.5039 C   0  0  0  0  0  0  0  0  0  0  0  0
   25.1789  -20.8887  -14.5965 C   0  0  0  0  0  0  0  0  0  0  0  0
   24.3523  -21.7168  -15.1188 O   0  0  0  0  0  0  0  0  0  0  0  0
   22.5659  -17.9289  -18.0834 N   0  0  0  0  0  0  0  0  0  0  0  0
   23.0020  -17.1444  -16.9482 C   0  0  0  0  0  0  0  0  0  0  0  0
   22.6138  -15.9712  -16.8858 O   0  0  0  0  0  0  0  0  0  0  0  0
   23.8616  -17.8040  -15.9753 C   0  0  0  0  0  0  0  0  0  0  0  0
   24.2063  -19.2447  -16.2724 C   0  0  2  0  0  0  0  0  0  0  0  0
   25.1421  -19.6065  -15.1768 N   0  0  0  0  0  0  0  0  0  0  0  0
   24.9265  -19.3017  -17.5635 C   0  0  0  0  0  0  0  0  0  0  0  0
   24.2824  -19.6305  -18.5837 O   0  0  0  0  0  0  0  0  0  0  0  0
   26.2576  -19.0095  -17.6798 O   0  0  0  0  0  0  0  0  0  0  0  0
  2  1  1  0
  3  2  2  0
  4  5  2  0
  4  3  1  0
  5 11  1  0
  6  5  1  0
  7  6  1  0
  7  8  1  1
  9 13  1  0
  9  7  1  0
 10  9  2  0
 11 12  2  0
 12  2  1  0
 14 15  1  0
 14 13  1  0
 15 16  2  0
 18 17  1  0
 18 20  1  0
 19 18  2  0
 21 20  1  1
 22 21  1  0
 22 15  1  0
 23 25  1  0
 23 21  1  0
 24 23  2  0
M  END
$$$$
