GTQ.pdb
     RDKit          3D

 21 20  0  0  1  0  0  0  0  0999 V2000
   21.3928  -15.9375  -18.0061 N   0  0  0  0  0  0  0  0  0  0  0  0
   20.7350  -14.6647  -18.2344 C   0  0  0  0  0  0  0  0  0  0  0  0
   21.1397  -13.7529  -17.1335 C   0  0  0  0  0  0  0  0  0  0  0  0
   20.7407  -13.9105  -15.9539 O   0  0  0  0  0  0  0  0  0  0  0  0
   24.7323  -12.7639  -16.2026 C   0  0  0  0  0  0  0  0  0  0  0  0
   23.9333  -11.5439  -16.4854 C   0  0  1  0  0  0  0  0  0  0  0  0
   24.1486  -11.1911  -17.8257 O   0  0  0  0  0  0  0  0  0  0  0  0
   22.4441  -11.7499  -16.3307 C   0  0  2  0  0  0  0  0  0  0  0  0
   22.0063  -12.6523  -17.3778 N   0  0  0  0  0  0  0  0  0  0  0  0
   21.6950  -10.4793  -16.5050 C   0  0  0  0  0  0  0  0  0  0  0  0
   21.1173  -10.1817  -17.5993 O   0  0  0  0  0  0  0  0  0  0  0  0
   18.0178   -8.2684  -17.7373 N   0  0  0  0  0  0  0  0  0  0  0  0
   17.8427   -7.1995  -16.8105 C   0  0  0  0  0  0  0  0  0  0  0  0
   17.0215   -6.2977  -17.1589 O   0  0  0  0  0  0  0  0  0  0  0  0
   18.5806   -7.1535  -15.5190 C   0  0  0  0  0  0  0  0  0  0  0  0
   19.3615   -8.4300  -15.4038 C   0  0  0  0  0  0  0  0  0  0  0  0
   20.8351   -8.2693  -15.6583 C   0  0  2  0  0  0  0  0  0  0  0  0
   21.5672   -9.5065  -15.4709 N   0  0  0  0  0  0  0  0  0  0  0  0
   21.4482   -7.1778  -14.8973 C   0  0  0  0  0  0  0  0  0  0  0  0
   22.0746   -7.3925  -13.8429 O   0  0  0  0  0  0  0  0  0  0  0  0
   21.3439   -5.8772  -15.3360 O   0  0  0  0  0  0  0  0  0  0  0  0
  1  2  1  0
  2  3  1  0
  3  4  2  0
  6  5  1  6
  6  8  1  0
  7  6  1  0
  8 10  1  0
  8  9  1  6
  9  3  1  0
 10 11  2  0
 10 18  1  0
 12 13  1  0
 13 14  2  0
 13 15  1  0
 15 16  1  0
 17 16  1  1
 17 19  1  0
 18 17  1  0
 19 20  2  0
 19 21  1  0
M  END
$$$$
