GTQ.pdb
     RDKit          3D

 21 20  0  0  1  0  0  0  0  0999 V2000
   19.4723  -16.5906  -18.2355 N   0  0  0  0  0  0  0  0  0  0  0  0
   20.1741  -15.6231  -19.0581 C   0  0  0  0  0  0  0  0  0  0  0  0
   20.5246  -14.4720  -18.1869 C   0  0  0  0  0  0  0  0  0  0  0  0
   20.7089  -14.5999  -16.9519 O   0  0  0  0  0  0  0  0  0  0  0  0
   23.4944  -12.3347  -18.5816 C   0  0  0  0  0  0  0  0  0  0  0  0
   22.3150  -11.4314  -18.5912 C   0  0  1  0  0  0  0  0  0  0  0  0
   21.9680  -11.1931  -19.9291 O   0  0  0  0  0  0  0  0  0  0  0  0
   21.0933  -12.0288  -17.9319 C   0  0  2  0  0  0  0  0  0  0  0  0
   20.6664  -13.1640  -18.7264 N   0  0  0  0  0  0  0  0  0  0  0  0
   19.9630  -11.0658  -17.8997 C   0  0  0  0  0  0  0  0  0  0  0  0
   19.1896  -10.9002  -18.8967 O   0  0  0  0  0  0  0  0  0  0  0  0
   15.4341  -10.5735  -14.2849 N   0  0  0  0  0  0  0  0  0  0  0  0
   15.3276   -9.2552  -14.8164 C   0  0  0  0  0  0  0  0  0  0  0  0
   14.3011   -8.5998  -14.4618 O   0  0  0  0  0  0  0  0  0  0  0  0
   16.3601   -8.6923  -15.7285 C   0  0  0  0  0  0  0  0  0  0  0  0
   17.4207   -9.7396  -15.9046 C   0  0  0  0  0  0  0  0  0  0  0  0
   18.5772   -9.2996  -16.7594 C   0  0  2  0  0  0  0  0  0  0  0  0
   19.6614  -10.2621  -16.7617 N   0  0  0  0  0  0  0  0  0  0  0  0
   19.0693   -7.9576  -16.4381 C   0  0  0  0  0  0  0  0  0  0  0  0
   20.1881   -7.7822  -15.9206 O   0  0  0  0  0  0  0  0  0  0  0  0
   18.2974   -6.8494  -16.7043 O   0  0  0  0  0  0  0  0  0  0  0  0
  1  2  1  0
  2  3  1  0
  3  4  2  0
  6  5  1  6
  6  8  1  0
  7  6  1  0
  8 10  1  0
  8  9  1  6
  9  3  1  0
 10 11  2  0
 10 18  1  0
 12 13  1  0
 13 14  2  0
 13 15  1  0
 15 16  1  0
 17 16  1  1
 17 19  1  0
 18 17  1  0
 19 20  2  0
 19 21  1  0
M  END
$$$$
