GTQ.pdb
     RDKit          3D

 21 20  0  0  1  0  0  0  0  0999 V2000
   26.5384  -18.8479  -14.4520 N   0  0  0  0  0  0  0  0  0  0  0  0
   26.3877  -18.0083  -15.6256 C   0  0  0  0  0  0  0  0  0  0  0  0
   26.0016  -16.6533  -15.1544 C   0  0  0  0  0  0  0  0  0  0  0  0
   25.7531  -16.4104  -13.9483 O   0  0  0  0  0  0  0  0  0  0  0  0
   27.8291  -13.3866  -15.5746 C   0  0  0  0  0  0  0  0  0  0  0  0
   26.4827  -13.2459  -16.1866 C   0  0  1  0  0  0  0  0  0  0  0  0
   26.6075  -13.4986  -17.5605 O   0  0  0  0  0  0  0  0  0  0  0  0
   25.4741  -14.2396  -15.6583 C   0  0  2  0  0  0  0  0  0  0  0  0
   25.8975  -15.5655  -16.0644 N   0  0  0  0  0  0  0  0  0  0  0  0
   24.1262  -14.0124  -16.2392 C   0  0  0  0  0  0  0  0  0  0  0  0
   23.7052  -14.6703  -17.2439 O   0  0  0  0  0  0  0  0  0  0  0  0
   19.7693  -15.6833  -16.7346 N   0  0  0  0  0  0  0  0  0  0  0  0
   18.9784  -14.4997  -16.8094 C   0  0  0  0  0  0  0  0  0  0  0  0
   17.8577  -14.6222  -17.3907 O   0  0  0  0  0  0  0  0  0  0  0  0
   19.4464  -13.2072  -16.2390 C   0  0  0  0  0  0  0  0  0  0  0  0
   20.7909  -13.4524  -15.6186 C   0  0  0  0  0  0  0  0  0  0  0  0
   21.9284  -12.7880  -16.3443 C   0  0  2  0  0  0  0  0  0  0  0  0
   23.2108  -13.0502  -15.7211 N   0  0  0  0  0  0  0  0  0  0  0  0
   21.7329  -11.3515  -16.5554 C   0  0  0  0  0  0  0  0  0  0  0  0
   22.3900  -10.5059  -15.9203 O   0  0  0  0  0  0  0  0  0  0  0  0
   20.8086  -10.9004  -17.4703 O   0  0  0  0  0  0  0  0  0  0  0  0
  1  2  1  0
  2  3  1  0
  3  4  2  0
  6  5  1  1
  6  8  1  0
  7  6  1  0
  8 10  1  0
  8  9  1  6
  9  3  1  0
 10 11  2  0
 10 18  1  0
 12 13  1  0
 13 14  2  0
 13 15  1  0
 15 16  1  0
 17 16  1  1
 17 19  1  0
 18 17  1  0
 19 20  2  0
 19 21  1  0
M  END
$$$$
