GTQ.pdb
     RDKit          3D

 21 20  0  0  1  0  0  0  0  0999 V2000
   25.7224  -22.0605  -12.1774 N   0  0  0  0  0  0  0  0  0  0  0  0
   25.5862  -21.6892  -13.5734 C   0  0  0  0  0  0  0  0  0  0  0  0
   25.1973  -20.2560  -13.6149 C   0  0  0  0  0  0  0  0  0  0  0  0
   24.9108  -19.6106  -12.5771 O   0  0  0  0  0  0  0  0  0  0  0  0
   27.0566  -17.2772  -14.5011 C   0  0  0  0  0  0  0  0  0  0  0  0
   25.9339  -17.3805  -15.4684 C   0  0  1  0  0  0  0  0  0  0  0  0
   26.3977  -18.0823  -16.5907 O   0  0  0  0  0  0  0  0  0  0  0  0
   24.7505  -18.1561  -14.9373 C   0  0  2  0  0  0  0  0  0  0  0  0
   25.1339  -19.5516  -14.8485 N   0  0  0  0  0  0  0  0  0  0  0  0
   23.5876  -18.0784  -15.8579 C   0  0  0  0  0  0  0  0  0  0  0  0
   23.3818  -18.9524  -16.7597 O   0  0  0  0  0  0  0  0  0  0  0  0
   18.8689  -17.6639  -13.7122 N   0  0  0  0  0  0  0  0  0  0  0  0
   18.5760  -18.3630  -14.9195 C   0  0  0  0  0  0  0  0  0  0  0  0
   17.7395  -19.3111  -14.8176 O   0  0  0  0  0  0  0  0  0  0  0  0
   19.2159  -17.9966  -16.2121 C   0  0  0  0  0  0  0  0  0  0  0  0
   20.1765  -16.8773  -15.9347 C   0  0  0  0  0  0  0  0  0  0  0  0
   21.4749  -16.9868  -16.6857 C   0  0  2  0  0  0  0  0  0  0  0  0
   22.6235  -17.0299  -15.8022 N   0  0  0  0  0  0  0  0  0  0  0  0
   21.6463  -15.9609  -17.7175 C   0  0  0  0  0  0  0  0  0  0  0  0
   20.8516  -15.8584  -18.6704 O   0  0  0  0  0  0  0  0  0  0  0  0
   22.7010  -15.0785  -17.6554 O   0  0  0  0  0  0  0  0  0  0  0  0
  1  2  1  0
  2  3  1  0
  3  4  2  0
  6  5  1  1
  6  8  1  0
  7  6  1  0
  8 10  1  0
  8  9  1  6
  9  3  1  0
 10 11  2  0
 10 18  1  0
 12 13  1  0
 13 14  2  0
 13 15  1  0
 15 16  1  0
 17 16  1  1
 17 19  1  0
 18 17  1  0
 19 20  2  0
 19 21  1  0
M  END
$$$$
