GTQ.pdb
     RDKit          3D

 21 20  0  0  1  0  0  0  0  0999 V2000
   13.6037  -12.4561  -11.0577 N   0  0  0  0  0  0  0  0  0  0  0  0
   14.7576  -11.7945  -10.4782 C   0  0  0  0  0  0  0  0  0  0  0  0
   14.6212  -10.3414  -10.7561 C   0  0  0  0  0  0  0  0  0  0  0  0
   13.7600   -9.8904  -11.5501 O   0  0  0  0  0  0  0  0  0  0  0  0
   15.5612   -7.7717   -7.8356 C   0  0  0  0  0  0  0  0  0  0  0  0
   14.8050   -7.3613   -9.0467 C   0  0  1  0  0  0  0  0  0  0  0  0
   14.9302   -5.9706   -9.1798 O   0  0  0  0  0  0  0  0  0  0  0  0
   15.3413   -7.9638  -10.3247 C   0  0  2  0  0  0  0  0  0  0  0  0
   15.4726   -9.3938  -10.1243 N   0  0  0  0  0  0  0  0  0  0  0  0
   16.6924   -7.4406  -10.6513 C   0  0  0  0  0  0  0  0  0  0  0  0
   17.7210   -7.7588   -9.9728 O   0  0  0  0  0  0  0  0  0  0  0  0
   20.1937   -8.5158  -14.8500 N   0  0  0  0  0  0  0  0  0  0  0  0
   20.9674   -7.4532  -14.2983 C   0  0  0  0  0  0  0  0  0  0  0  0
   22.1778   -7.4008  -14.6741 O   0  0  0  0  0  0  0  0  0  0  0  0
   20.3835   -6.4728  -13.3431 C   0  0  0  0  0  0  0  0  0  0  0  0
   18.9726   -6.9034  -13.0663 C   0  0  0  0  0  0  0  0  0  0  0  0
   18.2639   -6.0541  -12.0472 C   0  0  2  0  0  0  0  0  0  0  0  0
   16.9376   -6.5515  -11.7383 N   0  0  0  0  0  0  0  0  0  0  0  0
   18.2218   -4.6313  -12.3937 C   0  0  0  0  0  0  0  0  0  0  0  0
   17.1585   -4.0740  -12.7240 O   0  0  0  0  0  0  0  0  0  0  0  0
   19.3690   -3.8712  -12.3614 O   0  0  0  0  0  0  0  0  0  0  0  0
  1  2  1  0
  2  3  1  0
  3  4  2  0
  6  5  1  1
  6  8  1  0
  7  6  1  0
  8 10  1  0
  8  9  1  1
  9  3  1  0
 10 11  2  0
 10 18  1  0
 12 13  1  0
 13 14  2  0
 13 15  1  0
 15 16  1  0
 17 16  1  6
 17 19  1  0
 18 17  1  0
 19 20  2  0
 19 21  1  0
M  END
$$$$
