GTQ.pdb
     RDKit          3D

 21 20  0  0  1  0  0  0  0  0999 V2000
   28.3871  -18.7052  -16.9464 N   0  0  0  0  0  0  0  0  0  0  0  0
   27.6847  -18.4107  -15.7115 C   0  0  0  0  0  0  0  0  0  0  0  0
   26.7936  -19.5638  -15.4227 C   0  0  0  0  0  0  0  0  0  0  0  0
   26.6685  -20.5276  -16.2170 O   0  0  0  0  0  0  0  0  0  0  0  0
   26.1175  -20.4967  -11.4614 C   0  0  0  0  0  0  0  0  0  0  0  0
   26.0123  -21.4106  -12.6280 C   0  0  1  0  0  0  0  0  0  0  0  0
   25.2507  -22.5211  -12.2356 O   0  0  0  0  0  0  0  0  0  0  0  0
   25.2982  -20.7979  -13.8106 C   0  0  2  0  0  0  0  0  0  0  0  0
   26.0386  -19.6200  -14.2190 N   0  0  0  0  0  0  0  0  0  0  0  0
   23.9278  -20.3520  -13.4514 C   0  0  0  0  0  0  0  0  0  0  0  0
   23.7201  -19.3185  -12.7384 O   0  0  0  0  0  0  0  0  0  0  0  0
   19.2387  -18.0181  -14.4480 N   0  0  0  0  0  0  0  0  0  0  0  0
   20.2843  -18.0724  -15.4153 C   0  0  0  0  0  0  0  0  0  0  0  0
   20.4971  -16.9991  -16.0570 O   0  0  0  0  0  0  0  0  0  0  0  0
   21.0707  -19.3139  -15.6502 C   0  0  0  0  0  0  0  0  0  0  0  0
   20.5472  -20.3600  -14.7099 C   0  0  0  0  0  0  0  0  0  0  0  0
   21.4222  -20.5949  -13.5095 C   0  0  2  0  0  0  0  0  0  0  0  0
   22.7530  -21.0404  -13.8733 N   0  0  0  0  0  0  0  0  0  0  0  0
   20.8260  -21.4871  -12.5121 C   0  0  0  0  0  0  0  0  0  0  0  0
   21.2900  -22.6218  -12.2950 O   0  0  0  0  0  0  0  0  0  0  0  0
   19.7279  -21.0860  -11.7853 O   0  0  0  0  0  0  0  0  0  0  0  0
  1  2  1  0
  2  3  1  0
  3  4  2  0
  6  5  1  1
  6  8  1  0
  7  6  1  0
  8 10  1  0
  8  9  1  1
  9  3  1  0
 10 11  2  0
 10 18  1  0
 12 13  1  0
 13 14  2  0
 13 15  1  0
 15 16  1  0
 17 16  1  6
 17 19  1  0
 18 17  1  0
 19 20  2  0
 19 21  1  0
M  END
$$$$
