GTQ.pdb
     RDKit          3D

 21 20  0  0  1  0  0  0  0  0999 V2000
   22.9276  -17.9531  -16.2684 N   0  0  0  0  0  0  0  0  0  0  0  0
   22.0684  -16.8497  -16.6548 C   0  0  0  0  0  0  0  0  0  0  0  0
   22.4189  -15.6921  -15.7921 C   0  0  0  0  0  0  0  0  0  0  0  0
   22.0359  -15.6064  -14.5999 O   0  0  0  0  0  0  0  0  0  0  0  0
   25.9058  -14.4708  -15.0202 C   0  0  0  0  0  0  0  0  0  0  0  0
   25.1312  -13.3550  -15.6218 C   0  0  1  0  0  0  0  0  0  0  0  0
   25.3894  -13.3479  -17.0004 O   0  0  0  0  0  0  0  0  0  0  0  0
   23.6356  -13.5077  -15.4670 C   0  0  2  0  0  0  0  0  0  0  0  0
   23.2122  -14.6227  -16.2913 N   0  0  0  0  0  0  0  0  0  0  0  0
   22.9100  -12.3049  -15.9494 C   0  0  0  0  0  0  0  0  0  0  0  0
   22.3390  -12.2728  -17.0863 O   0  0  0  0  0  0  0  0  0  0  0  0
   17.9846  -10.1637  -14.9301 N   0  0  0  0  0  0  0  0  0  0  0  0
   18.4565   -8.9491  -15.5080 C   0  0  0  0  0  0  0  0  0  0  0  0
   17.5734   -8.0668  -15.7328 O   0  0  0  0  0  0  0  0  0  0  0  0
   19.8956   -8.7389  -15.8239 C   0  0  0  0  0  0  0  0  0  0  0  0
   20.6273   -9.9892  -15.4313 C   0  0  0  0  0  0  0  0  0  0  0  0
   22.1094   -9.9328  -15.6804 C   0  0  2  0  0  0  0  0  0  0  0  0
   22.7991  -11.1075  -15.1841 N   0  0  0  0  0  0  0  0  0  0  0  0
   22.7427   -8.7069  -15.1881 C   0  0  0  0  0  0  0  0  0  0  0  0
   23.5337   -8.7249  -14.2267 O   0  0  0  0  0  0  0  0  0  0  0  0
   22.4743   -7.4954  -15.7839 O   0  0  0  0  0  0  0  0  0  0  0  0
  1  2  1  0
  2  3  1  0
  3  4  2  0
  6  5  1  1
  6  8  1  0
  7  6  1  0
  8 10  1  0
  8  9  1  6
  9  3  1  0
 10 11  2  0
 10 18  1  0
 12 13  1  0
 13 14  2  0
 13 15  1  0
 15 16  1  0
 17 16  1  1
 17 19  1  0
 18 17  1  0
 19 20  2  0
 19 21  1  0
M  END
$$$$
