GTQ.pdb
     RDKit          3D

 21 20  0  0  1  0  0  0  0  0999 V2000
   26.5668  -17.3209  -17.7414 N   0  0  0  0  0  0  0  0  0  0  0  0
   26.5247  -16.1095  -18.5387 C   0  0  0  0  0  0  0  0  0  0  0  0
   25.9690  -15.0326  -17.6793 C   0  0  0  0  0  0  0  0  0  0  0  0
   25.0828  -15.2544  -16.8184 O   0  0  0  0  0  0  0  0  0  0  0  0
   28.1726  -12.2170  -16.0157 C   0  0  0  0  0  0  0  0  0  0  0  0
   27.0216  -11.6255  -16.7453 C   0  0  1  0  0  0  0  0  0  0  0  0
   27.4788  -11.2128  -18.0054 O   0  0  0  0  0  0  0  0  0  0  0  0
   25.8996  -12.6061  -16.9969 C   0  0  2  0  0  0  0  0  0  0  0  0
   26.4262  -13.6916  -17.8011 N   0  0  0  0  0  0  0  0  0  0  0  0
   24.7929  -11.9852  -17.7687 C   0  0  0  0  0  0  0  0  0  0  0  0
   24.7152  -12.0848  -19.0350 O   0  0  0  0  0  0  0  0  0  0  0  0
   19.5091  -13.4352  -18.3300 N   0  0  0  0  0  0  0  0  0  0  0  0
   19.2904  -12.1394  -18.8824 C   0  0  0  0  0  0  0  0  0  0  0  0
   18.1568  -11.9545  -19.4206 O   0  0  0  0  0  0  0  0  0  0  0  0
   20.3318  -11.0777  -18.8262 C   0  0  0  0  0  0  0  0  0  0  0  0
   21.5065  -11.6418  -18.0816 C   0  0  0  0  0  0  0  0  0  0  0  0
   22.6475  -10.6756  -17.9192 C   0  0  2  0  0  0  0  0  0  0  0  0
   23.7446  -11.2381  -17.1564 N   0  0  0  0  0  0  0  0  0  0  0  0
   22.2452   -9.3755  -17.3768 C   0  0  0  0  0  0  0  0  0  0  0  0
   21.8268   -8.4646  -18.1153 O   0  0  0  0  0  0  0  0  0  0  0  0
   22.3217   -9.1299  -16.0246 O   0  0  0  0  0  0  0  0  0  0  0  0
  1  2  1  0
  2  3  1  0
  3  4  2  0
  6  5  1  6
  6  8  1  0
  7  6  1  0
  8 10  1  0
  8  9  1  6
  9  3  1  0
 10 11  2  0
 10 18  1  0
 12 13  1  0
 13 14  2  0
 13 15  1  0
 15 16  1  0
 17 16  1  1
 17 19  1  0
 18 17  1  0
 19 20  2  0
 19 21  1  0
M  END
$$$$
