KAT.pdb
     RDKit          3D

 22 21  0  0  1  0  0  0  0  0999 V2000
   16.6554  -11.6972  -17.5956 N   0  0  0  0  0  0  0  0  0  0  0  0
   16.5936  -11.3110  -16.2012 C   0  0  1  0  0  0  0  0  0  0  0  0
   16.0495  -12.4326  -15.3384 C   0  0  0  0  0  0  0  0  0  0  0  0
   14.7361  -12.8637  -15.8948 C   0  0  0  0  0  0  0  0  0  0  0  0
   14.1348  -14.0669  -15.2648 C   0  0  0  0  0  0  0  0  0  0  0  0
   12.8960  -14.5858  -15.9056 C   0  0  0  0  0  0  0  0  0  0  0  0
   12.3909  -15.7917  -15.2813 N   0  0  0  0  0  0  0  0  0  0  0  0
   17.8933  -10.8088  -15.7764 C   0  0  0  0  0  0  0  0  0  0  0  0
   18.0818  -10.5405  -14.5649 O   0  0  0  0  0  0  0  0  0  0  0  0
   21.3521  -10.2681  -17.2580 C   0  0  0  0  0  0  0  0  0  0  0  0
   20.2522  -10.0493  -16.2330 C   0  0  2  0  0  0  0  0  0  0  0  0
   18.9988  -10.5917  -16.6487 N   0  0  0  0  0  0  0  0  0  0  0  0
   20.1904   -8.5974  -15.9383 C   0  0  0  0  0  0  0  0  0  0  0  0
   19.4488   -7.8264  -16.6012 O   0  0  0  0  0  0  0  0  0  0  0  0
   21.9633   -4.8320  -13.1668 C   0  0  0  0  0  0  0  0  0  0  0  0
   21.8494   -6.2983  -13.4359 C   0  0  1  0  0  0  0  0  0  0  0  0
   21.1477   -6.8919  -12.3887 O   0  0  0  0  0  0  0  0  0  0  0  0
   21.1137   -6.5714  -14.7518 C   0  0  2  0  0  0  0  0  0  0  0  0
   20.9633   -8.0144  -14.8978 N   0  0  0  0  0  0  0  0  0  0  0  0
   21.8367   -6.0102  -15.8963 C   0  0  0  0  0  0  0  0  0  0  0  0
   22.8544   -6.6680  -16.5817 O   0  0  0  0  0  0  0  0  0  0  0  0
   21.5326   -4.8588  -16.3019 O   0  0  0  0  0  0  0  0  0  0  0  0
  2  1  1  6
  2  8  1  0
  3  2  1  0
  4  3  1  0
  5  4  1  0
  6  5  1  0
  7  6  1  0
  8  9  2  0
 11 10  1  6
 12  8  1  0
 12 11  1  0
 13 19  1  0
 13 11  1  0
 14 13  2  0
 16 15  1  1
 17 16  1  0
 18 19  1  6
 18 16  1  0
 20 21  1  0
 20 18  1  0
 22 20  2  0
M  END
$$$$
