KAT.pdb
     RDKit          3D

 22 21  0  0  1  0  0  0  0  0999 V2000
   19.6172  -12.7422  -16.6639 N   0  0  0  0  0  0  0  0  0  0  0  0
   20.1376  -11.5203  -17.2411 C   0  0  1  0  0  0  0  0  0  0  0  0
   19.1476  -10.8963  -18.2050 C   0  0  0  0  0  0  0  0  0  0  0  0
   18.8720  -11.8710  -19.2979 C   0  0  0  0  0  0  0  0  0  0  0  0
   17.5113  -12.4666  -19.3001 C   0  0  0  0  0  0  0  0  0  0  0  0
   17.1842  -13.3359  -20.4627 C   0  0  0  0  0  0  0  0  0  0  0  0
   15.8126  -13.8029  -20.4598 N   0  0  0  0  0  0  0  0  0  0  0  0
   20.5778  -10.6275  -16.1775 C   0  0  0  0  0  0  0  0  0  0  0  0
   19.7205  -10.0704  -15.4495 O   0  0  0  0  0  0  0  0  0  0  0  0
   23.7469   -9.8401  -14.3032 C   0  0  0  0  0  0  0  0  0  0  0  0
   22.3642   -9.4805  -14.8202 C   0  0  2  0  0  0  0  0  0  0  0  0
   21.9403  -10.3273  -15.8883 N   0  0  0  0  0  0  0  0  0  0  0  0
   22.3770   -8.0434  -15.1852 C   0  0  0  0  0  0  0  0  0  0  0  0
   22.9039   -7.6453  -16.2566 O   0  0  0  0  0  0  0  0  0  0  0  0
   19.6834   -5.8225  -16.0191 C   0  0  0  0  0  0  0  0  0  0  0  0
   20.3393   -5.1846  -14.8367 C   0  0  1  0  0  0  0  0  0  0  0  0
   19.6330   -5.5380  -13.6889 O   0  0  0  0  0  0  0  0  0  0  0  0
   21.7952   -5.6389  -14.6902 C   0  0  2  0  0  0  0  0  0  0  0  0
   21.7969   -7.0555  -14.3442 N   0  0  0  0  0  0  0  0  0  0  0  0
   22.5000   -4.8583  -13.6697 C   0  0  0  0  0  0  0  0  0  0  0  0
   22.8480   -3.5174  -13.8078 O   0  0  0  0  0  0  0  0  0  0  0  0
   22.8206   -5.4187  -12.5900 O   0  0  0  0  0  0  0  0  0  0  0  0
  2  1  1  1
  2  8  1  0
  3  2  1  0
  4  3  1  0
  5  4  1  0
  6  5  1  0
  7  6  1  0
  8  9  2  0
 11 10  1  6
 12  8  1  0
 12 11  1  0
 13 19  1  0
 13 11  1  0
 14 13  2  0
 16 15  1  6
 17 16  1  0
 18 19  1  1
 18 16  1  0
 20 21  1  0
 20 18  1  0
 22 20  2  0
M  END
$$$$
