KAT.pdb
     RDKit          3D

 22 21  0  0  1  0  0  0  0  0999 V2000
   19.1441  -10.3513  -15.2372 N   0  0  0  0  0  0  0  0  0  0  0  0
   20.3242   -9.5573  -15.5093 C   0  0  1  0  0  0  0  0  0  0  0  0
   20.7282   -9.6457  -16.9679 C   0  0  0  0  0  0  0  0  0  0  0  0
   19.5396   -9.3282  -17.8086 C   0  0  0  0  0  0  0  0  0  0  0  0
   19.7708   -9.3309  -19.2759 C   0  0  0  0  0  0  0  0  0  0  0  0
   18.5919   -8.9971  -20.1203 C   0  0  0  0  0  0  0  0  0  0  0  0
   18.8940   -8.9628  -21.5369 N   0  0  0  0  0  0  0  0  0  0  0  0
   20.1183   -8.1976  -15.0290 C   0  0  0  0  0  0  0  0  0  0  0  0
   18.9707   -7.6928  -15.0880 O   0  0  0  0  0  0  0  0  0  0  0  0
   22.0399   -5.4910  -13.1889 C   0  0  0  0  0  0  0  0  0  0  0  0
   20.9617   -5.9995  -14.1310 C   0  0  2  0  0  0  0  0  0  0  0  0
   21.1423   -7.3712  -14.4824 N   0  0  0  0  0  0  0  0  0  0  0  0
   20.9250   -5.0964  -15.3064 C   0  0  0  0  0  0  0  0  0  0  0  0
   21.7184   -5.2465  -16.2717 O   0  0  0  0  0  0  0  0  0  0  0  0
   17.9354   -4.4017  -17.5183 C   0  0  0  0  0  0  0  0  0  0  0  0
   18.4242   -3.0931  -16.9854 C   0  0  1  0  0  0  0  0  0  0  0  0
   17.6566   -2.7478  -15.8750 O   0  0  0  0  0  0  0  0  0  0  0  0
   19.8977   -3.1711  -16.5726 C   0  0  2  0  0  0  0  0  0  0  0  0
   19.9954   -4.0249  -15.3945 N   0  0  0  0  0  0  0  0  0  0  0  0
   20.4466   -1.8416  -16.2924 C   0  0  0  0  0  0  0  0  0  0  0  0
   20.6886   -0.8715  -17.2611 O   0  0  0  0  0  0  0  0  0  0  0  0
   20.7242   -1.5370  -15.1037 O   0  0  0  0  0  0  0  0  0  0  0  0
  2  1  1  6
  2  8  1  0
  3  2  1  0
  4  3  1  0
  5  4  1  0
  6  5  1  0
  7  6  1  0
  8  9  2  0
 11 10  1  1
 12  8  1  0
 12 11  1  0
 13 19  1  0
 13 11  1  0
 14 13  2  0
 16 15  1  1
 17 16  1  0
 18 19  1  1
 18 16  1  0
 20 21  1  0
 20 18  1  0
 22 20  2  0
M  END
$$$$
