KAT.pdb
     RDKit          3D

 22 21  0  0  1  0  0  0  0  0999 V2000
   16.0589  -14.0133  -17.0364 N   0  0  0  0  0  0  0  0  0  0  0  0
   16.7442  -13.4588  -15.8875 C   0  0  1  0  0  0  0  0  0  0  0  0
   17.9803  -14.2635  -15.5371 C   0  0  0  0  0  0  0  0  0  0  0  0
   17.5508  -15.6106  -15.0664 C   0  0  0  0  0  0  0  0  0  0  0  0
   18.6466  -16.5378  -14.6847 C   0  0  0  0  0  0  0  0  0  0  0  0
   18.2226  -17.8535  -14.1338 C   0  0  0  0  0  0  0  0  0  0  0  0
   19.3334  -18.6791  -13.7051 N   0  0  0  0  0  0  0  0  0  0  0  0
   16.9983  -12.0415  -16.1085 C   0  0  0  0  0  0  0  0  0  0  0  0
   17.4145  -11.6599  -17.2294 O   0  0  0  0  0  0  0  0  0  0  0  0
   16.2891   -8.7312  -14.4331 C   0  0  0  0  0  0  0  0  0  0  0  0
   17.0965   -9.6435  -15.3411 C   0  0  2  0  0  0  0  0  0  0  0  0
   16.8072  -11.0251  -15.1285 N   0  0  0  0  0  0  0  0  0  0  0  0
   18.5300   -9.3126  -15.1562 C   0  0  0  0  0  0  0  0  0  0  0  0
   19.2350   -9.9123  -14.3033 O   0  0  0  0  0  0  0  0  0  0  0  0
   22.5482   -7.0987  -17.0506 C   0  0  0  0  0  0  0  0  0  0  0  0
   21.0970   -7.4510  -17.1218 C   0  0  1  0  0  0  0  0  0  0  0  0
   20.9211   -8.4260  -18.1015 O   0  0  0  0  0  0  0  0  0  0  0  0
   20.5839   -7.9876  -15.7815 C   0  0  2  0  0  0  0  0  0  0  0  0
   19.1691   -8.3072  -15.9312 N   0  0  0  0  0  0  0  0  0  0  0  0
   20.7811   -7.0142  -14.7039 C   0  0  0  0  0  0  0  0  0  0  0  0
   19.9338   -5.9386  -14.4522 O   0  0  0  0  0  0  0  0  0  0  0  0
   21.7761   -7.1415  -13.9448 O   0  0  0  0  0  0  0  0  0  0  0  0
  2  1  1  6
  2  8  1  0
  3  2  1  0
  4  3  1  0
  5  4  1  0
  6  5  1  0
  7  6  1  0
  8  9  2  0
 11 10  1  1
 12  8  1  0
 12 11  1  0
 13 19  1  0
 13 11  1  0
 14 13  2  0
 16 15  1  1
 17 16  1  0
 18 19  1  6
 18 16  1  0
 20 21  1  0
 20 18  1  0
 22 20  2  0
M  END
$$$$
