KAT.pdb
     RDKit          3D

 22 21  0  0  1  0  0  0  0  0999 V2000
   20.3951  -11.3812  -18.0062 N   0  0  0  0  0  0  0  0  0  0  0  0
   19.4170  -10.3936  -17.5998 C   0  0  1  0  0  0  0  0  0  0  0  0
   18.0441  -11.0120  -17.4236 C   0  0  0  0  0  0  0  0  0  0  0  0
   17.8295  -12.0067  -18.5123 C   0  0  0  0  0  0  0  0  0  0  0  0
   17.4261  -13.3663  -18.0706 C   0  0  0  0  0  0  0  0  0  0  0  0
   17.0706  -14.3228  -19.1536 C   0  0  0  0  0  0  0  0  0  0  0  0
   16.5563  -15.5833  -18.6576 N   0  0  0  0  0  0  0  0  0  0  0  0
   19.9039   -9.6790  -16.4274 C   0  0  0  0  0  0  0  0  0  0  0  0
   19.1696   -8.8181  -15.8843 O   0  0  0  0  0  0  0  0  0  0  0  0
   22.9983   -9.6638  -14.1983 C   0  0  0  0  0  0  0  0  0  0  0  0
   21.6842   -9.1208  -14.7339 C   0  0  2  0  0  0  0  0  0  0  0  0
   21.1813   -9.8838  -15.8305 N   0  0  0  0  0  0  0  0  0  0  0  0
   21.8867   -7.6894  -15.0635 C   0  0  0  0  0  0  0  0  0  0  0  0
   22.4926   -7.3383  -16.1092 O   0  0  0  0  0  0  0  0  0  0  0  0
   19.5741   -5.0867  -15.8561 C   0  0  0  0  0  0  0  0  0  0  0  0
   20.3123   -4.5427  -14.6752 C   0  0  1  0  0  0  0  0  0  0  0  0
   19.5345   -4.7334  -13.5351 O   0  0  0  0  0  0  0  0  0  0  0  0
   21.6614   -5.2439  -14.4857 C   0  0  2  0  0  0  0  0  0  0  0  0
   21.4071   -6.6541  -14.2161 N   0  0  0  0  0  0  0  0  0  0  0  0
   22.4298   -4.6407  -13.3934 C   0  0  0  0  0  0  0  0  0  0  0  0
   22.6886   -5.2657  -12.1766 O   0  0  0  0  0  0  0  0  0  0  0  0
   22.8952   -3.4819  -13.5455 O   0  0  0  0  0  0  0  0  0  0  0  0
  2  1  1  1
  2  8  1  0
  3  2  1  0
  4  3  1  0
  5  4  1  0
  6  5  1  0
  7  6  1  0
  8  9  2  0
 11 10  1  6
 12  8  1  0
 12 11  1  0
 13 19  1  0
 13 11  1  0
 14 13  2  0
 16 15  1  6
 17 16  1  0
 18 19  1  1
 18 16  1  0
 20 21  1  0
 20 18  1  0
 22 20  2  0
M  END
$$$$
