KAT.pdb
     RDKit          3D

 22 21  0  0  1  0  0  0  0  0999 V2000
   17.3290  -11.7199  -14.6534 N   0  0  0  0  0  0  0  0  0  0  0  0
   18.5623  -11.5967  -15.4024 C   0  0  1  0  0  0  0  0  0  0  0  0
   18.4775  -12.3174  -16.7335 C   0  0  0  0  0  0  0  0  0  0  0  0
   17.2401  -11.8730  -17.4347 C   0  0  0  0  0  0  0  0  0  0  0  0
   16.9866  -12.5058  -18.7545 C   0  0  0  0  0  0  0  0  0  0  0  0
   16.0152  -13.6330  -18.7590 C   0  0  0  0  0  0  0  0  0  0  0  0
   15.7647  -14.1671  -20.0824 N   0  0  0  0  0  0  0  0  0  0  0  0
   18.9301  -10.1911  -15.5079 C   0  0  0  0  0  0  0  0  0  0  0  0
   19.9760   -9.8749  -16.1256 O   0  0  0  0  0  0  0  0  0  0  0  0
   17.2713   -6.8392  -14.8717 C   0  0  0  0  0  0  0  0  0  0  0  0
   18.4544   -7.7368  -15.1931 C   0  0  2  0  0  0  0  0  0  0  0  0
   18.1781   -9.1163  -14.9516 N   0  0  0  0  0  0  0  0  0  0  0  0
   19.6236   -7.2342  -14.4322 C   0  0  0  0  0  0  0  0  0  0  0  0
   19.7963   -7.5370  -13.2229 O   0  0  0  0  0  0  0  0  0  0  0  0
   23.3154   -7.6021  -15.3166 C   0  0  0  0  0  0  0  0  0  0  0  0
   23.0024   -6.1458  -15.1879 C   0  0  1  0  0  0  0  0  0  0  0  0
   22.7621   -5.6262  -16.4582 O   0  0  0  0  0  0  0  0  0  0  0  0
   21.7693   -5.9130  -14.3087 C   0  0  2  0  0  0  0  0  0  0  0  0
   20.5975   -6.3913  -15.0328 N   0  0  0  0  0  0  0  0  0  0  0  0
   21.6183   -4.4972  -13.9618 C   0  0  0  0  0  0  0  0  0  0  0  0
   22.4010   -3.8307  -13.0230 O   0  0  0  0  0  0  0  0  0  0  0  0
   20.7280   -3.8217  -14.5394 O   0  0  0  0  0  0  0  0  0  0  0  0
  2  1  1  6
  2  8  1  0
  3  2  1  0
  4  3  1  0
  5  4  1  0
  6  5  1  0
  7  6  1  0
  8  9  2  0
 11 10  1  1
 12  8  1  0
 12 11  1  0
 13 19  1  0
 13 11  1  0
 14 13  2  0
 16 15  1  6
 17 16  1  0
 18 19  1  6
 18 16  1  0
 20 21  1  0
 20 18  1  0
 22 20  2  0
M  END
$$$$
