KAT.pdb
     RDKit          3D

 22 21  0  0  1  0  0  0  0  0999 V2000
   26.9410  -20.2695  -15.5336 N   0  0  0  0  0  0  0  0  0  0  0  0
   26.2571  -19.8247  -14.3372 C   0  0  1  0  0  0  0  0  0  0  0  0
   27.2182  -19.1871  -13.3532 C   0  0  0  0  0  0  0  0  0  0  0  0
   28.5738  -19.7658  -13.5727 C   0  0  0  0  0  0  0  0  0  0  0  0
   29.3897  -19.9741  -12.3490 C   0  0  0  0  0  0  0  0  0  0  0  0
   29.8600  -21.3656  -12.1106 C   0  0  0  0  0  0  0  0  0  0  0  0
   30.6845  -21.4958  -10.9263 N   0  0  0  0  0  0  0  0  0  0  0  0
   25.1315  -18.9766  -14.7058 C   0  0  0  0  0  0  0  0  0  0  0  0
   24.3742  -18.5364  -13.8069 O   0  0  0  0  0  0  0  0  0  0  0  0
   24.0696  -16.8369  -17.5807 C   0  0  0  0  0  0  0  0  0  0  0  0
   23.7398  -17.7190  -16.3884 C   0  0  2  0  0  0  0  0  0  0  0  0
   24.8118  -18.5954  -16.0409 N   0  0  0  0  0  0  0  0  0  0  0  0
   22.4764  -18.4340  -16.6900 C   0  0  0  0  0  0  0  0  0  0  0  0
   22.4792  -19.5507  -17.2705 O   0  0  0  0  0  0  0  0  0  0  0  0
   19.5855  -19.1164  -14.1542 C   0  0  0  0  0  0  0  0  0  0  0  0
   19.0559  -18.4020  -15.3560 C   0  0  1  0  0  0  0  0  0  0  0  0
   18.9780  -17.0409  -15.0688 O   0  0  0  0  0  0  0  0  0  0  0  0
   19.9620  -18.6069  -16.5745 C   0  0  2  0  0  0  0  0  0  0  0  0
   21.2107  -17.8918  -16.3382 N   0  0  0  0  0  0  0  0  0  0  0  0
   19.3214  -18.1329  -17.8042 C   0  0  0  0  0  0  0  0  0  0  0  0
   18.2791  -18.7911  -18.4511 O   0  0  0  0  0  0  0  0  0  0  0  0
   19.7257  -17.0619  -18.3260 O   0  0  0  0  0  0  0  0  0  0  0  0
  2  1  1  6
  2  8  1  0
  3  2  1  0
  4  3  1  0
  5  4  1  0
  6  5  1  0
  7  6  1  0
  8  9  2  0
 11 10  1  6
 12  8  1  0
 12 11  1  0
 13 19  1  0
 13 11  1  0
 14 13  2  0
 16 15  1  1
 17 16  1  0
 18 19  1  1
 18 16  1  0
 20 21  1  0
 20 18  1  0
 22 20  2  0
M  END
$$$$
