KHE.pdb
     RDKit          3D

 29 29  0  0  1  0  0  0  0  0999 V2000
   10.5787  -13.5117   19.3799 N   0  0  0  0  0  0  0  0  0  0  0  0
    9.4289  -13.3858   20.2557 C   0  0  1  0  0  0  0  0  0  0  0  0
    8.2180  -12.8836   19.4954 C   0  0  0  0  0  0  0  0  0  0  0  0
    8.0204  -13.8322   18.3256 C   0  0  0  0  0  0  0  0  0  0  0  0
    8.1109  -13.1023   16.9938 C   0  0  0  0  0  0  0  0  0  0  0  0
    7.6493  -13.9995   15.8632 C   0  0  0  0  0  0  0  0  0  0  0  0
    7.6641  -13.2160   14.6394 N   0  0  0  0  0  0  0  0  0  0  0  0
    9.1390  -14.6708   20.9480 C   0  0  0  0  0  0  0  0  0  0  0  0
    8.1823  -14.7404   21.7462 O   0  0  0  0  0  0  0  0  0  0  0  0
    9.9497  -15.8129   20.6977 N   0  0  0  0  0  0  0  0  0  0  0  0
    9.7503  -17.0850   21.4138 C   0  0  1  0  0  0  0  0  0  0  0  0
    9.8317  -18.2324   20.4787 C   0  0  0  0  0  0  0  0  0  0  0  0
    9.5873  -19.5638   21.0646 C   0  0  0  0  0  0  0  0  0  0  0  0
    9.3448  -19.8659   22.3979 C   0  0  0  0  0  0  0  0  0  0  0  0
    9.1861  -21.1954   22.4572 N   0  0  0  0  0  0  0  0  0  0  0  0
    9.3165  -21.7421   21.2318 C   0  0  0  0  0  0  0  0  0  0  0  0
    9.5598  -20.7241   20.4050 N   0  0  0  0  0  0  0  0  0  0  0  0
   10.7463  -17.1410   22.5341 C   0  0  0  0  0  0  0  0  0  0  0  0
   11.8469  -16.5690   22.4959 O   0  0  0  0  0  0  0  0  0  0  0  0
   10.4584  -17.8774   23.7218 N   0  0  0  0  0  0  0  0  0  0  0  0
   11.3886  -17.9684   24.8443 C   0  0  1  0  0  0  0  0  0  0  0  0
   10.6683  -18.2829   26.1113 C   0  0  0  0  0  0  0  0  0  0  0  0
   11.6114  -18.5377   27.2424 C   0  0  0  0  0  0  0  0  0  0  0  0
   10.8517  -18.9809   28.4719 C   0  0  0  0  0  0  0  0  0  0  0  0
    9.7585  -19.5630   28.3373 O   0  0  0  0  0  0  0  0  0  0  0  0
   12.4362  -18.9706   24.5715 C   0  0  0  0  0  0  0  0  0  0  0  0
   12.1721  -20.2088   24.0202 O   0  0  0  0  0  0  0  0  0  0  0  0
   11.3341  -18.7594   29.7461 O   0  0  0  0  0  0  0  0  0  0  0  0
   13.6503  -18.7058   24.8534 O   0  0  0  0  0  0  0  0  0  0  0  0
  2  1  1  6
  3  2  1  0
  4  5  1  0
  4  3  1  0
  6  7  1  0
  6  5  1  0
  8  2  1  0
  9  8  2  0
 10  8  1  0
 11 10  1  0
 12 13  1  0
 11 12  1  6
 13 14  2  0
 14 15  1  0
 16 15  1  0
 17 13  1  0
 17 16  2  0
 18 11  1  0
 18 19  2  0
 20 18  1  0
 21 20  1  0
 21 22  1  1
 23 22  1  0
 24 23  1  0
 24 25  2  0
 26 21  1  0
 27 26  1  0
 28 24  1  0
 29 26  2  0
M  END
$$$$
