KHE.pdb
     RDKit          3D

 29 29  0  0  1  0  0  0  0  0999 V2000
    7.6294  -18.1610   17.5856 N   0  0  0  0  0  0  0  0  0  0  0  0
    8.0527  -18.6389   18.8884 C   0  0  1  0  0  0  0  0  0  0  0  0
    8.8147  -19.9432   18.7685 C   0  0  0  0  0  0  0  0  0  0  0  0
    8.1560  -20.9165   19.7309 C   0  0  0  0  0  0  0  0  0  0  0  0
    9.1158  -22.0184   20.1542 C   0  0  0  0  0  0  0  0  0  0  0  0
    8.4593  -22.9359   21.1660 C   0  0  0  0  0  0  0  0  0  0  0  0
    9.4560  -23.8969   21.6072 N   0  0  0  0  0  0  0  0  0  0  0  0
    8.8529  -17.6080   19.6036 C   0  0  0  0  0  0  0  0  0  0  0  0
   10.0555  -17.4472   19.3119 O   0  0  0  0  0  0  0  0  0  0  0  0
    8.2462  -16.8102   20.6135 N   0  0  0  0  0  0  0  0  0  0  0  0
    8.9826  -15.7438   21.3145 C   0  0  1  0  0  0  0  0  0  0  0  0
    8.1881  -14.4928   21.3498 C   0  0  0  0  0  0  0  0  0  0  0  0
    7.9423  -13.8449   20.0477 C   0  0  0  0  0  0  0  0  0  0  0  0
    6.7297  -13.3867   19.5502 C   0  0  0  0  0  0  0  0  0  0  0  0
    6.9907  -12.8793   18.3376 N   0  0  0  0  0  0  0  0  0  0  0  0
    8.3025  -12.9954   18.0490 C   0  0  0  0  0  0  0  0  0  0  0  0
    8.8556  -13.5864   19.1090 N   0  0  0  0  0  0  0  0  0  0  0  0
    9.3606  -16.2631   22.6701 C   0  0  0  0  0  0  0  0  0  0  0  0
    8.5339  -16.6948   23.4887 O   0  0  0  0  0  0  0  0  0  0  0  0
   10.7262  -16.2797   23.0834 N   0  0  0  0  0  0  0  0  0  0  0  0
   11.2170  -17.1264   24.1677 C   0  0  1  0  0  0  0  0  0  0  0  0
   11.7252  -18.4261   23.6428 C   0  0  0  0  0  0  0  0  0  0  0  0
   12.2349  -19.3096   24.7353 C   0  0  0  0  0  0  0  0  0  0  0  0
   12.8275  -20.5742   24.1566 C   0  0  0  0  0  0  0  0  0  0  0  0
   12.5224  -20.9171   22.9984 O   0  0  0  0  0  0  0  0  0  0  0  0
   12.2601  -16.4272   24.9419 C   0  0  0  0  0  0  0  0  0  0  0  0
   12.5923  -16.7647   26.2390 O   0  0  0  0  0  0  0  0  0  0  0  0
   13.7007  -21.3654   24.8756 O   0  0  0  0  0  0  0  0  0  0  0  0
   12.8963  -15.4592   24.4111 O   0  0  0  0  0  0  0  0  0  0  0  0
  2  1  1  6
  3  2  1  0
  4  5  1  0
  4  3  1  0
  6  7  1  0
  6  5  1  0
  8  2  1  0
  9  8  2  0
 10  8  1  0
 11 10  1  0
 12 13  1  0
 11 12  1  1
 13 14  2  0
 14 15  1  0
 16 15  1  0
 17 13  1  0
 17 16  2  0
 18 11  1  0
 18 19  2  0
 20 18  1  0
 21 20  1  0
 21 22  1  6
 23 22  1  0
 24 23  1  0
 24 25  2  0
 26 21  1  0
 27 26  1  0
 28 24  1  0
 29 26  2  0
M  END
$$$$
