KHE.pdb
     RDKit          3D

 29 29  0  0  1  0  0  0  0  0999 V2000
    7.4687  -15.1996   19.2952 N   0  0  0  0  0  0  0  0  0  0  0  0
    8.6059  -14.3172   19.4768 C   0  0  1  0  0  0  0  0  0  0  0  0
    8.4714  -13.0731   18.6221 C   0  0  0  0  0  0  0  0  0  0  0  0
    7.6903  -13.4829   17.3855 C   0  0  0  0  0  0  0  0  0  0  0  0
    8.5425  -14.3122   16.4366 C   0  0  0  0  0  0  0  0  0  0  0  0
    7.7728  -14.6302   15.1705 C   0  0  0  0  0  0  0  0  0  0  0  0
    8.5808  -15.5392   14.3753 N   0  0  0  0  0  0  0  0  0  0  0  0
    8.7918  -13.9707   20.9121 C   0  0  0  0  0  0  0  0  0  0  0  0
    9.8039  -13.3331   21.2676 O   0  0  0  0  0  0  0  0  0  0  0  0
    7.8177  -14.3647   21.8714 N   0  0  0  0  0  0  0  0  0  0  0  0
    8.0362  -14.2016   23.3193 C   0  0  1  0  0  0  0  0  0  0  0  0
    6.8272  -13.6467   23.9737 C   0  0  0  0  0  0  0  0  0  0  0  0
    6.9321  -13.3980   25.4237 C   0  0  0  0  0  0  0  0  0  0  0  0
    7.5816  -12.3445   26.0530 C   0  0  0  0  0  0  0  0  0  0  0  0
    7.4149  -12.5350   27.3691 N   0  0  0  0  0  0  0  0  0  0  0  0
    6.6956  -13.6521   27.5976 C   0  0  0  0  0  0  0  0  0  0  0  0
    6.4160  -14.1553   26.3945 N   0  0  0  0  0  0  0  0  0  0  0  0
    8.4714  -15.5276   23.8691 C   0  0  0  0  0  0  0  0  0  0  0  0
    7.8947  -16.5951   23.6088 O   0  0  0  0  0  0  0  0  0  0  0  0
    9.5984  -15.6150   24.7399 N   0  0  0  0  0  0  0  0  0  0  0  0
   10.1131  -16.8844   25.2469 C   0  0  1  0  0  0  0  0  0  0  0  0
   11.5068  -17.1233   24.7742 C   0  0  0  0  0  0  0  0  0  0  0  0
   12.0838  -18.3781   25.3454 C   0  0  0  0  0  0  0  0  0  0  0  0
   13.4689  -18.6210   24.7906 C   0  0  0  0  0  0  0  0  0  0  0  0
   13.6641  -18.5091   23.5652 O   0  0  0  0  0  0  0  0  0  0  0  0
   10.0430  -16.9227   26.7200 C   0  0  0  0  0  0  0  0  0  0  0  0
   10.1297  -18.0913   27.4505 O   0  0  0  0  0  0  0  0  0  0  0  0
   14.5299  -18.9651   25.6037 O   0  0  0  0  0  0  0  0  0  0  0  0
    9.8912  -15.8385   27.3720 O   0  0  0  0  0  0  0  0  0  0  0  0
  2  1  1  1
  3  2  1  0
  4  5  1  0
  4  3  1  0
  6  7  1  0
  6  5  1  0
  8  2  1  0
  9  8  2  0
 10  8  1  0
 11 10  1  0
 12 13  1  0
 11 12  1  1
 13 14  2  0
 14 15  1  0
 16 15  1  0
 17 13  1  0
 17 16  2  0
 18 11  1  0
 18 19  2  0
 20 18  1  0
 21 20  1  0
 21 22  1  1
 23 22  1  0
 24 23  1  0
 24 25  2  0
 26 21  1  0
 27 26  1  0
 28 24  1  0
 29 26  2  0
M  END
$$$$
