KHE.pdb
     RDKit          3D

 29 29  0  0  1  0  0  0  0  0999 V2000
    9.1788  -15.3475   18.9385 N   0  0  0  0  0  0  0  0  0  0  0  0
    8.8435  -14.2125   19.7778 C   0  0  1  0  0  0  0  0  0  0  0  0
    7.8582  -13.2942   19.0832 C   0  0  0  0  0  0  0  0  0  0  0  0
    7.3731  -14.0370   17.8503 C   0  0  0  0  0  0  0  0  0  0  0  0
    8.0264  -13.5033   16.5843 C   0  0  0  0  0  0  0  0  0  0  0  0
    7.5191  -14.2514   15.3679 C   0  0  0  0  0  0  0  0  0  0  0  0
    8.3065  -13.8252   14.2234 N   0  0  0  0  0  0  0  0  0  0  0  0
    8.3287  -14.6577   21.1012 C   0  0  0  0  0  0  0  0  0  0  0  0
    7.9787  -13.8082   21.9455 O   0  0  0  0  0  0  0  0  0  0  0  0
    8.2361  -16.0460   21.3984 N   0  0  0  0  0  0  0  0  0  0  0  0
    7.9062  -16.5359   22.7482 C   0  0  1  0  0  0  0  0  0  0  0  0
    7.3192  -17.8957   22.6845 C   0  0  0  0  0  0  0  0  0  0  0  0
    7.0091  -18.5285   23.9803 C   0  0  0  0  0  0  0  0  0  0  0  0
    6.2589  -17.9956   25.0200 C   0  0  0  0  0  0  0  0  0  0  0  0
    6.2500  -18.9224   25.9880 N   0  0  0  0  0  0  0  0  0  0  0  0
    6.9549  -20.0076   25.6098 C   0  0  0  0  0  0  0  0  0  0  0  0
    7.4042  -19.7383   24.3832 N   0  0  0  0  0  0  0  0  0  0  0  0
    9.1488  -16.4479   23.5839 C   0  0  0  0  0  0  0  0  0  0  0  0
   10.2919  -16.5834   23.1204 O   0  0  0  0  0  0  0  0  0  0  0  0
    9.0614  -16.1989   24.9861 N   0  0  0  0  0  0  0  0  0  0  0  0
   10.2366  -16.0307   25.8370 C   0  0  1  0  0  0  0  0  0  0  0  0
    9.8815  -15.3364   27.1078 C   0  0  0  0  0  0  0  0  0  0  0  0
   11.0688  -15.1568   27.9977 C   0  0  0  0  0  0  0  0  0  0  0  0
   10.6627  -14.4816   29.2878 C   0  0  0  0  0  0  0  0  0  0  0  0
   10.9587  -13.2853   29.4704 O   0  0  0  0  0  0  0  0  0  0  0  0
   10.8724  -17.3339   26.1090 C   0  0  0  0  0  0  0  0  0  0  0  0
   12.2323  -17.4874   26.2927 O   0  0  0  0  0  0  0  0  0  0  0  0
    9.9705  -15.1530   30.2755 O   0  0  0  0  0  0  0  0  0  0  0  0
   10.1534  -18.3836   26.1784 O   0  0  0  0  0  0  0  0  0  0  0  0
  2  1  1  6
  3  2  1  0
  4  5  1  0
  4  3  1  0
  6  7  1  0
  6  5  1  0
  8  2  1  0
  9  8  2  0
 10  8  1  0
 11 10  1  0
 12 13  1  0
 11 12  1  6
 13 14  2  0
 14 15  1  0
 16 15  1  0
 17 13  1  0
 17 16  2  0
 18 11  1  0
 18 19  2  0
 20 18  1  0
 21 20  1  0
 21 22  1  1
 23 22  1  0
 24 23  1  0
 24 25  2  0
 26 21  1  0
 27 26  1  0
 28 24  1  0
 29 26  2  0
M  END
$$$$
