CQG.pdb
     RDKit          3D

 20 19  0  0  1  0  0  0  0  0999 V2000
   26.2945  -21.6886  -12.0418 N   0  0  0  0  0  0  0  0  0  0  0  0
   26.0949  -20.4993  -12.8473 C   0  0  1  0  0  0  0  0  0  0  0  0
   27.3167  -20.2002  -13.6918 C   0  0  0  0  0  0  0  0  0  0  0  0
   28.6441  -19.5242  -12.6626 S   0  0  0  0  0  0  0  0  0  0  0  0
   24.9133  -20.7157  -13.7562 C   0  0  0  0  0  0  0  0  0  0  0  0
   24.7309  -21.8613  -14.2088 O   0  0  0  0  0  0  0  0  0  0  0  0
   22.1765  -21.1555  -12.0558 N   0  0  0  0  0  0  0  0  0  0  0  0
   21.1161  -21.4985  -12.9306 C   0  0  0  0  0  0  0  0  0  0  0  0
   20.4927  -22.5659  -12.7313 O   0  0  0  0  0  0  0  0  0  0  0  0
   20.7745  -20.6074  -14.0380 C   0  0  0  0  0  0  0  0  0  0  0  0
   21.6794  -19.4154  -14.1555 C   0  0  0  0  0  0  0  0  0  0  0  0
   22.8957  -19.8249  -14.9162 C   0  0  2  0  0  0  0  0  0  0  0  0
   24.0562  -19.6444  -14.0705 N   0  0  0  0  0  0  0  0  0  0  0  0
   23.1095  -19.0563  -16.1786 C   0  0  0  0  0  0  0  0  0  0  0  0
   22.7909  -17.8476  -16.3094 O   0  0  0  0  0  0  0  0  0  0  0  0
   23.7018  -19.6673  -17.3342 N   0  0  0  0  0  0  0  0  0  0  0  0
   23.8924  -18.9757  -18.5680 C   0  0  0  0  0  0  0  0  0  0  0  0
   22.6571  -18.8397  -19.3706 C   0  0  0  0  0  0  0  0  0  0  0  0
   21.9223  -19.8591  -19.4504 O   0  0  0  0  0  0  0  0  0  0  0  0
   22.2630  -17.7037  -20.0216 O   0  0  0  0  0  0  0  0  0  0  0  0
  2  3  1  0
  2  1  1  6
  4  3  1  0
  5  6  2  0
  5  2  1  0
  7  8  1  0
  8 10  1  0
  9  8  2  0
 10 11  1  0
 12 11  1  1
 12 13  1  0
 13  5  1  0
 14 16  1  0
 14 12  1  0
 15 14  2  0
 17 16  1  0
 18 17  1  0
 19 18  2  0
 20 18  1  0
M  END
$$$$
