CQG.pdb
     RDKit          3D

 20 19  0  0  1  0  0  0  0  0999 V2000
   14.0518   -9.2990   -9.0714 N   0  0  0  0  0  0  0  0  0  0  0  0
   14.8329   -8.1194   -9.3898 C   0  0  1  0  0  0  0  0  0  0  0  0
   15.1601   -7.3273   -8.1404 C   0  0  0  0  0  0  0  0  0  0  0  0
   13.6400   -6.8556   -7.2771 S   0  0  0  0  0  0  0  0  0  0  0  0
   16.1184   -8.5461  -10.0489 C   0  0  0  0  0  0  0  0  0  0  0  0
   16.4314   -9.7497   -9.9865 O   0  0  0  0  0  0  0  0  0  0  0  0
   17.8188  -10.8869  -15.6570 N   0  0  0  0  0  0  0  0  0  0  0  0
   17.8487  -10.6936  -14.2538 C   0  0  0  0  0  0  0  0  0  0  0  0
   17.6045  -11.6681  -13.5066 O   0  0  0  0  0  0  0  0  0  0  0  0
   18.1612   -9.3723  -13.7119 C   0  0  0  0  0  0  0  0  0  0  0  0
   17.1547   -8.8745  -12.7156 C   0  0  0  0  0  0  0  0  0  0  0  0
   17.8580   -7.9877  -11.7437 C   0  0  2  0  0  0  0  0  0  0  0  0
   16.9244   -7.5991  -10.7084 N   0  0  0  0  0  0  0  0  0  0  0  0
   18.4265   -6.7488  -12.3537 C   0  0  0  0  0  0  0  0  0  0  0  0
   17.7166   -5.7924  -12.7547 O   0  0  0  0  0  0  0  0  0  0  0  0
   19.8419   -6.5789  -12.5187 N   0  0  0  0  0  0  0  0  0  0  0  0
   20.4180   -5.4545  -13.1825 C   0  0  0  0  0  0  0  0  0  0  0  0
   21.8871   -5.3641  -13.0330 C   0  0  0  0  0  0  0  0  0  0  0  0
   22.4367   -6.2490  -12.3257 O   0  0  0  0  0  0  0  0  0  0  0  0
   22.6778   -4.4030  -13.5993 O   0  0  0  0  0  0  0  0  0  0  0  0
  2  3  1  0
  2  1  1  1
  4  3  1  0
  5  6  2  0
  5  2  1  0
  7  8  1  0
  8 10  1  0
  9  8  2  0
 10 11  1  0
 12 11  1  6
 12 13  1  0
 13  5  1  0
 14 16  1  0
 14 12  1  0
 15 14  2  0
 17 16  1  0
 18 17  1  0
 19 18  2  0
 20 18  1  0
M  END
$$$$
