CQG.pdb
     RDKit          3D

 20 19  0  0  1  0  0  0  0  0999 V2000
   18.1308  -11.2000  -15.1180 N   0  0  0  0  0  0  0  0  0  0  0  0
   18.3630   -9.8798  -15.6713 C   0  0  1  0  0  0  0  0  0  0  0  0
   17.1257   -9.0132  -15.5547 C   0  0  0  0  0  0  0  0  0  0  0  0
   15.7783   -9.7016  -16.5492 S   0  0  0  0  0  0  0  0  0  0  0  0
   19.4915   -9.2246  -14.9186 C   0  0  0  0  0  0  0  0  0  0  0  0
   19.5499   -9.4040  -13.6877 O   0  0  0  0  0  0  0  0  0  0  0  0
   25.0729   -9.8121  -16.1790 N   0  0  0  0  0  0  0  0  0  0  0  0
   24.2611  -10.3905  -15.1721 C   0  0  0  0  0  0  0  0  0  0  0  0
   24.6151  -11.4792  -14.6650 O   0  0  0  0  0  0  0  0  0  0  0  0
   23.0378   -9.7107  -14.7496 C   0  0  0  0  0  0  0  0  0  0  0  0
   22.8196   -8.3864  -15.4220 C   0  0  0  0  0  0  0  0  0  0  0  0
   21.5419   -7.8084  -14.9128 C   0  0  2  0  0  0  0  0  0  0  0  0
   20.4378   -8.4395  -15.6036 N   0  0  0  0  0  0  0  0  0  0  0  0
   21.4286   -6.3307  -15.0959 C   0  0  0  0  0  0  0  0  0  0  0  0
   21.0807   -5.7974  -16.1795 O   0  0  0  0  0  0  0  0  0  0  0  0
   21.7160   -5.4207  -14.0242 N   0  0  0  0  0  0  0  0  0  0  0  0
   21.8003   -4.0075  -14.2053 C   0  0  0  0  0  0  0  0  0  0  0  0
   20.4998   -3.3133  -14.0808 C   0  0  0  0  0  0  0  0  0  0  0  0
   19.4832   -4.0428  -13.9407 O   0  0  0  0  0  0  0  0  0  0  0  0
   20.3263   -1.9573  -14.1067 O   0  0  0  0  0  0  0  0  0  0  0  0
  2  3  1  0
  2  1  1  1
  4  3  1  0
  5  6  2  0
  5  2  1  0
  7  8  1  0
  8 10  1  0
  9  8  2  0
 10 11  1  0
 12 11  1  6
 12 13  1  0
 13  5  1  0
 14 16  1  0
 14 12  1  0
 15 14  2  0
 17 16  1  0
 18 17  1  0
 19 18  2  0
 20 18  1  0
M  END
$$$$
