CQG.pdb
     RDKit          3D

 20 19  0  0  1  0  0  0  0  0999 V2000
   15.5897  -11.4835  -13.1184 N   0  0  0  0  0  0  0  0  0  0  0  0
   15.9549  -10.3356  -12.3110 C   0  0  1  0  0  0  0  0  0  0  0  0
   16.0168  -10.6988  -10.8414 C   0  0  0  0  0  0  0  0  0  0  0  0
   14.3705  -11.1420  -10.2319 S   0  0  0  0  0  0  0  0  0  0  0  0
   17.3077   -9.8386  -12.7493 C   0  0  0  0  0  0  0  0  0  0  0  0
   18.3136  -10.3693  -12.2421 O   0  0  0  0  0  0  0  0  0  0  0  0
   21.1834   -9.8268  -16.1495 N   0  0  0  0  0  0  0  0  0  0  0  0
   20.0862  -10.7221  -16.1030 C   0  0  0  0  0  0  0  0  0  0  0  0
   20.3029  -11.9474  -16.2415 O   0  0  0  0  0  0  0  0  0  0  0  0
   18.7359  -10.2017  -15.8962 C   0  0  0  0  0  0  0  0  0  0  0  0
   18.6829   -8.7117  -15.7209 C   0  0  0  0  0  0  0  0  0  0  0  0
   18.6847   -8.4126  -14.2593 C   0  0  2  0  0  0  0  0  0  0  0  0
   17.4088   -8.8075  -13.7020 N   0  0  0  0  0  0  0  0  0  0  0  0
   18.9147   -6.9732  -13.9345 C   0  0  0  0  0  0  0  0  0  0  0  0
   17.9908   -6.1222  -13.8929 O   0  0  0  0  0  0  0  0  0  0  0  0
   20.2285   -6.4729  -13.6466 N   0  0  0  0  0  0  0  0  0  0  0  0
   20.4866   -5.1078  -13.3200 C   0  0  0  0  0  0  0  0  0  0  0  0
   21.8757   -4.8542  -12.8786 C   0  0  0  0  0  0  0  0  0  0  0  0
   22.5839   -5.8671  -12.6379 O   0  0  0  0  0  0  0  0  0  0  0  0
   22.4362   -3.6177  -12.7160 O   0  0  0  0  0  0  0  0  0  0  0  0
  2  3  1  0
  2  1  1  6
  4  3  1  0
  5  6  2  0
  5  2  1  0
  7  8  1  0
  8 10  1  0
  9  8  2  0
 10 11  1  0
 12 11  1  6
 12 13  1  0
 13  5  1  0
 14 16  1  0
 14 12  1  0
 15 14  2  0
 17 16  1  0
 18 17  1  0
 19 18  2  0
 20 18  1  0
M  END
$$$$
