CQG.pdb
     RDKit          3D

 20 19  0  0  1  0  0  0  0  0999 V2000
   25.6379  -20.8573  -16.2228 N   0  0  0  0  0  0  0  0  0  0  0  0
   26.8846  -21.5702  -16.4237 C   0  0  1  0  0  0  0  0  0  0  0  0
   28.0148  -20.9233  -15.6493 C   0  0  0  0  0  0  0  0  0  0  0  0
   28.4915  -19.3563  -16.4212 S   0  0  0  0  0  0  0  0  0  0  0  0
   26.7185  -22.9909  -15.9511 C   0  0  0  0  0  0  0  0  0  0  0  0
   26.1676  -23.1758  -14.8498 O   0  0  0  0  0  0  0  0  0  0  0  0
   24.4713  -27.3040  -15.4859 N   0  0  0  0  0  0  0  0  0  0  0  0
   23.8865  -26.2344  -16.2079 C   0  0  0  0  0  0  0  0  0  0  0  0
   22.6996  -25.9204  -15.9626 O   0  0  0  0  0  0  0  0  0  0  0  0
   24.6737  -25.5258  -17.2155 C   0  0  0  0  0  0  0  0  0  0  0  0
   26.0617  -26.0702  -17.3906 C   0  0  0  0  0  0  0  0  0  0  0  0
   26.9446  -25.4372  -16.3682 C   0  0  2  0  0  0  0  0  0  0  0  0
   27.1780  -24.0592  -16.7439 N   0  0  0  0  0  0  0  0  0  0  0  0
   28.2674  -26.1115  -16.2073 C   0  0  0  0  0  0  0  0  0  0  0  0
   28.3947  -27.2726  -15.7433 O   0  0  0  0  0  0  0  0  0  0  0  0
   29.4894  -25.4583  -16.5807 N   0  0  0  0  0  0  0  0  0  0  0  0
   30.7698  -26.0775  -16.4625 C   0  0  0  0  0  0  0  0  0  0  0  0
   31.8851  -25.2343  -16.9461 C   0  0  0  0  0  0  0  0  0  0  0  0
   31.5765  -24.1082  -17.4172 O   0  0  0  0  0  0  0  0  0  0  0  0
   33.2062  -25.5856  -16.9183 O   0  0  0  0  0  0  0  0  0  0  0  0
  2  3  1  0
  2  1  1  1
  4  3  1  0
  5  6  2  0
  5  2  1  0
  7  8  1  0
  8 10  1  0
  9  8  2  0
 10 11  1  0
 12 11  1  6
 12 13  1  0
 13  5  1  0
 14 16  1  0
 14 12  1  0
 15 14  2  0
 17 16  1  0
 18 17  1  0
 19 18  2  0
 20 18  1  0
M  END
$$$$
