CQG.pdb
     RDKit          3D

 20 19  0  0  1  0  0  0  0  0999 V2000
   34.9031  -35.4533   -3.0051 N   0  0  0  0  0  0  0  0  0  0  0  0
   33.6360  -36.0769   -3.3344 C   0  0  1  0  0  0  0  0  0  0  0  0
   33.5928  -37.5132   -2.8538 C   0  0  0  0  0  0  0  0  0  0  0  0
   34.5694  -38.5738   -3.9492 S   0  0  0  0  0  0  0  0  0  0  0  0
   32.5237  -35.3063   -2.6725 C   0  0  0  0  0  0  0  0  0  0  0  0
   32.8182  -34.5725   -1.7105 O   0  0  0  0  0  0  0  0  0  0  0  0
   27.1716  -33.3045   -5.2313 N   0  0  0  0  0  0  0  0  0  0  0  0
   26.9849  -33.1116   -3.8401 C   0  0  0  0  0  0  0  0  0  0  0  0
   25.9856  -32.4657   -3.4507 O   0  0  0  0  0  0  0  0  0  0  0  0
   27.9541  -33.6656   -2.8963 C   0  0  0  0  0  0  0  0  0  0  0  0
   29.0778  -34.4133   -3.5533 C   0  0  0  0  0  0  0  0  0  0  0  0
   30.1082  -34.7140   -2.5172 C   0  0  2  0  0  0  0  0  0  0  0  0
   31.2022  -35.4263   -3.1418 N   0  0  0  0  0  0  0  0  0  0  0  0
   29.6015  -35.5356   -1.3777 C   0  0  0  0  0  0  0  0  0  0  0  0
   29.6948  -36.7883   -1.3391 O   0  0  0  0  0  0  0  0  0  0  0  0
   28.9680  -34.9283   -0.2422 N   0  0  0  0  0  0  0  0  0  0  0  0
   28.4253  -35.6823    0.8412 C   0  0  0  0  0  0  0  0  0  0  0  0
   29.2336  -35.6124    2.0783 C   0  0  0  0  0  0  0  0  0  0  0  0
   30.3972  -36.0897    2.0184 O   0  0  0  0  0  0  0  0  0  0  0  0
   28.8135  -35.0748    3.2632 O   0  0  0  0  0  0  0  0  0  0  0  0
  2  3  1  0
  2  1  1  1
  4  3  1  0
  5  6  2  0
  5  2  1  0
  7  8  1  0
  8 10  1  0
  9  8  2  0
 10 11  1  0
 12 11  1  6
 12 13  1  0
 13  5  1  0
 14 16  1  0
 14 12  1  0
 15 14  2  0
 17 16  1  0
 18 17  1  0
 19 18  2  0
 20 18  1  0
M  END
$$$$
