CQG.pdb
     RDKit          3D

 20 19  0  0  1  0  0  0  0  0999 V2000
   20.4912  -14.0859  -17.2960 N   0  0  0  0  0  0  0  0  0  0  0  0
   19.8253  -12.8182  -17.0668 C   0  0  1  0  0  0  0  0  0  0  0  0
   19.4155  -12.6708  -15.6156 C   0  0  0  0  0  0  0  0  0  0  0  0
   18.3216  -14.0290  -15.1288 S   0  0  0  0  0  0  0  0  0  0  0  0
   20.7670  -11.6983  -17.4251 C   0  0  0  0  0  0  0  0  0  0  0  0
   21.9709  -11.8382  -17.1396 O   0  0  0  0  0  0  0  0  0  0  0  0
   23.1829  -11.1124  -21.0307 N   0  0  0  0  0  0  0  0  0  0  0  0
   22.3900   -9.9591  -21.2510 C   0  0  0  0  0  0  0  0  0  0  0  0
   22.9039   -8.9779  -21.8347 O   0  0  0  0  0  0  0  0  0  0  0  0
   21.0008   -9.9383  -20.7964 C   0  0  0  0  0  0  0  0  0  0  0  0
   20.7249   -8.9037  -19.7441 C   0  0  0  0  0  0  0  0  0  0  0  0
   21.1598   -9.4502  -18.4259 C   0  0  2  0  0  0  0  0  0  0  0  0
   20.2809  -10.5406  -18.0613 N   0  0  0  0  0  0  0  0  0  0  0  0
   21.1490   -8.4471  -17.3195 C   0  0  0  0  0  0  0  0  0  0  0  0
   21.8656   -7.4146  -17.3213 O   0  0  0  0  0  0  0  0  0  0  0  0
   20.3035   -8.6100  -16.1715 N   0  0  0  0  0  0  0  0  0  0  0  0
   20.1975   -7.6309  -15.1385 C   0  0  0  0  0  0  0  0  0  0  0  0
   21.2070   -7.7841  -14.0680 C   0  0  0  0  0  0  0  0  0  0  0  0
   21.1132   -6.9980  -13.0889 O   0  0  0  0  0  0  0  0  0  0  0  0
   22.2186   -8.7040  -14.0663 O   0  0  0  0  0  0  0  0  0  0  0  0
  2  3  1  0
  2  1  1  1
  4  3  1  0
  5  6  2  0
  5  2  1  0
  7  8  1  0
  8 10  1  0
  9  8  2  0
 10 11  1  0
 12 11  1  6
 12 13  1  0
 13  5  1  0
 14 16  1  0
 14 12  1  0
 15 14  2  0
 17 16  1  0
 18 17  1  0
 19 18  2  0
 20 18  1  0
M  END
$$$$
