CQG.pdb
     RDKit          3D

 20 19  0  0  1  0  0  0  0  0999 V2000
   23.2069  -12.2402  -17.2416 N   0  0  0  0  0  0  0  0  0  0  0  0
   22.6632  -11.5835  -18.4147 C   0  0  1  0  0  0  0  0  0  0  0  0
   21.9083  -12.5640  -19.2890 C   0  0  0  0  0  0  0  0  0  0  0  0
   23.0470  -13.7767  -20.0040 S   0  0  0  0  0  0  0  0  0  0  0  0
   21.7199  -10.4949  -17.9738 C   0  0  0  0  0  0  0  0  0  0  0  0
   21.1586   -9.8200  -18.8571 O   0  0  0  0  0  0  0  0  0  0  0  0
   16.4774  -11.7894  -16.0861 N   0  0  0  0  0  0  0  0  0  0  0  0
   17.5295  -11.1516  -15.3835 C   0  0  0  0  0  0  0  0  0  0  0  0
   17.4868  -11.1220  -14.1326 O   0  0  0  0  0  0  0  0  0  0  0  0
   18.6335  -10.5465  -16.1267 C   0  0  0  0  0  0  0  0  0  0  0  0
   19.5795   -9.7583  -15.2680 C   0  0  0  0  0  0  0  0  0  0  0  0
   20.6430   -9.1884  -16.1454 C   0  0  2  0  0  0  0  0  0  0  0  0
   21.4947  -10.2651  -16.6036 N   0  0  0  0  0  0  0  0  0  0  0  0
   21.4987   -8.1643  -15.4752 C   0  0  0  0  0  0  0  0  0  0  0  0
   22.2846   -8.4359  -14.5328 O   0  0  0  0  0  0  0  0  0  0  0  0
   21.4703   -6.7873  -15.8781 N   0  0  0  0  0  0  0  0  0  0  0  0
   22.2823   -5.7825  -15.2715 C   0  0  0  0  0  0  0  0  0  0  0  0
   21.7920   -5.3409  -13.9474 C   0  0  0  0  0  0  0  0  0  0  0  0
   20.7594   -5.9131  -13.5097 O   0  0  0  0  0  0  0  0  0  0  0  0
   22.3714   -4.3708  -13.1775 O   0  0  0  0  0  0  0  0  0  0  0  0
  2  3  1  0
  2  1  1  1
  4  3  1  0
  5  6  2  0
  5  2  1  0
  7  8  1  0
  8 10  1  0
  9  8  2  0
 10 11  1  0
 12 11  1  1
 12 13  1  0
 13  5  1  0
 14 16  1  0
 14 12  1  0
 15 14  2  0
 17 16  1  0
 18 17  1  0
 19 18  2  0
 20 18  1  0
M  END
$$$$
