CQG.pdb
     RDKit          3D

 20 19  0  0  1  0  0  0  0  0999 V2000
   19.1900  -12.2202  -15.7725 N   0  0  0  0  0  0  0  0  0  0  0  0
   19.0685  -10.8234  -16.1428 C   0  0  1  0  0  0  0  0  0  0  0  0
   17.8092  -10.2121  -15.5630 C   0  0  0  0  0  0  0  0  0  0  0  0
   16.3466  -10.8558  -16.4143 S   0  0  0  0  0  0  0  0  0  0  0  0
   20.2635  -10.0714  -15.6177 C   0  0  0  0  0  0  0  0  0  0  0  0
   20.7812  -10.4709  -14.5580 O   0  0  0  0  0  0  0  0  0  0  0  0
   24.9249   -7.8132  -18.8830 N   0  0  0  0  0  0  0  0  0  0  0  0
   25.1268   -7.2325  -17.6065 C   0  0  0  0  0  0  0  0  0  0  0  0
   26.1827   -6.5933  -17.3963 O   0  0  0  0  0  0  0  0  0  0  0  0
   24.1076   -7.3899  -16.5704 C   0  0  0  0  0  0  0  0  0  0  0  0
   22.8712   -8.0987  -17.0420 C   0  0  0  0  0  0  0  0  0  0  0  0
   21.9499   -8.2555  -15.8791 C   0  0  2  0  0  0  0  0  0  0  0  0
   20.7623   -8.9568  -16.3176 N   0  0  0  0  0  0  0  0  0  0  0  0
   21.5311   -6.9637  -15.2579 C   0  0  0  0  0  0  0  0  0  0  0  0
   20.6686   -6.2043  -15.7670 O   0  0  0  0  0  0  0  0  0  0  0  0
   22.1012   -6.5095  -14.0218 N   0  0  0  0  0  0  0  0  0  0  0  0
   21.7413   -5.2727  -13.4073 C   0  0  0  0  0  0  0  0  0  0  0  0
   22.0467   -4.0858  -14.2360 C   0  0  0  0  0  0  0  0  0  0  0  0
   21.7582   -2.9644  -13.7416 O   0  0  0  0  0  0  0  0  0  0  0  0
   22.6110   -4.1198  -15.4810 O   0  0  0  0  0  0  0  0  0  0  0  0
  2  3  1  0
  2  1  1  1
  4  3  1  0
  5  6  2  0
  5  2  1  0
  7  8  1  0
  8 10  1  0
  9  8  2  0
 10 11  1  0
 12 11  1  6
 12 13  1  0
 13  5  1  0
 14 16  1  0
 14 12  1  0
 15 14  2  0
 17 16  1  0
 18 17  1  0
 19 18  2  0
 20 18  1  0
M  END
$$$$
