CQG.pdb
     RDKit          3D

 20 19  0  0  1  0  0  0  0  0999 V2000
   23.1357  -10.9908  -15.2529 N   0  0  0  0  0  0  0  0  0  0  0  0
   22.1670  -10.2664  -16.0527 C   0  0  1  0  0  0  0  0  0  0  0  0
   20.9303  -11.1047  -16.3045 C   0  0  0  0  0  0  0  0  0  0  0  0
   21.3606  -12.6007  -17.2292 S   0  0  0  0  0  0  0  0  0  0  0  0
   21.7668   -9.0122  -15.3206 C   0  0  0  0  0  0  0  0  0  0  0  0
   21.6257   -9.0809  -14.0853 O   0  0  0  0  0  0  0  0  0  0  0  0
   21.1202   -3.1735  -14.9409 N   0  0  0  0  0  0  0  0  0  0  0  0
   21.8354   -3.7547  -13.8647 C   0  0  0  0  0  0  0  0  0  0  0  0
   21.8729   -3.1485  -12.7698 O   0  0  0  0  0  0  0  0  0  0  0  0
   22.5089   -5.0384  -14.0529 C   0  0  0  0  0  0  0  0  0  0  0  0
   22.3148   -5.6279  -15.4198 C   0  0  0  0  0  0  0  0  0  0  0  0
   21.1775   -6.5912  -15.3564 C   0  0  2  0  0  0  0  0  0  0  0  0
   21.5643   -7.8129  -16.0289 N   0  0  0  0  0  0  0  0  0  0  0  0
   19.9192   -6.0872  -15.9833 C   0  0  0  0  0  0  0  0  0  0  0  0
   19.8253   -5.8052  -17.2044 O   0  0  0  0  0  0  0  0  0  0  0  0
   18.7253   -5.8934  -15.2111 N   0  0  0  0  0  0  0  0  0  0  0  0
   17.5735   -5.2185  -15.7160 C   0  0  0  0  0  0  0  0  0  0  0  0
   16.7407   -6.0516  -16.6110 C   0  0  0  0  0  0  0  0  0  0  0  0
   17.0983   -7.2497  -16.7595 O   0  0  0  0  0  0  0  0  0  0  0  0
   15.6278   -5.6197  -17.2778 O   0  0  0  0  0  0  0  0  0  0  0  0
  2  3  1  0
  2  1  1  1
  4  3  1  0
  5  6  2  0
  5  2  1  0
  7  8  1  0
  8 10  1  0
  9  8  2  0
 10 11  1  0
 12 11  1  6
 12 13  1  0
 13  5  1  0
 14 16  1  0
 14 12  1  0
 15 14  2  0
 17 16  1  0
 18 17  1  0
 19 18  2  0
 20 18  1  0
M  END
$$$$
