CQG.pdb
     RDKit          3D

 20 19  0  0  1  0  0  0  0  0999 V2000
   27.9903  -14.9758  -17.1336 N   0  0  0  0  0  0  0  0  0  0  0  0
   26.9797  -14.3329  -16.3162 C   0  0  1  0  0  0  0  0  0  0  0  0
   26.7674  -12.8941  -16.7411 C   0  0  0  0  0  0  0  0  0  0  0  0
   28.2558  -11.9153  -16.4174 S   0  0  0  0  0  0  0  0  0  0  0  0
   25.6813  -15.0825  -16.4624 C   0  0  0  0  0  0  0  0  0  0  0  0
   25.5700  -15.8697  -17.4208 O   0  0  0  0  0  0  0  0  0  0  0  0
   23.4525  -19.1877  -15.1316 N   0  0  0  0  0  0  0  0  0  0  0  0
   22.1484  -18.6600  -14.9638 C   0  0  0  0  0  0  0  0  0  0  0  0
   21.1654  -19.4081  -15.1682 O   0  0  0  0  0  0  0  0  0  0  0  0
   21.9785  -17.2656  -14.5591 C   0  0  0  0  0  0  0  0  0  0  0  0
   23.2696  -16.5084  -14.4436 C   0  0  0  0  0  0  0  0  0  0  0  0
   23.3931  -15.6114  -15.6292 C   0  0  2  0  0  0  0  0  0  0  0  0
   24.6412  -14.8848  -15.5350 N   0  0  0  0  0  0  0  0  0  0  0  0
   22.2818  -14.6225  -15.7607 C   0  0  0  0  0  0  0  0  0  0  0  0
   21.0677  -14.9472  -15.7440 O   0  0  0  0  0  0  0  0  0  0  0  0
   22.5439  -13.2202  -15.9163 N   0  0  0  0  0  0  0  0  0  0  0  0
   21.5149  -12.2568  -16.1397 C   0  0  0  0  0  0  0  0  0  0  0  0
   21.4655  -11.7507  -17.5290 C   0  0  0  0  0  0  0  0  0  0  0  0
   20.7985  -10.7005  -17.7224 O   0  0  0  0  0  0  0  0  0  0  0  0
   22.0830  -12.3333  -18.6009 O   0  0  0  0  0  0  0  0  0  0  0  0
  2  3  1  0
  2  1  1  6
  4  3  1  0
  5  6  2  0
  5  2  1  0
  7  8  1  0
  8 10  1  0
  9  8  2  0
 10 11  1  0
 12 11  1  1
 12 13  1  0
 13  5  1  0
 14 16  1  0
 14 12  1  0
 15 14  2  0
 17 16  1  0
 18 17  1  0
 19 18  2  0
 20 18  1  0
M  END
$$$$
