CQG.pdb
     RDKit          3D

 20 19  0  0  1  0  0  0  0  0999 V2000
   25.9100  -12.6037  -15.1719 N   0  0  0  0  0  0  0  0  0  0  0  0
   24.8852  -12.0921  -16.0614 C   0  0  1  0  0  0  0  0  0  0  0  0
   23.5231  -12.6511  -15.7042 C   0  0  0  0  0  0  0  0  0  0  0  0
   23.5118  -14.4519  -15.8930 S   0  0  0  0  0  0  0  0  0  0  0  0
   24.8426  -10.5906  -15.9476 C   0  0  0  0  0  0  0  0  0  0  0  0
   25.0077  -10.0887  -14.8200 O   0  0  0  0  0  0  0  0  0  0  0  0
   27.2340  -10.2576  -18.4355 N   0  0  0  0  0  0  0  0  0  0  0  0
   27.8246   -9.3741  -17.4986 C   0  0  0  0  0  0  0  0  0  0  0  0
   28.9428   -9.6668  -17.0172 O   0  0  0  0  0  0  0  0  0  0  0  0
   27.1231   -8.1498  -17.1164 C   0  0  0  0  0  0  0  0  0  0  0  0
   25.8558   -7.9144  -17.8860 C   0  0  0  0  0  0  0  0  0  0  0  0
   24.7075   -8.3559  -17.0420 C   0  0  2  0  0  0  0  0  0  0  0  0
   24.6221   -9.7998  -17.0909 N   0  0  0  0  0  0  0  0  0  0  0  0
   23.3910   -7.7922  -17.4653 C   0  0  0  0  0  0  0  0  0  0  0  0
   22.8601   -8.0458  -18.5759 O   0  0  0  0  0  0  0  0  0  0  0  0
   22.6452   -6.9129  -16.6109 N   0  0  0  0  0  0  0  0  0  0  0  0
   21.3562   -6.4045  -16.9529 C   0  0  0  0  0  0  0  0  0  0  0  0
   20.7964   -5.4766  -15.9457 C   0  0  0  0  0  0  0  0  0  0  0  0
   20.2595   -6.0004  -14.9344 O   0  0  0  0  0  0  0  0  0  0  0  0
   20.8203   -4.1123  -16.0338 O   0  0  0  0  0  0  0  0  0  0  0  0
  2  3  1  0
  2  1  1  1
  4  3  1  0
  5  6  2  0
  5  2  1  0
  7  8  1  0
  8 10  1  0
  9  8  2  0
 10 11  1  0
 12 11  1  6
 12 13  1  0
 13  5  1  0
 14 16  1  0
 14 12  1  0
 15 14  2  0
 17 16  1  0
 18 17  1  0
 19 18  2  0
 20 18  1  0
M  END
$$$$
