IAV.pdb
     RDKit          3D

 21 20  0  0  1  0  0  0  0  0999 V2000
   21.6584  -16.6022  -21.5445 C   0  0  0  0  0  0  0  0  0  0  0  0
   20.6352  -15.8543  -20.7413 C   0  0  0  0  0  0  0  0  0  0  0  0
   21.1997  -14.6588  -20.0225 C   0  0  2  0  0  0  0  0  0  0  0  0
   22.3381  -15.0462  -19.1214 C   0  0  0  0  0  0  0  0  0  0  0  0
   20.0974  -13.9191  -19.3031 C   0  0  2  0  0  0  0  0  0  0  0  0
   18.9855  -13.7874  -20.2067 N   0  0  0  0  0  0  0  0  0  0  0  0
   20.5578  -12.5956  -18.8076 C   0  0  0  0  0  0  0  0  0  0  0  0
   21.5524  -12.5707  -18.0382 O   0  0  0  0  0  0  0  0  0  0  0  0
   19.5578   -8.9368  -19.2610 C   0  0  0  0  0  0  0  0  0  0  0  0
   20.3165  -10.0885  -18.6511 C   0  0  2  0  0  0  0  0  0  0  0  0
   19.9302  -11.3665  -19.1609 N   0  0  0  0  0  0  0  0  0  0  0  0
   20.2989  -10.0347  -17.1590 C   0  0  0  0  0  0  0  0  0  0  0  0
   19.4784  -10.6339  -16.4530 O   0  0  0  0  0  0  0  0  0  0  0  0
   22.4494   -9.7774  -12.9835 C   0  0  0  0  0  0  0  0  0  0  0  0
   22.4553   -9.9349  -14.4819 C   0  0  2  0  0  0  0  0  0  0  0  0
   23.7998   -9.5263  -15.0456 C   0  0  0  0  0  0  0  0  0  0  0  0
   21.3533   -9.0759  -15.0807 C   0  0  2  0  0  0  0  0  0  0  0  0
   21.2920   -9.2421  -16.5206 N   0  0  0  0  0  0  0  0  0  0  0  0
   21.6628   -7.6588  -14.8047 C   0  0  0  0  0  0  0  0  0  0  0  0
   22.1893   -6.9674  -15.7036 O   0  0  0  0  0  0  0  0  0  0  0  0
   21.3831   -7.0893  -13.5815 O   0  0  0  0  0  0  0  0  0  0  0  0
  2  3  1  0
  2  1  1  0
  3  4  1  1
  5  3  1  0
  5  6  1  6
  7  5  1  0
  8  7  2  0
 10  9  1  6
 10 11  1  0
 11  7  1  0
 12 10  1  0
 12 13  2  0
 15 14  1  1
 15 17  1  0
 16 15  1  0
 17 18  1  6
 18 12  1  0
 19 17  1  0
 20 19  2  0
 21 19  1  0
M  END
$$$$
