IAV.pdb
     RDKit          3D

 21 20  0  0  1  0  0  0  0  0999 V2000
   16.8413  -16.9396  -15.4226 C   0  0  0  0  0  0  0  0  0  0  0  0
   16.6324  -15.9726  -16.5509 C   0  0  0  0  0  0  0  0  0  0  0  0
   17.4726  -14.7297  -16.4333 C   0  0  2  0  0  0  0  0  0  0  0  0
   17.2625  -14.0471  -15.1111 C   0  0  0  0  0  0  0  0  0  0  0  0
   17.2254  -13.8238  -17.6157 C   0  0  2  0  0  0  0  0  0  0  0  0
   17.4759  -14.5781  -18.8151 N   0  0  0  0  0  0  0  0  0  0  0  0
   18.0670  -12.6004  -17.5546 C   0  0  0  0  0  0  0  0  0  0  0  0
   19.3075  -12.7329  -17.7141 O   0  0  0  0  0  0  0  0  0  0  0  0
   17.5645   -8.8413  -17.4599 C   0  0  0  0  0  0  0  0  0  0  0  0
   18.3313  -10.1148  -17.2071 C   0  0  2  0  0  0  0  0  0  0  0  0
   17.5380  -11.2976  -17.3259 N   0  0  0  0  0  0  0  0  0  0  0  0
   19.0910  -10.0579  -15.9228 C   0  0  0  0  0  0  0  0  0  0  0  0
   18.6358  -10.4204  -14.8311 O   0  0  0  0  0  0  0  0  0  0  0  0
   22.5033  -11.4958  -15.4293 C   0  0  0  0  0  0  0  0  0  0  0  0
   22.6406  -10.0405  -15.0642 C   0  0  2  0  0  0  0  0  0  0  0  0
   23.5209   -9.8887  -13.8418 C   0  0  0  0  0  0  0  0  0  0  0  0
   21.2624   -9.4594  -14.7927 C   0  0  2  0  0  0  0  0  0  0  0  0
   20.4197   -9.5537  -15.9699 N   0  0  0  0  0  0  0  0  0  0  0  0
   21.4149   -8.0284  -14.4626 C   0  0  0  0  0  0  0  0  0  0  0  0
   21.4832   -7.1959  -15.3930 O   0  0  0  0  0  0  0  0  0  0  0  0
   21.4828   -7.5978  -13.1555 O   0  0  0  0  0  0  0  0  0  0  0  0
  2  3  1  0
  2  1  1  0
  3  4  1  1
  5  3  1  0
  5  6  1  6
  7  5  1  0
  8  7  2  0
 10  9  1  1
 10 11  1  0
 11  7  1  0
 12 10  1  0
 12 13  2  0
 15 14  1  1
 15 17  1  0
 16 15  1  0
 17 18  1  6
 18 12  1  0
 19 17  1  0
 20 19  2  0
 21 19  1  0
M  END
$$$$
