IAV.pdb
     RDKit          3D

 21 20  0  0  1  0  0  0  0  0999 V2000
   14.1603  -13.4633  -15.8280 C   0  0  0  0  0  0  0  0  0  0  0  0
   15.0752  -13.3376  -17.0107 C   0  0  0  0  0  0  0  0  0  0  0  0
   16.2579  -12.4426  -16.7564 C   0  0  2  0  0  0  0  0  0  0  0  0
   15.8290  -11.0991  -16.2375 C   0  0  0  0  0  0  0  0  0  0  0  0
   17.1166  -12.3547  -17.9953 C   0  0  2  0  0  0  0  0  0  0  0  0
   17.5030  -13.6903  -18.3654 N   0  0  0  0  0  0  0  0  0  0  0  0
   18.3013  -11.4834  -17.7807 C   0  0  0  0  0  0  0  0  0  0  0  0
   19.2213  -11.9159  -17.0400 O   0  0  0  0  0  0  0  0  0  0  0  0
   19.6183   -8.1855  -19.1651 C   0  0  0  0  0  0  0  0  0  0  0  0
   19.5908   -9.3587  -18.2182 C   0  0  2  0  0  0  0  0  0  0  0  0
   18.4410  -10.1938  -18.3696 N   0  0  0  0  0  0  0  0  0  0  0  0
   19.8113   -8.9338  -16.8038 C   0  0  0  0  0  0  0  0  0  0  0  0
   18.9094   -8.5637  -16.0422 O   0  0  0  0  0  0  0  0  0  0  0  0
   23.7883   -9.4142  -15.1813 C   0  0  0  0  0  0  0  0  0  0  0  0
   22.5288   -9.4559  -14.3555 C   0  0  2  0  0  0  0  0  0  0  0  0
   21.9909  -10.8698  -14.2928 C   0  0  0  0  0  0  0  0  0  0  0  0
   21.4940   -8.5287  -14.9721 C   0  0  2  0  0  0  0  0  0  0  0  0
   21.1455   -8.9601  -16.3127 N   0  0  0  0  0  0  0  0  0  0  0  0
   22.0785   -7.1766  -15.0728 C   0  0  0  0  0  0  0  0  0  0  0  0
   22.5052   -6.7818  -16.1798 O   0  0  0  0  0  0  0  0  0  0  0  0
   22.1611   -6.3479  -13.9750 O   0  0  0  0  0  0  0  0  0  0  0  0
  2  3  1  0
  2  1  1  0
  3  4  1  6
  5  3  1  0
  5  6  1  1
  7  5  1  0
  8  7  2  0
 10  9  1  6
 10 11  1  0
 11  7  1  0
 12 10  1  0
 12 13  2  0
 15 14  1  6
 15 17  1  0
 16 15  1  0
 17 18  1  6
 18 12  1  0
 19 17  1  0
 20 19  2  0
 21 19  1  0
M  END
$$$$
