IAV.pdb
     RDKit          3D

 21 20  0  0  1  0  0  0  0  0999 V2000
   26.4309  -20.1364   -8.2002 C   0  0  0  0  0  0  0  0  0  0  0  0
   26.6488  -20.9119   -9.4662 C   0  0  0  0  0  0  0  0  0  0  0  0
   25.5541  -20.7168  -10.4800 C   0  0  2  0  0  0  0  0  0  0  0  0
   24.2104  -21.0833   -9.9157 C   0  0  0  0  0  0  0  0  0  0  0  0
   25.8874  -21.4599  -11.7515 C   0  0  2  0  0  0  0  0  0  0  0  0
   27.2151  -21.0796  -12.1550 N   0  0  0  0  0  0  0  0  0  0  0  0
   24.8928  -21.1885  -12.8221 C   0  0  0  0  0  0  0  0  0  0  0  0
   24.8116  -20.0135  -13.2633 O   0  0  0  0  0  0  0  0  0  0  0  0
   22.7544  -23.2145  -15.1978 C   0  0  0  0  0  0  0  0  0  0  0  0
   23.1125  -21.9651  -14.4332 C   0  0  2  0  0  0  0  0  0  0  0  0
   24.0360  -22.1884  -13.3656 N   0  0  0  0  0  0  0  0  0  0  0  0
   21.8968  -21.2166  -13.9955 C   0  0  0  0  0  0  0  0  0  0  0  0
   21.4459  -21.2388  -12.8437 O   0  0  0  0  0  0  0  0  0  0  0  0
   20.2794  -18.4795  -16.8284 C   0  0  0  0  0  0  0  0  0  0  0  0
   20.1066  -18.2869  -15.3442 C   0  0  2  0  0  0  0  0  0  0  0  0
   21.2570  -17.4774  -14.7842 C   0  0  0  0  0  0  0  0  0  0  0  0
   20.0437  -19.6460  -14.6662 C   0  0  2  0  0  0  0  0  0  0  0  0
   21.2237  -20.4326  -14.9723 N   0  0  0  0  0  0  0  0  0  0  0  0
   18.8701  -20.3748  -15.1874 C   0  0  0  0  0  0  0  0  0  0  0  0
   19.0328  -21.2075  -16.1059 O   0  0  0  0  0  0  0  0  0  0  0  0
   17.6072  -20.1545  -14.6823 O   0  0  0  0  0  0  0  0  0  0  0  0
  2  3  1  0
  2  1  1  0
  3  4  1  1
  5  3  1  0
  5  6  1  6
  7  5  1  0
  8  7  2  0
 10  9  1  1
 10 11  1  0
 11  7  1  0
 12 10  1  0
 12 13  2  0
 15 14  1  6
 15 17  1  0
 16 15  1  0
 17 18  1  6
 18 12  1  0
 19 17  1  0
 20 19  2  0
 21 19  1  0
M  END
$$$$
