PRD.pdb
     RDKit          3D

 27 27  0  0  1  0  0  0  0  0999 V2000
   27.3891  -20.7084  -16.5084 N   0  0  0  0  0  0  0  0  0  0  0  0
   28.7026  -20.8184  -15.9726 C   0  0  0  0  0  0  0  0  0  0  0  0
   28.8015  -22.2034  -15.3679 C   0  0  0  0  0  0  0  0  0  0  0  0
   27.9194  -22.9988  -16.3079 C   0  0  0  0  0  0  0  0  0  0  0  0
   26.7686  -21.9915  -16.4869 C   0  0  1  0  0  0  0  0  0  0  0  0
   25.8629  -22.1939  -15.3288 C   0  0  0  0  0  0  0  0  0  0  0  0
   25.2991  -23.3237  -15.1257 O   0  0  0  0  0  0  0  0  0  0  0  0
   29.0778  -22.2372   -9.4282 N   0  0  0  0  0  0  0  0  0  0  0  0
   29.1995  -21.2222  -10.4169 C   0  0  0  0  0  0  0  0  0  0  0  0
   30.2725  -21.0792  -11.1177 N   0  0  0  0  0  0  0  0  0  0  0  0
   28.1230  -20.3151  -10.6726 N   0  0  0  0  0  0  0  0  0  0  0  0
   26.7780  -20.5708  -10.2090 C   0  0  0  0  0  0  0  0  0  0  0  0
   26.0507  -21.4962  -11.1584 C   0  0  0  0  0  0  0  0  0  0  0  0
   25.0831  -20.7064  -11.9937 C   0  0  0  0  0  0  0  0  0  0  0  0
   24.6946  -21.3616  -13.2446 C   0  0  2  0  0  0  0  0  0  0  0  0
   25.5372  -21.2103  -14.3680 N   0  0  0  0  0  0  0  0  0  0  0  0
   23.3220  -20.8644  -13.6308 C   0  0  0  0  0  0  0  0  0  0  0  0
   23.2232  -19.7015  -14.0300 O   0  0  0  0  0  0  0  0  0  0  0  0
   30.3796  -20.3325  -11.8080 N   0  0  0  0  0  0  0  0  0  0  0  0
   22.1602  -21.6655  -13.5550 C   0  0  2  0  0  0  0  0  0  0  0  0
   20.8411  -21.2148  -13.8762 C   0  0  0  0  0  0  0  0  0  0  0  0
   19.8341  -22.3004  -14.0458 C   0  0  0  0  0  0  0  0  0  0  0  0
   18.4764  -21.8066  -14.3742 O   0  0  0  0  0  0  0  0  0  0  0  0
   17.4241  -22.4839  -14.2100 C   0  0  0  0  0  0  0  0  0  0  0  0
   20.3703  -20.3114  -12.7901 O   0  0  0  0  0  0  0  0  0  0  0  0
   21.0448  -20.2052  -11.5838 O   0  0  0  0  0  0  0  0  0  0  0  0
   18.4151  -20.5007  -14.8964 O   0  0  0  0  0  0  0  0  0  0  0  0
  1  2  1  0
  3  2  1  0
  4  3  1  0
  5  4  1  0
  5  1  1  0
  5  6  1  1
  7  6  2  0
  9  8  1  0
  9 10  2  0
 11  9  1  0
 12 13  1  0
 12 11  1  0
 14 13  1  0
 15 14  1  1
 15 16  1  0
 16  6  1  0
 17 15  1  0
 17 18  2  0
 19 17  1  0
 20 19  1  0
 20 21  1  6
 21 22  1  0
 22 26  1  0
 22 23  2  0
 24 20  1  0
 25 24  1  0
 27 24  2  0
M  END
$$$$
