PRD.pdb
     RDKit          3D

 27 27  0  0  1  0  0  0  0  0999 V2000
   27.8326  -20.5971  -14.8351 N   0  0  0  0  0  0  0  0  0  0  0  0
   28.8359  -20.5149  -15.8407 C   0  0  0  0  0  0  0  0  0  0  0  0
   28.3554  -19.4819  -16.8386 C   0  0  0  0  0  0  0  0  0  0  0  0
   27.6147  -18.5199  -15.9329 C   0  0  0  0  0  0  0  0  0  0  0  0
   26.9022  -19.5327  -15.0177 C   0  0  1  0  0  0  0  0  0  0  0  0
   25.6692  -19.9385  -15.7372 C   0  0  0  0  0  0  0  0  0  0  0  0
   24.7411  -19.0925  -15.9784 O   0  0  0  0  0  0  0  0  0  0  0  0
   26.6706  -27.0988  -16.4720 N   0  0  0  0  0  0  0  0  0  0  0  0
   25.2823  -27.2328  -16.7501 C   0  0  0  0  0  0  0  0  0  0  0  0
   24.5791  -28.1955  -16.2586 N   0  0  0  0  0  0  0  0  0  0  0  0
   24.6094  -26.2927  -17.5931 N   0  0  0  0  0  0  0  0  0  0  0  0
   25.2757  -25.1255  -18.1251 C   0  0  0  0  0  0  0  0  0  0  0  0
   25.1801  -23.9666  -17.1584 C   0  0  0  0  0  0  0  0  0  0  0  0
   24.3744  -22.8581  -17.7747 C   0  0  0  0  0  0  0  0  0  0  0  0
   24.2583  -21.6620  -16.9374 C   0  0  2  0  0  0  0  0  0  0  0  0
   25.3951  -21.2406  -16.2129 N   0  0  0  0  0  0  0  0  0  0  0  0
   23.1407  -21.8865  -15.9470 C   0  0  0  0  0  0  0  0  0  0  0  0
   23.4330  -22.3687  -14.8500 O   0  0  0  0  0  0  0  0  0  0  0  0
   23.5958  -28.3343  -16.5021 N   0  0  0  0  0  0  0  0  0  0  0  0
   21.7906  -21.5712  -16.2208 C   0  0  1  0  0  0  0  0  0  0  0  0
   20.7172  -21.7174  -15.2865 C   0  0  0  0  0  0  0  0  0  0  0  0
   19.8998  -20.4890  -15.0768 C   0  0  0  0  0  0  0  0  0  0  0  0
   18.7160  -20.7024  -14.2119 O   0  0  0  0  0  0  0  0  0  0  0  0
   18.7494  -21.3322  -13.1187 C   0  0  0  0  0  0  0  0  0  0  0  0
   19.8136  -22.7991  -15.7670 O   0  0  0  0  0  0  0  0  0  0  0  0
   19.1332  -23.6275  -14.8883 O   0  0  0  0  0  0  0  0  0  0  0  0
   17.5108  -20.1498  -14.6852 O   0  0  0  0  0  0  0  0  0  0  0  0
  1  2  1  0
  3  2  1  0
  4  3  1  0
  5  4  1  0
  5  1  1  0
  5  6  1  6
  7  6  2  0
  9  8  1  0
  9 10  2  0
 11  9  1  0
 12 13  1  0
 12 11  1  0
 14 13  1  0
 15 14  1  1
 15 16  1  0
 16  6  1  0
 17 15  1  0
 17 18  2  0
 19 17  1  0
 20 19  1  0
 20 21  1  6
 21 22  1  0
 22 26  1  0
 22 23  2  0
 24 20  1  0
 25 24  1  0
 27 24  2  0
M  END
$$$$
