PRD.pdb
     RDKit          3D

 27 27  0  0  1  0  0  0  0  0999 V2000
   27.9195  -21.4503  -15.8561 N   0  0  0  0  0  0  0  0  0  0  0  0
   27.1290  -21.8295  -16.9768 C   0  0  0  0  0  0  0  0  0  0  0  0
   26.0283  -20.7956  -17.0911 C   0  0  0  0  0  0  0  0  0  0  0  0
   26.7439  -19.5494  -16.6122 C   0  0  0  0  0  0  0  0  0  0  0  0
   27.5284  -20.1475  -15.4299 C   0  0  1  0  0  0  0  0  0  0  0  0
   26.5918  -20.1555  -14.2787 C   0  0  0  0  0  0  0  0  0  0  0  0
   26.0677  -19.0702  -13.8511 O   0  0  0  0  0  0  0  0  0  0  0  0
   29.6759  -23.0163   -9.4668 N   0  0  0  0  0  0  0  0  0  0  0  0
   29.9423  -21.6196   -9.4989 C   0  0  0  0  0  0  0  0  0  0  0  0
   31.1374  -21.1574   -9.6433 N   0  0  0  0  0  0  0  0  0  0  0  0
   28.8815  -20.6679   -9.3723 N   0  0  0  0  0  0  0  0  0  0  0  0
   27.4984  -21.0718   -9.2563 C   0  0  0  0  0  0  0  0  0  0  0  0
   27.0117  -21.6933  -10.5460 C   0  0  0  0  0  0  0  0  0  0  0  0
   25.9398  -20.8314  -11.1508 C   0  0  0  0  0  0  0  0  0  0  0  0
   25.3858  -21.3509  -12.4030 C   0  0  2  0  0  0  0  0  0  0  0  0
   26.1936  -21.3056  -13.5607 N   0  0  0  0  0  0  0  0  0  0  0  0
   24.1118  -20.5978  -12.7032 C   0  0  0  0  0  0  0  0  0  0  0  0
   24.1332  -19.3687  -12.6024 O   0  0  0  0  0  0  0  0  0  0  0  0
   31.3323  -20.1558   -9.7098 N   0  0  0  0  0  0  0  0  0  0  0  0
   22.9107  -21.2343  -13.0900 C   0  0  1  0  0  0  0  0  0  0  0  0
   21.7136  -20.5481  -13.4677 C   0  0  0  0  0  0  0  0  0  0  0  0
   21.0257  -21.1059  -14.6665 C   0  0  0  0  0  0  0  0  0  0  0  0
   19.7578  -20.4157  -14.9999 O   0  0  0  0  0  0  0  0  0  0  0  0
   19.2770  -19.4650  -14.3232 C   0  0  0  0  0  0  0  0  0  0  0  0
   20.7606  -20.5915  -12.3244 O   0  0  0  0  0  0  0  0  0  0  0  0
   20.8716  -21.5354  -11.3155 O   0  0  0  0  0  0  0  0  0  0  0  0
   19.0928  -20.8881  -16.1472 O   0  0  0  0  0  0  0  0  0  0  0  0
  1  2  1  0
  3  2  1  0
  4  3  1  0
  5  4  1  0
  5  1  1  0
  5  6  1  1
  7  6  2  0
  9  8  1  0
  9 10  2  0
 11  9  1  0
 12 13  1  0
 12 11  1  0
 14 13  1  0
 15 14  1  1
 15 16  1  0
 16  6  1  0
 17 15  1  0
 17 18  2  0
 19 17  1  0
 20 19  1  0
 20 21  1  1
 21 22  1  0
 22 26  1  0
 22 23  2  0
 24 20  1  0
 25 24  1  0
 27 24  2  0
M  END
$$$$
