PRD.pdb
     RDKit          3D

 27 27  0  0  1  0  0  0  0  0999 V2000
   27.3892  -16.3647  -18.3160 N   0  0  0  0  0  0  0  0  0  0  0  0
   28.7688  -16.1890  -18.0152 C   0  0  0  0  0  0  0  0  0  0  0  0
   29.4149  -17.5502  -18.1680 C   0  0  0  0  0  0  0  0  0  0  0  0
   28.5945  -18.1406  -19.2962 C   0  0  0  0  0  0  0  0  0  0  0  0
   27.1945  -17.6655  -18.8656 C   0  0  1  0  0  0  0  0  0  0  0  0
   26.7096  -18.6612  -17.8777 C   0  0  0  0  0  0  0  0  0  0  0  0
   26.3070  -19.8157  -18.2525 O   0  0  0  0  0  0  0  0  0  0  0  0
   25.3810  -22.3093  -10.8960 N   0  0  0  0  0  0  0  0  0  0  0  0
   25.5461  -21.0198  -10.3194 C   0  0  0  0  0  0  0  0  0  0  0  0
   24.8869  -20.6516   -9.2741 N   0  0  0  0  0  0  0  0  0  0  0  0
   26.4610  -20.0758  -10.8844 N   0  0  0  0  0  0  0  0  0  0  0  0
   27.3119  -20.4083  -12.0047 C   0  0  0  0  0  0  0  0  0  0  0  0
   26.5081  -20.4878  -13.2830 C   0  0  0  0  0  0  0  0  0  0  0  0
   26.9042  -19.3661  -14.2010 C   0  0  0  0  0  0  0  0  0  0  0  0
   26.2316  -19.3877  -15.5018 C   0  0  2  0  0  0  0  0  0  0  0  0
   26.6410  -18.4562  -16.4813 N   0  0  0  0  0  0  0  0  0  0  0  0
   24.7524  -19.1901  -15.2710 C   0  0  0  0  0  0  0  0  0  0  0  0
   24.3633  -18.0581  -14.9734 O   0  0  0  0  0  0  0  0  0  0  0  0
   24.9881  -19.7208   -8.8632 N   0  0  0  0  0  0  0  0  0  0  0  0
   23.8068  -20.2346  -15.3803 C   0  0  1  0  0  0  0  0  0  0  0  0
   22.3992  -20.0799  -15.1775 C   0  0  0  0  0  0  0  0  0  0  0  0
   21.5433  -20.8497  -16.1241 C   0  0  0  0  0  0  0  0  0  0  0  0
   20.4239  -20.0613  -16.6900 O   0  0  0  0  0  0  0  0  0  0  0  0
   20.1077  -18.9058  -16.2928 C   0  0  0  0  0  0  0  0  0  0  0  0
   22.0682  -20.5169  -13.7930 O   0  0  0  0  0  0  0  0  0  0  0  0
   21.1163  -19.8617  -13.0275 O   0  0  0  0  0  0  0  0  0  0  0  0
   19.7055  -20.6851  -17.7276 O   0  0  0  0  0  0  0  0  0  0  0  0
  1  2  1  0
  3  2  1  0
  4  3  1  0
  5  4  1  0
  5  1  1  0
  5  6  1  1
  7  6  2  0
  9  8  1  0
  9 10  2  0
 11  9  1  0
 12 13  1  0
 12 11  1  0
 14 13  1  0
 15 14  1  1
 15 16  1  0
 16  6  1  0
 17 15  1  0
 17 18  2  0
 19 17  1  0
 20 19  1  0
 20 21  1  1
 21 22  1  0
 22 26  1  0
 22 23  2  0
 24 20  1  0
 25 24  1  0
 27 24  2  0
M  END
$$$$
