ATP.pdb
     RDKit          3D

 20 20  0  0  1  0  0  0  0  0999 V2000
   15.4437   -6.1890   -7.5645 C   0  0  0  0  0  0  0  0  0  0  0  0
   14.9652   -7.1086   -8.6625 C   0  0  2  0  0  0  0  0  0  0  0  0
   14.3543   -8.2560   -8.0567 N   0  0  0  0  0  0  0  0  0  0  0  0
   16.1574   -7.5092   -9.4866 C   0  0  0  0  0  0  0  0  0  0  0  0
   16.9708   -8.3741   -9.0853 O   0  0  0  0  0  0  0  0  0  0  0  0
   16.3286   -9.3182  -12.4038 C   0  0  0  0  0  0  0  0  0  0  0  0
   16.8903   -8.0065  -12.8551 C   0  0  1  0  0  0  0  0  0  0  0  0
   15.9516   -7.2135  -13.5081 O   0  0  0  0  0  0  0  0  0  0  0  0
   17.4721   -7.3020  -11.6418 C   0  0  2  0  0  0  0  0  0  0  0  0
   16.3724   -6.8990  -10.7471 N   0  0  0  0  0  0  0  0  0  0  0  0
   18.3400   -6.1755  -11.9574 C   0  0  0  0  0  0  0  0  0  0  0  0
   17.9913   -5.0061  -11.6611 O   0  0  0  0  0  0  0  0  0  0  0  0
   19.5920   -6.3713  -12.6012 N   0  0  0  0  0  0  0  0  0  0  0  0
   20.2118   -7.5978  -13.0493 C   0  0  0  0  0  0  0  0  0  0  0  0
   21.6894   -7.3638  -12.7607 C   0  0  0  0  0  0  0  0  0  0  0  0
   21.8550   -5.9158  -12.4545 C   0  0  0  0  0  0  0  0  0  0  0  0
   20.5615   -5.3137  -12.9352 C   0  0  1  0  0  0  0  0  0  0  0  0
   20.6612   -5.0889  -14.3938 C   0  0  0  0  0  0  0  0  0  0  0  0
   20.1722   -5.8368  -15.2771 O   0  0  0  0  0  0  0  0  0  0  0  0
   21.3454   -3.9662  -14.8845 O   0  0  0  0  0  0  0  0  0  0  0  0
  2  1  1  1
  3  2  1  0
  4  2  1  0
  4  5  2  0
  7  6  1  1
  7  9  1  0
  8  7  1  0
  9 10  1  1
  9 11  1  0
 10  4  1  0
 11 13  1  0
 12 11  2  0
 13 17  1  0
 13 14  1  0
 14 15  1  0
 16 15  1  0
 17 16  1  0
 18 20  1  0
 17 18  1  6
 19 18  2  0
M  END
$$$$
