ATP.pdb
     RDKit          3D

 20 20  0  0  1  0  0  0  0  0999 V2000
   17.8838  -16.1283  -17.3205 C   0  0  0  0  0  0  0  0  0  0  0  0
   17.6925  -14.8994  -16.4640 C   0  0  2  0  0  0  0  0  0  0  0  0
   16.7204  -14.0552  -17.0958 N   0  0  0  0  0  0  0  0  0  0  0  0
   19.0183  -14.1988  -16.3525 C   0  0  0  0  0  0  0  0  0  0  0  0
   20.0116  -14.7551  -15.8287 O   0  0  0  0  0  0  0  0  0  0  0  0
   21.2335  -12.6234  -18.9596 C   0  0  0  0  0  0  0  0  0  0  0  0
   20.7627  -11.5149  -18.0711 C   0  0  1  0  0  0  0  0  0  0  0  0
   19.6966  -10.8041  -18.6139 O   0  0  0  0  0  0  0  0  0  0  0  0
   20.4079  -12.1133  -16.7210 C   0  0  2  0  0  0  0  0  0  0  0  0
   19.1550  -12.8788  -16.8491 N   0  0  0  0  0  0  0  0  0  0  0  0
   20.3305  -11.1460  -15.6345 C   0  0  0  0  0  0  0  0  0  0  0  0
   19.2205  -10.8558  -15.1240 O   0  0  0  0  0  0  0  0  0  0  0  0
   21.4993  -10.5143  -15.1294 N   0  0  0  0  0  0  0  0  0  0  0  0
   22.8818  -10.7069  -15.5050 C   0  0  0  0  0  0  0  0  0  0  0  0
   23.6217  -10.5735  -14.1797 C   0  0  0  0  0  0  0  0  0  0  0  0
   22.6584  -10.0141  -13.1912 C   0  0  0  0  0  0  0  0  0  0  0  0
   21.5359   -9.5058  -14.0563 C   0  0  1  0  0  0  0  0  0  0  0  0
   21.9030   -8.1654  -14.5630 C   0  0  0  0  0  0  0  0  0  0  0  0
   22.3245   -7.9191  -15.7207 O   0  0  0  0  0  0  0  0  0  0  0  0
   21.7906   -7.0449  -13.7256 O   0  0  0  0  0  0  0  0  0  0  0  0
  2  1  1  6
  3  2  1  0
  4  2  1  0
  4  5  2  0
  7  6  1  6
  7  9  1  0
  8  7  1  0
  9 10  1  6
  9 11  1  0
 10  4  1  0
 11 13  1  0
 12 11  2  0
 13 17  1  0
 13 14  1  0
 14 15  1  0
 16 15  1  0
 17 16  1  0
 18 20  1  0
 17 18  1  6
 19 18  2  0
M  END
$$$$
