ATP.pdb
     RDKit          3D

 20 20  0  0  1  0  0  0  0  0999 V2000
   21.5505  -13.0749  -18.3794 C   0  0  0  0  0  0  0  0  0  0  0  0
   20.5494  -12.7449  -17.2980 C   0  0  2  0  0  0  0  0  0  0  0  0
   19.3389  -13.4650  -17.5678 N   0  0  0  0  0  0  0  0  0  0  0  0
   20.3070  -11.2611  -17.3252 C   0  0  0  0  0  0  0  0  0  0  0  0
   20.0778  -10.6540  -18.3973 O   0  0  0  0  0  0  0  0  0  0  0  0
   17.5940   -9.4790  -16.1006 C   0  0  0  0  0  0  0  0  0  0  0  0
   18.7095   -8.9178  -15.2758 C   0  0  1  0  0  0  0  0  0  0  0  0
   18.7889   -9.4943  -14.0117 O   0  0  0  0  0  0  0  0  0  0  0  0
   20.0025   -9.0919  -16.0533 C   0  0  2  0  0  0  0  0  0  0  0  0
   20.3370  -10.5259  -16.1143 N   0  0  0  0  0  0  0  0  0  0  0  0
   21.1205   -8.3068  -15.5474 C   0  0  0  0  0  0  0  0  0  0  0  0
   22.1257   -8.8795  -15.0592 O   0  0  0  0  0  0  0  0  0  0  0  0
   21.1013   -6.8864  -15.5954 N   0  0  0  0  0  0  0  0  0  0  0  0
   20.0925   -5.9997  -16.1299 C   0  0  0  0  0  0  0  0  0  0  0  0
   20.9134   -4.8698  -16.7389 C   0  0  0  0  0  0  0  0  0  0  0  0
   22.3112   -5.0267  -16.2494 C   0  0  0  0  0  0  0  0  0  0  0  0
   22.1671   -5.9952  -15.1057 C   0  0  1  0  0  0  0  0  0  0  0  0
   21.7550   -5.2422  -13.9012 C   0  0  0  0  0  0  0  0  0  0  0  0
   20.5875   -5.1978  -13.4388 O   0  0  0  0  0  0  0  0  0  0  0  0
   22.7034   -4.5011  -13.1796 O   0  0  0  0  0  0  0  0  0  0  0  0
  2  1  1  6
  3  2  1  0
  4  2  1  0
  4  5  2  0
  7  6  1  6
  7  9  1  0
  8  7  1  0
  9 10  1  1
  9 11  1  0
 10  4  1  0
 11 13  1  0
 12 11  2  0
 13 17  1  0
 13 14  1  0
 14 15  1  0
 16 15  1  0
 17 16  1  0
 18 20  1  0
 17 18  1  1
 19 18  2  0
M  END
$$$$
