ATP.pdb
     RDKit          3D

 20 20  0  0  1  0  0  0  0  0999 V2000
   15.2088   -8.4577  -16.4920 C   0  0  0  0  0  0  0  0  0  0  0  0
   16.0123   -9.7287  -16.3525 C   0  0  2  0  0  0  0  0  0  0  0  0
   15.2160  -10.6916  -15.6486 N   0  0  0  0  0  0  0  0  0  0  0  0
   17.2645   -9.4059  -15.5852 C   0  0  0  0  0  0  0  0  0  0  0  0
   17.3155   -9.5155  -14.3378 O   0  0  0  0  0  0  0  0  0  0  0  0
   20.5969  -10.8808  -15.9389 C   0  0  0  0  0  0  0  0  0  0  0  0
   20.8095   -9.4304  -16.2404 C   0  0  1  0  0  0  0  0  0  0  0  0
   20.9004   -9.1705  -17.6044 O   0  0  0  0  0  0  0  0  0  0  0  0
   19.6808   -8.6458  -15.5944 C   0  0  2  0  0  0  0  0  0  0  0  0
   18.4174   -8.9670  -16.2821 N   0  0  0  0  0  0  0  0  0  0  0  0
   19.9029   -7.2073  -15.5361 C   0  0  0  0  0  0  0  0  0  0  0  0
   19.1788   -6.4281  -16.2034 O   0  0  0  0  0  0  0  0  0  0  0  0
   20.9344   -6.6560  -14.7284 N   0  0  0  0  0  0  0  0  0  0  0  0
   21.8429   -7.3193  -13.8207 C   0  0  0  0  0  0  0  0  0  0  0  0
   21.9841   -6.3185  -12.6805 C   0  0  0  0  0  0  0  0  0  0  0  0
   21.3974   -5.0319  -13.1478 C   0  0  0  0  0  0  0  0  0  0  0  0
   21.2833   -5.2278  -14.6362 C   0  0  1  0  0  0  0  0  0  0  0  0
   22.5962   -4.9336  -15.2509 C   0  0  0  0  0  0  0  0  0  0  0  0
   23.4485   -5.7940  -15.5853 O   0  0  0  0  0  0  0  0  0  0  0  0
   22.9700   -3.6046  -15.5024 O   0  0  0  0  0  0  0  0  0  0  0  0
  2  1  1  1
  3  2  1  0
  4  2  1  0
  4  5  2  0
  7  6  1  6
  7  9  1  0
  8  7  1  0
  9 10  1  6
  9 11  1  0
 10  4  1  0
 11 13  1  0
 12 11  2  0
 13 17  1  0
 13 14  1  0
 14 15  1  0
 16 15  1  0
 17 16  1  0
 18 20  1  0
 17 18  1  6
 19 18  2  0
M  END
$$$$
