ATP.pdb
     RDKit          3D

 20 20  0  0  1  0  0  0  0  0999 V2000
   25.2383  -12.8751  -15.2652 C   0  0  0  0  0  0  0  0  0  0  0  0
   26.0520  -14.1302  -15.4729 C   0  0  2  0  0  0  0  0  0  0  0  0
   27.2170  -13.7920  -16.2377 N   0  0  0  0  0  0  0  0  0  0  0  0
   25.1966  -15.1225  -16.2110 C   0  0  0  0  0  0  0  0  0  0  0  0
   24.6713  -14.8427  -17.3139 O   0  0  0  0  0  0  0  0  0  0  0  0
   26.0039  -18.6082  -17.2417 C   0  0  0  0  0  0  0  0  0  0  0  0
   24.8255  -18.7420  -16.3289 C   0  0  1  0  0  0  0  0  0  0  0  0
   25.1777  -19.1684  -15.0520 O   0  0  0  0  0  0  0  0  0  0  0  0
   24.1037  -17.4061  -16.2944 C   0  0  2  0  0  0  0  0  0  0  0  0
   24.9750  -16.4057  -15.6524 N   0  0  0  0  0  0  0  0  0  0  0  0
   22.7897  -17.4469  -15.6669 C   0  0  0  0  0  0  0  0  0  0  0  0
   22.6289  -16.9952  -14.5062 O   0  0  0  0  0  0  0  0  0  0  0  0
   21.6676  -17.9926  -16.3477 N   0  0  0  0  0  0  0  0  0  0  0  0
   21.5941  -18.5959  -17.6591 C   0  0  0  0  0  0  0  0  0  0  0  0
   20.2401  -18.1290  -18.1789 C   0  0  0  0  0  0  0  0  0  0  0  0
   19.5006  -17.5488  -17.0237 C   0  0  0  0  0  0  0  0  0  0  0  0
   20.2873  -18.0331  -15.8349 C   0  0  1  0  0  0  0  0  0  0  0  0
   19.8522  -19.4096  -15.5125 C   0  0  0  0  0  0  0  0  0  0  0  0
   20.4442  -20.4587  -15.8696 O   0  0  0  0  0  0  0  0  0  0  0  0
   18.6926  -19.6174  -14.7499 O   0  0  0  0  0  0  0  0  0  0  0  0
  2  1  1  6
  3  2  1  0
  4  2  1  0
  4  5  2  0
  7  6  1  6
  7  9  1  0
  8  7  1  0
  9 10  1  1
  9 11  1  0
 10  4  1  0
 11 13  1  0
 12 11  2  0
 13 17  1  0
 13 14  1  0
 14 15  1  0
 16 15  1  0
 17 16  1  0
 18 20  1  0
 17 18  1  6
 19 18  2  0
M  END
$$$$
