ATP.pdb
     RDKit          3D

 20 20  0  0  1  0  0  0  0  0999 V2000
   15.0496   -9.8206  -15.0999 C   0  0  0  0  0  0  0  0  0  0  0  0
   15.6875  -10.0701  -16.4458 C   0  0  2  0  0  0  0  0  0  0  0  0
   15.2135  -11.3284  -16.9442 N   0  0  0  0  0  0  0  0  0  0  0  0
   17.1789  -10.0969  -16.2561 C   0  0  0  0  0  0  0  0  0  0  0  0
   17.7617  -11.1009  -15.7841 O   0  0  0  0  0  0  0  0  0  0  0  0
   19.9229   -9.6566  -18.6686 C   0  0  0  0  0  0  0  0  0  0  0  0
   20.0798   -8.5160  -17.7125 C   0  0  1  0  0  0  0  0  0  0  0  0
   19.5790   -7.3185  -18.2143 O   0  0  0  0  0  0  0  0  0  0  0  0
   19.4070   -8.9014  -16.4066 C   0  0  2  0  0  0  0  0  0  0  0  0
   17.9496   -8.9641  -16.6172 N   0  0  0  0  0  0  0  0  0  0  0  0
   19.7442   -8.0435  -15.2786 C   0  0  0  0  0  0  0  0  0  0  0  0
   18.8736   -7.2936  -14.7720 O   0  0  0  0  0  0  0  0  0  0  0  0
   21.0546   -8.0359  -14.7281 N   0  0  0  0  0  0  0  0  0  0  0  0
   22.2125   -8.8154  -15.1038 C   0  0  0  0  0  0  0  0  0  0  0  0
   22.8877   -9.0972  -13.7673 C   0  0  0  0  0  0  0  0  0  0  0  0
   22.2487   -8.2113  -12.7549 C   0  0  0  0  0  0  0  0  0  0  0  0
   21.5070   -7.2076  -13.5971 C   0  0  1  0  0  0  0  0  0  0  0  0
   22.4572   -6.1561  -14.0208 C   0  0  0  0  0  0  0  0  0  0  0  0
   22.9201   -5.2556  -13.2768 O   0  0  0  0  0  0  0  0  0  0  0  0
   22.9100   -6.1147  -15.3484 O   0  0  0  0  0  0  0  0  0  0  0  0
  2  1  1  1
  3  2  1  0
  4  2  1  0
  4  5  2  0
  7  6  1  6
  7  9  1  0
  8  7  1  0
  9 10  1  6
  9 11  1  0
 10  4  1  0
 11 13  1  0
 12 11  2  0
 13 17  1  0
 13 14  1  0
 14 15  1  0
 16 15  1  0
 17 16  1  0
 18 20  1  0
 17 18  1  6
 19 18  2  0
M  END
$$$$
