YMI.pdb
     RDKit          3D

 29 29  0  0  1  0  0  0  0  0999 V2000
   18.3755  -23.5391  -10.1798 O   0  0  0  0  0  0  0  0  0  0  0  0
   19.5408  -22.7928  -10.3926 C   0  0  0  0  0  0  0  0  0  0  0  0
   19.8544  -21.7428   -9.5552 C   0  0  0  0  0  0  0  0  0  0  0  0
   21.0111  -21.0156   -9.7810 C   0  0  0  0  0  0  0  0  0  0  0  0
   21.8797  -21.2951  -10.8198 C   0  0  0  0  0  0  0  0  0  0  0  0
   23.0807  -20.4748  -10.9892 C   0  0  0  0  0  0  0  0  0  0  0  0
   24.3425  -21.0968  -10.4401 C   0  0  2  0  0  0  0  0  0  0  0  0
   24.3233  -20.9512   -9.0030 N   0  0  0  0  0  0  0  0  0  0  0  0
   25.5077  -20.2980  -10.9530 C   0  0  0  0  0  0  0  0  0  0  0  0
   25.8363  -19.2103  -10.3873 O   0  0  0  0  0  0  0  0  0  0  0  0
   21.5514  -22.3502  -11.6497 C   0  0  0  0  0  0  0  0  0  0  0  0
   20.4010  -23.0738  -11.4260 C   0  0  0  0  0  0  0  0  0  0  0  0
   31.6023  -21.3419  -11.3466 C   0  0  0  0  0  0  0  0  0  0  0  0
   30.1896  -22.4023  -11.0357 S   0  0  0  0  0  0  0  0  0  0  0  0
   28.6180  -21.4385  -11.0866 C   0  0  0  0  0  0  0  0  0  0  0  0
   28.5334  -20.7484  -12.3959 C   0  0  0  0  0  0  0  0  0  0  0  0
   27.2724  -19.9705  -12.6628 C   0  0  2  0  0  0  0  0  0  0  0  0
   26.2047  -20.8026  -12.0707 N   0  0  0  0  0  0  0  0  0  0  0  0
   26.9877  -19.6861  -14.0634 C   0  0  0  0  0  0  0  0  0  0  0  0
   26.3513  -20.5258  -14.7519 O   0  0  0  0  0  0  0  0  0  0  0  0
   26.0433  -14.5937  -17.2886 C   0  0  0  0  0  0  0  0  0  0  0  0
   26.3649  -16.0387  -17.3336 C   0  0  0  0  0  0  0  0  0  0  0  0
   26.7006  -16.7091  -16.0565 C   0  0  2  0  0  0  0  0  0  0  0  0
   27.6921  -15.8987  -15.2873 C   0  0  0  0  0  0  0  0  0  0  0  0
   26.9593  -18.1769  -16.0788 C   0  0  2  0  0  0  0  0  0  0  0  0
   27.3949  -18.4933  -14.6882 N   0  0  0  0  0  0  0  0  0  0  0  0
   28.0067  -18.6409  -16.9904 C   0  0  0  0  0  0  0  0  0  0  0  0
   27.7894  -18.7300  -18.2185 O   0  0  0  0  0  0  0  0  0  0  0  0
   29.2706  -18.9981  -16.5477 O   0  0  0  0  0  0  0  0  0  0  0  0
  1  2  1  0
  2  3  2  0
  3  4  1  0
  5  4  2  0
  5  6  1  0
  7  6  1  0
  7  8  1  1
  9  7  1  0
 10  9  2  0
 11  5  1  0
 12  2  1  0
 12 11  2  0
 14 15  1  0
 14 13  1  0
 17 16  1  6
 16 15  1  0
 17 18  1  0
 18  9  1  0
 19 26  1  0
 19 17  1  0
 20 19  2  0
 22 21  1  0
 22 23  1  0
 23 24  1  6
 25 23  1  0
 25 26  1  1
 27 25  1  0
 27 29  1  0
 28 27  2  0
M  END
$$$$
