YMI.pdb
     RDKit          3D

 29 29  0  0  1  0  0  0  0  0999 V2000
   15.5261  -23.6215  -17.0206 O   0  0  0  0  0  0  0  0  0  0  0  0
   16.6644  -22.9581  -16.5469 C   0  0  0  0  0  0  0  0  0  0  0  0
   17.8459  -23.6474  -16.3715 C   0  0  0  0  0  0  0  0  0  0  0  0
   18.9618  -22.9749  -15.9020 C   0  0  0  0  0  0  0  0  0  0  0  0
   18.9490  -21.6264  -15.5965 C   0  0  0  0  0  0  0  0  0  0  0  0
   20.1732  -20.9926  -15.1029 C   0  0  0  0  0  0  0  0  0  0  0  0
   20.5280  -21.3477  -13.6786 C   0  0  2  0  0  0  0  0  0  0  0  0
   19.5728  -20.7040  -12.8067 N   0  0  0  0  0  0  0  0  0  0  0  0
   21.8752  -20.7523  -13.3800 C   0  0  0  0  0  0  0  0  0  0  0  0
   21.9807  -19.5208  -13.0913 O   0  0  0  0  0  0  0  0  0  0  0  0
   17.7577  -20.9501  -15.7780 C   0  0  0  0  0  0  0  0  0  0  0  0
   16.6473  -21.6183  -16.2446 C   0  0  0  0  0  0  0  0  0  0  0  0
   25.9366  -20.1103   -9.9874 C   0  0  0  0  0  0  0  0  0  0  0  0
   26.7103  -21.6521  -10.4781 S   0  0  0  0  0  0  0  0  0  0  0  0
   26.5424  -21.9252  -12.2944 C   0  0  0  0  0  0  0  0  0  0  0  0
   25.1156  -22.1870  -12.5993 C   0  0  0  0  0  0  0  0  0  0  0  0
   24.3283  -21.0337  -13.1618 C   0  0  2  0  0  0  0  0  0  0  0  0
   22.9949  -21.6083  -13.4355 N   0  0  0  0  0  0  0  0  0  0  0  0
   24.8793  -20.4152  -14.3608 C   0  0  0  0  0  0  0  0  0  0  0  0
   24.7618  -20.9965  -15.4709 O   0  0  0  0  0  0  0  0  0  0  0  0
   26.7264  -14.7651  -16.0332 C   0  0  0  0  0  0  0  0  0  0  0  0
   26.6648  -16.2120  -16.3434 C   0  0  0  0  0  0  0  0  0  0  0  0
   26.2536  -17.1316  -15.2578 C   0  0  2  0  0  0  0  0  0  0  0  0
   27.0237  -16.8433  -14.0107 C   0  0  0  0  0  0  0  0  0  0  0  0
   26.0891  -18.5766  -15.5841 C   0  0  2  0  0  0  0  0  0  0  0  0
   25.5426  -19.1750  -14.3323 N   0  0  0  0  0  0  0  0  0  0  0  0
   27.3076  -19.3093  -15.9333 C   0  0  0  0  0  0  0  0  0  0  0  0
   28.0008  -19.8530  -15.0461 O   0  0  0  0  0  0  0  0  0  0  0  0
   27.7473  -19.4367  -17.2416 O   0  0  0  0  0  0  0  0  0  0  0  0
  1  2  1  0
  2  3  2  0
  3  4  1  0
  5  4  2  0
  5  6  1  0
  7  6  1  0
  7  8  1  1
  9  7  1  0
 10  9  2  0
 11  5  1  0
 12  2  1  0
 12 11  2  0
 14 15  1  0
 14 13  1  0
 17 16  1  6
 16 15  1  0
 17 18  1  0
 18  9  1  0
 19 26  1  0
 19 17  1  0
 20 19  2  0
 22 21  1  0
 22 23  1  0
 23 24  1  1
 25 23  1  0
 25 26  1  1
 27 25  1  0
 27 29  1  0
 28 27  2  0
M  END
$$$$
