YMI.pdb
     RDKit          3D

 29 29  0  0  1  0  0  0  0  0999 V2000
   28.9183  -14.0343  -17.4515 O   0  0  0  0  0  0  0  0  0  0  0  0
   28.3533  -15.1663  -16.8517 C   0  0  0  0  0  0  0  0  0  0  0  0
   27.8779  -15.1016  -15.5588 C   0  0  0  0  0  0  0  0  0  0  0  0
   27.3224  -16.2313  -14.9816 C   0  0  0  0  0  0  0  0  0  0  0  0
   27.2191  -17.4382  -15.6483 C   0  0  0  0  0  0  0  0  0  0  0  0
   26.6197  -18.5853  -14.9637 C   0  0  0  0  0  0  0  0  0  0  0  0
   27.6178  -19.5163  -14.3173 C   0  0  2  0  0  0  0  0  0  0  0  0
   28.2810  -20.2570  -15.3652 N   0  0  0  0  0  0  0  0  0  0  0  0
   26.8497  -20.5076  -13.4889 C   0  0  0  0  0  0  0  0  0  0  0  0
   26.3803  -21.5594  -14.0221 O   0  0  0  0  0  0  0  0  0  0  0  0
   27.6997  -17.4864  -16.9431 C   0  0  0  0  0  0  0  0  0  0  0  0
   28.2528  -16.3633  -17.5177 C   0  0  0  0  0  0  0  0  0  0  0  0
   27.3425  -20.8280   -7.1352 C   0  0  0  0  0  0  0  0  0  0  0  0
   25.5557  -20.7260   -7.2524 S   0  0  0  0  0  0  0  0  0  0  0  0
   24.9770  -21.2068   -8.9363 C   0  0  0  0  0  0  0  0  0  0  0  0
   25.8905  -20.6040   -9.9359 C   0  0  0  0  0  0  0  0  0  0  0  0
   25.6302  -20.9524  -11.3772 C   0  0  2  0  0  0  0  0  0  0  0  0
   26.6773  -20.2200  -12.1188 N   0  0  0  0  0  0  0  0  0  0  0  0
   24.3064  -20.6117  -11.8824 C   0  0  0  0  0  0  0  0  0  0  0  0
   24.0167  -19.4074  -12.1059 O   0  0  0  0  0  0  0  0  0  0  0  0
   22.8588  -22.1401  -16.3443 C   0  0  0  0  0  0  0  0  0  0  0  0
   22.8416  -21.3891  -15.0678 C   0  0  0  0  0  0  0  0  0  0  0  0
   21.9184  -21.8550  -14.0077 C   0  0  2  0  0  0  0  0  0  0  0  0
   20.5416  -22.0363  -14.5583 C   0  0  0  0  0  0  0  0  0  0  0  0
   21.9879  -21.1941  -12.6735 C   0  0  2  0  0  0  0  0  0  0  0  0
   23.3244  -21.5854  -12.1401 N   0  0  0  0  0  0  0  0  0  0  0  0
   20.9802  -21.5989  -11.6917 C   0  0  0  0  0  0  0  0  0  0  0  0
   19.8283  -21.1138  -11.7234 O   0  0  0  0  0  0  0  0  0  0  0  0
   21.2457  -22.5246  -10.6948 O   0  0  0  0  0  0  0  0  0  0  0  0
  1  2  1  0
  2  3  2  0
  3  4  1  0
  5  4  2  0
  5  6  1  0
  7  6  1  0
  7  8  1  6
  9  7  1  0
 10  9  2  0
 11  5  1  0
 12  2  1  0
 12 11  2  0
 14 15  1  0
 14 13  1  0
 17 16  1  1
 16 15  1  0
 17 18  1  0
 18  9  1  0
 19 26  1  0
 19 17  1  0
 20 19  2  0
 22 21  1  0
 22 23  1  0
 23 24  1  6
 25 23  1  0
 25 26  1  1
 27 25  1  0
 27 29  1  0
 28 27  2  0
M  END
$$$$
