YMI.pdb
     RDKit          3D

 29 29  0  0  1  0  0  0  0  0999 V2000
   28.4056  -13.3777  -18.2661 O   0  0  0  0  0  0  0  0  0  0  0  0
   27.7604  -14.4691  -17.6721 C   0  0  0  0  0  0  0  0  0  0  0  0
   27.9098  -14.7126  -16.3229 C   0  0  0  0  0  0  0  0  0  0  0  0
   27.2642  -15.7969  -15.7525 C   0  0  0  0  0  0  0  0  0  0  0  0
   26.4652  -16.6594  -16.4801 C   0  0  0  0  0  0  0  0  0  0  0  0
   25.8200  -17.7838  -15.7993 C   0  0  0  0  0  0  0  0  0  0  0  0
   26.7506  -18.9239  -15.4604 C   0  0  2  0  0  0  0  0  0  0  0  0
   27.1122  -19.5863  -16.6922 N   0  0  0  0  0  0  0  0  0  0  0  0
   25.9800  -19.9135  -14.6323 C   0  0  0  0  0  0  0  0  0  0  0  0
   25.2436  -20.7815  -15.1938 O   0  0  0  0  0  0  0  0  0  0  0  0
   26.3255  -16.4016  -17.8306 C   0  0  0  0  0  0  0  0  0  0  0  0
   26.9676  -15.3235  -18.3987 C   0  0  0  0  0  0  0  0  0  0  0  0
   24.9869  -21.5982   -6.9498 C   0  0  0  0  0  0  0  0  0  0  0  0
   25.7805  -20.7291   -8.3032 S   0  0  0  0  0  0  0  0  0  0  0  0
   25.0525  -21.2265   -9.9231 C   0  0  0  0  0  0  0  0  0  0  0  0
   25.7616  -20.4953  -11.0001 C   0  0  0  0  0  0  0  0  0  0  0  0
   25.2346  -20.6845  -12.3975 C   0  0  2  0  0  0  0  0  0  0  0  0
   26.1098  -19.8338  -13.2301 N   0  0  0  0  0  0  0  0  0  0  0  0
   23.8339  -20.3364  -12.5991 C   0  0  0  0  0  0  0  0  0  0  0  0
   23.4667  -19.1387  -12.4772 O   0  0  0  0  0  0  0  0  0  0  0  0
   21.4745  -19.9357  -16.7851 C   0  0  0  0  0  0  0  0  0  0  0  0
   21.7415  -19.8859  -15.3291 C   0  0  0  0  0  0  0  0  0  0  0  0
   21.1234  -20.9301  -14.4801 C   0  0  2  0  0  0  0  0  0  0  0  0
   19.6836  -21.1070  -14.8367 C   0  0  0  0  0  0  0  0  0  0  0  0
   21.4198  -20.9161  -13.0194 C   0  0  2  0  0  0  0  0  0  0  0  0
   22.8598  -21.2943  -12.9342 N   0  0  0  0  0  0  0  0  0  0  0  0
   20.6623  -21.8559  -12.1910 C   0  0  0  0  0  0  0  0  0  0  0  0
   19.6306  -21.4867  -11.5890 O   0  0  0  0  0  0  0  0  0  0  0  0
   21.0421  -23.1797  -12.0346 O   0  0  0  0  0  0  0  0  0  0  0  0
  1  2  1  0
  2  3  2  0
  3  4  1  0
  5  4  2  0
  5  6  1  0
  7  6  1  0
  7  8  1  6
  9  7  1  0
 10  9  2  0
 11  5  1  0
 12  2  1  0
 12 11  2  0
 14 15  1  0
 14 13  1  0
 17 16  1  1
 16 15  1  0
 17 18  1  0
 18  9  1  0
 19 26  1  0
 19 17  1  0
 20 19  2  0
 22 21  1  0
 22 23  1  0
 23 24  1  1
 25 23  1  0
 25 26  1  6
 27 25  1  0
 27 29  1  0
 28 27  2  0
M  END
$$$$
