YMI.pdb
     RDKit          3D

 29 29  0  0  1  0  0  0  0  0999 V2000
   30.7967  -16.2693  -19.1199 O   0  0  0  0  0  0  0  0  0  0  0  0
   29.8923  -17.1865  -18.5714 C   0  0  0  0  0  0  0  0  0  0  0  0
   28.9772  -16.7764  -17.6247 C   0  0  0  0  0  0  0  0  0  0  0  0
   28.0902  -17.6975  -17.0930 C   0  0  0  0  0  0  0  0  0  0  0  0
   28.0769  -19.0275  -17.4708 C   0  0  0  0  0  0  0  0  0  0  0  0
   27.1066  -19.9363  -16.8572 C   0  0  0  0  0  0  0  0  0  0  0  0
   27.7111  -20.9475  -15.9123 C   0  0  2  0  0  0  0  0  0  0  0  0
   28.0861  -22.1104  -16.6830 N   0  0  0  0  0  0  0  0  0  0  0  0
   26.6372  -21.3767  -14.9525 C   0  0  0  0  0  0  0  0  0  0  0  0
   25.8467  -22.3217  -15.2578 O   0  0  0  0  0  0  0  0  0  0  0  0
   28.9998  -19.4224  -18.4205 C   0  0  0  0  0  0  0  0  0  0  0  0
   29.8825  -18.5069  -18.9496 C   0  0  0  0  0  0  0  0  0  0  0  0
   25.1164  -20.9910   -7.2798 C   0  0  0  0  0  0  0  0  0  0  0  0
   26.1303  -20.7213   -8.7345 S   0  0  0  0  0  0  0  0  0  0  0  0
   25.1123  -20.7957  -10.2706 C   0  0  0  0  0  0  0  0  0  0  0  0
   26.0060  -20.5918  -11.4356 C   0  0  0  0  0  0  0  0  0  0  0  0
   25.5156  -21.1213  -12.7568 C   0  0  2  0  0  0  0  0  0  0  0  0
   26.5496  -20.6936  -13.7216 N   0  0  0  0  0  0  0  0  0  0  0  0
   24.1979  -20.6600  -13.1747 C   0  0  0  0  0  0  0  0  0  0  0  0
   24.0273  -19.4481  -13.4685 O   0  0  0  0  0  0  0  0  0  0  0  0
   19.5803  -22.1805  -16.5906 C   0  0  0  0  0  0  0  0  0  0  0  0
   19.9678  -21.4696  -15.3504 C   0  0  0  0  0  0  0  0  0  0  0  0
   21.3320  -21.7007  -14.8224 C   0  0  2  0  0  0  0  0  0  0  0  0
   21.6668  -23.1559  -14.8624 C   0  0  0  0  0  0  0  0  0  0  0  0
   21.7340  -20.9895  -13.5757 C   0  0  2  0  0  0  0  0  0  0  0  0
   23.0922  -21.5243  -13.2706 N   0  0  0  0  0  0  0  0  0  0  0  0
   20.8928  -21.2111  -12.3981 C   0  0  0  0  0  0  0  0  0  0  0  0
   21.1770  -22.1043  -11.5707 O   0  0  0  0  0  0  0  0  0  0  0  0
   19.7590  -20.4555  -12.1436 O   0  0  0  0  0  0  0  0  0  0  0  0
  1  2  1  0
  2  3  2  0
  3  4  1  0
  5  4  2  0
  5  6  1  0
  7  6  1  0
  7  8  1  6
  9  7  1  0
 10  9  2  0
 11  5  1  0
 12  2  1  0
 12 11  2  0
 14 15  1  0
 14 13  1  0
 17 16  1  1
 16 15  1  0
 17 18  1  0
 18  9  1  0
 19 26  1  0
 19 17  1  0
 20 19  2  0
 22 21  1  0
 22 23  1  0
 23 24  1  1
 25 23  1  0
 25 26  1  1
 27 25  1  0
 27 29  1  0
 28 27  2  0
M  END
$$$$
