YMI.pdb
     RDKit          3D

 29 29  0  0  1  0  0  0  0  0999 V2000
   28.6167  -15.4526  -18.4506 O   0  0  0  0  0  0  0  0  0  0  0  0
   28.0780  -16.4001  -17.5718 C   0  0  0  0  0  0  0  0  0  0  0  0
   27.6576  -17.6251  -18.0455 C   0  0  0  0  0  0  0  0  0  0  0  0
   27.1272  -18.5500  -17.1617 C   0  0  0  0  0  0  0  0  0  0  0  0
   26.9972  -18.3017  -15.8077 C   0  0  0  0  0  0  0  0  0  0  0  0
   26.4235  -19.3342  -14.9424 C   0  0  0  0  0  0  0  0  0  0  0  0
   27.4445  -20.1584  -14.1948 C   0  0  2  0  0  0  0  0  0  0  0  0
   28.0551  -21.0714  -15.1331 N   0  0  0  0  0  0  0  0  0  0  0  0
   26.7093  -20.9883  -13.1802 C   0  0  0  0  0  0  0  0  0  0  0  0
   26.2950  -22.1494  -13.4825 O   0  0  0  0  0  0  0  0  0  0  0  0
   27.4233  -17.0698  -15.3488 C   0  0  0  0  0  0  0  0  0  0  0  0
   27.9506  -16.1493  -16.2274 C   0  0  0  0  0  0  0  0  0  0  0  0
   27.0044  -18.8627   -7.2657 C   0  0  0  0  0  0  0  0  0  0  0  0
   26.3307  -20.4809   -6.8857 S   0  0  0  0  0  0  0  0  0  0  0  0
   25.5551  -21.2390   -8.3774 C   0  0  0  0  0  0  0  0  0  0  0  0
   26.2273  -20.6969   -9.5822 C   0  0  0  0  0  0  0  0  0  0  0  0
   25.7387  -21.2107  -10.9102 C   0  0  2  0  0  0  0  0  0  0  0  0
   26.5041  -20.4278  -11.9022 N   0  0  0  0  0  0  0  0  0  0  0  0
   24.3065  -21.0870  -11.1495 C   0  0  0  0  0  0  0  0  0  0  0  0
   23.4940  -21.4202  -10.2479 O   0  0  0  0  0  0  0  0  0  0  0  0
   20.8325  -17.8831  -15.1350 C   0  0  0  0  0  0  0  0  0  0  0  0
   20.9006  -18.8853  -14.0467 C   0  0  0  0  0  0  0  0  0  0  0  0
   22.2422  -19.3108  -13.5859 C   0  0  2  0  0  0  0  0  0  0  0  0
   23.1459  -19.5394  -14.7532 C   0  0  0  0  0  0  0  0  0  0  0  0
   22.3235  -20.3370  -12.5080 C   0  0  2  0  0  0  0  0  0  0  0  0
   23.7841  -20.5990  -12.3610 N   0  0  0  0  0  0  0  0  0  0  0  0
   21.6656  -21.6173  -12.7752 C   0  0  0  0  0  0  0  0  0  0  0  0
   20.4357  -21.7518  -12.5951 O   0  0  0  0  0  0  0  0  0  0  0  0
   22.3592  -22.7261  -13.2341 O   0  0  0  0  0  0  0  0  0  0  0  0
  1  2  1  0
  2  3  2  0
  3  4  1  0
  5  4  2  0
  5  6  1  0
  7  6  1  0
  7  8  1  6
  9  7  1  0
 10  9  2  0
 11  5  1  0
 12  2  1  0
 12 11  2  0
 14 15  1  0
 14 13  1  0
 17 16  1  1
 16 15  1  0
 17 18  1  0
 18  9  1  0
 19 26  1  0
 19 17  1  0
 20 19  2  0
 22 21  1  0
 22 23  1  0
 23 24  1  6
 25 23  1  0
 25 26  1  6
 27 25  1  0
 27 29  1  0
 28 27  2  0
M  END
$$$$
