PGN.pdb
     RDKit          3D

 20 20  0  0  1  0  0  0  0  0999 V2000
   20.0413  -11.5336  -19.4989 N   0  0  0  0  0  0  0  0  0  0  0  0
   19.7699  -12.6395  -20.3752 C   0  0  0  0  0  0  0  0  0  0  0  0
   18.6112  -13.4034  -19.7126 C   0  0  0  0  0  0  0  0  0  0  0  0
   19.0084  -13.1656  -18.2491 C   0  0  0  0  0  0  0  0  0  0  0  0
   19.2828  -11.6768  -18.2978 C   0  0  1  0  0  0  0  0  0  0  0  0
   19.9714  -11.2184  -17.0921 C   0  0  0  0  0  0  0  0  0  0  0  0
   19.3801  -11.2566  -15.9905 O   0  0  0  0  0  0  0  0  0  0  0  0
   21.2966  -10.7307  -17.1461 N   0  0  0  0  0  0  0  0  0  0  0  0
   22.0185  -10.2429  -15.9758 C   0  0  0  0  0  0  0  0  0  0  0  0
   21.4650   -8.9321  -15.5295 C   0  0  0  0  0  0  0  0  0  0  0  0
   20.4740   -8.9486  -14.7533 O   0  0  0  0  0  0  0  0  0  0  0  0
   20.6593   -3.9308  -14.4826 N   0  0  0  0  0  0  0  0  0  0  0  0
   22.0329   -4.2755  -14.3881 C   0  0  0  0  0  0  0  0  0  0  0  0
   22.8635   -3.4832  -13.8755 O   0  0  0  0  0  0  0  0  0  0  0  0
   22.4493   -5.5695  -14.9003 C   0  0  0  0  0  0  0  0  0  0  0  0
   21.3538   -6.4596  -15.4279 C   0  0  2  0  0  0  0  0  0  0  0  0
   21.9901   -7.6980  -15.9294 N   0  0  0  0  0  0  0  0  0  0  0  0
   20.6067   -5.8327  -16.5537 C   0  0  0  0  0  0  0  0  0  0  0  0
   21.0760   -5.9293  -17.7097 O   0  0  0  0  0  0  0  0  0  0  0  0
   19.4319   -5.1593  -16.3745 O   0  0  0  0  0  0  0  0  0  0  0  0
  1  2  1  0
  2  3  1  0
  4  3  1  0
  5  1  1  0
  5  4  1  0
  5  6  1  1
  7  6  2  0
  8  6  1  0
  9  8  1  0
 10  9  1  0
 10 17  1  0
 11 10  2  0
 13 12  1  0
 14 13  2  0
 15 13  1  0
 16 17  1  0
 16 15  1  6
 18 16  1  0
 19 18  2  0
 20 18  1  0
M  END
$$$$
