PGN.pdb
     RDKit          3D

 20 20  0  0  1  0  0  0  0  0999 V2000
   27.9134  -22.6184  -16.6081 N   0  0  0  0  0  0  0  0  0  0  0  0
   28.1409  -23.7805  -17.4220 C   0  0  0  0  0  0  0  0  0  0  0  0
   28.2792  -23.2462  -18.8574 C   0  0  0  0  0  0  0  0  0  0  0  0
   27.2708  -22.0935  -18.7539 C   0  0  0  0  0  0  0  0  0  0  0  0
   27.7205  -21.4778  -17.4450 C   0  0  1  0  0  0  0  0  0  0  0  0
   26.7404  -20.5180  -16.9389 C   0  0  0  0  0  0  0  0  0  0  0  0
   26.3764  -19.5660  -17.6639 O   0  0  0  0  0  0  0  0  0  0  0  0
   26.1940  -20.6441  -15.6417 N   0  0  0  0  0  0  0  0  0  0  0  0
   25.0815  -19.8328  -15.1593 C   0  0  0  0  0  0  0  0  0  0  0  0
   24.2247  -20.6220  -14.2282 C   0  0  0  0  0  0  0  0  0  0  0  0
   23.9920  -21.8236  -14.5228 O   0  0  0  0  0  0  0  0  0  0  0  0
   25.3499  -21.7775  -11.0852 N   0  0  0  0  0  0  0  0  0  0  0  0
   24.5085  -21.0162  -10.2326 C   0  0  0  0  0  0  0  0  0  0  0  0
   24.8735  -20.7127   -9.0686 O   0  0  0  0  0  0  0  0  0  0  0  0
   23.2150  -20.5985  -10.7451 C   0  0  0  0  0  0  0  0  0  0  0  0
   22.9038  -20.9928  -12.1658 C   0  0  2  0  0  0  0  0  0  0  0  0
   23.6732  -20.0944  -13.0551 N   0  0  0  0  0  0  0  0  0  0  0  0
   21.4583  -20.8430  -12.4921 C   0  0  0  0  0  0  0  0  0  0  0  0
   21.0613  -19.7528  -12.9609 O   0  0  0  0  0  0  0  0  0  0  0  0
   20.5516  -21.8465  -12.3012 O   0  0  0  0  0  0  0  0  0  0  0  0
  1  2  1  0
  2  3  1  0
  4  3  1  0
  5  1  1  0
  5  4  1  0
  5  6  1  1
  7  6  2  0
  8  6  1  0
  9  8  1  0
 10  9  1  0
 10 17  1  0
 11 10  2  0
 13 12  1  0
 14 13  2  0
 15 13  1  0
 16 17  1  0
 16 15  1  1
 18 16  1  0
 19 18  2  0
 20 18  1  0
M  END
$$$$
