PGN.pdb
     RDKit          3D

 20 20  0  0  1  0  0  0  0  0999 V2000
   27.4598  -21.2674  -12.6654 N   0  0  0  0  0  0  0  0  0  0  0  0
   28.8410  -21.2862  -12.2696 C   0  0  0  0  0  0  0  0  0  0  0  0
   29.1934  -19.8201  -11.9672 C   0  0  0  0  0  0  0  0  0  0  0  0
   28.3125  -19.1637  -13.0394 C   0  0  0  0  0  0  0  0  0  0  0  0
   27.0194  -19.9162  -12.8031 C   0  0  1  0  0  0  0  0  0  0  0  0
   26.0669  -19.7010  -13.8914 C   0  0  0  0  0  0  0  0  0  0  0  0
   25.5281  -18.5805  -14.0284 O   0  0  0  0  0  0  0  0  0  0  0  0
   25.7409  -20.7374  -14.7951 N   0  0  0  0  0  0  0  0  0  0  0  0
   24.8884  -20.5424  -15.9629 C   0  0  0  0  0  0  0  0  0  0  0  0
   23.4628  -20.8147  -15.6204 C   0  0  0  0  0  0  0  0  0  0  0  0
   22.6105  -20.7189  -16.5419 O   0  0  0  0  0  0  0  0  0  0  0  0
   19.0857  -22.3307  -13.2728 N   0  0  0  0  0  0  0  0  0  0  0  0
   20.0916  -22.2577  -12.2742 C   0  0  0  0  0  0  0  0  0  0  0  0
   19.8271  -22.5109  -11.0716 O   0  0  0  0  0  0  0  0  0  0  0  0
   21.4341  -21.8826  -12.6831 C   0  0  0  0  0  0  0  0  0  0  0  0
   21.6136  -21.5368  -14.1387 C   0  0  2  0  0  0  0  0  0  0  0  0
   23.0331  -21.1677  -14.3361 N   0  0  0  0  0  0  0  0  0  0  0  0
   20.7711  -20.3812  -14.5551 C   0  0  0  0  0  0  0  0  0  0  0  0
   19.7212  -20.6077  -15.1972 O   0  0  0  0  0  0  0  0  0  0  0  0
   21.0981  -19.0875  -14.2634 O   0  0  0  0  0  0  0  0  0  0  0  0
  1  2  1  0
  2  3  1  0
  4  3  1  0
  5  1  1  0
  5  4  1  0
  5  6  1  6
  7  6  2  0
  8  6  1  0
  9  8  1  0
 10  9  1  0
 10 17  1  0
 11 10  2  0
 13 12  1  0
 14 13  2  0
 15 13  1  0
 16 17  1  0
 16 15  1  1
 18 16  1  0
 19 18  2  0
 20 18  1  0
M  END
$$$$
