PGN.pdb
     RDKit          3D

 20 20  0  0  1  0  0  0  0  0999 V2000
   14.8108  -22.9990   -2.0641 N   0  0  0  0  0  0  0  0  0  0  0  0
   14.8000  -24.2230   -2.8166 C   0  0  0  0  0  0  0  0  0  0  0  0
   13.3130  -24.5446   -3.0412 C   0  0  0  0  0  0  0  0  0  0  0  0
   12.7753  -24.0096   -1.7066 C   0  0  0  0  0  0  0  0  0  0  0  0
   13.4798  -22.6692   -1.6667 C   0  0  1  0  0  0  0  0  0  0  0  0
   13.3813  -22.0506   -0.3455 C   0  0  0  0  0  0  0  0  0  0  0  0
   12.2609  -21.9260    0.1965 O   0  0  0  0  0  0  0  0  0  0  0  0
   14.5307  -21.5882    0.3343 N   0  0  0  0  0  0  0  0  0  0  0  0
   14.4949  -21.0390    1.6854 C   0  0  0  0  0  0  0  0  0  0  0  0
   14.9438  -22.0591    2.6762 C   0  0  0  0  0  0  0  0  0  0  0  0
   14.8234  -23.2725    2.3628 O   0  0  0  0  0  0  0  0  0  0  0  0
   18.0377  -24.4179    4.1266 N   0  0  0  0  0  0  0  0  0  0  0  0
   18.3136  -23.3499    5.0198 C   0  0  0  0  0  0  0  0  0  0  0  0
   19.4788  -23.1508    5.4477 O   0  0  0  0  0  0  0  0  0  0  0  0
   17.2108  -22.4950    5.4237 C   0  0  0  0  0  0  0  0  0  0  0  0
   15.8615  -22.8316    4.8435 C   0  0  2  0  0  0  0  0  0  0  0  0
   15.4865  -21.7339    3.9245 N   0  0  0  0  0  0  0  0  0  0  0  0
   14.8064  -22.9429    5.8890 C   0  0  0  0  0  0  0  0  0  0  0  0
   14.0987  -21.9402    6.1329 O   0  0  0  0  0  0  0  0  0  0  0  0
   14.5811  -24.0937    6.5893 O   0  0  0  0  0  0  0  0  0  0  0  0
  1  2  1  0
  2  3  1  0
  4  3  1  0
  5  1  1  0
  5  4  1  0
  5  6  1  1
  7  6  2  0
  8  6  1  0
  9  8  1  0
 10  9  1  0
 10 17  1  0
 11 10  2  0
 13 12  1  0
 14 13  2  0
 15 13  1  0
 16 17  1  0
 16 15  1  1
 18 16  1  0
 19 18  2  0
 20 18  1  0
M  END
$$$$
