PGN.pdb
     RDKit          3D

 20 20  0  0  1  0  0  0  0  0999 V2000
   32.3932  -23.3922  -13.5723 N   0  0  0  0  0  0  0  0  0  0  0  0
   33.7915  -23.5241  -13.2694 C   0  0  0  0  0  0  0  0  0  0  0  0
   33.8824  -23.4296  -11.7371 C   0  0  0  0  0  0  0  0  0  0  0  0
   32.7481  -22.4188  -11.5183 C   0  0  0  0  0  0  0  0  0  0  0  0
   31.6770  -23.0453  -12.3869 C   0  0  1  0  0  0  0  0  0  0  0  0
   30.5590  -22.1285  -12.6050 C   0  0  0  0  0  0  0  0  0  0  0  0
   29.9030  -22.1958  -13.6679 O   0  0  0  0  0  0  0  0  0  0  0  0
   30.2032  -21.1636  -11.6358 N   0  0  0  0  0  0  0  0  0  0  0  0
   29.0315  -20.3026  -11.7558 C   0  0  0  0  0  0  0  0  0  0  0  0
   27.9530  -20.7563  -10.8312 C   0  0  0  0  0  0  0  0  0  0  0  0
   28.0196  -21.9318  -10.3857 O   0  0  0  0  0  0  0  0  0  0  0  0
   28.0925  -20.3239   -7.7159 N   0  0  0  0  0  0  0  0  0  0  0  0
   27.0201  -19.4341   -7.4463 C   0  0  0  0  0  0  0  0  0  0  0  0
   27.0793  -18.6234   -6.4874 O   0  0  0  0  0  0  0  0  0  0  0  0
   25.8539  -19.4882   -8.3108 C   0  0  0  0  0  0  0  0  0  0  0  0
   25.9161  -20.4719   -9.4505 C   0  0  2  0  0  0  0  0  0  0  0  0
   26.8818  -19.9449  -10.4403 N   0  0  0  0  0  0  0  0  0  0  0  0
   24.6003  -20.6382  -10.1285 C   0  0  0  0  0  0  0  0  0  0  0  0
   24.4259  -20.0869  -11.2381 O   0  0  0  0  0  0  0  0  0  0  0  0
   23.5798  -21.3679   -9.5884 O   0  0  0  0  0  0  0  0  0  0  0  0
  1  2  1  0
  2  3  1  0
  4  3  1  0
  5  1  1  0
  5  4  1  0
  5  6  1  6
  7  6  2  0
  8  6  1  0
  9  8  1  0
 10  9  1  0
 10 17  1  0
 11 10  2  0
 13 12  1  0
 14 13  2  0
 15 13  1  0
 16 17  1  0
 16 15  1  1
 18 16  1  0
 19 18  2  0
 20 18  1  0
M  END
$$$$
