PGN.pdb
     RDKit          3D

 20 20  0  0  1  0  0  0  0  0999 V2000
   27.3009  -20.8110  -13.1271 N   0  0  0  0  0  0  0  0  0  0  0  0
   28.7370  -20.8476  -13.1582 C   0  0  0  0  0  0  0  0  0  0  0  0
   29.1492  -19.6959  -14.0902 C   0  0  0  0  0  0  0  0  0  0  0  0
   27.9743  -19.7867  -15.0738 C   0  0  0  0  0  0  0  0  0  0  0  0
   26.8247  -19.8718  -14.0912 C   0  0  1  0  0  0  0  0  0  0  0  0
   25.5815  -20.2653  -14.7527 C   0  0  0  0  0  0  0  0  0  0  0  0
   25.0336  -19.4790  -15.5565 O   0  0  0  0  0  0  0  0  0  0  0  0
   24.9835  -21.5207  -14.5010 N   0  0  0  0  0  0  0  0  0  0  0  0
   23.7602  -21.9705  -15.1565 C   0  0  0  0  0  0  0  0  0  0  0  0
   22.5641  -21.5749  -14.3585 C   0  0  0  0  0  0  0  0  0  0  0  0
   21.4872  -22.1905  -14.5731 O   0  0  0  0  0  0  0  0  0  0  0  0
   23.7191  -20.9229   -9.9373 N   0  0  0  0  0  0  0  0  0  0  0  0
   22.3571  -20.9856  -10.3316 C   0  0  0  0  0  0  0  0  0  0  0  0
   21.6169  -21.9268   -9.9488 O   0  0  0  0  0  0  0  0  0  0  0  0
   21.8450  -19.9309  -11.1891 C   0  0  0  0  0  0  0  0  0  0  0  0
   21.3789  -20.3543  -12.5581 C   0  0  2  0  0  0  0  0  0  0  0  0
   22.5830  -20.5619  -13.3930 N   0  0  0  0  0  0  0  0  0  0  0  0
   20.5318  -19.3196  -13.2139 C   0  0  0  0  0  0  0  0  0  0  0  0
   21.0900  -18.4484  -13.9176 O   0  0  0  0  0  0  0  0  0  0  0  0
   19.1731  -19.2851  -13.0786 O   0  0  0  0  0  0  0  0  0  0  0  0
  1  2  1  0
  2  3  1  0
  4  3  1  0
  5  1  1  0
  5  4  1  0
  5  6  1  6
  7  6  2  0
  8  6  1  0
  9  8  1  0
 10  9  1  0
 10 17  1  0
 11 10  2  0
 13 12  1  0
 14 13  2  0
 15 13  1  0
 16 17  1  0
 16 15  1  1
 18 16  1  0
 19 18  2  0
 20 18  1  0
M  END
$$$$
