PGN.pdb
     RDKit          3D

 20 20  0  0  1  0  0  0  0  0999 V2000
   20.2255  -13.8135  -17.1908 N   0  0  0  0  0  0  0  0  0  0  0  0
   19.1491  -14.5576  -16.5973 C   0  0  0  0  0  0  0  0  0  0  0  0
   17.8648  -13.9295  -17.1641 C   0  0  0  0  0  0  0  0  0  0  0  0
   18.3540  -12.4765  -17.2409 C   0  0  0  0  0  0  0  0  0  0  0  0
   19.6983  -12.6946  -17.9040 C   0  0  1  0  0  0  0  0  0  0  0  0
   20.5293  -11.4932  -17.8397 C   0  0  0  0  0  0  0  0  0  0  0  0
   20.2304  -10.4972  -18.5348 O   0  0  0  0  0  0  0  0  0  0  0  0
   21.6683  -11.4343  -17.0053 N   0  0  0  0  0  0  0  0  0  0  0  0
   22.5733  -10.2906  -16.9657 C   0  0  0  0  0  0  0  0  0  0  0  0
   22.1028   -9.2863  -15.9688 C   0  0  0  0  0  0  0  0  0  0  0  0
   21.6521   -9.7145  -14.8741 O   0  0  0  0  0  0  0  0  0  0  0  0
   20.9665   -4.8726  -13.4550 N   0  0  0  0  0  0  0  0  0  0  0  0
   22.1079   -4.6773  -14.2757 C   0  0  0  0  0  0  0  0  0  0  0  0
   22.7929   -3.6268  -14.1896 O   0  0  0  0  0  0  0  0  0  0  0  0
   22.4602   -5.7265  -15.2166 C   0  0  0  0  0  0  0  0  0  0  0  0
   21.6618   -7.0009  -15.1211 C   0  0  2  0  0  0  0  0  0  0  0  0
   22.1382   -7.9051  -16.1915 N   0  0  0  0  0  0  0  0  0  0  0  0
   20.2035   -6.7728  -15.3207 C   0  0  0  0  0  0  0  0  0  0  0  0
   19.7597   -6.7309  -16.4899 O   0  0  0  0  0  0  0  0  0  0  0  0
   19.3338   -6.6091  -14.2803 O   0  0  0  0  0  0  0  0  0  0  0  0
  1  2  1  0
  2  3  1  0
  4  3  1  0
  5  1  1  0
  5  4  1  0
  5  6  1  1
  7  6  2  0
  8  6  1  0
  9  8  1  0
 10  9  1  0
 10 17  1  0
 11 10  2  0
 13 12  1  0
 14 13  2  0
 15 13  1  0
 16 17  1  0
 16 15  1  6
 18 16  1  0
 19 18  2  0
 20 18  1  0
M  END
$$$$
