PGN.pdb
     RDKit          3D

 20 20  0  0  1  0  0  0  0  0999 V2000
   18.3025  -13.1442  -16.3337 N   0  0  0  0  0  0  0  0  0  0  0  0
   17.6337  -13.9601  -15.3582 C   0  0  0  0  0  0  0  0  0  0  0  0
   16.2854  -13.2644  -15.1073 C   0  0  0  0  0  0  0  0  0  0  0  0
   16.7622  -11.8135  -15.2616 C   0  0  0  0  0  0  0  0  0  0  0  0
   17.5608  -11.9422  -16.5423 C   0  0  1  0  0  0  0  0  0  0  0  0
   18.3860  -10.7589  -16.7811 C   0  0  0  0  0  0  0  0  0  0  0  0
   17.8371   -9.6631  -17.0312 O   0  0  0  0  0  0  0  0  0  0  0  0
   19.7967  -10.8283  -16.7355 N   0  0  0  0  0  0  0  0  0  0  0  0
   20.6633   -9.6838  -16.9958 C   0  0  0  0  0  0  0  0  0  0  0  0
   20.5024   -8.6536  -15.9297 C   0  0  0  0  0  0  0  0  0  0  0  0
   20.6452   -9.0208  -14.7341 O   0  0  0  0  0  0  0  0  0  0  0  0
   20.7255   -4.3424  -13.2135 N   0  0  0  0  0  0  0  0  0  0  0  0
   21.8217   -5.1665  -13.5791 C   0  0  0  0  0  0  0  0  0  0  0  0
   22.9516   -5.0097  -13.0508 O   0  0  0  0  0  0  0  0  0  0  0  0
   21.5989   -6.1952  -14.5802 C   0  0  0  0  0  0  0  0  0  0  0  0
   20.1814   -6.3542  -15.0662 C   0  0  2  0  0  0  0  0  0  0  0  0
   20.2029   -7.3122  -16.1939 N   0  0  0  0  0  0  0  0  0  0  0  0
   19.6030   -5.0722  -15.5568 C   0  0  0  0  0  0  0  0  0  0  0  0
   18.7759   -4.4740  -14.8331 O   0  0  0  0  0  0  0  0  0  0  0  0
   19.9401   -4.5250  -16.7620 O   0  0  0  0  0  0  0  0  0  0  0  0
  1  2  1  0
  2  3  1  0
  4  3  1  0
  5  1  1  0
  5  4  1  0
  5  6  1  1
  7  6  2  0
  8  6  1  0
  9  8  1  0
 10  9  1  0
 10 17  1  0
 11 10  2  0
 13 12  1  0
 14 13  2  0
 15 13  1  0
 16 17  1  0
 16 15  1  6
 18 16  1  0
 19 18  2  0
 20 18  1  0
M  END
$$$$
