PGN.pdb
     RDKit          3D

 20 20  0  0  1  0  0  0  0  0999 V2000
   20.0582  -11.9390  -17.2446 N   0  0  0  0  0  0  0  0  0  0  0  0
   19.3740  -12.7531  -16.2783 C   0  0  0  0  0  0  0  0  0  0  0  0
   17.9270  -12.2324  -16.2653 C   0  0  0  0  0  0  0  0  0  0  0  0
   18.2325  -10.7479  -16.5094 C   0  0  0  0  0  0  0  0  0  0  0  0
   19.2047  -10.8741  -17.6640 C   0  0  1  0  0  0  0  0  0  0  0  0
   19.8977   -9.6126  -17.9220 C   0  0  0  0  0  0  0  0  0  0  0  0
   19.2566   -8.6352  -18.3673 O   0  0  0  0  0  0  0  0  0  0  0  0
   21.2828   -9.4745  -17.6781 N   0  0  0  0  0  0  0  0  0  0  0  0
   22.0193   -8.2390  -17.9218 C   0  0  0  0  0  0  0  0  0  0  0  0
   22.0074   -7.3752  -16.7063 C   0  0  0  0  0  0  0  0  0  0  0  0
   22.8714   -6.4630  -16.6276 O   0  0  0  0  0  0  0  0  0  0  0  0
   21.6130   -4.1143  -15.4385 N   0  0  0  0  0  0  0  0  0  0  0  0
   20.3194   -4.4098  -14.9350 C   0  0  0  0  0  0  0  0  0  0  0  0
   19.4078   -3.5443  -14.9492 O   0  0  0  0  0  0  0  0  0  0  0  0
   20.0808   -5.7407  -14.4039 C   0  0  0  0  0  0  0  0  0  0  0  0
   21.2471   -6.6938  -14.4494 C   0  0  2  0  0  0  0  0  0  0  0  0
   21.0906   -7.5301  -15.6603 N   0  0  0  0  0  0  0  0  0  0  0  0
   21.2891   -7.5954  -13.2645 C   0  0  0  0  0  0  0  0  0  0  0  0
   21.5645   -7.1024  -12.1479 O   0  0  0  0  0  0  0  0  0  0  0  0
   21.0385   -8.9355  -13.3487 O   0  0  0  0  0  0  0  0  0  0  0  0
  1  2  1  0
  2  3  1  0
  4  3  1  0
  5  1  1  0
  5  4  1  0
  5  6  1  1
  7  6  2  0
  8  6  1  0
  9  8  1  0
 10  9  1  0
 10 17  1  0
 11 10  2  0
 13 12  1  0
 14 13  2  0
 15 13  1  0
 16 17  1  0
 16 15  1  1
 18 16  1  0
 19 18  2  0
 20 18  1  0
M  END
$$$$
