PGN.pdb
     RDKit          3D

 20 20  0  0  1  0  0  0  0  0999 V2000
   20.8130  -13.1204  -17.4884 N   0  0  0  0  0  0  0  0  0  0  0  0
   20.5299  -13.6550  -18.7917 C   0  0  0  0  0  0  0  0  0  0  0  0
   21.5933  -14.7421  -19.0209 C   0  0  0  0  0  0  0  0  0  0  0  0
   22.7555  -14.0622  -18.2837 C   0  0  0  0  0  0  0  0  0  0  0  0
   22.0462  -13.6565  -17.0083 C   0  0  1  0  0  0  0  0  0  0  0  0
   22.8470  -12.7171  -16.2246 C   0  0  0  0  0  0  0  0  0  0  0  0
   23.9241  -13.0982  -15.7155 O   0  0  0  0  0  0  0  0  0  0  0  0
   22.4272  -11.3820  -16.0294 N   0  0  0  0  0  0  0  0  0  0  0  0
   23.2600  -10.3654  -15.3957 C   0  0  0  0  0  0  0  0  0  0  0  0
   22.5732   -9.0419  -15.4134 C   0  0  0  0  0  0  0  0  0  0  0  0
   23.1592   -8.0706  -14.8675 O   0  0  0  0  0  0  0  0  0  0  0  0
   19.3136   -5.0952  -16.2539 N   0  0  0  0  0  0  0  0  0  0  0  0
   19.2038   -6.0271  -17.3189 C   0  0  0  0  0  0  0  0  0  0  0  0
   18.4852   -5.7809  -18.3205 O   0  0  0  0  0  0  0  0  0  0  0  0
   19.9459   -7.2716  -17.2168 C   0  0  0  0  0  0  0  0  0  0  0  0
   20.7280   -7.4771  -15.9452 C   0  0  2  0  0  0  0  0  0  0  0  0
   21.3210   -8.8318  -16.0020 N   0  0  0  0  0  0  0  0  0  0  0  0
   19.8682   -7.3970  -14.7315 C   0  0  0  0  0  0  0  0  0  0  0  0
   19.2961   -6.3142  -14.4748 O   0  0  0  0  0  0  0  0  0  0  0  0
   19.6794   -8.4567  -13.8907 O   0  0  0  0  0  0  0  0  0  0  0  0
  1  2  1  0
  2  3  1  0
  4  3  1  0
  5  1  1  0
  5  4  1  0
  5  6  1  6
  7  6  2  0
  8  6  1  0
  9  8  1  0
 10  9  1  0
 10 17  1  0
 11 10  2  0
 13 12  1  0
 14 13  2  0
 15 13  1  0
 16 17  1  0
 16 15  1  6
 18 16  1  0
 19 18  2  0
 20 18  1  0
M  END
$$$$
