WFW.pdb
     RDKit          3D

 40 44  0  0  1  0  0  0  0  0999 V2000
    6.9053  -20.2192   25.1983 N   0  0  0  0  0  0  0  0  0  0  0  0
    7.5208  -18.9512   24.8948 C   0  0  1  0  0  0  0  0  0  0  0  0
    8.8445  -18.8881   25.6421 C   0  0  0  0  0  0  0  0  0  0  0  0
    8.6491  -18.5174   27.0519 C   0  0  0  0  0  0  0  0  0  0  0  0
    8.2435  -19.4190   28.0389 C   0  0  0  0  0  0  0  0  0  0  0  0
    8.1638  -18.7699   29.2074 N   0  0  0  0  0  0  0  0  0  0  0  0
    8.5023  -17.4726   29.0274 C   0  0  0  0  0  0  0  0  0  0  0  0
    8.5690  -16.4330   29.9262 C   0  0  0  0  0  0  0  0  0  0  0  0
    8.9572  -15.1963   29.4315 C   0  0  0  0  0  0  0  0  0  0  0  0
    9.2650  -15.0131   28.0905 C   0  0  0  0  0  0  0  0  0  0  0  0
    9.1914  -16.0696   27.2070 C   0  0  0  0  0  0  0  0  0  0  0  0
    8.8063  -17.3053   27.6872 C   0  0  0  0  0  0  0  0  0  0  0  0
    7.7311  -18.8498   23.4340 C   0  0  0  0  0  0  0  0  0  0  0  0
    8.3090  -19.7709   22.7826 O   0  0  0  0  0  0  0  0  0  0  0  0
    7.2779  -17.7015   22.7459 N   0  0  0  0  0  0  0  0  0  0  0  0
    7.8112  -17.3229   21.4562 C   0  0  1  0  0  0  0  0  0  0  0  0
    6.8442  -16.5581   20.6345 C   0  0  0  0  0  0  0  0  0  0  0  0
    6.9048  -15.1080   20.9438 C   0  0  0  0  0  0  0  0  0  0  0  0
    6.3334  -14.5975   22.0839 C   0  0  0  0  0  0  0  0  0  0  0  0
    6.4080  -13.2385   22.3490 C   0  0  0  0  0  0  0  0  0  0  0  0
    7.0500  -12.3593   21.4896 C   0  0  0  0  0  0  0  0  0  0  0  0
    7.6174  -12.8809   20.3532 C   0  0  0  0  0  0  0  0  0  0  0  0
    7.5459  -14.2388   20.0833 C   0  0  0  0  0  0  0  0  0  0  0  0
    9.1152  -16.6633   21.6479 C   0  0  0  0  0  0  0  0  0  0  0  0
    9.7722  -16.3005   20.6441 O   0  0  0  0  0  0  0  0  0  0  0  0
    9.7072  -16.3972   22.9110 N   0  0  0  0  0  0  0  0  0  0  0  0
   10.9792  -15.7152   23.0513 C   0  0  1  0  0  0  0  0  0  0  0  0
   10.7468  -14.3913   23.7475 C   0  0  0  0  0  0  0  0  0  0  0  0
    9.8779  -14.5381   24.9334 C   0  0  0  0  0  0  0  0  0  0  0  0
    9.8612  -15.5938   25.8193 C   0  0  0  0  0  0  0  0  0  0  0  0
    8.9300  -15.3119   26.7460 N   0  0  0  0  0  0  0  0  0  0  0  0
    8.3600  -14.1121   26.4712 C   0  0  0  0  0  0  0  0  0  0  0  0
    7.3690  -13.3444   27.0684 C   0  0  0  0  0  0  0  0  0  0  0  0
    6.9728  -12.1286   26.5587 C   0  0  0  0  0  0  0  0  0  0  0  0
    7.5797  -11.6481   25.4099 C   0  0  0  0  0  0  0  0  0  0  0  0
    8.5675  -12.3805   24.7878 C   0  0  0  0  0  0  0  0  0  0  0  0
    8.9432  -13.6078   25.3325 C   0  0  0  0  0  0  0  0  0  0  0  0
   11.9398  -16.5399   23.8457 C   0  0  0  0  0  0  0  0  0  0  0  0
   13.2628  -16.1378   23.8724 O   0  0  0  0  0  0  0  0  0  0  0  0
   11.6204  -17.5687   24.4856 O   0  0  0  0  0  0  0  0  0  0  0  0
  2  1  1  6
  2  3  1  0
  4  3  1  0
  5  4  2  0
  6  5  1  0
  7  6  1  0
  7 12  2  0
  8  7  1  0
  9  8  2  0
  9 10  1  0
 10 11  2  0
 11 12  1  0
 12  4  1  0
 13 15  1  0
 13  2  1  0
 14 13  2  0
 16 24  1  0
 16 17  1  1
 16 15  1  0
 18 17  1  0
 18 23  1  0
 19 18  2  0
 20 19  1  0
 20 21  2  0
 21 22  1  0
 22 23  2  0
 24 25  2  0
 26 27  1  0
 26 24  1  0
 27 38  1  0
 27 28  1  1
 29 30  2  0
 29 28  1  0
 31 30  1  0
 32 37  2  0
 32 31  1  0
 33 32  1  0
 34 33  2  0
 34 35  1  0
 35 36  2  0
 36 37  1  0
 37 29  1  0
 38 40  2  0
 38 39  1  0
M  END
$$$$
