WFW.pdb
     RDKit          3D

 40 44  0  0  1  0  0  0  0  0999 V2000
    7.3442  -21.1316   25.0855 N   0  0  0  0  0  0  0  0  0  0  0  0
    7.7075  -19.7587   25.3345 C   0  0  1  0  0  0  0  0  0  0  0  0
    9.0894  -19.7532   25.9708 C   0  0  0  0  0  0  0  0  0  0  0  0
    9.0737  -19.0940   27.2854 C   0  0  0  0  0  0  0  0  0  0  0  0
    8.5738  -19.6930   28.4442 C   0  0  0  0  0  0  0  0  0  0  0  0
    8.7076  -18.8350   29.4636 N   0  0  0  0  0  0  0  0  0  0  0  0
    9.2778  -17.6915   29.0195 C   0  0  0  0  0  0  0  0  0  0  0  0
    9.6111  -16.5387   29.6924 C   0  0  0  0  0  0  0  0  0  0  0  0
   10.1951  -15.5222   28.9503 C   0  0  0  0  0  0  0  0  0  0  0  0
   10.4336  -15.6595   27.5898 C   0  0  0  0  0  0  0  0  0  0  0  0
   10.0915  -16.8243   26.9354 C   0  0  0  0  0  0  0  0  0  0  0  0
    9.5096  -17.8431   27.6631 C   0  0  0  0  0  0  0  0  0  0  0  0
    7.7099  -19.0164   24.0549 C   0  0  0  0  0  0  0  0  0  0  0  0
    8.3580  -19.4335   23.0485 O   0  0  0  0  0  0  0  0  0  0  0  0
    6.9732  -17.8150   23.9484 N   0  0  0  0  0  0  0  0  0  0  0  0
    7.3216  -16.7866   22.9932 C   0  0  1  0  0  0  0  0  0  0  0  0
    6.1359  -16.1270   22.3983 C   0  0  0  0  0  0  0  0  0  0  0  0
    6.5345  -15.1020   21.4019 C   0  0  0  0  0  0  0  0  0  0  0  0
    6.9345  -15.4555   20.1362 C   0  0  0  0  0  0  0  0  0  0  0  0
    7.2985  -14.4763   19.2245 C   0  0  0  0  0  0  0  0  0  0  0  0
    7.2734  -13.1282   19.5493 C   0  0  0  0  0  0  0  0  0  0  0  0
    6.8719  -12.7867   20.8173 C   0  0  0  0  0  0  0  0  0  0  0  0
    6.5067  -13.7616   21.7326 C   0  0  0  0  0  0  0  0  0  0  0  0
    8.2957  -15.8671   23.6078 C   0  0  0  0  0  0  0  0  0  0  0  0
    7.9360  -14.7051   23.9096 O   0  0  0  0  0  0  0  0  0  0  0  0
    9.6470  -16.1965   23.8945 N   0  0  0  0  0  0  0  0  0  0  0  0
   10.6511  -15.1935   24.1919 C   0  0  1  0  0  0  0  0  0  0  0  0
   10.3358  -14.5735   25.5363 C   0  0  0  0  0  0  0  0  0  0  0  0
    8.8847  -14.3633   25.7188 C   0  0  0  0  0  0  0  0  0  0  0  0
    7.9313  -15.3336   25.9399 C   0  0  0  0  0  0  0  0  0  0  0  0
    6.7507  -14.7026   26.0554 N   0  0  0  0  0  0  0  0  0  0  0  0
    6.9311  -13.3657   25.9138 C   0  0  0  0  0  0  0  0  0  0  0  0
    6.0900  -12.2611   25.9363 C   0  0  0  0  0  0  0  0  0  0  0  0
    6.5553  -10.9783   25.7552 C   0  0  0  0  0  0  0  0  0  0  0  0
    7.9089  -10.7749   25.5424 C   0  0  0  0  0  0  0  0  0  0  0  0
    8.7761  -11.8455   25.5133 C   0  0  0  0  0  0  0  0  0  0  0  0
    8.2692  -13.1308   25.7007 C   0  0  0  0  0  0  0  0  0  0  0  0
   12.0161  -15.8013   24.2256 C   0  0  0  0  0  0  0  0  0  0  0  0
   12.1179  -17.1649   24.0184 O   0  0  0  0  0  0  0  0  0  0  0  0
   13.0689  -15.1530   24.4296 O   0  0  0  0  0  0  0  0  0  0  0  0
  2  1  1  6
  2  3  1  0
  4  3  1  0
  5  4  2  0
  6  5  1  0
  7  6  1  0
  7 12  2  0
  8  7  1  0
  9  8  2  0
  9 10  1  0
 10 11  2  0
 11 12  1  0
 12  4  1  0
 13 15  1  0
 13  2  1  0
 14 13  2  0
 16 24  1  0
 16 17  1  1
 16 15  1  0
 18 17  1  0
 18 23  1  0
 19 18  2  0
 20 19  1  0
 20 21  2  0
 21 22  1  0
 22 23  2  0
 24 25  2  0
 26 27  1  0
 26 24  1  0
 27 38  1  0
 27 28  1  1
 29 30  2  0
 29 28  1  0
 31 30  1  0
 32 37  2  0
 32 31  1  0
 33 32  1  0
 34 33  2  0
 34 35  1  0
 35 36  2  0
 36 37  1  0
 37 29  1  0
 38 40  2  0
 38 39  1  0
M  END
$$$$
