WFW.pdb
     RDKit          3D

 40 44  0  0  1  0  0  0  0  0999 V2000
    6.4983  -18.9407   20.0729 N   0  0  0  0  0  0  0  0  0  0  0  0
    6.6835  -17.9577   21.1112 C   0  0  1  0  0  0  0  0  0  0  0  0
    6.2442  -18.5843   22.4261 C   0  0  0  0  0  0  0  0  0  0  0  0
    4.8233  -18.9626   22.3934 C   0  0  0  0  0  0  0  0  0  0  0  0
    4.1317  -19.4643   23.4986 C   0  0  0  0  0  0  0  0  0  0  0  0
    2.8643  -19.7051   23.1395 N   0  0  0  0  0  0  0  0  0  0  0  0
    2.6945  -19.3804   21.8373 C   0  0  0  0  0  0  0  0  0  0  0  0
    1.5783  -19.4525   21.0361 C   0  0  0  0  0  0  0  0  0  0  0  0
    1.7196  -19.0379   19.7197 C   0  0  0  0  0  0  0  0  0  0  0  0
    2.9316  -18.5708   19.2301 C   0  0  0  0  0  0  0  0  0  0  0  0
    4.0379  -18.5069   20.0513 C   0  0  0  0  0  0  0  0  0  0  0  0
    3.9098  -18.9167   21.3634 C   0  0  0  0  0  0  0  0  0  0  0  0
    8.1090  -17.5652   21.1608 C   0  0  0  0  0  0  0  0  0  0  0  0
    9.0078  -18.2630   20.6023 O   0  0  0  0  0  0  0  0  0  0  0  0
    8.4804  -16.3857   21.8451 N   0  0  0  0  0  0  0  0  0  0  0  0
    9.8454  -15.9085   21.8606 C   0  0  1  0  0  0  0  0  0  0  0  0
    9.9502  -14.4532   21.6035 C   0  0  0  0  0  0  0  0  0  0  0  0
    8.8570  -13.9840   20.7164 C   0  0  0  0  0  0  0  0  0  0  0  0
    7.7762  -13.2998   21.2172 C   0  0  0  0  0  0  0  0  0  0  0  0
    6.7707  -12.8706   20.3644 C   0  0  0  0  0  0  0  0  0  0  0  0
    6.8165  -13.1110   18.9993 C   0  0  0  0  0  0  0  0  0  0  0  0
    7.9015  -13.7958   18.5100 C   0  0  0  0  0  0  0  0  0  0  0  0
    8.9097  -14.2271   19.3582 C   0  0  0  0  0  0  0  0  0  0  0  0
   10.5024  -16.3653   23.0983 C   0  0  0  0  0  0  0  0  0  0  0  0
   11.4808  -15.7227   23.5461 O   0  0  0  0  0  0  0  0  0  0  0  0
   10.1089  -17.5057   23.8475 N   0  0  0  0  0  0  0  0  0  0  0  0
    9.6494  -17.4204   25.2201 C   0  0  1  0  0  0  0  0  0  0  0  0
    8.5941  -16.3391   25.3132 C   0  0  0  0  0  0  0  0  0  0  0  0
    8.9000  -15.3616   26.3781 C   0  0  0  0  0  0  0  0  0  0  0  0
    9.7083  -15.5628   27.4761 C   0  0  0  0  0  0  0  0  0  0  0  0
    9.7129  -14.4145   28.1738 N   0  0  0  0  0  0  0  0  0  0  0  0
    8.9328  -13.4971   27.5495 C   0  0  0  0  0  0  0  0  0  0  0  0
    8.5772  -12.1806   27.8112 C   0  0  0  0  0  0  0  0  0  0  0  0
    7.7399  -11.4664   26.9843 C   0  0  0  0  0  0  0  0  0  0  0  0
    7.2304  -12.0763   25.8497 C   0  0  0  0  0  0  0  0  0  0  0  0
    7.5599  -13.3816   25.5553 C   0  0  0  0  0  0  0  0  0  0  0  0
    8.4109  -14.0741   26.4156 C   0  0  0  0  0  0  0  0  0  0  0  0
    9.0750  -18.7245   25.6706 C   0  0  0  0  0  0  0  0  0  0  0  0
    8.5683  -19.5723   24.7025 O   0  0  0  0  0  0  0  0  0  0  0  0
    9.0247  -19.0942   26.8669 O   0  0  0  0  0  0  0  0  0  0  0  0
  2  1  1  6
  2  3  1  0
  4  3  1  0
  5  4  2  0
  6  5  1  0
  7  6  1  0
  7 12  2  0
  8  7  1  0
  9  8  2  0
  9 10  1  0
 10 11  2  0
 11 12  1  0
 12  4  1  0
 13 15  1  0
 13  2  1  0
 14 13  2  0
 16 24  1  0
 16 17  1  1
 16 15  1  0
 18 17  1  0
 18 23  1  0
 19 18  2  0
 20 19  1  0
 20 21  2  0
 21 22  1  0
 22 23  2  0
 24 25  2  0
 26 27  1  0
 26 24  1  0
 27 38  1  0
 27 28  1  6
 29 30  2  0
 29 28  1  0
 31 30  1  0
 32 37  2  0
 32 31  1  0
 33 32  1  0
 34 33  2  0
 34 35  1  0
 35 36  2  0
 36 37  1  0
 37 29  1  0
 38 40  2  0
 38 39  1  0
M  END
$$$$
