WFW.pdb
     RDKit          3D

 40 44  0  0  1  0  0  0  0  0999 V2000
    7.0986  -19.5522   25.6590 N   0  0  0  0  0  0  0  0  0  0  0  0
    7.8017  -18.5576   24.8876 C   0  0  1  0  0  0  0  0  0  0  0  0
    9.1410  -18.3076   25.5647 C   0  0  0  0  0  0  0  0  0  0  0  0
    8.9652  -17.7775   26.9253 C   0  0  0  0  0  0  0  0  0  0  0  0
    8.2364  -18.4319   27.9213 C   0  0  0  0  0  0  0  0  0  0  0  0
    8.2719  -17.6915   29.0366 N   0  0  0  0  0  0  0  0  0  0  0  0
    8.9978  -16.5722   28.8126 C   0  0  0  0  0  0  0  0  0  0  0  0
    9.3097  -15.5264   29.6504 C   0  0  0  0  0  0  0  0  0  0  0  0
   10.0873  -14.5061   29.1220 C   0  0  0  0  0  0  0  0  0  0  0  0
   10.5321  -14.5364   27.8075 C   0  0  0  0  0  0  0  0  0  0  0  0
   10.2075  -15.5951   26.9853 C   0  0  0  0  0  0  0  0  0  0  0  0
    9.4341  -16.6165   27.4995 C   0  0  0  0  0  0  0  0  0  0  0  0
    7.9901  -19.0559   23.5075 C   0  0  0  0  0  0  0  0  0  0  0  0
    8.8858  -19.9081   23.2276 O   0  0  0  0  0  0  0  0  0  0  0  0
    7.1536  -18.5736   22.4755 N   0  0  0  0  0  0  0  0  0  0  0  0
    7.2760  -17.2289   21.9578 C   0  0  1  0  0  0  0  0  0  0  0  0
    6.4131  -16.2568   22.6686 C   0  0  0  0  0  0  0  0  0  0  0  0
    6.5224  -14.9031   22.0704 C   0  0  0  0  0  0  0  0  0  0  0  0
    6.0755  -14.6481   20.7967 C   0  0  0  0  0  0  0  0  0  0  0  0
    6.1875  -13.3728   20.2643 C   0  0  0  0  0  0  0  0  0  0  0  0
    6.7445  -12.3258   20.9833 C   0  0  0  0  0  0  0  0  0  0  0  0
    7.1878  -12.5924   22.2552 C   0  0  0  0  0  0  0  0  0  0  0  0
    7.0781  -13.8656   22.7926 C   0  0  0  0  0  0  0  0  0  0  0  0
    8.7022  -16.8616   21.9009 C   0  0  0  0  0  0  0  0  0  0  0  0
    9.2482  -16.6941   20.7853 O   0  0  0  0  0  0  0  0  0  0  0  0
    9.5340  -16.6767   23.0370 N   0  0  0  0  0  0  0  0  0  0  0  0
   10.8619  -16.1007   22.9496 C   0  0  1  0  0  0  0  0  0  0  0  0
   10.8924  -14.8238   23.7620 C   0  0  0  0  0  0  0  0  0  0  0  0
   10.0309  -14.9123   24.9591 C   0  0  0  0  0  0  0  0  0  0  0  0
   10.1989  -15.7547   26.0369 C   0  0  0  0  0  0  0  0  0  0  0  0
    9.1982  -15.4958   26.8953 N   0  0  0  0  0  0  0  0  0  0  0  0
    8.4054  -14.5171   26.3915 C   0  0  0  0  0  0  0  0  0  0  0  0
    7.2587  -13.8693   26.8310 C   0  0  0  0  0  0  0  0  0  0  0  0
    6.6409  -12.8852   26.0927 C   0  0  0  0  0  0  0  0  0  0  0  0
    7.1767  -12.5236   24.8675 C   0  0  0  0  0  0  0  0  0  0  0  0
    8.3141  -13.1432   24.3967 C   0  0  0  0  0  0  0  0  0  0  0  0
    8.9129  -14.1356   25.1717 C   0  0  0  0  0  0  0  0  0  0  0  0
   11.8898  -17.0529   23.4698 C   0  0  0  0  0  0  0  0  0  0  0  0
   13.2179  -16.6783   23.3778 O   0  0  0  0  0  0  0  0  0  0  0  0
   11.6221  -18.1650   23.9814 O   0  0  0  0  0  0  0  0  0  0  0  0
  2  1  1  1
  2  3  1  0
  4  3  1  0
  5  4  2  0
  6  5  1  0
  7  6  1  0
  7 12  2  0
  8  7  1  0
  9  8  2  0
  9 10  1  0
 10 11  2  0
 11 12  1  0
 12  4  1  0
 13 15  1  0
 13  2  1  0
 14 13  2  0
 16 24  1  0
 16 17  1  1
 16 15  1  0
 18 17  1  0
 18 23  1  0
 19 18  2  0
 20 19  1  0
 20 21  2  0
 21 22  1  0
 22 23  2  0
 24 25  2  0
 26 27  1  0
 26 24  1  0
 27 38  1  0
 27 28  1  1
 29 30  2  0
 29 28  1  0
 31 30  1  0
 32 37  2  0
 32 31  1  0
 33 32  1  0
 34 33  2  0
 34 35  1  0
 35 36  2  0
 36 37  1  0
 37 29  1  0
 38 40  2  0
 38 39  1  0
M  END
$$$$
