WFW.pdb
     RDKit          3D

 40 44  0  0  1  0  0  0  0  0999 V2000
    7.8547  -20.8148   22.6773 N   0  0  0  0  0  0  0  0  0  0  0  0
    8.9782  -20.5825   21.8040 C   0  0  1  0  0  0  0  0  0  0  0  0
    8.8641  -21.5495   20.6350 C   0  0  0  0  0  0  0  0  0  0  0  0
    8.9816  -22.9466   21.0793 C   0  0  0  0  0  0  0  0  0  0  0  0
    7.8874  -23.7986   21.2473 C   0  0  0  0  0  0  0  0  0  0  0  0
    8.3321  -24.9942   21.6547 N   0  0  0  0  0  0  0  0  0  0  0  0
    9.6802  -24.9620   21.7616 C   0  0  0  0  0  0  0  0  0  0  0  0
   10.5708  -25.9406   22.1388 C   0  0  0  0  0  0  0  0  0  0  0  0
   11.9155  -25.5993   22.1483 C   0  0  0  0  0  0  0  0  0  0  0  0
   12.3460  -24.3282   21.7937 C   0  0  0  0  0  0  0  0  0  0  0  0
   11.4356  -23.3625   21.4187 C   0  0  0  0  0  0  0  0  0  0  0  0
   10.0945  -23.6901   21.4052 C   0  0  0  0  0  0  0  0  0  0  0  0
    8.9488  -19.1793   21.3363 C   0  0  0  0  0  0  0  0  0  0  0  0
    9.6340  -18.7988   20.3400 O   0  0  0  0  0  0  0  0  0  0  0  0
    8.1390  -18.2392   22.0130 N   0  0  0  0  0  0  0  0  0  0  0  0
    8.2480  -16.8185   21.7665 C   0  0  1  0  0  0  0  0  0  0  0  0
    6.9335  -16.1355   21.7406 C   0  0  0  0  0  0  0  0  0  0  0  0
    7.0785  -14.7044   21.3753 C   0  0  0  0  0  0  0  0  0  0  0  0
    7.1057  -13.7226   22.3357 C   0  0  0  0  0  0  0  0  0  0  0  0
    7.2453  -12.3936   21.9657 C   0  0  0  0  0  0  0  0  0  0  0  0
    7.3604  -12.0119   20.6373 C   0  0  0  0  0  0  0  0  0  0  0  0
    7.3318  -13.0018   19.6862 C   0  0  0  0  0  0  0  0  0  0  0  0
    7.1926  -14.3321   20.0505 C   0  0  0  0  0  0  0  0  0  0  0  0
    9.2257  -16.2394   22.7051 C   0  0  0  0  0  0  0  0  0  0  0  0
   10.0541  -15.3977   22.2856 O   0  0  0  0  0  0  0  0  0  0  0  0
    9.3108  -16.5649   24.0848 N   0  0  0  0  0  0  0  0  0  0  0  0
   10.3762  -16.0784   24.9397 C   0  0  1  0  0  0  0  0  0  0  0  0
    9.7930  -15.7283   26.2919 C   0  0  0  0  0  0  0  0  0  0  0  0
    8.3851  -15.2921   26.1880 C   0  0  0  0  0  0  0  0  0  0  0  0
    7.2956  -16.0826   25.8924 C   0  0  0  0  0  0  0  0  0  0  0  0
    6.2159  -15.2830   25.9105 N   0  0  0  0  0  0  0  0  0  0  0  0
    6.5918  -14.0140   26.2079 C   0  0  0  0  0  0  0  0  0  0  0  0
    5.9199  -12.8079   26.3551 C   0  0  0  0  0  0  0  0  0  0  0  0
    6.5716  -11.6358   26.6658 C   0  0  0  0  0  0  0  0  0  0  0  0
    7.9458  -11.6530   26.8390 C   0  0  0  0  0  0  0  0  0  0  0  0
    8.6486  -12.8304   26.7015 C   0  0  0  0  0  0  0  0  0  0  0  0
    7.9552  -13.9983   26.3864 C   0  0  0  0  0  0  0  0  0  0  0  0
   11.4412  -17.1141   25.1038 C   0  0  0  0  0  0  0  0  0  0  0  0
   12.5515  -16.7806   25.8579 O   0  0  0  0  0  0  0  0  0  0  0  0
   11.3891  -18.2609   24.6014 O   0  0  0  0  0  0  0  0  0  0  0  0
  2  1  1  1
  2  3  1  0
  4  3  1  0
  5  4  2  0
  6  5  1  0
  7  6  1  0
  7 12  2  0
  8  7  1  0
  9  8  2  0
  9 10  1  0
 10 11  2  0
 11 12  1  0
 12  4  1  0
 13 15  1  0
 13  2  1  0
 14 13  2  0
 16 24  1  0
 16 17  1  1
 16 15  1  0
 18 17  1  0
 18 23  1  0
 19 18  2  0
 20 19  1  0
 20 21  2  0
 21 22  1  0
 22 23  2  0
 24 25  2  0
 26 27  1  0
 26 24  1  0
 27 38  1  0
 27 28  1  1
 29 30  2  0
 29 28  1  0
 31 30  1  0
 32 37  2  0
 32 31  1  0
 33 32  1  0
 34 33  2  0
 34 35  1  0
 35 36  2  0
 36 37  1  0
 37 29  1  0
 38 40  2  0
 38 39  1  0
M  END
$$$$
