WFW.pdb
     RDKit          3D

 40 44  0  0  1  0  0  0  0  0999 V2000
    4.7959  -20.1765   23.2413 N   0  0  0  0  0  0  0  0  0  0  0  0
    6.1483  -19.7183   23.4407 C   0  0  1  0  0  0  0  0  0  0  0  0
    6.9534  -20.1002   22.2076 C   0  0  0  0  0  0  0  0  0  0  0  0
    7.2173  -21.5464   22.1642 C   0  0  0  0  0  0  0  0  0  0  0  0
    6.6598  -22.4054   21.2141 C   0  0  0  0  0  0  0  0  0  0  0  0
    7.0998  -23.6484   21.4477 N   0  0  0  0  0  0  0  0  0  0  0  0
    7.9276  -23.6407   22.5176 C   0  0  0  0  0  0  0  0  0  0  0  0
    8.6140  -24.6673   23.1243 C   0  0  0  0  0  0  0  0  0  0  0  0
    9.3979  -24.3395   24.2211 C   0  0  0  0  0  0  0  0  0  0  0  0
    9.4876  -23.0353   24.6876 C   0  0  0  0  0  0  0  0  0  0  0  0
    8.7908  -22.0216   24.0638 C   0  0  0  0  0  0  0  0  0  0  0  0
    8.0072  -22.3352   22.9713 C   0  0  0  0  0  0  0  0  0  0  0  0
    6.1413  -18.2519   23.6363 C   0  0  0  0  0  0  0  0  0  0  0  0
    5.8015  -17.4613   22.7056 O   0  0  0  0  0  0  0  0  0  0  0  0
    6.5208  -17.7172   24.8882 N   0  0  0  0  0  0  0  0  0  0  0  0
    6.9579  -16.3463   25.0333 C   0  0  1  0  0  0  0  0  0  0  0  0
    6.4658  -15.7133   26.2791 C   0  0  0  0  0  0  0  0  0  0  0  0
    7.0019  -14.3379   26.4312 C   0  0  0  0  0  0  0  0  0  0  0  0
    6.2336  -13.2368   26.1406 C   0  0  0  0  0  0  0  0  0  0  0  0
    6.7596  -11.9633   26.2949 C   0  0  0  0  0  0  0  0  0  0  0  0
    8.0568  -11.7560   26.7398 C   0  0  0  0  0  0  0  0  0  0  0  0
    8.8154  -12.8639   27.0271 C   0  0  0  0  0  0  0  0  0  0  0  0
    8.2944  -14.1395   26.8748 C   0  0  0  0  0  0  0  0  0  0  0  0
    8.4181  -16.2827   24.8441 C   0  0  0  0  0  0  0  0  0  0  0  0
    9.1717  -16.7633   25.7227 O   0  0  0  0  0  0  0  0  0  0  0  0
    9.0617  -15.7053   23.7175 N   0  0  0  0  0  0  0  0  0  0  0  0
   10.2866  -16.2408   23.1559 C   0  0  1  0  0  0  0  0  0  0  0  0
   10.1579  -16.2700   21.6479 C   0  0  0  0  0  0  0  0  0  0  0  0
    9.8421  -14.9361   21.0965 C   0  0  0  0  0  0  0  0  0  0  0  0
   10.7426  -13.9913   20.6538 C   0  0  0  0  0  0  0  0  0  0  0  0
   10.0261  -12.9367   20.2298 N   0  0  0  0  0  0  0  0  0  0  0  0
    8.7030  -13.1879   20.3920 C   0  0  0  0  0  0  0  0  0  0  0  0
    7.5378  -12.4769   20.1374 C   0  0  0  0  0  0  0  0  0  0  0  0
    6.2893  -12.9880   20.4115 C   0  0  0  0  0  0  0  0  0  0  0  0
    6.1844  -14.2554   20.9607 C   0  0  0  0  0  0  0  0  0  0  0  0
    7.3177  -14.9927   21.2278 C   0  0  0  0  0  0  0  0  0  0  0  0
    8.5655  -14.4429   20.9370 C   0  0  0  0  0  0  0  0  0  0  0  0
   11.4610  -15.4022   23.5447 C   0  0  0  0  0  0  0  0  0  0  0  0
   11.2247  -14.2924   24.3354 O   0  0  0  0  0  0  0  0  0  0  0  0
   12.6412  -15.6427   23.1990 O   0  0  0  0  0  0  0  0  0  0  0  0
  2  1  1  6
  2  3  1  0
  4  3  1  0
  5  4  2  0
  6  5  1  0
  7  6  1  0
  7 12  2  0
  8  7  1  0
  9  8  2  0
  9 10  1  0
 10 11  2  0
 11 12  1  0
 12  4  1  0
 13 15  1  0
 13  2  1  0
 14 13  2  0
 16 24  1  0
 16 17  1  1
 16 15  1  0
 18 17  1  0
 18 23  1  0
 19 18  2  0
 20 19  1  0
 20 21  2  0
 21 22  1  0
 22 23  2  0
 24 25  2  0
 26 27  1  0
 26 24  1  0
 27 38  1  0
 27 28  1  6
 29 30  2  0
 29 28  1  0
 31 30  1  0
 32 37  2  0
 32 31  1  0
 33 32  1  0
 34 33  2  0
 34 35  1  0
 35 36  2  0
 36 37  1  0
 37 29  1  0
 38 40  2  0
 38 39  1  0
M  END
$$$$
