WFW.pdb
     RDKit          3D

 40 44  0  0  1  0  0  0  0  0999 V2000
    6.2129  -21.0710   23.0408 N   0  0  0  0  0  0  0  0  0  0  0  0
    6.9677  -19.9826   23.6103 C   0  0  1  0  0  0  0  0  0  0  0  0
    8.0305  -20.5817   24.5193 C   0  0  0  0  0  0  0  0  0  0  0  0
    7.5574  -20.6792   25.9085 C   0  0  0  0  0  0  0  0  0  0  0  0
    6.4699  -21.4632   26.3012 C   0  0  0  0  0  0  0  0  0  0  0  0
    6.3029  -21.3351   27.6236 N   0  0  0  0  0  0  0  0  0  0  0  0
    7.2409  -20.4949   28.1179 C   0  0  0  0  0  0  0  0  0  0  0  0
    7.4667  -20.0649   29.4052 C   0  0  0  0  0  0  0  0  0  0  0  0
    8.5255  -19.1898   29.6006 C   0  0  0  0  0  0  0  0  0  0  0  0
    9.3228  -18.7655   28.5466 C   0  0  0  0  0  0  0  0  0  0  0  0
    9.0783  -19.2096   27.2639 C   0  0  0  0  0  0  0  0  0  0  0  0
    8.0275  -20.0807   27.0567 C   0  0  0  0  0  0  0  0  0  0  0  0
    7.5846  -19.1955   22.5202 C   0  0  0  0  0  0  0  0  0  0  0  0
    7.3619  -19.4642   21.3016 O   0  0  0  0  0  0  0  0  0  0  0  0
    8.4415  -18.1185   22.8412 N   0  0  0  0  0  0  0  0  0  0  0  0
    8.3602  -16.8468   22.1576 C   0  0  1  0  0  0  0  0  0  0  0  0
    6.9984  -16.2637   22.1848 C   0  0  0  0  0  0  0  0  0  0  0  0
    6.9693  -14.9352   21.5243 C   0  0  0  0  0  0  0  0  0  0  0  0
    6.9226  -14.8198   20.1563 C   0  0  0  0  0  0  0  0  0  0  0  0
    6.8931  -13.5654   19.5663 C   0  0  0  0  0  0  0  0  0  0  0  0
    6.9095  -12.4013   20.3201 C   0  0  0  0  0  0  0  0  0  0  0  0
    6.9562  -12.5289   21.6864 C   0  0  0  0  0  0  0  0  0  0  0  0
    6.9857  -13.7806   22.2816 C   0  0  0  0  0  0  0  0  0  0  0  0
    9.4219  -15.9584   22.6630 C   0  0  0  0  0  0  0  0  0  0  0  0
    9.5506  -14.8138   22.1688 O   0  0  0  0  0  0  0  0  0  0  0  0
   10.3385  -16.3003   23.6925 N   0  0  0  0  0  0  0  0  0  0  0  0
   10.3099  -15.6813   25.0035 C   0  0  1  0  0  0  0  0  0  0  0  0
    8.9350  -15.8793   25.6048 C   0  0  0  0  0  0  0  0  0  0  0  0
    8.1044  -14.6626   25.4918 C   0  0  0  0  0  0  0  0  0  0  0  0
    6.7721  -14.6017   25.1443 C   0  0  0  0  0  0  0  0  0  0  0  0
    6.4191  -13.3056   25.1739 N   0  0  0  0  0  0  0  0  0  0  0  0
    7.4873  -12.5488   25.5290 C   0  0  0  0  0  0  0  0  0  0  0  0
    7.7006  -11.1890   25.7117 C   0  0  0  0  0  0  0  0  0  0  0  0
    8.9248  -10.6794   26.0814 C   0  0  0  0  0  0  0  0  0  0  0  0
    9.9855  -11.5480   26.2798 C   0  0  0  0  0  0  0  0  0  0  0  0
    9.8139  -12.9046   26.1085 C   0  0  0  0  0  0  0  0  0  0  0  0
    8.5598  -13.3849   25.7337 C   0  0  0  0  0  0  0  0  0  0  0  0
   11.3427  -16.2852   25.8992 C   0  0  0  0  0  0  0  0  0  0  0  0
   12.1010  -17.3263   25.3955 O   0  0  0  0  0  0  0  0  0  0  0  0
   11.5618  -15.9071   27.0736 O   0  0  0  0  0  0  0  0  0  0  0  0
  2  1  1  6
  2  3  1  0
  4  3  1  0
  5  4  2  0
  6  5  1  0
  7  6  1  0
  7 12  2  0
  8  7  1  0
  9  8  2  0
  9 10  1  0
 10 11  2  0
 11 12  1  0
 12  4  1  0
 13 15  1  0
 13  2  1  0
 14 13  2  0
 16 24  1  0
 16 17  1  1
 16 15  1  0
 18 17  1  0
 18 23  1  0
 19 18  2  0
 20 19  1  0
 20 21  2  0
 21 22  1  0
 22 23  2  0
 24 25  2  0
 26 27  1  0
 26 24  1  0
 27 38  1  0
 27 28  1  1
 29 30  2  0
 29 28  1  0
 31 30  1  0
 32 37  2  0
 32 31  1  0
 33 32  1  0
 34 33  2  0
 34 35  1  0
 35 36  2  0
 36 37  1  0
 37 29  1  0
 38 40  2  0
 38 39  1  0
M  END
$$$$
