ALT.pdb
     RDKit          3D

 21 20  0  0  1  0  0  0  0  0999 V2000
    7.8901  -12.9838   19.4521 C   0  0  0  0  0  0  0  0  0  0  0  0
    7.9435  -14.2392   20.2569 C   0  0  2  0  0  0  0  0  0  0  0  0
    6.6487  -14.8973   20.1074 N   0  0  0  0  0  0  0  0  0  0  0  0
    8.2845  -14.0403   21.6650 C   0  0  0  0  0  0  0  0  0  0  0  0
    9.4858  -13.8247   21.9726 O   0  0  0  0  0  0  0  0  0  0  0  0
    8.1379  -12.1630   26.6817 C   0  0  0  0  0  0  0  0  0  0  0  0
    6.9613  -13.0479   26.3280 C   0  0  1  0  0  0  0  0  0  0  0  0
    5.7499  -12.3002   26.9350 C   0  0  0  0  0  0  0  0  0  0  0  0
    6.6996  -13.1188   24.8656 C   0  0  0  0  0  0  0  0  0  0  0  0
    7.6047  -13.9937   24.0935 C   0  0  2  0  0  0  0  0  0  0  0  0
    7.2660  -14.0900   22.6875 N   0  0  0  0  0  0  0  0  0  0  0  0
    7.9221  -15.3127   24.6801 C   0  0  0  0  0  0  0  0  0  0  0  0
    7.0377  -16.0625   25.1441 O   0  0  0  0  0  0  0  0  0  0  0  0
    9.3385  -18.2041   22.9634 C   0  0  0  0  0  0  0  0  0  0  0  0
   10.2592  -17.9573   24.1321 C   0  0  1  0  0  0  0  0  0  0  0  0
   11.3948  -17.3337   23.5950 O   0  0  0  0  0  0  0  0  0  0  0  0
    9.6374  -17.1189   25.1970 C   0  0  2  0  0  0  0  0  0  0  0  0
    9.2771  -15.7948   24.7495 N   0  0  0  0  0  0  0  0  0  0  0  0
   10.5210  -17.0215   26.4109 C   0  0  0  0  0  0  0  0  0  0  0  0
   11.0353  -15.9329   26.7968 O   0  0  0  0  0  0  0  0  0  0  0  0
   10.8372  -18.1154   27.1963 O   0  0  0  0  0  0  0  0  0  0  0  0
  2  1  1  6
  3  2  1  0
  4  5  2  0
  4  2  1  0
  7  6  1  6
  7  9  1  0
  8  7  1  0
 10  9  1  1
 10 11  1  0
 10 12  1  0
 11  4  1  0
 12 18  1  0
 13 12  2  0
 15 16  1  0
 15 14  1  6
 17 15  1  0
 17 18  1  6
 19 21  1  0
 19 17  1  0
 20 19  2  0
M  END
$$$$
