ALT.pdb
     RDKit          3D

 21 20  0  0  1  0  0  0  0  0999 V2000
    6.8206  -16.3582   20.9459 C   0  0  0  0  0  0  0  0  0  0  0  0
    7.4108  -15.0465   21.3429 C   0  0  2  0  0  0  0  0  0  0  0  0
    8.3985  -14.6976   20.3256 N   0  0  0  0  0  0  0  0  0  0  0  0
    7.9929  -15.0269   22.6843 C   0  0  0  0  0  0  0  0  0  0  0  0
    9.1954  -15.3702   22.8277 O   0  0  0  0  0  0  0  0  0  0  0  0
    5.6757  -11.7363   26.4599 C   0  0  0  0  0  0  0  0  0  0  0  0
    6.6333  -12.4812   25.5539 C   0  0  1  0  0  0  0  0  0  0  0  0
    7.8841  -11.5704   25.5213 C   0  0  0  0  0  0  0  0  0  0  0  0
    7.0923  -13.7761   26.1237 C   0  0  0  0  0  0  0  0  0  0  0  0
    7.7383  -14.7027   25.1726 C   0  0  2  0  0  0  0  0  0  0  0  0
    7.2071  -14.6230   23.8265 N   0  0  0  0  0  0  0  0  0  0  0  0
    7.9176  -16.1009   25.6173 C   0  0  0  0  0  0  0  0  0  0  0  0
    6.9758  -16.9211   25.6228 O   0  0  0  0  0  0  0  0  0  0  0  0
    9.1649  -19.0885   24.4320 C   0  0  0  0  0  0  0  0  0  0  0  0
   10.0210  -18.8553   25.6515 C   0  0  1  0  0  0  0  0  0  0  0  0
   11.2446  -18.3691   25.1684 O   0  0  0  0  0  0  0  0  0  0  0  0
    9.4076  -17.9022   26.6206 C   0  0  2  0  0  0  0  0  0  0  0  0
    9.1950  -16.5833   26.0739 N   0  0  0  0  0  0  0  0  0  0  0  0
   10.2158  -17.8029   27.8858 C   0  0  0  0  0  0  0  0  0  0  0  0
   10.7215  -16.7174   28.2908 O   0  0  0  0  0  0  0  0  0  0  0  0
   10.4664  -18.8919   28.7013 O   0  0  0  0  0  0  0  0  0  0  0  0
  2  1  1  6
  3  2  1  0
  4  5  2  0
  4  2  1  0
  7  6  1  1
  7  9  1  0
  8  7  1  0
 10  9  1  1
 10 11  1  0
 10 12  1  0
 11  4  1  0
 12 18  1  0
 13 12  2  0
 15 16  1  0
 15 14  1  6
 17 15  1  0
 17 18  1  6
 19 21  1  0
 19 17  1  0
 20 19  2  0
M  END
$$$$
