ALT.pdb
     RDKit          3D

 21 20  0  0  1  0  0  0  0  0999 V2000
    7.8206  -16.7643   21.0129 C   0  0  0  0  0  0  0  0  0  0  0  0
    8.2575  -15.4003   21.4315 C   0  0  2  0  0  0  0  0  0  0  0  0
    9.3743  -15.0263   20.5685 N   0  0  0  0  0  0  0  0  0  0  0  0
    8.6114  -15.2867   22.8460 C   0  0  0  0  0  0  0  0  0  0  0  0
    9.7963  -15.5282   23.1950 O   0  0  0  0  0  0  0  0  0  0  0  0
    5.7186  -11.9442   26.3692 C   0  0  0  0  0  0  0  0  0  0  0  0
    6.8260  -12.6604   25.6253 C   0  0  1  0  0  0  0  0  0  0  0  0
    8.1076  -11.9282   26.0903 C   0  0  0  0  0  0  0  0  0  0  0  0
    6.9952  -14.0766   26.0473 C   0  0  0  0  0  0  0  0  0  0  0  0
    7.9390  -14.8777   25.2422 C   0  0  2  0  0  0  0  0  0  0  0  0
    7.6236  -14.9057   23.8279 N   0  0  0  0  0  0  0  0  0  0  0  0
    8.2909  -16.2168   25.7596 C   0  0  0  0  0  0  0  0  0  0  0  0
    7.4879  -17.1727   25.7266 O   0  0  0  0  0  0  0  0  0  0  0  0
   10.6060  -18.6158   24.5525 C   0  0  0  0  0  0  0  0  0  0  0  0
   11.0395  -18.4252   25.9843 C   0  0  1  0  0  0  0  0  0  0  0  0
   12.2038  -17.6454   25.9273 O   0  0  0  0  0  0  0  0  0  0  0  0
    9.9960  -17.7738   26.8273 C   0  0  2  0  0  0  0  0  0  0  0  0
    9.5839  -16.4808   26.3356 N   0  0  0  0  0  0  0  0  0  0  0  0
   10.4378  -17.6545   28.2606 C   0  0  0  0  0  0  0  0  0  0  0  0
   10.4717  -16.5508   28.8761 O   0  0  0  0  0  0  0  0  0  0  0  0
   10.8401  -18.7434   29.0130 O   0  0  0  0  0  0  0  0  0  0  0  0
  2  1  1  6
  3  2  1  0
  4  5  2  0
  4  2  1  0
  7  6  1  1
  7  9  1  0
  8  7  1  0
 10  9  1  1
 10 11  1  0
 10 12  1  0
 11  4  1  0
 12 18  1  0
 13 12  2  0
 15 16  1  0
 15 14  1  6
 17 15  1  0
 17 18  1  6
 19 21  1  0
 19 17  1  0
 20 19  2  0
M  END
$$$$
