ALT.pdb
     RDKit          3D

 21 20  0  0  1  0  0  0  0  0999 V2000
    7.2003  -17.1723   22.0218 C   0  0  0  0  0  0  0  0  0  0  0  0
    7.1673  -15.6819   21.9580 C   0  0  2  0  0  0  0  0  0  0  0  0
    7.5017  -15.3059   20.5873 N   0  0  0  0  0  0  0  0  0  0  0  0
    8.0396  -15.0161   22.9246 C   0  0  0  0  0  0  0  0  0  0  0  0
    9.2076  -14.7057   22.5729 O   0  0  0  0  0  0  0  0  0  0  0  0
    5.5549  -12.1824   26.8505 C   0  0  0  0  0  0  0  0  0  0  0  0
    6.4725  -12.6238   25.7299 C   0  0  1  0  0  0  0  0  0  0  0  0
    6.8960  -11.2932   25.0626 C   0  0  0  0  0  0  0  0  0  0  0  0
    7.7314  -13.2499   26.2151 C   0  0  0  0  0  0  0  0  0  0  0  0
    8.4443  -14.0977   25.2386 C   0  0  2  0  0  0  0  0  0  0  0  0
    7.5751  -14.7188   24.2592 N   0  0  0  0  0  0  0  0  0  0  0  0
    9.4410  -15.0467   25.7780 C   0  0  0  0  0  0  0  0  0  0  0  0
   10.2485  -14.7225   26.6739 O   0  0  0  0  0  0  0  0  0  0  0  0
    9.1457  -18.8442   27.1739 C   0  0  0  0  0  0  0  0  0  0  0  0
    9.9878  -18.7214   25.9289 C   0  0  1  0  0  0  0  0  0  0  0  0
    9.1535  -19.1020   24.8678 O   0  0  0  0  0  0  0  0  0  0  0  0
   10.5271  -17.3464   25.7234 C   0  0  2  0  0  0  0  0  0  0  0  0
    9.5311  -16.3972   25.2870 N   0  0  0  0  0  0  0  0  0  0  0  0
   11.6854  -17.3443   24.7631 C   0  0  0  0  0  0  0  0  0  0  0  0
   11.6893  -16.6633   23.6979 O   0  0  0  0  0  0  0  0  0  0  0  0
   12.8333  -18.0871   24.9732 O   0  0  0  0  0  0  0  0  0  0  0  0
  2  1  1  6
  3  2  1  0
  4  5  2  0
  4  2  1  0
  7  6  1  1
  7  9  1  0
  8  7  1  0
 10  9  1  1
 10 11  1  0
 10 12  1  0
 11  4  1  0
 12 18  1  0
 13 12  2  0
 15 16  1  0
 15 14  1  1
 17 15  1  0
 17 18  1  6
 19 21  1  0
 19 17  1  0
 20 19  2  0
M  END
$$$$
