ALT.pdb
     RDKit          3D

 21 20  0  0  1  0  0  0  0  0999 V2000
    5.6944  -19.3906   24.4631 C   0  0  0  0  0  0  0  0  0  0  0  0
    5.4339  -18.0875   23.7845 C   0  0  2  0  0  0  0  0  0  0  0  0
    5.0869  -18.3898   22.3988 N   0  0  0  0  0  0  0  0  0  0  0  0
    6.5390  -17.1329   23.8645 C   0  0  0  0  0  0  0  0  0  0  0  0
    7.3281  -17.0369   22.8886 O   0  0  0  0  0  0  0  0  0  0  0  0
    6.2568  -12.4330   26.9437 C   0  0  0  0  0  0  0  0  0  0  0  0
    6.5891  -13.3732   25.8043 C   0  0  1  0  0  0  0  0  0  0  0  0
    7.1780  -12.4371   24.7217 C   0  0  0  0  0  0  0  0  0  0  0  0
    7.6723  -14.3370   26.1364 C   0  0  0  0  0  0  0  0  0  0  0  0
    7.8718  -15.4359   25.1703 C   0  0  2  0  0  0  0  0  0  0  0  0
    6.7263  -16.3141   25.0391 N   0  0  0  0  0  0  0  0  0  0  0  0
    9.1407  -16.1881   25.2650 C   0  0  0  0  0  0  0  0  0  0  0  0
    9.4386  -16.8621   26.2734 O   0  0  0  0  0  0  0  0  0  0  0  0
   10.4707  -18.4342   22.3254 C   0  0  0  0  0  0  0  0  0  0  0  0
   11.5974  -17.5783   22.8472 C   0  0  1  0  0  0  0  0  0  0  0  0
   11.8021  -16.5876   21.8758 O   0  0  0  0  0  0  0  0  0  0  0  0
   11.3022  -16.9743   24.1783 C   0  0  2  0  0  0  0  0  0  0  0  0
   10.1016  -16.1732   24.1929 N   0  0  0  0  0  0  0  0  0  0  0  0
   12.4615  -16.1606   24.6859 C   0  0  0  0  0  0  0  0  0  0  0  0
   12.3640  -14.9315   24.9652 O   0  0  0  0  0  0  0  0  0  0  0  0
   13.7214  -16.6960   24.8855 O   0  0  0  0  0  0  0  0  0  0  0  0
  2  1  1  1
  3  2  1  0
  4  5  2  0
  4  2  1  0
  7  6  1  1
  7  9  1  0
  8  7  1  0
 10  9  1  1
 10 11  1  0
 10 12  1  0
 11  4  1  0
 12 18  1  0
 13 12  2  0
 15 16  1  0
 15 14  1  6
 17 15  1  0
 17 18  1  6
 19 21  1  0
 19 17  1  0
 20 19  2  0
M  END
$$$$
