ALT.pdb
     RDKit          3D

 21 20  0  0  1  0  0  0  0  0999 V2000
   10.2295  -15.4166   20.7008 C   0  0  0  0  0  0  0  0  0  0  0  0
    9.6667  -16.2429   21.8085 C   0  0  2  0  0  0  0  0  0  0  0  0
    8.3430  -16.6860   21.3801 N   0  0  0  0  0  0  0  0  0  0  0  0
    9.6119  -15.5628   23.1020 C   0  0  0  0  0  0  0  0  0  0  0  0
   10.6918  -15.2753   23.6812 O   0  0  0  0  0  0  0  0  0  0  0  0
    7.7030  -11.6901   26.5387 C   0  0  0  0  0  0  0  0  0  0  0  0
    6.9546  -13.0040   26.4585 C   0  0  1  0  0  0  0  0  0  0  0  0
    5.4691  -12.5817   26.5574 C   0  0  0  0  0  0  0  0  0  0  0  0
    7.0949  -13.6791   25.1406 C   0  0  0  0  0  0  0  0  0  0  0  0
    8.2790  -14.5481   24.9876 C   0  0  2  0  0  0  0  0  0  0  0  0
    8.3453  -15.2259   23.7082 N   0  0  0  0  0  0  0  0  0  0  0  0
    8.5949  -15.4530   26.1128 C   0  0  0  0  0  0  0  0  0  0  0  0
    8.7931  -15.0280   27.2703 O   0  0  0  0  0  0  0  0  0  0  0  0
    6.5183  -18.8114   26.5243 C   0  0  0  0  0  0  0  0  0  0  0  0
    7.9854  -19.0736   26.7550 C   0  0  1  0  0  0  0  0  0  0  0  0
    8.4384  -19.7332   25.6032 O   0  0  0  0  0  0  0  0  0  0  0  0
    8.7675  -17.8289   27.0055 C   0  0  2  0  0  0  0  0  0  0  0  0
    8.6955  -16.8768   25.9230 N   0  0  0  0  0  0  0  0  0  0  0  0
   10.2073  -18.1338   27.3182 C   0  0  0  0  0  0  0  0  0  0  0  0
   10.5569  -18.8550   28.2960 O   0  0  0  0  0  0  0  0  0  0  0  0
   11.2572  -17.6483   26.5594 O   0  0  0  0  0  0  0  0  0  0  0  0
  2  1  1  6
  3  2  1  0
  4  5  2  0
  4  2  1  0
  7  6  1  6
  7  9  1  0
  8  7  1  0
 10  9  1  1
 10 11  1  0
 10 12  1  0
 11  4  1  0
 12 18  1  0
 13 12  2  0
 15 16  1  0
 15 14  1  6
 17 15  1  0
 17 18  1  6
 19 21  1  0
 19 17  1  0
 20 19  2  0
M  END
$$$$
