ALT.pdb
     RDKit          3D

 21 20  0  0  1  0  0  0  0  0999 V2000
    7.9342  -16.9474   20.3631 C   0  0  0  0  0  0  0  0  0  0  0  0
    8.5581  -15.6181   20.6285 C   0  0  2  0  0  0  0  0  0  0  0  0
    9.8103  -15.5772   19.8786 N   0  0  0  0  0  0  0  0  0  0  0  0
    8.7712  -15.3225   22.0447 C   0  0  0  0  0  0  0  0  0  0  0  0
    9.8831  -15.6062   22.5619 O   0  0  0  0  0  0  0  0  0  0  0  0
    8.2706  -12.2460   26.6171 C   0  0  0  0  0  0  0  0  0  0  0  0
    7.1165  -13.1537   26.2474 C   0  0  1  0  0  0  0  0  0  0  0  0
    5.8664  -12.3188   26.6150 C   0  0  0  0  0  0  0  0  0  0  0  0
    7.0157  -13.4080   24.7854 C   0  0  0  0  0  0  0  0  0  0  0  0
    7.9177  -14.4480   24.2512 C   0  0  2  0  0  0  0  0  0  0  0  0
    7.7287  -14.7171   22.8397 N   0  0  0  0  0  0  0  0  0  0  0  0
    8.0486  -15.6905   25.0410 C   0  0  0  0  0  0  0  0  0  0  0  0
    7.0780  -16.4476   25.2521 O   0  0  0  0  0  0  0  0  0  0  0  0
    9.6550  -18.7030   24.2397 C   0  0  0  0  0  0  0  0  0  0  0  0
   10.3048  -18.3272   25.5476 C   0  0  1  0  0  0  0  0  0  0  0  0
   11.5715  -17.8274   25.2119 O   0  0  0  0  0  0  0  0  0  0  0  0
    9.5183  -17.3245   26.3222 C   0  0  2  0  0  0  0  0  0  0  0  0
    9.3098  -16.0848   25.6129 N   0  0  0  0  0  0  0  0  0  0  0  0
   10.1454  -17.0440   27.6608 C   0  0  0  0  0  0  0  0  0  0  0  0
   10.5389  -15.8926   28.0039 O   0  0  0  0  0  0  0  0  0  0  0  0
   10.3385  -18.0247   28.6172 O   0  0  0  0  0  0  0  0  0  0  0  0
  2  1  1  1
  3  2  1  0
  4  5  2  0
  4  2  1  0
  7  6  1  6
  7  9  1  0
  8  7  1  0
 10  9  1  1
 10 11  1  0
 10 12  1  0
 11  4  1  0
 12 18  1  0
 13 12  2  0
 15 16  1  0
 15 14  1  6
 17 15  1  0
 17 18  1  6
 19 21  1  0
 19 17  1  0
 20 19  2  0
M  END
$$$$
