ALT.pdb
     RDKit          3D

 21 20  0  0  1  0  0  0  0  0999 V2000
    6.7098  -15.8472   20.6936 C   0  0  0  0  0  0  0  0  0  0  0  0
    7.5268  -14.6545   21.0631 C   0  0  2  0  0  0  0  0  0  0  0  0
    8.6135  -14.5642   20.0921 N   0  0  0  0  0  0  0  0  0  0  0  0
    8.0333  -14.6703   22.4349 C   0  0  0  0  0  0  0  0  0  0  0  0
    9.2351  -14.9879   22.6330 O   0  0  0  0  0  0  0  0  0  0  0  0
    5.6543  -11.5570   26.5106 C   0  0  0  0  0  0  0  0  0  0  0  0
    6.6509  -12.2374   25.5961 C   0  0  1  0  0  0  0  0  0  0  0  0
    7.9993  -11.5797   25.9759 C   0  0  0  0  0  0  0  0  0  0  0  0
    6.8148  -13.6876   25.8830 C   0  0  0  0  0  0  0  0  0  0  0  0
    7.6337  -14.4447   24.9150 C   0  0  2  0  0  0  0  0  0  0  0  0
    7.1750  -14.3296   23.5450 N   0  0  0  0  0  0  0  0  0  0  0  0
    7.9742  -15.8381   25.2718 C   0  0  0  0  0  0  0  0  0  0  0  0
    7.1144  -16.7432   25.3051 O   0  0  0  0  0  0  0  0  0  0  0  0
   10.1925  -18.2966   23.6425 C   0  0  0  0  0  0  0  0  0  0  0  0
   10.7051  -18.1685   25.0549 C   0  0  1  0  0  0  0  0  0  0  0  0
   11.8659  -17.3863   24.9675 O   0  0  0  0  0  0  0  0  0  0  0  0
    9.7112  -17.5554   25.9823 C   0  0  2  0  0  0  0  0  0  0  0  0
    9.3224  -16.2173   25.6058 N   0  0  0  0  0  0  0  0  0  0  0  0
   10.2049  -17.5595   27.4036 C   0  0  0  0  0  0  0  0  0  0  0  0
   10.3469  -16.5017   28.0812 O   0  0  0  0  0  0  0  0  0  0  0  0
   10.5403  -18.7208   28.0762 O   0  0  0  0  0  0  0  0  0  0  0  0
  2  1  1  6
  3  2  1  0
  4  5  2  0
  4  2  1  0
  7  6  1  1
  7  9  1  0
  8  7  1  0
 10  9  1  1
 10 11  1  0
 10 12  1  0
 11  4  1  0
 12 18  1  0
 13 12  2  0
 15 16  1  0
 15 14  1  6
 17 15  1  0
 17 18  1  6
 19 21  1  0
 19 17  1  0
 20 19  2  0
M  END
$$$$
