ALT.pdb
     RDKit          3D

 21 20  0  0  1  0  0  0  0  0999 V2000
    7.1735  -16.5694   20.5018 C   0  0  0  0  0  0  0  0  0  0  0  0
    7.8568  -15.2559   20.6872 C   0  0  2  0  0  0  0  0  0  0  0  0
    9.0130  -15.2468   19.7955 N   0  0  0  0  0  0  0  0  0  0  0  0
    8.2419  -14.9646   22.0676 C   0  0  0  0  0  0  0  0  0  0  0  0
    9.3995  -15.2755   22.4517 O   0  0  0  0  0  0  0  0  0  0  0  0
    8.2863  -12.1582   26.8559 C   0  0  0  0  0  0  0  0  0  0  0  0
    7.0650  -12.9884   26.5214 C   0  0  1  0  0  0  0  0  0  0  0  0
    5.8889  -12.1321   27.0490 C   0  0  0  0  0  0  0  0  0  0  0  0
    6.8356  -13.1309   25.0588 C   0  0  0  0  0  0  0  0  0  0  0  0
    7.6269  -14.1795   24.3843 C   0  0  2  0  0  0  0  0  0  0  0  0
    7.3152  -14.3329   22.9772 N   0  0  0  0  0  0  0  0  0  0  0  0
    7.7378  -15.4821   25.0740 C   0  0  0  0  0  0  0  0  0  0  0  0
    6.7540  -16.2351   25.2314 O   0  0  0  0  0  0  0  0  0  0  0  0
    9.0548  -18.3916   23.9429 C   0  0  0  0  0  0  0  0  0  0  0  0
    9.8345  -18.2167   25.2218 C   0  0  1  0  0  0  0  0  0  0  0  0
   11.1066  -17.7724   24.8327 O   0  0  0  0  0  0  0  0  0  0  0  0
    9.1951  -17.2574   26.1676 C   0  0  2  0  0  0  0  0  0  0  0  0
    8.9940  -15.9432   25.6055 N   0  0  0  0  0  0  0  0  0  0  0  0
    9.9709  -17.1467   27.4521 C   0  0  0  0  0  0  0  0  0  0  0  0
   10.5103  -16.0691   27.8344 O   0  0  0  0  0  0  0  0  0  0  0  0
   10.1523  -18.2154   28.3114 O   0  0  0  0  0  0  0  0  0  0  0  0
  2  1  1  1
  3  2  1  0
  4  5  2  0
  4  2  1  0
  7  6  1  6
  7  9  1  0
  8  7  1  0
 10  9  1  1
 10 11  1  0
 10 12  1  0
 11  4  1  0
 12 18  1  0
 13 12  2  0
 15 16  1  0
 15 14  1  6
 17 15  1  0
 17 18  1  6
 19 21  1  0
 19 17  1  0
 20 19  2  0
M  END
$$$$
