ALT.pdb
     RDKit          3D

 21 20  0  0  1  0  0  0  0  0999 V2000
    8.1504  -19.9579   17.6719 C   0  0  0  0  0  0  0  0  0  0  0  0
    8.3960  -18.6323   17.0324 C   0  0  2  0  0  0  0  0  0  0  0  0
    9.2959  -18.8623   15.9057 N   0  0  0  0  0  0  0  0  0  0  0  0
    8.9215  -17.6121   17.9388 C   0  0  0  0  0  0  0  0  0  0  0  0
   10.1663  -17.5377   18.1103 O   0  0  0  0  0  0  0  0  0  0  0  0
    9.2209  -12.5888   19.8410 C   0  0  0  0  0  0  0  0  0  0  0  0
    8.1799  -13.4315   20.5474 C   0  0  1  0  0  0  0  0  0  0  0  0
    6.9971  -12.4539   20.7476 C   0  0  0  0  0  0  0  0  0  0  0  0
    7.6507  -14.5373   19.7051 C   0  0  0  0  0  0  0  0  0  0  0  0
    8.5416  -15.7039   19.5438 C   0  0  2  0  0  0  0  0  0  0  0  0
    8.0335  -16.7052   18.6273 N   0  0  0  0  0  0  0  0  0  0  0  0
    9.0857  -16.3063   20.7790 C   0  0  0  0  0  0  0  0  0  0  0  0
    8.3479  -16.8042   21.6550 O   0  0  0  0  0  0  0  0  0  0  0  0
   10.7424  -19.2964   21.3734 C   0  0  0  0  0  0  0  0  0  0  0  0
   11.7225  -18.2828   21.9085 C   0  0  1  0  0  0  0  0  0  0  0  0
   12.7214  -18.1684   20.9308 O   0  0  0  0  0  0  0  0  0  0  0  0
   11.0954  -16.9605   22.1949 C   0  0  2  0  0  0  0  0  0  0  0  0
   10.5024  -16.3416   21.0336 N   0  0  0  0  0  0  0  0  0  0  0  0
   12.0730  -16.0111   22.8325 C   0  0  0  0  0  0  0  0  0  0  0  0
   12.4381  -14.9334   22.2816 O   0  0  0  0  0  0  0  0  0  0  0  0
   12.6460  -16.2457   24.0696 O   0  0  0  0  0  0  0  0  0  0  0  0
  2  1  1  1
  3  2  1  0
  4  5  2  0
  4  2  1  0
  7  6  1  6
  7  9  1  0
  8  7  1  0
 10  9  1  1
 10 11  1  0
 10 12  1  0
 11  4  1  0
 12 18  1  0
 13 12  2  0
 15 16  1  0
 15 14  1  6
 17 15  1  0
 17 18  1  6
 19 21  1  0
 19 17  1  0
 20 19  2  0
M  END
$$$$
