ALT.pdb
     RDKit          3D

 21 20  0  0  1  0  0  0  0  0999 V2000
    8.2653  -13.8639   19.6490 C   0  0  0  0  0  0  0  0  0  0  0  0
    8.0070  -14.9988   20.5828 C   0  0  2  0  0  0  0  0  0  0  0  0
    6.5983  -15.3556   20.4413 N   0  0  0  0  0  0  0  0  0  0  0  0
    8.3535  -14.7250   21.9770 C   0  0  0  0  0  0  0  0  0  0  0  0
    9.5689  -14.6659   22.2985 O   0  0  0  0  0  0  0  0  0  0  0  0
    8.2804  -12.0878   26.6428 C   0  0  0  0  0  0  0  0  0  0  0  0
    7.0744  -12.9786   26.4313 C   0  0  1  0  0  0  0  0  0  0  0  0
    5.8926  -12.1137   26.9316 C   0  0  0  0  0  0  0  0  0  0  0  0
    6.7934  -13.2541   24.9969 C   0  0  0  0  0  0  0  0  0  0  0  0
    7.6557  -14.2679   24.3573 C   0  0  2  0  0  0  0  0  0  0  0  0
    7.3243  -14.5262   22.9702 N   0  0  0  0  0  0  0  0  0  0  0  0
    7.8957  -15.5154   25.1128 C   0  0  0  0  0  0  0  0  0  0  0  0
    6.9593  -16.2296   25.5285 O   0  0  0  0  0  0  0  0  0  0  0  0
    9.4367  -18.5109   23.8831 C   0  0  0  0  0  0  0  0  0  0  0  0
   10.2319  -18.1864   25.1227 C   0  0  1  0  0  0  0  0  0  0  0  0
   11.4454  -17.6522   24.6657 O   0  0  0  0  0  0  0  0  0  0  0  0
    9.5320  -17.2331   26.0311 C   0  0  2  0  0  0  0  0  0  0  0  0
    9.2305  -15.9646   25.4118 N   0  0  0  0  0  0  0  0  0  0  0  0
   10.3084  -17.0067   27.2998 C   0  0  0  0  0  0  0  0  0  0  0  0
   10.7755  -15.8774   27.6234 O   0  0  0  0  0  0  0  0  0  0  0  0
   10.5696  -18.0170   28.2080 O   0  0  0  0  0  0  0  0  0  0  0  0
  2  1  1  6
  3  2  1  0
  4  5  2  0
  4  2  1  0
  7  6  1  6
  7  9  1  0
  8  7  1  0
 10  9  1  1
 10 11  1  0
 10 12  1  0
 11  4  1  0
 12 18  1  0
 13 12  2  0
 15 16  1  0
 15 14  1  6
 17 15  1  0
 17 18  1  6
 19 21  1  0
 19 17  1  0
 20 19  2  0
M  END
$$$$
