ALT.pdb
     RDKit          3D

 21 20  0  0  1  0  0  0  0  0999 V2000
    9.3728  -19.5904   18.3898 C   0  0  0  0  0  0  0  0  0  0  0  0
    9.5937  -18.1774   17.9642 C   0  0  2  0  0  0  0  0  0  0  0  0
   10.6443  -18.1964   16.9503 N   0  0  0  0  0  0  0  0  0  0  0  0
    9.9191  -17.2611   19.0565 C   0  0  0  0  0  0  0  0  0  0  0  0
   11.1189  -17.1571   19.4225 O   0  0  0  0  0  0  0  0  0  0  0  0
    6.4883  -12.9660   20.1222 C   0  0  0  0  0  0  0  0  0  0  0  0
    7.6996  -13.8348   19.8565 C   0  0  1  0  0  0  0  0  0  0  0  0
    8.8161  -12.8121   19.5362 C   0  0  0  0  0  0  0  0  0  0  0  0
    8.1648  -14.5760   21.0592 C   0  0  0  0  0  0  0  0  0  0  0  0
    9.1915  -15.6098   20.8186 C   0  0  2  0  0  0  0  0  0  0  0  0
    8.8871  -16.4884   19.7069 N   0  0  0  0  0  0  0  0  0  0  0  0
    9.6804  -16.3547   21.9979 C   0  0  0  0  0  0  0  0  0  0  0  0
    8.9071  -16.9722   22.7598 O   0  0  0  0  0  0  0  0  0  0  0  0
   11.3994  -19.3687   22.2407 C   0  0  0  0  0  0  0  0  0  0  0  0
   12.3146  -18.4193   22.9724 C   0  0  1  0  0  0  0  0  0  0  0  0
   13.3560  -18.1317   22.0782 O   0  0  0  0  0  0  0  0  0  0  0  0
   11.6268  -17.1731   23.4168 C   0  0  2  0  0  0  0  0  0  0  0  0
   11.0811  -16.3979   22.3283 N   0  0  0  0  0  0  0  0  0  0  0  0
   12.5326  -16.3087   24.2512 C   0  0  0  0  0  0  0  0  0  0  0  0
   13.0280  -16.6962   25.3479 O   0  0  0  0  0  0  0  0  0  0  0  0
   12.8919  -15.0251   23.8813 O   0  0  0  0  0  0  0  0  0  0  0  0
  2  1  1  1
  3  2  1  0
  4  5  2  0
  4  2  1  0
  7  6  1  1
  7  9  1  0
  8  7  1  0
 10  9  1  1
 10 11  1  0
 10 12  1  0
 11  4  1  0
 12 18  1  0
 13 12  2  0
 15 16  1  0
 15 14  1  6
 17 15  1  0
 17 18  1  6
 19 21  1  0
 19 17  1  0
 20 19  2  0
M  END
$$$$
