QEK.pdb
     RDKit          3D

 28 27  0  0  1  0  0  0  0  0999 V2000
    6.4738  -12.5652   17.7281 N   0  0  0  0  0  0  0  0  0  0  0  0
    7.3288  -13.2456   16.8476 C   0  0  0  0  0  0  0  0  0  0  0  0
    7.1290  -13.2732   15.6276 O   0  0  0  0  0  0  0  0  0  0  0  0
    8.5150  -13.9562   17.4128 C   0  0  0  0  0  0  0  0  0  0  0  0
    8.4265  -13.9193   18.9096 C   0  0  0  0  0  0  0  0  0  0  0  0
    9.7680  -13.7788   19.5297 C   0  0  2  0  0  0  0  0  0  0  0  0
   10.8102  -13.7600   18.4856 N   0  0  0  0  0  0  0  0  0  0  0  0
   10.0557  -14.9327   20.4506 C   0  0  0  0  0  0  0  0  0  0  0  0
    9.2221  -15.3152   21.3045 O   0  0  0  0  0  0  0  0  0  0  0  0
   11.2716  -15.6305   20.3917 N   0  0  0  0  0  0  0  0  0  0  0  0
   11.6844  -16.7008   21.2152 C   0  0  1  0  0  0  0  0  0  0  0  0
   12.4363  -17.8143   20.5553 C   0  0  0  0  0  0  0  0  0  0  0  0
   12.8248  -18.8812   21.5006 C   0  0  0  0  0  0  0  0  0  0  0  0
   13.5396  -20.0414   20.8997 C   0  0  0  0  0  0  0  0  0  0  0  0
   12.9382  -21.1204   20.7507 O   0  0  0  0  0  0  0  0  0  0  0  0
   12.2427  -16.2215   22.4849 C   0  0  0  0  0  0  0  0  0  0  0  0
   13.3810  -15.6556   22.4594 O   0  0  0  0  0  0  0  0  0  0  0  0
   14.8541  -19.9799   20.4939 O   0  0  0  0  0  0  0  0  0  0  0  0
   11.5412  -16.3802   23.7002 N   0  0  0  0  0  0  0  0  0  0  0  0
   12.1401  -15.9322   25.0092 C   0  0  1  0  0  0  0  0  0  0  0  0
   11.0637  -15.6256   25.9312 C   0  0  0  0  0  0  0  0  0  0  0  0
   11.3577  -15.2454   27.3170 C   0  0  0  0  0  0  0  0  0  0  0  0
   10.2348  -14.9144   28.2357 C   0  0  0  0  0  0  0  0  0  0  0  0
   10.8848  -14.6115   29.6045 C   0  0  0  0  0  0  0  0  0  0  0  0
    9.8231  -14.2288   30.4911 N   0  0  0  0  0  0  0  0  0  0  0  0
   13.2866  -16.7443   25.3304 C   0  0  0  0  0  0  0  0  0  0  0  0
   13.3725  -18.0150   25.2610 O   0  0  0  0  0  0  0  0  0  0  0  0
   14.5101  -16.1708   25.7856 O   0  0  0  0  0  0  0  0  0  0  0  0
  1  2  1  0
  2  4  1  0
  3  2  2  0
  4  5  1  0
  6  8  1  0
  6  7  1  6
  6  5  1  0
  8  9  2  0
 10 11  1  0
 10  8  1  0
 11 16  1  0
 11 12  1  6
 13 12  1  0
 14 13  1  0
 15 14  2  0
 16 17  2  0
 16 19  1  0
 18 14  1  0
 19 20  1  0
 20 26  1  0
 20 21  1  1
 22 21  1  0
 22 23  1  0
 24 23  1  0
 25 24  1  0
 26 27  2  0
 26 28  1  0
M  END
$$$$
