QEK.pdb
     RDKit          3D

 28 27  0  0  1  0  0  0  0  0999 V2000
    8.4645  -12.9989   17.1308 N   0  0  0  0  0  0  0  0  0  0  0  0
    8.2091  -13.6659   15.9230 C   0  0  0  0  0  0  0  0  0  0  0  0
    7.8807  -13.0617   14.8953 O   0  0  0  0  0  0  0  0  0  0  0  0
    8.3407  -15.1536   15.8888 C   0  0  0  0  0  0  0  0  0  0  0  0
    8.7410  -15.6301   17.2534 C   0  0  0  0  0  0  0  0  0  0  0  0
    8.9996  -17.0918   17.2642 C   0  0  2  0  0  0  0  0  0  0  0  0
    7.7517  -17.8298   16.9906 N   0  0  0  0  0  0  0  0  0  0  0  0
    9.5149  -17.5346   18.6060 C   0  0  0  0  0  0  0  0  0  0  0  0
    8.7372  -17.8358   19.5414 O   0  0  0  0  0  0  0  0  0  0  0  0
   10.8902  -17.6294   18.8669 N   0  0  0  0  0  0  0  0  0  0  0  0
   11.5067  -18.0216   20.0753 C   0  0  1  0  0  0  0  0  0  0  0  0
   12.8782  -18.6133   19.9771 C   0  0  0  0  0  0  0  0  0  0  0  0
   13.3705  -19.1341   21.2691 C   0  0  0  0  0  0  0  0  0  0  0  0
   14.7188  -19.7656   21.2341 C   0  0  0  0  0  0  0  0  0  0  0  0
   15.0511  -20.5495   22.1414 O   0  0  0  0  0  0  0  0  0  0  0  0
   11.3221  -17.0155   21.1275 C   0  0  0  0  0  0  0  0  0  0  0  0
   11.6964  -15.8247   20.8855 O   0  0  0  0  0  0  0  0  0  0  0  0
   15.6317  -19.5221   20.2323 O   0  0  0  0  0  0  0  0  0  0  0  0
   10.7462  -17.3537   22.3719 N   0  0  0  0  0  0  0  0  0  0  0  0
   10.5799  -16.3223   23.4588 C   0  0  1  0  0  0  0  0  0  0  0  0
    9.1775  -15.9645   23.5483 C   0  0  0  0  0  0  0  0  0  0  0  0
    8.7242  -14.9751   24.5317 C   0  0  0  0  0  0  0  0  0  0  0  0
    7.2771  -14.6372   24.6115 C   0  0  0  0  0  0  0  0  0  0  0  0
    7.1718  -13.4671   25.6154 C   0  0  0  0  0  0  0  0  0  0  0  0
    5.8107  -13.0135   25.5809 N   0  0  0  0  0  0  0  0  0  0  0  0
   11.4132  -16.6557   24.5865 C   0  0  0  0  0  0  0  0  0  0  0  0
   11.6925  -17.8233   25.0175 O   0  0  0  0  0  0  0  0  0  0  0  0
   12.0435  -15.6514   25.3784 O   0  0  0  0  0  0  0  0  0  0  0  0
  1  2  1  0
  2  4  1  0
  3  2  2  0
  4  5  1  0
  6  8  1  0
  6  7  1  1
  6  5  1  0
  8  9  2  0
 10 11  1  0
 10  8  1  0
 11 16  1  0
 11 12  1  6
 13 12  1  0
 14 13  1  0
 15 14  2  0
 16 17  2  0
 16 19  1  0
 18 14  1  0
 19 20  1  0
 20 26  1  0
 20 21  1  1
 22 21  1  0
 22 23  1  0
 24 23  1  0
 25 24  1  0
 26 27  2  0
 26 28  1  0
M  END
$$$$
