QEK.pdb
     RDKit          3D

 28 27  0  0  1  0  0  0  0  0999 V2000
    7.7082  -12.8557   16.0522 N   0  0  0  0  0  0  0  0  0  0  0  0
    7.9173  -14.2406   15.9675 C   0  0  0  0  0  0  0  0  0  0  0  0
    8.0012  -14.8274   14.8822 O   0  0  0  0  0  0  0  0  0  0  0  0
    8.0408  -15.0216   17.2350 C   0  0  0  0  0  0  0  0  0  0  0  0
    7.5505  -14.1724   18.3699 C   0  0  0  0  0  0  0  0  0  0  0  0
    8.6509  -13.8267   19.3045 C   0  0  2  0  0  0  0  0  0  0  0  0
    9.9136  -13.6563   18.5606 N   0  0  0  0  0  0  0  0  0  0  0  0
    8.8547  -14.9184   20.3189 C   0  0  0  0  0  0  0  0  0  0  0  0
    7.8930  -15.4178   20.9483 O   0  0  0  0  0  0  0  0  0  0  0  0
   10.1322  -15.4242   20.6031 N   0  0  0  0  0  0  0  0  0  0  0  0
   10.4767  -16.3712   21.5923 C   0  0  1  0  0  0  0  0  0  0  0  0
   11.6784  -17.2235   21.3272 C   0  0  0  0  0  0  0  0  0  0  0  0
   11.4894  -18.1389   20.1831 C   0  0  0  0  0  0  0  0  0  0  0  0
   12.6668  -18.9819   19.8350 C   0  0  0  0  0  0  0  0  0  0  0  0
   12.9765  -19.1368   18.6399 O   0  0  0  0  0  0  0  0  0  0  0  0
   10.3870  -15.8004   22.9413 C   0  0  0  0  0  0  0  0  0  0  0  0
   11.0560  -14.7478   23.1886 O   0  0  0  0  0  0  0  0  0  0  0  0
   13.4430  -19.6089   20.7839 O   0  0  0  0  0  0  0  0  0  0  0  0
    9.5833  -16.3971   23.9376 N   0  0  0  0  0  0  0  0  0  0  0  0
    9.2871  -15.6813   25.2310 C   0  0  1  0  0  0  0  0  0  0  0  0
    8.3009  -14.6497   24.9750 C   0  0  0  0  0  0  0  0  0  0  0  0
    7.8788  -13.7424   26.0476 C   0  0  0  0  0  0  0  0  0  0  0  0
    6.8615  -12.6955   25.7583 C   0  0  0  0  0  0  0  0  0  0  0  0
    6.7353  -11.8608   27.0526 C   0  0  0  0  0  0  0  0  0  0  0  0
    5.8380  -10.7793   26.7617 N   0  0  0  0  0  0  0  0  0  0  0  0
    9.2179  -16.6294   26.3143 C   0  0  0  0  0  0  0  0  0  0  0  0
    8.7309  -17.8076   26.2749 O   0  0  0  0  0  0  0  0  0  0  0  0
    9.7164  -16.3228   27.6145 O   0  0  0  0  0  0  0  0  0  0  0  0
  1  2  1  0
  2  4  1  0
  3  2  2  0
  4  5  1  0
  6  8  1  0
  6  7  1  6
  6  5  1  0
  8  9  2  0
 10 11  1  0
 10  8  1  0
 11 16  1  0
 11 12  1  6
 13 12  1  0
 14 13  1  0
 15 14  2  0
 16 17  2  0
 16 19  1  0
 18 14  1  0
 19 20  1  0
 20 26  1  0
 20 21  1  6
 22 21  1  0
 22 23  1  0
 24 23  1  0
 25 24  1  0
 26 27  2  0
 26 28  1  0
M  END
$$$$
