QEK.pdb
     RDKit          3D

 28 27  0  0  1  0  0  0  0  0999 V2000
    6.8797  -12.8607   18.7862 N   0  0  0  0  0  0  0  0  0  0  0  0
    7.6724  -13.0960   17.6525 C   0  0  0  0  0  0  0  0  0  0  0  0
    7.5747  -12.4098   16.6284 O   0  0  0  0  0  0  0  0  0  0  0  0
    8.6624  -14.2139   17.6946 C   0  0  0  0  0  0  0  0  0  0  0  0
    8.5553  -14.8981   19.0250 C   0  0  0  0  0  0  0  0  0  0  0  0
    9.5023  -16.0367   19.1280 C   0  0  2  0  0  0  0  0  0  0  0  0
    9.3396  -16.9382   17.9716 N   0  0  0  0  0  0  0  0  0  0  0  0
    9.2464  -16.8346   20.3770 C   0  0  0  0  0  0  0  0  0  0  0  0
    8.0848  -17.0313   20.8043 O   0  0  0  0  0  0  0  0  0  0  0  0
   10.2993  -17.3934   21.1171 N   0  0  0  0  0  0  0  0  0  0  0  0
   10.1989  -18.2216   22.2565 C   0  0  1  0  0  0  0  0  0  0  0  0
   10.4438  -19.6847   22.0562 C   0  0  0  0  0  0  0  0  0  0  0  0
   11.6157  -19.9565   21.1986 C   0  0  0  0  0  0  0  0  0  0  0  0
   11.9150  -21.3956   20.9589 C   0  0  0  0  0  0  0  0  0  0  0  0
   12.4607  -22.0646   21.8549 O   0  0  0  0  0  0  0  0  0  0  0  0
   10.8582  -17.6201   23.4214 C   0  0  0  0  0  0  0  0  0  0  0  0
   11.9567  -17.0079   23.2341 O   0  0  0  0  0  0  0  0  0  0  0  0
   11.6137  -22.0342   19.7767 O   0  0  0  0  0  0  0  0  0  0  0  0
   10.2941  -17.7146   24.7127 N   0  0  0  0  0  0  0  0  0  0  0  0
   10.9949  -17.1310   25.9131 C   0  0  1  0  0  0  0  0  0  0  0  0
   10.1180  -16.1577   26.5346 C   0  0  0  0  0  0  0  0  0  0  0  0
   10.5195  -15.4781   27.7710 C   0  0  0  0  0  0  0  0  0  0  0  0
    9.6134  -14.4616   28.3710 C   0  0  0  0  0  0  0  0  0  0  0  0
   10.3424  -13.9363   29.6282 C   0  0  0  0  0  0  0  0  0  0  0  0
    9.5414  -12.8684   30.1551 N   0  0  0  0  0  0  0  0  0  0  0  0
   11.7018  -18.1671   26.6232 C   0  0  0  0  0  0  0  0  0  0  0  0
   11.3689  -19.3943   26.7245 O   0  0  0  0  0  0  0  0  0  0  0  0
   12.9148  -17.9042   27.3248 O   0  0  0  0  0  0  0  0  0  0  0  0
  1  2  1  0
  2  4  1  0
  3  2  2  0
  4  5  1  0
  6  8  1  0
  6  7  1  6
  6  5  1  0
  8  9  2  0
 10 11  1  0
 10  8  1  0
 11 16  1  0
 11 12  1  6
 13 12  1  0
 14 13  1  0
 15 14  2  0
 16 17  2  0
 16 19  1  0
 18 14  1  0
 19 20  1  0
 20 26  1  0
 20 21  1  1
 22 21  1  0
 22 23  1  0
 24 23  1  0
 25 24  1  0
 26 27  2  0
 26 28  1  0
M  END
$$$$
