QEK.pdb
     RDKit          3D

 28 27  0  0  1  0  0  0  0  0999 V2000
   12.9994  -16.3791   14.4618 N   0  0  0  0  0  0  0  0  0  0  0  0
   13.1455  -17.7564   14.6866 C   0  0  0  0  0  0  0  0  0  0  0  0
   14.2182  -18.3426   14.5000 O   0  0  0  0  0  0  0  0  0  0  0  0
   11.9609  -18.5298   15.1662 C   0  0  0  0  0  0  0  0  0  0  0  0
   11.2907  -17.7503   16.2584 C   0  0  0  0  0  0  0  0  0  0  0  0
   10.1171  -18.4779   16.8035 C   0  0  2  0  0  0  0  0  0  0  0  0
    8.9022  -18.1206   16.0465 N   0  0  0  0  0  0  0  0  0  0  0  0
    9.8868  -18.1183   18.2457 C   0  0  0  0  0  0  0  0  0  0  0  0
    9.7011  -16.9322   18.6053 O   0  0  0  0  0  0  0  0  0  0  0  0
    9.8698  -19.0975   19.2504 N   0  0  0  0  0  0  0  0  0  0  0  0
    9.6411  -18.9035   20.6303 C   0  0  1  0  0  0  0  0  0  0  0  0
    8.8286  -19.9434   21.3367 C   0  0  0  0  0  0  0  0  0  0  0  0
    8.6539  -19.6535   22.7748 C   0  0  0  0  0  0  0  0  0  0  0  0
    8.0055  -20.7314   23.5723 C   0  0  0  0  0  0  0  0  0  0  0  0
    7.7555  -20.5365   24.7754 O   0  0  0  0  0  0  0  0  0  0  0  0
   10.8590  -18.4685   21.3239 C   0  0  0  0  0  0  0  0  0  0  0  0
   11.8790  -19.2256   21.2683 O   0  0  0  0  0  0  0  0  0  0  0  0
    7.6628  -21.9530   23.0370 O   0  0  0  0  0  0  0  0  0  0  0  0
   10.9026  -17.2474   22.0320 N   0  0  0  0  0  0  0  0  0  0  0  0
   12.1698  -16.7811   22.7027 C   0  0  1  0  0  0  0  0  0  0  0  0
   12.5945  -15.5417   22.0814 C   0  0  0  0  0  0  0  0  0  0  0  0
   13.3318  -15.5604   20.8134 C   0  0  0  0  0  0  0  0  0  0  0  0
   13.6730  -14.2728   20.1498 C   0  0  0  0  0  0  0  0  0  0  0  0
   14.3436  -14.6532   18.8106 C   0  0  0  0  0  0  0  0  0  0  0  0
   14.6556  -13.4233   18.1401 N   0  0  0  0  0  0  0  0  0  0  0  0
   12.0824  -16.9958   24.1252 C   0  0  0  0  0  0  0  0  0  0  0  0
   11.0218  -17.1627   24.8138 O   0  0  0  0  0  0  0  0  0  0  0  0
   13.2439  -17.0441   24.9507 O   0  0  0  0  0  0  0  0  0  0  0  0
  1  2  1  0
  2  4  1  0
  3  2  2  0
  4  5  1  0
  6  8  1  0
  6  7  1  6
  6  5  1  0
  8  9  2  0
 10 11  1  0
 10  8  1  0
 11 16  1  0
 11 12  1  1
 13 12  1  0
 14 13  1  0
 15 14  2  0
 16 17  2  0
 16 19  1  0
 18 14  1  0
 19 20  1  0
 20 26  1  0
 20 21  1  1
 22 21  1  0
 22 23  1  0
 24 23  1  0
 25 24  1  0
 26 27  2  0
 26 28  1  0
M  END
$$$$
