QEK.pdb
     RDKit          3D

 28 27  0  0  1  0  0  0  0  0999 V2000
    6.9404  -12.6277   19.0723 N   0  0  0  0  0  0  0  0  0  0  0  0
    6.8801  -13.2304   17.8065 C   0  0  0  0  0  0  0  0  0  0  0  0
    6.0420  -12.8986   16.9599 O   0  0  0  0  0  0  0  0  0  0  0  0
    7.8641  -14.3065   17.4819 C   0  0  0  0  0  0  0  0  0  0  0  0
    8.8074  -14.4569   18.6383 C   0  0  0  0  0  0  0  0  0  0  0  0
    9.8036  -15.5294   18.3906 C   0  0  2  0  0  0  0  0  0  0  0  0
    9.4697  -16.2553   17.1503 N   0  0  0  0  0  0  0  0  0  0  0  0
    9.8134  -16.5223   19.5202 C   0  0  0  0  0  0  0  0  0  0  0  0
    8.8456  -17.2912   19.7272 O   0  0  0  0  0  0  0  0  0  0  0  0
   10.9085  -16.6297   20.3907 N   0  0  0  0  0  0  0  0  0  0  0  0
   11.1011  -17.5891   21.4089 C   0  0  1  0  0  0  0  0  0  0  0  0
   10.8851  -19.0236   21.0399 C   0  0  0  0  0  0  0  0  0  0  0  0
   11.5366  -19.3909   19.7658 C   0  0  0  0  0  0  0  0  0  0  0  0
   11.4361  -20.8272   19.3848 C   0  0  0  0  0  0  0  0  0  0  0  0
   12.0581  -21.6800   20.0435 O   0  0  0  0  0  0  0  0  0  0  0  0
   12.3093  -17.3093   22.1934 C   0  0  0  0  0  0  0  0  0  0  0  0
   13.4165  -17.7650   21.7653 O   0  0  0  0  0  0  0  0  0  0  0  0
   10.6771  -21.2668   18.3232 O   0  0  0  0  0  0  0  0  0  0  0  0
   12.2502  -16.5570   23.3871 N   0  0  0  0  0  0  0  0  0  0  0  0
   12.1641  -17.2346   24.7311 C   0  0  1  0  0  0  0  0  0  0  0  0
   10.7819  -17.5937   24.9819 C   0  0  0  0  0  0  0  0  0  0  0  0
   10.4477  -18.6011   25.9944 C   0  0  0  0  0  0  0  0  0  0  0  0
    9.0281  -19.0091   26.1756 C   0  0  0  0  0  0  0  0  0  0  0  0
    9.0167  -19.9713   27.3847 C   0  0  0  0  0  0  0  0  0  0  0  0
    7.6455  -20.3232   27.6206 N   0  0  0  0  0  0  0  0  0  0  0  0
   13.2857  -18.1223   24.9083 C   0  0  0  0  0  0  0  0  0  0  0  0
   14.4774  -17.9488   24.4881 O   0  0  0  0  0  0  0  0  0  0  0  0
   13.1638  -19.3561   25.6124 O   0  0  0  0  0  0  0  0  0  0  0  0
  1  2  1  0
  2  4  1  0
  3  2  2  0
  4  5  1  0
  6  8  1  0
  6  7  1  6
  6  5  1  0
  8  9  2  0
 10 11  1  0
 10  8  1  0
 11 16  1  0
 11 12  1  6
 13 12  1  0
 14 13  1  0
 15 14  2  0
 16 17  2  0
 16 19  1  0
 18 14  1  0
 19 20  1  0
 20 26  1  0
 20 21  1  6
 22 21  1  0
 22 23  1  0
 24 23  1  0
 25 24  1  0
 26 27  2  0
 26 28  1  0
M  END
$$$$
