QEK.pdb
     RDKit          3D

 28 27  0  0  1  0  0  0  0  0999 V2000
   10.0512  -12.2312   18.7360 N   0  0  0  0  0  0  0  0  0  0  0  0
    9.1930  -13.0825   18.0233 C   0  0  0  0  0  0  0  0  0  0  0  0
    9.5292  -13.6126   16.9578 O   0  0  0  0  0  0  0  0  0  0  0  0
    7.8320  -13.3498   18.5781 C   0  0  0  0  0  0  0  0  0  0  0  0
    7.9819  -14.0383   19.9022 C   0  0  0  0  0  0  0  0  0  0  0  0
    8.4077  -15.4506   19.7349 C   0  0  2  0  0  0  0  0  0  0  0  0
    7.3852  -16.2031   18.9833 N   0  0  0  0  0  0  0  0  0  0  0  0
    8.5853  -16.1181   21.0709 C   0  0  0  0  0  0  0  0  0  0  0  0
    7.6058  -16.3960   21.8016 O   0  0  0  0  0  0  0  0  0  0  0  0
    9.8572  -16.4585   21.5556 N   0  0  0  0  0  0  0  0  0  0  0  0
   10.1668  -17.0700   22.7902 C   0  0  1  0  0  0  0  0  0  0  0  0
   11.3267  -18.0160   22.8075 C   0  0  0  0  0  0  0  0  0  0  0  0
   12.5126  -17.4799   22.1083 C   0  0  0  0  0  0  0  0  0  0  0  0
   13.6851  -18.3957   22.0397 C   0  0  0  0  0  0  0  0  0  0  0  0
   14.4701  -18.4581   23.0030 O   0  0  0  0  0  0  0  0  0  0  0  0
   10.1137  -16.1087   23.8977 C   0  0  0  0  0  0  0  0  0  0  0  0
   10.9816  -15.1799   23.9226 O   0  0  0  0  0  0  0  0  0  0  0  0
   13.9491  -19.1902   20.9464 O   0  0  0  0  0  0  0  0  0  0  0  0
    9.1306  -16.2069   24.9069 N   0  0  0  0  0  0  0  0  0  0  0  0
    9.0886  -15.2260   26.0510 C   0  0  1  0  0  0  0  0  0  0  0  0
    7.9333  -14.3661   25.8827 C   0  0  0  0  0  0  0  0  0  0  0  0
    7.6075  -13.3529   26.8921 C   0  0  0  0  0  0  0  0  0  0  0  0
    6.4639  -12.4304   26.6561 C   0  0  0  0  0  0  0  0  0  0  0  0
    6.4846  -11.4242   27.8287 C   0  0  0  0  0  0  0  0  0  0  0  0
    5.4492  -10.4649   27.5690 N   0  0  0  0  0  0  0  0  0  0  0  0
    9.4442  -15.8878   27.2810 C   0  0  0  0  0  0  0  0  0  0  0  0
    9.6794  -15.3400   28.4086 O   0  0  0  0  0  0  0  0  0  0  0  0
    9.5770  -17.3052   27.3607 O   0  0  0  0  0  0  0  0  0  0  0  0
  1  2  1  0
  2  4  1  0
  3  2  2  0
  4  5  1  0
  6  8  1  0
  6  7  1  6
  6  5  1  0
  8  9  2  0
 10 11  1  0
 10  8  1  0
 11 16  1  0
 11 12  1  6
 13 12  1  0
 14 13  1  0
 15 14  2  0
 16 17  2  0
 16 19  1  0
 18 14  1  0
 19 20  1  0
 20 26  1  0
 20 21  1  1
 22 21  1  0
 22 23  1  0
 24 23  1  0
 25 24  1  0
 26 27  2  0
 26 28  1  0
M  END
$$$$
