QEK.pdb
     RDKit          3D

 28 27  0  0  1  0  0  0  0  0999 V2000
    7.7115  -12.8005   20.2962 N   0  0  0  0  0  0  0  0  0  0  0  0
    7.9618  -13.3676   19.0374 C   0  0  0  0  0  0  0  0  0  0  0  0
    7.6787  -12.7830   17.9852 O   0  0  0  0  0  0  0  0  0  0  0  0
    8.5903  -14.7215   18.9780 C   0  0  0  0  0  0  0  0  0  0  0  0
    8.6919  -15.2635   20.3728 C   0  0  0  0  0  0  0  0  0  0  0  0
    9.2378  -16.6441   20.3806 C   0  0  2  0  0  0  0  0  0  0  0  0
    8.3281  -17.5534   19.6579 N   0  0  0  0  0  0  0  0  0  0  0  0
    9.3817  -17.1549   21.7879 C   0  0  0  0  0  0  0  0  0  0  0  0
    8.5066  -17.8798   22.3162 O   0  0  0  0  0  0  0  0  0  0  0  0
   10.5041  -16.8410   22.5692 N   0  0  0  0  0  0  0  0  0  0  0  0
   10.7772  -17.2716   23.8861 C   0  0  1  0  0  0  0  0  0  0  0  0
   11.8253  -18.3273   24.0516 C   0  0  0  0  0  0  0  0  0  0  0  0
   12.9281  -18.1965   23.0772 C   0  0  0  0  0  0  0  0  0  0  0  0
   14.1888  -18.9033   23.4366 C   0  0  0  0  0  0  0  0  0  0  0  0
   14.4311  -20.0157   22.9347 O   0  0  0  0  0  0  0  0  0  0  0  0
   10.8607  -16.1409   24.8178 C   0  0  0  0  0  0  0  0  0  0  0  0
   11.1915  -15.0060   24.3495 O   0  0  0  0  0  0  0  0  0  0  0  0
   15.1153  -18.3798   24.3105 O   0  0  0  0  0  0  0  0  0  0  0  0
   10.5826  -16.3024   26.1930 N   0  0  0  0  0  0  0  0  0  0  0  0
   10.0618  -15.1559   27.0219 C   0  0  1  0  0  0  0  0  0  0  0  0
    8.9180  -14.5761   26.3450 C   0  0  0  0  0  0  0  0  0  0  0  0
    8.1903  -13.4525   26.9449 C   0  0  0  0  0  0  0  0  0  0  0  0
    7.0057  -12.8920   26.2399 C   0  0  0  0  0  0  0  0  0  0  0  0
    6.5071  -11.7219   27.1174 C   0  0  0  0  0  0  0  0  0  0  0  0
    5.3603  -11.1679   26.4559 N   0  0  0  0  0  0  0  0  0  0  0  0
   10.0959  -15.5032   28.4203 C   0  0  0  0  0  0  0  0  0  0  0  0
    9.7645  -14.7629   29.4047 O   0  0  0  0  0  0  0  0  0  0  0  0
   10.5313  -16.7857   28.8658 O   0  0  0  0  0  0  0  0  0  0  0  0
  1  2  1  0
  2  4  1  0
  3  2  2  0
  4  5  1  0
  6  8  1  0
  6  7  1  6
  6  5  1  0
  8  9  2  0
 10 11  1  0
 10  8  1  0
 11 16  1  0
 11 12  1  6
 13 12  1  0
 14 13  1  0
 15 14  2  0
 16 17  2  0
 16 19  1  0
 18 14  1  0
 19 20  1  0
 20 26  1  0
 20 21  1  6
 22 21  1  0
 22 23  1  0
 24 23  1  0
 25 24  1  0
 26 27  2  0
 26 28  1  0
M  END
$$$$
