IIA.pdb
     RDKit          3D

 22 21  0  0  1  0  0  0  0  0999 V2000
   20.6532  -20.7173  -10.4210 C   0  0  0  0  0  0  0  0  0  0  0  0
   22.0090  -21.1700   -9.9180 C   0  0  0  0  0  0  0  0  0  0  0  0
   23.1563  -20.5793  -10.6596 C   0  0  2  0  0  0  0  0  0  0  0  0
   22.9157  -20.8161  -12.1431 C   0  0  0  0  0  0  0  0  0  0  0  0
   24.5188  -21.0821  -10.2462 C   0  0  2  0  0  0  0  0  0  0  0  0
   24.6814  -20.5805   -8.8568 N   0  0  0  0  0  0  0  0  0  0  0  0
   25.6410  -20.5315  -11.0043 C   0  0  0  0  0  0  0  0  0  0  0  0
   25.9979  -19.3233  -10.7841 O   0  0  0  0  0  0  0  0  0  0  0  0
   30.4855  -21.8954  -10.9249 C   0  0  0  0  0  0  0  0  0  0  0  0
   29.2543  -21.0256  -11.0934 C   0  0  0  0  0  0  0  0  0  0  0  0
   28.8016  -21.1440  -12.5236 C   0  0  2  0  0  0  0  0  0  0  0  0
   29.8043  -20.3848  -13.3761 C   0  0  0  0  0  0  0  0  0  0  0  0
   27.4475  -20.5686  -12.7686 C   0  0  2  0  0  0  0  0  0  0  0  0
   26.4023  -21.2070  -11.9857 N   0  0  0  0  0  0  0  0  0  0  0  0
   27.0931  -20.5083  -14.2082 C   0  0  0  0  0  0  0  0  0  0  0  0
   26.8542  -21.5971  -14.7903 O   0  0  0  0  0  0  0  0  0  0  0  0
   26.2912  -17.8795  -16.8049 C   0  0  0  0  0  0  0  0  0  0  0  0
   26.6082  -19.2914  -16.3591 C   0  0  2  0  0  0  0  0  0  0  0  0
   27.0080  -19.3272  -14.9543 N   0  0  0  0  0  0  0  0  0  0  0  0
   27.6268  -19.9203  -17.1992 C   0  0  0  0  0  0  0  0  0  0  0  0
   27.3417  -20.5344  -18.2527 O   0  0  0  0  0  0  0  0  0  0  0  0
   28.9957  -19.8785  -16.8813 O   0  0  0  0  0  0  0  0  0  0  0  0
  2  1  1  0
  3  2  1  0
  3  4  1  6
  5  3  1  0
  5  6  1  1
  7  5  1  0
  7 14  1  0
  8  7  2  0
 10  9  1  0
 10 11  1  0
 11 13  1  0
 11 12  1  6
 13 14  1  1
 15 13  1  0
 16 15  2  0
 18 17  1  6
 18 20  1  0
 18 19  1  0
 19 15  1  0
 20 22  1  0
 21 20  2  0
M  END
$$$$
