IIA.pdb
     RDKit          3D

 22 21  0  0  1  0  0  0  0  0999 V2000
   16.4484  -13.7060  -19.5118 C   0  0  0  0  0  0  0  0  0  0  0  0
   17.3090  -12.4739  -19.7051 C   0  0  0  0  0  0  0  0  0  0  0  0
   17.8655  -11.9214  -18.4401 C   0  0  2  0  0  0  0  0  0  0  0  0
   16.6938  -11.6005  -17.5241 C   0  0  0  0  0  0  0  0  0  0  0  0
   18.7686  -10.7223  -18.6024 C   0  0  2  0  0  0  0  0  0  0  0  0
   19.8953  -11.2293  -19.4284 N   0  0  0  0  0  0  0  0  0  0  0  0
   19.3705  -10.2254  -17.3664 C   0  0  0  0  0  0  0  0  0  0  0  0
   18.6046   -9.9231  -16.3878 O   0  0  0  0  0  0  0  0  0  0  0  0
   23.8501  -12.1744  -15.0309 C   0  0  0  0  0  0  0  0  0  0  0  0
   22.4576  -11.6440  -15.3144 C   0  0  0  0  0  0  0  0  0  0  0  0
   22.5565  -10.1492  -15.4565 C   0  0  2  0  0  0  0  0  0  0  0  0
   22.9469   -9.5941  -14.0972 C   0  0  0  0  0  0  0  0  0  0  0  0
   21.2779   -9.5056  -15.8759 C   0  0  2  0  0  0  0  0  0  0  0  0
   20.7502  -10.0358  -17.1222 N   0  0  0  0  0  0  0  0  0  0  0  0
   21.3534   -8.0240  -15.9002 C   0  0  0  0  0  0  0  0  0  0  0  0
   22.0830   -7.4971  -16.7786 O   0  0  0  0  0  0  0  0  0  0  0  0
   19.3923   -5.0926  -14.8200 C   0  0  0  0  0  0  0  0  0  0  0  0
   20.7447   -5.7234  -15.0759 C   0  0  2  0  0  0  0  0  0  0  0  0
   20.6702   -7.1813  -15.0158 N   0  0  0  0  0  0  0  0  0  0  0  0
   21.7696   -5.2233  -14.1602 C   0  0  0  0  0  0  0  0  0  0  0  0
   22.0481   -5.8016  -13.0850 O   0  0  0  0  0  0  0  0  0  0  0  0
   22.5119   -4.0589  -14.4246 O   0  0  0  0  0  0  0  0  0  0  0  0
  2  1  1  0
  3  2  1  0
  3  4  1  1
  5  3  1  0
  5  6  1  6
  7  5  1  0
  7 14  1  0
  8  7  2  0
 10  9  1  0
 10 11  1  0
 11 13  1  0
 11 12  1  1
 13 14  1  6
 15 13  1  0
 16 15  2  0
 18 17  1  1
 18 20  1  0
 18 19  1  0
 19 15  1  0
 20 22  1  0
 21 20  2  0
M  END
$$$$
