IIA.pdb
     RDKit          3D

 22 21  0  0  1  0  0  0  0  0999 V2000
   21.7079  -17.0029  -20.2674 C   0  0  0  0  0  0  0  0  0  0  0  0
   22.4591  -15.7248  -20.5808 C   0  0  0  0  0  0  0  0  0  0  0  0
   22.6615  -14.8388  -19.4021 C   0  0  2  0  0  0  0  0  0  0  0  0
   21.2929  -14.5507  -18.8032 C   0  0  0  0  0  0  0  0  0  0  0  0
   23.4104  -13.5574  -19.6798 C   0  0  2  0  0  0  0  0  0  0  0  0
   24.7477  -14.0142  -20.1396 N   0  0  0  0  0  0  0  0  0  0  0  0
   23.6555  -12.7147  -18.5106 C   0  0  0  0  0  0  0  0  0  0  0  0
   22.6595  -12.3501  -17.7959 O   0  0  0  0  0  0  0  0  0  0  0  0
   28.2419  -12.8868  -15.4755 C   0  0  0  0  0  0  0  0  0  0  0  0
   26.7558  -12.8458  -15.7761 C   0  0  0  0  0  0  0  0  0  0  0  0
   26.4301  -11.4699  -16.2913 C   0  0  2  0  0  0  0  0  0  0  0  0
   26.4793  -10.5229  -15.1042 C   0  0  0  0  0  0  0  0  0  0  0  0
   25.0777  -11.3721  -16.9130 C   0  0  2  0  0  0  0  0  0  0  0  0
   24.9115  -12.2422  -18.0655 N   0  0  0  0  0  0  0  0  0  0  0  0
   24.6780   -9.9764  -17.2192 C   0  0  0  0  0  0  0  0  0  0  0  0
   25.3021   -9.3850  -18.1369 O   0  0  0  0  0  0  0  0  0  0  0  0
   21.7940   -7.6825  -16.5671 C   0  0  0  0  0  0  0  0  0  0  0  0
   23.2465   -7.9264  -16.9179 C   0  0  2  0  0  0  0  0  0  0  0  0
   23.6593   -9.2809  -16.5579 N   0  0  0  0  0  0  0  0  0  0  0  0
   24.1357   -6.9390  -16.3068 C   0  0  0  0  0  0  0  0  0  0  0  0
   24.7923   -7.1799  -15.2681 O   0  0  0  0  0  0  0  0  0  0  0  0
   24.3137   -5.6519  -16.8439 O   0  0  0  0  0  0  0  0  0  0  0  0
  2  1  1  0
  3  2  1  0
  3  4  1  6
  5  3  1  0
  5  6  1  1
  7  5  1  0
  7 14  1  0
  8  7  2  0
 10  9  1  0
 10 11  1  0
 11 13  1  0
 11 12  1  1
 13 14  1  6
 15 13  1  0
 16 15  2  0
 18 17  1  1
 18 20  1  0
 18 19  1  0
 19 15  1  0
 20 22  1  0
 21 20  2  0
M  END
$$$$
