IIA.pdb
     RDKit          3D

 22 21  0  0  1  0  0  0  0  0999 V2000
   25.4453  -15.6906  -17.3671 C   0  0  0  0  0  0  0  0  0  0  0  0
   26.3737  -16.2699  -16.3190 C   0  0  0  0  0  0  0  0  0  0  0  0
   25.8966  -17.5516  -15.7317 C   0  0  2  0  0  0  0  0  0  0  0  0
   24.4516  -17.3497  -15.3004 C   0  0  0  0  0  0  0  0  0  0  0  0
   26.7302  -18.0890  -14.5931 C   0  0  2  0  0  0  0  0  0  0  0  0
   28.0253  -18.4426  -15.2307 N   0  0  0  0  0  0  0  0  0  0  0  0
   26.2328  -19.3226  -13.9866 C   0  0  0  0  0  0  0  0  0  0  0  0
   26.4000  -20.4259  -14.6115 O   0  0  0  0  0  0  0  0  0  0  0  0
   26.1900  -19.8500   -8.7710 C   0  0  0  0  0  0  0  0  0  0  0  0
   26.3962  -20.5425  -10.1047 C   0  0  0  0  0  0  0  0  0  0  0  0
   25.0426  -20.7465  -10.7295 C   0  0  2  0  0  0  0  0  0  0  0  0
   24.5550  -22.1214  -10.3050 C   0  0  0  0  0  0  0  0  0  0  0  0
   25.0615  -20.6956  -12.2201 C   0  0  2  0  0  0  0  0  0  0  0  0
   25.5661  -19.4375  -12.7451 N   0  0  0  0  0  0  0  0  0  0  0  0
   23.7594  -21.0602  -12.8309 C   0  0  0  0  0  0  0  0  0  0  0  0
   22.8639  -20.1776  -12.8520 O   0  0  0  0  0  0  0  0  0  0  0  0
   22.2294  -23.9673  -14.7116 C   0  0  0  0  0  0  0  0  0  0  0  0
   22.1711  -22.6489  -13.9693 C   0  0  2  0  0  0  0  0  0  0  0  0
   23.4657  -22.3132  -13.3811 N   0  0  0  0  0  0  0  0  0  0  0  0
   21.1241  -22.6358  -12.9482 C   0  0  0  0  0  0  0  0  0  0  0  0
   21.3699  -22.8141  -11.7333 O   0  0  0  0  0  0  0  0  0  0  0  0
   19.7700  -22.4224  -13.2610 O   0  0  0  0  0  0  0  0  0  0  0  0
  2  1  1  0
  3  2  1  0
  3  4  1  1
  5  3  1  0
  5  6  1  6
  7  5  1  0
  7 14  1  0
  8  7  2  0
 10  9  1  0
 10 11  1  0
 11 13  1  0
 11 12  1  6
 13 14  1  1
 15 13  1  0
 16 15  2  0
 18 17  1  1
 18 20  1  0
 18 19  1  0
 19 15  1  0
 20 22  1  0
 21 20  2  0
M  END
$$$$
