ASW.pdb
     RDKit          3D

 26 27  0  0  1  0  0  0  0  0999 V2000
   29.1800  -19.2426  -18.3633 C   0  0  0  0  0  0  0  0  0  0  0  0
   28.2172  -18.1368  -18.0258 C   0  0  2  0  0  0  0  0  0  0  0  0
   28.9065  -16.8821  -18.1427 N   0  0  0  0  0  0  0  0  0  0  0  0
   27.6922  -18.3677  -16.6558 C   0  0  0  0  0  0  0  0  0  0  0  0
   28.4942  -18.5198  -15.7014 O   0  0  0  0  0  0  0  0  0  0  0  0
   23.6330  -18.8766  -15.8088 O   0  0  0  0  0  0  0  0  0  0  0  0
   24.4179  -18.1988  -14.8986 C   0  0  0  0  0  0  0  0  0  0  0  0
   25.8824  -18.5787  -15.0163 C   0  0  2  0  0  0  0  0  0  0  0  0
   26.3055  -18.4261  -16.3653 N   0  0  0  0  0  0  0  0  0  0  0  0
   26.0010  -19.9678  -14.5084 C   0  0  0  0  0  0  0  0  0  0  0  0
   25.9909  -20.8790  -15.3795 O   0  0  0  0  0  0  0  0  0  0  0  0
   26.1196  -20.2758  -13.1265 N   0  0  0  0  0  0  0  0  0  0  0  0
   26.2681  -21.6809  -12.7742 C   0  0  1  0  0  0  0  0  0  0  0  0
   27.2426  -21.8648  -11.6366 C   0  0  0  0  0  0  0  0  0  0  0  0
   26.7030  -21.1596  -10.4490 C   0  0  0  0  0  0  0  0  0  0  0  0
   25.4023  -20.7044  -10.2431 C   0  0  0  0  0  0  0  0  0  0  0  0
   25.3275  -20.1117   -9.0395 N   0  0  0  0  0  0  0  0  0  0  0  0
   26.5355  -20.1561   -8.4340 C   0  0  0  0  0  0  0  0  0  0  0  0
   26.9703  -19.6895   -7.2011 C   0  0  0  0  0  0  0  0  0  0  0  0
   28.2919  -19.8961   -6.8720 C   0  0  0  0  0  0  0  0  0  0  0  0
   29.1504  -20.5471   -7.7457 C   0  0  0  0  0  0  0  0  0  0  0  0
   28.7084  -21.0117   -8.9786 C   0  0  0  0  0  0  0  0  0  0  0  0
   27.3909  -20.8015   -9.2975 C   0  0  0  0  0  0  0  0  0  0  0  0
   24.9435  -22.1552  -12.3085 C   0  0  0  0  0  0  0  0  0  0  0  0
   24.0183  -21.3613  -11.9782 O   0  0  0  0  0  0  0  0  0  0  0  0
   24.7185  -23.5258  -12.2353 O   0  0  0  0  0  0  0  0  0  0  0  0
  2  1  1  1
  3  2  1  0
  4  2  1  0
  4  9  1  0
  5  4  2  0
  6  7  1  0
  8  7  1  6
  8  9  1  0
 10 11  2  0
 10  8  1  0
 12 10  1  0
 13 12  1  0
 13 14  1  1
 15 14  1  0
 15 16  2  0
 17 16  1  0
 18 17  1  0
 19 18  2  0
 20 19  1  0
 21 20  2  0
 21 22  1  0
 22 23  2  0
 23 18  1  0
 23 15  1  0
 24 13  1  0
 25 24  2  0
 26 24  1  0
M  END
$$$$
