ASW.pdb
     RDKit          3D

 26 27  0  0  1  0  0  0  0  0999 V2000
   29.6649  -20.8909  -18.7187 C   0  0  0  0  0  0  0  0  0  0  0  0
   28.3662  -21.2480  -18.0482 C   0  0  2  0  0  0  0  0  0  0  0  0
   27.2968  -20.5977  -18.7526 N   0  0  0  0  0  0  0  0  0  0  0  0
   28.4391  -20.8337  -16.6239 C   0  0  0  0  0  0  0  0  0  0  0  0
   29.2789  -21.3744  -15.8626 O   0  0  0  0  0  0  0  0  0  0  0  0
   25.9637  -17.8856  -14.9511 O   0  0  0  0  0  0  0  0  0  0  0  0
   27.2364  -18.0938  -14.4604 C   0  0  0  0  0  0  0  0  0  0  0  0
   27.7084  -19.5178  -14.6894 C   0  0  2  0  0  0  0  0  0  0  0  0
   27.5929  -19.8401  -16.0695 N   0  0  0  0  0  0  0  0  0  0  0  0
   26.8883  -20.3823  -13.8052 C   0  0  0  0  0  0  0  0  0  0  0  0
   25.9654  -21.0320  -14.3667 O   0  0  0  0  0  0  0  0  0  0  0  0
   27.1122  -20.4867  -12.4060 N   0  0  0  0  0  0  0  0  0  0  0  0
   26.2991  -21.4507  -11.6781 C   0  0  1  0  0  0  0  0  0  0  0  0
   26.9975  -21.9304  -10.4291 C   0  0  0  0  0  0  0  0  0  0  0  0
   26.8906  -20.8649   -9.4033 C   0  0  0  0  0  0  0  0  0  0  0  0
   25.9420  -19.8475   -9.3232 C   0  0  0  0  0  0  0  0  0  0  0  0
   26.2012  -19.0861   -8.2469 N   0  0  0  0  0  0  0  0  0  0  0  0
   27.2920  -19.5614   -7.6048 C   0  0  0  0  0  0  0  0  0  0  0  0
   27.9519  -19.1337   -6.4609 C   0  0  0  0  0  0  0  0  0  0  0  0
   29.0576  -19.8498   -6.0582 C   0  0  0  0  0  0  0  0  0  0  0  0
   29.4895  -20.9562   -6.7746 C   0  0  0  0  0  0  0  0  0  0  0  0
   28.8241  -21.3790   -7.9191 C   0  0  0  0  0  0  0  0  0  0  0  0
   27.7242  -20.6598   -8.3122 C   0  0  0  0  0  0  0  0  0  0  0  0
   25.0638  -20.7484  -11.2571 C   0  0  0  0  0  0  0  0  0  0  0  0
   25.0136  -19.4944  -11.1148 O   0  0  0  0  0  0  0  0  0  0  0  0
   23.9224  -21.5044  -11.0119 O   0  0  0  0  0  0  0  0  0  0  0  0
  2  1  1  6
  3  2  1  0
  4  2  1  0
  4  9  1  0
  5  4  2  0
  6  7  1  0
  8  7  1  6
  8  9  1  0
 10 11  2  0
 10  8  1  0
 12 10  1  0
 13 12  1  0
 13 14  1  1
 15 14  1  0
 15 16  2  0
 17 16  1  0
 18 17  1  0
 19 18  2  0
 20 19  1  0
 21 20  2  0
 21 22  1  0
 22 23  2  0
 23 18  1  0
 23 15  1  0
 24 13  1  0
 25 24  2  0
 26 24  1  0
M  END
$$$$
