ASW.pdb
     RDKit          3D

 26 27  0  0  1  0  0  0  0  0999 V2000
   27.7627  -17.2338  -15.9390 C   0  0  0  0  0  0  0  0  0  0  0  0
   27.1680  -17.9827  -17.1006 C   0  0  2  0  0  0  0  0  0  0  0  0
   26.0969  -17.1977  -17.6475 N   0  0  0  0  0  0  0  0  0  0  0  0
   26.7078  -19.3111  -16.6218 C   0  0  0  0  0  0  0  0  0  0  0  0
   25.5504  -19.4339  -16.1503 O   0  0  0  0  0  0  0  0  0  0  0  0
   29.2992  -22.3664  -16.5243 O   0  0  0  0  0  0  0  0  0  0  0  0
   27.9955  -22.8169  -16.4880 C   0  0  0  0  0  0  0  0  0  0  0  0
   27.0166  -21.7009  -16.1731 C   0  0  2  0  0  0  0  0  0  0  0  0
   27.5242  -20.4695  -16.6711 N   0  0  0  0  0  0  0  0  0  0  0  0
   26.8206  -21.7131  -14.7023 C   0  0  0  0  0  0  0  0  0  0  0  0
   27.8266  -22.0295  -14.0119 O   0  0  0  0  0  0  0  0  0  0  0  0
   25.5810  -21.3908  -14.0872 N   0  0  0  0  0  0  0  0  0  0  0  0
   25.5543  -21.3641  -12.6315 C   0  0  1  0  0  0  0  0  0  0  0  0
   26.5069  -20.3310  -12.0808 C   0  0  0  0  0  0  0  0  0  0  0  0
   26.3480  -20.2971  -10.6069 C   0  0  0  0  0  0  0  0  0  0  0  0
   25.2104  -19.9580   -9.8773 C   0  0  0  0  0  0  0  0  0  0  0  0
   25.4849  -20.0468   -8.5650 N   0  0  0  0  0  0  0  0  0  0  0  0
   26.7688  -20.4344   -8.3934 C   0  0  0  0  0  0  0  0  0  0  0  0
   27.5204  -20.6661   -7.2496 C   0  0  0  0  0  0  0  0  0  0  0  0
   28.8300  -21.0594   -7.4170 C   0  0  0  0  0  0  0  0  0  0  0  0
   29.3703  -21.2160   -8.6849 C   0  0  0  0  0  0  0  0  0  0  0  0
   28.6121  -20.9824   -9.8259 C   0  0  0  0  0  0  0  0  0  0  0  0
   27.3093  -20.5912   -9.6493 C   0  0  0  0  0  0  0  0  0  0  0  0
   24.1842  -20.9678  -12.2286 C   0  0  0  0  0  0  0  0  0  0  0  0
   23.7745  -21.0648  -11.0378 O   0  0  0  0  0  0  0  0  0  0  0  0
   23.3243  -20.4718  -13.2027 O   0  0  0  0  0  0  0  0  0  0  0  0
  2  1  1  1
  3  2  1  0
  4  2  1  0
  4  9  1  0
  5  4  2  0
  6  7  1  0
  8  7  1  1
  8  9  1  0
 10 11  2  0
 10  8  1  0
 12 10  1  0
 13 12  1  0
 13 14  1  6
 15 14  1  0
 15 16  2  0
 17 16  1  0
 18 17  1  0
 19 18  2  0
 20 19  1  0
 21 20  2  0
 21 22  1  0
 22 23  2  0
 23 18  1  0
 23 15  1  0
 24 13  1  0
 25 24  2  0
 26 24  1  0
M  END
$$$$
