ASW.pdb
     RDKit          3D

 26 27  0  0  1  0  0  0  0  0999 V2000
   26.0839  -18.1936  -19.1304 C   0  0  0  0  0  0  0  0  0  0  0  0
   27.2186  -18.3832  -18.1607 C   0  0  2  0  0  0  0  0  0  0  0  0
   28.3981  -18.7302  -18.9030 N   0  0  0  0  0  0  0  0  0  0  0  0
   26.8359  -19.4342  -17.1837 C   0  0  0  0  0  0  0  0  0  0  0  0
   25.6220  -19.6984  -17.0000 O   0  0  0  0  0  0  0  0  0  0  0  0
   29.5823  -22.0141  -15.4139 O   0  0  0  0  0  0  0  0  0  0  0  0
   28.2559  -22.3603  -15.5712 C   0  0  0  0  0  0  0  0  0  0  0  0
   27.3411  -21.1511  -15.5089 C   0  0  2  0  0  0  0  0  0  0  0  0
   27.7895  -20.1685  -16.4338 N   0  0  0  0  0  0  0  0  0  0  0  0
   27.3473  -20.6886  -14.0990 C   0  0  0  0  0  0  0  0  0  0  0  0
   28.1829  -19.7887  -13.8147 O   0  0  0  0  0  0  0  0  0  0  0  0
   26.4722  -21.2152  -13.1112 N   0  0  0  0  0  0  0  0  0  0  0  0
   26.6188  -20.6992  -11.7575 C   0  0  1  0  0  0  0  0  0  0  0  0
   25.8650  -19.4045  -11.5755 C   0  0  0  0  0  0  0  0  0  0  0  0
   24.5101  -19.5749  -12.1533 C   0  0  0  0  0  0  0  0  0  0  0  0
   23.4067  -20.1994  -11.5753 C   0  0  0  0  0  0  0  0  0  0  0  0
   22.3715  -20.1464  -12.4303 N   0  0  0  0  0  0  0  0  0  0  0  0
   22.7467  -19.5068  -13.5608 C   0  0  0  0  0  0  0  0  0  0  0  0
   22.0541  -19.2010  -14.7242 C   0  0  0  0  0  0  0  0  0  0  0  0
   22.7363  -18.5265  -15.7128 C   0  0  0  0  0  0  0  0  0  0  0  0
   24.0660  -18.1695  -15.5445 C   0  0  0  0  0  0  0  0  0  0  0  0
   24.7535  -18.4789  -14.3770 C   0  0  0  0  0  0  0  0  0  0  0  0
   24.0660  -19.1505  -13.3983 C   0  0  0  0  0  0  0  0  0  0  0  0
   26.0170  -21.6985  -10.8433 C   0  0  0  0  0  0  0  0  0  0  0  0
   25.9838  -21.5365   -9.5911 O   0  0  0  0  0  0  0  0  0  0  0  0
   25.4708  -22.8541  -11.3917 O   0  0  0  0  0  0  0  0  0  0  0  0
  2  1  1  6
  3  2  1  0
  4  2  1  0
  4  9  1  0
  5  4  2  0
  6  7  1  0
  8  7  1  1
  8  9  1  0
 10 11  2  0
 10  8  1  0
 12 10  1  0
 13 12  1  0
 13 14  1  6
 15 14  1  0
 15 16  2  0
 17 16  1  0
 18 17  1  0
 19 18  2  0
 20 19  1  0
 21 20  2  0
 21 22  1  0
 22 23  2  0
 23 18  1  0
 23 15  1  0
 24 13  1  0
 25 24  2  0
 26 24  1  0
M  END
$$$$
