PSI.pdb
     RDKit          3D

 22 22  0  0  1  0  0  0  0  0999 V2000
   24.1975  -11.2158  -15.4752 N   0  0  0  0  0  0  0  0  0  0  0  0
   24.8709  -12.4102  -15.9624 C   0  0  0  0  0  0  0  0  0  0  0  0
   23.9221  -13.0658  -16.9178 C   0  0  0  0  0  0  0  0  0  0  0  0
   22.8264  -12.0269  -17.1352 C   0  0  0  0  0  0  0  0  0  0  0  0
   23.5177  -10.7618  -16.6712 C   0  0  1  0  0  0  0  0  0  0  0  0
   22.5088   -9.7183  -16.3762 C   0  0  0  0  0  0  0  0  0  0  0  0
   21.9806   -9.1345  -17.3495 O   0  0  0  0  0  0  0  0  0  0  0  0
   19.8074   -9.7566  -13.4604 O   0  0  0  0  0  0  0  0  0  0  0  0
   20.5014   -8.5733  -13.4353 C   0  0  0  0  0  0  0  0  0  0  0  0
   21.1385   -8.3207  -14.7836 C   0  0  2  0  0  0  0  0  0  0  0  0
   22.1315   -9.3684  -15.0496 N   0  0  0  0  0  0  0  0  0  0  0  0
   21.7542   -6.9974  -14.9194 C   0  0  0  0  0  0  0  0  0  0  0  0
   22.9346   -6.8333  -14.5124 O   0  0  0  0  0  0  0  0  0  0  0  0
   21.4947   -3.9820  -19.3427 C   0  0  0  0  0  0  0  0  0  0  0  0
   21.9534   -4.7049  -18.0942 C   0  0  0  0  0  0  0  0  0  0  0  0
   21.5498   -3.8948  -16.9068 C   0  0  2  0  0  0  0  0  0  0  0  0
   22.2939   -2.5867  -16.9125 C   0  0  0  0  0  0  0  0  0  0  0  0
   21.8046   -4.5818  -15.5928 C   0  0  2  0  0  0  0  0  0  0  0  0
   21.1336   -5.8512  -15.4805 N   0  0  0  0  0  0  0  0  0  0  0  0
   21.3275   -3.6958  -14.5097 C   0  0  0  0  0  0  0  0  0  0  0  0
   22.0379   -2.7882  -14.0035 O   0  0  0  0  0  0  0  0  0  0  0  0
   20.0441   -3.8643  -14.0243 O   0  0  0  0  0  0  0  0  0  0  0  0
  2  1  1  0
  3  2  1  0
  4  3  1  0
  4  5  1  0
  5  1  1  0
  5  6  1  1
  6 11  1  0
  7  6  2  0
  8  9  1  0
 10  9  1  1
 10 11  1  0
 10 12  1  0
 12 13  2  0
 12 19  1  0
 15 14  1  0
 16 17  1  1
 16 15  1  0
 18 16  1  0
 18 19  1  6
 20 18  1  0
 20 22  1  0
 21 20  2  0
M  END
$$$$
