PSI.pdb
     RDKit          3D

 22 22  0  0  1  0  0  0  0  0999 V2000
   16.4098  -11.5367  -17.2390 N   0  0  0  0  0  0  0  0  0  0  0  0
   15.7907  -12.8119  -17.5677 C   0  0  0  0  0  0  0  0  0  0  0  0
   16.8759  -13.6685  -18.1434 C   0  0  0  0  0  0  0  0  0  0  0  0
   18.1601  -12.8986  -17.8516 C   0  0  0  0  0  0  0  0  0  0  0  0
   17.7047  -11.9642  -16.7501 C   0  0  1  0  0  0  0  0  0  0  0  0
   18.6542  -10.8341  -16.6265 C   0  0  0  0  0  0  0  0  0  0  0  0
   19.7988  -11.0873  -16.1873 O   0  0  0  0  0  0  0  0  0  0  0  0
   17.6304   -6.7084  -16.9666 O   0  0  0  0  0  0  0  0  0  0  0  0
   18.7418   -7.1938  -17.6082 C   0  0  0  0  0  0  0  0  0  0  0  0
   19.2767   -8.4010  -16.8705 C   0  0  2  0  0  0  0  0  0  0  0  0
   18.3109   -9.5003  -16.9841 N   0  0  0  0  0  0  0  0  0  0  0  0
   19.5934   -8.1528  -15.4610 C   0  0  0  0  0  0  0  0  0  0  0  0
   18.6930   -8.3260  -14.5977 O   0  0  0  0  0  0  0  0  0  0  0  0
   22.6542   -9.7103  -10.8694 C   0  0  0  0  0  0  0  0  0  0  0  0
   22.1488   -8.4145  -11.4671 C   0  0  0  0  0  0  0  0  0  0  0  0
   21.8176   -8.6565  -12.9026 C   0  0  2  0  0  0  0  0  0  0  0  0
   23.0821   -8.9233  -13.6737 C   0  0  0  0  0  0  0  0  0  0  0  0
   21.0939   -7.5109  -13.5564 C   0  0  2  0  0  0  0  0  0  0  0  0
   20.8501   -7.7250  -14.9596 N   0  0  0  0  0  0  0  0  0  0  0  0
   21.9194   -6.2946  -13.3988 C   0  0  0  0  0  0  0  0  0  0  0  0
   22.1288   -5.7479  -12.2843 O   0  0  0  0  0  0  0  0  0  0  0  0
   22.4915   -5.7245  -14.5207 O   0  0  0  0  0  0  0  0  0  0  0  0
  2  1  1  0
  3  2  1  0
  4  3  1  0
  4  5  1  0
  5  1  1  0
  5  6  1  6
  6 11  1  0
  7  6  2  0
  8  9  1  0
 10  9  1  1
 10 11  1  0
 10 12  1  0
 12 13  2  0
 12 19  1  0
 15 14  1  0
 16 17  1  6
 16 15  1  0
 18 16  1  0
 18 19  1  6
 20 18  1  0
 20 22  1  0
 21 20  2  0
M  END
$$$$
