PSI.pdb
     RDKit          3D

 22 22  0  0  1  0  0  0  0  0999 V2000
   29.8976  -23.0068  -16.7465 N   0  0  0  0  0  0  0  0  0  0  0  0
   29.7676  -24.1005  -17.6975 C   0  0  0  0  0  0  0  0  0  0  0  0
   28.4278  -24.7197  -17.4433 C   0  0  0  0  0  0  0  0  0  0  0  0
   27.7295  -23.7385  -16.5068 C   0  0  0  0  0  0  0  0  0  0  0  0
   28.5472  -22.4827  -16.7259 C   0  0  1  0  0  0  0  0  0  0  0  0
   28.3321  -21.5418  -15.6024 C   0  0  0  0  0  0  0  0  0  0  0  0
   29.0043  -21.7218  -14.5619 O   0  0  0  0  0  0  0  0  0  0  0  0
   25.4263  -18.4893  -15.7001 O   0  0  0  0  0  0  0  0  0  0  0  0
   26.5769  -18.2888  -14.9802 C   0  0  0  0  0  0  0  0  0  0  0  0
   27.1259  -19.6159  -14.5056 C   0  0  2  0  0  0  0  0  0  0  0  0
   27.4051  -20.4643  -15.6702 N   0  0  0  0  0  0  0  0  0  0  0  0
   26.2549  -20.3247  -13.5635 C   0  0  0  0  0  0  0  0  0  0  0  0
   25.5292  -21.2594  -13.9945 O   0  0  0  0  0  0  0  0  0  0  0  0
   26.9073  -19.9701   -8.0216 C   0  0  0  0  0  0  0  0  0  0  0  0
   26.7251  -20.7119   -9.3286 C   0  0  0  0  0  0  0  0  0  0  0  0
   25.3710  -20.3888   -9.8678 C   0  0  2  0  0  0  0  0  0  0  0  0
   24.3246  -21.1300   -9.0801 C   0  0  0  0  0  0  0  0  0  0  0  0
   25.2033  -20.7319  -11.3231 C   0  0  2  0  0  0  0  0  0  0  0  0
   26.1463  -20.0539  -12.1748 N   0  0  0  0  0  0  0  0  0  0  0  0
   23.8350  -20.3495  -11.7318 C   0  0  0  0  0  0  0  0  0  0  0  0
   23.5212  -19.1764  -12.0634 O   0  0  0  0  0  0  0  0  0  0  0  0
   22.8484  -21.3176  -11.7540 O   0  0  0  0  0  0  0  0  0  0  0  0
  2  1  1  0
  3  2  1  0
  4  3  1  0
  4  5  1  0
  5  1  1  0
  5  6  1  1
  6 11  1  0
  7  6  2  0
  8  9  1  0
 10  9  1  6
 10 11  1  0
 10 12  1  0
 12 13  2  0
 12 19  1  0
 15 14  1  0
 16 17  1  1
 16 15  1  0
 18 16  1  0
 18 19  1  6
 20 18  1  0
 20 22  1  0
 21 20  2  0
M  END
$$$$
