PSI.pdb
     RDKit          3D

 22 22  0  0  1  0  0  0  0  0999 V2000
   20.2172  -11.3387  -18.8849 N   0  0  0  0  0  0  0  0  0  0  0  0
   19.5176  -12.2221  -19.8056 C   0  0  0  0  0  0  0  0  0  0  0  0
   18.3036  -12.7101  -19.0769 C   0  0  0  0  0  0  0  0  0  0  0  0
   18.2335  -11.8341  -17.8300 C   0  0  0  0  0  0  0  0  0  0  0  0
   19.1104  -10.6675  -18.2346 C   0  0  1  0  0  0  0  0  0  0  0  0
   19.5415   -9.9223  -17.0293 C   0  0  0  0  0  0  0  0  0  0  0  0
   18.6724   -9.2598  -16.4187 O   0  0  0  0  0  0  0  0  0  0  0  0
   22.8975   -9.2074  -13.6208 O   0  0  0  0  0  0  0  0  0  0  0  0
   22.4480   -9.9259  -14.6997 C   0  0  0  0  0  0  0  0  0  0  0  0
   21.2794   -9.2129  -15.3430 C   0  0  2  0  0  0  0  0  0  0  0  0
   20.8835   -9.9376  -16.5564 N   0  0  0  0  0  0  0  0  0  0  0  0
   21.5341   -7.8043  -15.6585 C   0  0  0  0  0  0  0  0  0  0  0  0
   22.1256   -7.5212  -16.7337 O   0  0  0  0  0  0  0  0  0  0  0  0
   19.7767   -4.3695  -17.6851 C   0  0  0  0  0  0  0  0  0  0  0  0
   19.2167   -4.8814  -16.3751 C   0  0  0  0  0  0  0  0  0  0  0  0
   20.1578   -4.5006  -15.2806 C   0  0  2  0  0  0  0  0  0  0  0  0
   20.5510   -3.0560  -15.4336 C   0  0  0  0  0  0  0  0  0  0  0  0
   21.4102   -5.3336  -15.2444 C   0  0  2  0  0  0  0  0  0  0  0  0
   21.1693   -6.6974  -14.8490 N   0  0  0  0  0  0  0  0  0  0  0  0
   22.3451   -4.7181  -14.2787 C   0  0  0  0  0  0  0  0  0  0  0  0
   22.2949   -4.9382  -13.0403 O   0  0  0  0  0  0  0  0  0  0  0  0
   23.3225   -3.8603  -14.7478 O   0  0  0  0  0  0  0  0  0  0  0  0
  2  1  1  0
  3  2  1  0
  4  3  1  0
  4  5  1  0
  5  1  1  0
  5  6  1  1
  6 11  1  0
  7  6  2  0
  8  9  1  0
 10  9  1  6
 10 11  1  0
 10 12  1  0
 12 13  2  0
 12 19  1  0
 15 14  1  0
 16 17  1  6
 16 15  1  0
 18 16  1  0
 18 19  1  1
 20 18  1  0
 20 22  1  0
 21 20  2  0
M  END
$$$$
