PSI.pdb
     RDKit          3D

 22 22  0  0  1  0  0  0  0  0999 V2000
   27.6292  -21.0577  -16.5518 N   0  0  0  0  0  0  0  0  0  0  0  0
   28.2398  -21.1501  -17.8694 C   0  0  0  0  0  0  0  0  0  0  0  0
   28.4743  -19.7419  -18.3222 C   0  0  0  0  0  0  0  0  0  0  0  0
   28.2216  -18.8975  -17.0770 C   0  0  0  0  0  0  0  0  0  0  0  0
   28.3464  -19.9357  -15.9814 C   0  0  1  0  0  0  0  0  0  0  0  0
   27.7058  -19.4369  -14.7426 C   0  0  0  0  0  0  0  0  0  0  0  0
   28.2269  -18.4465  -14.1817 O   0  0  0  0  0  0  0  0  0  0  0  0
   23.7041  -20.1698  -13.8205 O   0  0  0  0  0  0  0  0  0  0  0  0
   24.4261  -19.0378  -13.5380 C   0  0  0  0  0  0  0  0  0  0  0  0
   25.8148  -19.4151  -13.0720 C   0  0  2  0  0  0  0  0  0  0  0  0
   26.5424  -20.0370  -14.1847 N   0  0  0  0  0  0  0  0  0  0  0  0
   25.8374  -20.2960  -11.9007 C   0  0  0  0  0  0  0  0  0  0  0  0
   25.9154  -21.5402  -12.0793 O   0  0  0  0  0  0  0  0  0  0  0  0
   27.7921  -18.7830   -7.0280 C   0  0  0  0  0  0  0  0  0  0  0  0
   27.5913  -19.8212   -8.1114 C   0  0  0  0  0  0  0  0  0  0  0  0
   26.1469  -20.1973   -8.1403 C   0  0  2  0  0  0  0  0  0  0  0  0
   25.8609  -21.1845   -7.0409 C   0  0  0  0  0  0  0  0  0  0  0  0
   25.7059  -20.7989   -9.4470 C   0  0  2  0  0  0  0  0  0  0  0  0
   25.7789  -19.8728  -10.5475 N   0  0  0  0  0  0  0  0  0  0  0  0
   24.3055  -21.2486   -9.2977 C   0  0  0  0  0  0  0  0  0  0  0  0
   23.3219  -20.5716   -9.6966 O   0  0  0  0  0  0  0  0  0  0  0  0
   24.0548  -22.4666   -8.6939 O   0  0  0  0  0  0  0  0  0  0  0  0
  2  1  1  0
  3  2  1  0
  4  3  1  0
  4  5  1  0
  5  1  1  0
  5  6  1  1
  6 11  1  0
  7  6  2  0
  8  9  1  0
 10  9  1  6
 10 11  1  0
 10 12  1  0
 12 13  2  0
 12 19  1  0
 15 14  1  0
 16 17  1  1
 16 15  1  0
 18 16  1  0
 18 19  1  6
 20 18  1  0
 20 22  1  0
 21 20  2  0
M  END
$$$$
