PSI.pdb
     RDKit          3D

 22 22  0  0  1  0  0  0  0  0999 V2000
   18.9434  -13.5464  -17.2158 N   0  0  0  0  0  0  0  0  0  0  0  0
   18.5432  -14.9344  -17.3918 C   0  0  0  0  0  0  0  0  0  0  0  0
   18.1964  -15.4466  -16.0278 C   0  0  0  0  0  0  0  0  0  0  0  0
   18.1589  -14.1973  -15.1531 C   0  0  0  0  0  0  0  0  0  0  0  0
   18.0142  -13.1074  -16.1947 C   0  0  1  0  0  0  0  0  0  0  0  0
   18.4027  -11.8021  -15.6122 C   0  0  0  0  0  0  0  0  0  0  0  0
   17.6446  -11.3073  -14.7477 O   0  0  0  0  0  0  0  0  0  0  0  0
   21.6192   -9.4543  -17.0148 O   0  0  0  0  0  0  0  0  0  0  0  0
   21.4411   -9.5822  -15.6604 C   0  0  0  0  0  0  0  0  0  0  0  0
   19.9846   -9.8531  -15.3553 C   0  0  2  0  0  0  0  0  0  0  0  0
   19.5851  -11.1108  -15.9979 N   0  0  0  0  0  0  0  0  0  0  0  0
   19.0760   -8.7738  -15.7529 C   0  0  0  0  0  0  0  0  0  0  0  0
   18.5542   -8.8118  -16.8984 O   0  0  0  0  0  0  0  0  0  0  0  0
   14.3648   -7.4577  -14.3147 C   0  0  0  0  0  0  0  0  0  0  0  0
   15.6194   -7.5877  -15.1519 C   0  0  0  0  0  0  0  0  0  0  0  0
   16.5606   -6.4967  -14.7610 C   0  0  2  0  0  0  0  0  0  0  0  0
   15.9454   -5.1612  -15.0817 C   0  0  0  0  0  0  0  0  0  0  0  0
   17.8988   -6.5808  -15.4437 C   0  0  2  0  0  0  0  0  0  0  0  0
   18.7164   -7.6594  -14.9514 N   0  0  0  0  0  0  0  0  0  0  0  0
   18.6114   -5.3051  -15.2190 C   0  0  0  0  0  0  0  0  0  0  0  0
   19.5560   -5.1832  -14.3959 O   0  0  0  0  0  0  0  0  0  0  0  0
   18.2300   -4.1897  -15.9413 O   0  0  0  0  0  0  0  0  0  0  0  0
  2  1  1  0
  3  2  1  0
  4  3  1  0
  4  5  1  0
  5  1  1  0
  5  6  1  1
  6 11  1  0
  7  6  2  0
  8  9  1  0
 10  9  1  6
 10 11  1  0
 10 12  1  0
 12 13  2  0
 12 19  1  0
 15 14  1  0
 16 17  1  6
 16 15  1  0
 18 16  1  0
 18 19  1  1
 20 18  1  0
 20 22  1  0
 21 20  2  0
M  END
$$$$
