WGY.pdb
     RDKit          3D

 31 33  0  0  1  0  0  0  0  0999 V2000
    6.9501  -16.8503   24.1290 N   0  0  0  0  0  0  0  0  0  0  0  0
    8.0772  -16.2710   23.4733 C   0  0  1  0  0  0  0  0  0  0  0  0
    8.5906  -15.0959   24.2189 C   0  0  0  0  0  0  0  0  0  0  0  0
    7.5389  -14.5516   25.0956 C   0  0  0  0  0  0  0  0  0  0  0  0
    6.5480  -15.2770   25.7430 C   0  0  0  0  0  0  0  0  0  0  0  0
    5.7892  -14.4533   26.4763 N   0  0  0  0  0  0  0  0  0  0  0  0
    6.2426  -13.2043   26.3372 C   0  0  0  0  0  0  0  0  0  0  0  0
    5.8123  -11.9982   26.8712 C   0  0  0  0  0  0  0  0  0  0  0  0
    6.4234  -10.8169   26.5872 C   0  0  0  0  0  0  0  0  0  0  0  0
    7.5135  -10.8539   25.7288 C   0  0  0  0  0  0  0  0  0  0  0  0
    7.9509  -12.0460   25.1919 C   0  0  0  0  0  0  0  0  0  0  0  0
    7.3439  -13.2428   25.4716 C   0  0  0  0  0  0  0  0  0  0  0  0
    9.1320  -17.2704   23.1525 C   0  0  0  0  0  0  0  0  0  0  0  0
    8.9627  -18.4431   23.5679 O   0  0  0  0  0  0  0  0  0  0  0  0
   10.2977  -16.9502   22.4089 N   0  0  0  0  0  0  0  0  0  0  0  0
   11.3445  -17.9097   22.1291 C   0  0  0  0  0  0  0  0  0  0  0  0
   12.2097  -18.1495   23.3037 C   0  0  0  0  0  0  0  0  0  0  0  0
   13.2044  -18.9193   23.2652 O   0  0  0  0  0  0  0  0  0  0  0  0
   17.6103  -15.5022   22.2638 O   0  0  0  0  0  0  0  0  0  0  0  0
   16.6091  -15.7533   23.1979 C   0  0  0  0  0  0  0  0  0  0  0  0
   16.8282  -16.6723   24.2102 C   0  0  0  0  0  0  0  0  0  0  0  0
   15.8415  -16.9424   25.1589 C   0  0  0  0  0  0  0  0  0  0  0  0
   14.6318  -16.2945   25.0992 C   0  0  0  0  0  0  0  0  0  0  0  0
   13.5733  -16.5438   26.0647 C   0  0  0  0  0  0  0  0  0  0  0  0
   12.6852  -17.6975   25.7352 C   0  0  2  0  0  0  0  0  0  0  0  0
   11.9202  -17.4958   24.5232 N   0  0  0  0  0  0  0  0  0  0  0  0
   11.7787  -17.9938   26.8588 C   0  0  0  0  0  0  0  0  0  0  0  0
   12.2977  -18.2914   28.1205 O   0  0  0  0  0  0  0  0  0  0  0  0
   14.4370  -15.3847   24.0834 C   0  0  0  0  0  0  0  0  0  0  0  0
   15.4087  -15.1148   23.1442 C   0  0  0  0  0  0  0  0  0  0  0  0
   10.5369  -17.9789   26.6821 O   0  0  0  0  0  0  0  0  0  0  0  0
  2  1  1  1
  2  3  1  0
  4  5  2  0
  4  3  1  0
  6  5  1  0
  7 12  2  0
  7  6  1  0
  8  7  1  0
  9 10  1  0
  9  8  2  0
 10 11  2  0
 11 12  1  0
 12  4  1  0
 13  2  1  0
 13 15  1  0
 14 13  2  0
 16 15  1  0
 17 16  1  0
 18 17  2  0
 19 20  1  0
 20 30  2  0
 20 21  1  0
 21 22  2  0
 22 23  1  0
 23 24  1  0
 25 24  1  1
 25 26  1  0
 25 27  1  0
 26 17  1  0
 27 28  1  0
 29 23  2  0
 30 29  1  0
 31 27  2  0
M  END
$$$$
