WGY.pdb
     RDKit          3D

 31 33  0  0  1  0  0  0  0  0999 V2000
    8.7314  -16.9228   24.0519 N   0  0  0  0  0  0  0  0  0  0  0  0
    8.5235  -16.3031   22.7835 C   0  0  1  0  0  0  0  0  0  0  0  0
    7.9410  -14.9472   22.9340 C   0  0  0  0  0  0  0  0  0  0  0  0
    7.3350  -14.8000   24.2690 C   0  0  0  0  0  0  0  0  0  0  0  0
    6.8418  -15.8226   25.0679 C   0  0  0  0  0  0  0  0  0  0  0  0
    6.3948  -15.3185   26.2247 N   0  0  0  0  0  0  0  0  0  0  0  0
    6.5740  -13.9946   26.2207 C   0  0  0  0  0  0  0  0  0  0  0  0
    6.2793  -13.0175   27.1607 C   0  0  0  0  0  0  0  0  0  0  0  0
    6.5416  -11.7001   26.9482 C   0  0  0  0  0  0  0  0  0  0  0  0
    7.1251  -11.3541   25.7373 C   0  0  0  0  0  0  0  0  0  0  0  0
    7.4230  -12.3156   24.7952 C   0  0  0  0  0  0  0  0  0  0  0  0
    7.1643  -13.6463   24.9985 C   0  0  0  0  0  0  0  0  0  0  0  0
    9.7385  -16.3291   21.9250 C   0  0  0  0  0  0  0  0  0  0  0  0
    9.7602  -15.5626   20.9306 O   0  0  0  0  0  0  0  0  0  0  0  0
   10.8498  -17.1725   22.1858 N   0  0  0  0  0  0  0  0  0  0  0  0
   11.1500  -17.6998   23.4998 C   0  0  0  0  0  0  0  0  0  0  0  0
   11.9256  -16.7451   24.3200 C   0  0  0  0  0  0  0  0  0  0  0  0
   12.1967  -15.5806   23.9275 O   0  0  0  0  0  0  0  0  0  0  0  0
    7.0166  -18.9702   28.3796 O   0  0  0  0  0  0  0  0  0  0  0  0
    8.0737  -18.1230   28.0591 C   0  0  0  0  0  0  0  0  0  0  0  0
    7.8457  -17.0068   27.2718 C   0  0  0  0  0  0  0  0  0  0  0  0
    8.8875  -16.1418   26.9360 C   0  0  0  0  0  0  0  0  0  0  0  0
   10.1615  -16.3893   27.3861 C   0  0  0  0  0  0  0  0  0  0  0  0
   11.2788  -15.5170   27.0612 C   0  0  0  0  0  0  0  0  0  0  0  0
   12.5432  -16.2263   26.7058 C   0  0  2  0  0  0  0  0  0  0  0  0
   12.3867  -17.1421   25.5960 N   0  0  0  0  0  0  0  0  0  0  0  0
   13.0852  -16.9412   27.8753 C   0  0  0  0  0  0  0  0  0  0  0  0
   13.3573  -18.3085   27.7987 O   0  0  0  0  0  0  0  0  0  0  0  0
   10.3639  -17.5054   28.1676 C   0  0  0  0  0  0  0  0  0  0  0  0
    9.3378  -18.3626   28.5018 C   0  0  0  0  0  0  0  0  0  0  0  0
   13.3028  -16.3200   28.9431 O   0  0  0  0  0  0  0  0  0  0  0  0
  2  1  1  1
  2  3  1  0
  4  5  2  0
  4  3  1  0
  6  5  1  0
  7 12  2  0
  7  6  1  0
  8  7  1  0
  9 10  1  0
  9  8  2  0
 10 11  2  0
 11 12  1  0
 12  4  1  0
 13  2  1  0
 13 15  1  0
 14 13  2  0
 16 15  1  0
 17 16  1  0
 18 17  2  0
 19 20  1  0
 20 30  2  0
 20 21  1  0
 21 22  2  0
 22 23  1  0
 23 24  1  0
 25 24  1  1
 25 26  1  0
 25 27  1  0
 26 17  1  0
 27 28  1  0
 29 23  2  0
 30 29  1  0
 31 27  2  0
M  END
$$$$
