WGY.pdb
     RDKit          3D

 31 33  0  0  1  0  0  0  0  0999 V2000
    8.0992  -17.3708   24.1390 N   0  0  0  0  0  0  0  0  0  0  0  0
    8.4482  -16.7142   22.9211 C   0  0  1  0  0  0  0  0  0  0  0  0
    8.2616  -15.2464   23.0263 C   0  0  0  0  0  0  0  0  0  0  0  0
    7.5572  -14.9123   24.2765 C   0  0  0  0  0  0  0  0  0  0  0  0
    6.8131  -15.7824   25.0616 C   0  0  0  0  0  0  0  0  0  0  0  0
    6.3452  -15.1358   26.1363 N   0  0  0  0  0  0  0  0  0  0  0  0
    6.7533  -13.8644   26.0912 C   0  0  0  0  0  0  0  0  0  0  0  0
    6.5398  -12.7925   26.9459 C   0  0  0  0  0  0  0  0  0  0  0  0
    7.0494  -11.5552   26.7034 C   0  0  0  0  0  0  0  0  0  0  0  0
    7.8055  -11.3924   25.5508 C   0  0  0  0  0  0  0  0  0  0  0  0
    8.0251  -12.4497   24.6937 C   0  0  0  0  0  0  0  0  0  0  0  0
    7.5176  -13.7014   24.9281 C   0  0  0  0  0  0  0  0  0  0  0  0
    9.7966  -17.1015   22.4252 C   0  0  0  0  0  0  0  0  0  0  0  0
   10.2830  -16.4254   21.4855 O   0  0  0  0  0  0  0  0  0  0  0  0
   10.5358  -18.1855   22.9664 N   0  0  0  0  0  0  0  0  0  0  0  0
   11.9626  -18.1287   23.2027 C   0  0  0  0  0  0  0  0  0  0  0  0
   12.2868  -18.0573   24.6433 C   0  0  0  0  0  0  0  0  0  0  0  0
   13.4521  -17.8376   25.0644 O   0  0  0  0  0  0  0  0  0  0  0  0
    9.0514  -12.5086   27.2902 O   0  0  0  0  0  0  0  0  0  0  0  0
    9.3727  -13.8565   27.4241 C   0  0  0  0  0  0  0  0  0  0  0  0
    9.9998  -14.3026   28.5752 C   0  0  0  0  0  0  0  0  0  0  0  0
   10.3326  -15.6481   28.7346 C   0  0  0  0  0  0  0  0  0  0  0  0
   10.0397  -16.5529   27.7434 C   0  0  0  0  0  0  0  0  0  0  0  0
   10.3682  -17.9644   27.8641 C   0  0  0  0  0  0  0  0  0  0  0  0
   11.5062  -18.4169   27.0106 C   0  0  2  0  0  0  0  0  0  0  0  0
   11.2582  -18.2412   25.5956 N   0  0  0  0  0  0  0  0  0  0  0  0
   11.8399  -19.8246   27.2919 C   0  0  0  0  0  0  0  0  0  0  0  0
   12.3039  -20.1977   28.5549 O   0  0  0  0  0  0  0  0  0  0  0  0
    9.4157  -16.0858   26.6077 C   0  0  0  0  0  0  0  0  0  0  0  0
    9.0851  -14.7577   26.4460 C   0  0  0  0  0  0  0  0  0  0  0  0
   11.7069  -20.6909   26.3945 O   0  0  0  0  0  0  0  0  0  0  0  0
  2  1  1  1
  2  3  1  0
  4  5  2  0
  4  3  1  0
  6  5  1  0
  7 12  2  0
  7  6  1  0
  8  7  1  0
  9 10  1  0
  9  8  2  0
 10 11  2  0
 11 12  1  0
 12  4  1  0
 13  2  1  0
 13 15  1  0
 14 13  2  0
 16 15  1  0
 17 16  1  0
 18 17  2  0
 19 20  1  0
 20 30  2  0
 20 21  1  0
 21 22  2  0
 22 23  1  0
 23 24  1  0
 25 24  1  1
 25 26  1  0
 25 27  1  0
 26 17  1  0
 27 28  1  0
 29 23  2  0
 30 29  1  0
 31 27  2  0
M  END
$$$$
