WGY.pdb
     RDKit          3D

 31 33  0  0  1  0  0  0  0  0999 V2000
    6.2091  -17.4767   24.0435 N   0  0  0  0  0  0  0  0  0  0  0  0
    7.3478  -16.6668   23.7541 C   0  0  1  0  0  0  0  0  0  0  0  0
    7.8976  -16.0486   24.9854 C   0  0  0  0  0  0  0  0  0  0  0  0
    6.9751  -15.0171   25.4913 C   0  0  0  0  0  0  0  0  0  0  0  0
    5.8533  -15.2299   26.2810 C   0  0  0  0  0  0  0  0  0  0  0  0
    5.2754  -14.0581   26.5725 N   0  0  0  0  0  0  0  0  0  0  0  0
    5.9757  -13.0736   26.0021 C   0  0  0  0  0  0  0  0  0  0  0  0
    5.7987  -11.6975   25.9912 C   0  0  0  0  0  0  0  0  0  0  0  0
    6.6402  -10.8604   25.3274 C   0  0  0  0  0  0  0  0  0  0  0  0
    7.7041  -11.4354   24.6461 C   0  0  0  0  0  0  0  0  0  0  0  0
    7.8909  -12.8013   24.6495 C   0  0  0  0  0  0  0  0  0  0  0  0
    7.0502  -13.6548   25.3158 C   0  0  0  0  0  0  0  0  0  0  0  0
    8.3728  -17.3832   22.9478 C   0  0  0  0  0  0  0  0  0  0  0  0
    7.9651  -18.2307   22.1158 O   0  0  0  0  0  0  0  0  0  0  0  0
    9.7656  -17.1464   23.0840 N   0  0  0  0  0  0  0  0  0  0  0  0
   10.6056  -16.7203   21.9851 C   0  0  0  0  0  0  0  0  0  0  0  0
   11.9785  -16.3948   22.4263 C   0  0  0  0  0  0  0  0  0  0  0  0
   12.9131  -16.1655   21.6154 O   0  0  0  0  0  0  0  0  0  0  0  0
    9.9516  -16.7285   29.5711 O   0  0  0  0  0  0  0  0  0  0  0  0
   10.8648  -16.3746   28.5817 C   0  0  0  0  0  0  0  0  0  0  0  0
   10.5461  -15.3750   27.6780 C   0  0  0  0  0  0  0  0  0  0  0  0
   11.4432  -15.0013   26.6769 C   0  0  0  0  0  0  0  0  0  0  0  0
   12.6625  -15.6257   26.5755 C   0  0  0  0  0  0  0  0  0  0  0  0
   13.6291  -15.2711   25.5485 C   0  0  0  0  0  0  0  0  0  0  0  0
   13.6008  -16.1410   24.3358 C   0  0  2  0  0  0  0  0  0  0  0  0
   12.2669  -16.3357   23.8089 N   0  0  0  0  0  0  0  0  0  0  0  0
   14.2261  -17.4458   24.6168 C   0  0  0  0  0  0  0  0  0  0  0  0
   15.5630  -17.5131   25.0141 O   0  0  0  0  0  0  0  0  0  0  0  0
   12.9572  -16.6169   27.4855 C   0  0  0  0  0  0  0  0  0  0  0  0
   12.0741  -16.9892   28.4760 C   0  0  0  0  0  0  0  0  0  0  0  0
   13.5559  -18.4995   24.4989 O   0  0  0  0  0  0  0  0  0  0  0  0
  2  1  1  1
  2  3  1  0
  4  5  2  0
  4  3  1  0
  6  5  1  0
  7 12  2  0
  7  6  1  0
  8  7  1  0
  9 10  1  0
  9  8  2  0
 10 11  2  0
 11 12  1  0
 12  4  1  0
 13  2  1  0
 13 15  1  0
 14 13  2  0
 16 15  1  0
 17 16  1  0
 18 17  2  0
 19 20  1  0
 20 30  2  0
 20 21  1  0
 21 22  2  0
 22 23  1  0
 23 24  1  0
 25 24  1  1
 25 26  1  0
 25 27  1  0
 26 17  1  0
 27 28  1  0
 29 23  2  0
 30 29  1  0
 31 27  2  0
M  END
$$$$
