WGY.pdb
     RDKit          3D

 31 33  0  0  1  0  0  0  0  0999 V2000
    6.8143  -15.5632   21.6416 N   0  0  0  0  0  0  0  0  0  0  0  0
    8.1130  -15.5233   22.2315 C   0  0  1  0  0  0  0  0  0  0  0  0
    8.1300  -16.2096   23.5465 C   0  0  0  0  0  0  0  0  0  0  0  0
    7.1229  -15.6150   24.4428 C   0  0  0  0  0  0  0  0  0  0  0  0
    6.0195  -16.2590   24.9857 C   0  0  0  0  0  0  0  0  0  0  0  0
    5.3451  -15.4144   25.7757 N   0  0  0  0  0  0  0  0  0  0  0  0
    5.9636  -14.2302   25.7752 C   0  0  0  0  0  0  0  0  0  0  0  0
    5.6731  -13.0336   26.4146 C   0  0  0  0  0  0  0  0  0  0  0  0
    6.4449  -11.9236   26.2679 C   0  0  0  0  0  0  0  0  0  0  0  0
    7.5557  -12.0248   25.4417 C   0  0  0  0  0  0  0  0  0  0  0  0
    7.8552  -13.2082   24.8010 C   0  0  0  0  0  0  0  0  0  0  0  0
    7.0855  -14.3337   24.9420 C   0  0  0  0  0  0  0  0  0  0  0  0
    9.1789  -15.9966   21.3075 C   0  0  0  0  0  0  0  0  0  0  0  0
    9.1085  -15.6313   20.1082 O   0  0  0  0  0  0  0  0  0  0  0  0
   10.2495  -16.8290   21.7263 N   0  0  0  0  0  0  0  0  0  0  0  0
   11.6201  -16.3716   21.8086 C   0  0  0  0  0  0  0  0  0  0  0  0
   12.2351  -16.6851   23.1160 C   0  0  0  0  0  0  0  0  0  0  0  0
   13.4361  -16.4179   23.3800 O   0  0  0  0  0  0  0  0  0  0  0  0
   10.5571  -12.4167   28.7277 O   0  0  0  0  0  0  0  0  0  0  0  0
   10.6707  -13.6945   28.1870 C   0  0  0  0  0  0  0  0  0  0  0  0
   10.0263  -13.9982   26.9996 C   0  0  0  0  0  0  0  0  0  0  0  0
   10.1238  -15.2710   26.4365 C   0  0  0  0  0  0  0  0  0  0  0  0
   10.8662  -16.2451   27.0584 C   0  0  0  0  0  0  0  0  0  0  0  0
   10.9961  -17.5857   26.5101 C   0  0  0  0  0  0  0  0  0  0  0  0
   11.9868  -17.7145   25.4010 C   0  0  2  0  0  0  0  0  0  0  0  0
   11.4560  -17.3092   24.1170 N   0  0  0  0  0  0  0  0  0  0  0  0
   12.5010  -19.0934   25.3202 C   0  0  0  0  0  0  0  0  0  0  0  0
   13.2247  -19.6367   26.3836 O   0  0  0  0  0  0  0  0  0  0  0  0
   11.4982  -15.9195   28.2383 C   0  0  0  0  0  0  0  0  0  0  0  0
   11.4045  -14.6637   28.7981 C   0  0  0  0  0  0  0  0  0  0  0  0
   12.2884  -19.7817   24.2933 O   0  0  0  0  0  0  0  0  0  0  0  0
  2  1  1  6
  2  3  1  0
  4  5  2  0
  4  3  1  0
  6  5  1  0
  7 12  2  0
  7  6  1  0
  8  7  1  0
  9 10  1  0
  9  8  2  0
 10 11  2  0
 11 12  1  0
 12  4  1  0
 13  2  1  0
 13 15  1  0
 14 13  2  0
 16 15  1  0
 17 16  1  0
 18 17  2  0
 19 20  1  0
 20 30  2  0
 20 21  1  0
 21 22  2  0
 22 23  1  0
 23 24  1  0
 25 24  1  1
 25 26  1  0
 25 27  1  0
 26 17  1  0
 27 28  1  0
 29 23  2  0
 30 29  1  0
 31 27  2  0
M  END
$$$$
