WGY.pdb
     RDKit          3D

 31 33  0  0  1  0  0  0  0  0999 V2000
    7.9525  -17.2015   22.7424 N   0  0  0  0  0  0  0  0  0  0  0  0
    8.9108  -16.1676   22.9635 C   0  0  1  0  0  0  0  0  0  0  0  0
    8.2880  -14.8247   22.8681 C   0  0  0  0  0  0  0  0  0  0  0  0
    7.4564  -14.5650   24.0564 C   0  0  0  0  0  0  0  0  0  0  0  0
    6.5754  -15.4541   24.6566 C   0  0  0  0  0  0  0  0  0  0  0  0
    6.0169  -14.8832   25.7309 N   0  0  0  0  0  0  0  0  0  0  0  0
    6.4971  -13.6436   25.8641 C   0  0  0  0  0  0  0  0  0  0  0  0
    6.2408  -12.6463   26.7940 C   0  0  0  0  0  0  0  0  0  0  0  0
    6.8437  -11.4284   26.7405 C   0  0  0  0  0  0  0  0  0  0  0  0
    7.7422  -11.2075   25.7058 C   0  0  0  0  0  0  0  0  0  0  0  0
    8.0056  -12.1905   24.7757 C   0  0  0  0  0  0  0  0  0  0  0  0
    7.4050  -13.4219   24.8200 C   0  0  0  0  0  0  0  0  0  0  0  0
    9.6921  -16.3658   24.2143 C   0  0  0  0  0  0  0  0  0  0  0  0
   10.5892  -15.5268   24.4745 O   0  0  0  0  0  0  0  0  0  0  0  0
    9.4629  -17.4476   25.1040 N   0  0  0  0  0  0  0  0  0  0  0  0
   10.2883  -17.7041   26.2649 C   0  0  0  0  0  0  0  0  0  0  0  0
   11.6088  -18.2588   25.8988 C   0  0  0  0  0  0  0  0  0  0  0  0
   12.4914  -18.5257   26.7551 O   0  0  0  0  0  0  0  0  0  0  0  0
   10.1017  -18.1307   18.5223 O   0  0  0  0  0  0  0  0  0  0  0  0
   10.7607  -18.6453   19.6354 C   0  0  0  0  0  0  0  0  0  0  0  0
   12.1382  -18.5391   19.7286 C   0  0  0  0  0  0  0  0  0  0  0  0
   12.8230  -19.0464   20.8332 C   0  0  0  0  0  0  0  0  0  0  0  0
   12.1331  -19.6619   21.8492 C   0  0  0  0  0  0  0  0  0  0  0  0
   12.8034  -20.2065   23.0191 C   0  0  0  0  0  0  0  0  0  0  0  0
   13.0867  -19.2131   24.0966 C   0  0  2  0  0  0  0  0  0  0  0  0
   11.9051  -18.5035   24.5383 N   0  0  0  0  0  0  0  0  0  0  0  0
   14.1167  -18.2530   23.6613 C   0  0  0  0  0  0  0  0  0  0  0  0
   15.3695  -18.7075   23.2448 O   0  0  0  0  0  0  0  0  0  0  0  0
   10.7636  -19.7556   21.7343 C   0  0  0  0  0  0  0  0  0  0  0  0
   10.0831  -19.2559   20.6450 C   0  0  0  0  0  0  0  0  0  0  0  0
   13.8680  -17.0235   23.6648 O   0  0  0  0  0  0  0  0  0  0  0  0
  2  1  1  1
  2  3  1  0
  4  5  2  0
  4  3  1  0
  6  5  1  0
  7 12  2  0
  7  6  1  0
  8  7  1  0
  9 10  1  0
  9  8  2  0
 10 11  2  0
 11 12  1  0
 12  4  1  0
 13  2  1  0
 13 15  1  0
 14 13  2  0
 16 15  1  0
 17 16  1  0
 18 17  2  0
 19 20  1  0
 20 30  2  0
 20 21  1  0
 21 22  2  0
 22 23  1  0
 23 24  1  0
 25 24  1  6
 25 26  1  0
 25 27  1  0
 26 17  1  0
 27 28  1  0
 29 23  2  0
 30 29  1  0
 31 27  2  0
M  END
$$$$
