WGY.pdb
     RDKit          3D

 31 33  0  0  1  0  0  0  0  0999 V2000
    9.5893  -16.2416   22.9222 N   0  0  0  0  0  0  0  0  0  0  0  0
    8.7222  -16.5803   24.0036 C   0  0  1  0  0  0  0  0  0  0  0  0
    7.3160  -16.2164   23.7024 C   0  0  0  0  0  0  0  0  0  0  0  0
    7.1879  -14.7551   23.5642 C   0  0  0  0  0  0  0  0  0  0  0  0
    7.1800  -14.0367   22.3764 C   0  0  0  0  0  0  0  0  0  0  0  0
    7.0164  -12.7336   22.6359 N   0  0  0  0  0  0  0  0  0  0  0  0
    6.9159  -12.5622   23.9570 C   0  0  0  0  0  0  0  0  0  0  0  0
    6.7463  -11.4244   24.7328 C   0  0  0  0  0  0  0  0  0  0  0  0
    6.6766  -11.4724   26.0901 C   0  0  0  0  0  0  0  0  0  0  0  0
    6.7827  -12.7198   26.6896 C   0  0  0  0  0  0  0  0  0  0  0  0
    6.9512  -13.8578   25.9298 C   0  0  0  0  0  0  0  0  0  0  0  0
    7.0218  -13.8220   24.5613 C   0  0  0  0  0  0  0  0  0  0  0  0
    8.8820  -17.9912   24.4484 C   0  0  0  0  0  0  0  0  0  0  0  0
    8.0672  -18.4248   25.2997 O   0  0  0  0  0  0  0  0  0  0  0  0
    9.9021  -18.8453   23.9540 N   0  0  0  0  0  0  0  0  0  0  0  0
   10.1373  -20.1764   24.4711 C   0  0  0  0  0  0  0  0  0  0  0  0
   11.2153  -20.1994   25.4825 C   0  0  0  0  0  0  0  0  0  0  0  0
   12.0713  -21.1201   25.5380 O   0  0  0  0  0  0  0  0  0  0  0  0
    8.8298  -13.9145   28.9044 O   0  0  0  0  0  0  0  0  0  0  0  0
    9.8251  -14.8315   28.5780 C   0  0  0  0  0  0  0  0  0  0  0  0
   10.1694  -15.0292   27.2514 C   0  0  0  0  0  0  0  0  0  0  0  0
   11.1631  -15.9422   26.8973 C   0  0  0  0  0  0  0  0  0  0  0  0
   11.8166  -16.6612   27.8683 C   0  0  0  0  0  0  0  0  0  0  0  0
   12.8578  -17.6243   27.5474 C   0  0  0  0  0  0  0  0  0  0  0  0
   12.3813  -19.0294   27.3837 C   0  0  2  0  0  0  0  0  0  0  0  0
   11.2997  -19.1535   26.4299 N   0  0  0  0  0  0  0  0  0  0  0  0
   11.9743  -19.5954   28.6822 C   0  0  0  0  0  0  0  0  0  0  0  0
   12.8895  -19.6692   29.7342 O   0  0  0  0  0  0  0  0  0  0  0  0
   11.4571  -16.4475   29.1808 C   0  0  0  0  0  0  0  0  0  0  0  0
   10.4761  -15.5467   29.5351 C   0  0  0  0  0  0  0  0  0  0  0  0
   10.8023  -20.0124   28.8437 O   0  0  0  0  0  0  0  0  0  0  0  0
  2  1  1  6
  2  3  1  0
  4  5  2  0
  4  3  1  0
  6  5  1  0
  7 12  2  0
  7  6  1  0
  8  7  1  0
  9 10  1  0
  9  8  2  0
 10 11  2  0
 11 12  1  0
 12  4  1  0
 13  2  1  0
 13 15  1  0
 14 13  2  0
 16 15  1  0
 17 16  1  0
 18 17  2  0
 19 20  1  0
 20 30  2  0
 20 21  1  0
 21 22  2  0
 22 23  1  0
 23 24  1  0
 25 24  1  1
 25 26  1  0
 25 27  1  0
 26 17  1  0
 27 28  1  0
 29 23  2  0
 30 29  1  0
 31 27  2  0
M  END
$$$$
