WGY.pdb
     RDKit          3D

 31 33  0  0  1  0  0  0  0  0999 V2000
    8.3670  -17.6260   24.1584 N   0  0  0  0  0  0  0  0  0  0  0  0
    8.2969  -16.6370   23.1323 C   0  0  1  0  0  0  0  0  0  0  0  0
    6.9630  -15.9888   23.0972 C   0  0  0  0  0  0  0  0  0  0  0  0
    6.7055  -15.2877   24.3672 C   0  0  0  0  0  0  0  0  0  0  0  0
    6.2352  -15.8570   25.5427 C   0  0  0  0  0  0  0  0  0  0  0  0
    6.1518  -14.9222   26.4973 N   0  0  0  0  0  0  0  0  0  0  0  0
    6.5505  -13.7502   25.9949 C   0  0  0  0  0  0  0  0  0  0  0  0
    6.6460  -12.4857   26.5580 C   0  0  0  0  0  0  0  0  0  0  0  0
    7.0766  -11.4054   25.8530 C   0  0  0  0  0  0  0  0  0  0  0  0
    7.4251  -11.6091   24.5250 C   0  0  0  0  0  0  0  0  0  0  0  0
    7.3348  -12.8607   23.9540 C   0  0  0  0  0  0  0  0  0  0  0  0
    6.9033  -13.9570   24.6546 C   0  0  0  0  0  0  0  0  0  0  0  0
    9.4216  -15.6647   23.1933 C   0  0  0  0  0  0  0  0  0  0  0  0
    9.5821  -15.0330   24.2665 O   0  0  0  0  0  0  0  0  0  0  0  0
   10.3002  -15.4318   22.1032 N   0  0  0  0  0  0  0  0  0  0  0  0
   11.3972  -16.3152   21.7701 C   0  0  0  0  0  0  0  0  0  0  0  0
   12.4599  -16.2966   22.7976 C   0  0  0  0  0  0  0  0  0  0  0  0
   13.5419  -16.9248   22.6631 O   0  0  0  0  0  0  0  0  0  0  0  0
    9.6206  -17.1831   29.9818 O   0  0  0  0  0  0  0  0  0  0  0  0
   10.4202  -16.5413   29.0402 C   0  0  0  0  0  0  0  0  0  0  0  0
    9.8769  -15.5542   28.2353 C   0  0  0  0  0  0  0  0  0  0  0  0
   10.6563  -14.8957   27.2838 C   0  0  0  0  0  0  0  0  0  0  0  0
   11.9822  -15.2214   27.1333 C   0  0  0  0  0  0  0  0  0  0  0  0
   12.8333  -14.5634   26.1549 C   0  0  0  0  0  0  0  0  0  0  0  0
   13.2678  -15.4305   25.0202 C   0  0  2  0  0  0  0  0  0  0  0  0
   12.2667  -15.5488   23.9816 N   0  0  0  0  0  0  0  0  0  0  0  0
   13.6503  -16.7688   25.5049 C   0  0  0  0  0  0  0  0  0  0  0  0
   12.8668  -17.8807   25.1895 O   0  0  0  0  0  0  0  0  0  0  0  0
   12.5004  -16.2063   27.9452 C   0  0  0  0  0  0  0  0  0  0  0  0
   11.7342  -16.8594   28.8863 C   0  0  0  0  0  0  0  0  0  0  0  0
   14.6829  -16.9103   26.2030 O   0  0  0  0  0  0  0  0  0  0  0  0
  2  1  1  1
  2  3  1  0
  4  5  2  0
  4  3  1  0
  6  5  1  0
  7 12  2  0
  7  6  1  0
  8  7  1  0
  9 10  1  0
  9  8  2  0
 10 11  2  0
 11 12  1  0
 12  4  1  0
 13  2  1  0
 13 15  1  0
 14 13  2  0
 16 15  1  0
 17 16  1  0
 18 17  2  0
 19 20  1  0
 20 30  2  0
 20 21  1  0
 21 22  2  0
 22 23  1  0
 23 24  1  0
 25 24  1  1
 25 26  1  0
 25 27  1  0
 26 17  1  0
 27 28  1  0
 29 23  2  0
 30 29  1  0
 31 27  2  0
M  END
$$$$
