WGY.pdb
     RDKit          3D

 31 33  0  0  1  0  0  0  0  0999 V2000
    6.7165  -17.7721   24.1187 N   0  0  0  0  0  0  0  0  0  0  0  0
    8.0048  -17.1659   24.0242 C   0  0  1  0  0  0  0  0  0  0  0  0
    8.3054  -16.3467   25.2238 C   0  0  0  0  0  0  0  0  0  0  0  0
    7.2360  -15.3574   25.4442 C   0  0  0  0  0  0  0  0  0  0  0  0
    6.0315  -15.5771   26.0984 C   0  0  0  0  0  0  0  0  0  0  0  0
    5.3218  -14.4426   26.1345 N   0  0  0  0  0  0  0  0  0  0  0  0
    6.0146  -13.4762   25.5253 C   0  0  0  0  0  0  0  0  0  0  0  0
    5.7278  -12.1395   25.2889 C   0  0  0  0  0  0  0  0  0  0  0  0
    6.5858  -11.3164   24.6288 C   0  0  0  0  0  0  0  0  0  0  0  0
    7.7825  -11.8646   24.1886 C   0  0  0  0  0  0  0  0  0  0  0  0
    8.0793  -13.1914   24.4174 C   0  0  0  0  0  0  0  0  0  0  0  0
    7.2232  -14.0302   25.0824 C   0  0  0  0  0  0  0  0  0  0  0  0
    9.0775  -18.1434   23.6959 C   0  0  0  0  0  0  0  0  0  0  0  0
    9.0414  -19.2572   24.2745 O   0  0  0  0  0  0  0  0  0  0  0  0
   10.1177  -17.8659   22.7710 N   0  0  0  0  0  0  0  0  0  0  0  0
   11.1296  -16.8566   22.9997 C   0  0  0  0  0  0  0  0  0  0  0  0
   11.7571  -16.9879   24.3319 C   0  0  0  0  0  0  0  0  0  0  0  0
   12.6784  -16.2256   24.7237 O   0  0  0  0  0  0  0  0  0  0  0  0
   10.3063  -12.2365   28.3119 O   0  0  0  0  0  0  0  0  0  0  0  0
   10.4591  -13.6099   28.1434 C   0  0  0  0  0  0  0  0  0  0  0  0
    9.4261  -14.3550   27.6003 C   0  0  0  0  0  0  0  0  0  0  0  0
    9.5535  -15.7327   27.4209 C   0  0  0  0  0  0  0  0  0  0  0  0
   10.7144  -16.3709   27.7839 C   0  0  0  0  0  0  0  0  0  0  0  0
   10.8928  -17.8044   27.6170 C   0  0  0  0  0  0  0  0  0  0  0  0
   11.8507  -18.1943   26.5406 C   0  0  2  0  0  0  0  0  0  0  0  0
   11.3153  -18.0044   25.2094 N   0  0  0  0  0  0  0  0  0  0  0  0
   12.2864  -19.5917   26.7129 C   0  0  0  0  0  0  0  0  0  0  0  0
   12.9113  -19.9919   27.8957 O   0  0  0  0  0  0  0  0  0  0  0  0
   11.7280  -15.6090   28.3220 C   0  0  0  0  0  0  0  0  0  0  0  0
   11.6066  -14.2479   28.5010 C   0  0  0  0  0  0  0  0  0  0  0  0
   12.0956  -20.4248   25.7947 O   0  0  0  0  0  0  0  0  0  0  0  0
  2  1  1  1
  2  3  1  0
  4  5  2  0
  4  3  1  0
  6  5  1  0
  7 12  2  0
  7  6  1  0
  8  7  1  0
  9 10  1  0
  9  8  2  0
 10 11  2  0
 11 12  1  0
 12  4  1  0
 13  2  1  0
 13 15  1  0
 14 13  2  0
 16 15  1  0
 17 16  1  0
 18 17  2  0
 19 20  1  0
 20 30  2  0
 20 21  1  0
 21 22  2  0
 22 23  1  0
 23 24  1  0
 25 24  1  1
 25 26  1  0
 25 27  1  0
 26 17  1  0
 27 28  1  0
 29 23  2  0
 30 29  1  0
 31 27  2  0
M  END
$$$$
