WGY.pdb
     RDKit          3D

 31 33  0  0  1  0  0  0  0  0999 V2000
   10.0991  -15.0931   21.3043 N   0  0  0  0  0  0  0  0  0  0  0  0
    9.5891  -15.9192   22.3500 C   0  0  1  0  0  0  0  0  0  0  0  0
    8.1180  -16.0779   22.2440 C   0  0  0  0  0  0  0  0  0  0  0  0
    7.4412  -14.8464   22.6872 C   0  0  0  0  0  0  0  0  0  0  0  0
    6.7964  -13.9224   21.8764 C   0  0  0  0  0  0  0  0  0  0  0  0
    6.2726  -12.9468   22.6286 N   0  0  0  0  0  0  0  0  0  0  0  0
    6.5485  -13.1916   23.9127 C   0  0  0  0  0  0  0  0  0  0  0  0
    6.2444  -12.4960   25.0741 C   0  0  0  0  0  0  0  0  0  0  0  0
    6.6370  -12.9247   26.3035 C   0  0  0  0  0  0  0  0  0  0  0  0
    7.3669  -14.1038   26.3638 C   0  0  0  0  0  0  0  0  0  0  0  0
    7.6753  -14.8043   25.2172 C   0  0  0  0  0  0  0  0  0  0  0  0
    7.2842  -14.3828   23.9728 C   0  0  0  0  0  0  0  0  0  0  0  0
   10.3133  -17.2140   22.4647 C   0  0  0  0  0  0  0  0  0  0  0  0
   10.4090  -17.9166   21.4284 O   0  0  0  0  0  0  0  0  0  0  0  0
   10.8872  -17.6722   23.6793 N   0  0  0  0  0  0  0  0  0  0  0  0
   11.4926  -18.9789   23.8233 C   0  0  0  0  0  0  0  0  0  0  0  0
   11.9654  -19.2255   25.2022 C   0  0  0  0  0  0  0  0  0  0  0  0
   12.6934  -20.2071   25.5023 O   0  0  0  0  0  0  0  0  0  0  0  0
   10.9119  -12.3862   28.3887 O   0  0  0  0  0  0  0  0  0  0  0  0
   10.6074  -13.7343   28.2218 C   0  0  0  0  0  0  0  0  0  0  0  0
   11.4611  -14.6997   28.7285 C   0  0  0  0  0  0  0  0  0  0  0  0
   11.1794  -16.0575   28.5749 C   0  0  0  0  0  0  0  0  0  0  0  0
   10.0427  -16.4554   27.9141 C   0  0  0  0  0  0  0  0  0  0  0  0
    9.7079  -17.8583   27.7287 C   0  0  0  0  0  0  0  0  0  0  0  0
   10.8696  -18.7427   27.4177 C   0  0  2  0  0  0  0  0  0  0  0  0
   11.5929  -18.3328   26.2331 N   0  0  0  0  0  0  0  0  0  0  0  0
   10.4346  -20.1444   27.2817 C   0  0  0  0  0  0  0  0  0  0  0  0
    9.8987  -20.5996   26.0754 O   0  0  0  0  0  0  0  0  0  0  0  0
    9.2088  -15.4772   27.4190 C   0  0  0  0  0  0  0  0  0  0  0  0
    9.4831  -14.1349   27.5684 C   0  0  0  0  0  0  0  0  0  0  0  0
   10.5458  -20.9314   28.2521 O   0  0  0  0  0  0  0  0  0  0  0  0
  2  1  1  6
  2  3  1  0
  4  5  2  0
  4  3  1  0
  6  5  1  0
  7 12  2  0
  7  6  1  0
  8  7  1  0
  9 10  1  0
  9  8  2  0
 10 11  2  0
 11 12  1  0
 12  4  1  0
 13  2  1  0
 13 15  1  0
 14 13  2  0
 16 15  1  0
 17 16  1  0
 18 17  2  0
 19 20  1  0
 20 30  2  0
 20 21  1  0
 21 22  2  0
 22 23  1  0
 23 24  1  0
 25 24  1  6
 25 26  1  0
 25 27  1  0
 26 17  1  0
 27 28  1  0
 29 23  2  0
 30 29  1  0
 31 27  2  0
M  END
$$$$
