WGY.pdb
     RDKit          3D

 31 33  0  0  1  0  0  0  0  0999 V2000
    6.4231  -17.8078   24.8499 N   0  0  0  0  0  0  0  0  0  0  0  0
    7.7122  -17.3175   24.4840 C   0  0  1  0  0  0  0  0  0  0  0  0
    8.2989  -16.4841   25.5619 C   0  0  0  0  0  0  0  0  0  0  0  0
    7.3079  -15.5059   26.0438 C   0  0  0  0  0  0  0  0  0  0  0  0
    6.0328  -15.7876   26.5149 C   0  0  0  0  0  0  0  0  0  0  0  0
    5.4289  -14.6545   26.8934 N   0  0  0  0  0  0  0  0  0  0  0  0
    6.2602  -13.6289   26.6889 C   0  0  0  0  0  0  0  0  0  0  0  0
    6.1192  -12.2655   26.9044 C   0  0  0  0  0  0  0  0  0  0  0  0
    7.1061  -11.3764   26.6128 C   0  0  0  0  0  0  0  0  0  0  0  0
    8.2838  -11.8836   26.0815 C   0  0  0  0  0  0  0  0  0  0  0  0
    8.4363  -13.2363   25.8629 C   0  0  0  0  0  0  0  0  0  0  0  0
    7.4493  -14.1420   26.1539 C   0  0  0  0  0  0  0  0  0  0  0  0
    8.6239  -18.3943   24.0114 C   0  0  0  0  0  0  0  0  0  0  0  0
    8.4502  -19.5461   24.4803 O   0  0  0  0  0  0  0  0  0  0  0  0
    9.6609  -18.1688   23.0689 N   0  0  0  0  0  0  0  0  0  0  0  0
    9.5040  -18.4064   21.6499 C   0  0  0  0  0  0  0  0  0  0  0  0
   10.7710  -18.2234   20.9103 C   0  0  0  0  0  0  0  0  0  0  0  0
   11.5247  -19.1857   20.6111 O   0  0  0  0  0  0  0  0  0  0  0  0
    6.7142  -12.8508   18.4836 O   0  0  0  0  0  0  0  0  0  0  0  0
    7.6030  -13.4487   19.3728 C   0  0  0  0  0  0  0  0  0  0  0  0
    7.1625  -13.8406   20.6257 C   0  0  0  0  0  0  0  0  0  0  0  0
    8.0326  -14.4418   21.5356 C   0  0  0  0  0  0  0  0  0  0  0  0
    9.3467  -14.6536   21.1963 C   0  0  0  0  0  0  0  0  0  0  0  0
   10.2905  -15.2754   22.1113 C   0  0  0  0  0  0  0  0  0  0  0  0
   11.4925  -15.8737   21.4590 C   0  0  2  0  0  0  0  0  0  0  0  0
   11.1634  -16.9231   20.5182 N   0  0  0  0  0  0  0  0  0  0  0  0
   12.4345  -16.3832   22.4716 C   0  0  0  0  0  0  0  0  0  0  0  0
   12.6432  -17.7569   22.6088 O   0  0  0  0  0  0  0  0  0  0  0  0
    9.7618  -14.2555   19.9445 C   0  0  0  0  0  0  0  0  0  0  0  0
    8.9058  -13.6612   19.0426 C   0  0  0  0  0  0  0  0  0  0  0  0
   13.0511  -15.5808   23.2129 O   0  0  0  0  0  0  0  0  0  0  0  0
  2  1  1  1
  2  3  1  0
  4  5  2  0
  4  3  1  0
  6  5  1  0
  7 12  2  0
  7  6  1  0
  8  7  1  0
  9 10  1  0
  9  8  2  0
 10 11  2  0
 11 12  1  0
 12  4  1  0
 13  2  1  0
 13 15  1  0
 14 13  2  0
 16 15  1  0
 17 16  1  0
 18 17  2  0
 19 20  1  0
 20 30  2  0
 20 21  1  0
 21 22  2  0
 22 23  1  0
 23 24  1  0
 25 24  1  1
 25 26  1  0
 25 27  1  0
 26 17  1  0
 27 28  1  0
 29 23  2  0
 30 29  1  0
 31 27  2  0
M  END
$$$$
