WHM.pdb
     RDKit          3D

 33 35  0  0  1  0  0  0  0  0999 V2000
   18.9391  -21.8280  -13.4801 N   0  0  0  0  0  0  0  0  0  0  0  0
   19.6450  -22.4222  -12.3476 C   0  0  1  0  0  0  0  0  0  0  0  0
   20.2603  -21.2790  -11.5272 C   0  0  0  0  0  0  0  0  0  0  0  0
   21.2633  -20.5926  -12.3796 C   0  0  0  0  0  0  0  0  0  0  0  0
   21.1655  -19.3154  -12.9315 C   0  0  0  0  0  0  0  0  0  0  0  0
   22.2763  -19.0531  -13.6403 N   0  0  0  0  0  0  0  0  0  0  0  0
   23.1107  -20.0983  -13.5857 C   0  0  0  0  0  0  0  0  0  0  0  0
   24.3548  -20.3202  -14.1355 C   0  0  0  0  0  0  0  0  0  0  0  0
   24.9812  -21.5252  -13.8960 C   0  0  0  0  0  0  0  0  0  0  0  0
   24.3813  -22.5043  -13.1179 C   0  0  0  0  0  0  0  0  0  0  0  0
   23.1343  -22.2522  -12.5806 C   0  0  0  0  0  0  0  0  0  0  0  0
   22.4901  -21.0698  -12.8000 C   0  0  0  0  0  0  0  0  0  0  0  0
   18.7633  -23.2550  -11.5231 C   0  0  0  0  0  0  0  0  0  0  0  0
   17.7103  -22.7144  -11.0640 O   0  0  0  0  0  0  0  0  0  0  0  0
   18.9831  -24.6144  -11.1927 N   0  0  0  0  0  0  0  0  0  0  0  0
   18.2486  -25.2421  -10.1057 C   0  0  1  0  0  0  0  0  0  0  0  0
   18.2622  -26.7361  -10.3321 C   0  0  0  0  0  0  0  0  0  0  0  0
   17.6673  -27.0535  -11.6241 C   0  0  0  0  0  0  0  0  0  0  0  0
   18.3040  -27.2721  -12.8154 C   0  0  0  0  0  0  0  0  0  0  0  0
   17.3985  -27.5254  -13.7918 N   0  0  0  0  0  0  0  0  0  0  0  0
   16.1926  -27.4622  -13.1971 C   0  0  0  0  0  0  0  0  0  0  0  0
   16.3462  -27.1769  -11.8836 N   0  0  0  0  0  0  0  0  0  0  0  0
   18.7568  -24.8265   -8.7849 C   0  0  0  0  0  0  0  0  0  0  0  0
   19.2697  -23.6920   -8.6148 O   0  0  0  0  0  0  0  0  0  0  0  0
   14.9651  -21.0238   -4.8305 C   0  0  0  0  0  0  0  0  0  0  0  0
   15.0828  -22.5321   -5.7971 S   0  0  0  0  0  0  0  0  0  0  0  0
   16.7148  -23.3344   -5.6064 C   0  0  0  0  0  0  0  0  0  0  0  0
   16.8530  -24.4627   -6.5935 C   0  0  0  0  0  0  0  0  0  0  0  0
   18.1278  -25.1949   -6.3509 C   0  0  2  0  0  0  0  0  0  0  0  0
   18.7029  -25.6615   -7.6354 N   0  0  0  0  0  0  0  0  0  0  0  0
   18.0693  -26.3267   -5.4322 C   0  0  0  0  0  0  0  0  0  0  0  0
   17.4150  -27.3820   -5.7524 O   0  0  0  0  0  0  0  0  0  0  0  0
   18.6755  -26.3853   -4.1941 O   0  0  0  0  0  0  0  0  0  0  0  0
  2  1  1  6
  2 13  1  0
  2  3  1  0
  4  5  2  0
  4  3  1  0
  6  5  1  0
  7 12  2  0
  7  6  1  0
  8  7  1  0
  9 10  1  0
  9  8  2  0
 10 11  2  0
 11 12  1  0
 12  4  1  0
 13 14  2  0
 15 13  1  0
 15 16  1  0
 16 17  1  6
 18 17  1  0
 19 18  2  0
 20 21  1  0
 20 19  1  0
 21 22  2  0
 22 18  1  0
 23 24  2  0
 23 16  1  0
 25 26  1  0
 26 27  1  0
 27 28  1  0
 29 28  1  6
 29 30  1  0
 30 23  1  0
 31 29  1  0
 31 33  1  0
 32 31  2  0
M  END
$$$$
