WHM.pdb
     RDKit          3D

 33 35  0  0  1  0  0  0  0  0999 V2000
   23.3336  -18.0635  -15.1302 N   0  0  0  0  0  0  0  0  0  0  0  0
   24.7266  -18.0950  -14.6916 C   0  0  1  0  0  0  0  0  0  0  0  0
   25.1049  -16.6794  -14.2316 C   0  0  0  0  0  0  0  0  0  0  0  0
   25.0668  -15.7875  -15.4178 C   0  0  0  0  0  0  0  0  0  0  0  0
   24.2868  -14.6436  -15.5857 C   0  0  0  0  0  0  0  0  0  0  0  0
   24.5349  -14.1119  -16.7943 N   0  0  0  0  0  0  0  0  0  0  0  0
   25.4458  -14.8501  -17.4401 C   0  0  0  0  0  0  0  0  0  0  0  0
   26.0247  -14.7269  -18.6846 C   0  0  0  0  0  0  0  0  0  0  0  0
   26.9536  -15.6661  -19.0807 C   0  0  0  0  0  0  0  0  0  0  0  0
   27.3077  -16.7201  -18.2517 C   0  0  0  0  0  0  0  0  0  0  0  0
   26.7103  -16.8165  -17.0103 C   0  0  0  0  0  0  0  0  0  0  0  0
   25.7882  -15.9027  -16.5908 C   0  0  0  0  0  0  0  0  0  0  0  0
   24.9477  -19.0781  -13.6260 C   0  0  0  0  0  0  0  0  0  0  0  0
   24.2514  -18.9623  -12.5708 O   0  0  0  0  0  0  0  0  0  0  0  0
   25.8724  -20.1498  -13.6704 N   0  0  0  0  0  0  0  0  0  0  0  0
   26.0781  -21.0011  -12.5093 C   0  0  1  0  0  0  0  0  0  0  0  0
   26.3232  -22.4097  -12.9984 C   0  0  0  0  0  0  0  0  0  0  0  0
   25.0545  -23.0835  -13.2443 C   0  0  0  0  0  0  0  0  0  0  0  0
   23.7908  -22.6169  -13.0044 C   0  0  0  0  0  0  0  0  0  0  0  0
   22.8717  -23.5492  -13.3558 N   0  0  0  0  0  0  0  0  0  0  0  0
   23.5752  -24.6003  -13.8165 C   0  0  0  0  0  0  0  0  0  0  0  0
   24.8986  -24.3266  -13.7526 N   0  0  0  0  0  0  0  0  0  0  0  0
   27.1336  -20.4773  -11.6220 C   0  0  0  0  0  0  0  0  0  0  0  0
   27.1297  -19.2781  -11.2469 O   0  0  0  0  0  0  0  0  0  0  0  0
   28.7259  -19.8395   -4.6127 C   0  0  0  0  0  0  0  0  0  0  0  0
   27.8764  -20.4417   -6.0752 S   0  0  0  0  0  0  0  0  0  0  0  0
   28.8829  -20.2172   -7.5851 C   0  0  0  0  0  0  0  0  0  0  0  0
   28.0784  -20.5912   -8.8013 C   0  0  0  0  0  0  0  0  0  0  0  0
   28.9912  -20.8939   -9.9394 C   0  0  2  0  0  0  0  0  0  0  0  0
   28.2063  -21.2751  -11.1382 N   0  0  0  0  0  0  0  0  0  0  0  0
   30.0094  -21.9132   -9.7100 C   0  0  0  0  0  0  0  0  0  0  0  0
   29.8032  -23.1234  -10.0806 O   0  0  0  0  0  0  0  0  0  0  0  0
   31.2329  -21.7018   -9.1081 O   0  0  0  0  0  0  0  0  0  0  0  0
  2  1  1  1
  2 13  1  0
  2  3  1  0
  4  5  2  0
  4  3  1  0
  6  5  1  0
  7 12  2  0
  7  6  1  0
  8  7  1  0
  9 10  1  0
  9  8  2  0
 10 11  2  0
 11 12  1  0
 12  4  1  0
 13 14  2  0
 15 13  1  0
 15 16  1  0
 16 17  1  6
 18 17  1  0
 19 18  2  0
 20 21  1  0
 20 19  1  0
 21 22  2  0
 22 18  1  0
 23 24  2  0
 23 16  1  0
 25 26  1  0
 26 27  1  0
 27 28  1  0
 29 28  1  1
 29 30  1  0
 30 23  1  0
 31 29  1  0
 31 33  1  0
 32 31  2  0
M  END
$$$$
