WHM.pdb
     RDKit          3D

 33 35  0  0  1  0  0  0  0  0999 V2000
   21.0379  -22.0449  -10.7272 N   0  0  0  0  0  0  0  0  0  0  0  0
   21.1513  -22.4069   -9.3166 C   0  0  1  0  0  0  0  0  0  0  0  0
   21.4904  -21.1313   -8.5315 C   0  0  0  0  0  0  0  0  0  0  0  0
   22.8745  -20.7295   -8.8872 C   0  0  0  0  0  0  0  0  0  0  0  0
   23.3171  -20.2290  -10.1115 C   0  0  0  0  0  0  0  0  0  0  0  0
   24.6360  -19.9840  -10.0391 N   0  0  0  0  0  0  0  0  0  0  0  0
   25.0931  -20.2986   -8.8210 C   0  0  0  0  0  0  0  0  0  0  0  0
   26.3485  -20.2311   -8.2566 C   0  0  0  0  0  0  0  0  0  0  0  0
   26.5110  -20.6361   -6.9484 C   0  0  0  0  0  0  0  0  0  0  0  0
   25.4392  -21.1048   -6.2032 C   0  0  0  0  0  0  0  0  0  0  0  0
   24.1934  -21.1605   -6.7966 C   0  0  0  0  0  0  0  0  0  0  0  0
   24.0017  -20.7667   -8.0888 C   0  0  0  0  0  0  0  0  0  0  0  0
   19.9280  -23.0360   -8.8081 C   0  0  0  0  0  0  0  0  0  0  0  0
   18.8212  -22.4991   -9.1220 O   0  0  0  0  0  0  0  0  0  0  0  0
   19.8718  -24.1941   -7.9951 N   0  0  0  0  0  0  0  0  0  0  0  0
   18.5926  -24.7672   -7.6072 C   0  0  1  0  0  0  0  0  0  0  0  0
   18.5593  -26.2021   -8.0796 C   0  0  0  0  0  0  0  0  0  0  0  0
   18.0575  -26.2692   -9.4463 C   0  0  0  0  0  0  0  0  0  0  0  0
   17.5924  -25.2451  -10.2255 C   0  0  0  0  0  0  0  0  0  0  0  0
   17.2017  -25.7160  -11.4351 N   0  0  0  0  0  0  0  0  0  0  0  0
   17.4278  -27.0426  -11.4012 C   0  0  0  0  0  0  0  0  0  0  0  0
   17.9465  -27.3862  -10.1998 N   0  0  0  0  0  0  0  0  0  0  0  0
   18.3279  -24.5993   -6.1659 C   0  0  0  0  0  0  0  0  0  0  0  0
   19.2655  -24.6031   -5.3294 O   0  0  0  0  0  0  0  0  0  0  0  0
   13.2376  -21.5465   -2.8180 C   0  0  0  0  0  0  0  0  0  0  0  0
   13.4928  -23.1576   -2.0681 S   0  0  0  0  0  0  0  0  0  0  0  0
   15.1672  -23.8077   -2.4106 C   0  0  0  0  0  0  0  0  0  0  0  0
   15.4165  -23.8336   -3.8950 C   0  0  0  0  0  0  0  0  0  0  0  0
   16.7645  -24.4046   -4.1726 C   0  0  2  0  0  0  0  0  0  0  0  0
   17.0216  -24.4242   -5.6327 N   0  0  0  0  0  0  0  0  0  0  0  0
   17.0363  -25.7341   -3.6372 C   0  0  0  0  0  0  0  0  0  0  0  0
   16.6476  -26.7764   -4.2752 O   0  0  0  0  0  0  0  0  0  0  0  0
   17.7025  -26.0022   -2.4590 O   0  0  0  0  0  0  0  0  0  0  0  0
  2  1  1  6
  2 13  1  0
  2  3  1  0
  4  5  2  0
  4  3  1  0
  6  5  1  0
  7 12  2  0
  7  6  1  0
  8  7  1  0
  9 10  1  0
  9  8  2  0
 10 11  2  0
 11 12  1  0
 12  4  1  0
 13 14  2  0
 15 13  1  0
 15 16  1  0
 16 17  1  1
 18 17  1  0
 19 18  2  0
 20 21  1  0
 20 19  1  0
 21 22  2  0
 22 18  1  0
 23 24  2  0
 23 16  1  0
 25 26  1  0
 26 27  1  0
 27 28  1  0
 29 28  1  6
 29 30  1  0
 30 23  1  0
 31 29  1  0
 31 33  1  0
 32 31  2  0
M  END
$$$$
