WHM.pdb
     RDKit          3D

 33 35  0  0  1  0  0  0  0  0999 V2000
   26.6542  -33.5620  -17.1840 N   0  0  0  0  0  0  0  0  0  0  0  0
   25.7100  -34.3519  -16.3978 C   0  0  1  0  0  0  0  0  0  0  0  0
   26.4283  -35.6347  -15.9539 C   0  0  0  0  0  0  0  0  0  0  0  0
   26.4563  -36.5665  -17.1093 C   0  0  0  0  0  0  0  0  0  0  0  0
   27.2775  -36.4880  -18.2338 C   0  0  0  0  0  0  0  0  0  0  0  0
   27.0033  -37.5153  -19.0550 N   0  0  0  0  0  0  0  0  0  0  0  0
   26.0357  -38.2757  -18.5283 C   0  0  0  0  0  0  0  0  0  0  0  0
   25.4126  -39.4216  -18.9730 C   0  0  0  0  0  0  0  0  0  0  0  0
   24.4285  -39.9885  -18.1908 C   0  0  0  0  0  0  0  0  0  0  0  0
   24.0631  -39.4261  -16.9767 C   0  0  0  0  0  0  0  0  0  0  0  0
   24.7060  -38.2777  -16.5580 C   0  0  0  0  0  0  0  0  0  0  0  0
   25.6833  -37.6941  -17.3102 C   0  0  0  0  0  0  0  0  0  0  0  0
   25.1911  -33.6064  -15.2464 C   0  0  0  0  0  0  0  0  0  0  0  0
   25.9819  -32.7979  -14.6695 O   0  0  0  0  0  0  0  0  0  0  0  0
   23.8807  -33.7085  -14.7193 N   0  0  0  0  0  0  0  0  0  0  0  0
   23.4828  -32.9224  -13.5622 C   0  0  1  0  0  0  0  0  0  0  0  0
   22.0018  -32.6430  -13.6722 C   0  0  0  0  0  0  0  0  0  0  0  0
   21.7611  -31.5875  -14.6479 C   0  0  0  0  0  0  0  0  0  0  0  0
   22.6824  -30.8892  -15.3801 C   0  0  0  0  0  0  0  0  0  0  0  0
   22.0618  -29.9782  -16.1690 N   0  0  0  0  0  0  0  0  0  0  0  0
   20.7460  -30.1160  -15.9209 C   0  0  0  0  0  0  0  0  0  0  0  0
   20.5549  -31.0890  -15.0005 N   0  0  0  0  0  0  0  0  0  0  0  0
   23.8844  -33.5633  -12.2960 C   0  0  0  0  0  0  0  0  0  0  0  0
   23.8194  -34.8097  -12.1506 O   0  0  0  0  0  0  0  0  0  0  0  0
   26.8986  -32.7457   -4.9619 C   0  0  0  0  0  0  0  0  0  0  0  0
   26.2469  -31.9558   -6.4365 S   0  0  0  0  0  0  0  0  0  0  0  0
   25.6003  -33.1790   -7.6319 C   0  0  0  0  0  0  0  0  0  0  0  0
   25.2425  -32.4966   -8.9253 C   0  0  0  0  0  0  0  0  0  0  0  0
   24.6931  -33.4920   -9.8883 C   0  0  2  0  0  0  0  0  0  0  0  0
   24.3638  -32.8323  -11.1747 N   0  0  0  0  0  0  0  0  0  0  0  0
   23.5305  -34.2563   -9.4496 C   0  0  0  0  0  0  0  0  0  0  0  0
   23.6661  -35.4747   -9.0737 O   0  0  0  0  0  0  0  0  0  0  0  0
   22.2359  -33.7823   -9.3919 O   0  0  0  0  0  0  0  0  0  0  0  0
  2  1  1  1
  2 13  1  0
  2  3  1  0
  4  5  2  0
  4  3  1  0
  6  5  1  0
  7 12  2  0
  7  6  1  0
  8  7  1  0
  9 10  1  0
  9  8  2  0
 10 11  2  0
 11 12  1  0
 12  4  1  0
 13 14  2  0
 15 13  1  0
 15 16  1  0
 16 17  1  1
 18 17  1  0
 19 18  2  0
 20 21  1  0
 20 19  1  0
 21 22  2  0
 22 18  1  0
 23 24  2  0
 23 16  1  0
 25 26  1  0
 26 27  1  0
 27 28  1  0
 29 28  1  1
 29 30  1  0
 30 23  1  0
 31 29  1  0
 31 33  1  0
 32 31  2  0
M  END
$$$$
