WHM.pdb
     RDKit          3D

 33 35  0  0  1  0  0  0  0  0999 V2000
   25.8773  -19.0291  -11.0667 N   0  0  0  0  0  0  0  0  0  0  0  0
   26.2508  -20.3902  -11.4428 C   0  0  1  0  0  0  0  0  0  0  0  0
   25.8761  -21.3176  -10.2774 C   0  0  0  0  0  0  0  0  0  0  0  0
   26.5069  -20.7815   -9.0451 C   0  0  0  0  0  0  0  0  0  0  0  0
   25.8744  -20.1066   -8.0013 C   0  0  0  0  0  0  0  0  0  0  0  0
   26.7844  -19.7821   -7.0678 N   0  0  0  0  0  0  0  0  0  0  0  0
   27.9960  -20.2107   -7.4424 C   0  0  0  0  0  0  0  0  0  0  0  0
   29.2344  -20.1268   -6.8435 C   0  0  0  0  0  0  0  0  0  0  0  0
   30.3225  -20.6759   -7.4887 C   0  0  0  0  0  0  0  0  0  0  0  0
   30.1869  -21.3039   -8.7180 C   0  0  0  0  0  0  0  0  0  0  0  0
   28.9330  -21.3721   -9.2926 C   0  0  0  0  0  0  0  0  0  0  0  0
   27.8380  -20.8383   -8.6783 C   0  0  0  0  0  0  0  0  0  0  0  0
   25.6063  -20.8149  -12.6899 C   0  0  0  0  0  0  0  0  0  0  0  0
   24.4081  -20.4430  -12.8841 O   0  0  0  0  0  0  0  0  0  0  0  0
   26.2047  -21.6057  -13.7008 N   0  0  0  0  0  0  0  0  0  0  0  0
   25.4809  -21.9213  -14.9221 C   0  0  1  0  0  0  0  0  0  0  0  0
   26.4626  -22.5059  -15.9110 C   0  0  0  0  0  0  0  0  0  0  0  0
   25.8006  -22.7618  -17.1839 C   0  0  0  0  0  0  0  0  0  0  0  0
   24.4741  -22.6206  -17.4885 C   0  0  0  0  0  0  0  0  0  0  0  0
   24.2487  -22.9725  -18.7780 N   0  0  0  0  0  0  0  0  0  0  0  0
   25.4472  -23.3341  -19.2729 C   0  0  0  0  0  0  0  0  0  0  0  0
   26.3931  -23.2093  -18.3137 N   0  0  0  0  0  0  0  0  0  0  0  0
   24.3057  -22.7736  -14.6616 C   0  0  0  0  0  0  0  0  0  0  0  0
   24.2587  -23.5238  -13.6546 O   0  0  0  0  0  0  0  0  0  0  0  0
   18.1744  -21.3165  -11.2747 C   0  0  0  0  0  0  0  0  0  0  0  0
   19.7787  -21.0342  -12.0294 S   0  0  0  0  0  0  0  0  0  0  0  0
   20.1382  -22.2601  -13.3375 C   0  0  0  0  0  0  0  0  0  0  0  0
   21.5375  -22.0640  -13.8572 C   0  0  0  0  0  0  0  0  0  0  0  0
   21.7959  -23.0041  -14.9840 C   0  0  2  0  0  0  0  0  0  0  0  0
   23.1670  -22.8056  -15.5124 N   0  0  0  0  0  0  0  0  0  0  0  0
   20.8591  -22.9615  -16.1015 C   0  0  0  0  0  0  0  0  0  0  0  0
   20.9465  -22.0307  -16.9792 O   0  0  0  0  0  0  0  0  0  0  0  0
   19.8390  -23.8631  -16.3260 O   0  0  0  0  0  0  0  0  0  0  0  0
  2  1  1  1
  2 13  1  0
  2  3  1  0
  4  5  2  0
  4  3  1  0
  6  5  1  0
  7 12  2  0
  7  6  1  0
  8  7  1  0
  9 10  1  0
  9  8  2  0
 10 11  2  0
 11 12  1  0
 12  4  1  0
 13 14  2  0
 15 13  1  0
 15 16  1  0
 16 17  1  6
 18 17  1  0
 19 18  2  0
 20 21  1  0
 20 19  1  0
 21 22  2  0
 22 18  1  0
 23 24  2  0
 23 16  1  0
 25 26  1  0
 26 27  1  0
 27 28  1  0
 29 28  1  1
 29 30  1  0
 30 23  1  0
 31 29  1  0
 31 33  1  0
 32 31  2  0
M  END
$$$$
