WHM.pdb
     RDKit          3D

 33 35  0  0  1  0  0  0  0  0999 V2000
   19.3986  -18.1924  -15.5513 N   0  0  0  0  0  0  0  0  0  0  0  0
   20.8334  -18.0326  -15.7740 C   0  0  1  0  0  0  0  0  0  0  0  0
   21.2535  -16.6839  -15.1715 C   0  0  0  0  0  0  0  0  0  0  0  0
   21.0117  -15.6323  -16.1910 C   0  0  0  0  0  0  0  0  0  0  0  0
   19.9615  -14.7150  -16.2210 C   0  0  0  0  0  0  0  0  0  0  0  0
   20.0916  -13.9281  -17.3021 N   0  0  0  0  0  0  0  0  0  0  0  0
   21.1818  -14.2796  -17.9947 C   0  0  0  0  0  0  0  0  0  0  0  0
   21.7397  -13.7896  -19.1556 C   0  0  0  0  0  0  0  0  0  0  0  0
   22.8939  -14.3724  -19.6351 C   0  0  0  0  0  0  0  0  0  0  0  0
   23.4925  -15.4327  -18.9709 C   0  0  0  0  0  0  0  0  0  0  0  0
   22.9098  -15.9014  -17.8099 C   0  0  0  0  0  0  0  0  0  0  0  0
   21.7682  -15.3451  -17.3112 C   0  0  0  0  0  0  0  0  0  0  0  0
   21.6077  -19.1373  -15.1987 C   0  0  0  0  0  0  0  0  0  0  0  0
   21.2240  -19.5992  -14.0801 O   0  0  0  0  0  0  0  0  0  0  0  0
   22.7497  -19.7372  -15.7830 N   0  0  0  0  0  0  0  0  0  0  0  0
   23.4172  -20.8530  -15.1315 C   0  0  1  0  0  0  0  0  0  0  0  0
   23.9341  -21.7818  -16.2055 C   0  0  0  0  0  0  0  0  0  0  0  0
   24.5192  -22.9719  -15.6011 C   0  0  0  0  0  0  0  0  0  0  0  0
   24.6048  -23.2883  -14.2726 C   0  0  0  0  0  0  0  0  0  0  0  0
   25.2334  -24.4786  -14.1133 N   0  0  0  0  0  0  0  0  0  0  0  0
   25.5384  -24.8998  -15.3549 C   0  0  0  0  0  0  0  0  0  0  0  0
   25.1091  -23.9929  -16.2624 N   0  0  0  0  0  0  0  0  0  0  0  0
   24.4473  -20.3986  -14.1786 C   0  0  0  0  0  0  0  0  0  0  0  0
   25.1036  -19.3471  -14.3853 O   0  0  0  0  0  0  0  0  0  0  0  0
   27.0758  -20.2007   -6.7452 C   0  0  0  0  0  0  0  0  0  0  0  0
   25.9296  -20.8772   -7.9500 S   0  0  0  0  0  0  0  0  0  0  0  0
   26.4200  -20.4604   -9.6615 C   0  0  0  0  0  0  0  0  0  0  0  0
   25.3588  -20.9158  -10.6273 C   0  0  0  0  0  0  0  0  0  0  0  0
   25.7768  -20.6047  -12.0232 C   0  0  2  0  0  0  0  0  0  0  0  0
   24.7633  -21.1023  -12.9843 N   0  0  0  0  0  0  0  0  0  0  0  0
   27.0873  -21.0924  -12.4393 C   0  0  0  0  0  0  0  0  0  0  0  0
   27.2102  -22.2735  -12.9235 O   0  0  0  0  0  0  0  0  0  0  0  0
   28.2672  -20.3809  -12.3650 O   0  0  0  0  0  0  0  0  0  0  0  0
  2  1  1  1
  2 13  1  0
  2  3  1  0
  4  5  2  0
  4  3  1  0
  6  5  1  0
  7 12  2  0
  7  6  1  0
  8  7  1  0
  9 10  1  0
  9  8  2  0
 10 11  2  0
 11 12  1  0
 12  4  1  0
 13 14  2  0
 15 13  1  0
 15 16  1  0
 16 17  1  6
 18 17  1  0
 19 18  2  0
 20 21  1  0
 20 19  1  0
 21 22  2  0
 22 18  1  0
 23 24  2  0
 23 16  1  0
 25 26  1  0
 26 27  1  0
 27 28  1  0
 29 28  1  1
 29 30  1  0
 30 23  1  0
 31 29  1  0
 31 33  1  0
 32 31  2  0
M  END
$$$$
