WHM.pdb
     RDKit          3D

 33 35  0  0  1  0  0  0  0  0999 V2000
   27.0757  -21.4053  -12.4680 N   0  0  0  0  0  0  0  0  0  0  0  0
   25.9240  -21.4797  -11.5725 C   0  0  1  0  0  0  0  0  0  0  0  0
   26.1343  -20.4501  -10.4526 C   0  0  0  0  0  0  0  0  0  0  0  0
   27.4571  -20.7128   -9.8322 C   0  0  0  0  0  0  0  0  0  0  0  0
   28.5741  -21.2835  -10.4420 C   0  0  0  0  0  0  0  0  0  0  0  0
   29.5775  -21.3536   -9.5515 N   0  0  0  0  0  0  0  0  0  0  0  0
   29.1797  -20.8548   -8.3747 C   0  0  0  0  0  0  0  0  0  0  0  0
   29.8254  -20.7040   -7.1666 C   0  0  0  0  0  0  0  0  0  0  0  0
   29.1372  -20.1432   -6.1113 C   0  0  0  0  0  0  0  0  0  0  0  0
   27.8191  -19.7341   -6.2498 C   0  0  0  0  0  0  0  0  0  0  0  0
   27.1993  -19.8982   -7.4730 C   0  0  0  0  0  0  0  0  0  0  0  0
   27.8544  -20.4497   -8.5351 C   0  0  0  0  0  0  0  0  0  0  0  0
   24.6597  -21.2478  -12.2787 C   0  0  0  0  0  0  0  0  0  0  0  0
   24.2193  -20.0575  -12.3124 O   0  0  0  0  0  0  0  0  0  0  0  0
   23.8839  -22.2378  -12.9295 N   0  0  0  0  0  0  0  0  0  0  0  0
   22.6402  -21.8864  -13.5963 C   0  0  1  0  0  0  0  0  0  0  0  0
   22.8813  -21.9234  -15.0876 C   0  0  0  0  0  0  0  0  0  0  0  0
   23.6506  -20.7566  -15.5009 C   0  0  0  0  0  0  0  0  0  0  0  0
   24.1120  -19.7309  -14.7215 C   0  0  0  0  0  0  0  0  0  0  0  0
   24.7746  -18.8252  -15.4819 N   0  0  0  0  0  0  0  0  0  0  0  0
   24.7210  -19.2968  -16.7416 C   0  0  0  0  0  0  0  0  0  0  0  0
   24.0419  -20.4667  -16.7620 N   0  0  0  0  0  0  0  0  0  0  0  0
   21.5160  -22.7279  -13.1450 C   0  0  0  0  0  0  0  0  0  0  0  0
   21.6241  -23.9784  -13.0873 O   0  0  0  0  0  0  0  0  0  0  0  0
   18.0465  -24.8370   -7.2955 C   0  0  0  0  0  0  0  0  0  0  0  0
   18.0254  -23.4371   -8.4193 S   0  0  0  0  0  0  0  0  0  0  0  0
   18.7525  -23.8595  -10.0429 C   0  0  0  0  0  0  0  0  0  0  0  0
   18.6630  -22.6776  -10.9711 C   0  0  0  0  0  0  0  0  0  0  0  0
   19.1327  -23.0646  -12.3311 C   0  0  2  0  0  0  0  0  0  0  0  0
   20.2581  -22.1952  -12.7510 N   0  0  0  0  0  0  0  0  0  0  0  0
   18.1324  -23.0713  -13.3931 C   0  0  0  0  0  0  0  0  0  0  0  0
   17.9957  -22.0486  -14.1545 O   0  0  0  0  0  0  0  0  0  0  0  0
   17.2764  -24.1146  -13.6802 O   0  0  0  0  0  0  0  0  0  0  0  0
  2  1  1  6
  2 13  1  0
  2  3  1  0
  4  5  2  0
  4  3  1  0
  6  5  1  0
  7 12  2  0
  7  6  1  0
  8  7  1  0
  9 10  1  0
  9  8  2  0
 10 11  2  0
 11 12  1  0
 12  4  1  0
 13 14  2  0
 15 13  1  0
 15 16  1  0
 16 17  1  6
 18 17  1  0
 19 18  2  0
 20 21  1  0
 20 19  1  0
 21 22  2  0
 22 18  1  0
 23 24  2  0
 23 16  1  0
 25 26  1  0
 26 27  1  0
 27 28  1  0
 29 28  1  1
 29 30  1  0
 30 23  1  0
 31 29  1  0
 31 33  1  0
 32 31  2  0
M  END
$$$$
