WHM.pdb
     RDKit          3D

 33 35  0  0  1  0  0  0  0  0999 V2000
   30.4038  -36.1757   -7.5950 N   0  0  0  0  0  0  0  0  0  0  0  0
   29.7368  -35.6146   -6.4229 C   0  0  1  0  0  0  0  0  0  0  0  0
   28.2223  -35.7607   -6.6312 C   0  0  0  0  0  0  0  0  0  0  0  0
   27.7602  -34.6118   -7.4501 C   0  0  0  0  0  0  0  0  0  0  0  0
   27.9580  -34.4195   -8.8172 C   0  0  0  0  0  0  0  0  0  0  0  0
   27.3898  -33.2600   -9.1881 N   0  0  0  0  0  0  0  0  0  0  0  0
   26.8216  -32.6702   -8.1292 C   0  0  0  0  0  0  0  0  0  0  0  0
   26.1264  -31.4887   -7.9892 C   0  0  0  0  0  0  0  0  0  0  0  0
   25.6522  -31.1410   -6.7418 C   0  0  0  0  0  0  0  0  0  0  0  0
   25.8641  -31.9566   -5.6401 C   0  0  0  0  0  0  0  0  0  0  0  0
   26.5642  -33.1345   -5.8122 C   0  0  0  0  0  0  0  0  0  0  0  0
   27.0454  -33.5049   -7.0339 C   0  0  0  0  0  0  0  0  0  0  0  0
   30.1683  -36.2617   -5.1796 C   0  0  0  0  0  0  0  0  0  0  0  0
   29.9395  -37.5046   -5.0581 O   0  0  0  0  0  0  0  0  0  0  0  0
   30.8207  -35.6207   -4.0984 N   0  0  0  0  0  0  0  0  0  0  0  0
   31.1830  -36.3657   -2.9032 C   0  0  1  0  0  0  0  0  0  0  0  0
   32.4636  -35.7794   -2.3556 C   0  0  0  0  0  0  0  0  0  0  0  0
   33.6117  -36.5218   -2.8604 C   0  0  0  0  0  0  0  0  0  0  0  0
   33.6275  -37.7645   -3.4329 C   0  0  0  0  0  0  0  0  0  0  0  0
   34.8958  -38.1149   -3.7586 N   0  0  0  0  0  0  0  0  0  0  0  0
   35.6690  -37.0789   -3.3834 C   0  0  0  0  0  0  0  0  0  0  0  0
   34.8990  -36.1092   -2.8383 N   0  0  0  0  0  0  0  0  0  0  0  0
   30.0768  -36.4166   -1.9289 C   0  0  0  0  0  0  0  0  0  0  0  0
   29.2238  -35.4960   -1.8673 O   0  0  0  0  0  0  0  0  0  0  0  0
   25.9708  -40.5025    3.5191 C   0  0  0  0  0  0  0  0  0  0  0  0
   27.3637  -40.4478    2.3878 S   0  0  0  0  0  0  0  0  0  0  0  0
   27.5791  -38.7856    1.6568 C   0  0  0  0  0  0  0  0  0  0  0  0
   28.7038  -38.8042    0.6563 C   0  0  0  0  0  0  0  0  0  0  0  0
   28.8631  -37.4535    0.0478 C   0  0  2  0  0  0  0  0  0  0  0  0
   29.9005  -37.4878   -1.0110 N   0  0  0  0  0  0  0  0  0  0  0  0
   29.1684  -36.3558    0.9589 C   0  0  0  0  0  0  0  0  0  0  0  0
   30.3874  -36.0697    1.2359 O   0  0  0  0  0  0  0  0  0  0  0  0
   28.2377  -35.5515    1.5840 O   0  0  0  0  0  0  0  0  0  0  0  0
  2  1  1  6
  2 13  1  0
  2  3  1  0
  4  5  2  0
  4  3  1  0
  6  5  1  0
  7 12  2  0
  7  6  1  0
  8  7  1  0
  9 10  1  0
  9  8  2  0
 10 11  2  0
 11 12  1  0
 12  4  1  0
 13 14  2  0
 15 13  1  0
 15 16  1  0
 16 17  1  1
 18 17  1  0
 19 18  2  0
 20 21  1  0
 20 19  1  0
 21 22  2  0
 22 18  1  0
 23 24  2  0
 23 16  1  0
 25 26  1  0
 26 27  1  0
 27 28  1  0
 29 28  1  1
 29 30  1  0
 30 23  1  0
 31 29  1  0
 31 33  1  0
 32 31  2  0
M  END
$$$$
