WHM.pdb
     RDKit          3D

 33 35  0  0  1  0  0  0  0  0999 V2000
   28.3696  -20.2434   -9.6331 N   0  0  0  0  0  0  0  0  0  0  0  0
   27.1166  -20.9881   -9.5375 C   0  0  1  0  0  0  0  0  0  0  0  0
   26.2450  -20.3036   -8.4744 C   0  0  0  0  0  0  0  0  0  0  0  0
   27.1463  -19.6000   -7.5276 C   0  0  0  0  0  0  0  0  0  0  0  0
   27.5224  -18.2574   -7.5642 C   0  0  0  0  0  0  0  0  0  0  0  0
   28.3487  -18.0009   -6.5363 N   0  0  0  0  0  0  0  0  0  0  0  0
   28.5404  -19.1125   -5.8156 C   0  0  0  0  0  0  0  0  0  0  0  0
   29.2873  -19.3667   -4.6858 C   0  0  0  0  0  0  0  0  0  0  0  0
   29.2862  -20.6424   -4.1622 C   0  0  0  0  0  0  0  0  0  0  0  0
   28.5512  -21.6602   -4.7520 C   0  0  0  0  0  0  0  0  0  0  0  0
   27.8125  -21.3743   -5.8833 C   0  0  0  0  0  0  0  0  0  0  0  0
   27.7939  -20.1219   -6.4241 C   0  0  0  0  0  0  0  0  0  0  0  0
   26.4214  -21.0666  -10.8264 C   0  0  0  0  0  0  0  0  0  0  0  0
   26.2859  -19.9888  -11.4835 O   0  0  0  0  0  0  0  0  0  0  0  0
   25.8862  -22.2428  -11.4055 N   0  0  0  0  0  0  0  0  0  0  0  0
   25.1729  -22.1884  -12.6717 C   0  0  1  0  0  0  0  0  0  0  0  0
   25.1144  -23.5884  -13.2373 C   0  0  0  0  0  0  0  0  0  0  0  0
   24.5976  -23.5583  -14.5997 C   0  0  0  0  0  0  0  0  0  0  0  0
   24.1599  -22.4753  -15.3123 C   0  0  0  0  0  0  0  0  0  0  0  0
   23.7420  -22.8610  -16.5427 N   0  0  0  0  0  0  0  0  0  0  0  0
   23.9235  -24.1940  -16.5891 C   0  0  0  0  0  0  0  0  0  0  0  0
   24.4417  -24.6247  -15.4159 N   0  0  0  0  0  0  0  0  0  0  0  0
   23.8569  -21.5364  -12.5353 C   0  0  0  0  0  0  0  0  0  0  0  0
   23.5496  -20.9073  -11.4918 O   0  0  0  0  0  0  0  0  0  0  0  0
   22.0222  -15.1481  -15.3226 C   0  0  0  0  0  0  0  0  0  0  0  0
   23.0193  -16.5933  -14.9482 S   0  0  0  0  0  0  0  0  0  0  0  0
   21.9875  -18.0202  -14.4555 C   0  0  0  0  0  0  0  0  0  0  0  0
   22.8599  -19.2143  -14.1736 C   0  0  0  0  0  0  0  0  0  0  0  0
   22.0119  -20.3990  -13.8612 C   0  0  2  0  0  0  0  0  0  0  0  0
   22.8646  -21.5722  -13.5528 N   0  0  0  0  0  0  0  0  0  0  0  0
   21.0345  -20.7903  -14.8711 C   0  0  0  0  0  0  0  0  0  0  0  0
   19.7802  -20.6679  -14.6340 O   0  0  0  0  0  0  0  0  0  0  0  0
   21.3320  -21.3022  -16.1174 O   0  0  0  0  0  0  0  0  0  0  0  0
  2  1  1  6
  2 13  1  0
  2  3  1  0
  4  5  2  0
  4  3  1  0
  6  5  1  0
  7 12  2  0
  7  6  1  0
  8  7  1  0
  9 10  1  0
  9  8  2  0
 10 11  2  0
 11 12  1  0
 12  4  1  0
 13 14  2  0
 15 13  1  0
 15 16  1  0
 16 17  1  1
 18 17  1  0
 19 18  2  0
 20 21  1  0
 20 19  1  0
 21 22  2  0
 22 18  1  0
 23 24  2  0
 23 16  1  0
 25 26  1  0
 26 27  1  0
 27 28  1  0
 29 28  1  6
 29 30  1  0
 30 23  1  0
 31 29  1  0
 31 33  1  0
 32 31  2  0
M  END
$$$$
