IVK.pdb
     RDKit          3D

 25 24  0  0  1  0  0  0  0  0999 V2000
    6.6472  -11.0892   27.9394 C   0  0  0  0  0  0  0  0  0  0  0  0
    5.8490  -12.0912   27.1114 C   0  0  0  0  0  0  0  0  0  0  0  0
    6.7434  -13.0605   26.4086 C   0  0  2  0  0  0  0  0  0  0  0  0
    7.8056  -12.3610   25.5791 C   0  0  0  0  0  0  0  0  0  0  0  0
    6.0128  -13.9984   25.4833 C   0  0  2  0  0  0  0  0  0  0  0  0
    5.0117  -14.6839   26.2756 N   0  0  0  0  0  0  0  0  0  0  0  0
    6.8804  -14.8996   24.7406 C   0  0  0  0  0  0  0  0  0  0  0  0
    7.3637  -15.9215   25.2578 O   0  0  0  0  0  0  0  0  0  0  0  0
    6.8140  -15.4008   20.3814 C   0  0  0  0  0  0  0  0  0  0  0  0
    8.1356  -15.3556   21.1324 C   0  0  1  0  0  0  0  0  0  0  0  0
    8.9531  -14.1419   20.7592 C   0  0  0  0  0  0  0  0  0  0  0  0
    8.0023  -15.5939   22.5785 C   0  0  2  0  0  0  0  0  0  0  0  0
    7.2600  -14.7117   23.3733 N   0  0  0  0  0  0  0  0  0  0  0  0
    9.3894  -15.7209   23.1488 C   0  0  0  0  0  0  0  0  0  0  0  0
    9.9390  -14.7487   23.7364 O   0  0  0  0  0  0  0  0  0  0  0  0
   10.1238  -16.9183   23.0511 N   0  0  0  0  0  0  0  0  0  0  0  0
   11.3355  -17.1476   23.9520 C   0  0  1  0  0  0  0  0  0  0  0  0
   11.1624  -18.5742   24.3444 C   0  0  0  0  0  0  0  0  0  0  0  0
   12.2395  -19.2518   25.0364 C   0  0  0  0  0  0  0  0  0  0  0  0
   12.1031  -20.6564   25.4367 C   0  0  0  0  0  0  0  0  0  0  0  0
   13.4145  -21.1202   26.1477 C   0  0  0  0  0  0  0  0  0  0  0  0
   13.0514  -21.1937   27.5563 N   0  0  0  0  0  0  0  0  0  0  0  0
   12.4335  -16.9832   22.9713 C   0  0  0  0  0  0  0  0  0  0  0  0
   13.5949  -16.6753   23.2465 O   0  0  0  0  0  0  0  0  0  0  0  0
   12.1832  -17.1851   21.5998 O   0  0  0  0  0  0  0  0  0  0  0  0
  1  2  1  0
  2  3  1  0
  3  5  1  0
  3  4  1  6
  5  7  1  0
  5  6  1  1
  7  8  2  0
 10 11  1  1
 10  9  1  0
 10 12  1  0
 12 14  1  0
 12 13  1  1
 13  7  1  0
 14 15  2  0
 16 14  1  0
 16 17  1  0
 17 23  1  0
 17 18  1  6
 19 18  1  0
 20 21  1  0
 20 19  1  0
 21 22  1  0
 23 24  2  0
 23 25  1  0
M  END
$$$$
