IVK.pdb
     RDKit          3D

 25 24  0  0  1  0  0  0  0  0999 V2000
    6.3630  -11.2035   27.6527 C   0  0  0  0  0  0  0  0  0  0  0  0
    5.8422  -12.5178   27.0802 C   0  0  0  0  0  0  0  0  0  0  0  0
    6.8853  -13.2166   26.2696 C   0  0  2  0  0  0  0  0  0  0  0  0
    7.4337  -12.3356   25.1611 C   0  0  0  0  0  0  0  0  0  0  0  0
    6.3988  -14.4857   25.6198 C   0  0  2  0  0  0  0  0  0  0  0  0
    6.0315  -15.3959   26.6858 N   0  0  0  0  0  0  0  0  0  0  0  0
    7.3310  -15.0610   24.6625 C   0  0  0  0  0  0  0  0  0  0  0  0
    8.2058  -15.8752   25.0050 O   0  0  0  0  0  0  0  0  0  0  0  0
    8.3578  -13.4955   20.7132 C   0  0  0  0  0  0  0  0  0  0  0  0
    7.9995  -14.9651   20.8701 C   0  0  1  0  0  0  0  0  0  0  0  0
    8.7351  -15.8323   19.8763 C   0  0  0  0  0  0  0  0  0  0  0  0
    8.0461  -15.4396   22.2624 C   0  0  2  0  0  0  0  0  0  0  0  0
    7.3408  -14.7599   23.2632 N   0  0  0  0  0  0  0  0  0  0  0  0
    9.4940  -15.5379   22.6616 C   0  0  0  0  0  0  0  0  0  0  0  0
   10.1338  -14.5155   23.0330 O   0  0  0  0  0  0  0  0  0  0  0  0
   10.1875  -16.7632   22.6376 N   0  0  0  0  0  0  0  0  0  0  0  0
   11.5535  -16.8818   23.3102 C   0  0  1  0  0  0  0  0  0  0  0  0
   11.4403  -18.1926   24.0089 C   0  0  0  0  0  0  0  0  0  0  0  0
   11.5195  -18.2313   25.4546 C   0  0  0  0  0  0  0  0  0  0  0  0
   11.3453  -19.4951   26.1787 C   0  0  0  0  0  0  0  0  0  0  0  0
   11.2584  -19.2044   27.7110 C   0  0  0  0  0  0  0  0  0  0  0  0
   11.0571  -20.5152   28.3134 N   0  0  0  0  0  0  0  0  0  0  0  0
   12.4310  -16.9742   22.1205 C   0  0  0  0  0  0  0  0  0  0  0  0
   13.6172  -16.6411   22.0820 O   0  0  0  0  0  0  0  0  0  0  0  0
   11.9175  -17.4782   20.9093 O   0  0  0  0  0  0  0  0  0  0  0  0
  1  2  1  0
  2  3  1  0
  3  5  1  0
  3  4  1  6
  5  7  1  0
  5  6  1  1
  7  8  2  0
 10 11  1  6
 10  9  1  0
 10 12  1  0
 12 14  1  0
 12 13  1  1
 13  7  1  0
 14 15  2  0
 16 14  1  0
 16 17  1  0
 17 23  1  0
 17 18  1  1
 19 18  1  0
 20 21  1  0
 20 19  1  0
 21 22  1  0
 23 24  2  0
 23 25  1  0
M  END
$$$$
