IVK.pdb
     RDKit          3D

 25 24  0  0  1  0  0  0  0  0999 V2000
    6.9147  -18.2151   19.4424 C   0  0  0  0  0  0  0  0  0  0  0  0
    7.0685  -16.7150   19.6714 C   0  0  0  0  0  0  0  0  0  0  0  0
    7.6951  -16.4219   20.9961 C   0  0  2  0  0  0  0  0  0  0  0  0
    6.9658  -17.1072   22.1380 C   0  0  0  0  0  0  0  0  0  0  0  0
    7.7491  -14.9537   21.3296 C   0  0  2  0  0  0  0  0  0  0  0  0
    8.4026  -14.2889   20.2203 N   0  0  0  0  0  0  0  0  0  0  0  0
    8.3527  -14.6569   22.6196 C   0  0  0  0  0  0  0  0  0  0  0  0
    9.5327  -14.9519   22.8764 O   0  0  0  0  0  0  0  0  0  0  0  0
    5.9882  -13.2253   26.0789 C   0  0  0  0  0  0  0  0  0  0  0  0
    7.4571  -12.8721   25.9050 C   0  0  1  0  0  0  0  0  0  0  0  0
    8.1405  -12.6399   27.2316 C   0  0  0  0  0  0  0  0  0  0  0  0
    8.1756  -13.7680   24.9847 C   0  0  2  0  0  0  0  0  0  0  0  0
    7.6720  -14.0118   23.7009 N   0  0  0  0  0  0  0  0  0  0  0  0
    8.3760  -15.0815   25.6918 C   0  0  0  0  0  0  0  0  0  0  0  0
    7.4610  -15.9503   25.7147 O   0  0  0  0  0  0  0  0  0  0  0  0
    9.5812  -15.3920   26.3504 N   0  0  0  0  0  0  0  0  0  0  0  0
    9.7693  -16.7642   26.9938 C   0  0  1  0  0  0  0  0  0  0  0  0
   10.9214  -17.3106   26.2238 C   0  0  0  0  0  0  0  0  0  0  0  0
   11.5634  -18.5259   26.6808 C   0  0  0  0  0  0  0  0  0  0  0  0
   12.7106  -19.0828   25.9558 C   0  0  0  0  0  0  0  0  0  0  0  0
   13.1113  -20.4503   26.5957 C   0  0  0  0  0  0  0  0  0  0  0  0
   14.2879  -20.8662   25.8446 N   0  0  0  0  0  0  0  0  0  0  0  0
   10.1707  -16.3656   28.3628 C   0  0  0  0  0  0  0  0  0  0  0  0
   10.5208  -15.2333   28.7018 O   0  0  0  0  0  0  0  0  0  0  0  0
   10.1684  -17.3201   29.3989 O   0  0  0  0  0  0  0  0  0  0  0  0
  1  2  1  0
  2  3  1  0
  3  5  1  0
  3  4  1  1
  5  7  1  0
  5  6  1  6
  7  8  2  0
 10 11  1  1
 10  9  1  0
 10 12  1  0
 12 14  1  0
 12 13  1  6
 13  7  1  0
 14 15  2  0
 16 14  1  0
 16 17  1  0
 17 23  1  0
 17 18  1  6
 19 18  1  0
 20 21  1  0
 20 19  1  0
 21 22  1  0
 23 24  2  0
 23 25  1  0
M  END
$$$$
