IVK.pdb
     RDKit          3D

 25 24  0  0  1  0  0  0  0  0999 V2000
    6.9051  -11.7316   28.2694 C   0  0  0  0  0  0  0  0  0  0  0  0
    6.1392  -12.7198   27.3957 C   0  0  0  0  0  0  0  0  0  0  0  0
    7.0487  -13.4431   26.4559 C   0  0  2  0  0  0  0  0  0  0  0  0
    7.8763  -12.4891   25.6130 C   0  0  0  0  0  0  0  0  0  0  0  0
    6.3291  -14.3595   25.5009 C   0  0  2  0  0  0  0  0  0  0  0  0
    5.5641  -15.2936   26.3021 N   0  0  0  0  0  0  0  0  0  0  0  0
    7.1958  -15.0059   24.5274 C   0  0  0  0  0  0  0  0  0  0  0  0
    7.8299  -16.0406   24.7968 O   0  0  0  0  0  0  0  0  0  0  0  0
    6.7148  -14.3760   20.2399 C   0  0  0  0  0  0  0  0  0  0  0  0
    8.1031  -14.6353   20.8040 C   0  0  1  0  0  0  0  0  0  0  0  0
    9.0205  -13.4522   20.6058 C   0  0  0  0  0  0  0  0  0  0  0  0
    8.0932  -15.1922   22.1662 C   0  0  2  0  0  0  0  0  0  0  0  0
    7.4054  -14.5331   23.1926 N   0  0  0  0  0  0  0  0  0  0  0  0
    9.5244  -15.3957   22.5852 C   0  0  0  0  0  0  0  0  0  0  0  0
   10.0887  -14.5887   23.3744 O   0  0  0  0  0  0  0  0  0  0  0  0
   10.2854  -16.4847   22.1185 N   0  0  0  0  0  0  0  0  0  0  0  0
   11.5565  -16.9009   22.8555 C   0  0  1  0  0  0  0  0  0  0  0  0
   11.1678  -18.2246   23.4175 C   0  0  0  0  0  0  0  0  0  0  0  0
   11.8789  -18.7388   24.5698 C   0  0  0  0  0  0  0  0  0  0  0  0
   11.4291  -19.9639   25.2396 C   0  0  0  0  0  0  0  0  0  0  0  0
   12.3439  -20.2425   26.4748 C   0  0  0  0  0  0  0  0  0  0  0  0
   11.4804  -19.9989   27.6222 N   0  0  0  0  0  0  0  0  0  0  0  0
   12.4912  -17.0479   21.7157 C   0  0  0  0  0  0  0  0  0  0  0  0
   12.1617  -17.2461   20.5446 O   0  0  0  0  0  0  0  0  0  0  0  0
   13.8803  -16.9609   21.9338 O   0  0  0  0  0  0  0  0  0  0  0  0
  1  2  1  0
  2  3  1  0
  3  5  1  0
  3  4  1  6
  5  7  1  0
  5  6  1  1
  7  8  2  0
 10 11  1  1
 10  9  1  0
 10 12  1  0
 12 14  1  0
 12 13  1  1
 13  7  1  0
 14 15  2  0
 16 14  1  0
 16 17  1  0
 17 23  1  0
 17 18  1  6
 19 18  1  0
 20 21  1  0
 20 19  1  0
 21 22  1  0
 23 24  2  0
 23 25  1  0
M  END
$$$$
