IVK.pdb
     RDKit          3D

 25 24  0  0  1  0  0  0  0  0999 V2000
    6.7346  -11.5370   27.6316 C   0  0  0  0  0  0  0  0  0  0  0  0
    6.0022  -12.6647   26.9114 C   0  0  0  0  0  0  0  0  0  0  0  0
    6.9478  -13.5383   26.1524 C   0  0  2  0  0  0  0  0  0  0  0  0
    7.7970  -12.7472   25.1734 C   0  0  0  0  0  0  0  0  0  0  0  0
    6.2671  -14.6256   25.3624 C   0  0  2  0  0  0  0  0  0  0  0  0
    5.5263  -15.4377   26.3065 N   0  0  0  0  0  0  0  0  0  0  0  0
    7.1630  -15.3961   24.5137 C   0  0  0  0  0  0  0  0  0  0  0  0
    7.7680  -16.3972   24.9346 O   0  0  0  0  0  0  0  0  0  0  0  0
    6.9272  -15.6640   20.1595 C   0  0  0  0  0  0  0  0  0  0  0  0
    8.2802  -15.4980   20.8337 C   0  0  1  0  0  0  0  0  0  0  0  0
    8.9304  -14.1834   20.4736 C   0  0  0  0  0  0  0  0  0  0  0  0
    8.2663  -15.8106   22.2718 C   0  0  2  0  0  0  0  0  0  0  0  0
    7.4362  -15.0929   23.1417 N   0  0  0  0  0  0  0  0  0  0  0  0
    9.6849  -15.7313   22.7685 C   0  0  0  0  0  0  0  0  0  0  0  0
   10.1357  -14.6655   23.2720 O   0  0  0  0  0  0  0  0  0  0  0  0
   10.5591  -16.8326   22.6930 N   0  0  0  0  0  0  0  0  0  0  0  0
   11.8956  -16.8000   23.4311 C   0  0  1  0  0  0  0  0  0  0  0  0
   11.9087  -18.1288   24.1041 C   0  0  0  0  0  0  0  0  0  0  0  0
   13.0975  -18.5470   24.8181 C   0  0  0  0  0  0  0  0  0  0  0  0
   13.1837  -19.8891   25.4038 C   0  0  0  0  0  0  0  0  0  0  0  0
   14.6170  -20.1074   25.9855 C   0  0  0  0  0  0  0  0  0  0  0  0
   14.5973  -21.4766   26.4820 N   0  0  0  0  0  0  0  0  0  0  0  0
   12.8337  -16.7619   22.2854 C   0  0  0  0  0  0  0  0  0  0  0  0
   13.9872  -16.3286   22.3225 O   0  0  0  0  0  0  0  0  0  0  0  0
   12.4242  -17.2497   21.0288 O   0  0  0  0  0  0  0  0  0  0  0  0
  1  2  1  0
  2  3  1  0
  3  5  1  0
  3  4  1  6
  5  7  1  0
  5  6  1  1
  7  8  2  0
 10 11  1  1
 10  9  1  0
 10 12  1  0
 12 14  1  0
 12 13  1  1
 13  7  1  0
 14 15  2  0
 16 14  1  0
 16 17  1  0
 17 23  1  0
 17 18  1  6
 19 18  1  0
 20 21  1  0
 20 19  1  0
 21 22  1  0
 23 24  2  0
 23 25  1  0
M  END
$$$$
