IVK.pdb
     RDKit          3D

 25 24  0  0  1  0  0  0  0  0999 V2000
    5.9068  -21.1093   23.9338 C   0  0  0  0  0  0  0  0  0  0  0  0
    5.4397  -19.7206   23.5095 C   0  0  0  0  0  0  0  0  0  0  0  0
    6.4176  -18.6645   23.9115 C   0  0  2  0  0  0  0  0  0  0  0  0
    6.7033  -18.6872   25.4027 C   0  0  0  0  0  0  0  0  0  0  0  0
    5.9727  -17.2657   23.5724 C   0  0  2  0  0  0  0  0  0  0  0  0
    5.6457  -17.2535   22.1608 N   0  0  0  0  0  0  0  0  0  0  0  0
    6.9187  -16.2293   23.9566 C   0  0  0  0  0  0  0  0  0  0  0  0
    7.9968  -16.0692   23.3589 O   0  0  0  0  0  0  0  0  0  0  0  0
    5.9264  -12.5622   25.5263 C   0  0  0  0  0  0  0  0  0  0  0  0
    7.1798  -13.1394   26.1655 C   0  0  1  0  0  0  0  0  0  0  0  0
    7.0738  -13.1837   27.6713 C   0  0  0  0  0  0  0  0  0  0  0  0
    7.6418  -14.3881   25.5385 C   0  0  2  0  0  0  0  0  0  0  0  0
    6.7152  -15.3088   25.0337 N   0  0  0  0  0  0  0  0  0  0  0  0
    8.5419  -15.0858   26.5226 C   0  0  0  0  0  0  0  0  0  0  0  0
    8.0703  -15.8879   27.3751 O   0  0  0  0  0  0  0  0  0  0  0  0
    9.9341  -14.8744   26.5322 N   0  0  0  0  0  0  0  0  0  0  0  0
   10.8675  -15.9536   27.0767 C   0  0  1  0  0  0  0  0  0  0  0  0
   12.0917  -15.7464   26.2536 C   0  0  0  0  0  0  0  0  0  0  0  0
   12.7360  -16.8923   25.6457 C   0  0  0  0  0  0  0  0  0  0  0  0
   13.8934  -16.7167   24.7617 C   0  0  0  0  0  0  0  0  0  0  0  0
   14.3976  -18.1169   24.2870 C   0  0  0  0  0  0  0  0  0  0  0  0
   15.4997  -17.8136   23.3842 N   0  0  0  0  0  0  0  0  0  0  0  0
   11.0568  -15.4693   28.4637 C   0  0  0  0  0  0  0  0  0  0  0  0
   11.7194  -16.0387   29.3334 O   0  0  0  0  0  0  0  0  0  0  0  0
   10.4527  -14.2642   28.8730 O   0  0  0  0  0  0  0  0  0  0  0  0
  1  2  1  0
  2  3  1  0
  3  5  1  0
  3  4  1  1
  5  7  1  0
  5  6  1  6
  7  8  2  0
 10 11  1  1
 10  9  1  0
 10 12  1  0
 12 14  1  0
 12 13  1  1
 13  7  1  0
 14 15  2  0
 16 14  1  0
 16 17  1  0
 17 23  1  0
 17 18  1  6
 19 18  1  0
 20 21  1  0
 20 19  1  0
 21 22  1  0
 23 24  2  0
 23 25  1  0
M  END
$$$$
