IVK.pdb
     RDKit          3D

 25 24  0  0  1  0  0  0  0  0999 V2000
    8.4262  -20.5394   29.6583 C   0  0  0  0  0  0  0  0  0  0  0  0
    7.1569  -19.8833   29.1243 C   0  0  0  0  0  0  0  0  0  0  0  0
    7.4356  -19.0469   27.9176 C   0  0  2  0  0  0  0  0  0  0  0  0
    8.5433  -18.0381   28.1643 C   0  0  0  0  0  0  0  0  0  0  0  0
    6.2398  -18.2729   27.4271 C   0  0  2  0  0  0  0  0  0  0  0  0
    5.2065  -19.2393   27.1138 N   0  0  0  0  0  0  0  0  0  0  0  0
    6.5289  -17.3588   26.3328 C   0  0  0  0  0  0  0  0  0  0  0  0
    6.6898  -17.7594   25.1671 O   0  0  0  0  0  0  0  0  0  0  0  0
    7.5292  -13.0554   26.9477 C   0  0  0  0  0  0  0  0  0  0  0  0
    6.8357  -13.5808   25.7004 C   0  0  1  0  0  0  0  0  0  0  0  0
    7.1134  -12.7140   24.4953 C   0  0  0  0  0  0  0  0  0  0  0  0
    7.0230  -15.0243   25.4836 C   0  0  2  0  0  0  0  0  0  0  0  0
    6.6555  -15.9403   26.4770 N   0  0  0  0  0  0  0  0  0  0  0  0
    8.4664  -15.2465   25.1197 C   0  0  0  0  0  0  0  0  0  0  0  0
    9.3232  -15.5162   26.0061 O   0  0  0  0  0  0  0  0  0  0  0  0
    8.9159  -15.1636   23.7878 N   0  0  0  0  0  0  0  0  0  0  0  0
   10.0168  -16.0991   23.2928 C   0  0  1  0  0  0  0  0  0  0  0  0
    9.8718  -15.9908   21.8142 C   0  0  0  0  0  0  0  0  0  0  0  0
   10.8144  -16.6831   20.9596 C   0  0  0  0  0  0  0  0  0  0  0  0
   10.7150  -16.5793   19.4998 C   0  0  0  0  0  0  0  0  0  0  0  0
   11.9142  -17.3370   18.8456 C   0  0  0  0  0  0  0  0  0  0  0  0
   11.7543  -17.0959   17.4181 N   0  0  0  0  0  0  0  0  0  0  0  0
   11.2178  -15.3787   23.7752 C   0  0  0  0  0  0  0  0  0  0  0  0
   12.2430  -15.9105   24.2062 O   0  0  0  0  0  0  0  0  0  0  0  0
   11.2424  -13.9702   23.7601 O   0  0  0  0  0  0  0  0  0  0  0  0
  1  2  1  0
  2  3  1  0
  3  5  1  0
  3  4  1  1
  5  7  1  0
  5  6  1  6
  7  8  2  0
 10 11  1  6
 10  9  1  0
 10 12  1  0
 12 14  1  0
 12 13  1  1
 13  7  1  0
 14 15  2  0
 16 14  1  0
 16 17  1  0
 17 23  1  0
 17 18  1  6
 19 18  1  0
 20 21  1  0
 20 19  1  0
 21 22  1  0
 23 24  2  0
 23 25  1  0
M  END
$$$$
