IVK.pdb
     RDKit          3D

 25 24  0  0  1  0  0  0  0  0999 V2000
    6.8974  -17.7607   19.0234 C   0  0  0  0  0  0  0  0  0  0  0  0
    6.7582  -16.2846   19.3818 C   0  0  0  0  0  0  0  0  0  0  0  0
    7.5417  -15.9395   20.6067 C   0  0  2  0  0  0  0  0  0  0  0  0
    7.2177  -16.8588   21.7709 C   0  0  0  0  0  0  0  0  0  0  0  0
    7.3232  -14.5290   21.0887 C   0  0  2  0  0  0  0  0  0  0  0  0
    7.6504  -13.6471   19.9865 N   0  0  0  0  0  0  0  0  0  0  0  0
    8.0273  -14.2035   22.3195 C   0  0  0  0  0  0  0  0  0  0  0  0
    9.2687  -14.1988   22.3849 O   0  0  0  0  0  0  0  0  0  0  0  0
    5.9026  -13.2335   26.0928 C   0  0  0  0  0  0  0  0  0  0  0  0
    7.3390  -12.8196   25.8132 C   0  0  1  0  0  0  0  0  0  0  0  0
    8.1274  -12.6292   27.0871 C   0  0  0  0  0  0  0  0  0  0  0  0
    8.0026  -13.6425   24.7893 C   0  0  2  0  0  0  0  0  0  0  0  0
    7.3844  -13.8634   23.5523 N   0  0  0  0  0  0  0  0  0  0  0  0
    8.3349  -14.9696   25.4168 C   0  0  0  0  0  0  0  0  0  0  0  0
    7.4340  -15.8257   25.6357 O   0  0  0  0  0  0  0  0  0  0  0  0
    9.6523  -15.3074   25.7818 N   0  0  0  0  0  0  0  0  0  0  0  0
    9.9525  -16.6818   26.3759 C   0  0  1  0  0  0  0  0  0  0  0  0
   11.3665  -16.8959   25.9590 C   0  0  0  0  0  0  0  0  0  0  0  0
   11.6391  -17.5853   24.7146 C   0  0  0  0  0  0  0  0  0  0  0  0
   13.0135  -17.7171   24.2192 C   0  0  0  0  0  0  0  0  0  0  0  0
   12.9862  -18.2996   22.7700 C   0  0  0  0  0  0  0  0  0  0  0  0
   14.3876  -18.3438   22.3754 N   0  0  0  0  0  0  0  0  0  0  0  0
    9.8527  -16.3764   27.8219 C   0  0  0  0  0  0  0  0  0  0  0  0
    9.9320  -15.2517   28.3201 O   0  0  0  0  0  0  0  0  0  0  0  0
    9.6493  -17.4205   28.7455 O   0  0  0  0  0  0  0  0  0  0  0  0
  1  2  1  0
  2  3  1  0
  3  5  1  0
  3  4  1  1
  5  7  1  0
  5  6  1  6
  7  8  2  0
 10 11  1  1
 10  9  1  0
 10 12  1  0
 12 14  1  0
 12 13  1  6
 13  7  1  0
 14 15  2  0
 16 14  1  0
 16 17  1  0
 17 23  1  0
 17 18  1  1
 19 18  1  0
 20 21  1  0
 20 19  1  0
 21 22  1  0
 23 24  2  0
 23 25  1  0
M  END
$$$$
