IVK.pdb
     RDKit          3D

 25 24  0  0  1  0  0  0  0  0999 V2000
    6.6999  -11.6062   27.9264 C   0  0  0  0  0  0  0  0  0  0  0  0
    6.0025  -12.7107   27.1388 C   0  0  0  0  0  0  0  0  0  0  0  0
    6.9672  -13.4756   26.2917 C   0  0  2  0  0  0  0  0  0  0  0  0
    7.7498  -12.5707   25.3567 C   0  0  0  0  0  0  0  0  0  0  0  0
    6.3176  -14.5322   25.4365 C   0  0  2  0  0  0  0  0  0  0  0  0
    5.5918  -15.4144   26.3279 N   0  0  0  0  0  0  0  0  0  0  0  0
    7.2366  -15.2313   24.5515 C   0  0  0  0  0  0  0  0  0  0  0  0
    7.9280  -16.1869   24.9440 O   0  0  0  0  0  0  0  0  0  0  0  0
    6.7664  -15.4114   20.2178 C   0  0  0  0  0  0  0  0  0  0  0  0
    8.1570  -15.2683   20.8165 C   0  0  1  0  0  0  0  0  0  0  0  0
    8.7986  -13.9539   20.4403 C   0  0  0  0  0  0  0  0  0  0  0  0
    8.2218  -15.6037   22.2480 C   0  0  2  0  0  0  0  0  0  0  0  0
    7.4377  -14.9030   23.1728 N   0  0  0  0  0  0  0  0  0  0  0  0
    9.6648  -15.5269   22.6688 C   0  0  0  0  0  0  0  0  0  0  0  0
   10.1000  -14.5304   23.3092 O   0  0  0  0  0  0  0  0  0  0  0  0
   10.5799  -16.5541   22.3682 N   0  0  0  0  0  0  0  0  0  0  0  0
   11.8237  -16.7471   23.2330 C   0  0  1  0  0  0  0  0  0  0  0  0
   11.3903  -17.8303   24.1592 C   0  0  0  0  0  0  0  0  0  0  0  0
   12.3741  -18.4669   25.0107 C   0  0  0  0  0  0  0  0  0  0  0  0
   11.9932  -19.5757   25.8923 C   0  0  0  0  0  0  0  0  0  0  0  0
   13.2632  -20.1087   26.6294 C   0  0  0  0  0  0  0  0  0  0  0  0
   12.7551  -21.1525   27.5091 N   0  0  0  0  0  0  0  0  0  0  0  0
   12.7798  -17.2493   22.2192 C   0  0  0  0  0  0  0  0  0  0  0  0
   12.4718  -17.7710   21.1456 O   0  0  0  0  0  0  0  0  0  0  0  0
   14.1654  -17.1450   22.4512 O   0  0  0  0  0  0  0  0  0  0  0  0
  1  2  1  0
  2  3  1  0
  3  5  1  0
  3  4  1  6
  5  7  1  0
  5  6  1  1
  7  8  2  0
 10 11  1  1
 10  9  1  0
 10 12  1  0
 12 14  1  0
 12 13  1  1
 13  7  1  0
 14 15  2  0
 16 14  1  0
 16 17  1  0
 17 23  1  0
 17 18  1  1
 19 18  1  0
 20 21  1  0
 20 19  1  0
 21 22  1  0
 23 24  2  0
 23 25  1  0
M  END
$$$$
