YTW.pdb
     RDKit          3D

 34 36  0  0  1  0  0  0  0  0999 V2000
   31.8757  -17.4012  -18.6236 O   0  0  0  0  0  0  0  0  0  0  0  0
   30.6845  -17.2035  -17.9052 C   0  0  0  0  0  0  0  0  0  0  0  0
   30.4171  -16.0533  -17.1925 C   0  0  0  0  0  0  0  0  0  0  0  0
   29.2316  -15.9108  -16.5026 C   0  0  0  0  0  0  0  0  0  0  0  0
   28.2649  -16.8970  -16.4897 C   0  0  0  0  0  0  0  0  0  0  0  0
   26.9971  -16.7631  -15.7379 C   0  0  0  0  0  0  0  0  0  0  0  0
   26.2747  -18.1115  -15.8753 C   0  0  2  0  0  0  0  0  0  0  0  0
   25.3673  -18.0587  -17.0120 N   0  0  0  0  0  0  0  0  0  0  0  0
   25.5393  -18.2912  -14.6032 C   0  0  0  0  0  0  0  0  0  0  0  0
   24.5487  -17.5843  -14.3541 O   0  0  0  0  0  0  0  0  0  0  0  0
   28.5393  -18.0548  -17.2110 C   0  0  0  0  0  0  0  0  0  0  0  0
   29.7348  -18.1899  -17.9025 C   0  0  0  0  0  0  0  0  0  0  0  0
   23.2024  -19.1374  -13.7308 C   0  0  0  0  0  0  0  0  0  0  0  0
   23.9123  -20.0904  -12.7598 C   0  0  1  0  0  0  0  0  0  0  0  0
   23.9471  -21.3276  -13.3588 O   0  0  0  0  0  0  0  0  0  0  0  0
   25.3195  -19.5618  -12.4889 C   0  0  2  0  0  0  0  0  0  0  0  0
   26.0199  -19.2890  -13.7124 N   0  0  0  0  0  0  0  0  0  0  0  0
   26.0389  -20.5247  -11.6222 C   0  0  0  0  0  0  0  0  0  0  0  0
   26.6515  -21.5292  -12.0896 O   0  0  0  0  0  0  0  0  0  0  0  0
   26.0728  -20.3617  -10.2114 N   0  0  0  0  0  0  0  0  0  0  0  0
   26.4174  -21.4799   -9.3268 C   0  0  1  0  0  0  0  0  0  0  0  0
   27.7539  -21.1334   -8.7498 C   0  0  0  0  0  0  0  0  0  0  0  0
   27.7041  -20.0609   -7.7365 C   0  0  0  0  0  0  0  0  0  0  0  0
   27.0680  -18.8185   -7.8694 C   0  0  0  0  0  0  0  0  0  0  0  0
   27.2787  -18.1057   -6.7605 N   0  0  0  0  0  0  0  0  0  0  0  0
   28.0252  -18.7880   -5.8644 C   0  0  0  0  0  0  0  0  0  0  0  0
   28.4831  -18.4869   -4.6010 C   0  0  0  0  0  0  0  0  0  0  0  0
   29.2215  -19.4048   -3.9027 C   0  0  0  0  0  0  0  0  0  0  0  0
   29.4897  -20.6352   -4.5093 C   0  0  0  0  0  0  0  0  0  0  0  0
   29.0306  -20.9237   -5.7683 C   0  0  0  0  0  0  0  0  0  0  0  0
   28.2862  -20.0180   -6.4919 C   0  0  0  0  0  0  0  0  0  0  0  0
   25.4047  -21.7270   -8.3231 C   0  0  0  0  0  0  0  0  0  0  0  0
   25.5933  -22.6725   -7.4790 O   0  0  0  0  0  0  0  0  0  0  0  0
   24.2226  -21.0344   -8.1629 O   0  0  0  0  0  0  0  0  0  0  0  0
  2  1  1  0
  3  2  2  0
  4  3  1  0
  5  4  2  0
  5 11  1  0
  6  5  1  0
  7  9  1  0
  7  6  1  0
  7  8  1  6
  9 17  1  0
 10  9  2  0
 11 12  2  0
 12  2  1  0
 14 13  1  6
 14 16  1  0
 15 14  1  0
 16 18  1  0
 16 17  1  6
 18 19  2  0
 18 20  1  0
 20 21  1  0
 21 32  1  0
 21 22  1  1
 23 22  1  0
 23 31  1  0
 24 23  2  0
 25 24  1  0
 25 26  1  0
 26 27  1  0
 26 31  2  0
 27 28  2  0
 28 29  1  0
 30 29  2  0
 31 30  1  0
 32 34  1  0
 33 32  2  0
M  END
$$$$
