YTW.pdb
     RDKit          3D

 34 36  0  0  1  0  0  0  0  0999 V2000
   16.7942  -17.3692  -16.1646 O   0  0  0  0  0  0  0  0  0  0  0  0
   17.6730  -18.1295  -15.3749 C   0  0  0  0  0  0  0  0  0  0  0  0
   17.7607  -17.9967  -14.0049 C   0  0  0  0  0  0  0  0  0  0  0  0
   18.6423  -18.7674  -13.2767 C   0  0  0  0  0  0  0  0  0  0  0  0
   19.4706  -19.6986  -13.8719 C   0  0  0  0  0  0  0  0  0  0  0  0
   20.4337  -20.5181  -13.1032 C   0  0  0  0  0  0  0  0  0  0  0  0
   21.6230  -19.5980  -12.7901 C   0  0  2  0  0  0  0  0  0  0  0  0
   22.1492  -19.0510  -14.0320 N   0  0  0  0  0  0  0  0  0  0  0  0
   22.6173  -20.4621  -12.1148 C   0  0  0  0  0  0  0  0  0  0  0  0
   22.2868  -21.1269  -11.1190 O   0  0  0  0  0  0  0  0  0  0  0  0
   19.3773  -19.8292  -15.2541 C   0  0  0  0  0  0  0  0  0  0  0  0
   18.4874  -19.0496  -15.9792 C   0  0  0  0  0  0  0  0  0  0  0  0
   24.3955  -23.2587  -13.5764 C   0  0  0  0  0  0  0  0  0  0  0  0
   25.5048  -22.2990  -13.1253 C   0  0  1  0  0  0  0  0  0  0  0  0
   25.9398  -21.6278  -14.2438 O   0  0  0  0  0  0  0  0  0  0  0  0
   24.9336  -21.3378  -12.0847 C   0  0  2  0  0  0  0  0  0  0  0  0
   23.9310  -20.4838  -12.6568 N   0  0  0  0  0  0  0  0  0  0  0  0
   26.0456  -20.5779  -11.4669 C   0  0  0  0  0  0  0  0  0  0  0  0
   25.8655  -19.4684  -10.8844 O   0  0  0  0  0  0  0  0  0  0  0  0
   27.3792  -21.0662  -11.5020 N   0  0  0  0  0  0  0  0  0  0  0  0
   28.3144  -20.7975  -10.4044 C   0  0  1  0  0  0  0  0  0  0  0  0
   27.6553  -21.3444   -9.1773 C   0  0  0  0  0  0  0  0  0  0  0  0
   27.5733  -20.3770   -8.0651 C   0  0  0  0  0  0  0  0  0  0  0  0
   26.7524  -19.2418   -8.0076 C   0  0  0  0  0  0  0  0  0  0  0  0
   26.9899  -18.5959   -6.8637 N   0  0  0  0  0  0  0  0  0  0  0  0
   27.9300  -19.2235   -6.1234 C   0  0  0  0  0  0  0  0  0  0  0  0
   28.4885  -18.9570   -4.8932 C   0  0  0  0  0  0  0  0  0  0  0  0
   29.4310  -19.8020   -4.3706 C   0  0  0  0  0  0  0  0  0  0  0  0
   29.7995  -20.9234   -5.1193 C   0  0  0  0  0  0  0  0  0  0  0  0
   29.2386  -21.1782   -6.3438 C   0  0  0  0  0  0  0  0  0  0  0  0
   28.2889  -20.3440   -6.8919 C   0  0  0  0  0  0  0  0  0  0  0  0
   29.6291  -21.3517  -10.6462 C   0  0  0  0  0  0  0  0  0  0  0  0
   29.7531  -22.2828  -11.5180 O   0  0  0  0  0  0  0  0  0  0  0  0
   30.8037  -20.9760  -10.0285 O   0  0  0  0  0  0  0  0  0  0  0  0
  2  1  1  0
  3  2  2  0
  4  3  1  0
  5  4  2  0
  5 11  1  0
  6  5  1  0
  7  9  1  0
  7  6  1  0
  7  8  1  6
  9 17  1  0
 10  9  2  0
 11 12  2  0
 12  2  1  0
 14 13  1  6
 14 16  1  0
 15 14  1  0
 16 18  1  0
 16 17  1  6
 18 19  2  0
 18 20  1  0
 20 21  1  0
 21 32  1  0
 21 22  1  1
 23 22  1  0
 23 31  1  0
 24 23  2  0
 25 24  1  0
 25 26  1  0
 26 27  1  0
 26 31  2  0
 27 28  2  0
 28 29  1  0
 30 29  2  0
 31 30  1  0
 32 34  1  0
 33 32  2  0
M  END
$$$$
