YTW.pdb
     RDKit          3D

 34 36  0  0  1  0  0  0  0  0999 V2000
   23.0346  -21.9830  -21.7039 O   0  0  0  0  0  0  0  0  0  0  0  0
   23.7760  -22.1457  -20.5215 C   0  0  0  0  0  0  0  0  0  0  0  0
   23.5556  -21.3955  -19.3854 C   0  0  0  0  0  0  0  0  0  0  0  0
   24.3138  -21.5946  -18.2508 C   0  0  0  0  0  0  0  0  0  0  0  0
   25.3177  -22.5413  -18.1937 C   0  0  0  0  0  0  0  0  0  0  0  0
   26.1501  -22.7513  -16.9882 C   0  0  0  0  0  0  0  0  0  0  0  0
   27.2440  -21.6740  -17.0316 C   0  0  2  0  0  0  0  0  0  0  0  0
   28.3046  -22.1001  -17.9328 N   0  0  0  0  0  0  0  0  0  0  0  0
   27.7315  -21.5569  -15.6388 C   0  0  0  0  0  0  0  0  0  0  0  0
   28.7619  -22.1563  -15.2897 O   0  0  0  0  0  0  0  0  0  0  0  0
   25.5352  -23.2959  -19.3423 C   0  0  0  0  0  0  0  0  0  0  0  0
   24.7677  -23.0890  -20.4797 C   0  0  0  0  0  0  0  0  0  0  0  0
   29.0716  -18.7897  -14.1324 C   0  0  0  0  0  0  0  0  0  0  0  0
   27.8772  -19.0718  -13.2110 C   0  0  1  0  0  0  0  0  0  0  0  0
   26.8825  -18.1866  -13.5542 O   0  0  0  0  0  0  0  0  0  0  0  0
   27.4300  -20.5185  -13.4108 C   0  0  2  0  0  0  0  0  0  0  0  0
   26.9732  -20.7438  -14.7534 N   0  0  0  0  0  0  0  0  0  0  0  0
   26.4035  -20.8516  -12.3954 C   0  0  0  0  0  0  0  0  0  0  0  0
   25.1709  -20.9195  -12.6762 O   0  0  0  0  0  0  0  0  0  0  0  0
   26.7612  -21.1120  -11.0454 N   0  0  0  0  0  0  0  0  0  0  0  0
   25.7411  -21.4099  -10.0344 C   0  0  1  0  0  0  0  0  0  0  0  0
   26.5008  -21.7431   -8.7890 C   0  0  0  0  0  0  0  0  0  0  0  0
   26.8510  -20.5639   -7.9726 C   0  0  0  0  0  0  0  0  0  0  0  0
   26.4156  -19.2475   -8.1812 C   0  0  0  0  0  0  0  0  0  0  0  0
   26.9777  -18.4573   -7.2638 N   0  0  0  0  0  0  0  0  0  0  0  0
   27.7782  -19.1553   -6.4285 C   0  0  0  0  0  0  0  0  0  0  0  0
   28.5435  -18.7947   -5.3420 C   0  0  0  0  0  0  0  0  0  0  0  0
   29.2542  -19.7449   -4.6582 C   0  0  0  0  0  0  0  0  0  0  0  0
   29.1766  -21.0698   -5.0971 C   0  0  0  0  0  0  0  0  0  0  0  0
   28.4131  -21.4175   -6.1811 C   0  0  0  0  0  0  0  0  0  0  0  0
   27.6891  -20.4810   -6.8862 C   0  0  0  0  0  0  0  0  0  0  0  0
   24.7983  -20.3261   -9.8599 C   0  0  0  0  0  0  0  0  0  0  0  0
   25.1271  -19.1544  -10.2616 O   0  0  0  0  0  0  0  0  0  0  0  0
   23.5424  -20.4143   -9.2963 O   0  0  0  0  0  0  0  0  0  0  0  0
  2  1  1  0
  3  2  2  0
  4  3  1  0
  5  4  2  0
  5 11  1  0
  6  5  1  0
  7  9  1  0
  7  6  1  0
  7  8  1  6
  9 17  1  0
 10  9  2  0
 11 12  2  0
 12  2  1  0
 14 13  1  6
 14 16  1  0
 15 14  1  0
 16 18  1  0
 16 17  1  6
 18 19  2  0
 18 20  1  0
 20 21  1  0
 21 32  1  0
 21 22  1  1
 23 22  1  0
 23 31  1  0
 24 23  2  0
 25 24  1  0
 25 26  1  0
 26 27  1  0
 26 31  2  0
 27 28  2  0
 28 29  1  0
 30 29  2  0
 31 30  1  0
 32 34  1  0
 33 32  2  0
M  END
$$$$
