YTW.pdb
     RDKit          3D

 34 36  0  0  1  0  0  0  0  0999 V2000
   28.1823  -12.9474  -17.3480 O   0  0  0  0  0  0  0  0  0  0  0  0
   27.2304  -13.9784  -17.2765 C   0  0  0  0  0  0  0  0  0  0  0  0
   26.9806  -14.8461  -18.3190 C   0  0  0  0  0  0  0  0  0  0  0  0
   26.0333  -15.8408  -18.1970 C   0  0  0  0  0  0  0  0  0  0  0  0
   25.2969  -16.0177  -17.0421 C   0  0  0  0  0  0  0  0  0  0  0  0
   24.2648  -17.0696  -16.9060 C   0  0  0  0  0  0  0  0  0  0  0  0
   24.9700  -18.2810  -16.2780 C   0  0  2  0  0  0  0  0  0  0  0  0
   25.9558  -18.8030  -17.2130 N   0  0  0  0  0  0  0  0  0  0  0  0
   23.8959  -19.2658  -16.0178 C   0  0  0  0  0  0  0  0  0  0  0  0
   23.5384  -20.0458  -16.9161 O   0  0  0  0  0  0  0  0  0  0  0  0
   25.5536  -15.1402  -15.9932 C   0  0  0  0  0  0  0  0  0  0  0  0
   26.5086  -14.1420  -16.1245 C   0  0  0  0  0  0  0  0  0  0  0  0
   23.9794  -21.9240  -13.8718 C   0  0  0  0  0  0  0  0  0  0  0  0
   22.7267  -21.2064  -13.3514 C   0  0  1  0  0  0  0  0  0  0  0  0
   23.0730  -20.5906  -12.1716 O   0  0  0  0  0  0  0  0  0  0  0  0
   22.2684  -20.1916  -14.3969 C   0  0  2  0  0  0  0  0  0  0  0  0
   23.3164  -19.2646  -14.7200 N   0  0  0  0  0  0  0  0  0  0  0  0
   21.0409  -19.5185  -13.9114 C   0  0  0  0  0  0  0  0  0  0  0  0
   21.0785  -18.4582  -13.2207 O   0  0  0  0  0  0  0  0  0  0  0  0
   19.7518  -20.0398  -14.2024 N   0  0  0  0  0  0  0  0  0  0  0  0
   18.5374  -19.3719  -13.7220 C   0  0  1  0  0  0  0  0  0  0  0  0
   18.5338  -18.0293  -14.3829 C   0  0  0  0  0  0  0  0  0  0  0  0
   18.3743  -18.0889  -15.8494 C   0  0  0  0  0  0  0  0  0  0  0  0
   17.3821  -18.7876  -16.5516 C   0  0  0  0  0  0  0  0  0  0  0  0
   17.5927  -18.6356  -17.8610 N   0  0  0  0  0  0  0  0  0  0  0  0
   18.6769  -17.8670  -18.1049 C   0  0  0  0  0  0  0  0  0  0  0  0
   19.2730  -17.4257  -19.2652 C   0  0  0  0  0  0  0  0  0  0  0  0
   20.3796  -16.6212  -19.2044 C   0  0  0  0  0  0  0  0  0  0  0  0
   20.8735  -16.2726  -17.9441 C   0  0  0  0  0  0  0  0  0  0  0  0
   20.2735  -16.7190  -16.7954 C   0  0  0  0  0  0  0  0  0  0  0  0
   19.1597  -17.5293  -16.8291 C   0  0  0  0  0  0  0  0  0  0  0  0
   17.3401  -20.1427  -13.9801 C   0  0  0  0  0  0  0  0  0  0  0  0
   16.2208  -19.7086  -13.5319 O   0  0  0  0  0  0  0  0  0  0  0  0
   17.2632  -21.3281  -14.6812 O   0  0  0  0  0  0  0  0  0  0  0  0
  2  1  1  0
  3  2  2  0
  4  3  1  0
  5  4  2  0
  5 11  1  0
  6  5  1  0
  7  9  1  0
  7  6  1  0
  7  8  1  6
  9 17  1  0
 10  9  2  0
 11 12  2  0
 12  2  1  0
 14 13  1  6
 14 16  1  0
 15 14  1  0
 16 18  1  0
 16 17  1  1
 18 19  2  0
 18 20  1  0
 20 21  1  0
 21 32  1  0
 21 22  1  6
 23 22  1  0
 23 31  1  0
 24 23  2  0
 25 24  1  0
 25 26  1  0
 26 27  1  0
 26 31  2  0
 27 28  2  0
 28 29  1  0
 30 29  2  0
 31 30  1  0
 32 34  1  0
 33 32  2  0
M  END
$$$$
