YTW.pdb
     RDKit          3D

 34 36  0  0  1  0  0  0  0  0999 V2000
   15.7272  -19.7315  -15.6031 O   0  0  0  0  0  0  0  0  0  0  0  0
   17.1172  -19.7415  -15.8080 C   0  0  0  0  0  0  0  0  0  0  0  0
   17.7913  -18.7225  -16.4478 C   0  0  0  0  0  0  0  0  0  0  0  0
   19.1576  -18.7828  -16.6245 C   0  0  0  0  0  0  0  0  0  0  0  0
   19.9109  -19.8501  -16.1764 C   0  0  0  0  0  0  0  0  0  0  0  0
   21.3748  -19.9347  -16.3766 C   0  0  0  0  0  0  0  0  0  0  0  0
   21.5807  -20.5486  -17.7693 C   0  0  2  0  0  0  0  0  0  0  0  0
   21.2265  -21.9598  -17.7312 N   0  0  0  0  0  0  0  0  0  0  0  0
   23.0176  -20.3588  -18.0705 C   0  0  0  0  0  0  0  0  0  0  0  0
   23.8647  -21.1000  -17.5451 O   0  0  0  0  0  0  0  0  0  0  0  0
   19.2260  -20.8749  -15.5308 C   0  0  0  0  0  0  0  0  0  0  0  0
   17.8509  -20.8062  -15.3573 C   0  0  0  0  0  0  0  0  0  0  0  0
   24.6611  -21.0602  -20.9281 C   0  0  0  0  0  0  0  0  0  0  0  0
   24.9458  -19.5565  -20.8149 C   0  0  1  0  0  0  0  0  0  0  0  0
   24.0826  -18.9148  -21.6716 O   0  0  0  0  0  0  0  0  0  0  0  0
   24.7240  -19.1192  -19.3683 C   0  0  2  0  0  0  0  0  0  0  0  0
   23.3584  -19.3107  -18.9679 N   0  0  0  0  0  0  0  0  0  0  0  0
   25.1725  -17.7154  -19.2137 C   0  0  0  0  0  0  0  0  0  0  0  0
   24.4794  -16.8464  -18.6077 O   0  0  0  0  0  0  0  0  0  0  0  0
   26.4146  -17.2769  -19.7457 N   0  0  0  0  0  0  0  0  0  0  0  0
   26.8959  -15.9098  -19.5206 C   0  0  1  0  0  0  0  0  0  0  0  0
   27.1250  -15.8065  -18.0454 C   0  0  0  0  0  0  0  0  0  0  0  0
   28.0984  -16.7870  -17.5248 C   0  0  0  0  0  0  0  0  0  0  0  0
   29.4776  -16.8055  -17.7764 C   0  0  0  0  0  0  0  0  0  0  0  0
   30.0125  -17.8660  -17.1673 N   0  0  0  0  0  0  0  0  0  0  0  0
   29.0786  -18.5832  -16.5046 C   0  0  0  0  0  0  0  0  0  0  0  0
   29.1421  -19.7230  -15.7344 C   0  0  0  0  0  0  0  0  0  0  0  0
   28.0060  -20.2245  -15.1571 C   0  0  0  0  0  0  0  0  0  0  0  0
   26.8015  -19.5498  -15.3760 C   0  0  0  0  0  0  0  0  0  0  0  0
   26.7493  -18.4170  -16.1460 C   0  0  0  0  0  0  0  0  0  0  0  0
   27.8773  -17.8923  -16.7380 C   0  0  0  0  0  0  0  0  0  0  0  0
   28.0693  -15.5970  -20.3077 C   0  0  0  0  0  0  0  0  0  0  0  0
   28.6454  -16.5413  -20.9546 O   0  0  0  0  0  0  0  0  0  0  0  0
   28.6546  -14.3561  -20.4498 O   0  0  0  0  0  0  0  0  0  0  0  0
  2  1  1  0
  3  2  2  0
  4  3  1  0
  5  4  2  0
  5 11  1  0
  6  5  1  0
  7  9  1  0
  7  6  1  0
  7  8  1  1
  9 17  1  0
 10  9  2  0
 11 12  2  0
 12  2  1  0
 14 13  1  1
 14 16  1  0
 15 14  1  0
 16 18  1  0
 16 17  1  6
 18 19  2  0
 18 20  1  0
 20 21  1  0
 21 32  1  0
 21 22  1  1
 23 22  1  0
 23 31  1  0
 24 23  2  0
 25 24  1  0
 25 26  1  0
 26 27  1  0
 26 31  2  0
 27 28  2  0
 28 29  1  0
 30 29  2  0
 31 30  1  0
 32 34  1  0
 33 32  2  0
M  END
$$$$
