YTW.pdb
     RDKit          3D

 34 36  0  0  1  0  0  0  0  0999 V2000
   23.5058  -23.4342  -23.0044 O   0  0  0  0  0  0  0  0  0  0  0  0
   23.7943  -22.6097  -21.9039 C   0  0  0  0  0  0  0  0  0  0  0  0
   23.9849  -23.0967  -20.6277 C   0  0  0  0  0  0  0  0  0  0  0  0
   24.2644  -22.2429  -19.5815 C   0  0  0  0  0  0  0  0  0  0  0  0
   24.3668  -20.8765  -19.7544 C   0  0  0  0  0  0  0  0  0  0  0  0
   24.6479  -19.9487  -18.6362 C   0  0  0  0  0  0  0  0  0  0  0  0
   26.1738  -19.7786  -18.5957 C   0  0  2  0  0  0  0  0  0  0  0  0
   26.7663  -20.4709  -19.7307 N   0  0  0  0  0  0  0  0  0  0  0  0
   26.5993  -20.3806  -17.3120 C   0  0  0  0  0  0  0  0  0  0  0  0
   27.0902  -21.5215  -17.2943 O   0  0  0  0  0  0  0  0  0  0  0  0
   24.1747  -20.3907  -21.0440 C   0  0  0  0  0  0  0  0  0  0  0  0
   23.8937  -21.2569  -22.0910 C   0  0  0  0  0  0  0  0  0  0  0  0
   29.0521  -18.7925  -15.0473 C   0  0  0  0  0  0  0  0  0  0  0  0
   27.7913  -19.0111  -14.2001 C   0  0  1  0  0  0  0  0  0  0  0  0
   27.1434  -17.8010  -14.1177 O   0  0  0  0  0  0  0  0  0  0  0  0
   26.9184  -20.0664  -14.8763 C   0  0  2  0  0  0  0  0  0  0  0  0
   26.4174  -19.5997  -16.1385 N   0  0  0  0  0  0  0  0  0  0  0  0
   25.8369  -20.4673  -13.9461 C   0  0  0  0  0  0  0  0  0  0  0  0
   24.6119  -20.3118  -14.2252 O   0  0  0  0  0  0  0  0  0  0  0  0
   26.1303  -21.0504  -12.6843 N   0  0  0  0  0  0  0  0  0  0  0  0
   25.0586  -21.4612  -11.7710 C   0  0  1  0  0  0  0  0  0  0  0  0
   25.7521  -22.0563  -10.5860 C   0  0  0  0  0  0  0  0  0  0  0  0
   26.2744  -21.0532   -9.6370 C   0  0  0  0  0  0  0  0  0  0  0  0
   25.5187  -20.1258   -8.9057 C   0  0  0  0  0  0  0  0  0  0  0  0
   26.3481  -19.3626   -8.1903 N   0  0  0  0  0  0  0  0  0  0  0  0
   27.6388  -19.7123   -8.3845 C   0  0  0  0  0  0  0  0  0  0  0  0
   28.8265  -19.2412   -7.8710 C   0  0  0  0  0  0  0  0  0  0  0  0
   30.0113  -19.8176   -8.2443 C   0  0  0  0  0  0  0  0  0  0  0  0
   29.9712  -20.8811   -9.1505 C   0  0  0  0  0  0  0  0  0  0  0  0
   28.7834  -21.3410   -9.6569 C   0  0  0  0  0  0  0  0  0  0  0  0
   27.5780  -20.7786   -9.2979 C   0  0  0  0  0  0  0  0  0  0  0  0
   24.1708  -20.3707  -11.4295 C   0  0  0  0  0  0  0  0  0  0  0  0
   23.0287  -20.6449  -10.9171 O   0  0  0  0  0  0  0  0  0  0  0  0
   24.4244  -19.0248  -11.5934 O   0  0  0  0  0  0  0  0  0  0  0  0
  2  1  1  0
  3  2  2  0
  4  3  1  0
  5  4  2  0
  5 11  1  0
  6  5  1  0
  7  9  1  0
  7  6  1  0
  7  8  1  6
  9 17  1  0
 10  9  2  0
 11 12  2  0
 12  2  1  0
 14 13  1  6
 14 16  1  0
 15 14  1  0
 16 18  1  0
 16 17  1  6
 18 19  2  0
 18 20  1  0
 20 21  1  0
 21 32  1  0
 21 22  1  1
 23 22  1  0
 23 31  1  0
 24 23  2  0
 25 24  1  0
 25 26  1  0
 26 27  1  0
 26 31  2  0
 27 28  2  0
 28 29  1  0
 30 29  2  0
 31 30  1  0
 32 34  1  0
 33 32  2  0
M  END
$$$$
