YTW.pdb
     RDKit          3D

 34 36  0  0  1  0  0  0  0  0999 V2000
   47.7679   -7.1033   -7.7383 O   0  0  0  0  0  0  0  0  0  0  0  0
   46.5200   -6.8247   -8.3207 C   0  0  0  0  0  0  0  0  0  0  0  0
   46.2175   -7.1248   -9.6325 C   0  0  0  0  0  0  0  0  0  0  0  0
   44.9765   -6.8282  -10.1556 C   0  0  0  0  0  0  0  0  0  0  0  0
   43.9868   -6.2248   -9.4047 C   0  0  0  0  0  0  0  0  0  0  0  0
   42.6578   -5.8849   -9.9602 C   0  0  0  0  0  0  0  0  0  0  0  0
   41.7170   -7.0258   -9.5452 C   0  0  2  0  0  0  0  0  0  0  0  0
   42.0651   -8.2305  -10.2840 N   0  0  0  0  0  0  0  0  0  0  0  0
   40.3566   -6.5539   -9.8888 C   0  0  0  0  0  0  0  0  0  0  0  0
   39.9432   -6.6497  -11.0562 O   0  0  0  0  0  0  0  0  0  0  0  0
   44.2969   -5.9252   -8.0818 C   0  0  0  0  0  0  0  0  0  0  0  0
   45.5483   -6.2270   -7.5635 C   0  0  0  0  0  0  0  0  0  0  0  0
   37.2402   -7.6401   -8.0739 C   0  0  0  0  0  0  0  0  0  0  0  0
   37.2787   -6.1076   -8.0017 C   0  0  1  0  0  0  0  0  0  0  0  0
   37.7188   -5.7719   -6.7430 O   0  0  0  0  0  0  0  0  0  0  0  0
   38.2251   -5.5858   -9.0812 C   0  0  2  0  0  0  0  0  0  0  0  0
   39.5774   -6.0017   -8.8362 N   0  0  0  0  0  0  0  0  0  0  0  0
   38.0886   -4.1131   -9.1727 C   0  0  0  0  0  0  0  0  0  0  0  0
   38.8935   -3.3220   -8.5991 O   0  0  0  0  0  0  0  0  0  0  0  0
   37.0355   -3.5166   -9.9165 N   0  0  0  0  0  0  0  0  0  0  0  0
   36.8598   -2.0607   -9.9487 C   0  0  1  0  0  0  0  0  0  0  0  0
   35.8380   -1.8068  -11.0121 C   0  0  0  0  0  0  0  0  0  0  0  0
   35.5769   -0.3743  -11.2559 C   0  0  0  0  0  0  0  0  0  0  0  0
   36.2675    0.4581  -12.1481 C   0  0  0  0  0  0  0  0  0  0  0  0
   35.7706    1.6937  -12.0571 N   0  0  0  0  0  0  0  0  0  0  0  0
   34.7706    1.7628  -11.1510 C   0  0  0  0  0  0  0  0  0  0  0  0
   33.9589    2.7905  -10.7251 C   0  0  0  0  0  0  0  0  0  0  0  0
   32.9929    2.5558   -9.7832 C   0  0  0  0  0  0  0  0  0  0  0  0
   32.8649    1.2587   -9.2783 C   0  0  0  0  0  0  0  0  0  0  0  0
   33.6795    0.2434   -9.7079 C   0  0  0  0  0  0  0  0  0  0  0  0
   34.6588    0.4531  -10.6539 C   0  0  0  0  0  0  0  0  0  0  0  0
   36.4942   -1.5163   -8.6587 C   0  0  0  0  0  0  0  0  0  0  0  0
   35.7803   -2.2306   -7.8698 O   0  0  0  0  0  0  0  0  0  0  0  0
   36.8425   -0.2771   -8.1630 O   0  0  0  0  0  0  0  0  0  0  0  0
  2  1  1  0
  3  2  2  0
  4  3  1  0
  5  4  2  0
  5 11  1  0
  6  5  1  0
  7  9  1  0
  7  6  1  0
  7  8  1  6
  9 17  1  0
 10  9  2  0
 11 12  2  0
 12  2  1  0
 14 13  1  1
 14 16  1  0
 15 14  1  0
 16 18  1  0
 16 17  1  1
 18 19  2  0
 18 20  1  0
 20 21  1  0
 21 32  1  0
 21 22  1  6
 23 22  1  0
 23 31  1  0
 24 23  2  0
 25 24  1  0
 25 26  1  0
 26 27  1  0
 26 31  2  0
 27 28  2  0
 28 29  1  0
 30 29  2  0
 31 30  1  0
 32 34  1  0
 33 32  2  0
M  END
$$$$
