YTW.pdb
     RDKit          3D

 34 36  0  0  1  0  0  0  0  0999 V2000
   25.7857  -10.4870  -26.3154 O   0  0  0  0  0  0  0  0  0  0  0  0
   25.8528   -9.8291  -25.0758 C   0  0  0  0  0  0  0  0  0  0  0  0
   26.9660   -9.8676  -24.2623 C   0  0  0  0  0  0  0  0  0  0  0  0
   26.9788   -9.2048  -23.0531 C   0  0  0  0  0  0  0  0  0  0  0  0
   25.8947   -8.4788  -22.6005 C   0  0  0  0  0  0  0  0  0  0  0  0
   25.8901   -7.7788  -21.2966 C   0  0  0  0  0  0  0  0  0  0  0  0
   26.0809   -6.2878  -21.6116 C   0  0  2  0  0  0  0  0  0  0  0  0
   27.4382   -6.0656  -22.0879 N   0  0  0  0  0  0  0  0  0  0  0  0
   25.8339   -5.5843  -20.3327 C   0  0  0  0  0  0  0  0  0  0  0  0
   26.7446   -5.4837  -19.4941 O   0  0  0  0  0  0  0  0  0  0  0  0
   24.7748   -8.4425  -23.4255 C   0  0  0  0  0  0  0  0  0  0  0  0
   24.7703   -9.1124  -24.6408 C   0  0  0  0  0  0  0  0  0  0  0  0
   24.6457   -2.1489  -20.1162 C   0  0  0  0  0  0  0  0  0  0  0  0
   23.6400   -2.9387  -19.2678 C   0  0  1  0  0  0  0  0  0  0  0  0
   22.4899   -3.0610  -20.0115 O   0  0  0  0  0  0  0  0  0  0  0  0
   24.2382   -4.3046  -18.9367 C   0  0  2  0  0  0  0  0  0  0  0  0
   24.5333   -5.0488  -20.1287 N   0  0  0  0  0  0  0  0  0  0  0  0
   23.3190   -5.0268  -18.0260 C   0  0  0  0  0  0  0  0  0  0  0  0
   22.5041   -5.9020  -18.4415 O   0  0  0  0  0  0  0  0  0  0  0  0
   23.3109   -4.7653  -16.6297 N   0  0  0  0  0  0  0  0  0  0  0  0
   22.4123   -5.4928  -15.7270 C   0  0  1  0  0  0  0  0  0  0  0  0
   23.3081   -6.2816  -14.8245 C   0  0  0  0  0  0  0  0  0  0  0  0
   22.5841   -7.1951  -13.9185 C   0  0  0  0  0  0  0  0  0  0  0  0
   21.5691   -6.8431  -13.0174 C   0  0  0  0  0  0  0  0  0  0  0  0
   21.1918   -7.9334  -12.3460 N   0  0  0  0  0  0  0  0  0  0  0  0
   21.8891   -9.0236  -12.7345 C   0  0  0  0  0  0  0  0  0  0  0  0
   21.8519  -10.3466  -12.3540 C   0  0  0  0  0  0  0  0  0  0  0  0
   22.6851  -11.2552  -12.9505 C   0  0  0  0  0  0  0  0  0  0  0  0
   23.5597  -10.7979  -13.9403 C   0  0  0  0  0  0  0  0  0  0  0  0
   23.5898   -9.4783  -14.3101 C   0  0  0  0  0  0  0  0  0  0  0  0
   22.7626   -8.5444  -13.7256 C   0  0  0  0  0  0  0  0  0  0  0  0
   21.5088   -4.6144  -15.0155 C   0  0  0  0  0  0  0  0  0  0  0  0
   21.9661   -3.5156  -14.5406 O   0  0  0  0  0  0  0  0  0  0  0  0
   20.1656   -4.8299  -14.7872 O   0  0  0  0  0  0  0  0  0  0  0  0
  2  1  1  0
  3  2  2  0
  4  3  1  0
  5  4  2  0
  5 11  1  0
  6  5  1  0
  7  9  1  0
  7  6  1  0
  7  8  1  1
  9 17  1  0
 10  9  2  0
 11 12  2  0
 12  2  1  0
 14 13  1  6
 14 16  1  0
 15 14  1  0
 16 18  1  0
 16 17  1  6
 18 19  2  0
 18 20  1  0
 20 21  1  0
 21 32  1  0
 21 22  1  1
 23 22  1  0
 23 31  1  0
 24 23  2  0
 25 24  1  0
 25 26  1  0
 26 27  1  0
 26 31  2  0
 27 28  2  0
 28 29  1  0
 30 29  2  0
 31 30  1  0
 32 34  1  0
 33 32  2  0
M  END
$$$$
