KHQ.pdb
     RDKit          3D

 29 29  0  0  1  0  0  0  0  0999 V2000
    9.9429  -18.3474   17.3804 N   0  0  0  0  0  0  0  0  0  0  0  0
   11.0570  -17.4281   17.2498 C   0  0  1  0  0  0  0  0  0  0  0  0
   10.7581  -16.5085   16.0867 C   0  0  0  0  0  0  0  0  0  0  0  0
   10.2403  -17.3650   14.9512 C   0  0  0  0  0  0  0  0  0  0  0  0
   11.0562  -17.1499   13.7102 C   0  0  0  0  0  0  0  0  0  0  0  0
   10.5470  -17.9685   12.5698 C   0  0  0  0  0  0  0  0  0  0  0  0
   11.2998  -17.7020   11.3575 N   0  0  0  0  0  0  0  0  0  0  0  0
   11.2223  -16.6490   18.5186 C   0  0  0  0  0  0  0  0  0  0  0  0
   12.2065  -15.8992   18.7445 O   0  0  0  0  0  0  0  0  0  0  0  0
   10.2314  -16.7437   19.5348 N   0  0  0  0  0  0  0  0  0  0  0  0
   10.2508  -16.0210   20.7612 C   0  0  1  0  0  0  0  0  0  0  0  0
    8.9032  -15.5382   21.2043 C   0  0  0  0  0  0  0  0  0  0  0  0
    8.2842  -14.6166   20.2187 C   0  0  0  0  0  0  0  0  0  0  0  0
    8.5078  -13.2670   20.0444 C   0  0  0  0  0  0  0  0  0  0  0  0
    7.7200  -12.8332   19.0284 N   0  0  0  0  0  0  0  0  0  0  0  0
    7.0183  -13.8754   18.5720 C   0  0  0  0  0  0  0  0  0  0  0  0
    7.3601  -14.9486   19.2907 N   0  0  0  0  0  0  0  0  0  0  0  0
   10.9250  -16.7692   21.8786 C   0  0  0  0  0  0  0  0  0  0  0  0
   10.6439  -17.9905   21.9488 O   0  0  0  0  0  0  0  0  0  0  0  0
   16.8274  -15.0096   22.8852 N   0  0  0  0  0  0  0  0  0  0  0  0
   16.6651  -16.1427   23.7591 C   0  0  0  0  0  0  0  0  0  0  0  0
   17.6910  -16.4949   24.3739 O   0  0  0  0  0  0  0  0  0  0  0  0
   15.3381  -16.8060   23.8801 C   0  0  0  0  0  0  0  0  0  0  0  0
   14.2511  -16.1450   23.0996 C   0  0  0  0  0  0  0  0  0  0  0  0
   12.9072  -16.7534   23.4452 C   0  0  2  0  0  0  0  0  0  0  0  0
   11.8018  -16.0953   22.7536 N   0  0  0  0  0  0  0  0  0  0  0  0
   12.6694  -16.7509   24.9061 C   0  0  0  0  0  0  0  0  0  0  0  0
   13.2207  -17.6588   25.7746 O   0  0  0  0  0  0  0  0  0  0  0  0
   11.9153  -15.8605   25.3757 O   0  0  0  0  0  0  0  0  0  0  0  0
  2  1  1  1
  2  8  1  0
  3  2  1  0
  3  4  1  0
  4  5  1  0
  5  6  1  0
  7  6  1  0
  8  9  2  0
 10  8  1  0
 10 11  1  0
 11 18  1  0
 11 12  1  1
 12 13  1  0
 13 17  1  0
 14 13  2  0
 14 15  1  0
 15 16  1  0
 17 16  2  0
 18 19  2  0
 20 21  1  0
 21 23  1  0
 22 21  2  0
 23 24  1  0
 25 24  1  1
 25 27  1  0
 26 25  1  0
 26 18  1  0
 27 28  1  0
 29 27  2  0
M  END
$$$$
