KHQ.pdb
     RDKit          3D

 29 29  0  0  1  0  0  0  0  0999 V2000
   10.6903  -16.9090   16.4930 N   0  0  0  0  0  0  0  0  0  0  0  0
   11.1784  -17.6752   17.6235 C   0  0  1  0  0  0  0  0  0  0  0  0
   12.6471  -17.9509   17.3901 C   0  0  0  0  0  0  0  0  0  0  0  0
   12.7499  -19.2573   16.6325 C   0  0  0  0  0  0  0  0  0  0  0  0
   13.6973  -19.1264   15.4762 C   0  0  0  0  0  0  0  0  0  0  0  0
   13.8356  -20.4134   14.7315 C   0  0  0  0  0  0  0  0  0  0  0  0
   14.6831  -20.2535   13.5638 N   0  0  0  0  0  0  0  0  0  0  0  0
   10.9745  -16.8982   18.8879 C   0  0  0  0  0  0  0  0  0  0  0  0
   11.9066  -16.3110   19.4947 O   0  0  0  0  0  0  0  0  0  0  0  0
    9.6719  -16.8038   19.4517 N   0  0  0  0  0  0  0  0  0  0  0  0
    9.3316  -16.0179   20.5888 C   0  0  1  0  0  0  0  0  0  0  0  0
    7.9713  -15.3938   20.5122 C   0  0  0  0  0  0  0  0  0  0  0  0
    7.7937  -14.5821   19.2820 C   0  0  0  0  0  0  0  0  0  0  0  0
    7.9777  -13.2260   19.1121 C   0  0  0  0  0  0  0  0  0  0  0  0
    7.6966  -12.9171   17.8211 N   0  0  0  0  0  0  0  0  0  0  0  0
    7.3452  -14.0426   17.1913 C   0  0  0  0  0  0  0  0  0  0  0  0
    7.4045  -15.0442   18.0736 N   0  0  0  0  0  0  0  0  0  0  0  0
    9.4880  -16.7586   21.8887 C   0  0  0  0  0  0  0  0  0  0  0  0
    8.8996  -17.8659   21.9460 O   0  0  0  0  0  0  0  0  0  0  0  0
   14.6023  -18.3823   23.2443 N   0  0  0  0  0  0  0  0  0  0  0  0
   14.2394  -17.0459   23.6398 C   0  0  0  0  0  0  0  0  0  0  0  0
   15.1789  -16.3358   24.0489 O   0  0  0  0  0  0  0  0  0  0  0  0
   12.8229  -16.5991   23.5425 C   0  0  0  0  0  0  0  0  0  0  0  0
   11.8727  -17.3945   24.3744 C   0  0  0  0  0  0  0  0  0  0  0  0
   10.4618  -16.8648   24.2177 C   0  0  2  0  0  0  0  0  0  0  0  0
   10.2539  -16.2011   22.9333 N   0  0  0  0  0  0  0  0  0  0  0  0
   10.0966  -15.9559   25.3272 C   0  0  0  0  0  0  0  0  0  0  0  0
   10.0866  -16.3241   26.6489 O   0  0  0  0  0  0  0  0  0  0  0  0
    9.7766  -14.7747   25.0362 O   0  0  0  0  0  0  0  0  0  0  0  0
  2  1  1  6
  2  8  1  0
  3  2  1  0
  3  4  1  0
  4  5  1  0
  5  6  1  0
  7  6  1  0
  8  9  2  0
 10  8  1  0
 10 11  1  0
 11 18  1  0
 11 12  1  6
 12 13  1  0
 13 17  1  0
 14 13  2  0
 14 15  1  0
 15 16  1  0
 17 16  2  0
 18 19  2  0
 20 21  1  0
 21 23  1  0
 22 21  2  0
 23 24  1  0
 25 24  1  1
 25 27  1  0
 26 25  1  0
 26 18  1  0
 27 28  1  0
 29 27  2  0
M  END
$$$$
