KHQ.pdb
     RDKit          3D

 29 29  0  0  1  0  0  0  0  0999 V2000
    7.5540  -13.7979   17.1277 N   0  0  0  0  0  0  0  0  0  0  0  0
    8.3003  -12.9456   18.0332 C   0  0  1  0  0  0  0  0  0  0  0  0
    7.4459  -12.7228   19.2612 C   0  0  0  0  0  0  0  0  0  0  0  0
    8.0238  -13.5670   20.3767 C   0  0  0  0  0  0  0  0  0  0  0  0
    7.1539  -13.4998   21.5976 C   0  0  0  0  0  0  0  0  0  0  0  0
    7.6196  -14.4447   22.6561 C   0  0  0  0  0  0  0  0  0  0  0  0
    6.7961  -14.3428   23.8472 N   0  0  0  0  0  0  0  0  0  0  0  0
    9.5963  -13.6038   18.3958 C   0  0  0  0  0  0  0  0  0  0  0  0
   10.4453  -13.0802   19.1618 O   0  0  0  0  0  0  0  0  0  0  0  0
    9.9068  -14.8849   17.8612 N   0  0  0  0  0  0  0  0  0  0  0  0
   11.0890  -15.1987   17.1328 C   0  0  1  0  0  0  0  0  0  0  0  0
   11.0677  -14.7333   15.7085 C   0  0  0  0  0  0  0  0  0  0  0  0
   12.2577  -15.1927   14.9491 C   0  0  0  0  0  0  0  0  0  0  0  0
   13.3743  -15.8533   15.4166 C   0  0  0  0  0  0  0  0  0  0  0  0
   14.2089  -16.0715   14.3694 N   0  0  0  0  0  0  0  0  0  0  0  0
   13.6395  -15.5650   13.2711 C   0  0  0  0  0  0  0  0  0  0  0  0
   12.4640  -15.0363   13.6231 N   0  0  0  0  0  0  0  0  0  0  0  0
   12.3456  -14.7269   17.8120 C   0  0  0  0  0  0  0  0  0  0  0  0
   12.5565  -13.4913   17.7454 O   0  0  0  0  0  0  0  0  0  0  0  0
   14.5320  -15.8870   24.5806 N   0  0  0  0  0  0  0  0  0  0  0  0
   13.7343  -16.0231   23.3893 C   0  0  0  0  0  0  0  0  0  0  0  0
   12.6282  -16.5764   23.5470 O   0  0  0  0  0  0  0  0  0  0  0  0
   14.2476  -15.5167   22.0872 C   0  0  0  0  0  0  0  0  0  0  0  0
   13.4530  -15.9587   20.9035 C   0  0  0  0  0  0  0  0  0  0  0  0
   13.9878  -15.3182   19.6388 C   0  0  2  0  0  0  0  0  0  0  0  0
   13.1882  -15.6515   18.4628 N   0  0  0  0  0  0  0  0  0  0  0  0
   15.4064  -15.6721   19.4088 C   0  0  0  0  0  0  0  0  0  0  0  0
   16.4643  -15.0100   19.9788 O   0  0  0  0  0  0  0  0  0  0  0  0
   15.6526  -16.6395   18.6435 O   0  0  0  0  0  0  0  0  0  0  0  0
  2  1  1  6
  2  8  1  0
  3  2  1  0
  3  4  1  0
  4  5  1  0
  5  6  1  0
  7  6  1  0
  8  9  2  0
 10  8  1  0
 10 11  1  0
 11 18  1  0
 11 12  1  6
 12 13  1  0
 13 17  1  0
 14 13  2  0
 14 15  1  0
 15 16  1  0
 17 16  2  0
 18 19  2  0
 20 21  1  0
 21 23  1  0
 22 21  2  0
 23 24  1  0
 25 24  1  1
 25 27  1  0
 26 25  1  0
 26 18  1  0
 27 28  1  0
 29 27  2  0
M  END
$$$$
