LNQ.pdb
     RDKit          3D

 26 25  0  0  1  0  0  0  0  0999 V2000
   17.3231  -11.7528  -19.0108 C   0  0  0  0  0  0  0  0  0  0  0  0
   18.2095  -11.8765  -17.7886 C   0  0  1  0  0  0  0  0  0  0  0  0
   19.6481  -11.9223  -18.2322 C   0  0  0  0  0  0  0  0  0  0  0  0
   17.9139  -10.7151  -16.8836 C   0  0  0  0  0  0  0  0  0  0  0  0
   18.6791  -10.7672  -15.5878 C   0  0  2  0  0  0  0  0  0  0  0  0
   18.4737  -11.9682  -14.8502 N   0  0  0  0  0  0  0  0  0  0  0  0
   18.4237   -9.5989  -14.7288 C   0  0  0  0  0  0  0  0  0  0  0  0
   17.2390   -9.2251  -14.5468 O   0  0  0  0  0  0  0  0  0  0  0  0
   18.5875   -5.9146  -11.1201 N   0  0  0  0  0  0  0  0  0  0  0  0
   18.1951   -7.2916  -10.8967 C   0  0  0  0  0  0  0  0  0  0  0  0
   17.5887   -7.4813   -9.8234 O   0  0  0  0  0  0  0  0  0  0  0  0
   18.5190   -8.3211  -11.8944 C   0  0  0  0  0  0  0  0  0  0  0  0
   19.1406   -7.7787  -13.1266 C   0  0  2  0  0  0  0  0  0  0  0  0
   19.4389   -8.8554  -14.0835 N   0  0  0  0  0  0  0  0  0  0  0  0
   20.4291   -7.0538  -12.8343 C   0  0  0  0  0  0  0  0  0  0  0  0
   21.4605   -7.6211  -12.4272 O   0  0  0  0  0  0  0  0  0  0  0  0
   22.2409   -7.2205  -17.5230 N   0  0  0  0  0  0  0  0  0  0  0  0
   22.9046   -5.9808  -17.3167 C   0  0  0  0  0  0  0  0  0  0  0  0
   23.7305   -5.5529  -18.1528 O   0  0  0  0  0  0  0  0  0  0  0  0
   22.6353   -5.1671  -16.1067 C   0  0  0  0  0  0  0  0  0  0  0  0
   21.7334   -5.7971  -15.1106 C   0  0  0  0  0  0  0  0  0  0  0  0
   21.5300   -5.0410  -13.8543 C   0  0  2  0  0  0  0  0  0  0  0  0
   20.4820   -5.6444  -13.0303 N   0  0  0  0  0  0  0  0  0  0  0  0
   21.2836   -3.5906  -14.0429 C   0  0  0  0  0  0  0  0  0  0  0  0
   22.1803   -2.7795  -14.4050 O   0  0  0  0  0  0  0  0  0  0  0  0
   20.0325   -3.0570  -13.8261 O   0  0  0  0  0  0  0  0  0  0  0  0
  2  3  1  6
  2  1  1  0
  4  5  1  0
  4  2  1  0
  5  6  1  1
  7  5  1  0
  7  8  2  0
 10  9  1  0
 11 10  2  0
 12 10  1  0
 13 12  1  1
 13 14  1  0
 14  7  1  0
 15 23  1  0
 15 13  1  0
 16 15  2  0
 18 17  1  0
 18 19  2  0
 20 21  1  0
 20 18  1  0
 22 21  1  6
 22 23  1  0
 22 24  1  0
 24 25  2  0
 24 26  1  0
M  END
$$$$
