LNQ.pdb
     RDKit          3D

 26 25  0  0  1  0  0  0  0  0999 V2000
   26.2764  -19.7669   -8.6164 C   0  0  0  0  0  0  0  0  0  0  0  0
   25.7590  -20.7881   -9.6084 C   0  0  1  0  0  0  0  0  0  0  0  0
   24.6912  -21.6164   -8.9435 C   0  0  0  0  0  0  0  0  0  0  0  0
   25.2576  -20.0477  -10.8150 C   0  0  0  0  0  0  0  0  0  0  0  0
   24.8461  -20.9614  -11.9389 C   0  0  2  0  0  0  0  0  0  0  0  0
   25.7812  -22.0034  -12.2005 N   0  0  0  0  0  0  0  0  0  0  0  0
   24.5428  -20.2332  -13.1822 C   0  0  0  0  0  0  0  0  0  0  0  0
   23.6148  -19.3874  -13.1808 O   0  0  0  0  0  0  0  0  0  0  0  0
   26.4891  -17.7800  -18.1920 N   0  0  0  0  0  0  0  0  0  0  0  0
   25.7487  -18.9724  -17.8312 C   0  0  0  0  0  0  0  0  0  0  0  0
   24.8911  -19.3135  -18.6701 O   0  0  0  0  0  0  0  0  0  0  0  0
   26.0394  -19.6663  -16.5685 C   0  0  0  0  0  0  0  0  0  0  0  0
   24.8944  -19.6886  -15.6264 C   0  0  2  0  0  0  0  0  0  0  0  0
   25.2368  -20.4244  -14.3994 N   0  0  0  0  0  0  0  0  0  0  0  0
   23.6805  -20.3448  -16.2321 C   0  0  0  0  0  0  0  0  0  0  0  0
   23.5837  -21.5722  -16.4200 O   0  0  0  0  0  0  0  0  0  0  0  0
   19.9969  -19.2265  -12.4399 N   0  0  0  0  0  0  0  0  0  0  0  0
   19.2139  -20.1636  -13.1669 C   0  0  0  0  0  0  0  0  0  0  0  0
   18.1114  -20.5535  -12.7231 O   0  0  0  0  0  0  0  0  0  0  0  0
   19.6848  -20.7015  -14.4659 C   0  0  0  0  0  0  0  0  0  0  0  0
   21.0405  -20.2596  -14.8776 C   0  0  0  0  0  0  0  0  0  0  0  0
   21.2052  -19.9319  -16.3118 C   0  0  2  0  0  0  0  0  0  0  0  0
   22.5787  -19.5276  -16.6139 N   0  0  0  0  0  0  0  0  0  0  0  0
   20.2357  -18.9362  -16.8301 C   0  0  0  0  0  0  0  0  0  0  0  0
   20.4401  -17.6912  -16.7957 O   0  0  0  0  0  0  0  0  0  0  0  0
   19.0424  -19.3415  -17.3857 O   0  0  0  0  0  0  0  0  0  0  0  0
  2  3  1  1
  2  1  1  0
  4  5  1  0
  4  2  1  0
  5  6  1  6
  7  5  1  0
  7  8  2  0
 10  9  1  0
 11 10  2  0
 12 10  1  0
 13 12  1  6
 13 14  1  0
 14  7  1  0
 15 23  1  0
 15 13  1  0
 16 15  2  0
 18 17  1  0
 18 19  2  0
 20 21  1  0
 20 18  1  0
 22 21  1  1
 22 23  1  0
 22 24  1  0
 24 25  2  0
 24 26  1  0
M  END
$$$$
