LNQ.pdb
     RDKit          3D

 26 25  0  0  1  0  0  0  0  0999 V2000
   13.2502  -13.4651  -14.3758 C   0  0  0  0  0  0  0  0  0  0  0  0
   14.6141  -12.9657  -13.9456 C   0  0  1  0  0  0  0  0  0  0  0  0
   15.5169  -12.9145  -15.1500 C   0  0  0  0  0  0  0  0  0  0  0  0
   14.4312  -11.6244  -13.2950 C   0  0  0  0  0  0  0  0  0  0  0  0
   15.7213  -11.0310  -12.7941 C   0  0  2  0  0  0  0  0  0  0  0  0
   16.3839  -11.8380  -11.8255 N   0  0  0  0  0  0  0  0  0  0  0  0
   15.5556   -9.6612  -12.2799 C   0  0  0  0  0  0  0  0  0  0  0  0
   14.9991   -8.8019  -13.0068 O   0  0  0  0  0  0  0  0  0  0  0  0
   15.1624   -5.4275   -9.2886 N   0  0  0  0  0  0  0  0  0  0  0  0
   15.6059   -6.5135   -8.4377 C   0  0  0  0  0  0  0  0  0  0  0  0
   15.7264   -6.2032   -7.2358 O   0  0  0  0  0  0  0  0  0  0  0  0
   15.8712   -7.8395   -9.0137 C   0  0  0  0  0  0  0  0  0  0  0  0
   15.7310   -7.8844  -10.4893 C   0  0  2  0  0  0  0  0  0  0  0  0
   15.9881   -9.2393  -11.0014 N   0  0  0  0  0  0  0  0  0  0  0  0
   16.6898   -6.9448  -11.1741 C   0  0  0  0  0  0  0  0  0  0  0  0
   17.9093   -7.1701  -11.2897 O   0  0  0  0  0  0  0  0  0  0  0  0
   17.0452   -7.1672  -15.8150 N   0  0  0  0  0  0  0  0  0  0  0  0
   17.4496   -5.8214  -16.0277 C   0  0  0  0  0  0  0  0  0  0  0  0
   17.4741   -5.3379  -17.1810 O   0  0  0  0  0  0  0  0  0  0  0  0
   17.8525   -4.9604  -14.8899 C   0  0  0  0  0  0  0  0  0  0  0  0
   17.7805   -5.6045  -13.5547 C   0  0  0  0  0  0  0  0  0  0  0  0
   17.0470   -4.8509  -12.5128 C   0  0  2  0  0  0  0  0  0  0  0  0
   16.1858   -5.7311  -11.7223 N   0  0  0  0  0  0  0  0  0  0  0  0
   16.2854   -3.6836  -13.0200 C   0  0  0  0  0  0  0  0  0  0  0  0
   15.0278   -3.5987  -12.9546 O   0  0  0  0  0  0  0  0  0  0  0  0
   16.9378   -2.6165  -13.5966 O   0  0  0  0  0  0  0  0  0  0  0  0
  2  3  1  6
  2  1  1  0
  4  5  1  0
  4  2  1  0
  5  6  1  1
  7  5  1  0
  7  8  2  0
 10  9  1  0
 11 10  2  0
 12 10  1  0
 13 12  1  1
 13 14  1  0
 14  7  1  0
 15 23  1  0
 15 13  1  0
 16 15  2  0
 18 17  1  0
 18 19  2  0
 20 21  1  0
 20 18  1  0
 22 21  1  6
 22 23  1  0
 22 24  1  0
 24 25  2  0
 24 26  1  0
M  END
$$$$
