LNQ.pdb
     RDKit          3D

 26 25  0  0  1  0  0  0  0  0999 V2000
   19.5280  -14.0060  -18.3468 C   0  0  0  0  0  0  0  0  0  0  0  0
   18.9583  -13.4732  -17.0482 C   0  0  1  0  0  0  0  0  0  0  0  0
   19.7855  -13.9944  -15.9026 C   0  0  0  0  0  0  0  0  0  0  0  0
   18.9498  -11.9735  -17.1280 C   0  0  0  0  0  0  0  0  0  0  0  0
   18.3483  -11.3215  -15.9113 C   0  0  2  0  0  0  0  0  0  0  0  0
   17.1684  -11.9660  -15.4413 N   0  0  0  0  0  0  0  0  0  0  0  0
   18.0943   -9.8839  -16.1031 C   0  0  0  0  0  0  0  0  0  0  0  0
   19.0320   -9.1479  -16.4976 O   0  0  0  0  0  0  0  0  0  0  0  0
   13.7109   -6.1199  -17.8121 N   0  0  0  0  0  0  0  0  0  0  0  0
   14.7424   -7.1276  -17.6686 C   0  0  0  0  0  0  0  0  0  0  0  0
   15.2214   -7.5247  -18.7495 O   0  0  0  0  0  0  0  0  0  0  0  0
   15.1371   -7.5926  -16.3313 C   0  0  0  0  0  0  0  0  0  0  0  0
   16.5909   -7.8528  -16.1985 C   0  0  2  0  0  0  0  0  0  0  0  0
   16.8451   -9.2639  -15.8692 N   0  0  0  0  0  0  0  0  0  0  0  0
   17.2170   -7.0089  -15.1183 C   0  0  0  0  0  0  0  0  0  0  0  0
   17.3415   -7.3845  -13.9374 O   0  0  0  0  0  0  0  0  0  0  0  0
   22.0887   -5.4964  -12.5800 N   0  0  0  0  0  0  0  0  0  0  0  0
   22.0816   -5.4544  -14.0005 C   0  0  0  0  0  0  0  0  0  0  0  0
   23.1505   -5.3425  -14.6404 O   0  0  0  0  0  0  0  0  0  0  0  0
   20.8091   -5.5406  -14.7568 C   0  0  0  0  0  0  0  0  0  0  0  0
   19.5824   -5.5974  -13.9233 C   0  0  0  0  0  0  0  0  0  0  0  0
   18.3994   -4.8922  -14.4662 C   0  0  2  0  0  0  0  0  0  0  0  0
   17.6955   -5.7106  -15.4542 N   0  0  0  0  0  0  0  0  0  0  0  0
   18.6841   -3.5406  -15.0067 C   0  0  0  0  0  0  0  0  0  0  0  0
   19.0805   -2.5802  -14.2901 O   0  0  0  0  0  0  0  0  0  0  0  0
   18.5243   -3.2730  -16.3482 O   0  0  0  0  0  0  0  0  0  0  0  0
  2  3  1  1
  2  1  1  0
  4  5  1  0
  4  2  1  0
  5  6  1  6
  7  5  1  0
  7  8  2  0
 10  9  1  0
 11 10  2  0
 12 10  1  0
 13 12  1  1
 13 14  1  0
 14  7  1  0
 15 23  1  0
 15 13  1  0
 16 15  2  0
 18 17  1  0
 18 19  2  0
 20 21  1  0
 20 18  1  0
 22 21  1  6
 22 23  1  0
 22 24  1  0
 24 25  2  0
 24 26  1  0
M  END
$$$$
