LNQ.pdb
     RDKit          3D

 26 25  0  0  1  0  0  0  0  0999 V2000
   26.3191  -17.5534  -14.6787 C   0  0  0  0  0  0  0  0  0  0  0  0
   25.7688  -16.7207  -15.8183 C   0  0  1  0  0  0  0  0  0  0  0  0
   24.3259  -17.0910  -16.0404 C   0  0  0  0  0  0  0  0  0  0  0  0
   25.9526  -15.2730  -15.4637 C   0  0  0  0  0  0  0  0  0  0  0  0
   25.3745  -14.3360  -16.4909 C   0  0  2  0  0  0  0  0  0  0  0  0
   25.8535  -14.5694  -17.8117 N   0  0  0  0  0  0  0  0  0  0  0  0
   25.5538  -12.9189  -16.1333 C   0  0  0  0  0  0  0  0  0  0  0  0
   25.3236  -12.5555  -14.9538 O   0  0  0  0  0  0  0  0  0  0  0  0
   29.3146   -9.8821  -16.0077 N   0  0  0  0  0  0  0  0  0  0  0  0
   28.5086  -10.4238  -17.0834 C   0  0  0  0  0  0  0  0  0  0  0  0
   29.0360  -11.3817  -17.6832 O   0  0  0  0  0  0  0  0  0  0  0  0
   27.1926   -9.8418  -17.3829 C   0  0  0  0  0  0  0  0  0  0  0  0
   26.0746  -10.5027  -16.6672 C   0  0  2  0  0  0  0  0  0  0  0  0
   25.9746  -11.9214  -17.0431 N   0  0  0  0  0  0  0  0  0  0  0  0
   24.7496   -9.8524  -16.9711 C   0  0  0  0  0  0  0  0  0  0  0  0
   24.1531   -9.9812  -18.0569 O   0  0  0  0  0  0  0  0  0  0  0  0
   19.4537  -10.7312  -14.9946 N   0  0  0  0  0  0  0  0  0  0  0  0
   19.2412   -9.4043  -15.4570 C   0  0  0  0  0  0  0  0  0  0  0  0
   18.0846   -8.9351  -15.5384 O   0  0  0  0  0  0  0  0  0  0  0  0
   20.3832   -8.5462  -15.8545 C   0  0  0  0  0  0  0  0  0  0  0  0
   21.7191   -9.1836  -15.7460 C   0  0  0  0  0  0  0  0  0  0  0  0
   22.8619   -8.3741  -16.2259 C   0  0  2  0  0  0  0  0  0  0  0  0
   24.1372   -9.0449  -15.9709 N   0  0  0  0  0  0  0  0  0  0  0  0
   22.8864   -6.9819  -15.7151 C   0  0  0  0  0  0  0  0  0  0  0  0
   21.9605   -6.1515  -15.9301 O   0  0  0  0  0  0  0  0  0  0  0  0
   23.9482   -6.5280  -14.9645 O   0  0  0  0  0  0  0  0  0  0  0  0
  2  3  1  1
  2  1  1  0
  4  5  1  0
  4  2  1  0
  5  6  1  6
  7  5  1  0
  7  8  2  0
 10  9  1  0
 11 10  2  0
 12 10  1  0
 13 12  1  6
 13 14  1  0
 14  7  1  0
 15 23  1  0
 15 13  1  0
 16 15  2  0
 18 17  1  0
 18 19  2  0
 20 21  1  0
 20 18  1  0
 22 21  1  1
 22 23  1  0
 22 24  1  0
 24 25  2  0
 24 26  1  0
M  END
$$$$
