EIE.pdb
     RDKit          3D

 27 26  0  0  1  0  0  0  0  0999 V2000
   21.5979  -20.7989  -14.9334 N   0  0  0  0  0  0  0  0  0  0  0  0
   21.2581  -19.9835  -13.7851 C   0  0  1  0  0  0  0  0  0  0  0  0
   19.8178  -19.4673  -13.8852 C   0  0  0  0  0  0  0  0  0  0  0  0
   19.0372  -20.3952  -14.8111 C   0  0  0  0  0  0  0  0  0  0  0  0
   17.6015  -20.1312  -14.6880 C   0  0  0  0  0  0  0  0  0  0  0  0
   17.0718  -19.0446  -15.0009 O   0  0  0  0  0  0  0  0  0  0  0  0
   21.4285  -20.7719  -12.5496 C   0  0  0  0  0  0  0  0  0  0  0  0
   21.1676  -22.0226  -12.5848 O   0  0  0  0  0  0  0  0  0  0  0  0
   16.7827  -21.1308  -14.2032 O   0  0  0  0  0  0  0  0  0  0  0  0
   25.1617  -20.8668   -7.9974 C   0  0  0  0  0  0  0  0  0  0  0  0
   23.6276  -20.9846   -8.0975 C   0  0  0  0  0  0  0  0  0  0  0  0
   23.1332  -20.3395   -9.3588 C   0  0  2  0  0  0  0  0  0  0  0  0
   23.0191  -18.8215   -9.1807 C   0  0  0  0  0  0  0  0  0  0  0  0
   22.0819  -20.9756  -10.1208 C   0  0  2  0  0  0  0  0  0  0  0  0
   21.8626  -20.1838  -11.3388 N   0  0  0  0  0  0  0  0  0  0  0  0
   20.8398  -21.4623   -9.5846 C   0  0  0  0  0  0  0  0  0  0  0  0
   19.8721  -20.5980   -9.5092 O   0  0  0  0  0  0  0  0  0  0  0  0
   20.4727  -22.7293   -9.1208 N   0  0  0  0  0  0  0  0  0  0  0  0
   19.1726  -23.0336   -8.5226 C   0  0  1  0  0  0  0  0  0  0  0  0
   18.2280  -23.5975   -9.5339 C   0  0  0  0  0  0  0  0  0  0  0  0
   16.8664  -23.9326   -9.0716 C   0  0  0  0  0  0  0  0  0  0  0  0
   15.9452  -24.5474  -10.0167 C   0  0  0  0  0  0  0  0  0  0  0  0
   16.0365  -25.6942  -10.4607 O   0  0  0  0  0  0  0  0  0  0  0  0
   19.2227  -23.6701   -7.2200 C   0  0  0  0  0  0  0  0  0  0  0  0
   18.1300  -23.7257   -6.4029 O   0  0  0  0  0  0  0  0  0  0  0  0
   14.8442  -23.7959  -10.4895 O   0  0  0  0  0  0  0  0  0  0  0  0
   20.2913  -24.1869   -6.8185 O   0  0  0  0  0  0  0  0  0  0  0  0
  2  7  1  0
  2  1  1  6
  3  2  1  0
  4  3  1  0
  5  6  2  0
  5  4  1  0
  7  8  2  0
  9  5  1  0
 11 10  1  0
 12 14  1  0
 12 11  1  0
 12 13  1  1
 14 15  1  6
 15  7  1  0
 16 17  2  0
 16 14  1  0
 18 16  1  0
 19 24  1  0
 19 18  1  0
 19 20  1  6
 21 22  1  0
 21 20  1  0
 22 26  1  0
 23 22  2  0
 24 25  1  0
 27 24  2  0
M  END
$$$$
