EIE.pdb
     RDKit          3D

 27 26  0  0  1  0  0  0  0  0999 V2000
   18.1981  -12.2908  -17.4934 N   0  0  0  0  0  0  0  0  0  0  0  0
   19.1131  -11.2586  -17.9365 C   0  0  1  0  0  0  0  0  0  0  0  0
   18.3716  -10.1637  -18.7125 C   0  0  0  0  0  0  0  0  0  0  0  0
   17.7620  -10.7892  -19.9634 C   0  0  0  0  0  0  0  0  0  0  0  0
   17.0461   -9.7692  -20.7336 C   0  0  0  0  0  0  0  0  0  0  0  0
   16.2442   -8.9587  -20.2247 O   0  0  0  0  0  0  0  0  0  0  0  0
   19.8030  -10.6740  -16.7706 C   0  0  0  0  0  0  0  0  0  0  0  0
   19.1492  -10.5404  -15.6805 O   0  0  0  0  0  0  0  0  0  0  0  0
   17.2643   -9.6912  -22.0942 O   0  0  0  0  0  0  0  0  0  0  0  0
   24.2863  -12.6115  -15.0970 C   0  0  0  0  0  0  0  0  0  0  0  0
   22.8961  -11.9645  -15.2588 C   0  0  0  0  0  0  0  0  0  0  0  0
   23.0245  -10.4775  -15.4131 C   0  0  2  0  0  0  0  0  0  0  0  0
   24.0167   -9.9116  -14.3911 C   0  0  0  0  0  0  0  0  0  0  0  0
   21.8443   -9.6820  -15.6679 C   0  0  2  0  0  0  0  0  0  0  0  0
   21.1529  -10.2564  -16.8299 N   0  0  0  0  0  0  0  0  0  0  0  0
   21.7949   -8.2452  -15.6894 C   0  0  0  0  0  0  0  0  0  0  0  0
   22.2501   -7.6737  -16.7643 O   0  0  0  0  0  0  0  0  0  0  0  0
   21.3313   -7.3273  -14.7420 N   0  0  0  0  0  0  0  0  0  0  0  0
   21.4255   -5.8756  -14.8987 C   0  0  1  0  0  0  0  0  0  0  0  0
   20.0923   -5.2748  -15.2066 C   0  0  0  0  0  0  0  0  0  0  0  0
   20.0284   -3.8054  -15.3347 C   0  0  0  0  0  0  0  0  0  0  0  0
   18.7398   -3.1898  -15.6183 C   0  0  0  0  0  0  0  0  0  0  0  0
   18.5416   -2.2941  -16.4424 O   0  0  0  0  0  0  0  0  0  0  0  0
   22.2595   -5.1991  -13.9235 C   0  0  0  0  0  0  0  0  0  0  0  0
   22.7349   -3.9365  -14.1344 O   0  0  0  0  0  0  0  0  0  0  0  0
   17.5987   -3.6276  -14.9066 O   0  0  0  0  0  0  0  0  0  0  0  0
   22.5622   -5.7765  -12.8533 O   0  0  0  0  0  0  0  0  0  0  0  0
  2  7  1  0
  2  1  1  1
  3  2  1  0
  4  3  1  0
  5  6  2  0
  5  4  1  0
  7  8  2  0
  9  5  1  0
 11 10  1  0
 12 14  1  0
 12 11  1  0
 12 13  1  1
 14 15  1  6
 15  7  1  0
 16 17  2  0
 16 14  1  0
 18 16  1  0
 19 24  1  0
 19 18  1  0
 19 20  1  1
 21 22  1  0
 21 20  1  0
 22 26  1  0
 23 22  2  0
 24 25  1  0
 27 24  2  0
M  END
$$$$
