EIE.pdb
     RDKit          3D

 27 26  0  0  1  0  0  0  0  0999 V2000
   20.7402  -13.6750  -17.4497 N   0  0  0  0  0  0  0  0  0  0  0  0
   21.2634  -12.4424  -18.0029 C   0  0  1  0  0  0  0  0  0  0  0  0
   20.1451  -11.6073  -18.6377 C   0  0  0  0  0  0  0  0  0  0  0  0
   19.5609  -12.3945  -19.8066 C   0  0  0  0  0  0  0  0  0  0  0  0
   18.5773  -11.5750  -20.5187 C   0  0  0  0  0  0  0  0  0  0  0  0
   17.4701  -12.0062  -20.9024 O   0  0  0  0  0  0  0  0  0  0  0  0
   21.9334  -11.6676  -16.9409 C   0  0  0  0  0  0  0  0  0  0  0  0
   21.3760  -11.6004  -15.7927 O   0  0  0  0  0  0  0  0  0  0  0  0
   18.8808  -10.2547  -20.7824 O   0  0  0  0  0  0  0  0  0  0  0  0
   27.1116  -12.1281  -15.9224 C   0  0  0  0  0  0  0  0  0  0  0  0
   25.5804  -11.9648  -15.8434 C   0  0  0  0  0  0  0  0  0  0  0  0
   25.1939  -10.5317  -16.0630 C   0  0  2  0  0  0  0  0  0  0  0  0
   26.0990   -9.5973  -15.2527 C   0  0  0  0  0  0  0  0  0  0  0  0
   23.7949  -10.1716  -16.1262 C   0  0  2  0  0  0  0  0  0  0  0  0
   23.1603  -10.9994  -17.1608 N   0  0  0  0  0  0  0  0  0  0  0  0
   23.2783   -8.8300  -16.1424 C   0  0  0  0  0  0  0  0  0  0  0  0
   23.0863   -8.3056  -17.3160 O   0  0  0  0  0  0  0  0  0  0  0  0
   22.9327   -7.9656  -15.0991 N   0  0  0  0  0  0  0  0  0  0  0  0
   22.3716   -6.6293  -15.2991 C   0  0  1  0  0  0  0  0  0  0  0  0
   21.0582   -6.6922  -16.0092 C   0  0  0  0  0  0  0  0  0  0  0  0
   20.3131   -5.4269  -16.1620 C   0  0  0  0  0  0  0  0  0  0  0  0
   20.5004   -4.6553  -17.3824 C   0  0  0  0  0  0  0  0  0  0  0  0
   20.7806   -3.4554  -17.4334 O   0  0  0  0  0  0  0  0  0  0  0  0
   22.4799   -5.7344  -14.1625 C   0  0  0  0  0  0  0  0  0  0  0  0
   22.7003   -4.3958  -14.3180 O   0  0  0  0  0  0  0  0  0  0  0  0
   20.3535   -5.3012  -18.6320 O   0  0  0  0  0  0  0  0  0  0  0  0
   22.3718   -6.1871  -12.9990 O   0  0  0  0  0  0  0  0  0  0  0  0
  2  7  1  0
  2  1  1  1
  3  2  1  0
  4  3  1  0
  5  6  2  0
  5  4  1  0
  7  8  2  0
  9  5  1  0
 11 10  1  0
 12 14  1  0
 12 11  1  0
 12 13  1  1
 14 15  1  6
 15  7  1  0
 16 17  2  0
 16 14  1  0
 18 16  1  0
 19 24  1  0
 19 18  1  0
 19 20  1  1
 21 22  1  0
 21 20  1  0
 22 26  1  0
 23 22  2  0
 24 25  1  0
 27 24  2  0
M  END
$$$$
