EIE.pdb
     RDKit          3D

 27 26  0  0  1  0  0  0  0  0999 V2000
   22.7497  -14.4197  -16.9550 N   0  0  0  0  0  0  0  0  0  0  0  0
   22.6044  -13.1198  -17.5781 C   0  0  1  0  0  0  0  0  0  0  0  0
   21.1630  -12.8952  -18.0502 C   0  0  0  0  0  0  0  0  0  0  0  0
   20.7546  -14.0748  -18.9273 C   0  0  0  0  0  0  0  0  0  0  0  0
   19.3712  -14.4585  -18.6357 C   0  0  0  0  0  0  0  0  0  0  0  0
   18.9975  -14.8993  -17.5288 O   0  0  0  0  0  0  0  0  0  0  0  0
   22.9940  -12.0656  -16.6221 C   0  0  0  0  0  0  0  0  0  0  0  0
   22.5131  -12.1092  -15.4387 O   0  0  0  0  0  0  0  0  0  0  0  0
   18.4232  -14.3279  -19.6301 O   0  0  0  0  0  0  0  0  0  0  0  0
   28.1209   -9.7332  -16.7836 C   0  0  0  0  0  0  0  0  0  0  0  0
   26.6227   -9.7813  -17.1450 C   0  0  0  0  0  0  0  0  0  0  0  0
   25.8050  -10.1523  -15.9428 C   0  0  2  0  0  0  0  0  0  0  0  0
   26.3631  -11.4156  -15.2783 C   0  0  0  0  0  0  0  0  0  0  0  0
   24.3644  -10.0410  -15.9978 C   0  0  2  0  0  0  0  0  0  0  0  0
   23.8718  -11.0160  -16.9800 N   0  0  0  0  0  0  0  0  0  0  0  0
   23.6245   -8.8102  -16.0685 C   0  0  0  0  0  0  0  0  0  0  0  0
   23.4417   -8.3209  -17.2586 O   0  0  0  0  0  0  0  0  0  0  0  0
   23.0482   -8.0254  -15.0650 N   0  0  0  0  0  0  0  0  0  0  0  0
   22.3044   -6.7917  -15.3207 C   0  0  1  0  0  0  0  0  0  0  0  0
   20.8299   -7.0187  -15.2357 C   0  0  0  0  0  0  0  0  0  0  0  0
   19.9536   -5.8550  -15.4761 C   0  0  0  0  0  0  0  0  0  0  0  0
   18.5118   -6.0562  -15.4512 C   0  0  0  0  0  0  0  0  0  0  0  0
   17.7394   -5.5888  -14.6113 O   0  0  0  0  0  0  0  0  0  0  0  0
   22.8398   -5.6018  -14.6868 C   0  0  0  0  0  0  0  0  0  0  0  0
   23.8232   -4.8552  -15.2701 O   0  0  0  0  0  0  0  0  0  0  0  0
   17.9124   -6.8508  -16.4561 O   0  0  0  0  0  0  0  0  0  0  0  0
   22.3991   -5.2364  -13.5721 O   0  0  0  0  0  0  0  0  0  0  0  0
  2  7  1  0
  2  1  1  1
  3  2  1  0
  4  3  1  0
  5  6  2  0
  5  4  1  0
  7  8  2  0
  9  5  1  0
 11 10  1  0
 12 14  1  0
 12 11  1  0
 12 13  1  6
 14 15  1  6
 15  7  1  0
 16 17  2  0
 16 14  1  0
 18 16  1  0
 19 24  1  0
 19 18  1  0
 19 20  1  1
 21 22  1  0
 21 20  1  0
 22 26  1  0
 23 22  2  0
 24 25  1  0
 27 24  2  0
M  END
$$$$
