EIE.pdb
     RDKit          3D

 27 26  0  0  1  0  0  0  0  0999 V2000
   20.7913  -12.5823  -19.2135 N   0  0  0  0  0  0  0  0  0  0  0  0
   21.6615  -11.5995  -18.6005 C   0  0  1  0  0  0  0  0  0  0  0  0
   22.5240  -10.8960  -19.6551 C   0  0  0  0  0  0  0  0  0  0  0  0
   23.5189  -11.9076  -20.2159 C   0  0  0  0  0  0  0  0  0  0  0  0
   24.3760  -11.2640  -21.2145 C   0  0  0  0  0  0  0  0  0  0  0  0
   24.0481  -11.1148  -22.4100 O   0  0  0  0  0  0  0  0  0  0  0  0
   20.8509  -10.6089  -17.8666 C   0  0  0  0  0  0  0  0  0  0  0  0
   19.8213  -10.1177  -18.4431 O   0  0  0  0  0  0  0  0  0  0  0  0
   25.6126  -10.7932  -20.8223 O   0  0  0  0  0  0  0  0  0  0  0  0
   18.7102  -12.2515  -14.8725 C   0  0  0  0  0  0  0  0  0  0  0  0
   18.4511  -10.7695  -15.2104 C   0  0  0  0  0  0  0  0  0  0  0  0
   19.6257   -9.9269  -14.8082 C   0  0  2  0  0  0  0  0  0  0  0  0
   19.3219   -9.1563  -13.5187 C   0  0  0  0  0  0  0  0  0  0  0  0
   20.3712   -9.2125  -15.8204 C   0  0  2  0  0  0  0  0  0  0  0  0
   21.1842  -10.1889  -16.5579 N   0  0  0  0  0  0  0  0  0  0  0  0
   21.0896   -7.9839  -15.6163 C   0  0  0  0  0  0  0  0  0  0  0  0
   22.2409   -8.0869  -15.0220 O   0  0  0  0  0  0  0  0  0  0  0  0
   20.7689   -6.6651  -15.9524 N   0  0  0  0  0  0  0  0  0  0  0  0
   21.6146   -5.5140  -15.6356 C   0  0  1  0  0  0  0  0  0  0  0  0
   21.5744   -4.4936  -16.7266 C   0  0  0  0  0  0  0  0  0  0  0  0
   22.3116   -3.2347  -16.4999 C   0  0  0  0  0  0  0  0  0  0  0  0
   22.2324   -2.1928  -17.5138 C   0  0  0  0  0  0  0  0  0  0  0  0
   21.7611   -2.3308  -18.6450 O   0  0  0  0  0  0  0  0  0  0  0  0
   21.5301   -5.0398  -14.2672 C   0  0  0  0  0  0  0  0  0  0  0  0
   22.6087   -4.5064  -13.6217 O   0  0  0  0  0  0  0  0  0  0  0  0
   22.7305   -0.9036  -17.2134 O   0  0  0  0  0  0  0  0  0  0  0  0
   20.4444   -5.1162  -13.6461 O   0  0  0  0  0  0  0  0  0  0  0  0
  2  7  1  0
  2  1  1  6
  3  2  1  0
  4  3  1  0
  5  6  2  0
  5  4  1  0
  7  8  2  0
  9  5  1  0
 11 10  1  0
 12 14  1  0
 12 11  1  0
 12 13  1  1
 14 15  1  1
 15  7  1  0
 16 17  2  0
 16 14  1  0
 18 16  1  0
 19 24  1  0
 19 18  1  0
 19 20  1  6
 21 22  1  0
 21 20  1  0
 22 26  1  0
 23 22  2  0
 24 25  1  0
 27 24  2  0
M  END
$$$$
