EIE.pdb
     RDKit          3D

 27 26  0  0  1  0  0  0  0  0999 V2000
   18.5564  -25.6310   -5.3694 N   0  0  0  0  0  0  0  0  0  0  0  0
   17.7196  -25.8048   -6.5392 C   0  0  1  0  0  0  0  0  0  0  0  0
   16.5488  -24.8148   -6.5289 C   0  0  0  0  0  0  0  0  0  0  0  0
   15.5801  -25.2266   -5.4245 C   0  0  0  0  0  0  0  0  0  0  0  0
   14.4806  -24.2622   -5.3395 C   0  0  0  0  0  0  0  0  0  0  0  0
   14.0787  -23.7691   -4.2651 O   0  0  0  0  0  0  0  0  0  0  0  0
   18.5286  -25.6193   -7.7592 C   0  0  0  0  0  0  0  0  0  0  0  0
   19.4954  -24.7839   -7.7272 O   0  0  0  0  0  0  0  0  0  0  0  0
   13.8506  -23.8708   -6.5033 O   0  0  0  0  0  0  0  0  0  0  0  0
   20.7962  -29.6019  -10.2684 C   0  0  0  0  0  0  0  0  0  0  0  0
   20.2830  -28.3180   -9.5859 C   0  0  0  0  0  0  0  0  0  0  0  0
   19.5509  -27.4564  -10.5723 C   0  0  2  0  0  0  0  0  0  0  0  0
   20.2118  -27.5340  -11.9529 C   0  0  0  0  0  0  0  0  0  0  0  0
   19.0709  -26.1549  -10.1646 C   0  0  2  0  0  0  0  0  0  0  0  0
   18.2603  -26.3304   -8.9519 N   0  0  0  0  0  0  0  0  0  0  0  0
   18.4973  -25.1661  -11.0366 C   0  0  0  0  0  0  0  0  0  0  0  0
   19.1204  -24.9634  -12.1590 O   0  0  0  0  0  0  0  0  0  0  0  0
   17.3602  -24.3646  -10.8952 N   0  0  0  0  0  0  0  0  0  0  0  0
   16.9222  -23.3874  -11.8921 C   0  0  1  0  0  0  0  0  0  0  0  0
   15.9247  -22.4347  -11.3172 C   0  0  0  0  0  0  0  0  0  0  0  0
   15.3375  -21.4382  -12.2347 C   0  0  0  0  0  0  0  0  0  0  0  0
   14.3707  -20.4895  -11.7009 C   0  0  0  0  0  0  0  0  0  0  0  0
   13.8844  -19.5401  -12.3197 O   0  0  0  0  0  0  0  0  0  0  0  0
   17.9741  -22.8381  -12.7265 C   0  0  0  0  0  0  0  0  0  0  0  0
   17.9351  -22.9296  -14.0884 O   0  0  0  0  0  0  0  0  0  0  0  0
   13.9322  -20.6354  -10.3642 O   0  0  0  0  0  0  0  0  0  0  0  0
   18.9532  -22.2617  -12.1979 O   0  0  0  0  0  0  0  0  0  0  0  0
  2  7  1  0
  2  1  1  1
  3  2  1  0
  4  3  1  0
  5  6  2  0
  5  4  1  0
  7  8  2  0
  9  5  1  0
 11 10  1  0
 12 14  1  0
 12 11  1  0
 12 13  1  6
 14 15  1  1
 15  7  1  0
 16 17  2  0
 16 14  1  0
 18 16  1  0
 19 24  1  0
 19 18  1  0
 19 20  1  1
 21 22  1  0
 21 20  1  0
 22 26  1  0
 23 22  2  0
 24 25  1  0
 27 24  2  0
M  END
$$$$
