DQL.pdb
     RDKit          3D

 26 25  0  0  1  0  0  0  0  0999 V2000
    6.8067  -19.3551   19.7643 N   0  0  0  0  0  0  0  0  0  0  0  0
    7.4592  -18.1113   20.1287 C   0  0  1  0  0  0  0  0  0  0  0  0
    7.0596  -17.0604   19.0920 C   0  0  0  0  0  0  0  0  0  0  0  0
    7.8463  -17.2370   17.8444 C   0  0  0  0  0  0  0  0  0  0  0  0
    8.6980  -18.1553   17.7766 O   0  0  0  0  0  0  0  0  0  0  0  0
    6.9313  -17.7080   21.4562 C   0  0  0  0  0  0  0  0  0  0  0  0
    5.8358  -17.1100   21.4982 O   0  0  0  0  0  0  0  0  0  0  0  0
    7.6450  -16.3995   16.7657 O   0  0  0  0  0  0  0  0  0  0  0  0
    7.3628  -22.3123   25.4882 N   0  0  0  0  0  0  0  0  0  0  0  0
    6.9661  -21.0075   25.9346 C   0  0  0  0  0  0  0  0  0  0  0  0
    6.9833  -20.8307   27.1681 O   0  0  0  0  0  0  0  0  0  0  0  0
    6.5777  -19.9977   24.9249 C   0  0  0  0  0  0  0  0  0  0  0  0
    7.4673  -18.7796   24.9760 C   0  0  0  0  0  0  0  0  0  0  0  0
    7.1044  -17.7262   23.9685 C   0  0  2  0  0  0  0  0  0  0  0  0
    7.6083  -17.9695   22.6580 N   0  0  0  0  0  0  0  0  0  0  0  0
    7.7457  -16.4549   24.4536 C   0  0  0  0  0  0  0  0  0  0  0  0
    8.8896  -16.2077   24.0202 O   0  0  0  0  0  0  0  0  0  0  0  0
    5.9933  -10.9000   25.9640 C   0  0  0  0  0  0  0  0  0  0  0  0
    7.1954  -11.8852   26.0476 C   0  0  1  0  0  0  0  0  0  0  0  0
    7.6408  -11.8131   27.5010 C   0  0  0  0  0  0  0  0  0  0  0  0
    6.7372  -13.2420   25.6693 C   0  0  0  0  0  0  0  0  0  0  0  0
    7.7660  -14.2961   25.6695 C   0  0  2  0  0  0  0  0  0  0  0  0
    7.1045  -15.5919   25.3402 N   0  0  0  0  0  0  0  0  0  0  0  0
    8.5547  -14.5779   26.8555 C   0  0  0  0  0  0  0  0  0  0  0  0
    9.7598  -13.9525   27.0845 O   0  0  0  0  0  0  0  0  0  0  0  0
    8.1500  -15.4281   27.7175 O   0  0  0  0  0  0  0  0  0  0  0  0
  2  1  1  6
  2  3  1  0
  3  4  1  0
  4  8  1  0
  5  4  2  0
  6  2  1  0
  7  6  2  0
 10  9  1  0
 10 12  1  0
 11 10  2  0
 13 12  1  0
 14 13  1  1
 14 15  1  0
 15  6  1  0
 16 14  1  0
 17 16  2  0
 19 18  1  1
 19 21  1  0
 19 20  1  0
 22 21  1  1
 22 23  1  0
 23 16  1  0
 24 22  1  0
 24 25  1  0
 26 24  2  0
M  END
$$$$
