DQL.pdb
     RDKit          3D

 26 25  0  0  1  0  0  0  0  0999 V2000
   12.4178  -18.2356   21.4010 N   0  0  0  0  0  0  0  0  0  0  0  0
   12.0872  -16.8241   21.3381 C   0  0  1  0  0  0  0  0  0  0  0  0
   11.7992  -16.4830   19.8754 C   0  0  0  0  0  0  0  0  0  0  0  0
   13.0427  -16.5714   19.0676 C   0  0  0  0  0  0  0  0  0  0  0  0
   14.1238  -16.8693   19.6295 O   0  0  0  0  0  0  0  0  0  0  0  0
   10.8507  -16.6243   22.1350 C   0  0  0  0  0  0  0  0  0  0  0  0
   10.1415  -15.6278   21.8830 O   0  0  0  0  0  0  0  0  0  0  0  0
   13.0134  -16.3286   17.7091 O   0  0  0  0  0  0  0  0  0  0  0  0
    6.3805  -20.4258   23.2749 N   0  0  0  0  0  0  0  0  0  0  0  0
    6.0818  -19.4702   24.3029 C   0  0  0  0  0  0  0  0  0  0  0  0
    4.9314  -19.5305   24.7782 O   0  0  0  0  0  0  0  0  0  0  0  0
    7.1332  -18.5119   24.7107 C   0  0  0  0  0  0  0  0  0  0  0  0
    8.3470  -18.5943   23.8175 C   0  0  0  0  0  0  0  0  0  0  0  0
    9.2520  -17.3998   23.9196 C   0  0  2  0  0  0  0  0  0  0  0  0
   10.4489  -17.5034   23.1532 N   0  0  0  0  0  0  0  0  0  0  0  0
    9.6643  -17.3185   25.3639 C   0  0  0  0  0  0  0  0  0  0  0  0
    9.2114  -18.1997   26.1227 O   0  0  0  0  0  0  0  0  0  0  0  0
    8.9862  -13.1035   28.5289 C   0  0  0  0  0  0  0  0  0  0  0  0
    8.1220  -14.1740   27.8009 C   0  0  1  0  0  0  0  0  0  0  0  0
    6.8958  -13.4080   27.3257 C   0  0  0  0  0  0  0  0  0  0  0  0
    8.8993  -14.7403   26.6745 C   0  0  0  0  0  0  0  0  0  0  0  0
   10.0792  -15.5423   27.0409 C   0  0  2  0  0  0  0  0  0  0  0  0
   10.5073  -16.3159   25.8395 N   0  0  0  0  0  0  0  0  0  0  0  0
   10.0194  -16.5252   28.1078 C   0  0  0  0  0  0  0  0  0  0  0  0
    9.2126  -17.6373   28.0183 O   0  0  0  0  0  0  0  0  0  0  0  0
   10.7130  -16.3746   29.1689 O   0  0  0  0  0  0  0  0  0  0  0  0
  2  1  1  6
  2  3  1  0
  3  4  1  0
  4  8  1  0
  5  4  2  0
  6  2  1  0
  7  6  2  0
 10  9  1  0
 10 12  1  0
 11 10  2  0
 13 12  1  0
 14 13  1  1
 14 15  1  0
 15  6  1  0
 16 14  1  0
 17 16  2  0
 19 18  1  6
 19 21  1  0
 19 20  1  0
 22 21  1  6
 22 23  1  0
 23 16  1  0
 24 22  1  0
 24 25  1  0
 26 24  2  0
M  END
$$$$
