DQL.pdb
     RDKit          3D

 26 25  0  0  1  0  0  0  0  0999 V2000
    7.2243  -17.1609   18.7319 N   0  0  0  0  0  0  0  0  0  0  0  0
    8.1468  -16.1873   19.2855 C   0  0  1  0  0  0  0  0  0  0  0  0
    7.5762  -14.7975   18.9996 C   0  0  0  0  0  0  0  0  0  0  0  0
    7.7593  -14.4460   17.5679 C   0  0  0  0  0  0  0  0  0  0  0  0
    7.3855  -13.3219   17.1558 O   0  0  0  0  0  0  0  0  0  0  0  0
    8.1870  -16.4021   20.7538 C   0  0  0  0  0  0  0  0  0  0  0  0
    7.1118  -16.6330   21.3456 O   0  0  0  0  0  0  0  0  0  0  0  0
    8.3357  -15.3462   16.6946 O   0  0  0  0  0  0  0  0  0  0  0  0
   12.5496  -19.7031   22.8175 N   0  0  0  0  0  0  0  0  0  0  0  0
   11.8054  -19.6052   24.0405 C   0  0  0  0  0  0  0  0  0  0  0  0
   11.9603  -20.5457   24.8434 O   0  0  0  0  0  0  0  0  0  0  0  0
   10.9346  -18.4273   24.2511 C   0  0  0  0  0  0  0  0  0  0  0  0
   10.8939  -17.5330   23.0360 C   0  0  0  0  0  0  0  0  0  0  0  0
    9.5581  -16.8840   22.8106 C   0  0  2  0  0  0  0  0  0  0  0  0
    9.3759  -16.3568   21.4993 N   0  0  0  0  0  0  0  0  0  0  0  0
    9.5011  -15.7194   23.7609 C   0  0  0  0  0  0  0  0  0  0  0  0
    9.5949  -14.5825   23.2548 O   0  0  0  0  0  0  0  0  0  0  0  0
    7.8660  -11.5671   25.7951 C   0  0  0  0  0  0  0  0  0  0  0  0
    7.5047  -12.9024   26.5088 C   0  0  1  0  0  0  0  0  0  0  0  0
    5.9955  -12.8347   26.6922 C   0  0  0  0  0  0  0  0  0  0  0  0
    7.9136  -14.0373   25.6494 C   0  0  0  0  0  0  0  0  0  0  0  0
    9.1974  -14.6755   25.9875 C   0  0  2  0  0  0  0  0  0  0  0  0
    9.3516  -15.8904   25.1358 N   0  0  0  0  0  0  0  0  0  0  0  0
    9.4775  -15.1348   27.3360 C   0  0  0  0  0  0  0  0  0  0  0  0
    9.9654  -14.2822   28.3006 O   0  0  0  0  0  0  0  0  0  0  0  0
    9.2854  -16.3548   27.6593 O   0  0  0  0  0  0  0  0  0  0  0  0
  2  1  1  6
  2  3  1  0
  3  4  1  0
  4  8  1  0
  5  4  2  0
  6  2  1  0
  7  6  2  0
 10  9  1  0
 10 12  1  0
 11 10  2  0
 13 12  1  0
 14 13  1  6
 14 15  1  0
 15  6  1  0
 16 14  1  0
 17 16  2  0
 19 18  1  6
 19 21  1  0
 19 20  1  0
 22 21  1  1
 22 23  1  0
 23 16  1  0
 24 22  1  0
 24 25  1  0
 26 24  2  0
M  END
$$$$
