DQL.pdb
     RDKit          3D

 26 25  0  0  1  0  0  0  0  0999 V2000
    9.9913  -15.5642   20.8580 N   0  0  0  0  0  0  0  0  0  0  0  0
    9.0283  -14.7824   21.6110 C   0  0  1  0  0  0  0  0  0  0  0  0
    7.8211  -14.5405   20.7039 C   0  0  0  0  0  0  0  0  0  0  0  0
    8.2658  -14.1409   19.3440 C   0  0  0  0  0  0  0  0  0  0  0  0
    7.4135  -13.7824   18.4965 O   0  0  0  0  0  0  0  0  0  0  0  0
    8.6049  -15.6036   22.7729 C   0  0  0  0  0  0  0  0  0  0  0  0
    7.5204  -15.3266   23.3268 O   0  0  0  0  0  0  0  0  0  0  0  0
    9.6053  -14.1623   19.0114 O   0  0  0  0  0  0  0  0  0  0  0  0
    9.9430  -21.5597   22.9026 N   0  0  0  0  0  0  0  0  0  0  0  0
    9.1288  -20.7902   22.0058 C   0  0  0  0  0  0  0  0  0  0  0  0
    8.8389  -21.3458   20.9286 O   0  0  0  0  0  0  0  0  0  0  0  0
    8.7057  -19.4328   22.4162 C   0  0  0  0  0  0  0  0  0  0  0  0
    9.2242  -19.0720   23.7870 C   0  0  0  0  0  0  0  0  0  0  0  0
    8.9172  -17.6591   24.1941 C   0  0  2  0  0  0  0  0  0  0  0  0
    9.3682  -16.6715   23.2712 N   0  0  0  0  0  0  0  0  0  0  0  0
    9.6652  -17.4296   25.4789 C   0  0  0  0  0  0  0  0  0  0  0  0
    9.3970  -18.1987   26.4243 O   0  0  0  0  0  0  0  0  0  0  0  0
   10.4589  -12.8968   28.2644 C   0  0  0  0  0  0  0  0  0  0  0  0
    9.2052  -13.7191   27.8464 C   0  0  1  0  0  0  0  0  0  0  0  0
    8.1474  -12.6667   27.5473 C   0  0  0  0  0  0  0  0  0  0  0  0
    9.5357  -14.5348   26.6550 C   0  0  0  0  0  0  0  0  0  0  0  0
   10.5669  -15.5693   26.8447 C   0  0  2  0  0  0  0  0  0  0  0  0
   10.6098  -16.4143   25.6162 N   0  0  0  0  0  0  0  0  0  0  0  0
   10.4881  -16.5187   27.9403 C   0  0  0  0  0  0  0  0  0  0  0  0
   11.4545  -16.5703   28.9196 O   0  0  0  0  0  0  0  0  0  0  0  0
    9.5162  -17.3429   28.0165 O   0  0  0  0  0  0  0  0  0  0  0  0
  2  1  1  6
  2  3  1  0
  3  4  1  0
  4  8  1  0
  5  4  2  0
  6  2  1  0
  7  6  2  0
 10  9  1  0
 10 12  1  0
 11 10  2  0
 13 12  1  0
 14 13  1  6
 14 15  1  0
 15  6  1  0
 16 14  1  0
 17 16  2  0
 19 18  1  6
 19 21  1  0
 19 20  1  0
 22 21  1  6
 22 23  1  0
 23 16  1  0
 24 22  1  0
 24 25  1  0
 26 24  2  0
M  END
$$$$
