DQL.pdb
     RDKit          3D

 26 25  0  0  1  0  0  0  0  0999 V2000
   11.0645  -17.9512   20.1020 N   0  0  0  0  0  0  0  0  0  0  0  0
    9.9956  -17.0282   19.7690 C   0  0  1  0  0  0  0  0  0  0  0  0
    9.3258  -17.5398   18.4929 C   0  0  0  0  0  0  0  0  0  0  0  0
   10.3089  -17.6041   17.3810 C   0  0  0  0  0  0  0  0  0  0  0  0
   11.5134  -17.8441   17.6353 O   0  0  0  0  0  0  0  0  0  0  0  0
    9.0139  -17.0695   20.8817 C   0  0  0  0  0  0  0  0  0  0  0  0
    7.9216  -16.4844   20.7264 O   0  0  0  0  0  0  0  0  0  0  0  0
    9.9044  -17.4019   16.0768 O   0  0  0  0  0  0  0  0  0  0  0  0
    6.0114  -18.9451   24.9774 N   0  0  0  0  0  0  0  0  0  0  0  0
    6.4171  -20.0965   24.2233 C   0  0  0  0  0  0  0  0  0  0  0  0
    5.5295  -20.9464   24.0163 O   0  0  0  0  0  0  0  0  0  0  0  0
    7.8200  -20.1856   23.7603 C   0  0  0  0  0  0  0  0  0  0  0  0
    8.6131  -18.9552   24.1276 C   0  0  0  0  0  0  0  0  0  0  0  0
    8.3770  -17.7903   23.2092 C   0  0  2  0  0  0  0  0  0  0  0  0
    9.2614  -17.7346   22.0932 N   0  0  0  0  0  0  0  0  0  0  0  0
    8.6357  -16.5584   24.0327 C   0  0  0  0  0  0  0  0  0  0  0  0
    9.7940  -16.0955   23.9937 O   0  0  0  0  0  0  0  0  0  0  0  0
    7.7029  -11.4989   25.6169 C   0  0  0  0  0  0  0  0  0  0  0  0
    6.9769  -12.6156   26.4223 C   0  0  1  0  0  0  0  0  0  0  0  0
    5.6210  -12.0137   26.7618 C   0  0  0  0  0  0  0  0  0  0  0  0
    6.8563  -13.8241   25.5745 C   0  0  0  0  0  0  0  0  0  0  0  0
    7.9984  -14.7537   25.6064 C   0  0  2  0  0  0  0  0  0  0  0  0
    7.6408  -15.9579   24.8020 N   0  0  0  0  0  0  0  0  0  0  0  0
    8.5008  -15.2861   26.8603 C   0  0  0  0  0  0  0  0  0  0  0  0
    9.5335  -14.6786   27.5385 O   0  0  0  0  0  0  0  0  0  0  0  0
    7.9982  -16.3464   27.3632 O   0  0  0  0  0  0  0  0  0  0  0  0
  2  1  1  1
  2  3  1  0
  3  4  1  0
  4  8  1  0
  5  4  2  0
  6  2  1  0
  7  6  2  0
 10  9  1  0
 10 12  1  0
 11 10  2  0
 13 12  1  0
 14 13  1  1
 14 15  1  0
 15  6  1  0
 16 14  1  0
 17 16  2  0
 19 18  1  6
 19 21  1  0
 19 20  1  0
 22 21  1  1
 22 23  1  0
 23 16  1  0
 24 22  1  0
 24 25  1  0
 26 24  2  0
M  END
$$$$
