DQL.pdb
     RDKit          3D

 26 25  0  0  1  0  0  0  0  0999 V2000
   11.4578  -18.0088   20.1070 N   0  0  0  0  0  0  0  0  0  0  0  0
   12.3342  -17.1544   20.8865 C   0  0  1  0  0  0  0  0  0  0  0  0
   13.3841  -16.5802   19.9342 C   0  0  0  0  0  0  0  0  0  0  0  0
   14.4019  -17.6100   19.6022 C   0  0  0  0  0  0  0  0  0  0  0  0
   14.3687  -18.7206   20.1843 O   0  0  0  0  0  0  0  0  0  0  0  0
   11.5068  -16.0444   21.4221 C   0  0  0  0  0  0  0  0  0  0  0  0
   12.0868  -15.1058   22.0071 O   0  0  0  0  0  0  0  0  0  0  0  0
   15.3783  -17.3512   18.6615 O   0  0  0  0  0  0  0  0  0  0  0  0
    7.4727  -13.1551   17.6612 N   0  0  0  0  0  0  0  0  0  0  0  0
    7.5305  -14.1054   18.7348 C   0  0  0  0  0  0  0  0  0  0  0  0
    6.9705  -15.1978   18.5196 O   0  0  0  0  0  0  0  0  0  0  0  0
    8.2318  -13.7279   19.9821 C   0  0  0  0  0  0  0  0  0  0  0  0
    8.0119  -14.7400   21.0799 C   0  0  0  0  0  0  0  0  0  0  0  0
    9.2464  -15.0345   21.8835 C   0  0  2  0  0  0  0  0  0  0  0  0
   10.1087  -16.0068   21.2989 N   0  0  0  0  0  0  0  0  0  0  0  0
    8.7615  -15.6085   23.1866 C   0  0  0  0  0  0  0  0  0  0  0  0
    9.3157  -16.6576   23.5735 O   0  0  0  0  0  0  0  0  0  0  0  0
    6.3854  -11.3858   26.7636 C   0  0  0  0  0  0  0  0  0  0  0  0
    7.6895  -12.1549   26.4023 C   0  0  1  0  0  0  0  0  0  0  0  0
    7.9947  -12.9817   27.6430 C   0  0  0  0  0  0  0  0  0  0  0  0
    7.4391  -13.0017   25.2132 C   0  0  0  0  0  0  0  0  0  0  0  0
    8.1166  -14.3095   25.1957 C   0  0  2  0  0  0  0  0  0  0  0  0
    7.7475  -15.0078   23.9302 N   0  0  0  0  0  0  0  0  0  0  0  0
    7.8828  -15.2923   26.2385 C   0  0  0  0  0  0  0  0  0  0  0  0
    6.7380  -16.0567   26.2644 O   0  0  0  0  0  0  0  0  0  0  0  0
    8.7376  -15.4655   27.1708 O   0  0  0  0  0  0  0  0  0  0  0  0
  2  1  1  6
  2  3  1  0
  3  4  1  0
  4  8  1  0
  5  4  2  0
  6  2  1  0
  7  6  2  0
 10  9  1  0
 10 12  1  0
 11 10  2  0
 13 12  1  0
 14 13  1  6
 14 15  1  0
 15  6  1  0
 16 14  1  0
 17 16  2  0
 19 18  1  1
 19 21  1  0
 19 20  1  0
 22 21  1  1
 22 23  1  0
 23 16  1  0
 24 22  1  0
 24 25  1  0
 26 24  2  0
M  END
$$$$
