DQL.pdb
     RDKit          3D

 26 25  0  0  1  0  0  0  0  0999 V2000
    7.7137  -19.8385   19.1927 N   0  0  0  0  0  0  0  0  0  0  0  0
    8.2847  -18.5733   19.6155 C   0  0  1  0  0  0  0  0  0  0  0  0
    8.2338  -17.6221   18.4190 C   0  0  0  0  0  0  0  0  0  0  0  0
    9.4371  -17.7971   17.5657 C   0  0  0  0  0  0  0  0  0  0  0  0
   10.2955  -18.6567   17.8780 O   0  0  0  0  0  0  0  0  0  0  0  0
    7.4203  -18.0382   20.6972 C   0  0  0  0  0  0  0  0  0  0  0  0
    6.1854  -18.0226   20.5119 O   0  0  0  0  0  0  0  0  0  0  0  0
    9.6133  -17.0222   16.4371 O   0  0  0  0  0  0  0  0  0  0  0  0
    7.8970  -21.2331   25.3014 N   0  0  0  0  0  0  0  0  0  0  0  0
    6.6317  -21.0953   24.6388 C   0  0  0  0  0  0  0  0  0  0  0  0
    5.8342  -22.0399   24.7963 O   0  0  0  0  0  0  0  0  0  0  0  0
    6.3755  -19.8755   23.8410 C   0  0  0  0  0  0  0  0  0  0  0  0
    7.5178  -18.8933   23.9318 C   0  0  0  0  0  0  0  0  0  0  0  0
    7.2766  -17.6177   23.1761 C   0  0  2  0  0  0  0  0  0  0  0  0
    7.9306  -17.5525   21.9117 N   0  0  0  0  0  0  0  0  0  0  0  0
    7.8580  -16.5205   24.0251 C   0  0  0  0  0  0  0  0  0  0  0  0
    9.1026  -16.4301   24.0427 O   0  0  0  0  0  0  0  0  0  0  0  0
    7.9836  -11.2795   25.4818 C   0  0  0  0  0  0  0  0  0  0  0  0
    7.1940  -12.2532   26.4044 C   0  0  1  0  0  0  0  0  0  0  0  0
    6.0219  -11.4248   26.9105 C   0  0  0  0  0  0  0  0  0  0  0  0
    6.7513  -13.4220   25.6097 C   0  0  0  0  0  0  0  0  0  0  0  0
    7.7182  -14.5268   25.4897 C   0  0  2  0  0  0  0  0  0  0  0  0
    7.0575  -15.6458   24.7573 N   0  0  0  0  0  0  0  0  0  0  0  0
    8.2986  -15.1501   26.6655 C   0  0  0  0  0  0  0  0  0  0  0  0
    9.5063  -14.7341   27.1793 O   0  0  0  0  0  0  0  0  0  0  0  0
    7.7013  -16.1148   27.2506 O   0  0  0  0  0  0  0  0  0  0  0  0
  2  1  1  6
  2  3  1  0
  3  4  1  0
  4  8  1  0
  5  4  2  0
  6  2  1  0
  7  6  2  0
 10  9  1  0
 10 12  1  0
 11 10  2  0
 13 12  1  0
 14 13  1  1
 14 15  1  0
 15  6  1  0
 16 14  1  0
 17 16  2  0
 19 18  1  6
 19 21  1  0
 19 20  1  0
 22 21  1  1
 22 23  1  0
 23 16  1  0
 24 22  1  0
 24 25  1  0
 26 24  2  0
M  END
$$$$
