DQL.pdb
     RDKit          3D

 26 25  0  0  1  0  0  0  0  0999 V2000
    8.2459  -15.4173   20.6171 N   0  0  0  0  0  0  0  0  0  0  0  0
    7.2041  -16.1352   21.3275 C   0  0  1  0  0  0  0  0  0  0  0  0
    6.8012  -17.3335   20.4669 C   0  0  0  0  0  0  0  0  0  0  0  0
    6.9409  -17.0066   19.0246 C   0  0  0  0  0  0  0  0  0  0  0  0
    7.5355  -15.9559   18.6847 O   0  0  0  0  0  0  0  0  0  0  0  0
    7.7942  -16.6271   22.5977 C   0  0  0  0  0  0  0  0  0  0  0  0
    7.1025  -17.3772   23.3177 O   0  0  0  0  0  0  0  0  0  0  0  0
    6.4219  -17.8496   18.0626 O   0  0  0  0  0  0  0  0  0  0  0  0
   13.5648  -18.5833   23.7383 N   0  0  0  0  0  0  0  0  0  0  0  0
   12.6370  -18.7101   22.6510 C   0  0  0  0  0  0  0  0  0  0  0  0
   13.0967  -19.2064   21.6043 O   0  0  0  0  0  0  0  0  0  0  0  0
   11.2426  -18.2554   22.8488 C   0  0  0  0  0  0  0  0  0  0  0  0
   11.1287  -17.2663   23.9830 C   0  0  0  0  0  0  0  0  0  0  0  0
    9.7321  -16.7580   24.2007 C   0  0  2  0  0  0  0  0  0  0  0  0
    9.0890  -16.2859   23.0199 N   0  0  0  0  0  0  0  0  0  0  0  0
    9.8629  -15.5801   25.1270 C   0  0  0  0  0  0  0  0  0  0  0  0
   11.0094  -15.1082   25.2694 O   0  0  0  0  0  0  0  0  0  0  0  0
    5.5641  -12.3276   26.4331 C   0  0  0  0  0  0  0  0  0  0  0  0
    6.9297  -12.8875   25.9388 C   0  0  1  0  0  0  0  0  0  0  0  0
    7.5693  -11.7211   25.1996 C   0  0  0  0  0  0  0  0  0  0  0  0
    7.7304  -13.3151   27.1092 C   0  0  0  0  0  0  0  0  0  0  0  0
    9.0147  -13.9713   26.8099 C   0  0  2  0  0  0  0  0  0  0  0  0
    8.7675  -15.0369   25.7956 N   0  0  0  0  0  0  0  0  0  0  0  0
    9.7852  -14.6275   27.8508 C   0  0  0  0  0  0  0  0  0  0  0  0
    9.8738  -15.9995   27.9251 O   0  0  0  0  0  0  0  0  0  0  0  0
   10.3967  -13.9409   28.7365 O   0  0  0  0  0  0  0  0  0  0  0  0
  2  1  1  6
  2  3  1  0
  3  4  1  0
  4  8  1  0
  5  4  2  0
  6  2  1  0
  7  6  2  0
 10  9  1  0
 10 12  1  0
 11 10  2  0
 13 12  1  0
 14 13  1  6
 14 15  1  0
 15  6  1  0
 16 14  1  0
 17 16  2  0
 19 18  1  1
 19 21  1  0
 19 20  1  0
 22 21  1  1
 22 23  1  0
 23 16  1  0
 24 22  1  0
 24 25  1  0
 26 24  2  0
M  END
$$$$
