DQL.pdb
     RDKit          3D

 26 25  0  0  1  0  0  0  0  0999 V2000
    7.8965  -16.3958   18.9456 N   0  0  0  0  0  0  0  0  0  0  0  0
    8.4667  -15.3240   19.7404 C   0  0  1  0  0  0  0  0  0  0  0  0
    7.6789  -14.0506   19.4296 C   0  0  0  0  0  0  0  0  0  0  0  0
    7.9789  -13.5779   18.0536 C   0  0  0  0  0  0  0  0  0  0  0  0
    8.7629  -14.2387   17.3313 O   0  0  0  0  0  0  0  0  0  0  0  0
    8.2692  -15.6799   21.1680 C   0  0  0  0  0  0  0  0  0  0  0  0
    7.1255  -16.0174   21.5388 O   0  0  0  0  0  0  0  0  0  0  0  0
    7.4018  -12.4211   17.5698 O   0  0  0  0  0  0  0  0  0  0  0  0
   11.5140  -20.4394   21.4133 N   0  0  0  0  0  0  0  0  0  0  0  0
   11.2324  -19.6646   22.5879 C   0  0  0  0  0  0  0  0  0  0  0  0
   11.9602  -19.8941   23.5732 O   0  0  0  0  0  0  0  0  0  0  0  0
   10.1300  -18.6782   22.5422 C   0  0  0  0  0  0  0  0  0  0  0  0
   10.4435  -17.4458   23.3550 C   0  0  0  0  0  0  0  0  0  0  0  0
    9.3577  -16.4085   23.3189 C   0  0  2  0  0  0  0  0  0  0  0  0
    9.3083  -15.6528   22.1118 N   0  0  0  0  0  0  0  0  0  0  0  0
    9.6759  -15.4415   24.4264 C   0  0  0  0  0  0  0  0  0  0  0  0
    9.9052  -14.2625   24.0874 O   0  0  0  0  0  0  0  0  0  0  0  0
    6.1880  -12.6713   26.1827 C   0  0  0  0  0  0  0  0  0  0  0  0
    7.6631  -13.1076   25.9452 C   0  0  1  0  0  0  0  0  0  0  0  0
    8.4859  -12.0938   26.7271 C   0  0  0  0  0  0  0  0  0  0  0  0
    7.8478  -14.4875   26.4508 C   0  0  0  0  0  0  0  0  0  0  0  0
    9.2275  -14.8713   26.7956 C   0  0  2  0  0  0  0  0  0  0  0  0
    9.7149  -15.8318   25.7636 N   0  0  0  0  0  0  0  0  0  0  0  0
    9.5374  -15.5068   28.0637 C   0  0  0  0  0  0  0  0  0  0  0  0
   10.1100  -14.8047   29.1003 O   0  0  0  0  0  0  0  0  0  0  0  0
    9.2927  -16.7465   28.2454 O   0  0  0  0  0  0  0  0  0  0  0  0
  2  1  1  6
  2  3  1  0
  3  4  1  0
  4  8  1  0
  5  4  2  0
  6  2  1  0
  7  6  2  0
 10  9  1  0
 10 12  1  0
 11 10  2  0
 13 12  1  0
 14 13  1  6
 14 15  1  0
 15  6  1  0
 16 14  1  0
 17 16  2  0
 19 18  1  1
 19 21  1  0
 19 20  1  0
 22 21  1  6
 22 23  1  0
 23 16  1  0
 24 22  1  0
 24 25  1  0
 26 24  2  0
M  END
$$$$
