TEP.pdb
     RDKit          3D

 24 24  0  0  1  0  0  0  0  0999 V2000
   14.0137   -9.6953  -16.5211 C   0  0  0  0  0  0  0  0  0  0  0  0
   15.4318   -9.5852  -16.0691 C   0  0  1  0  0  0  0  0  0  0  0  0
   15.4844   -9.3581  -14.6860 O   0  0  0  0  0  0  0  0  0  0  0  0
   16.1793  -10.8479  -16.4437 C   0  0  2  0  0  0  0  0  0  0  0  0
   15.7740  -11.9830  -15.6802 N   0  0  0  0  0  0  0  0  0  0  0  0
   17.6265  -10.5459  -16.3382 C   0  0  0  0  0  0  0  0  0  0  0  0
   18.2288  -11.1079  -15.3765 O   0  0  0  0  0  0  0  0  0  0  0  0
   18.3146   -9.6924  -17.2357 N   0  0  0  0  0  0  0  0  0  0  0  0
   19.7346   -9.5279  -17.0565 C   0  0  1  0  0  0  0  0  0  0  0  0
   20.4285   -9.0919  -18.3110 C   0  0  0  0  0  0  0  0  0  0  0  0
   21.8850   -8.8550  -18.1778 C   0  0  0  0  0  0  0  0  0  0  0  0
   22.4469   -8.3870  -19.4703 C   0  0  0  0  0  0  0  0  0  0  0  0
   22.9273   -7.2430  -19.6369 O   0  0  0  0  0  0  0  0  0  0  0  0
   19.9482   -8.5195  -15.9903 C   0  0  0  0  0  0  0  0  0  0  0  0
   19.0380   -7.6415  -15.8386 O   0  0  0  0  0  0  0  0  0  0  0  0
   22.4257   -9.2936  -20.5429 O   0  0  0  0  0  0  0  0  0  0  0  0
   21.0752   -8.4765  -15.1497 N   0  0  0  0  0  0  0  0  0  0  0  0
   22.2979   -9.2557  -15.1828 C   0  0  0  0  0  0  0  0  0  0  0  0
   22.8638   -9.2018  -13.7581 C   0  0  0  0  0  0  0  0  0  0  0  0
   21.7414   -8.5689  -12.9854 C   0  0  0  0  0  0  0  0  0  0  0  0
   21.1930   -7.5563  -13.9959 C   0  0  1  0  0  0  0  0  0  0  0  0
   22.1607   -6.4843  -14.2899 C   0  0  0  0  0  0  0  0  0  0  0  0
   22.3258   -5.4863  -13.3435 O   0  0  0  0  0  0  0  0  0  0  0  0
   22.8465   -6.4142  -15.3413 O   0  0  0  0  0  0  0  0  0  0  0  0
  2  1  1  1
  3  2  1  0
  4  5  1  1
  4  2  1  0
  4  6  1  0
  6  7  2  0
  8  6  1  0
  8  9  1  0
  9 14  1  0
  9 10  1  6
 11 10  1  0
 12 11  1  0
 13 12  2  0
 14 17  1  0
 14 15  2  0
 16 12  1  0
 17 21  1  0
 18 17  1  0
 19 18  1  0
 19 20  1  0
 20 21  1  0
 21 22  1  6
 22 24  2  0
 22 23  1  0
M  END
$$$$
