TEP.pdb
     RDKit          3D

 24 24  0  0  1  0  0  0  0  0999 V2000
   26.9418  -10.4215  -15.4848 C   0  0  0  0  0  0  0  0  0  0  0  0
   27.0414  -11.4175  -16.5920 C   0  0  1  0  0  0  0  0  0  0  0  0
   28.0514  -12.3507  -16.3162 O   0  0  0  0  0  0  0  0  0  0  0  0
   25.7025  -12.1007  -16.7767 C   0  0  2  0  0  0  0  0  0  0  0  0
   25.7462  -13.1657  -17.7251 N   0  0  0  0  0  0  0  0  0  0  0  0
   24.7169  -11.0458  -17.1119 C   0  0  0  0  0  0  0  0  0  0  0  0
   24.6876  -10.6984  -18.3293 O   0  0  0  0  0  0  0  0  0  0  0  0
   23.8550  -10.4496  -16.1584 N   0  0  0  0  0  0  0  0  0  0  0  0
   22.9459   -9.4292  -16.6148 C   0  0  1  0  0  0  0  0  0  0  0  0
   21.5153   -9.8738  -16.5829 C   0  0  0  0  0  0  0  0  0  0  0  0
   21.0664  -10.4669  -15.3015 C   0  0  0  0  0  0  0  0  0  0  0  0
   19.5830  -10.5201  -15.2549 C   0  0  0  0  0  0  0  0  0  0  0  0
   18.8874  -11.0792  -16.1329 O   0  0  0  0  0  0  0  0  0  0  0  0
   23.1196   -8.2393  -15.7469 C   0  0  0  0  0  0  0  0  0  0  0  0
   23.6202   -8.4377  -14.5926 O   0  0  0  0  0  0  0  0  0  0  0  0
   18.9549   -9.9044  -14.1599 O   0  0  0  0  0  0  0  0  0  0  0  0
   22.7725   -6.9272  -16.1164 N   0  0  0  0  0  0  0  0  0  0  0  0
   22.1312   -6.4321  -17.3193 C   0  0  0  0  0  0  0  0  0  0  0  0
   22.5327   -4.9556  -17.4267 C   0  0  0  0  0  0  0  0  0  0  0  0
   23.5849   -4.8257  -16.3621 C   0  0  0  0  0  0  0  0  0  0  0  0
   23.0403   -5.7461  -15.2650 C   0  0  1  0  0  0  0  0  0  0  0  0
   21.7856   -5.2362  -14.6836 C   0  0  0  0  0  0  0  0  0  0  0  0
   21.8765   -4.2440  -13.7213 O   0  0  0  0  0  0  0  0  0  0  0  0
   20.6386   -5.6409  -15.0017 O   0  0  0  0  0  0  0  0  0  0  0  0
  2  1  1  1
  3  2  1  0
  4  5  1  6
  4  2  1  0
  4  6  1  0
  6  7  2  0
  8  6  1  0
  8  9  1  0
  9 14  1  0
  9 10  1  1
 11 10  1  0
 12 11  1  0
 13 12  2  0
 14 17  1  0
 14 15  2  0
 16 12  1  0
 17 21  1  0
 18 17  1  0
 19 18  1  0
 19 20  1  0
 20 21  1  0
 21 22  1  6
 22 24  2  0
 22 23  1  0
M  END
$$$$
