TEP.pdb
     RDKit          3D

 24 24  0  0  1  0  0  0  0  0999 V2000
   18.5563  -15.1155  -13.8685 C   0  0  0  0  0  0  0  0  0  0  0  0
   19.4030  -16.3337  -14.0315 C   0  0  1  0  0  0  0  0  0  0  0  0
   18.6753  -17.4811  -13.6835 O   0  0  0  0  0  0  0  0  0  0  0  0
   19.8994  -16.4146  -15.4601 C   0  0  2  0  0  0  0  0  0  0  0  0
   20.6516  -17.5980  -15.7228 N   0  0  0  0  0  0  0  0  0  0  0  0
   20.6443  -15.1630  -15.7347 C   0  0  0  0  0  0  0  0  0  0  0  0
   21.8119  -15.1092  -15.2476 O   0  0  0  0  0  0  0  0  0  0  0  0
   20.1130  -14.0857  -16.4862 N   0  0  0  0  0  0  0  0  0  0  0  0
   20.9633  -12.9485  -16.7301 C   0  0  1  0  0  0  0  0  0  0  0  0
   20.5270  -12.1452  -17.9174 C   0  0  0  0  0  0  0  0  0  0  0  0
   21.3386  -10.9372  -18.1958 C   0  0  0  0  0  0  0  0  0  0  0  0
   20.7362  -10.1625  -19.3103 C   0  0  0  0  0  0  0  0  0  0  0  0
   20.5275   -8.9293  -19.2561 O   0  0  0  0  0  0  0  0  0  0  0  0
   20.9481  -12.0963  -15.5165 C   0  0  0  0  0  0  0  0  0  0  0  0
   19.8885  -12.1206  -14.8101 O   0  0  0  0  0  0  0  0  0  0  0  0
   20.3928  -10.8740  -20.4717 O   0  0  0  0  0  0  0  0  0  0  0  0
   22.0161  -11.2785  -15.1048 N   0  0  0  0  0  0  0  0  0  0  0  0
   23.2986  -11.0268  -15.7334 C   0  0  0  0  0  0  0  0  0  0  0  0
   24.2300  -10.5635  -14.6062 C   0  0  0  0  0  0  0  0  0  0  0  0
   23.4118  -10.8338  -13.3754 C   0  0  0  0  0  0  0  0  0  0  0  0
   21.9978  -10.4880  -13.8532 C   0  0  1  0  0  0  0  0  0  0  0  0
   21.8477   -9.0529  -14.1537 C   0  0  0  0  0  0  0  0  0  0  0  0
   21.6352   -8.1898  -13.0913 O   0  0  0  0  0  0  0  0  0  0  0  0
   21.8996   -8.5592  -15.3087 O   0  0  0  0  0  0  0  0  0  0  0  0
  2  1  1  6
  3  2  1  0
  4  5  1  1
  4  2  1  0
  4  6  1  0
  6  7  2  0
  8  6  1  0
  8  9  1  0
  9 14  1  0
  9 10  1  6
 11 10  1  0
 12 11  1  0
 13 12  2  0
 14 17  1  0
 14 15  2  0
 16 12  1  0
 17 21  1  0
 18 17  1  0
 19 18  1  0
 19 20  1  0
 20 21  1  0
 21 22  1  6
 22 24  2  0
 22 23  1  0
M  END
$$$$
