TEP.pdb
     RDKit          3D

 24 24  0  0  1  0  0  0  0  0999 V2000
   29.5491  -21.2774  -11.8039 C   0  0  0  0  0  0  0  0  0  0  0  0
   29.0647  -20.5857  -13.0345 C   0  0  1  0  0  0  0  0  0  0  0  0
   29.6064  -21.1919  -14.1774 O   0  0  0  0  0  0  0  0  0  0  0  0
   27.5509  -20.6155  -13.0663 C   0  0  2  0  0  0  0  0  0  0  0  0
   27.0027  -19.9137  -14.1809 N   0  0  0  0  0  0  0  0  0  0  0  0
   27.0769  -20.1127  -11.7551 C   0  0  0  0  0  0  0  0  0  0  0  0
   26.9984  -18.8529  -11.6539 O   0  0  0  0  0  0  0  0  0  0  0  0
   26.7290  -20.9583  -10.6728 N   0  0  0  0  0  0  0  0  0  0  0  0
   26.1511  -20.3517   -9.5007 C   0  0  1  0  0  0  0  0  0  0  0  0
   24.6944  -20.6670   -9.3456 C   0  0  0  0  0  0  0  0  0  0  0  0
   23.8221  -20.1779  -10.4389 C   0  0  0  0  0  0  0  0  0  0  0  0
   22.4035  -20.5050  -10.1460 C   0  0  0  0  0  0  0  0  0  0  0  0
   21.7855  -21.4417  -10.7009 O   0  0  0  0  0  0  0  0  0  0  0  0
   26.8976  -20.8406   -8.3163 C   0  0  0  0  0  0  0  0  0  0  0  0
   27.2483  -22.0650   -8.3229 O   0  0  0  0  0  0  0  0  0  0  0  0
   21.7463  -19.7076   -9.1946 O   0  0  0  0  0  0  0  0  0  0  0  0
   27.2376  -20.0463   -7.2062 N   0  0  0  0  0  0  0  0  0  0  0  0
   26.9210  -18.6615   -6.9139 C   0  0  0  0  0  0  0  0  0  0  0  0
   27.9941  -18.1898   -5.9247 C   0  0  0  0  0  0  0  0  0  0  0  0
   28.9751  -19.3277   -5.9408 C   0  0  0  0  0  0  0  0  0  0  0  0
   28.0495  -20.5415   -6.0716 C   0  0  1  0  0  0  0  0  0  0  0  0
   27.2052  -20.7283   -4.8781 C   0  0  0  0  0  0  0  0  0  0  0  0
   27.8097  -21.2108   -3.7289 O   0  0  0  0  0  0  0  0  0  0  0  0
   25.9737  -20.4793   -4.8323 O   0  0  0  0  0  0  0  0  0  0  0  0
  2  1  1  1
  3  2  1  0
  4  5  1  6
  4  2  1  0
  4  6  1  0
  6  7  2  0
  8  6  1  0
  8  9  1  0
  9 14  1  0
  9 10  1  1
 11 10  1  0
 12 11  1  0
 13 12  2  0
 14 17  1  0
 14 15  2  0
 16 12  1  0
 17 21  1  0
 18 17  1  0
 19 18  1  0
 19 20  1  0
 20 21  1  0
 21 22  1  1
 22 24  2  0
 22 23  1  0
M  END
$$$$
