TEP.pdb
     RDKit          3D

 24 24  0  0  1  0  0  0  0  0999 V2000
   15.3248   -8.0495  -15.4472 C   0  0  0  0  0  0  0  0  0  0  0  0
   14.6955   -9.3811  -15.2052 C   0  0  1  0  0  0  0  0  0  0  0  0
   13.3914   -9.4027  -15.7207 O   0  0  0  0  0  0  0  0  0  0  0  0
   15.5489  -10.4630  -15.8335 C   0  0  2  0  0  0  0  0  0  0  0  0
   15.0192  -11.7736  -15.6400 N   0  0  0  0  0  0  0  0  0  0  0  0
   16.9245  -10.2939  -15.3082 C   0  0  0  0  0  0  0  0  0  0  0  0
   17.1468  -10.8368  -14.1861 O   0  0  0  0  0  0  0  0  0  0  0  0
   17.9401   -9.5803  -15.9915 N   0  0  0  0  0  0  0  0  0  0  0  0
   19.2395   -9.4984  -15.3747 C   0  0  1  0  0  0  0  0  0  0  0  0
   20.2917  -10.2378  -16.1439 C   0  0  0  0  0  0  0  0  0  0  0  0
   20.2981   -9.9897  -17.6046 C   0  0  0  0  0  0  0  0  0  0  0  0
   21.4784  -10.6402  -18.2283 C   0  0  0  0  0  0  0  0  0  0  0  0
   22.5221  -10.0209  -18.5355 O   0  0  0  0  0  0  0  0  0  0  0  0
   19.6087   -8.0658  -15.2722 C   0  0  0  0  0  0  0  0  0  0  0  0
   19.0760   -7.2730  -16.1148 O   0  0  0  0  0  0  0  0  0  0  0  0
   21.3925  -12.0203  -18.4747 O   0  0  0  0  0  0  0  0  0  0  0  0
   20.4951   -7.5388  -14.3154 N   0  0  0  0  0  0  0  0  0  0  0  0
   21.3024   -8.2120  -13.3162 C   0  0  0  0  0  0  0  0  0  0  0  0
   21.5823   -7.1632  -12.2326 C   0  0  0  0  0  0  0  0  0  0  0  0
   20.6776   -6.0322  -12.6322 C   0  0  0  0  0  0  0  0  0  0  0  0
   20.7557   -6.0897  -14.1612 C   0  0  1  0  0  0  0  0  0  0  0  0
   22.1000   -5.7527  -14.6625 C   0  0  0  0  0  0  0  0  0  0  0  0
   22.4899   -4.4241  -14.6216 O   0  0  0  0  0  0  0  0  0  0  0  0
   22.9168   -6.5893  -15.1246 O   0  0  0  0  0  0  0  0  0  0  0  0
  2  1  1  6
  3  2  1  0
  4  5  1  1
  4  2  1  0
  4  6  1  0
  6  7  2  0
  8  6  1  0
  8  9  1  0
  9 14  1  0
  9 10  1  6
 11 10  1  0
 12 11  1  0
 13 12  2  0
 14 17  1  0
 14 15  2  0
 16 12  1  0
 17 21  1  0
 18 17  1  0
 19 18  1  0
 19 20  1  0
 20 21  1  0
 21 22  1  1
 22 24  2  0
 22 23  1  0
M  END
$$$$
