TEP.pdb
     RDKit          3D

 24 24  0  0  1  0  0  0  0  0999 V2000
   24.9319  -11.4676  -15.5414 C   0  0  0  0  0  0  0  0  0  0  0  0
   24.9623  -12.1748  -16.8554 C   0  0  1  0  0  0  0  0  0  0  0  0
   25.8678  -13.2449  -16.8100 O   0  0  0  0  0  0  0  0  0  0  0  0
   23.5679  -12.6539  -17.2017 C   0  0  2  0  0  0  0  0  0  0  0  0
   23.5301  -13.4517  -18.3839 N   0  0  0  0  0  0  0  0  0  0  0  0
   22.6979  -11.4556  -17.2647 C   0  0  0  0  0  0  0  0  0  0  0  0
   22.7431  -10.8094  -18.3527 O   0  0  0  0  0  0  0  0  0  0  0  0
   21.8637  -11.0382  -16.1982 N   0  0  0  0  0  0  0  0  0  0  0  0
   21.1144   -9.8189  -16.3644 C   0  0  1  0  0  0  0  0  0  0  0  0
   19.7131   -9.9266  -15.8449 C   0  0  0  0  0  0  0  0  0  0  0  0
   18.9416  -11.0887  -16.3442 C   0  0  0  0  0  0  0  0  0  0  0  0
   18.0555  -11.6121  -15.2736 C   0  0  0  0  0  0  0  0  0  0  0  0
   18.3586  -12.5835  -14.5443 O   0  0  0  0  0  0  0  0  0  0  0  0
   21.8326   -8.7382  -15.6464 C   0  0  0  0  0  0  0  0  0  0  0  0
   22.5805   -9.0901  -14.6773 O   0  0  0  0  0  0  0  0  0  0  0  0
   16.8216  -10.9662  -15.0917 O   0  0  0  0  0  0  0  0  0  0  0  0
   21.7406   -7.3717  -15.9671 N   0  0  0  0  0  0  0  0  0  0  0  0
   20.9349   -6.6970  -16.9666 C   0  0  0  0  0  0  0  0  0  0  0  0
   21.6511   -5.3709  -17.2517 C   0  0  0  0  0  0  0  0  0  0  0  0
   22.9569   -5.5437  -16.5289 C   0  0  0  0  0  0  0  0  0  0  0  0
   22.5272   -6.3218  -15.2810 C   0  0  1  0  0  0  0  0  0  0  0  0
   21.6585   -5.5223  -14.3989 C   0  0  0  0  0  0  0  0  0  0  0  0
   20.2932   -5.7482  -14.4602 O   0  0  0  0  0  0  0  0  0  0  0  0
   22.0726   -4.6493  -13.5945 O   0  0  0  0  0  0  0  0  0  0  0  0
  2  1  1  1
  3  2  1  0
  4  5  1  6
  4  2  1  0
  4  6  1  0
  6  7  2  0
  8  6  1  0
  8  9  1  0
  9 14  1  0
  9 10  1  1
 11 10  1  0
 12 11  1  0
 13 12  2  0
 14 17  1  0
 14 15  2  0
 16 12  1  0
 17 21  1  0
 18 17  1  0
 19 18  1  0
 19 20  1  0
 20 21  1  0
 21 22  1  1
 22 24  2  0
 22 23  1  0
M  END
$$$$
