AIT.pdb
     RDKit          3D

 21 20  0  0  1  0  0  0  0  0999 V2000
    6.3511  -15.9638   20.8489 C   0  0  0  0  0  0  0  0  0  0  0  0
    6.8775  -14.5703   21.0401 C   0  0  2  0  0  0  0  0  0  0  0  0
    7.6154  -14.1271   19.8998 N   0  0  0  0  0  0  0  0  0  0  0  0
    7.7690  -14.4975   22.2592 C   0  0  0  0  0  0  0  0  0  0  0  0
    9.0244  -14.6571   22.0912 O   0  0  0  0  0  0  0  0  0  0  0  0
    5.7661  -11.4154   26.3897 C   0  0  0  0  0  0  0  0  0  0  0  0
    6.6945  -12.0769   25.3827 C   0  0  0  0  0  0  0  0  0  0  0  0
    7.1144  -13.4455   25.8334 C   0  0  2  0  0  0  0  0  0  0  0  0
    7.9095  -13.2835   27.1116 C   0  0  0  0  0  0  0  0  0  0  0  0
    7.8961  -14.2202   24.7911 C   0  0  2  0  0  0  0  0  0  0  0  0
    7.2065  -14.2599   23.5294 N   0  0  0  0  0  0  0  0  0  0  0  0
    8.3446  -15.5232   25.2556 C   0  0  0  0  0  0  0  0  0  0  0  0
    7.5010  -16.4206   25.5169 O   0  0  0  0  0  0  0  0  0  0  0  0
   11.8060  -19.0301   25.3160 C   0  0  0  0  0  0  0  0  0  0  0  0
   11.3281  -17.6414   24.9591 C   0  0  1  0  0  0  0  0  0  0  0  0
   11.0325  -17.6562   23.5997 O   0  0  0  0  0  0  0  0  0  0  0  0
   10.1516  -17.2046   25.7847 C   0  0  2  0  0  0  0  0  0  0  0  0
    9.7234  -15.8569   25.4394 N   0  0  0  0  0  0  0  0  0  0  0  0
   10.4570  -17.2833   27.2549 C   0  0  0  0  0  0  0  0  0  0  0  0
   10.2343  -18.3505   27.9013 O   0  0  0  0  0  0  0  0  0  0  0  0
   10.9848  -16.2252   27.9718 O   0  0  0  0  0  0  0  0  0  0  0  0
  2  1  1  6
  3  2  1  0
  4  2  1  0
  5  4  2  0
  7  8  1  0
  7  6  1  0
  8 10  1  0
  8  9  1  1
 10 12  1  0
 10 11  1  6
 11  4  1  0
 12 13  2  0
 15 14  1  1
 15 16  1  0
 17 15  1  0
 17 18  1  6
 18 12  1  0
 19 21  1  0
 19 17  1  0
 20 19  2  0
M  END
$$$$
