AIT.pdb
     RDKit          3D

 21 20  0  0  1  0  0  0  0  0999 V2000
    7.3355  -19.4432   18.1009 C   0  0  0  0  0  0  0  0  0  0  0  0
    7.6012  -18.0081   17.7467 C   0  0  2  0  0  0  0  0  0  0  0  0
    8.2321  -17.8908   16.4702 N   0  0  0  0  0  0  0  0  0  0  0  0
    8.4791  -17.3532   18.7892 C   0  0  0  0  0  0  0  0  0  0  0  0
    9.7078  -17.6962   18.8359 O   0  0  0  0  0  0  0  0  0  0  0  0
    7.0190  -12.1705   20.1622 C   0  0  0  0  0  0  0  0  0  0  0  0
    7.8666  -13.3916   19.8394 C   0  0  0  0  0  0  0  0  0  0  0  0
    7.9281  -14.3441   20.9975 C   0  0  2  0  0  0  0  0  0  0  0  0
    8.5964  -13.6233   22.1491 C   0  0  0  0  0  0  0  0  0  0  0  0
    8.6311  -15.6490   20.6802 C   0  0  2  0  0  0  0  0  0  0  0  0
    7.9332  -16.3975   19.6695 N   0  0  0  0  0  0  0  0  0  0  0  0
    8.9639  -16.4283   21.8621 C   0  0  0  0  0  0  0  0  0  0  0  0
    8.0448  -16.9054   22.5784 O   0  0  0  0  0  0  0  0  0  0  0  0
   11.7757  -19.6679   24.1215 C   0  0  0  0  0  0  0  0  0  0  0  0
   11.4339  -18.7517   22.9691 C   0  0  1  0  0  0  0  0  0  0  0  0
   10.7726  -19.5276   22.0225 O   0  0  0  0  0  0  0  0  0  0  0  0
   10.6146  -17.5670   23.3954 C   0  0  2  0  0  0  0  0  0  0  0  0
   10.3086  -16.6931   22.2723 N   0  0  0  0  0  0  0  0  0  0  0  0
   11.3066  -16.7856   24.4777 C   0  0  0  0  0  0  0  0  0  0  0  0
   12.0988  -15.8416   24.1825 O   0  0  0  0  0  0  0  0  0  0  0  0
   11.1257  -17.0424   25.8245 O   0  0  0  0  0  0  0  0  0  0  0  0
  2  1  1  1
  3  2  1  0
  4  2  1  0
  5  4  2  0
  7  8  1  0
  7  6  1  0
  8 10  1  0
  8  9  1  1
 10 12  1  0
 10 11  1  6
 11  4  1  0
 12 13  2  0
 15 14  1  1
 15 16  1  0
 17 15  1  0
 17 18  1  6
 18 12  1  0
 19 21  1  0
 19 17  1  0
 20 19  2  0
M  END
$$$$
