AIT.pdb
     RDKit          3D

 21 20  0  0  1  0  0  0  0  0999 V2000
    6.5985  -16.0667   20.6074 C   0  0  0  0  0  0  0  0  0  0  0  0
    7.1531  -14.6762   20.7273 C   0  0  2  0  0  0  0  0  0  0  0  0
    7.9843  -14.3449   19.6134 N   0  0  0  0  0  0  0  0  0  0  0  0
    7.9569  -14.5284   21.9995 C   0  0  0  0  0  0  0  0  0  0  0  0
    9.2210  -14.6918   21.9294 O   0  0  0  0  0  0  0  0  0  0  0  0
    7.1738  -11.6569   27.4314 C   0  0  0  0  0  0  0  0  0  0  0  0
    7.8747  -12.7688   26.6659 C   0  0  0  0  0  0  0  0  0  0  0  0
    7.1987  -13.0493   25.3556 C   0  0  2  0  0  0  0  0  0  0  0  0
    5.7726  -13.4607   25.6541 C   0  0  0  0  0  0  0  0  0  0  0  0
    7.9082  -14.0892   24.5111 C   0  0  2  0  0  0  0  0  0  0  0  0
    7.3065  -14.2198   23.2111 N   0  0  0  0  0  0  0  0  0  0  0  0
    8.1024  -15.3565   25.1975 C   0  0  0  0  0  0  0  0  0  0  0  0
    7.1112  -16.0894   25.4540 O   0  0  0  0  0  0  0  0  0  0  0  0
    9.7564  -18.2872   23.9491 C   0  0  0  0  0  0  0  0  0  0  0  0
   10.4025  -18.0377   25.2925 C   0  0  1  0  0  0  0  0  0  0  0  0
   11.6523  -17.4816   25.0391 O   0  0  0  0  0  0  0  0  0  0  0  0
    9.5677  -17.1610   26.1818 C   0  0  2  0  0  0  0  0  0  0  0  0
    9.3857  -15.8344   25.6110 N   0  0  0  0  0  0  0  0  0  0  0  0
   10.1674  -17.0486   27.5561 C   0  0  0  0  0  0  0  0  0  0  0  0
   10.6394  -15.9451   27.9630 O   0  0  0  0  0  0  0  0  0  0  0  0
   10.2386  -18.1132   28.4358 O   0  0  0  0  0  0  0  0  0  0  0  0
  2  1  1  6
  3  2  1  0
  4  2  1  0
  5  4  2  0
  7  8  1  0
  7  6  1  0
  8 10  1  0
  8  9  1  1
 10 12  1  0
 10 11  1  6
 11  4  1  0
 12 13  2  0
 15 14  1  6
 15 16  1  0
 17 15  1  0
 17 18  1  6
 18 12  1  0
 19 21  1  0
 19 17  1  0
 20 19  2  0
M  END
$$$$
