AIT.pdb
     RDKit          3D

 21 20  0  0  1  0  0  0  0  0999 V2000
    8.8047  -19.0064   17.4900 C   0  0  0  0  0  0  0  0  0  0  0  0
    9.2317  -17.6123   17.1298 C   0  0  2  0  0  0  0  0  0  0  0  0
   10.2619  -17.6182   16.1399 N   0  0  0  0  0  0  0  0  0  0  0  0
    9.7300  -16.8728   18.3511 C   0  0  0  0  0  0  0  0  0  0  0  0
   10.9819  -16.9044   18.5986 O   0  0  0  0  0  0  0  0  0  0  0  0
    6.8876  -12.3182   19.7400 C   0  0  0  0  0  0  0  0  0  0  0  0
    8.0164  -13.3099   19.5032 C   0  0  0  0  0  0  0  0  0  0  0  0
    8.0957  -14.3301   20.6012 C   0  0  2  0  0  0  0  0  0  0  0  0
    8.3720  -13.5920   21.8939 C   0  0  0  0  0  0  0  0  0  0  0  0
    9.1241  -15.4160   20.3546 C   0  0  2  0  0  0  0  0  0  0  0  0
    8.8201  -16.1787   19.1735 N   0  0  0  0  0  0  0  0  0  0  0  0
    9.3942  -16.2330   21.5269 C   0  0  0  0  0  0  0  0  0  0  0  0
    8.4421  -16.7784   22.1445 O   0  0  0  0  0  0  0  0  0  0  0  0
   11.1026  -19.3888   21.8364 C   0  0  0  0  0  0  0  0  0  0  0  0
   11.7720  -18.5054   22.8639 C   0  0  1  0  0  0  0  0  0  0  0  0
   13.0178  -18.1632   22.3478 O   0  0  0  0  0  0  0  0  0  0  0  0
   10.9535  -17.2930   23.2054 C   0  0  2  0  0  0  0  0  0  0  0  0
   10.7116  -16.4610   22.0358 N   0  0  0  0  0  0  0  0  0  0  0  0
   11.6091  -16.4783   24.2859 C   0  0  0  0  0  0  0  0  0  0  0  0
   11.7156  -16.9378   25.4621 O   0  0  0  0  0  0  0  0  0  0  0  0
   12.1217  -15.2126   24.0681 O   0  0  0  0  0  0  0  0  0  0  0  0
  2  1  1  1
  3  2  1  0
  4  2  1  0
  5  4  2  0
  7  8  1  0
  7  6  1  0
  8 10  1  0
  8  9  1  1
 10 12  1  0
 10 11  1  6
 11  4  1  0
 12 13  2  0
 15 14  1  6
 15 16  1  0
 17 15  1  0
 17 18  1  6
 18 12  1  0
 19 21  1  0
 19 17  1  0
 20 19  2  0
M  END
$$$$
