AIT.pdb
     RDKit          3D

 21 20  0  0  1  0  0  0  0  0999 V2000
    6.5543  -16.2436   21.0585 C   0  0  0  0  0  0  0  0  0  0  0  0
    7.0948  -14.8564   21.2563 C   0  0  2  0  0  0  0  0  0  0  0  0
    7.8803  -14.4351   20.1397 N   0  0  0  0  0  0  0  0  0  0  0  0
    7.9425  -14.7855   22.5064 C   0  0  0  0  0  0  0  0  0  0  0  0
    9.1981  -14.9832   22.3882 O   0  0  0  0  0  0  0  0  0  0  0  0
    5.9788  -11.4095   26.3542 C   0  0  0  0  0  0  0  0  0  0  0  0
    6.9108  -12.1863   25.4368 C   0  0  0  0  0  0  0  0  0  0  0  0
    7.2319  -13.5423   25.9941 C   0  0  2  0  0  0  0  0  0  0  0  0
    8.0030  -13.3384   27.2809 C   0  0  0  0  0  0  0  0  0  0  0  0
    7.9893  -14.4358   25.0321 C   0  0  2  0  0  0  0  0  0  0  0  0
    7.3407  -14.5086   23.7503 N   0  0  0  0  0  0  0  0  0  0  0  0
    8.3266  -15.7344   25.5932 C   0  0  0  0  0  0  0  0  0  0  0  0
    7.4137  -16.4909   26.0172 O   0  0  0  0  0  0  0  0  0  0  0  0
   10.3785  -18.4307   23.8266 C   0  0  0  0  0  0  0  0  0  0  0  0
   10.9322  -18.2600   25.2225 C   0  0  1  0  0  0  0  0  0  0  0  0
   12.1267  -17.5581   25.0969 O   0  0  0  0  0  0  0  0  0  0  0  0
    9.9695  -17.5695   26.1460 C   0  0  2  0  0  0  0  0  0  0  0  0
    9.6688  -16.2181   25.6962 N   0  0  0  0  0  0  0  0  0  0  0  0
   10.4939  -17.5349   27.5548 C   0  0  0  0  0  0  0  0  0  0  0  0
   10.8623  -16.4403   28.0767 O   0  0  0  0  0  0  0  0  0  0  0  0
   10.6031  -18.6642   28.3453 O   0  0  0  0  0  0  0  0  0  0  0  0
  2  1  1  6
  3  2  1  0
  4  2  1  0
  5  4  2  0
  7  8  1  0
  7  6  1  0
  8 10  1  0
  8  9  1  1
 10 12  1  0
 10 11  1  6
 11  4  1  0
 12 13  2  0
 15 14  1  6
 15 16  1  0
 17 15  1  0
 17 18  1  6
 18 12  1  0
 19 21  1  0
 19 17  1  0
 20 19  2  0
M  END
$$$$
