AIT.pdb
     RDKit          3D

 21 20  0  0  1  0  0  0  0  0999 V2000
    5.7781  -19.3012   24.8435 C   0  0  0  0  0  0  0  0  0  0  0  0
    5.1654  -18.0762   24.2274 C   0  0  2  0  0  0  0  0  0  0  0  0
    4.5233  -18.3778   22.9872 N   0  0  0  0  0  0  0  0  0  0  0  0
    6.2154  -17.0143   23.9900 C   0  0  0  0  0  0  0  0  0  0  0  0
    6.7516  -16.9530   22.8332 O   0  0  0  0  0  0  0  0  0  0  0  0
    5.9911  -12.3013   26.9170 C   0  0  0  0  0  0  0  0  0  0  0  0
    6.2642  -13.2806   25.7856 C   0  0  0  0  0  0  0  0  0  0  0  0
    7.4866  -14.1089   26.0542 C   0  0  2  0  0  0  0  0  0  0  0  0
    8.6766  -13.1734   26.0863 C   0  0  0  0  0  0  0  0  0  0  0  0
    7.6948  -15.2334   25.0592 C   0  0  2  0  0  0  0  0  0  0  0  0
    6.5727  -16.1329   25.0300 N   0  0  0  0  0  0  0  0  0  0  0  0
    8.9785  -15.9016   25.2026 C   0  0  0  0  0  0  0  0  0  0  0  0
    9.2607  -16.4943   26.2770 O   0  0  0  0  0  0  0  0  0  0  0  0
   10.1498  -18.4488   22.6317 C   0  0  0  0  0  0  0  0  0  0  0  0
   11.3298  -17.5650   22.9646 C   0  0  1  0  0  0  0  0  0  0  0  0
   11.5211  -16.7237   21.8732 O   0  0  0  0  0  0  0  0  0  0  0  0
   11.1341  -16.7950   24.2395 C   0  0  2  0  0  0  0  0  0  0  0  0
    9.9676  -15.9271   24.1695 N   0  0  0  0  0  0  0  0  0  0  0  0
   12.3542  -15.9855   24.5812 C   0  0  0  0  0  0  0  0  0  0  0  0
   12.3148  -14.7191   24.5497 O   0  0  0  0  0  0  0  0  0  0  0  0
   13.5608  -16.5575   24.9407 O   0  0  0  0  0  0  0  0  0  0  0  0
  2  1  1  6
  3  2  1  0
  4  2  1  0
  5  4  2  0
  7  8  1  0
  7  6  1  0
  8 10  1  0
  8  9  1  6
 10 12  1  0
 10 11  1  1
 11  4  1  0
 12 13  2  0
 15 14  1  6
 15 16  1  0
 17 15  1  0
 17 18  1  6
 18 12  1  0
 19 21  1  0
 19 17  1  0
 20 19  2  0
M  END
$$$$
