AIT.pdb
     RDKit          3D

 21 20  0  0  1  0  0  0  0  0999 V2000
    6.2088  -15.9681   20.9138 C   0  0  0  0  0  0  0  0  0  0  0  0
    6.8482  -14.6161   21.0514 C   0  0  2  0  0  0  0  0  0  0  0  0
    7.6283  -14.2850   19.9012 N   0  0  0  0  0  0  0  0  0  0  0  0
    7.7342  -14.5652   22.2756 C   0  0  0  0  0  0  0  0  0  0  0  0
    8.9838  -14.7726   22.1172 O   0  0  0  0  0  0  0  0  0  0  0  0
    5.8855  -11.2354   26.2217 C   0  0  0  0  0  0  0  0  0  0  0  0
    6.7457  -12.0181   25.2415 C   0  0  0  0  0  0  0  0  0  0  0  0
    7.1401  -13.3553   25.7972 C   0  0  2  0  0  0  0  0  0  0  0  0
    7.9847  -13.1089   27.0293 C   0  0  0  0  0  0  0  0  0  0  0  0
    7.8607  -14.2433   24.8022 C   0  0  2  0  0  0  0  0  0  0  0  0
    7.1730  -14.2956   23.5400 N   0  0  0  0  0  0  0  0  0  0  0  0
    8.2041  -15.5511   25.3377 C   0  0  0  0  0  0  0  0  0  0  0  0
    7.3035  -16.2887   25.8176 O   0  0  0  0  0  0  0  0  0  0  0  0
   10.1742  -18.2050   23.4152 C   0  0  0  0  0  0  0  0  0  0  0  0
   10.7550  -18.1175   24.8078 C   0  0  1  0  0  0  0  0  0  0  0  0
   11.9771  -17.4629   24.6921 O   0  0  0  0  0  0  0  0  0  0  0  0
    9.8369  -17.4259   25.7749 C   0  0  2  0  0  0  0  0  0  0  0  0
    9.5390  -16.0648   25.3534 N   0  0  0  0  0  0  0  0  0  0  0  0
   10.4133  -17.4168   27.1636 C   0  0  0  0  0  0  0  0  0  0  0  0
   10.7946  -16.3308   27.6940 O   0  0  0  0  0  0  0  0  0  0  0  0
   10.5585  -18.5614   27.9259 O   0  0  0  0  0  0  0  0  0  0  0  0
  2  1  1  6
  3  2  1  0
  4  2  1  0
  5  4  2  0
  7  8  1  0
  7  6  1  0
  8 10  1  0
  8  9  1  1
 10 12  1  0
 10 11  1  6
 11  4  1  0
 12 13  2  0
 15 14  1  6
 15 16  1  0
 17 15  1  0
 17 18  1  6
 18 12  1  0
 19 21  1  0
 19 17  1  0
 20 19  2  0
M  END
$$$$
