AIT.pdb
     RDKit          3D

 21 20  0  0  1  0  0  0  0  0999 V2000
    6.2724  -16.2325   21.0142 C   0  0  0  0  0  0  0  0  0  0  0  0
    6.7724  -14.8233   21.1548 C   0  0  2  0  0  0  0  0  0  0  0  0
    7.4681  -14.3940   19.9831 N   0  0  0  0  0  0  0  0  0  0  0  0
    7.6956  -14.6993   22.3459 C   0  0  0  0  0  0  0  0  0  0  0  0
    8.9502  -14.8207   22.1440 O   0  0  0  0  0  0  0  0  0  0  0  0
    5.8563  -11.3638   26.3216 C   0  0  0  0  0  0  0  0  0  0  0  0
    6.7371  -12.1136   25.3339 C   0  0  0  0  0  0  0  0  0  0  0  0
    7.1362  -13.4610   25.8609 C   0  0  2  0  0  0  0  0  0  0  0  0
    7.9484  -13.2390   27.1192 C   0  0  0  0  0  0  0  0  0  0  0  0
    7.8917  -14.3110   24.8587 C   0  0  2  0  0  0  0  0  0  0  0  0
    7.1621  -14.4573   23.6278 N   0  0  0  0  0  0  0  0  0  0  0  0
    8.3683  -15.5691   25.4111 C   0  0  0  0  0  0  0  0  0  0  0  0
    7.5498  -16.3845   25.9117 O   0  0  0  0  0  0  0  0  0  0  0  0
   11.9169  -19.0572   25.6125 C   0  0  0  0  0  0  0  0  0  0  0  0
   11.4876  -17.6583   25.2342 C   0  0  1  0  0  0  0  0  0  0  0  0
   11.4239  -17.6204   23.8450 O   0  0  0  0  0  0  0  0  0  0  0  0
   10.1841  -17.2623   25.8671 C   0  0  2  0  0  0  0  0  0  0  0  0
    9.7478  -15.9472   25.4211 N   0  0  0  0  0  0  0  0  0  0  0  0
   10.2751  -17.2894   27.3676 C   0  0  0  0  0  0  0  0  0  0  0  0
    9.9936  -18.3452   28.0096 O   0  0  0  0  0  0  0  0  0  0  0  0
   10.6610  -16.1940   28.1183 O   0  0  0  0  0  0  0  0  0  0  0  0
  2  1  1  6
  3  2  1  0
  4  2  1  0
  5  4  2  0
  7  8  1  0
  7  6  1  0
  8 10  1  0
  8  9  1  1
 10 12  1  0
 10 11  1  6
 11  4  1  0
 12 13  2  0
 15 14  1  6
 15 16  1  0
 17 15  1  0
 17 18  1  6
 18 12  1  0
 19 21  1  0
 19 17  1  0
 20 19  2  0
M  END
$$$$
