AIT.pdb
     RDKit          3D

 21 20  0  0  1  0  0  0  0  0999 V2000
    6.7403  -14.9742   20.2264 C   0  0  0  0  0  0  0  0  0  0  0  0
    7.2313  -13.6310   20.6849 C   0  0  2  0  0  0  0  0  0  0  0  0
    8.1173  -13.0425   19.7310 N   0  0  0  0  0  0  0  0  0  0  0  0
    7.9471  -13.7471   22.0119 C   0  0  0  0  0  0  0  0  0  0  0  0
    9.2176  -13.8696   21.9962 O   0  0  0  0  0  0  0  0  0  0  0  0
    5.6599  -11.0871   26.2351 C   0  0  0  0  0  0  0  0  0  0  0  0
    6.6143  -11.7312   25.2411 C   0  0  0  0  0  0  0  0  0  0  0  0
    6.8678  -13.1729   25.5724 C   0  0  2  0  0  0  0  0  0  0  0  0
    7.4987  -13.2234   26.9477 C   0  0  0  0  0  0  0  0  0  0  0  0
    7.7189  -13.8959   24.5474 C   0  0  2  0  0  0  0  0  0  0  0  0
    7.2111  -13.7185   23.2134 N   0  0  0  0  0  0  0  0  0  0  0  0
    7.9865  -15.2829   24.8935 C   0  0  0  0  0  0  0  0  0  0  0  0
    7.0290  -16.0790   25.0797 O   0  0  0  0  0  0  0  0  0  0  0  0
    9.7351  -17.8473   22.9374 C   0  0  0  0  0  0  0  0  0  0  0  0
   10.3807  -17.8851   24.3034 C   0  0  1  0  0  0  0  0  0  0  0  0
   11.6311  -17.2896   24.1726 O   0  0  0  0  0  0  0  0  0  0  0  0
    9.5461  -17.2131   25.3562 C   0  0  2  0  0  0  0  0  0  0  0  0
    9.3073  -15.8125   25.0397 N   0  0  0  0  0  0  0  0  0  0  0  0
   10.1822  -17.3294   26.7137 C   0  0  0  0  0  0  0  0  0  0  0  0
   10.2913  -18.4591   27.2776 O   0  0  0  0  0  0  0  0  0  0  0  0
   10.6733  -16.2407   27.4107 O   0  0  0  0  0  0  0  0  0  0  0  0
  2  1  1  6
  3  2  1  0
  4  2  1  0
  5  4  2  0
  7  8  1  0
  7  6  1  0
  8 10  1  0
  8  9  1  1
 10 12  1  0
 10 11  1  6
 11  4  1  0
 12 13  2  0
 15 14  1  6
 15 16  1  0
 17 15  1  0
 17 18  1  6
 18 12  1  0
 19 21  1  0
 19 17  1  0
 20 19  2  0
M  END
$$$$
