VWS.pdb
     RDKit          3D

 28 29  0  0  1  0  0  0  0  0999 V2000
    7.0491  -17.8002   19.1134 C   0  0  0  0  0  0  0  0  0  0  0  0
    8.0632  -17.4099   20.1647 C   0  0  1  0  0  0  0  0  0  0  0  0
    9.3210  -17.0014   19.4330 C   0  0  0  0  0  0  0  0  0  0  0  0
    7.4785  -16.2628   20.9576 C   0  0  2  0  0  0  0  0  0  0  0  0
    7.2724  -15.1221   20.0816 N   0  0  0  0  0  0  0  0  0  0  0  0
    8.3888  -15.8412   22.0594 C   0  0  0  0  0  0  0  0  0  0  0  0
    9.1417  -14.8540   21.8973 O   0  0  0  0  0  0  0  0  0  0  0  0
    8.4398  -16.5223   23.3097 N   0  0  0  0  0  0  0  0  0  0  0  0
    9.3448  -16.3123   24.3851 C   0  0  1  0  0  0  0  0  0  0  0  0
    8.7515  -16.0952   25.7239 C   0  0  0  0  0  0  0  0  0  0  0  0
    7.5498  -15.2646   25.7402 C   0  0  0  0  0  0  0  0  0  0  0  0
    6.2471  -15.6035   25.5180 C   0  0  0  0  0  0  0  0  0  0  0  0
    5.4886  -14.4746   25.6179 N   0  0  0  0  0  0  0  0  0  0  0  0
    6.2564  -13.4094   25.8985 C   0  0  0  0  0  0  0  0  0  0  0  0
    5.9593  -12.0688   26.0878 C   0  0  0  0  0  0  0  0  0  0  0  0
    6.9630  -11.1667   26.3650 C   0  0  0  0  0  0  0  0  0  0  0  0
    8.2724  -11.6245   26.4507 C   0  0  0  0  0  0  0  0  0  0  0  0
    8.5299  -12.9504   26.2585 C   0  0  0  0  0  0  0  0  0  0  0  0
    7.5467  -13.8862   25.9778 C   0  0  0  0  0  0  0  0  0  0  0  0
   10.5425  -17.2022   24.3960 C   0  0  0  0  0  0  0  0  0  0  0  0
   10.3761  -18.4228   24.2269 O   0  0  0  0  0  0  0  0  0  0  0  0
   14.0377  -16.4069   22.8932 O   0  0  0  0  0  0  0  0  0  0  0  0
   14.1884  -16.9169   24.1769 C   0  0  0  0  0  0  0  0  0  0  0  0
   12.9896  -17.6940   24.6488 C   0  0  2  0  0  0  0  0  0  0  0  0
   11.8495  -16.7540   24.5856 N   0  0  0  0  0  0  0  0  0  0  0  0
   13.1538  -18.1768   26.0455 C   0  0  0  0  0  0  0  0  0  0  0  0
   14.1842  -19.0481   26.3250 O   0  0  0  0  0  0  0  0  0  0  0  0
   12.3756  -17.7941   26.9241 O   0  0  0  0  0  0  0  0  0  0  0  0
  2  1  1  6
  3  2  1  0
  4  2  1  0
  4  5  1  6
  6  4  1  0
  7  6  2  0
  8  6  1  0
  9  8  1  0
  9 10  1  1
 10 11  1  0
 11 19  1  0
 11 12  2  0
 12 13  1  0
 14 13  1  0
 14 15  2  0
 16 15  1  0
 17 16  2  0
 18 19  2  0
 18 17  1  0
 19 14  1  0
 20 25  1  0
 20  9  1  0
 21 20  2  0
 24 23  1  1
 23 22  1  0
 24 26  1  0
 24 25  1  0
 26 27  1  0
 28 26  2  0
M  END
$$$$
