VWS.pdb
     RDKit          3D

 28 29  0  0  1  0  0  0  0  0999 V2000
    7.5085  -14.1250   18.4839 C   0  0  0  0  0  0  0  0  0  0  0  0
    8.2135  -13.9118   19.8042 C   0  0  1  0  0  0  0  0  0  0  0  0
    7.7385  -12.5838   20.3477 C   0  0  0  0  0  0  0  0  0  0  0  0
    7.8328  -15.0581   20.7139 C   0  0  2  0  0  0  0  0  0  0  0  0
    6.3909  -15.0792   20.8910 N   0  0  0  0  0  0  0  0  0  0  0  0
    8.4618  -14.9202   22.0577 C   0  0  0  0  0  0  0  0  0  0  0  0
    8.7076  -13.7798   22.5125 O   0  0  0  0  0  0  0  0  0  0  0  0
    8.7999  -16.0472   22.8611 N   0  0  0  0  0  0  0  0  0  0  0  0
    9.5955  -16.0764   24.0382 C   0  0  1  0  0  0  0  0  0  0  0  0
    8.8840  -16.2852   25.3196 C   0  0  0  0  0  0  0  0  0  0  0  0
    7.7209  -15.4260   25.5279 C   0  0  0  0  0  0  0  0  0  0  0  0
    6.3941  -15.6886   25.3495 C   0  0  0  0  0  0  0  0  0  0  0  0
    5.6905  -14.5601   25.6511 N   0  0  0  0  0  0  0  0  0  0  0  0
    6.5175  -13.5690   26.0209 C   0  0  0  0  0  0  0  0  0  0  0  0
    6.2883  -12.2581   26.4087 C   0  0  0  0  0  0  0  0  0  0  0  0
    7.3437  -11.4357   26.7373 C   0  0  0  0  0  0  0  0  0  0  0  0
    8.6359  -11.9433   26.6729 C   0  0  0  0  0  0  0  0  0  0  0  0
    8.8260  -13.2379   26.2869 C   0  0  0  0  0  0  0  0  0  0  0  0
    7.7895  -14.0939   25.9488 C   0  0  0  0  0  0  0  0  0  0  0  0
   10.8720  -16.8413   23.9285 C   0  0  0  0  0  0  0  0  0  0  0  0
   10.8276  -18.0134   23.5158 O   0  0  0  0  0  0  0  0  0  0  0  0
   14.7009  -15.1907   24.5989 O   0  0  0  0  0  0  0  0  0  0  0  0
   14.4330  -16.2103   23.6937 C   0  0  0  0  0  0  0  0  0  0  0  0
   13.3514  -17.1462   24.1605 C   0  0  2  0  0  0  0  0  0  0  0  0
   12.1247  -16.3263   24.2613 N   0  0  0  0  0  0  0  0  0  0  0  0
   13.6611  -17.7358   25.4899 C   0  0  0  0  0  0  0  0  0  0  0  0
   14.7789  -18.5323   25.6137 O   0  0  0  0  0  0  0  0  0  0  0  0
   12.9228  -17.5054   26.4521 O   0  0  0  0  0  0  0  0  0  0  0  0
  2  1  1  6
  3  2  1  0
  4  2  1  0
  4  5  1  1
  6  4  1  0
  7  6  2  0
  8  6  1  0
  9  8  1  0
  9 10  1  1
 10 11  1  0
 11 19  1  0
 11 12  2  0
 12 13  1  0
 14 13  1  0
 14 15  2  0
 16 15  1  0
 17 16  2  0
 18 19  2  0
 18 17  1  0
 19 14  1  0
 20 25  1  0
 20  9  1  0
 21 20  2  0
 24 23  1  1
 23 22  1  0
 24 26  1  0
 24 25  1  0
 26 27  1  0
 28 26  2  0
M  END
$$$$
