VWS.pdb
     RDKit          3D

 28 29  0  0  1  0  0  0  0  0999 V2000
    8.1246  -12.1663   19.0308 C   0  0  0  0  0  0  0  0  0  0  0  0
    7.6508  -13.5384   18.6084 C   0  0  1  0  0  0  0  0  0  0  0  0
    7.5922  -13.5383   17.0980 C   0  0  0  0  0  0  0  0  0  0  0  0
    8.6502  -14.5460   19.1303 C   0  0  2  0  0  0  0  0  0  0  0  0
    8.2260  -15.8861   18.7627 N   0  0  0  0  0  0  0  0  0  0  0  0
    8.7600  -14.4867   20.6152 C   0  0  0  0  0  0  0  0  0  0  0  0
    9.4332  -13.5769   21.1507 O   0  0  0  0  0  0  0  0  0  0  0  0
    8.1211  -15.4343   21.4659 N   0  0  0  0  0  0  0  0  0  0  0  0
    8.2152  -15.5453   22.8795 C   0  0  1  0  0  0  0  0  0  0  0  0
    6.9420  -15.6606   23.6261 C   0  0  0  0  0  0  0  0  0  0  0  0
    7.0423  -15.4087   25.0617 C   0  0  0  0  0  0  0  0  0  0  0  0
    6.8932  -16.2639   26.1141 C   0  0  0  0  0  0  0  0  0  0  0  0
    7.0550  -15.5547   27.2676 N   0  0  0  0  0  0  0  0  0  0  0  0
    7.3051  -14.2628   27.0002 C   0  0  0  0  0  0  0  0  0  0  0  0
    7.5317  -13.1673   27.8186 C   0  0  0  0  0  0  0  0  0  0  0  0
    7.7619  -11.9250   27.2693 C   0  0  0  0  0  0  0  0  0  0  0  0
    7.7625  -11.7921   25.8859 C   0  0  0  0  0  0  0  0  0  0  0  0
    7.5356  -12.8909   25.1097 C   0  0  0  0  0  0  0  0  0  0  0  0
    7.3002  -14.1553   25.6265 C   0  0  0  0  0  0  0  0  0  0  0  0
    9.2891  -16.4526   23.3796 C   0  0  0  0  0  0  0  0  0  0  0  0
    9.3005  -17.6319   22.9854 O   0  0  0  0  0  0  0  0  0  0  0  0
   12.9051  -15.9695   23.3443 O   0  0  0  0  0  0  0  0  0  0  0  0
   12.6221  -16.3575   24.6481 C   0  0  0  0  0  0  0  0  0  0  0  0
   11.2837  -17.0307   24.7873 C   0  0  2  0  0  0  0  0  0  0  0  0
   10.2909  -16.0647   24.2690 N   0  0  0  0  0  0  0  0  0  0  0  0
   10.9666  -17.3514   26.2041 C   0  0  0  0  0  0  0  0  0  0  0  0
   11.7827  -18.2331   26.8791 O   0  0  0  0  0  0  0  0  0  0  0  0
    9.9900  -16.8289   26.7493 O   0  0  0  0  0  0  0  0  0  0  0  0
  2  1  1  6
  3  2  1  0
  4  2  1  0
  4  5  1  1
  6  4  1  0
  7  6  2  0
  8  6  1  0
  9  8  1  0
  9 10  1  6
 10 11  1  0
 11 19  1  0
 11 12  2  0
 12 13  1  0
 14 13  1  0
 14 15  2  0
 16 15  1  0
 17 16  2  0
 18 19  2  0
 18 17  1  0
 19 14  1  0
 20 25  1  0
 20  9  1  0
 21 20  2  0
 24 23  1  1
 23 22  1  0
 24 26  1  0
 24 25  1  0
 26 27  1  0
 28 26  2  0
M  END
$$$$
