VWS.pdb
     RDKit          3D

 28 29  0  0  1  0  0  0  0  0999 V2000
    7.4514  -15.3642   16.7436 C   0  0  0  0  0  0  0  0  0  0  0  0
    8.0981  -15.4778   18.1054 C   0  0  1  0  0  0  0  0  0  0  0  0
    9.5878  -15.5936   17.8773 C   0  0  0  0  0  0  0  0  0  0  0  0
    7.7456  -14.2294   18.8824 C   0  0  2  0  0  0  0  0  0  0  0  0
    8.3385  -13.0713   18.2357 N   0  0  0  0  0  0  0  0  0  0  0  0
    8.2601  -14.2928   20.2795 C   0  0  0  0  0  0  0  0  0  0  0  0
    9.3983  -13.8418   20.5414 O   0  0  0  0  0  0  0  0  0  0  0  0
    7.5007  -14.8518   21.3475 N   0  0  0  0  0  0  0  0  0  0  0  0
    7.8881  -15.0168   22.7048 C   0  0  1  0  0  0  0  0  0  0  0  0
    6.8039  -15.0193   23.7127 C   0  0  0  0  0  0  0  0  0  0  0  0
    7.2436  -14.8377   25.0940 C   0  0  0  0  0  0  0  0  0  0  0  0
    7.7910  -15.7341   25.9646 C   0  0  0  0  0  0  0  0  0  0  0  0
    8.0112  -15.0983   27.1508 N   0  0  0  0  0  0  0  0  0  0  0  0
    7.6241  -13.8145   27.0810 C   0  0  0  0  0  0  0  0  0  0  0  0
    7.6392  -12.7835   28.0074 C   0  0  0  0  0  0  0  0  0  0  0  0
    7.1657  -11.5355   27.6664 C   0  0  0  0  0  0  0  0  0  0  0  0
    6.6751  -11.3313   26.3823 C   0  0  0  0  0  0  0  0  0  0  0  0
    6.6744  -12.3678   25.4953 C   0  0  0  0  0  0  0  0  0  0  0  0
    7.1420  -13.6360   25.8026 C   0  0  0  0  0  0  0  0  0  0  0  0
    8.9379  -16.0487   22.9493 C   0  0  0  0  0  0  0  0  0  0  0  0
    8.7010  -17.2248   22.6225 O   0  0  0  0  0  0  0  0  0  0  0  0
   12.9690  -15.2537   23.8749 O   0  0  0  0  0  0  0  0  0  0  0  0
   12.4649  -16.3634   23.2077 C   0  0  0  0  0  0  0  0  0  0  0  0
   11.1634  -16.8562   23.7794 C   0  0  2  0  0  0  0  0  0  0  0  0
   10.1793  -15.7816   23.5260 N   0  0  0  0  0  0  0  0  0  0  0  0
   11.2566  -17.1046   25.2424 C   0  0  0  0  0  0  0  0  0  0  0  0
   12.0767  -18.1184   25.6881 O   0  0  0  0  0  0  0  0  0  0  0  0
   10.6075  -16.4071   26.0273 O   0  0  0  0  0  0  0  0  0  0  0  0
  2  1  1  6
  3  2  1  0
  4  2  1  0
  4  5  1  6
  6  4  1  0
  7  6  2  0
  8  6  1  0
  9  8  1  0
  9 10  1  1
 10 11  1  0
 11 19  1  0
 11 12  2  0
 12 13  1  0
 14 13  1  0
 14 15  2  0
 16 15  1  0
 17 16  2  0
 18 19  2  0
 18 17  1  0
 19 14  1  0
 20 25  1  0
 20  9  1  0
 21 20  2  0
 24 23  1  1
 23 22  1  0
 24 26  1  0
 24 25  1  0
 26 27  1  0
 28 26  2  0
M  END
$$$$
