VWS.pdb
     RDKit          3D

 28 29  0  0  1  0  0  0  0  0999 V2000
    6.8848  -22.2514   24.2122 C   0  0  0  0  0  0  0  0  0  0  0  0
    7.7296  -21.0217   23.9674 C   0  0  1  0  0  0  0  0  0  0  0  0
    8.4041  -21.2103   22.6281 C   0  0  0  0  0  0  0  0  0  0  0  0
    6.8036  -19.8263   23.9651 C   0  0  2  0  0  0  0  0  0  0  0  0
    5.7695  -20.0149   22.9620 N   0  0  0  0  0  0  0  0  0  0  0  0
    7.5362  -18.5693   23.6433 C   0  0  0  0  0  0  0  0  0  0  0  0
    7.5853  -18.1669   22.4587 O   0  0  0  0  0  0  0  0  0  0  0  0
    8.1927  -17.7921   24.6408 N   0  0  0  0  0  0  0  0  0  0  0  0
    9.0958  -16.7108   24.4548 C   0  0  1  0  0  0  0  0  0  0  0  0
    9.1064  -15.6627   25.5002 C   0  0  0  0  0  0  0  0  0  0  0  0
    7.8007  -15.0844   25.8089 C   0  0  0  0  0  0  0  0  0  0  0  0
    6.5771  -15.6809   25.8988 C   0  0  0  0  0  0  0  0  0  0  0  0
    5.6531  -14.7201   26.1865 N   0  0  0  0  0  0  0  0  0  0  0  0
    6.2363  -13.5148   26.2871 C   0  0  0  0  0  0  0  0  0  0  0  0
    5.7299  -12.2524   26.5542 C   0  0  0  0  0  0  0  0  0  0  0  0
    6.5694  -11.1608   26.5940 C   0  0  0  0  0  0  0  0  0  0  0  0
    7.9268  -11.3487   26.3623 C   0  0  0  0  0  0  0  0  0  0  0  0
    8.3919  -12.6046   26.1020 C   0  0  0  0  0  0  0  0  0  0  0  0
    7.5778  -13.7254   26.0536 C   0  0  0  0  0  0  0  0  0  0  0  0
   10.4553  -17.0892   23.9699 C   0  0  0  0  0  0  0  0  0  0  0  0
   11.0161  -18.0725   24.4845 O   0  0  0  0  0  0  0  0  0  0  0  0
   12.0667  -16.2950   20.2742 O   0  0  0  0  0  0  0  0  0  0  0  0
   12.8539  -15.9645   21.3704 C   0  0  0  0  0  0  0  0  0  0  0  0
   12.5310  -16.7750   22.5961 C   0  0  2  0  0  0  0  0  0  0  0  0
   11.1476  -16.4079   22.9691 N   0  0  0  0  0  0  0  0  0  0  0  0
   13.4455  -16.4636   23.7264 C   0  0  0  0  0  0  0  0  0  0  0  0
   14.7791  -16.7886   23.6041 O   0  0  0  0  0  0  0  0  0  0  0  0
   13.0033  -15.9238   24.7447 O   0  0  0  0  0  0  0  0  0  0  0  0
  2  1  1  6
  3  2  1  0
  4  2  1  0
  4  5  1  6
  6  4  1  0
  7  6  2  0
  8  6  1  0
  9  8  1  0
  9 10  1  1
 10 11  1  0
 11 19  1  0
 11 12  2  0
 12 13  1  0
 14 13  1  0
 14 15  2  0
 16 15  1  0
 17 16  2  0
 18 19  2  0
 18 17  1  0
 19 14  1  0
 20 25  1  0
 20  9  1  0
 21 20  2  0
 24 23  1  6
 23 22  1  0
 24 26  1  0
 24 25  1  0
 26 27  1  0
 28 26  2  0
M  END
$$$$
