VWS.pdb
     RDKit          3D

 28 29  0  0  1  0  0  0  0  0999 V2000
    8.0147  -20.0053   18.6491 C   0  0  0  0  0  0  0  0  0  0  0  0
    8.5984  -19.2415   19.8160 C   0  0  1  0  0  0  0  0  0  0  0  0
   10.0390  -18.9422   19.4700 C   0  0  0  0  0  0  0  0  0  0  0  0
    7.7877  -17.9762   19.9831 C   0  0  2  0  0  0  0  0  0  0  0  0
    7.8562  -17.1907   18.7627 N   0  0  0  0  0  0  0  0  0  0  0  0
    8.3068  -17.1393   21.1014 C   0  0  0  0  0  0  0  0  0  0  0  0
    9.2790  -16.3754   20.9038 O   0  0  0  0  0  0  0  0  0  0  0  0
    7.7354  -17.1698   22.4061 N   0  0  0  0  0  0  0  0  0  0  0  0
    8.1983  -16.5168   23.5804 C   0  0  1  0  0  0  0  0  0  0  0  0
    7.1921  -16.2387   24.6301 C   0  0  0  0  0  0  0  0  0  0  0  0
    7.6794  -15.4519   25.7605 C   0  0  0  0  0  0  0  0  0  0  0  0
    8.3814  -15.8432   26.8629 C   0  0  0  0  0  0  0  0  0  0  0  0
    8.5836  -14.7492   27.6516 N   0  0  0  0  0  0  0  0  0  0  0  0
    8.0348  -13.6560   27.0978 C   0  0  0  0  0  0  0  0  0  0  0  0
    7.9701  -12.3339   27.5091 C   0  0  0  0  0  0  0  0  0  0  0  0
    7.3255  -11.3953   26.7334 C   0  0  0  0  0  0  0  0  0  0  0  0
    6.7445  -11.7977   25.5367 C   0  0  0  0  0  0  0  0  0  0  0  0
    6.8264  -13.1069   25.1619 C   0  0  0  0  0  0  0  0  0  0  0  0
    7.4658  -14.0784   25.9160 C   0  0  0  0  0  0  0  0  0  0  0  0
    9.5023  -17.0084   24.1136 C   0  0  0  0  0  0  0  0  0  0  0  0
    9.5818  -18.1913   24.4886 O   0  0  0  0  0  0  0  0  0  0  0  0
   13.1097  -14.7077   24.3206 O   0  0  0  0  0  0  0  0  0  0  0  0
   13.0015  -16.0307   23.9100 C   0  0  0  0  0  0  0  0  0  0  0  0
   11.9427  -16.7964   24.6558 C   0  0  2  0  0  0  0  0  0  0  0  0
   10.6500  -16.2234   24.2221 N   0  0  0  0  0  0  0  0  0  0  0  0
   12.0797  -16.6452   26.1286 C   0  0  0  0  0  0  0  0  0  0  0  0
   13.1904  -17.1789   26.7456 O   0  0  0  0  0  0  0  0  0  0  0  0
   11.2086  -16.0500   26.7696 O   0  0  0  0  0  0  0  0  0  0  0  0
  2  1  1  6
  3  2  1  0
  4  2  1  0
  4  5  1  6
  6  4  1  0
  7  6  2  0
  8  6  1  0
  9  8  1  0
  9 10  1  1
 10 11  1  0
 11 19  1  0
 11 12  2  0
 12 13  1  0
 14 13  1  0
 14 15  2  0
 16 15  1  0
 17 16  2  0
 18 19  2  0
 18 17  1  0
 19 14  1  0
 20 25  1  0
 20  9  1  0
 21 20  2  0
 24 23  1  6
 23 22  1  0
 24 26  1  0
 24 25  1  0
 26 27  1  0
 28 26  2  0
M  END
$$$$
