VWS.pdb
     RDKit          3D

 28 29  0  0  1  0  0  0  0  0999 V2000
    8.4631  -16.3982   18.1690 C   0  0  0  0  0  0  0  0  0  0  0  0
    8.7949  -14.9850   17.7464 C   0  0  1  0  0  0  0  0  0  0  0  0
    8.4534  -14.8728   16.2783 C   0  0  0  0  0  0  0  0  0  0  0  0
    7.9583  -14.0493   18.5895 C   0  0  2  0  0  0  0  0  0  0  0  0
    8.1817  -12.6789   18.1613 N   0  0  0  0  0  0  0  0  0  0  0  0
    8.3168  -14.1472   20.0325 C   0  0  0  0  0  0  0  0  0  0  0  0
    9.4287  -13.7256   20.4244 O   0  0  0  0  0  0  0  0  0  0  0  0
    7.4351  -14.7071   21.0014 N   0  0  0  0  0  0  0  0  0  0  0  0
    7.6736  -14.9128   22.3872 C   0  0  1  0  0  0  0  0  0  0  0  0
    6.4936  -14.8739   23.2804 C   0  0  0  0  0  0  0  0  0  0  0  0
    6.7977  -14.9201   24.7086 C   0  0  0  0  0  0  0  0  0  0  0  0
    6.9843  -15.9927   25.5307 C   0  0  0  0  0  0  0  0  0  0  0  0
    7.2199  -15.5293   26.7914 N   0  0  0  0  0  0  0  0  0  0  0  0
    7.1928  -14.1871   26.8173 C   0  0  0  0  0  0  0  0  0  0  0  0
    7.3662  -13.2697   27.8419 C   0  0  0  0  0  0  0  0  0  0  0  0
    7.2792  -11.9186   27.5872 C   0  0  0  0  0  0  0  0  0  0  0  0
    7.0155  -11.4953   26.2900 C   0  0  0  0  0  0  0  0  0  0  0  0
    6.8498  -12.4248   25.3053 C   0  0  0  0  0  0  0  0  0  0  0  0
    6.9299  -13.7912   25.5239 C   0  0  0  0  0  0  0  0  0  0  0  0
    8.6395  -16.0019   22.7151 C   0  0  0  0  0  0  0  0  0  0  0  0
    8.3128  -17.1771   22.4733 O   0  0  0  0  0  0  0  0  0  0  0  0
   12.5060  -15.2101   23.3906 O   0  0  0  0  0  0  0  0  0  0  0  0
   12.1530  -16.5125   23.0594 C   0  0  0  0  0  0  0  0  0  0  0  0
   10.8051  -16.9140   23.5939 C   0  0  2  0  0  0  0  0  0  0  0  0
    9.8964  -15.7898   23.2811 N   0  0  0  0  0  0  0  0  0  0  0  0
   10.8319  -17.1318   25.0645 C   0  0  0  0  0  0  0  0  0  0  0  0
   11.6096  -18.1531   25.5657 O   0  0  0  0  0  0  0  0  0  0  0  0
   10.1667  -16.4031   25.8065 O   0  0  0  0  0  0  0  0  0  0  0  0
  2  1  1  1
  3  2  1  0
  4  2  1  0
  4  5  1  6
  6  4  1  0
  7  6  2  0
  8  6  1  0
  9  8  1  0
  9 10  1  1
 10 11  1  0
 11 19  1  0
 11 12  2  0
 12 13  1  0
 14 13  1  0
 14 15  2  0
 16 15  1  0
 17 16  2  0
 18 19  2  0
 18 17  1  0
 19 14  1  0
 20 25  1  0
 20  9  1  0
 21 20  2  0
 24 23  1  1
 23 22  1  0
 24 26  1  0
 24 25  1  0
 26 27  1  0
 28 26  2  0
M  END
$$$$
