VWS.pdb
     RDKit          3D

 28 29  0  0  1  0  0  0  0  0999 V2000
    9.4341  -17.0256   19.8513 C   0  0  0  0  0  0  0  0  0  0  0  0
    8.3457  -15.9868   19.7026 C   0  0  1  0  0  0  0  0  0  0  0  0
    7.5763  -16.3316   18.4481 C   0  0  0  0  0  0  0  0  0  0  0  0
    7.4722  -16.0631   20.9345 C   0  0  2  0  0  0  0  0  0  0  0  0
    6.3360  -15.1707   20.7801 N   0  0  0  0  0  0  0  0  0  0  0  0
    8.2179  -15.6548   22.1582 C   0  0  0  0  0  0  0  0  0  0  0  0
    8.5548  -14.4583   22.3081 O   0  0  0  0  0  0  0  0  0  0  0  0
    8.5689  -16.5810   23.1823 N   0  0  0  0  0  0  0  0  0  0  0  0
    9.3400  -16.3427   24.3520 C   0  0  1  0  0  0  0  0  0  0  0  0
    8.6153  -16.3532   25.6428 C   0  0  0  0  0  0  0  0  0  0  0  0
    7.4818  -15.4350   25.7228 C   0  0  0  0  0  0  0  0  0  0  0  0
    6.1514  -15.6658   25.5280 C   0  0  0  0  0  0  0  0  0  0  0  0
    5.4849  -14.4869   25.6886 N   0  0  0  0  0  0  0  0  0  0  0  0
    6.3396  -13.4938   25.9821 C   0  0  0  0  0  0  0  0  0  0  0  0
    6.1517  -12.1422   26.2254 C   0  0  0  0  0  0  0  0  0  0  0  0
    7.2290  -11.3295   26.5030 C   0  0  0  0  0  0  0  0  0  0  0  0
    8.5011  -11.8881   26.5342 C   0  0  0  0  0  0  0  0  0  0  0  0
    8.6506  -13.2219   26.2898 C   0  0  0  0  0  0  0  0  0  0  0  0
    7.5912  -14.0697   26.0069 C   0  0  0  0  0  0  0  0  0  0  0  0
   10.6610  -17.0350   24.3991 C   0  0  0  0  0  0  0  0  0  0  0  0
   10.6808  -18.2619   24.6003 O   0  0  0  0  0  0  0  0  0  0  0  0
   14.4049  -15.0744   24.2104 O   0  0  0  0  0  0  0  0  0  0  0  0
   14.1570  -16.2586   23.5270 C   0  0  0  0  0  0  0  0  0  0  0  0
   13.1612  -17.1458   24.2234 C   0  0  2  0  0  0  0  0  0  0  0  0
   11.8879  -16.3933   24.2320 N   0  0  0  0  0  0  0  0  0  0  0  0
   13.5660  -17.4462   25.6222 C   0  0  0  0  0  0  0  0  0  0  0  0
   14.7533  -18.1121   25.8364 O   0  0  0  0  0  0  0  0  0  0  0  0
   12.8428  -17.0980   26.5601 O   0  0  0  0  0  0  0  0  0  0  0  0
  2  1  1  1
  3  2  1  0
  4  2  1  0
  4  5  1  6
  6  4  1  0
  7  6  2  0
  8  6  1  0
  9  8  1  0
  9 10  1  1
 10 11  1  0
 11 19  1  0
 11 12  2  0
 12 13  1  0
 14 13  1  0
 14 15  2  0
 16 15  1  0
 17 16  2  0
 18 19  2  0
 18 17  1  0
 19 14  1  0
 20 25  1  0
 20  9  1  0
 21 20  2  0
 24 23  1  1
 23 22  1  0
 24 26  1  0
 24 25  1  0
 26 27  1  0
 28 26  2  0
M  END
$$$$
