VWS.pdb
     RDKit          3D

 28 29  0  0  1  0  0  0  0  0999 V2000
    9.0871  -19.6393   19.7308 C   0  0  0  0  0  0  0  0  0  0  0  0
    9.3693  -18.6090   18.6609 C   0  0  1  0  0  0  0  0  0  0  0  0
    9.0890  -19.2682   17.3299 C   0  0  0  0  0  0  0  0  0  0  0  0
    8.4516  -17.4329   18.9080 C   0  0  2  0  0  0  0  0  0  0  0  0
    8.6048  -16.4638   17.8363 N   0  0  0  0  0  0  0  0  0  0  0  0
    8.7705  -16.7532   20.1952 C   0  0  0  0  0  0  0  0  0  0  0  0
    9.8563  -16.1426   20.3209 O   0  0  0  0  0  0  0  0  0  0  0  0
    7.8789  -16.7667   21.3063 N   0  0  0  0  0  0  0  0  0  0  0  0
    8.1036  -16.2618   22.6156 C   0  0  1  0  0  0  0  0  0  0  0  0
    6.9049  -15.9141   23.4117 C   0  0  0  0  0  0  0  0  0  0  0  0
    7.1761  -15.4795   24.7798 C   0  0  0  0  0  0  0  0  0  0  0  0
    7.3971  -16.2169   25.9061 C   0  0  0  0  0  0  0  0  0  0  0  0
    7.5780  -15.3587   26.9504 N   0  0  0  0  0  0  0  0  0  0  0  0
    7.4819  -14.0838   26.5401 C   0  0  0  0  0  0  0  0  0  0  0  0
    7.5833  -12.8765   27.2136 C   0  0  0  0  0  0  0  0  0  0  0  0
    7.4337  -11.6871   26.5346 C   0  0  0  0  0  0  0  0  0  0  0  0
    7.1805  -11.7210   25.1685 C   0  0  0  0  0  0  0  0  0  0  0  0
    7.0864  -12.9265   24.5368 C   0  0  0  0  0  0  0  0  0  0  0  0
    7.2307  -14.1423   25.1865 C   0  0  0  0  0  0  0  0  0  0  0  0
    9.1619  -16.9639   23.3989 C   0  0  0  0  0  0  0  0  0  0  0  0
    8.9906  -18.1614   23.6868 O   0  0  0  0  0  0  0  0  0  0  0  0
   12.9324  -15.5334   23.6099 O   0  0  0  0  0  0  0  0  0  0  0  0
   12.6641  -16.8829   23.8035 C   0  0  0  0  0  0  0  0  0  0  0  0
   11.3832  -17.1294   24.5533 C   0  0  2  0  0  0  0  0  0  0  0  0
   10.3421  -16.3624   23.8355 N   0  0  0  0  0  0  0  0  0  0  0  0
   11.4621  -16.6561   25.9606 C   0  0  0  0  0  0  0  0  0  0  0  0
   10.5007  -17.0784   26.8530 O   0  0  0  0  0  0  0  0  0  0  0  0
   12.3768  -15.9023   26.3058 O   0  0  0  0  0  0  0  0  0  0  0  0
  2  1  1  1
  3  2  1  0
  4  2  1  0
  4  5  1  6
  6  4  1  0
  7  6  2  0
  8  6  1  0
  9  8  1  0
  9 10  1  1
 10 11  1  0
 11 19  1  0
 11 12  2  0
 12 13  1  0
 14 13  1  0
 14 15  2  0
 16 15  1  0
 17 16  2  0
 18 19  2  0
 18 17  1  0
 19 14  1  0
 20 25  1  0
 20  9  1  0
 21 20  2  0
 24 23  1  6
 23 22  1  0
 24 26  1  0
 24 25  1  0
 26 27  1  0
 28 26  2  0
M  END
$$$$
