SSK.pdb
     RDKit          3D

 22 21  0  0  1  0  0  0  0  0999 V2000
   25.1221   -9.0391  -16.9789 O   0  0  0  0  0  0  0  0  0  0  0  0
   26.4691   -8.7633  -17.0377 C   0  0  0  0  0  0  0  0  0  0  0  0
   27.2823   -9.8550  -17.6817 C   0  0  2  0  0  0  0  0  0  0  0  0
   26.9684  -11.0947  -17.0458 N   0  0  0  0  0  0  0  0  0  0  0  0
   28.7202   -9.5640  -17.7549 C   0  0  0  0  0  0  0  0  0  0  0  0
   29.4737   -9.8941  -16.8035 O   0  0  0  0  0  0  0  0  0  0  0  0
   30.9321   -9.4825  -21.1022 O   0  0  0  0  0  0  0  0  0  0  0  0
   31.2593   -8.3805  -20.3046 C   0  0  0  0  0  0  0  0  0  0  0  0
   30.7598   -8.6569  -18.9247 C   0  0  2  0  0  0  0  0  0  0  0  0
   29.3457   -8.9127  -18.8625 N   0  0  0  0  0  0  0  0  0  0  0  0
   31.1625   -7.5261  -18.0449 C   0  0  0  0  0  0  0  0  0  0  0  0
   30.3352   -6.6336  -17.8764 O   0  0  0  0  0  0  0  0  0  0  0  0
   32.4260   -7.4832  -17.4384 N   0  0  0  0  0  0  0  0  0  0  0  0
   32.9284   -6.4770  -16.5692 C   0  0  1  0  0  0  0  0  0  0  0  0
   34.2435   -6.7680  -15.9575 C   0  0  0  0  0  0  0  0  0  0  0  0
   34.8473   -5.7216  -15.0958 C   0  0  0  0  0  0  0  0  0  0  0  0
   36.1384   -6.1516  -14.4401 C   0  0  0  0  0  0  0  0  0  0  0  0
   36.6114   -5.0339  -13.5215 C   0  0  0  0  0  0  0  0  0  0  0  0
   37.7161   -5.4402  -12.6973 N   0  0  0  0  0  0  0  0  0  0  0  0
   32.8017   -5.1138  -17.1720 C   0  0  0  0  0  0  0  0  0  0  0  0
   33.1611   -4.8240  -18.4860 O   0  0  0  0  0  0  0  0  0  0  0  0
   32.3596   -4.1718  -16.4990 O   0  0  0  0  0  0  0  0  0  0  0  0
  1  2  1  0
  2  3  1  0
  3  4  1  1
  5 10  1  0
  5  3  1  0
  6  5  2  0
  9  8  1  6
  8  7  1  0
  9 11  1  0
  9 10  1  0
 11 13  1  0
 12 11  2  0
 13 14  1  0
 14 20  1  0
 14 15  1  6
 16 15  1  0
 17 16  1  0
 18 17  1  0
 19 18  1  0
 20 21  1  0
 22 20  2  0
M  END
$$$$
