SSK.pdb
     RDKit          3D

 22 21  0  0  1  0  0  0  0  0999 V2000
   16.7097  -13.5473  -13.5645 O   0  0  0  0  0  0  0  0  0  0  0  0
   15.7090  -13.0456  -14.3650 C   0  0  0  0  0  0  0  0  0  0  0  0
   16.0559  -13.0335  -15.8304 C   0  0  2  0  0  0  0  0  0  0  0  0
   16.4475  -14.3510  -16.2184 N   0  0  0  0  0  0  0  0  0  0  0  0
   17.0135  -11.9858  -16.2084 C   0  0  0  0  0  0  0  0  0  0  0  0
   18.1138  -12.3032  -16.7286 O   0  0  0  0  0  0  0  0  0  0  0  0
   16.5363   -7.9881  -15.1986 O   0  0  0  0  0  0  0  0  0  0  0  0
   17.1321   -8.1967  -16.4473 C   0  0  0  0  0  0  0  0  0  0  0  0
   17.7069   -9.5749  -16.4496 C   0  0  2  0  0  0  0  0  0  0  0  0
   16.7797  -10.5883  -16.0226 N   0  0  0  0  0  0  0  0  0  0  0  0
   18.9459   -9.5678  -15.6250 C   0  0  0  0  0  0  0  0  0  0  0  0
   18.8582  -10.0284  -14.4895 O   0  0  0  0  0  0  0  0  0  0  0  0
   20.1543   -9.0591  -16.1221 N   0  0  0  0  0  0  0  0  0  0  0  0
   21.4006   -8.9868  -15.4427 C   0  0  1  0  0  0  0  0  0  0  0  0
   22.5409   -9.6168  -16.1435 C   0  0  0  0  0  0  0  0  0  0  0  0
   23.8606   -9.5964  -15.4653 C   0  0  0  0  0  0  0  0  0  0  0  0
   24.9375  -10.3410  -16.2189 C   0  0  0  0  0  0  0  0  0  0  0  0
   26.1854  -10.3997  -15.3496 C   0  0  0  0  0  0  0  0  0  0  0  0
   27.2598  -11.1070  -15.9901 N   0  0  0  0  0  0  0  0  0  0  0  0
   21.6650   -7.6104  -14.9201 C   0  0  0  0  0  0  0  0  0  0  0  0
   22.1246   -7.3591  -13.6297 O   0  0  0  0  0  0  0  0  0  0  0  0
   21.4768   -6.6211  -15.6425 O   0  0  0  0  0  0  0  0  0  0  0  0
  1  2  1  0
  2  3  1  0
  3  4  1  1
  5 10  1  0
  5  3  1  0
  6  5  2  0
  9  8  1  1
  8  7  1  0
  9 11  1  0
  9 10  1  0
 11 13  1  0
 12 11  2  0
 13 14  1  0
 14 20  1  0
 14 15  1  6
 16 15  1  0
 17 16  1  0
 18 17  1  0
 19 18  1  0
 20 21  1  0
 22 20  2  0
M  END
$$$$
