SSK.pdb
     RDKit          3D

 22 21  0  0  1  0  0  0  0  0999 V2000
   15.5521  -10.5806  -17.0611 O   0  0  0  0  0  0  0  0  0  0  0  0
   15.6624  -10.2856  -15.7214 C   0  0  0  0  0  0  0  0  0  0  0  0
   16.9953  -10.6581  -15.1279 C   0  0  2  0  0  0  0  0  0  0  0  0
   17.1468  -12.0765  -15.1984 N   0  0  0  0  0  0  0  0  0  0  0  0
   17.2327  -10.0937  -13.7927 C   0  0  0  0  0  0  0  0  0  0  0  0
   16.7195  -10.6405  -12.7830 O   0  0  0  0  0  0  0  0  0  0  0  0
   19.1033   -6.4216  -13.1306 O   0  0  0  0  0  0  0  0  0  0  0  0
   19.3730   -7.4065  -12.1741 C   0  0  0  0  0  0  0  0  0  0  0  0
   18.2660   -8.4072  -12.2309 C   0  0  2  0  0  0  0  0  0  0  0  0
   18.0290   -8.9324  -13.5489 N   0  0  0  0  0  0  0  0  0  0  0  0
   17.0444   -7.7888  -11.6476 C   0  0  0  0  0  0  0  0  0  0  0  0
   16.2471   -7.2869  -12.4361 O   0  0  0  0  0  0  0  0  0  0  0  0
   16.8163   -7.7804  -10.2641 N   0  0  0  0  0  0  0  0  0  0  0  0
   15.7374   -7.1631   -9.5747 C   0  0  1  0  0  0  0  0  0  0  0  0
   14.7985   -8.0916   -8.9079 C   0  0  0  0  0  0  0  0  0  0  0  0
   13.5662   -7.5150   -8.3155 C   0  0  0  0  0  0  0  0  0  0  0  0
   12.6409   -8.5510   -7.7217 C   0  0  0  0  0  0  0  0  0  0  0  0
   11.4111   -7.8436   -7.1705 C   0  0  0  0  0  0  0  0  0  0  0  0
   10.4771   -8.7614   -6.5787 N   0  0  0  0  0  0  0  0  0  0  0  0
   16.2049   -6.0231   -8.7266 C   0  0  0  0  0  0  0  0  0  0  0  0
   15.5169   -4.8166   -8.6229 O   0  0  0  0  0  0  0  0  0  0  0  0
   17.2516   -6.1209   -8.0701 O   0  0  0  0  0  0  0  0  0  0  0  0
  1  2  1  0
  2  3  1  0
  3  4  1  1
  5 10  1  0
  5  3  1  0
  6  5  2  0
  9  8  1  6
  8  7  1  0
  9 11  1  0
  9 10  1  0
 11 13  1  0
 12 11  2  0
 13 14  1  0
 14 20  1  0
 14 15  1  1
 16 15  1  0
 17 16  1  0
 18 17  1  0
 19 18  1  0
 20 21  1  0
 22 20  2  0
M  END
$$$$
