SSK.pdb
     RDKit          3D

 22 21  0  0  1  0  0  0  0  0999 V2000
   14.5890  -10.3110  -10.2225 O   0  0  0  0  0  0  0  0  0  0  0  0
   14.6450   -9.7535   -8.9655 C   0  0  0  0  0  0  0  0  0  0  0  0
   14.1108   -8.3469   -8.9035 C   0  0  2  0  0  0  0  0  0  0  0  0
   12.7146   -8.3745   -9.2023 N   0  0  0  0  0  0  0  0  0  0  0  0
   14.8776   -7.3817   -9.7022 C   0  0  0  0  0  0  0  0  0  0  0  0
   14.5022   -7.0979  -10.8686 O   0  0  0  0  0  0  0  0  0  0  0  0
   17.5047   -4.7297   -8.0877 O   0  0  0  0  0  0  0  0  0  0  0  0
   17.0431   -4.4780   -9.3843 C   0  0  0  0  0  0  0  0  0  0  0  0
   16.8069   -5.7967  -10.0441 C   0  0  2  0  0  0  0  0  0  0  0  0
   16.0559   -6.7204   -9.2368 N   0  0  0  0  0  0  0  0  0  0  0  0
   18.1225   -6.3568  -10.4572 C   0  0  0  0  0  0  0  0  0  0  0  0
   18.7029   -7.0675   -9.6403 O   0  0  0  0  0  0  0  0  0  0  0  0
   18.6713   -6.0852  -11.7185 N   0  0  0  0  0  0  0  0  0  0  0  0
   19.9449   -6.4858  -12.2059 C   0  0  1  0  0  0  0  0  0  0  0  0
   19.9189   -7.3882  -13.3779 C   0  0  0  0  0  0  0  0  0  0  0  0
   21.2195   -7.8827  -13.8936 C   0  0  0  0  0  0  0  0  0  0  0  0
   21.0849   -8.8124  -15.0766 C   0  0  0  0  0  0  0  0  0  0  0  0
   22.4763   -9.2552  -15.5060 C   0  0  0  0  0  0  0  0  0  0  0  0
   22.4343  -10.2156  -16.5741 N   0  0  0  0  0  0  0  0  0  0  0  0
   20.8800   -5.3244  -12.3257 C   0  0  0  0  0  0  0  0  0  0  0  0
   20.4970   -4.0853  -12.8332 O   0  0  0  0  0  0  0  0  0  0  0  0
   22.0609   -5.4335  -11.9659 O   0  0  0  0  0  0  0  0  0  0  0  0
  1  2  1  0
  2  3  1  0
  3  4  1  6
  5 10  1  0
  5  3  1  0
  6  5  2  0
  9  8  1  1
  8  7  1  0
  9 11  1  0
  9 10  1  0
 11 13  1  0
 12 11  2  0
 13 14  1  0
 14 20  1  0
 14 15  1  6
 16 15  1  0
 17 16  1  0
 18 17  1  0
 19 18  1  0
 20 21  1  0
 22 20  2  0
M  END
$$$$
