SSK.pdb
     RDKit          3D

 22 21  0  0  1  0  0  0  0  0999 V2000
   25.9986  -11.7234  -19.1929 O   0  0  0  0  0  0  0  0  0  0  0  0
   24.9391  -10.8770  -18.9592 C   0  0  0  0  0  0  0  0  0  0  0  0
   23.7262  -11.5681  -18.3943 C   0  0  2  0  0  0  0  0  0  0  0  0
   23.0649  -12.2666  -19.4499 N   0  0  0  0  0  0  0  0  0  0  0  0
   22.8475  -10.6877  -17.6130 C   0  0  0  0  0  0  0  0  0  0  0  0
   22.1580   -9.8138  -18.1986 O   0  0  0  0  0  0  0  0  0  0  0  0
   20.6960   -9.3926  -13.4914 O   0  0  0  0  0  0  0  0  0  0  0  0
   21.6247  -10.2818  -14.0433 C   0  0  0  0  0  0  0  0  0  0  0  0
   21.9132   -9.8273  -15.4363 C   0  0  2  0  0  0  0  0  0  0  0  0
   22.7142  -10.7530  -16.1917 N   0  0  0  0  0  0  0  0  0  0  0  0
   22.5336   -8.4762  -15.3698 C   0  0  0  0  0  0  0  0  0  0  0  0
   23.7519   -8.4329  -15.2174 O   0  0  0  0  0  0  0  0  0  0  0  0
   21.7628   -7.3097  -15.4761 N   0  0  0  0  0  0  0  0  0  0  0  0
   22.2332   -5.9690  -15.5112 C   0  0  1  0  0  0  0  0  0  0  0  0
   21.7853   -5.1713  -16.6737 C   0  0  0  0  0  0  0  0  0  0  0  0
   22.2711   -3.7728  -16.7759 C   0  0  0  0  0  0  0  0  0  0  0  0
   21.7899   -3.0564  -18.0157 C   0  0  0  0  0  0  0  0  0  0  0  0
   22.3442   -1.6390  -18.0026 C   0  0  0  0  0  0  0  0  0  0  0  0
   22.0422   -0.9272  -19.2138 N   0  0  0  0  0  0  0  0  0  0  0  0
   22.0752   -5.2940  -14.1856 C   0  0  0  0  0  0  0  0  0  0  0  0
   22.9961   -4.3797  -13.6800 O   0  0  0  0  0  0  0  0  0  0  0  0
   21.0891   -5.5360  -13.4750 O   0  0  0  0  0  0  0  0  0  0  0  0
  1  2  1  0
  2  3  1  0
  3  4  1  6
  5 10  1  0
  5  3  1  0
  6  5  2  0
  9  8  1  1
  8  7  1  0
  9 11  1  0
  9 10  1  0
 11 13  1  0
 12 11  2  0
 13 14  1  0
 14 20  1  0
 14 15  1  6
 16 15  1  0
 17 16  1  0
 18 17  1  0
 19 18  1  0
 20 21  1  0
 22 20  2  0
M  END
$$$$
