SSK.pdb
     RDKit          3D

 22 21  0  0  1  0  0  0  0  0999 V2000
   14.2150  -11.8414   -9.8616 O   0  0  0  0  0  0  0  0  0  0  0  0
   14.9388  -10.8347  -10.4587 C   0  0  0  0  0  0  0  0  0  0  0  0
   14.2675   -9.4881  -10.3959 C   0  0  2  0  0  0  0  0  0  0  0  0
   13.0010   -9.5778  -11.0499 N   0  0  0  0  0  0  0  0  0  0  0  0
   15.1091   -8.3793  -10.8647 C   0  0  0  0  0  0  0  0  0  0  0  0
   15.1518   -8.1025  -12.0909 O   0  0  0  0  0  0  0  0  0  0  0  0
   17.6763   -6.2606   -8.3611 O   0  0  0  0  0  0  0  0  0  0  0  0
   17.1308   -5.5205   -9.4158 C   0  0  0  0  0  0  0  0  0  0  0  0
   16.7256   -6.4840  -10.4823 C   0  0  2  0  0  0  0  0  0  0  0  0
   15.9082   -7.5662  -10.0030 N   0  0  0  0  0  0  0  0  0  0  0  0
   17.9546   -6.9718  -11.1653 C   0  0  0  0  0  0  0  0  0  0  0  0
   18.2869   -8.1338  -10.9444 O   0  0  0  0  0  0  0  0  0  0  0  0
   18.6964   -6.1434  -12.0195 N   0  0  0  0  0  0  0  0  0  0  0  0
   19.7553   -6.5296  -12.8853 C   0  0  1  0  0  0  0  0  0  0  0  0
   19.4841   -7.7154  -13.7271 C   0  0  0  0  0  0  0  0  0  0  0  0
   20.5684   -8.1828  -14.6259 C   0  0  0  0  0  0  0  0  0  0  0  0
   20.2048   -9.4161  -15.4188 C   0  0  0  0  0  0  0  0  0  0  0  0
   20.1815  -10.6099  -14.4750 C   0  0  0  0  0  0  0  0  0  0  0  0
   19.7939  -11.8218  -15.1428 N   0  0  0  0  0  0  0  0  0  0  0  0
   20.3266   -5.3558  -13.6157 C   0  0  0  0  0  0  0  0  0  0  0  0
   21.6787   -5.2350  -13.9272 O   0  0  0  0  0  0  0  0  0  0  0  0
   19.5908   -4.4263  -13.9768 O   0  0  0  0  0  0  0  0  0  0  0  0
  1  2  1  0
  2  3  1  0
  3  4  1  6
  5 10  1  0
  5  3  1  0
  6  5  2  0
  9  8  1  1
  8  7  1  0
  9 11  1  0
  9 10  1  0
 11 13  1  0
 12 11  2  0
 13 14  1  0
 14 20  1  0
 14 15  1  6
 16 15  1  0
 17 16  1  0
 18 17  1  0
 19 18  1  0
 20 21  1  0
 22 20  2  0
M  END
$$$$
