WMV.pdb
     RDKit          3D

 30 31  0  0  1  0  0  0  0  0999 V2000
   26.3904  -21.1016  -14.6271 N   0  0  0  0  0  0  0  0  0  0  0  0
   25.9340  -20.1939  -13.6319 C   0  0  1  0  0  0  0  0  0  0  0  0
   24.7407  -19.3729  -13.9744 C   0  0  0  0  0  0  0  0  0  0  0  0
   24.9756  -18.6177  -15.2077 C   0  0  0  0  0  0  0  0  0  0  0  0
   24.2408  -18.8311  -16.3822 C   0  0  0  0  0  0  0  0  0  0  0  0
   24.7155  -17.9608  -17.2689 N   0  0  0  0  0  0  0  0  0  0  0  0
   25.6922  -17.2148  -16.7475 C   0  0  0  0  0  0  0  0  0  0  0  0
   26.4760  -16.2029  -17.2722 C   0  0  0  0  0  0  0  0  0  0  0  0
   27.4259  -15.6169  -16.4690 C   0  0  0  0  0  0  0  0  0  0  0  0
   27.6003  -16.0254  -15.1624 C   0  0  0  0  0  0  0  0  0  0  0  0
   26.8309  -17.0191  -14.6464 C   0  0  0  0  0  0  0  0  0  0  0  0
   25.8771  -17.6164  -15.4306 C   0  0  0  0  0  0  0  0  0  0  0  0
   25.6791  -20.8854  -12.3145 C   0  0  0  0  0  0  0  0  0  0  0  0
   25.3271  -22.0915  -12.3747 O   0  0  0  0  0  0  0  0  0  0  0  0
   28.6527  -19.6600   -7.0166 C   0  0  0  0  0  0  0  0  0  0  0  0
   27.0073  -19.6833   -6.2897 S   0  0  0  0  0  0  0  0  0  0  0  0
   25.8378  -20.6117   -7.3740 C   0  0  0  0  0  0  0  0  0  0  0  0
   26.1488  -20.1996   -8.7605 C   0  0  0  0  0  0  0  0  0  0  0  0
   25.4175  -20.9329   -9.8608 C   0  0  2  0  0  0  0  0  0  0  0  0
   25.8245  -20.2275  -11.0906 N   0  0  0  0  0  0  0  0  0  0  0  0
   23.9736  -20.8511   -9.6726 C   0  0  0  0  0  0  0  0  0  0  0  0
   23.3528  -19.8067  -10.0904 O   0  0  0  0  0  0  0  0  0  0  0  0
   19.5590  -22.4487  -10.0089 C   0  0  0  0  0  0  0  0  0  0  0  0
   21.0438  -22.5284  -10.1318 C   0  0  1  0  0  0  0  0  0  0  0  0
   21.4663  -22.0197  -11.4987 C   0  0  0  0  0  0  0  0  0  0  0  0
   21.6804  -21.6694   -9.0450 C   0  0  2  0  0  0  0  0  0  0  0  0
   23.1253  -21.8128   -9.0692 N   0  0  0  0  0  0  0  0  0  0  0  0
   21.1846  -22.1640   -7.7507 C   0  0  0  0  0  0  0  0  0  0  0  0
   20.4697  -21.4394   -7.0238 O   0  0  0  0  0  0  0  0  0  0  0  0
   21.4628  -23.4338   -7.2509 O   0  0  0  0  0  0  0  0  0  0  0  0
  2  1  1  6
  3  4  1  0
  3  2  1  0
  4  5  2  0
  6  5  1  0
  7  6  1  0
  8  7  2  0
  9  8  1  0
 10 11  1  0
 10  9  2  0
 11 12  2  0
 12  7  1  0
 12  4  1  0
 13  2  1  0
 13 14  2  0
 16 15  1  0
 16 17  1  0
 17 18  1  0
 19 18  1  1
 19 20  1  0
 20 13  1  0
 21 19  1  0
 22 21  2  0
 24 23  1  6
 24 25  1  0
 24 26  1  0
 26 27  1  1
 26 28  1  0
 27 21  1  0
 28 30  1  0
 29 28  2  0
M  END
$$$$
