WMV.pdb
     RDKit          3D

 30 31  0  0  1  0  0  0  0  0999 V2000
   26.6426  -21.6329  -12.7810 N   0  0  0  0  0  0  0  0  0  0  0  0
   26.1282  -20.6078  -11.9399 C   0  0  1  0  0  0  0  0  0  0  0  0
   25.0763  -19.7314  -12.5233 C   0  0  0  0  0  0  0  0  0  0  0  0
   25.5677  -19.0828  -13.7416 C   0  0  0  0  0  0  0  0  0  0  0  0
   24.7183  -18.4687  -14.6723 C   0  0  0  0  0  0  0  0  0  0  0  0
   25.5132  -17.9804  -15.6203 N   0  0  0  0  0  0  0  0  0  0  0  0
   26.7975  -18.2377  -15.3622 C   0  0  0  0  0  0  0  0  0  0  0  0
   27.9646  -17.9416  -16.0432 C   0  0  0  0  0  0  0  0  0  0  0  0
   29.1638  -18.3565  -15.5136 C   0  0  0  0  0  0  0  0  0  0  0  0
   29.2105  -19.0563  -14.3250 C   0  0  0  0  0  0  0  0  0  0  0  0
   28.0647  -19.3474  -13.6556 C   0  0  0  0  0  0  0  0  0  0  0  0
   26.8580  -18.9420  -14.1663 C   0  0  0  0  0  0  0  0  0  0  0  0
   25.6223  -21.1576  -10.6283 C   0  0  0  0  0  0  0  0  0  0  0  0
   25.1698  -22.3311  -10.6509 O   0  0  0  0  0  0  0  0  0  0  0  0
   29.4976  -19.3393   -5.2773 C   0  0  0  0  0  0  0  0  0  0  0  0
   27.7242  -19.2479   -5.5654 S   0  0  0  0  0  0  0  0  0  0  0  0
   27.2262  -20.4297   -6.8923 C   0  0  0  0  0  0  0  0  0  0  0  0
   25.7777  -20.2187   -7.1073 C   0  0  0  0  0  0  0  0  0  0  0  0
   25.1365  -21.0258   -8.2121 C   0  0  2  0  0  0  0  0  0  0  0  0
   25.6521  -20.4093   -9.4489 N   0  0  0  0  0  0  0  0  0  0  0  0
   23.6825  -20.9279   -8.1538 C   0  0  0  0  0  0  0  0  0  0  0  0
   23.0714  -20.2427   -9.0527 O   0  0  0  0  0  0  0  0  0  0  0  0
   19.5735  -22.6410   -8.7006 C   0  0  0  0  0  0  0  0  0  0  0  0
   21.0541  -22.5653   -8.5330 C   0  0  1  0  0  0  0  0  0  0  0  0
   21.6847  -22.0731   -9.8237 C   0  0  0  0  0  0  0  0  0  0  0  0
   21.3785  -21.5969   -7.4011 C   0  0  2  0  0  0  0  0  0  0  0  0
   22.8146  -21.5168   -7.2007 N   0  0  0  0  0  0  0  0  0  0  0  0
   20.7663  -22.1357   -6.1763 C   0  0  0  0  0  0  0  0  0  0  0  0
   21.3776  -22.9702   -5.4730 O   0  0  0  0  0  0  0  0  0  0  0  0
   19.5021  -21.7713   -5.7195 O   0  0  0  0  0  0  0  0  0  0  0  0
  2  1  1  6
  3  4  1  0
  3  2  1  0
  4  5  2  0
  6  5  1  0
  7  6  1  0
  8  7  2  0
  9  8  1  0
 10 11  1  0
 10  9  2  0
 11 12  2  0
 12  7  1  0
 12  4  1  0
 13  2  1  0
 13 14  2  0
 16 15  1  0
 16 17  1  0
 17 18  1  0
 19 18  1  1
 19 20  1  0
 20 13  1  0
 21 19  1  0
 22 21  2  0
 24 23  1  6
 24 25  1  0
 24 26  1  0
 26 27  1  1
 26 28  1  0
 27 21  1  0
 28 30  1  0
 29 28  2  0
M  END
$$$$
