WMV.pdb
     RDKit          3D

 30 31  0  0  1  0  0  0  0  0999 V2000
   28.7804  -21.0048  -15.5446 N   0  0  0  0  0  0  0  0  0  0  0  0
   27.8278  -20.1300  -14.9532 C   0  0  1  0  0  0  0  0  0  0  0  0
   26.8397  -19.5006  -15.8711 C   0  0  0  0  0  0  0  0  0  0  0  0
   27.4522  -18.3835  -16.5948 C   0  0  0  0  0  0  0  0  0  0  0  0
   27.9900  -18.5147  -17.8826 C   0  0  0  0  0  0  0  0  0  0  0  0
   28.4302  -17.3046  -18.2156 N   0  0  0  0  0  0  0  0  0  0  0  0
   28.2134  -16.4196  -17.2399 C   0  0  0  0  0  0  0  0  0  0  0  0
   28.4940  -15.0700  -17.1238 C   0  0  0  0  0  0  0  0  0  0  0  0
   28.1451  -14.4185  -15.9643 C   0  0  0  0  0  0  0  0  0  0  0  0
   27.5262  -15.0917  -14.9307 C   0  0  0  0  0  0  0  0  0  0  0  0
   27.2503  -16.4171  -15.0440 C   0  0  0  0  0  0  0  0  0  0  0  0
   27.5894  -17.0857  -16.1927 C   0  0  0  0  0  0  0  0  0  0  0  0
   27.0785  -20.7951  -13.8241 C   0  0  0  0  0  0  0  0  0  0  0  0
   26.6682  -21.9649  -14.0375 O   0  0  0  0  0  0  0  0  0  0  0  0
   25.9490  -20.4436   -6.0818 C   0  0  0  0  0  0  0  0  0  0  0  0
   26.7263  -19.9759   -7.6354 S   0  0  0  0  0  0  0  0  0  0  0  0
   25.7984  -20.6923   -9.0605 C   0  0  0  0  0  0  0  0  0  0  0  0
   26.5260  -20.2705  -10.2777 C   0  0  0  0  0  0  0  0  0  0  0  0
   26.0371  -20.8445  -11.5871 C   0  0  2  0  0  0  0  0  0  0  0  0
   26.8496  -20.1523  -12.6050 N   0  0  0  0  0  0  0  0  0  0  0  0
   24.6188  -20.5663  -11.7819 C   0  0  0  0  0  0  0  0  0  0  0  0
   24.2549  -19.3641  -12.0523 O   0  0  0  0  0  0  0  0  0  0  0  0
   20.3987  -21.9374  -13.6960 C   0  0  0  0  0  0  0  0  0  0  0  0
   21.8035  -22.2097  -13.2739 C   0  0  1  0  0  0  0  0  0  0  0  0
   22.7204  -22.1227  -14.4813 C   0  0  0  0  0  0  0  0  0  0  0  0
   22.2215  -21.1741  -12.2361 C   0  0  2  0  0  0  0  0  0  0  0  0
   23.5412  -21.4845  -11.7156 N   0  0  0  0  0  0  0  0  0  0  0  0
   21.2545  -21.2497  -11.1295 C   0  0  0  0  0  0  0  0  0  0  0  0
   21.3458  -22.1487  -10.2645 O   0  0  0  0  0  0  0  0  0  0  0  0
   20.1983  -20.3571  -10.9639 O   0  0  0  0  0  0  0  0  0  0  0  0
  2  1  1  6
  3  4  1  0
  3  2  1  0
  4  5  2  0
  6  5  1  0
  7  6  1  0
  8  7  2  0
  9  8  1  0
 10 11  1  0
 10  9  2  0
 11 12  2  0
 12  7  1  0
 12  4  1  0
 13  2  1  0
 13 14  2  0
 16 15  1  0
 16 17  1  0
 17 18  1  0
 19 18  1  1
 19 20  1  0
 20 13  1  0
 21 19  1  0
 22 21  2  0
 24 23  1  6
 24 25  1  0
 24 26  1  0
 26 27  1  1
 26 28  1  0
 27 21  1  0
 28 30  1  0
 29 28  2  0
M  END
$$$$
