WMV.pdb
     RDKit          3D

 30 31  0  0  1  0  0  0  0  0999 V2000
   29.2814  -20.4932  -13.1581 N   0  0  0  0  0  0  0  0  0  0  0  0
   27.9456  -20.0444  -12.9659 C   0  0  1  0  0  0  0  0  0  0  0  0
   27.1091  -19.8967  -14.1880 C   0  0  0  0  0  0  0  0  0  0  0  0
   26.7758  -18.4879  -14.4132 C   0  0  0  0  0  0  0  0  0  0  0  0
   27.7491  -17.4924  -14.5761 C   0  0  0  0  0  0  0  0  0  0  0  0
   27.0792  -16.3610  -14.7765 N   0  0  0  0  0  0  0  0  0  0  0  0
   25.7597  -16.5630  -14.7527 C   0  0  0  0  0  0  0  0  0  0  0  0
   24.6814  -15.7099  -14.9040 C   0  0  0  0  0  0  0  0  0  0  0  0
   23.4104  -16.2278  -14.8202 C   0  0  0  0  0  0  0  0  0  0  0  0
   23.2060  -17.5730  -14.5895 C   0  0  0  0  0  0  0  0  0  0  0  0
   24.2646  -18.4115  -14.4408 C   0  0  0  0  0  0  0  0  0  0  0  0
   25.5408  -17.9152  -14.5216 C   0  0  0  0  0  0  0  0  0  0  0  0
   27.2003  -20.9052  -11.9749 C   0  0  0  0  0  0  0  0  0  0  0  0
   27.0211  -22.1068  -12.3012 O   0  0  0  0  0  0  0  0  0  0  0  0
   26.7116  -20.2061   -5.1999 C   0  0  0  0  0  0  0  0  0  0  0  0
   27.3885  -19.3635   -6.6380 S   0  0  0  0  0  0  0  0  0  0  0  0
   26.2546  -19.5441   -8.0825 C   0  0  0  0  0  0  0  0  0  0  0  0
   26.3506  -20.9587   -8.5052 C   0  0  0  0  0  0  0  0  0  0  0  0
   25.8968  -21.2733   -9.9117 C   0  0  2  0  0  0  0  0  0  0  0  0
   26.7320  -20.4014  -10.7588 N   0  0  0  0  0  0  0  0  0  0  0  0
   24.4828  -20.9616  -10.0861 C   0  0  0  0  0  0  0  0  0  0  0  0
   24.1321  -19.7336  -10.2265 O   0  0  0  0  0  0  0  0  0  0  0  0
   20.3035  -21.9125  -12.2354 C   0  0  0  0  0  0  0  0  0  0  0  0
   21.7038  -22.2533  -11.8499 C   0  0  1  0  0  0  0  0  0  0  0  0
   22.6462  -21.8715  -12.9777 C   0  0  0  0  0  0  0  0  0  0  0  0
   22.0747  -21.4828  -10.5877 C   0  0  2  0  0  0  0  0  0  0  0  0
   23.3966  -21.8710  -10.1288 N   0  0  0  0  0  0  0  0  0  0  0  0
   21.0960  -21.8461   -9.5506 C   0  0  0  0  0  0  0  0  0  0  0  0
   21.3253  -22.7889   -8.7611 O   0  0  0  0  0  0  0  0  0  0  0  0
   19.8796  -21.1915   -9.3727 O   0  0  0  0  0  0  0  0  0  0  0  0
  2  1  1  6
  3  4  1  0
  3  2  1  0
  4  5  2  0
  6  5  1  0
  7  6  1  0
  8  7  2  0
  9  8  1  0
 10 11  1  0
 10  9  2  0
 11 12  2  0
 12  7  1  0
 12  4  1  0
 13  2  1  0
 13 14  2  0
 16 15  1  0
 16 17  1  0
 17 18  1  0
 19 18  1  1
 19 20  1  0
 20 13  1  0
 21 19  1  0
 22 21  2  0
 24 23  1  6
 24 25  1  0
 24 26  1  0
 26 27  1  1
 26 28  1  0
 27 21  1  0
 28 30  1  0
 29 28  2  0
M  END
$$$$
