WMV.pdb
     RDKit          3D

 30 31  0  0  1  0  0  0  0  0999 V2000
   27.3679  -20.9712  -12.0709 N   0  0  0  0  0  0  0  0  0  0  0  0
   26.2101  -21.0683  -11.2507 C   0  0  1  0  0  0  0  0  0  0  0  0
   26.2457  -20.3343   -9.9565 C   0  0  0  0  0  0  0  0  0  0  0  0
   27.5026  -20.5994   -9.2518 C   0  0  0  0  0  0  0  0  0  0  0  0
   28.5758  -21.2821   -9.8408 C   0  0  0  0  0  0  0  0  0  0  0  0
   29.5341  -21.3133   -8.9190 N   0  0  0  0  0  0  0  0  0  0  0  0
   29.1510  -20.7047   -7.7942 C   0  0  0  0  0  0  0  0  0  0  0  0
   29.7868  -20.4918   -6.5843 C   0  0  0  0  0  0  0  0  0  0  0  0
   29.1130  -19.8205   -5.5912 C   0  0  0  0  0  0  0  0  0  0  0  0
   27.8257  -19.3647   -5.7902 C   0  0  0  0  0  0  0  0  0  0  0  0
   27.2006  -19.5734   -6.9783 C   0  0  0  0  0  0  0  0  0  0  0  0
   27.8553  -20.2402   -7.9823 C   0  0  0  0  0  0  0  0  0  0  0  0
   24.9588  -20.6694  -11.9948 C   0  0  0  0  0  0  0  0  0  0  0  0
   24.9523  -19.5181  -12.5015 O   0  0  0  0  0  0  0  0  0  0  0  0
   24.4167  -19.3588  -17.0343 C   0  0  0  0  0  0  0  0  0  0  0  0
   23.2341  -20.7135  -16.9834 S   0  0  0  0  0  0  0  0  0  0  0  0
   22.2862  -20.6809  -15.4004 C   0  0  0  0  0  0  0  0  0  0  0  0
   23.2432  -21.0688  -14.3409 C   0  0  0  0  0  0  0  0  0  0  0  0
   22.7115  -21.0851  -12.9267 C   0  0  2  0  0  0  0  0  0  0  0  0
   23.8632  -21.5275  -12.1183 N   0  0  0  0  0  0  0  0  0  0  0  0
   21.6004  -22.0209  -12.7975 C   0  0  0  0  0  0  0  0  0  0  0  0
   21.8282  -23.2769  -12.9431 O   0  0  0  0  0  0  0  0  0  0  0  0
   18.9758  -22.2518   -9.9315 C   0  0  0  0  0  0  0  0  0  0  0  0
   18.2561  -22.3358  -11.2356 C   0  0  1  0  0  0  0  0  0  0  0  0
   17.6621  -20.9799  -11.5739 C   0  0  0  0  0  0  0  0  0  0  0  0
   19.2414  -22.7504  -12.3226 C   0  0  2  0  0  0  0  0  0  0  0  0
   20.2447  -21.7184  -12.5154 N   0  0  0  0  0  0  0  0  0  0  0  0
   18.4776  -22.8970  -13.5718 C   0  0  0  0  0  0  0  0  0  0  0  0
   18.4781  -21.9860  -14.4290 O   0  0  0  0  0  0  0  0  0  0  0  0
   17.7204  -24.0226  -13.8871 O   0  0  0  0  0  0  0  0  0  0  0  0
  2  1  1  6
  3  4  1  0
  3  2  1  0
  4  5  2  0
  6  5  1  0
  7  6  1  0
  8  7  2  0
  9  8  1  0
 10 11  1  0
 10  9  2  0
 11 12  2  0
 12  7  1  0
 12  4  1  0
 13  2  1  0
 13 14  2  0
 16 15  1  0
 16 17  1  0
 17 18  1  0
 19 18  1  6
 19 20  1  0
 20 13  1  0
 21 19  1  0
 22 21  2  0
 24 23  1  1
 24 25  1  0
 24 26  1  0
 26 27  1  6
 26 28  1  0
 27 21  1  0
 28 30  1  0
 29 28  2  0
M  END
$$$$
