WMV.pdb
     RDKit          3D

 30 31  0  0  1  0  0  0  0  0999 V2000
   15.5429  -15.9132    5.2009 N   0  0  0  0  0  0  0  0  0  0  0  0
   16.8002  -16.1807    5.8094 C   0  0  1  0  0  0  0  0  0  0  0  0
   17.2908  -15.1795    6.7953 C   0  0  0  0  0  0  0  0  0  0  0  0
   17.8873  -14.0323    6.1065 C   0  0  0  0  0  0  0  0  0  0  0  0
   17.2249  -13.3237    5.0946 C   0  0  0  0  0  0  0  0  0  0  0  0
   18.0573  -12.3532    4.7283 N   0  0  0  0  0  0  0  0  0  0  0  0
   19.1933  -12.3929    5.4284 C   0  0  0  0  0  0  0  0  0  0  0  0
   20.3343  -11.6113    5.4024 C   0  0  0  0  0  0  0  0  0  0  0  0
   21.3635  -11.9130    6.2630 C   0  0  0  0  0  0  0  0  0  0  0  0
   21.2675  -12.9746    7.1395 C   0  0  0  0  0  0  0  0  0  0  0  0
   20.1471  -13.7427    7.1657 C   0  0  0  0  0  0  0  0  0  0  0  0
   19.1086  -13.4583    6.3160 C   0  0  0  0  0  0  0  0  0  0  0  0
   16.8342  -17.5455    6.4535 C   0  0  0  0  0  0  0  0  0  0  0  0
   15.8117  -17.8828    7.1039 O   0  0  0  0  0  0  0  0  0  0  0  0
   15.2560  -23.8158    4.6619 C   0  0  0  0  0  0  0  0  0  0  0  0
   16.7075  -22.7540    4.7074 S   0  0  0  0  0  0  0  0  0  0  0  0
   16.5315  -21.4800    6.0307 C   0  0  0  0  0  0  0  0  0  0  0  0
   17.8034  -20.7242    6.0443 C   0  0  0  0  0  0  0  0  0  0  0  0
   17.9394  -19.6546    7.1028 C   0  0  2  0  0  0  0  0  0  0  0  0
   17.9383  -18.3938    6.3374 N   0  0  0  0  0  0  0  0  0  0  0  0
   19.1868  -19.8081    7.8428 C   0  0  0  0  0  0  0  0  0  0  0  0
   20.2627  -19.3034    7.3545 O   0  0  0  0  0  0  0  0  0  0  0  0
   21.8524  -20.1681   11.8758 C   0  0  0  0  0  0  0  0  0  0  0  0
   20.5558  -19.9609   11.1676 C   0  0  1  0  0  0  0  0  0  0  0  0
   20.2369  -18.4770   11.1200 C   0  0  0  0  0  0  0  0  0  0  0  0
   20.6700  -20.5073    9.7490 C   0  0  2  0  0  0  0  0  0  0  0  0
   19.3793  -20.4630    9.0849 N   0  0  0  0  0  0  0  0  0  0  0  0
   21.0914  -21.9133    9.8550 C   0  0  0  0  0  0  0  0  0  0  0  0
   20.2460  -22.8209   10.0165 O   0  0  0  0  0  0  0  0  0  0  0  0
   22.4187  -22.3294    9.7862 O   0  0  0  0  0  0  0  0  0  0  0  0
  2  1  1  1
  3  4  1  0
  3  2  1  0
  4  5  2  0
  6  5  1  0
  7  6  1  0
  8  7  2  0
  9  8  1  0
 10 11  1  0
 10  9  2  0
 11 12  2  0
 12  7  1  0
 12  4  1  0
 13  2  1  0
 13 14  2  0
 16 15  1  0
 16 17  1  0
 17 18  1  0
 19 18  1  6
 19 20  1  0
 20 13  1  0
 21 19  1  0
 22 21  2  0
 24 23  1  6
 24 25  1  0
 24 26  1  0
 26 27  1  1
 26 28  1  0
 27 21  1  0
 28 30  1  0
 29 28  2  0
M  END
$$$$
