WMV.pdb
     RDKit          3D

 30 31  0  0  1  0  0  0  0  0999 V2000
   26.3348  -21.3886  -13.0149 N   0  0  0  0  0  0  0  0  0  0  0  0
   25.8898  -20.4222  -12.0712 C   0  0  1  0  0  0  0  0  0  0  0  0
   24.5362  -19.8453  -12.2947 C   0  0  0  0  0  0  0  0  0  0  0  0
   24.4626  -19.2071  -13.6114 C   0  0  0  0  0  0  0  0  0  0  0  0
   23.4850  -19.5333  -14.5616 C   0  0  0  0  0  0  0  0  0  0  0  0
   23.7209  -18.7467  -15.6078 N   0  0  0  0  0  0  0  0  0  0  0  0
   24.7703  -17.9497  -15.3939 C   0  0  0  0  0  0  0  0  0  0  0  0
   25.3858  -16.9866  -16.1730 C   0  0  0  0  0  0  0  0  0  0  0  0
   26.4778  -16.3227  -15.6655 C   0  0  0  0  0  0  0  0  0  0  0  0
   26.9571  -16.6066  -14.4029 C   0  0  0  0  0  0  0  0  0  0  0  0
   26.3531  -17.5523  -13.6370 C   0  0  0  0  0  0  0  0  0  0  0  0
   25.2619  -18.2257  -14.1242 C   0  0  0  0  0  0  0  0  0  0  0  0
   25.9622  -20.9431  -10.6562 C   0  0  0  0  0  0  0  0  0  0  0  0
   25.8043  -22.1821  -10.5074 O   0  0  0  0  0  0  0  0  0  0  0  0
   28.8769  -19.2501   -3.6079 C   0  0  0  0  0  0  0  0  0  0  0  0
   28.5658  -18.9409   -5.3526 S   0  0  0  0  0  0  0  0  0  0  0  0
   27.2699  -20.0903   -5.9887 C   0  0  0  0  0  0  0  0  0  0  0  0
   27.1591  -19.8214   -7.4393 C   0  0  0  0  0  0  0  0  0  0  0  0
   26.1906  -20.6861   -8.2122 C   0  0  2  0  0  0  0  0  0  0  0  0
   26.1921  -20.1003   -9.5659 N   0  0  0  0  0  0  0  0  0  0  0  0
   24.8564  -20.6278   -7.6260 C   0  0  0  0  0  0  0  0  0  0  0  0
   24.1709  -19.5485   -7.7526 O   0  0  0  0  0  0  0  0  0  0  0  0
   21.9724  -23.2489   -7.8262 C   0  0  0  0  0  0  0  0  0  0  0  0
   22.0776  -22.7860   -6.4118 C   0  0  1  0  0  0  0  0  0  0  0  0
   22.8142  -23.8300   -5.5912 C   0  0  0  0  0  0  0  0  0  0  0  0
   22.8443  -21.4688   -6.3744 C   0  0  2  0  0  0  0  0  0  0  0  0
   24.1826  -21.6478   -6.9088 N   0  0  0  0  0  0  0  0  0  0  0  0
   22.9559  -21.0681   -4.9628 C   0  0  0  0  0  0  0  0  0  0  0  0
   24.0461  -21.1662   -4.3575 O   0  0  0  0  0  0  0  0  0  0  0  0
   21.8932  -20.5657   -4.2158 O   0  0  0  0  0  0  0  0  0  0  0  0
  2  1  1  6
  3  4  1  0
  3  2  1  0
  4  5  2  0
  6  5  1  0
  7  6  1  0
  8  7  2  0
  9  8  1  0
 10 11  1  0
 10  9  2  0
 11 12  2  0
 12  7  1  0
 12  4  1  0
 13  2  1  0
 13 14  2  0
 16 15  1  0
 16 17  1  0
 17 18  1  0
 19 18  1  1
 19 20  1  0
 20 13  1  0
 21 19  1  0
 22 21  2  0
 24 23  1  6
 24 25  1  0
 24 26  1  0
 26 27  1  1
 26 28  1  0
 27 21  1  0
 28 30  1  0
 29 28  2  0
M  END
$$$$
