WMV.pdb
     RDKit          3D

 30 31  0  0  1  0  0  0  0  0999 V2000
   27.0372  -19.9728  -17.4124 N   0  0  0  0  0  0  0  0  0  0  0  0
   27.6142  -19.4235  -16.2343 C   0  0  1  0  0  0  0  0  0  0  0  0
   27.3163  -17.9934  -15.9497 C   0  0  0  0  0  0  0  0  0  0  0  0
   27.8525  -17.1375  -17.0110 C   0  0  0  0  0  0  0  0  0  0  0  0
   27.0469  -16.2927  -17.7871 C   0  0  0  0  0  0  0  0  0  0  0  0
   27.8749  -15.6680  -18.6197 N   0  0  0  0  0  0  0  0  0  0  0  0
   29.1396  -16.0517  -18.4313 C   0  0  0  0  0  0  0  0  0  0  0  0
   30.3258  -15.6929  -19.0457 C   0  0  0  0  0  0  0  0  0  0  0  0
   31.4947  -16.2815  -18.6237 C   0  0  0  0  0  0  0  0  0  0  0  0
   31.4926  -17.2142  -17.6066 C   0  0  0  0  0  0  0  0  0  0  0  0
   30.3280  -17.5671  -17.0026 C   0  0  0  0  0  0  0  0  0  0  0  0
   29.1509  -16.9912  -17.4080 C   0  0  0  0  0  0  0  0  0  0  0  0
   27.2746  -20.2378  -15.0095 C   0  0  0  0  0  0  0  0  0  0  0  0
   26.2495  -20.9629  -15.0862 O   0  0  0  0  0  0  0  0  0  0  0  0
   31.6449  -21.7171  -10.7838 C   0  0  0  0  0  0  0  0  0  0  0  0
   30.3013  -21.4929   -9.6087 S   0  0  0  0  0  0  0  0  0  0  0  0
   28.6706  -21.6421  -10.4596 C   0  0  0  0  0  0  0  0  0  0  0  0
   28.8242  -20.9595  -11.7633 C   0  0  0  0  0  0  0  0  0  0  0  0
   27.6315  -21.0022  -12.6900 C   0  0  2  0  0  0  0  0  0  0  0  0
   28.0524  -20.1937  -13.8497 N   0  0  0  0  0  0  0  0  0  0  0  0
   26.4553  -20.4196  -12.0543 C   0  0  0  0  0  0  0  0  0  0  0  0
   26.4406  -19.1568  -11.8178 O   0  0  0  0  0  0  0  0  0  0  0  0
   22.9524  -20.0282  -13.1217 C   0  0  0  0  0  0  0  0  0  0  0  0
   22.8691  -20.6604  -11.7729 C   0  0  1  0  0  0  0  0  0  0  0  0
   22.6669  -22.1574  -11.9275 C   0  0  0  0  0  0  0  0  0  0  0  0
   24.1652  -20.3927  -11.0163 C   0  0  2  0  0  0  0  0  0  0  0  0
   25.2725  -21.0872  -11.6492 N   0  0  0  0  0  0  0  0  0  0  0  0
   23.9957  -20.9282   -9.6561 C   0  0  0  0  0  0  0  0  0  0  0  0
   24.5859  -21.9739   -9.3054 O   0  0  0  0  0  0  0  0  0  0  0  0
   23.1927  -20.3336   -8.6860 O   0  0  0  0  0  0  0  0  0  0  0  0
  2  1  1  6
  3  4  1  0
  3  2  1  0
  4  5  2  0
  6  5  1  0
  7  6  1  0
  8  7  2  0
  9  8  1  0
 10 11  1  0
 10  9  2  0
 11 12  2  0
 12  7  1  0
 12  4  1  0
 13  2  1  0
 13 14  2  0
 16 15  1  0
 16 17  1  0
 17 18  1  0
 19 18  1  1
 19 20  1  0
 20 13  1  0
 21 19  1  0
 22 21  2  0
 24 23  1  6
 24 25  1  0
 24 26  1  0
 26 27  1  6
 26 28  1  0
 27 21  1  0
 28 30  1  0
 29 28  2  0
M  END
$$$$
