WMV.pdb
     RDKit          3D

 30 31  0  0  1  0  0  0  0  0999 V2000
   27.2361  -21.5220  -13.4455 N   0  0  0  0  0  0  0  0  0  0  0  0
   26.5680  -20.4643  -12.7690 C   0  0  1  0  0  0  0  0  0  0  0  0
   25.3737  -19.8888  -13.4454 C   0  0  0  0  0  0  0  0  0  0  0  0
   25.7522  -18.7240  -14.2493 C   0  0  0  0  0  0  0  0  0  0  0  0
   24.8760  -17.6610  -14.5082 C   0  0  0  0  0  0  0  0  0  0  0  0
   25.5672  -16.7929  -15.2416 N   0  0  0  0  0  0  0  0  0  0  0  0
   26.8105  -17.2238  -15.4668 C   0  0  0  0  0  0  0  0  0  0  0  0
   27.8746  -16.6820  -16.1650 C   0  0  0  0  0  0  0  0  0  0  0  0
   29.0551  -17.3848  -16.2235 C   0  0  0  0  0  0  0  0  0  0  0  0
   29.1835  -18.6092  -15.5999 C   0  0  0  0  0  0  0  0  0  0  0  0
   28.1389  -19.1420  -14.9139 C   0  0  0  0  0  0  0  0  0  0  0  0
   26.9528  -18.4567  -14.8427 C   0  0  0  0  0  0  0  0  0  0  0  0
   26.1829  -20.8517  -11.3617 C   0  0  0  0  0  0  0  0  0  0  0  0
   25.6093  -21.9627  -11.2244 O   0  0  0  0  0  0  0  0  0  0  0  0
   27.6915  -20.5343   -4.0548 C   0  0  0  0  0  0  0  0  0  0  0  0
   27.9293  -20.0972   -5.7836 S   0  0  0  0  0  0  0  0  0  0  0  0
   26.3223  -19.6154   -6.5523 C   0  0  0  0  0  0  0  0  0  0  0  0
   26.5962  -19.4317   -7.9946 C   0  0  0  0  0  0  0  0  0  0  0  0
   26.0536  -20.4929   -8.9233 C   0  0  2  0  0  0  0  0  0  0  0  0
   26.4463  -20.0258  -10.2661 N   0  0  0  0  0  0  0  0  0  0  0  0
   24.6025  -20.5897   -8.8144 C   0  0  0  0  0  0  0  0  0  0  0  0
   23.8829  -19.6159   -9.2439 O   0  0  0  0  0  0  0  0  0  0  0  0
   20.3120  -22.8973   -8.2437 C   0  0  0  0  0  0  0  0  0  0  0  0
   21.7897  -22.9747   -8.4336 C   0  0  1  0  0  0  0  0  0  0  0  0
   22.0953  -23.3860   -9.8630 C   0  0  0  0  0  0  0  0  0  0  0  0
   22.4006  -21.6068   -8.1511 C   0  0  2  0  0  0  0  0  0  0  0  0
   23.8460  -21.6625   -8.2799 N   0  0  0  0  0  0  0  0  0  0  0  0
   22.0698  -21.2594   -6.7599 C   0  0  0  0  0  0  0  0  0  0  0  0
   22.7979  -21.6426   -5.8177 O   0  0  0  0  0  0  0  0  0  0  0  0
   20.9587  -20.5028   -6.3957 O   0  0  0  0  0  0  0  0  0  0  0  0
  2  1  1  6
  3  4  1  0
  3  2  1  0
  4  5  2  0
  6  5  1  0
  7  6  1  0
  8  7  2  0
  9  8  1  0
 10 11  1  0
 10  9  2  0
 11 12  2  0
 12  7  1  0
 12  4  1  0
 13  2  1  0
 13 14  2  0
 16 15  1  0
 16 17  1  0
 17 18  1  0
 19 18  1  1
 19 20  1  0
 20 13  1  0
 21 19  1  0
 22 21  2  0
 24 23  1  6
 24 25  1  0
 24 26  1  0
 26 27  1  1
 26 28  1  0
 27 21  1  0
 28 30  1  0
 29 28  2  0
M  END
$$$$
