WMV.pdb
     RDKit          3D

 30 31  0  0  1  0  0  0  0  0999 V2000
   28.1242  -20.7717  -15.4410 N   0  0  0  0  0  0  0  0  0  0  0  0
   27.0789  -20.0624  -14.7876 C   0  0  1  0  0  0  0  0  0  0  0  0
   26.0148  -19.4914  -15.6575 C   0  0  0  0  0  0  0  0  0  0  0  0
   26.5768  -18.4824  -16.5589 C   0  0  0  0  0  0  0  0  0  0  0  0
   26.9293  -18.7603  -17.8868 C   0  0  0  0  0  0  0  0  0  0  0  0
   27.3780  -17.6135  -18.3895 N   0  0  0  0  0  0  0  0  0  0  0  0
   27.3371  -16.6333  -17.4840 C   0  0  0  0  0  0  0  0  0  0  0  0
   27.6950  -15.2982  -17.5362 C   0  0  0  0  0  0  0  0  0  0  0  0
   27.5371  -14.5257  -16.4096 C   0  0  0  0  0  0  0  0  0  0  0  0
   27.0317  -15.0654  -15.2443 C   0  0  0  0  0  0  0  0  0  0  0  0
   26.6800  -16.3766  -15.1923 C   0  0  0  0  0  0  0  0  0  0  0  0
   26.8288  -17.1644  -16.3052 C   0  0  0  0  0  0  0  0  0  0  0  0
   26.4244  -20.8923  -13.7099 C   0  0  0  0  0  0  0  0  0  0  0  0
   26.1963  -22.0967  -13.9923 O   0  0  0  0  0  0  0  0  0  0  0  0
   27.9620  -21.0677   -6.9413 C   0  0  0  0  0  0  0  0  0  0  0  0
   26.5320  -20.4709   -7.8552 S   0  0  0  0  0  0  0  0  0  0  0  0
   26.5753  -21.0891   -9.5933 C   0  0  0  0  0  0  0  0  0  0  0  0
   25.3472  -20.5783  -10.2413 C   0  0  0  0  0  0  0  0  0  0  0  0
   25.0782  -21.0597  -11.6480 C   0  0  2  0  0  0  0  0  0  0  0  0
   26.0874  -20.3583  -12.4636 N   0  0  0  0  0  0  0  0  0  0  0  0
   23.7303  -20.7009  -12.0738 C   0  0  0  0  0  0  0  0  0  0  0  0
   23.5119  -19.5083  -12.4990 O   0  0  0  0  0  0  0  0  0  0  0  0
   21.9900  -21.4825  -14.9741 C   0  0  0  0  0  0  0  0  0  0  0  0
   21.0007  -21.8603  -13.9232 C   0  0  1  0  0  0  0  0  0  0  0  0
   21.0916  -23.3523  -13.6559 C   0  0  0  0  0  0  0  0  0  0  0  0
   21.3127  -21.0898  -12.6452 C   0  0  2  0  0  0  0  0  0  0  0  0
   22.5797  -21.5284  -12.0873 N   0  0  0  0  0  0  0  0  0  0  0  0
   20.2466  -21.3971  -11.6785 C   0  0  0  0  0  0  0  0  0  0  0  0
   20.4575  -22.1792  -10.7253 O   0  0  0  0  0  0  0  0  0  0  0  0
   18.9635  -20.8598  -11.7465 O   0  0  0  0  0  0  0  0  0  0  0  0
  2  1  1  6
  3  4  1  0
  3  2  1  0
  4  5  2  0
  6  5  1  0
  7  6  1  0
  8  7  2  0
  9  8  1  0
 10 11  1  0
 10  9  2  0
 11 12  2  0
 12  7  1  0
 12  4  1  0
 13  2  1  0
 13 14  2  0
 16 15  1  0
 16 17  1  0
 17 18  1  0
 19 18  1  1
 19 20  1  0
 20 13  1  0
 21 19  1  0
 22 21  2  0
 24 23  1  6
 24 25  1  0
 24 26  1  0
 26 27  1  1
 26 28  1  0
 27 21  1  0
 28 30  1  0
 29 28  2  0
M  END
$$$$
