WSV.pdb
     RDKit          3D

 28 29  0  0  1  0  0  0  0  0999 V2000
   25.1373  -21.2972  -14.2195 N   0  0  0  0  0  0  0  0  0  0  0  0
   24.9067  -20.3166  -13.1321 C   0  0  1  0  0  0  0  0  0  0  0  0
   24.1506  -19.1609  -13.6605 C   0  0  0  0  0  0  0  0  0  0  0  0
   24.7422  -18.3655  -14.7212 C   0  0  0  0  0  0  0  0  0  0  0  0
   24.0844  -17.5119  -15.6092 C   0  0  0  0  0  0  0  0  0  0  0  0
   24.9953  -16.9913  -16.4321 N   0  0  0  0  0  0  0  0  0  0  0  0
   26.2119  -17.4530  -16.1349 C   0  0  0  0  0  0  0  0  0  0  0  0
   27.4776  -17.2093  -16.6692 C   0  0  0  0  0  0  0  0  0  0  0  0
   28.5677  -17.8219  -16.1337 C   0  0  0  0  0  0  0  0  0  0  0  0
   28.4478  -18.6920  -15.0583 C   0  0  0  0  0  0  0  0  0  0  0  0
   27.1986  -18.9400  -14.5232 C   0  0  0  0  0  0  0  0  0  0  0  0
   26.0846  -18.3178  -15.0657 C   0  0  0  0  0  0  0  0  0  0  0  0
   24.2545  -21.0262  -12.0315 C   0  0  0  0  0  0  0  0  0  0  0  0
   23.4471  -21.9856  -12.2377 O   0  0  0  0  0  0  0  0  0  0  0  0
   24.6823  -19.7652   -8.2266 O   0  0  0  0  0  0  0  0  0  0  0  0
   24.6854  -21.1345   -8.3201 C   0  0  0  0  0  0  0  0  0  0  0  0
   23.9175  -21.5671   -9.5911 C   0  0  2  0  0  0  0  0  0  0  0  0
   24.4618  -20.7247  -10.6362 N   0  0  0  0  0  0  0  0  0  0  0  0
   22.5028  -21.2068   -9.3872 C   0  0  0  0  0  0  0  0  0  0  0  0
   22.1130  -20.0465   -9.6271 O   0  0  0  0  0  0  0  0  0  0  0  0
   19.8095  -21.7389  -11.1530 C   0  0  0  0  0  0  0  0  0  0  0  0
   19.2575  -22.2400   -9.8366 C   0  0  1  0  0  0  0  0  0  0  0  0
   19.2923  -23.7565   -9.8513 C   0  0  0  0  0  0  0  0  0  0  0  0
   20.1582  -21.7443   -8.7399 C   0  0  2  0  0  0  0  0  0  0  0  0
   21.5351  -22.1521   -8.9141 N   0  0  0  0  0  0  0  0  0  0  0  0
   19.6729  -22.2423   -7.3986 C   0  0  0  0  0  0  0  0  0  0  0  0
   20.3967  -22.9914   -6.6834 O   0  0  0  0  0  0  0  0  0  0  0  0
   18.4294  -21.9013   -6.9055 O   0  0  0  0  0  0  0  0  0  0  0  0
  2  1  1  6
  3  2  1  0
  4  5  2  0
  4  3  1  0
  6  5  1  0
  7 12  2  0
  7  6  1  0
  8  7  1  0
  9 10  1  0
  9  8  2  0
 10 11  2  0
 11 12  1  0
 12  4  1  0
 13  2  1  0
 14 13  2  0
 16 15  1  0
 17 18  1  0
 17 16  1  1
 18 13  1  0
 19 17  1  0
 20 19  2  0
 22 21  1  6
 22 24  1  0
 23 22  1  0
 24 26  1  0
 24 25  1  6
 25 19  1  0
 26 28  1  0
 27 26  2  0
M  END
$$$$
