WSV.pdb
     RDKit          3D

 28 29  0  0  1  0  0  0  0  0999 V2000
   26.1169  -22.7525  -13.2988 N   0  0  0  0  0  0  0  0  0  0  0  0
   25.5450  -21.7757  -12.3418 C   0  0  1  0  0  0  0  0  0  0  0  0
   26.4511  -20.6134  -12.2206 C   0  0  0  0  0  0  0  0  0  0  0  0
   27.5548  -20.6836  -11.2800 C   0  0  0  0  0  0  0  0  0  0  0  0
   28.9178  -20.7545  -11.5751 C   0  0  0  0  0  0  0  0  0  0  0  0
   29.5863  -20.8207  -10.4233 N   0  0  0  0  0  0  0  0  0  0  0  0
   28.7413  -20.7966   -9.3904 C   0  0  0  0  0  0  0  0  0  0  0  0
   28.9292  -20.8215   -8.0080 C   0  0  0  0  0  0  0  0  0  0  0  0
   27.8535  -20.7607   -7.1776 C   0  0  0  0  0  0  0  0  0  0  0  0
   26.5617  -20.6742   -7.6793 C   0  0  0  0  0  0  0  0  0  0  0  0
   26.3659  -20.6497   -9.0465 C   0  0  0  0  0  0  0  0  0  0  0  0
   27.4593  -20.7113   -9.8968 C   0  0  0  0  0  0  0  0  0  0  0  0
   24.1920  -21.4551  -12.7967 C   0  0  0  0  0  0  0  0  0  0  0  0
   23.8502  -21.5694  -14.0153 O   0  0  0  0  0  0  0  0  0  0  0  0
   19.6128  -20.5950  -11.3989 O   0  0  0  0  0  0  0  0  0  0  0  0
   20.9543  -20.5975  -11.1085 C   0  0  0  0  0  0  0  0  0  0  0  0
   21.7586  -20.9345  -12.3859 C   0  0  2  0  0  0  0  0  0  0  0  0
   23.1326  -20.9975  -11.9315 N   0  0  0  0  0  0  0  0  0  0  0  0
   21.6194  -19.7879  -13.3017 C   0  0  0  0  0  0  0  0  0  0  0  0
   22.1475  -18.6941  -13.0177 O   0  0  0  0  0  0  0  0  0  0  0  0
   22.6005  -19.2033  -16.7968 C   0  0  0  0  0  0  0  0  0  0  0  0
   21.1172  -18.9060  -16.7775 C   0  0  1  0  0  0  0  0  0  0  0  0
   20.3817  -20.1140  -17.3259 C   0  0  0  0  0  0  0  0  0  0  0  0
   20.7073  -18.6963  -15.3466 C   0  0  2  0  0  0  0  0  0  0  0  0
   20.8869  -19.8769  -14.5302 N   0  0  0  0  0  0  0  0  0  0  0  0
   19.2584  -18.2744  -15.2735 C   0  0  0  0  0  0  0  0  0  0  0  0
   18.8795  -17.1672  -15.7503 O   0  0  0  0  0  0  0  0  0  0  0  0
   18.2989  -19.0756  -14.6877 O   0  0  0  0  0  0  0  0  0  0  0  0
  2  1  1  6
  3  2  1  0
  4  5  2  0
  4  3  1  0
  6  5  1  0
  7 12  2  0
  7  6  1  0
  8  7  1  0
  9 10  1  0
  9  8  2  0
 10 11  2  0
 11 12  1  0
 12  4  1  0
 13  2  1  0
 14 13  2  0
 16 15  1  0
 17 18  1  0
 17 16  1  1
 18 13  1  0
 19 17  1  0
 20 19  2  0
 22 21  1  1
 22 24  1  0
 23 22  1  0
 24 26  1  0
 24 25  1  1
 25 19  1  0
 26 28  1  0
 27 26  2  0
M  END
$$$$
