WSV.pdb
     RDKit          3D

 28 29  0  0  1  0  0  0  0  0999 V2000
   28.7938  -24.3315  -17.7185 N   0  0  0  0  0  0  0  0  0  0  0  0
   27.5309  -24.6944  -17.0325 C   0  0  1  0  0  0  0  0  0  0  0  0
   27.7582  -25.8729  -16.1688 C   0  0  0  0  0  0  0  0  0  0  0  0
   27.9367  -27.1717  -16.7926 C   0  0  0  0  0  0  0  0  0  0  0  0
   26.9535  -28.1263  -17.0611 C   0  0  0  0  0  0  0  0  0  0  0  0
   27.5449  -29.1803  -17.6242 N   0  0  0  0  0  0  0  0  0  0  0  0
   28.8581  -28.9723  -17.7412 C   0  0  0  0  0  0  0  0  0  0  0  0
   29.8984  -29.7382  -18.2688 C   0  0  0  0  0  0  0  0  0  0  0  0
   31.1665  -29.2460  -18.2726 C   0  0  0  0  0  0  0  0  0  0  0  0
   31.4512  -27.9880  -17.7585 C   0  0  0  0  0  0  0  0  0  0  0  0
   30.4279  -27.2230  -17.2334 C   0  0  0  0  0  0  0  0  0  0  0  0
   29.1337  -27.7204  -17.2275 C   0  0  0  0  0  0  0  0  0  0  0  0
   27.0531  -23.5023  -16.3320 C   0  0  0  0  0  0  0  0  0  0  0  0
   27.8327  -22.7718  -15.6438 O   0  0  0  0  0  0  0  0  0  0  0  0
   23.0371  -22.3616  -16.2593 O   0  0  0  0  0  0  0  0  0  0  0  0
   23.9953  -21.3918  -16.4181 C   0  0  0  0  0  0  0  0  0  0  0  0
   25.2890  -21.8192  -15.6862 C   0  0  2  0  0  0  0  0  0  0  0  0
   25.6870  -23.0400  -16.3566 N   0  0  0  0  0  0  0  0  0  0  0  0
   24.9148  -22.1465  -14.2985 C   0  0  0  0  0  0  0  0  0  0  0  0
   24.3204  -23.2140  -14.0473 O   0  0  0  0  0  0  0  0  0  0  0  0
   27.0102  -21.8566  -11.0693 C   0  0  0  0  0  0  0  0  0  0  0  0
   25.6816  -21.1888  -10.7904 C   0  0  1  0  0  0  0  0  0  0  0  0
   25.8821  -19.6862  -10.8472 C   0  0  0  0  0  0  0  0  0  0  0  0
   24.7250  -21.5926  -11.8773 C   0  0  2  0  0  0  0  0  0  0  0  0
   25.2098  -21.2722  -13.2021 N   0  0  0  0  0  0  0  0  0  0  0  0
   23.3884  -20.9177  -11.6757 C   0  0  0  0  0  0  0  0  0  0  0  0
   22.9626  -20.0607  -12.5010 O   0  0  0  0  0  0  0  0  0  0  0  0
   22.5861  -21.2084  -10.5906 O   0  0  0  0  0  0  0  0  0  0  0  0
  2  1  1  1
  3  2  1  0
  4  5  2  0
  4  3  1  0
  6  5  1  0
  7 12  2  0
  7  6  1  0
  8  7  1  0
  9 10  1  0
  9  8  2  0
 10 11  2  0
 11 12  1  0
 12  4  1  0
 13  2  1  0
 14 13  2  0
 16 15  1  0
 17 18  1  0
 17 16  1  6
 18 13  1  0
 19 17  1  0
 20 19  2  0
 22 21  1  6
 22 24  1  0
 23 22  1  0
 24 26  1  0
 24 25  1  6
 25 19  1  0
 26 28  1  0
 27 26  2  0
M  END
$$$$
