WSV.pdb
     RDKit          3D

 28 29  0  0  1  0  0  0  0  0999 V2000
   19.2788  -11.4843  -16.9632 N   0  0  0  0  0  0  0  0  0  0  0  0
   19.7438  -10.2095  -17.5597 C   0  0  1  0  0  0  0  0  0  0  0  0
   19.1704  -10.0592  -18.9144 C   0  0  0  0  0  0  0  0  0  0  0  0
   19.4460  -11.0826  -19.9067 C   0  0  0  0  0  0  0  0  0  0  0  0
   18.5247  -11.9151  -20.5453 C   0  0  0  0  0  0  0  0  0  0  0  0
   19.1974  -12.7197  -21.3688 N   0  0  0  0  0  0  0  0  0  0  0  0
   20.5058  -12.4627  -21.3078 C   0  0  0  0  0  0  0  0  0  0  0  0
   21.6114  -12.9985  -21.9694 C   0  0  0  0  0  0  0  0  0  0  0  0
   22.8550  -12.5101  -21.7140 C   0  0  0  0  0  0  0  0  0  0  0  0
   23.0504  -11.4820  -20.8015 C   0  0  0  0  0  0  0  0  0  0  0  0
   21.9619  -10.9459  -20.1412 C   0  0  0  0  0  0  0  0  0  0  0  0
   20.6924  -11.4403  -20.3985 C   0  0  0  0  0  0  0  0  0  0  0  0
   19.4021   -9.1368  -16.6255 C   0  0  0  0  0  0  0  0  0  0  0  0
   18.1997   -8.8959  -16.2924 O   0  0  0  0  0  0  0  0  0  0  0  0
   21.7319   -8.3220  -13.9335 O   0  0  0  0  0  0  0  0  0  0  0  0
   20.5609   -7.6362  -13.7282 C   0  0  0  0  0  0  0  0  0  0  0  0
   19.9632   -7.2152  -15.0912 C   0  0  2  0  0  0  0  0  0  0  0  0
   20.3690   -8.2711  -15.9959 N   0  0  0  0  0  0  0  0  0  0  0  0
   20.6371   -5.9676  -15.4939 C   0  0  0  0  0  0  0  0  0  0  0  0
   21.8117   -5.9993  -15.9125 O   0  0  0  0  0  0  0  0  0  0  0  0
   20.6216   -1.2612  -16.8061 C   0  0  0  0  0  0  0  0  0  0  0  0
   19.7697   -2.4156  -16.3259 C   0  0  1  0  0  0  0  0  0  0  0  0
   18.9654   -2.9361  -17.5021 C   0  0  0  0  0  0  0  0  0  0  0  0
   20.6919   -3.5027  -15.8492 C   0  0  2  0  0  0  0  0  0  0  0  0
   19.9876   -4.6921  -15.4229 N   0  0  0  0  0  0  0  0  0  0  0  0
   21.5384   -3.0049  -14.7010 C   0  0  0  0  0  0  0  0  0  0  0  0
   21.1539   -3.1391  -13.5048 O   0  0  0  0  0  0  0  0  0  0  0  0
   22.7557   -2.3890  -14.9120 O   0  0  0  0  0  0  0  0  0  0  0  0
  2  1  1  1
  3  2  1  0
  4  5  2  0
  4  3  1  0
  6  5  1  0
  7 12  2  0
  7  6  1  0
  8  7  1  0
  9 10  1  0
  9  8  2  0
 10 11  2  0
 11 12  1  0
 12  4  1  0
 13  2  1  0
 14 13  2  0
 16 15  1  0
 17 18  1  0
 17 16  1  1
 18 13  1  0
 19 17  1  0
 20 19  2  0
 22 21  1  6
 22 24  1  0
 23 22  1  0
 24 26  1  0
 24 25  1  1
 25 19  1  0
 26 28  1  0
 27 26  2  0
M  END
$$$$
