WSV.pdb
     RDKit          3D

 28 29  0  0  1  0  0  0  0  0999 V2000
   27.5535  -22.2458  -10.6182 N   0  0  0  0  0  0  0  0  0  0  0  0
   26.5351  -21.3801   -9.9773 C   0  0  1  0  0  0  0  0  0  0  0  0
   27.1680  -20.1216   -9.5278 C   0  0  0  0  0  0  0  0  0  0  0  0
   28.2148  -20.1863   -8.5239 C   0  0  0  0  0  0  0  0  0  0  0  0
   29.5632  -20.4903   -8.7225 C   0  0  0  0  0  0  0  0  0  0  0  0
   30.1724  -20.4568   -7.5369 N   0  0  0  0  0  0  0  0  0  0  0  0
   29.3025  -20.1479   -6.5729 C   0  0  0  0  0  0  0  0  0  0  0  0
   29.4342  -19.9705   -5.1951 C   0  0  0  0  0  0  0  0  0  0  0  0
   28.3489  -19.6275   -4.4502 C   0  0  0  0  0  0  0  0  0  0  0  0
   27.1024  -19.4490   -5.0353 C   0  0  0  0  0  0  0  0  0  0  0  0
   26.9623  -19.6233   -6.3984 C   0  0  0  0  0  0  0  0  0  0  0  0
   28.0658  -19.9727   -7.1618 C   0  0  0  0  0  0  0  0  0  0  0  0
   25.4394  -21.2101  -10.9317 C   0  0  0  0  0  0  0  0  0  0  0  0
   25.6524  -21.0333  -12.1720 O   0  0  0  0  0  0  0  0  0  0  0  0
   21.6841  -21.2086   -9.6003 O   0  0  0  0  0  0  0  0  0  0  0  0
   21.7909  -21.9257  -10.7657 C   0  0  0  0  0  0  0  0  0  0  0  0
   23.0093  -21.4201  -11.5734 C   0  0  2  0  0  0  0  0  0  0  0  0
   24.0421  -21.2341  -10.5749 N   0  0  0  0  0  0  0  0  0  0  0  0
   22.6475  -20.1021  -12.1254 C   0  0  0  0  0  0  0  0  0  0  0  0
   22.7242  -19.0831  -11.4101 O   0  0  0  0  0  0  0  0  0  0  0  0
   23.8077  -18.3494  -15.3866 C   0  0  0  0  0  0  0  0  0  0  0  0
   22.2952  -18.3782  -15.3760 C   0  0  1  0  0  0  0  0  0  0  0  0
   21.8343  -19.5360  -16.2410 C   0  0  0  0  0  0  0  0  0  0  0  0
   21.8480  -18.6207  -13.9616 C   0  0  2  0  0  0  0  0  0  0  0  0
   22.2009  -19.9373  -13.4771 N   0  0  0  0  0  0  0  0  0  0  0  0
   20.3511  -18.4497  -13.8490 C   0  0  0  0  0  0  0  0  0  0  0  0
   19.8129  -17.3178  -14.0092 O   0  0  0  0  0  0  0  0  0  0  0  0
   19.5191  -19.5151  -13.5690 O   0  0  0  0  0  0  0  0  0  0  0  0
  2  1  1  6
  3  2  1  0
  4  5  2  0
  4  3  1  0
  6  5  1  0
  7 12  2  0
  7  6  1  0
  8  7  1  0
  9 10  1  0
  9  8  2  0
 10 11  2  0
 11 12  1  0
 12  4  1  0
 13  2  1  0
 14 13  2  0
 16 15  1  0
 17 18  1  0
 17 16  1  1
 18 13  1  0
 19 17  1  0
 20 19  2  0
 22 21  1  1
 22 24  1  0
 23 22  1  0
 24 26  1  0
 24 25  1  6
 25 19  1  0
 26 28  1  0
 27 26  2  0
M  END
$$$$
