WSV.pdb
     RDKit          3D

 28 29  0  0  1  0  0  0  0  0999 V2000
   28.5010  -21.2358   -8.9805 N   0  0  0  0  0  0  0  0  0  0  0  0
   27.0515  -20.9331   -8.9144 C   0  0  1  0  0  0  0  0  0  0  0  0
   26.8543  -19.5768   -8.3596 C   0  0  0  0  0  0  0  0  0  0  0  0
   27.4957  -19.2366   -7.1023 C   0  0  0  0  0  0  0  0  0  0  0  0
   28.2127  -18.0765   -6.8023 C   0  0  0  0  0  0  0  0  0  0  0  0
   28.6464  -18.1733   -5.5451 N   0  0  0  0  0  0  0  0  0  0  0  0
   28.2551  -19.3286   -5.0033 C   0  0  0  0  0  0  0  0  0  0  0  0
   28.4271  -19.8915   -3.7381 C   0  0  0  0  0  0  0  0  0  0  0  0
   27.8823  -21.1061   -3.4580 C   0  0  0  0  0  0  0  0  0  0  0  0
   27.1529  -21.8041   -4.4113 C   0  0  0  0  0  0  0  0  0  0  0  0
   26.9781  -21.2551   -5.6667 C   0  0  0  0  0  0  0  0  0  0  0  0
   27.5314  -20.0173   -5.9568 C   0  0  0  0  0  0  0  0  0  0  0  0
   26.4988  -21.1354  -10.2538 C   0  0  0  0  0  0  0  0  0  0  0  0
   27.2289  -21.4809  -11.2348 O   0  0  0  0  0  0  0  0  0  0  0  0
   22.6364  -20.2392  -11.0278 O   0  0  0  0  0  0  0  0  0  0  0  0
   23.0818  -21.3093  -11.7629 C   0  0  0  0  0  0  0  0  0  0  0  0
   24.6166  -21.2176  -11.9307 C   0  0  2  0  0  0  0  0  0  0  0  0
   25.1047  -20.9768  -10.5883 N   0  0  0  0  0  0  0  0  0  0  0  0
   24.8931  -20.0249  -12.7515 C   0  0  0  0  0  0  0  0  0  0  0  0
   24.8491  -18.8892  -12.2375 O   0  0  0  0  0  0  0  0  0  0  0  0
   27.7382  -19.3068  -14.2828 C   0  0  0  0  0  0  0  0  0  0  0  0
   26.8433  -18.7245  -15.3547 C   0  0  1  0  0  0  0  0  0  0  0  0
   27.0653  -19.5045  -16.6367 C   0  0  0  0  0  0  0  0  0  0  0  0
   25.4175  -18.9078  -14.9154 C   0  0  2  0  0  0  0  0  0  0  0  0
   25.2164  -20.1154  -14.1447 N   0  0  0  0  0  0  0  0  0  0  0  0
   24.5002  -18.9421  -16.1154 C   0  0  0  0  0  0  0  0  0  0  0  0
   23.8887  -20.0006  -16.4353 O   0  0  0  0  0  0  0  0  0  0  0  0
   24.2956  -17.8272  -16.9032 O   0  0  0  0  0  0  0  0  0  0  0  0
  2  1  1  6
  3  2  1  0
  4  5  2  0
  4  3  1  0
  6  5  1  0
  7 12  2  0
  7  6  1  0
  8  7  1  0
  9 10  1  0
  9  8  2  0
 10 11  2  0
 11 12  1  0
 12  4  1  0
 13  2  1  0
 14 13  2  0
 16 15  1  0
 17 18  1  0
 17 16  1  1
 18 13  1  0
 19 17  1  0
 20 19  2  0
 22 21  1  1
 22 24  1  0
 23 22  1  0
 24 26  1  0
 24 25  1  6
 25 19  1  0
 26 28  1  0
 27 26  2  0
M  END
$$$$
