WSV.pdb
     RDKit          3D

 28 29  0  0  1  0  0  0  0  0999 V2000
   24.8565  -20.2321  -14.0633 N   0  0  0  0  0  0  0  0  0  0  0  0
   25.4637  -21.1101  -13.0349 C   0  0  1  0  0  0  0  0  0  0  0  0
   26.7024  -21.7151  -13.5700 C   0  0  0  0  0  0  0  0  0  0  0  0
   26.6031  -22.6360  -14.6881 C   0  0  0  0  0  0  0  0  0  0  0  0
   27.3827  -22.6513  -15.8464 C   0  0  0  0  0  0  0  0  0  0  0  0
   26.9510  -23.6470  -16.6210 N   0  0  0  0  0  0  0  0  0  0  0  0
   25.9344  -24.2858  -16.0379 C   0  0  0  0  0  0  0  0  0  0  0  0
   25.1606  -25.3841  -16.4147 C   0  0  0  0  0  0  0  0  0  0  0  0
   24.1824  -25.8389  -15.5861 C   0  0  0  0  0  0  0  0  0  0  0  0
   23.9344  -25.2291  -14.3636 C   0  0  0  0  0  0  0  0  0  0  0  0
   24.6948  -24.1406  -13.9825 C   0  0  0  0  0  0  0  0  0  0  0  0
   25.6931  -23.6736  -14.8238 C   0  0  0  0  0  0  0  0  0  0  0  0
   25.6446  -20.3089  -11.8243 C   0  0  0  0  0  0  0  0  0  0  0  0
   26.1919  -19.1624  -11.8550 O   0  0  0  0  0  0  0  0  0  0  0  0
   23.5026  -21.1021   -8.5182 O   0  0  0  0  0  0  0  0  0  0  0  0
   23.9212  -19.8170   -8.7569 C   0  0  0  0  0  0  0  0  0  0  0  0
   25.3434  -19.8414   -9.3641 C   0  0  2  0  0  0  0  0  0  0  0  0
   25.2238  -20.7221  -10.5079 N   0  0  0  0  0  0  0  0  0  0  0  0
   26.2282  -20.4783   -8.3720 C   0  0  0  0  0  0  0  0  0  0  0  0
   26.4043  -21.7129   -8.3939 O   0  0  0  0  0  0  0  0  0  0  0  0
   29.8143  -19.8762   -7.3696 C   0  0  0  0  0  0  0  0  0  0  0  0
   29.0125  -19.7862   -6.0898 C   0  0  1  0  0  0  0  0  0  0  0  0
   28.8139  -18.3203   -5.7537 C   0  0  0  0  0  0  0  0  0  0  0  0
   27.6696  -20.4129   -6.3415 C   0  0  2  0  0  0  0  0  0  0  0  0
   26.9087  -19.7244   -7.3610 N   0  0  0  0  0  0  0  0  0  0  0  0
   26.8573  -20.4397   -5.0679 C   0  0  0  0  0  0  0  0  0  0  0  0
   25.7453  -19.8440   -4.9942 O   0  0  0  0  0  0  0  0  0  0  0  0
   27.2945  -21.1107   -3.9435 O   0  0  0  0  0  0  0  0  0  0  0  0
  2  1  1  6
  3  2  1  0
  4  5  2  0
  4  3  1  0
  6  5  1  0
  7 12  2  0
  7  6  1  0
  8  7  1  0
  9 10  1  0
  9  8  2  0
 10 11  2  0
 11 12  1  0
 12  4  1  0
 13  2  1  0
 14 13  2  0
 16 15  1  0
 17 18  1  0
 17 16  1  1
 18 13  1  0
 19 17  1  0
 20 19  2  0
 22 21  1  6
 22 24  1  0
 23 22  1  0
 24 26  1  0
 24 25  1  6
 25 19  1  0
 26 28  1  0
 27 26  2  0
M  END
$$$$
