WSV.pdb
     RDKit          3D

 28 29  0  0  1  0  0  0  0  0999 V2000
   25.9371  -21.4819   -7.5511 N   0  0  0  0  0  0  0  0  0  0  0  0
   25.8733  -20.3701   -8.5294 C   0  0  1  0  0  0  0  0  0  0  0  0
   27.0977  -19.5476   -8.4240 C   0  0  0  0  0  0  0  0  0  0  0  0
   27.4599  -18.9974   -7.1302 C   0  0  0  0  0  0  0  0  0  0  0  0
   27.3311  -17.6735   -6.7052 C   0  0  0  0  0  0  0  0  0  0  0  0
   27.7967  -17.5936   -5.4583 N   0  0  0  0  0  0  0  0  0  0  0  0
   28.2225  -18.7877   -5.0409 C   0  0  0  0  0  0  0  0  0  0  0  0
   28.7673  -19.2347   -3.8365 C   0  0  0  0  0  0  0  0  0  0  0  0
   29.0948  -20.5466   -3.6875 C   0  0  0  0  0  0  0  0  0  0  0  0
   28.8978  -21.4583   -4.7161 C   0  0  0  0  0  0  0  0  0  0  0  0
   28.3597  -21.0247   -5.9123 C   0  0  0  0  0  0  0  0  0  0  0  0
   28.0242  -19.6885   -6.0687 C   0  0  0  0  0  0  0  0  0  0  0  0
   25.6400  -20.9582   -9.8485 C   0  0  0  0  0  0  0  0  0  0  0  0
   26.2873  -21.9741  -10.2533 O   0  0  0  0  0  0  0  0  0  0  0  0
   22.4632  -19.9523  -12.0208 O   0  0  0  0  0  0  0  0  0  0  0  0
   23.1072  -21.0836  -12.4560 C   0  0  0  0  0  0  0  0  0  0  0  0
   24.6197  -20.9649  -12.1551 C   0  0  2  0  0  0  0  0  0  0  0  0
   24.6712  -20.4650  -10.7965 N   0  0  0  0  0  0  0  0  0  0  0  0
   25.1617  -19.9318  -13.0560 C   0  0  0  0  0  0  0  0  0  0  0  0
   25.0605  -18.7255  -12.7553 O   0  0  0  0  0  0  0  0  0  0  0  0
   28.4975  -19.0649  -14.0798 C   0  0  0  0  0  0  0  0  0  0  0  0
   27.7872  -19.2979  -15.3951 C   0  0  1  0  0  0  0  0  0  0  0  0
   28.1146  -20.7004  -15.8718 C   0  0  0  0  0  0  0  0  0  0  0  0
   26.3082  -19.2033  -15.1441 C   0  0  2  0  0  0  0  0  0  0  0  0
   25.8131  -20.2603  -14.2895 N   0  0  0  0  0  0  0  0  0  0  0  0
   25.5516  -19.2445  -16.4512 C   0  0  0  0  0  0  0  0  0  0  0  0
   24.6864  -20.1384  -16.6728 O   0  0  0  0  0  0  0  0  0  0  0  0
   25.7739  -18.3145  -17.4468 O   0  0  0  0  0  0  0  0  0  0  0  0
  2  1  1  1
  3  2  1  0
  4  5  2  0
  4  3  1  0
  6  5  1  0
  7 12  2  0
  7  6  1  0
  8  7  1  0
  9 10  1  0
  9  8  2  0
 10 11  2  0
 11 12  1  0
 12  4  1  0
 13  2  1  0
 14 13  2  0
 16 15  1  0
 17 18  1  0
 17 16  1  6
 18 13  1  0
 19 17  1  0
 20 19  2  0
 22 21  1  1
 22 24  1  0
 23 22  1  0
 24 26  1  0
 24 25  1  1
 25 19  1  0
 26 28  1  0
 27 26  2  0
M  END
$$$$
