MVN.pdb
     RDKit          3D

 24 23  0  0  1  0  0  0  0  0999 V2000
   26.3227  -19.7034  -19.7313 C   0  0  0  0  0  0  0  0  0  0  0  0
   27.9174  -19.6232  -18.9403 S   0  0  0  0  0  0  0  0  0  0  0  0
   27.9733  -19.2995  -17.2157 C   0  0  0  0  0  0  0  0  0  0  0  0
   27.0846  -20.0973  -16.3642 C   0  0  0  0  0  0  0  0  0  0  0  0
   27.6699  -20.9146  -15.2773 C   0  0  2  0  0  0  0  0  0  0  0  0
   28.3162  -22.0822  -15.8324 N   0  0  0  0  0  0  0  0  0  0  0  0
   26.5353  -21.3995  -14.4341 C   0  0  0  0  0  0  0  0  0  0  0  0
   26.0010  -22.4871  -14.7044 O   0  0  0  0  0  0  0  0  0  0  0  0
   24.3283  -20.6423  -10.0684 C   0  0  0  0  0  0  0  0  0  0  0  0
   25.4672  -20.5990  -11.0623 C   0  0  1  0  0  0  0  0  0  0  0  0
   26.7243  -21.2159  -10.5205 C   0  0  0  0  0  0  0  0  0  0  0  0
   25.0715  -21.0404  -12.4241 C   0  0  2  0  0  0  0  0  0  0  0  0
   26.1100  -20.5945  -13.3514 N   0  0  0  0  0  0  0  0  0  0  0  0
   23.7761  -20.5824  -12.9033 C   0  0  0  0  0  0  0  0  0  0  0  0
   23.6236  -19.3501  -13.1087 O   0  0  0  0  0  0  0  0  0  0  0  0
   19.0283  -19.8353  -14.5927 N   0  0  0  0  0  0  0  0  0  0  0  0
   19.4466  -21.1181  -15.0182 C   0  0  0  0  0  0  0  0  0  0  0  0
   18.6630  -21.7308  -15.8286 O   0  0  0  0  0  0  0  0  0  0  0  0
   20.7088  -21.7441  -14.5768 C   0  0  0  0  0  0  0  0  0  0  0  0
   21.4379  -20.8110  -13.6497 C   0  0  2  0  0  0  0  0  0  0  0  0
   22.6674  -21.4176  -13.1587 N   0  0  0  0  0  0  0  0  0  0  0  0
   20.5645  -20.5990  -12.4656 C   0  0  0  0  0  0  0  0  0  0  0  0
   19.7301  -19.6726  -12.3391 O   0  0  0  0  0  0  0  0  0  0  0  0
   20.6802  -21.5047  -11.4042 O   0  0  0  0  0  0  0  0  0  0  0  0
  1  2  1  0
  3  2  1  0
  4  3  1  0
  5  4  1  0
  5  6  1  6
  7  8  2  0
  7  5  1  0
 10  9  1  1
 10 12  1  0
 11 10  1  0
 12 13  1  6
 13  7  1  0
 14 21  1  0
 14 12  1  0
 15 14  2  0
 17 16  1  0
 17 19  1  0
 18 17  2  0
 20 19  1  6
 20 21  1  0
 22 20  1  0
 23 22  2  0
 24 22  1  0
M  END
$$$$
