MVN.pdb
     RDKit          3D

 24 23  0  0  1  0  0  0  0  0999 V2000
   15.2062  -15.3507  -18.7952 C   0  0  0  0  0  0  0  0  0  0  0  0
   16.0535  -14.3565  -17.5834 S   0  0  0  0  0  0  0  0  0  0  0  0
   17.0304  -13.0118  -18.1490 C   0  0  0  0  0  0  0  0  0  0  0  0
   17.6808  -12.1896  -17.1231 C   0  0  0  0  0  0  0  0  0  0  0  0
   18.5110  -11.0377  -17.5421 C   0  0  2  0  0  0  0  0  0  0  0  0
   19.6045  -11.4938  -18.3699 N   0  0  0  0  0  0  0  0  0  0  0  0
   19.1108  -10.4562  -16.3029 C   0  0  0  0  0  0  0  0  0  0  0  0
   18.3840  -10.2470  -15.3183 O   0  0  0  0  0  0  0  0  0  0  0  0
   23.2927  -10.2737  -16.2242 C   0  0  0  0  0  0  0  0  0  0  0  0
   22.4593  -10.2585  -14.9625 C   0  0  1  0  0  0  0  0  0  0  0  0
   23.2533   -9.8472  -13.7563 C   0  0  0  0  0  0  0  0  0  0  0  0
   21.1522   -9.5744  -15.1337 C   0  0  2  0  0  0  0  0  0  0  0  0
   20.4951  -10.1642  -16.2988 N   0  0  0  0  0  0  0  0  0  0  0  0
   21.1930   -8.1283  -15.2908 C   0  0  0  0  0  0  0  0  0  0  0  0
   21.5476   -7.6644  -16.4057 O   0  0  0  0  0  0  0  0  0  0  0  0
   21.2753   -3.0461  -14.9291 N   0  0  0  0  0  0  0  0  0  0  0  0
   19.9882   -3.5956  -14.7218 C   0  0  0  0  0  0  0  0  0  0  0  0
   19.0050   -2.7729  -14.7717 O   0  0  0  0  0  0  0  0  0  0  0  0
   19.7542   -5.0303  -14.4637 C   0  0  0  0  0  0  0  0  0  0  0  0
   21.0552   -5.7789  -14.5573 C   0  0  2  0  0  0  0  0  0  0  0  0
   20.8632   -7.1963  -14.2835 N   0  0  0  0  0  0  0  0  0  0  0  0
   21.9409   -5.2536  -13.4851 C   0  0  0  0  0  0  0  0  0  0  0  0
   22.0725   -5.7564  -12.3448 O   0  0  0  0  0  0  0  0  0  0  0  0
   22.6900   -4.1050  -13.7680 O   0  0  0  0  0  0  0  0  0  0  0  0
  1  2  1  0
  3  2  1  0
  4  3  1  0
  5  4  1  0
  5  6  1  6
  7  8  2  0
  7  5  1  0
 10  9  1  6
 10 12  1  0
 11 10  1  0
 12 13  1  6
 13  7  1  0
 14 21  1  0
 14 12  1  0
 15 14  2  0
 17 16  1  0
 17 19  1  0
 18 17  2  0
 20 19  1  1
 20 21  1  0
 22 20  1  0
 23 22  2  0
 24 22  1  0
M  END
$$$$
