MVN.pdb
     RDKit          3D

 24 23  0  0  1  0  0  0  0  0999 V2000
   16.3893  -14.8724  -15.9723 C   0  0  0  0  0  0  0  0  0  0  0  0
   16.6902  -14.6044  -17.7080 S   0  0  0  0  0  0  0  0  0  0  0  0
   17.9199  -13.4384  -18.1671 C   0  0  0  0  0  0  0  0  0  0  0  0
   18.2096  -12.3698  -17.2052 C   0  0  0  0  0  0  0  0  0  0  0  0
   19.1811  -11.3142  -17.5713 C   0  0  2  0  0  0  0  0  0  0  0  0
   20.3420  -11.9080  -18.1948 N   0  0  0  0  0  0  0  0  0  0  0  0
   19.6413  -10.6817  -16.2980 C   0  0  0  0  0  0  0  0  0  0  0  0
   18.8101  -10.4316  -15.4103 O   0  0  0  0  0  0  0  0  0  0  0  0
   22.6447  -11.9041  -14.2245 C   0  0  0  0  0  0  0  0  0  0  0  0
   22.8250  -10.4523  -14.6075 C   0  0  1  0  0  0  0  0  0  0  0  0
   23.9380  -10.2544  -15.5957 C   0  0  0  0  0  0  0  0  0  0  0  0
   21.5466   -9.7716  -14.9364 C   0  0  2  0  0  0  0  0  0  0  0  0
   21.0178  -10.3897  -16.1511 N   0  0  0  0  0  0  0  0  0  0  0  0
   21.6092   -8.3299  -15.1238 C   0  0  0  0  0  0  0  0  0  0  0  0
   22.0086   -7.8949  -16.2351 O   0  0  0  0  0  0  0  0  0  0  0  0
   21.6132   -3.2752  -15.0998 N   0  0  0  0  0  0  0  0  0  0  0  0
   20.3296   -3.8662  -15.0304 C   0  0  0  0  0  0  0  0  0  0  0  0
   19.3331   -3.0848  -15.2365 O   0  0  0  0  0  0  0  0  0  0  0  0
   20.1138   -5.2981  -14.7428 C   0  0  0  0  0  0  0  0  0  0  0  0
   21.4343   -5.9615  -14.4631 C   0  0  2  0  0  0  0  0  0  0  0  0
   21.2542   -7.3722  -14.1497 N   0  0  0  0  0  0  0  0  0  0  0  0
   21.9963   -5.3222  -13.2443 C   0  0  0  0  0  0  0  0  0  0  0  0
   22.0597   -5.8553  -12.1120 O   0  0  0  0  0  0  0  0  0  0  0  0
   22.4958   -4.0200  -13.3670 O   0  0  0  0  0  0  0  0  0  0  0  0
  1  2  1  0
  3  2  1  0
  4  3  1  0
  5  4  1  0
  5  6  1  1
  7  8  2  0
  7  5  1  0
 10  9  1  6
 10 12  1  0
 11 10  1  0
 12 13  1  6
 13  7  1  0
 14 21  1  0
 14 12  1  0
 15 14  2  0
 17 16  1  0
 17 19  1  0
 18 17  2  0
 20 19  1  1
 20 21  1  0
 22 20  1  0
 23 22  2  0
 24 22  1  0
M  END
$$$$
