MVN.pdb
     RDKit          3D

 24 23  0  0  1  0  0  0  0  0999 V2000
   23.3833  -13.9521  -22.0334 C   0  0  0  0  0  0  0  0  0  0  0  0
   22.9384  -13.1523  -20.5046 S   0  0  0  0  0  0  0  0  0  0  0  0
   21.3572  -12.3977  -20.3919 C   0  0  0  0  0  0  0  0  0  0  0  0
   21.0374  -11.7179  -19.1321 C   0  0  0  0  0  0  0  0  0  0  0  0
   21.6836  -12.1764  -17.8815 C   0  0  2  0  0  0  0  0  0  0  0  0
   21.1550  -13.4658  -17.4978 N   0  0  0  0  0  0  0  0  0  0  0  0
   21.3003  -11.2078  -16.8098 C   0  0  0  0  0  0  0  0  0  0  0  0
   20.1769  -11.2942  -16.2883 O   0  0  0  0  0  0  0  0  0  0  0  0
   22.9541  -10.5287  -13.5101 C   0  0  0  0  0  0  0  0  0  0  0  0
   23.0236   -9.2955  -14.3825 C   0  0  1  0  0  0  0  0  0  0  0  0
   24.4087   -9.0386  -14.9022 C   0  0  0  0  0  0  0  0  0  0  0  0
   21.9375   -9.2329  -15.3936 C   0  0  2  0  0  0  0  0  0  0  0  0
   22.2397  -10.2216  -16.4272 N   0  0  0  0  0  0  0  0  0  0  0  0
   21.7107   -7.9404  -16.0223 C   0  0  0  0  0  0  0  0  0  0  0  0
   22.1472   -7.7660  -17.1898 O   0  0  0  0  0  0  0  0  0  0  0  0
   19.9034   -4.6417  -19.4904 N   0  0  0  0  0  0  0  0  0  0  0  0
   19.4673   -4.8708  -18.1641 C   0  0  0  0  0  0  0  0  0  0  0  0
   18.7249   -3.9620  -17.6457 O   0  0  0  0  0  0  0  0  0  0  0  0
   19.8251   -6.0781  -17.3932 C   0  0  0  0  0  0  0  0  0  0  0  0
   20.7135   -5.6966  -16.2412 C   0  0  2  0  0  0  0  0  0  0  0  0
   21.0338   -6.8572  -15.4218 N   0  0  0  0  0  0  0  0  0  0  0  0
   19.9377   -4.7668  -15.3789 C   0  0  0  0  0  0  0  0  0  0  0  0
   18.9646   -5.0905  -14.6587 O   0  0  0  0  0  0  0  0  0  0  0  0
   20.3218   -3.4204  -15.3676 O   0  0  0  0  0  0  0  0  0  0  0  0
  1  2  1  0
  3  2  1  0
  4  3  1  0
  5  4  1  0
  5  6  1  1
  7  8  2  0
  7  5  1  0
 10  9  1  6
 10 12  1  0
 11 10  1  0
 12 13  1  6
 13  7  1  0
 14 21  1  0
 14 12  1  0
 15 14  2  0
 17 16  1  0
 17 19  1  0
 18 17  2  0
 20 19  1  6
 20 21  1  0
 22 20  1  0
 23 22  2  0
 24 22  1  0
M  END
$$$$
