MVN.pdb
     RDKit          3D

 24 23  0  0  1  0  0  0  0  0999 V2000
   22.0178  -24.7163  -15.7121 C   0  0  0  0  0  0  0  0  0  0  0  0
   20.4269  -23.9287  -15.8654 S   0  0  0  0  0  0  0  0  0  0  0  0
   20.1083  -22.5041  -14.8899 C   0  0  0  0  0  0  0  0  0  0  0  0
   21.2754  -21.7495  -14.4209 C   0  0  0  0  0  0  0  0  0  0  0  0
   21.5296  -21.6457  -12.9661 C   0  0  2  0  0  0  0  0  0  0  0  0
   20.4051  -21.0145  -12.3133 N   0  0  0  0  0  0  0  0  0  0  0  0
   22.7050  -20.7398  -12.7903 C   0  0  0  0  0  0  0  0  0  0  0  0
   22.5321  -19.5106  -12.8160 O   0  0  0  0  0  0  0  0  0  0  0  0
   24.9381  -20.4958   -9.9666 C   0  0  0  0  0  0  0  0  0  0  0  0
   25.8069  -20.8490  -11.1529 C   0  0  1  0  0  0  0  0  0  0  0  0
   26.3776  -22.2342  -11.0528 C   0  0  0  0  0  0  0  0  0  0  0  0
   25.1840  -20.5047  -12.4565 C   0  0  2  0  0  0  0  0  0  0  0  0
   23.9803  -21.3219  -12.5996 N   0  0  0  0  0  0  0  0  0  0  0  0
   26.0172  -20.6727  -13.6376 C   0  0  0  0  0  0  0  0  0  0  0  0
   25.8727  -21.7210  -14.3189 O   0  0  0  0  0  0  0  0  0  0  0  0
   29.6670  -22.6405  -16.9188 N   0  0  0  0  0  0  0  0  0  0  0  0
   28.5418  -21.7936  -16.7835 C   0  0  0  0  0  0  0  0  0  0  0  0
   28.1029  -21.2560  -17.8625 O   0  0  0  0  0  0  0  0  0  0  0  0
   27.8837  -21.5249  -15.4894 C   0  0  0  0  0  0  0  0  0  0  0  0
   27.7199  -20.0414  -15.3046 C   0  0  2  0  0  0  0  0  0  0  0  0
   26.9828  -19.7452  -14.0841 N   0  0  0  0  0  0  0  0  0  0  0  0
   26.8894  -19.5483  -16.4347 C   0  0  0  0  0  0  0  0  0  0  0  0
   27.1041  -18.4995  -17.0861 O   0  0  0  0  0  0  0  0  0  0  0  0
   25.7771  -20.3142  -16.8042 O   0  0  0  0  0  0  0  0  0  0  0  0
  1  2  1  0
  3  2  1  0
  4  3  1  0
  5  4  1  0
  5  6  1  1
  7  8  2  0
  7  5  1  0
 10  9  1  1
 10 12  1  0
 11 10  1  0
 12 13  1  6
 13  7  1  0
 14 21  1  0
 14 12  1  0
 15 14  2  0
 17 16  1  0
 17 19  1  0
 18 17  2  0
 20 19  1  6
 20 21  1  0
 22 20  1  0
 23 22  2  0
 24 22  1  0
M  END
$$$$
