MVN.pdb
     RDKit          3D

 24 23  0  0  1  0  0  0  0  0999 V2000
   29.3167   -9.3512  -16.2371 C   0  0  0  0  0  0  0  0  0  0  0  0
   29.4095  -10.7252  -17.3679 S   0  0  0  0  0  0  0  0  0  0  0  0
   27.9998  -11.7580  -17.5369 C   0  0  0  0  0  0  0  0  0  0  0  0
   27.1108  -11.8586  -16.3746 C   0  0  0  0  0  0  0  0  0  0  0  0
   25.8819  -12.6779  -16.4759 C   0  0  2  0  0  0  0  0  0  0  0  0
   26.0907  -13.7666  -17.4033 N   0  0  0  0  0  0  0  0  0  0  0  0
   24.8188  -11.8031  -17.0573 C   0  0  0  0  0  0  0  0  0  0  0  0
   24.6826  -11.7527  -18.2903 O   0  0  0  0  0  0  0  0  0  0  0  0
   21.7948  -12.2902  -17.6880 C   0  0  0  0  0  0  0  0  0  0  0  0
   21.6799  -11.1753  -16.6729 C   0  0  1  0  0  0  0  0  0  0  0  0
   21.2174  -11.6671  -15.3317 C   0  0  0  0  0  0  0  0  0  0  0  0
   22.8634  -10.2781  -16.6538 C   0  0  2  0  0  0  0  0  0  0  0  0
   24.0016  -11.0598  -16.1735 N   0  0  0  0  0  0  0  0  0  0  0  0
   22.7461   -9.0671  -15.8556 C   0  0  0  0  0  0  0  0  0  0  0  0
   23.0391   -9.1338  -14.6335 O   0  0  0  0  0  0  0  0  0  0  0  0
   21.4845   -3.1205  -15.3412 N   0  0  0  0  0  0  0  0  0  0  0  0
   22.3308   -4.2497  -15.2398 C   0  0  0  0  0  0  0  0  0  0  0  0
   23.1557   -4.2543  -14.2571 O   0  0  0  0  0  0  0  0  0  0  0  0
   22.2907   -5.3777  -16.1915 C   0  0  0  0  0  0  0  0  0  0  0  0
   22.3110   -6.6775  -15.4352 C   0  0  2  0  0  0  0  0  0  0  0  0
   22.3264   -7.8125  -16.3474 N   0  0  0  0  0  0  0  0  0  0  0  0
   21.0376   -6.7605  -14.6726 C   0  0  0  0  0  0  0  0  0  0  0  0
   19.9623   -7.2326  -15.1098 O   0  0  0  0  0  0  0  0  0  0  0  0
   21.0352   -6.2731  -13.3600 O   0  0  0  0  0  0  0  0  0  0  0  0
  1  2  1  0
  3  2  1  0
  4  3  1  0
  5  4  1  0
  5  6  1  6
  7  8  2  0
  7  5  1  0
 10  9  1  6
 10 12  1  0
 11 10  1  0
 12 13  1  1
 13  7  1  0
 14 21  1  0
 14 12  1  0
 15 14  2  0
 17 16  1  0
 17 19  1  0
 18 17  2  0
 20 19  1  6
 20 21  1  0
 22 20  1  0
 23 22  2  0
 24 22  1  0
M  END
$$$$
