MVN.pdb
     RDKit          3D

 24 23  0  0  1  0  0  0  0  0999 V2000
   17.5227  -15.2551  -13.8846 C   0  0  0  0  0  0  0  0  0  0  0  0
   17.4124  -13.4978  -13.6113 S   0  0  0  0  0  0  0  0  0  0  0  0
   16.1646  -12.9026  -12.5291 C   0  0  0  0  0  0  0  0  0  0  0  0
   16.0791  -11.4487  -12.3547 C   0  0  0  0  0  0  0  0  0  0  0  0
   15.0344  -10.8894  -11.4673 C   0  0  2  0  0  0  0  0  0  0  0  0
   13.7255  -11.2782  -11.9412 N   0  0  0  0  0  0  0  0  0  0  0  0
   15.1172   -9.4013  -11.5768 C   0  0  0  0  0  0  0  0  0  0  0  0
   14.5855   -8.8343  -12.5449 O   0  0  0  0  0  0  0  0  0  0  0  0
   13.6747   -6.9127   -9.3578 C   0  0  0  0  0  0  0  0  0  0  0  0
   15.1794   -6.7705   -9.3080 C   0  0  1  0  0  0  0  0  0  0  0  0
   15.7621   -7.2920   -8.0263 C   0  0  0  0  0  0  0  0  0  0  0  0
   15.8511   -7.2284  -10.5510 C   0  0  2  0  0  0  0  0  0  0  0  0
   15.8038   -8.6895  -10.5652 N   0  0  0  0  0  0  0  0  0  0  0  0
   17.2267   -6.7943  -10.7423 C   0  0  0  0  0  0  0  0  0  0  0  0
   18.1344   -7.4221  -10.1373 O   0  0  0  0  0  0  0  0  0  0  0  0
   21.6795   -5.1649  -12.5824 N   0  0  0  0  0  0  0  0  0  0  0  0
   21.0373   -6.3811  -12.9144 C   0  0  0  0  0  0  0  0  0  0  0  0
   21.7452   -7.2416  -13.5504 O   0  0  0  0  0  0  0  0  0  0  0  0
   19.6346   -6.6768  -12.5612 C   0  0  0  0  0  0  0  0  0  0  0  0
   19.0500   -5.5177  -11.8019 C   0  0  2  0  0  0  0  0  0  0  0  0
   17.6277   -5.7159  -11.5597 N   0  0  0  0  0  0  0  0  0  0  0  0
   19.1714   -4.3183  -12.6717 C   0  0  0  0  0  0  0  0  0  0  0  0
   18.2275   -3.7776  -13.2938 O   0  0  0  0  0  0  0  0  0  0  0  0
   20.4406   -3.7434  -12.8096 O   0  0  0  0  0  0  0  0  0  0  0  0
  1  2  1  0
  3  2  1  0
  4  3  1  0
  5  4  1  0
  5  6  1  6
  7  8  2  0
  7  5  1  0
 10  9  1  6
 10 12  1  0
 11 10  1  0
 12 13  1  1
 13  7  1  0
 14 21  1  0
 14 12  1  0
 15 14  2  0
 17 16  1  0
 17 19  1  0
 18 17  2  0
 20 19  1  6
 20 21  1  0
 22 20  1  0
 23 22  2  0
 24 22  1  0
M  END
$$$$
