MVN.pdb
     RDKit          3D

 24 23  0  0  1  0  0  0  0  0999 V2000
   27.3835  -12.8985  -14.9217 C   0  0  0  0  0  0  0  0  0  0  0  0
   26.7886  -14.5745  -14.8113 S   0  0  0  0  0  0  0  0  0  0  0  0
   25.2685  -14.9693  -15.5961 C   0  0  0  0  0  0  0  0  0  0  0  0
   24.4500  -13.8426  -16.0564 C   0  0  0  0  0  0  0  0  0  0  0  0
   23.1690  -14.1167  -16.7461 C   0  0  2  0  0  0  0  0  0  0  0  0
   23.3817  -15.0523  -17.8270 N   0  0  0  0  0  0  0  0  0  0  0  0
   22.7182  -12.8310  -17.3602 C   0  0  0  0  0  0  0  0  0  0  0  0
   23.3254  -12.3848  -18.3469 O   0  0  0  0  0  0  0  0  0  0  0  0
   18.9211  -12.0956  -17.2790 C   0  0  0  0  0  0  0  0  0  0  0  0
   19.8462  -11.1726  -18.0398 C   0  0  1  0  0  0  0  0  0  0  0  0
   19.1336   -9.9682  -18.5840 C   0  0  0  0  0  0  0  0  0  0  0  0
   21.1163  -10.8959  -17.3213 C   0  0  2  0  0  0  0  0  0  0  0  0
   21.6077  -12.1659  -16.7893 N   0  0  0  0  0  0  0  0  0  0  0  0
   21.0522   -9.9206  -16.2432 C   0  0  0  0  0  0  0  0  0  0  0  0
   20.7278  -10.3267  -15.0970 O   0  0  0  0  0  0  0  0  0  0  0  0
   22.6396   -4.7722  -13.8487 N   0  0  0  0  0  0  0  0  0  0  0  0
   22.4643   -6.1716  -13.7367 C   0  0  0  0  0  0  0  0  0  0  0  0
   22.1765   -6.6158  -12.5680 O   0  0  0  0  0  0  0  0  0  0  0  0
   22.5945   -7.0963  -14.8802 C   0  0  0  0  0  0  0  0  0  0  0  0
   21.2529   -7.6964  -15.1996 C   0  0  2  0  0  0  0  0  0  0  0  0
   21.3276   -8.5434  -16.3819 N   0  0  0  0  0  0  0  0  0  0  0  0
   20.3396   -6.5730  -15.5367 C   0  0  0  0  0  0  0  0  0  0  0  0
   19.7854   -5.8171  -14.7049 O   0  0  0  0  0  0  0  0  0  0  0  0
   20.0745   -6.3371  -16.8911 O   0  0  0  0  0  0  0  0  0  0  0  0
  1  2  1  0
  3  2  1  0
  4  3  1  0
  5  4  1  0
  5  6  1  6
  7  8  2  0
  7  5  1  0
 10  9  1  1
 10 12  1  0
 11 10  1  0
 12 13  1  1
 13  7  1  0
 14 21  1  0
 14 12  1  0
 15 14  2  0
 17 16  1  0
 17 19  1  0
 18 17  2  0
 20 19  1  6
 20 21  1  0
 22 20  1  0
 23 22  2  0
 24 22  1  0
M  END
$$$$
