INF.pdb
     RDKit          3D

 28 28  0  0  1  0  0  0  0  0999 V2000
   24.0977  -23.3789  -18.3547 C   0  0  0  0  0  0  0  0  0  0  0  0
   24.9245  -23.9116  -17.2152 C   0  0  0  0  0  0  0  0  0  0  0  0
   25.2253  -22.7982  -16.2659 C   0  0  2  0  0  0  0  0  0  0  0  0
   25.8533  -21.6747  -17.0279 C   0  0  0  0  0  0  0  0  0  0  0  0
   26.0476  -23.2517  -15.0812 C   0  0  2  0  0  0  0  0  0  0  0  0
   25.4160  -24.4171  -14.5311 N   0  0  0  0  0  0  0  0  0  0  0  0
   26.0748  -22.1238  -14.0853 C   0  0  0  0  0  0  0  0  0  0  0  0
   26.5215  -21.0078  -14.4605 O   0  0  0  0  0  0  0  0  0  0  0  0
   24.5806  -19.3238  -13.8689 N   0  0  0  0  0  0  0  0  0  0  0  0
   23.5146  -19.8560  -13.0640 C   0  0  0  0  0  0  0  0  0  0  0  0
   22.3767  -19.4081  -13.2964 O   0  0  0  0  0  0  0  0  0  0  0  0
   23.8142  -20.8754  -12.0345 C   0  0  0  0  0  0  0  0  0  0  0  0
   25.2815  -21.1828  -11.9356 C   0  0  2  0  0  0  0  0  0  0  0  0
   25.6102  -22.3185  -12.7660 N   0  0  0  0  0  0  0  0  0  0  0  0
   25.7983  -21.3297  -10.5599 C   0  0  0  0  0  0  0  0  0  0  0  0
   25.5333  -22.3632   -9.9002 O   0  0  0  0  0  0  0  0  0  0  0  0
   26.5996  -20.3475   -9.9166 N   0  0  0  0  0  0  0  0  0  0  0  0
   27.0154  -20.4259   -8.5361 C   0  0  1  0  0  0  0  0  0  0  0  0
   28.0908  -19.4092   -8.2114 C   0  0  0  0  0  0  0  0  0  0  0  0
   28.5063  -19.4347   -6.8144 C   0  0  0  0  0  0  0  0  0  0  0  0
   27.9136  -18.6199   -5.8806 C   0  0  0  0  0  0  0  0  0  0  0  0
   28.2952  -18.6324   -4.5558 C   0  0  0  0  0  0  0  0  0  0  0  0
   29.2883  -19.4661   -4.1219 C   0  0  0  0  0  0  0  0  0  0  0  0
   29.9002  -20.2946   -5.0387 C   0  0  0  0  0  0  0  0  0  0  0  0
   29.5047  -20.2739   -6.3821 C   0  0  0  0  0  0  0  0  0  0  0  0
   25.8704  -20.3371   -7.6025 C   0  0  0  0  0  0  0  0  0  0  0  0
   25.7867  -21.1488   -6.4812 O   0  0  0  0  0  0  0  0  0  0  0  0
   24.9318  -19.5227   -7.7919 O   0  0  0  0  0  0  0  0  0  0  0  0
  2  1  1  0
  3  4  1  6
  3  5  1  0
  3  2  1  0
  5  6  1  1
  7  5  1  0
  7  8  2  0
  9 10  1  0
 10 12  1  0
 11 10  2  0
 13 12  1  1
 13 14  1  0
 14  7  1  0
 15 13  1  0
 16 15  2  0
 17 15  1  0
 18 17  1  0
 18 26  1  0
 18 19  1  1
 20 25  2  0
 20 19  1  0
 21 20  1  0
 22 23  1  0
 22 21  2  0
 23 24  2  0
 24 25  1  0
 26 27  1  0
 28 26  2  0
M  END
$$$$
