INF.pdb
     RDKit          3D

 28 28  0  0  1  0  0  0  0  0999 V2000
   36.9038  -29.6696  -20.8937 C   0  0  0  0  0  0  0  0  0  0  0  0
   35.5274  -29.6531  -21.5027 C   0  0  0  0  0  0  0  0  0  0  0  0
   34.5669  -29.0564  -20.5267 C   0  0  2  0  0  0  0  0  0  0  0  0
   35.1247  -27.7574  -20.0380 C   0  0  0  0  0  0  0  0  0  0  0  0
   34.2050  -30.0104  -19.4112 C   0  0  2  0  0  0  0  0  0  0  0  0
   33.9469  -31.2936  -19.9999 N   0  0  0  0  0  0  0  0  0  0  0  0
   32.9803  -29.4678  -18.7254 C   0  0  0  0  0  0  0  0  0  0  0  0
   33.0508  -28.3295  -18.1916 O   0  0  0  0  0  0  0  0  0  0  0  0
   28.7018  -27.1302  -17.2181 N   0  0  0  0  0  0  0  0  0  0  0  0
   28.6328  -28.3127  -18.0335 C   0  0  0  0  0  0  0  0  0  0  0  0
   27.5242  -28.8759  -18.0888 O   0  0  0  0  0  0  0  0  0  0  0  0
   29.8430  -28.7842  -18.7420 C   0  0  0  0  0  0  0  0  0  0  0  0
   30.6536  -29.7479  -17.9227 C   0  0  2  0  0  0  0  0  0  0  0  0
   31.7862  -30.2208  -18.6849 N   0  0  0  0  0  0  0  0  0  0  0  0
   29.8856  -30.8559  -17.3195 C   0  0  0  0  0  0  0  0  0  0  0  0
   30.1223  -32.0391  -17.6624 O   0  0  0  0  0  0  0  0  0  0  0  0
   28.8664  -30.6627  -16.3476 N   0  0  0  0  0  0  0  0  0  0  0  0
   28.0901  -31.7349  -15.7712 C   0  0  1  0  0  0  0  0  0  0  0  0
   28.6612  -32.1970  -14.4460 C   0  0  0  0  0  0  0  0  0  0  0  0
   27.9039  -33.2845  -13.8388 C   0  0  0  0  0  0  0  0  0  0  0  0
   27.9698  -34.5628  -14.3376 C   0  0  0  0  0  0  0  0  0  0  0  0
   27.2597  -35.6019  -13.7746 C   0  0  0  0  0  0  0  0  0  0  0  0
   26.4566  -35.3923  -12.6881 C   0  0  0  0  0  0  0  0  0  0  0  0
   26.3722  -34.1183  -12.1673 C   0  0  0  0  0  0  0  0  0  0  0  0
   27.0978  -33.0699  -12.7470 C   0  0  0  0  0  0  0  0  0  0  0  0
   26.6548  -31.3898  -15.6645 C   0  0  0  0  0  0  0  0  0  0  0  0
   25.7006  -32.3493  -15.3616 O   0  0  0  0  0  0  0  0  0  0  0  0
   26.2482  -30.2140  -15.8446 O   0  0  0  0  0  0  0  0  0  0  0  0
  2  1  1  0
  3  4  1  1
  3  5  1  0
  3  2  1  0
  5  6  1  6
  7  5  1  0
  7  8  2  0
  9 10  1  0
 10 12  1  0
 11 10  2  0
 13 12  1  6
 13 14  1  0
 14  7  1  0
 15 13  1  0
 16 15  2  0
 17 15  1  0
 18 17  1  0
 18 26  1  0
 18 19  1  1
 20 25  2  0
 20 19  1  0
 21 20  1  0
 22 23  1  0
 22 21  2  0
 23 24  2  0
 24 25  1  0
 26 27  1  0
 28 26  2  0
M  END
$$$$
