INF.pdb
     RDKit          3D

 28 28  0  0  1  0  0  0  0  0999 V2000
   28.8824  -19.6883   -3.5119 C   0  0  0  0  0  0  0  0  0  0  0  0
   28.5438  -18.9257   -4.7648 C   0  0  0  0  0  0  0  0  0  0  0  0
   27.9542  -19.8648   -5.7656 C   0  0  2  0  0  0  0  0  0  0  0  0
   28.8432  -21.0621   -5.8816 C   0  0  0  0  0  0  0  0  0  0  0  0
   27.6724  -19.1973   -7.0924 C   0  0  2  0  0  0  0  0  0  0  0  0
   26.8907  -18.0220   -6.8331 N   0  0  0  0  0  0  0  0  0  0  0  0
   26.9162  -20.1789   -7.9463 C   0  0  0  0  0  0  0  0  0  0  0  0
   27.4652  -21.2788   -8.2190 O   0  0  0  0  0  0  0  0  0  0  0  0
   23.8810  -22.4342   -7.0217 N   0  0  0  0  0  0  0  0  0  0  0  0
   23.2960  -21.2311   -7.5490 C   0  0  0  0  0  0  0  0  0  0  0  0
   22.6380  -20.5445   -6.7459 O   0  0  0  0  0  0  0  0  0  0  0  0
   23.4992  -20.8818   -8.9722 C   0  0  0  0  0  0  0  0  0  0  0  0
   24.9520  -20.7657   -9.3369 C   0  0  2  0  0  0  0  0  0  0  0  0
   25.6247  -19.8684   -8.4260 N   0  0  0  0  0  0  0  0  0  0  0  0
   25.2169  -20.4277  -10.7500 C   0  0  0  0  0  0  0  0  0  0  0  0
   25.1528  -19.2336  -11.1291 O   0  0  0  0  0  0  0  0  0  0  0  0
   25.5494  -21.3956  -11.7364 N   0  0  0  0  0  0  0  0  0  0  0  0
   25.8299  -21.0754  -13.1161 C   0  0  1  0  0  0  0  0  0  0  0  0
   27.1024  -21.7384  -13.6027 C   0  0  0  0  0  0  0  0  0  0  0  0
   28.3038  -21.2274  -12.9543 C   0  0  0  0  0  0  0  0  0  0  0  0
   28.6884  -19.9167  -13.1000 C   0  0  0  0  0  0  0  0  0  0  0  0
   29.8217  -19.4183  -12.4934 C   0  0  0  0  0  0  0  0  0  0  0  0
   30.6102  -20.2216  -11.7173 C   0  0  0  0  0  0  0  0  0  0  0  0
   30.2471  -21.5418  -11.5544 C   0  0  0  0  0  0  0  0  0  0  0  0
   29.0938  -22.0378  -12.1751 C   0  0  0  0  0  0  0  0  0  0  0  0
   24.6805  -21.3677  -14.0016 C   0  0  0  0  0  0  0  0  0  0  0  0
   24.6269  -20.8852  -15.3005 O   0  0  0  0  0  0  0  0  0  0  0  0
   23.7107  -22.0642  -13.6085 O   0  0  0  0  0  0  0  0  0  0  0  0
  2  1  1  0
  3  4  1  6
  3  5  1  0
  3  2  1  0
  5  6  1  1
  7  5  1  0
  7  8  2  0
  9 10  1  0
 10 12  1  0
 11 10  2  0
 13 12  1  6
 13 14  1  0
 14  7  1  0
 15 13  1  0
 16 15  2  0
 17 15  1  0
 18 17  1  0
 18 26  1  0
 18 19  1  6
 20 25  2  0
 20 19  1  0
 21 20  1  0
 22 23  1  0
 22 21  2  0
 23 24  2  0
 24 25  1  0
 26 27  1  0
 28 26  2  0
M  END
$$$$
