INF.pdb
     RDKit          3D

 28 28  0  0  1  0  0  0  0  0999 V2000
   20.2818  -19.2207  -18.8625 C   0  0  0  0  0  0  0  0  0  0  0  0
   19.8163  -19.7988  -17.5530 C   0  0  0  0  0  0  0  0  0  0  0  0
   20.8659  -19.5690  -16.5153 C   0  0  2  0  0  0  0  0  0  0  0  0
   22.1837  -20.0245  -17.0570 C   0  0  0  0  0  0  0  0  0  0  0  0
   20.5154  -20.1974  -15.1859 C   0  0  2  0  0  0  0  0  0  0  0  0
   19.3026  -19.5874  -14.7202 N   0  0  0  0  0  0  0  0  0  0  0  0
   21.6567  -19.9345  -14.2410 C   0  0  0  0  0  0  0  0  0  0  0  0
   21.9127  -18.7406  -13.9328 O   0  0  0  0  0  0  0  0  0  0  0  0
   23.3205  -21.2273   -9.2570 N   0  0  0  0  0  0  0  0  0  0  0  0
   22.7999  -21.1609  -10.5958 C   0  0  0  0  0  0  0  0  0  0  0  0
   21.6609  -20.6737  -10.7170 O   0  0  0  0  0  0  0  0  0  0  0  0
   23.6175  -21.6584  -11.7240 C   0  0  0  0  0  0  0  0  0  0  0  0
   23.5859  -20.7375  -12.9107 C   0  0  2  0  0  0  0  0  0  0  0  0
   22.4170  -21.0031  -13.7171 N   0  0  0  0  0  0  0  0  0  0  0  0
   24.8242  -20.7113  -13.7151 C   0  0  0  0  0  0  0  0  0  0  0  0
   24.8648  -21.3069  -14.8184 O   0  0  0  0  0  0  0  0  0  0  0  0
   26.0068  -20.0356  -13.3085 N   0  0  0  0  0  0  0  0  0  0  0  0
   27.2287  -20.0179  -14.0774 C   0  0  1  0  0  0  0  0  0  0  0  0
   28.3618  -19.3532  -13.3225 C   0  0  0  0  0  0  0  0  0  0  0  0
   28.6400  -19.9753  -12.0339 C   0  0  0  0  0  0  0  0  0  0  0  0
   29.6839  -20.8547  -11.8787 C   0  0  0  0  0  0  0  0  0  0  0  0
   29.9600  -21.4512  -10.6668 C   0  0  0  0  0  0  0  0  0  0  0  0
   29.1948  -21.1842   -9.5656 C   0  0  0  0  0  0  0  0  0  0  0  0
   28.1404  -20.3048   -9.6936 C   0  0  0  0  0  0  0  0  0  0  0  0
   27.8688  -19.7044  -10.9294 C   0  0  0  0  0  0  0  0  0  0  0  0
   27.6027  -21.3655  -14.5620 C   0  0  0  0  0  0  0  0  0  0  0  0
   27.0016  -22.5085  -14.0569 O   0  0  0  0  0  0  0  0  0  0  0  0
   28.4789  -21.5232  -15.4494 O   0  0  0  0  0  0  0  0  0  0  0  0
  2  1  1  0
  3  4  1  6
  3  5  1  0
  3  2  1  0
  5  6  1  1
  7  5  1  0
  7  8  2  0
  9 10  1  0
 10 12  1  0
 11 10  2  0
 13 12  1  1
 13 14  1  0
 14  7  1  0
 15 13  1  0
 16 15  2  0
 17 15  1  0
 18 17  1  0
 18 26  1  0
 18 19  1  1
 20 25  2  0
 20 19  1  0
 21 20  1  0
 22 23  1  0
 22 21  2  0
 23 24  2  0
 24 25  1  0
 26 27  1  0
 28 26  2  0
M  END
$$$$
