INF.pdb
     RDKit          3D

 28 28  0  0  1  0  0  0  0  0999 V2000
   28.9606  -19.3634  -17.3106 C   0  0  0  0  0  0  0  0  0  0  0  0
   28.3448  -18.0166  -17.0408 C   0  0  0  0  0  0  0  0  0  0  0  0
   27.2587  -18.1688  -16.0267 C   0  0  2  0  0  0  0  0  0  0  0  0
   27.8724  -18.5717  -14.7235 C   0  0  0  0  0  0  0  0  0  0  0  0
   26.1620  -19.1023  -16.4863 C   0  0  2  0  0  0  0  0  0  0  0  0
   25.6827  -18.6242  -17.7517 N   0  0  0  0  0  0  0  0  0  0  0  0
   25.0751  -19.0776  -15.4458 C   0  0  0  0  0  0  0  0  0  0  0  0
   24.4935  -17.9844  -15.2169 O   0  0  0  0  0  0  0  0  0  0  0  0
   20.9019  -22.3408  -12.6486 N   0  0  0  0  0  0  0  0  0  0  0  0
   21.4288  -21.1190  -13.1936 C   0  0  0  0  0  0  0  0  0  0  0  0
   20.8701  -20.0693  -12.8256 O   0  0  0  0  0  0  0  0  0  0  0  0
   22.5707  -21.1696  -14.1329 C   0  0  0  0  0  0  0  0  0  0  0  0
   23.6730  -20.2216  -13.7542 C   0  0  2  0  0  0  0  0  0  0  0  0
   24.7213  -20.2532  -14.7478 N   0  0  0  0  0  0  0  0  0  0  0  0
   24.1982  -20.3886  -12.3840 C   0  0  0  0  0  0  0  0  0  0  0  0
   23.4696  -20.1197  -11.3989 O   0  0  0  0  0  0  0  0  0  0  0  0
   25.5135  -20.8475  -12.1012 N   0  0  0  0  0  0  0  0  0  0  0  0
   26.0700  -20.9263  -10.7713 C   0  0  1  0  0  0  0  0  0  0  0  0
   27.0551  -19.8067  -10.5037 C   0  0  0  0  0  0  0  0  0  0  0  0
   27.5950  -19.8242   -9.1497 C   0  0  0  0  0  0  0  0  0  0  0  0
   28.7056  -20.5692   -8.8360 C   0  0  0  0  0  0  0  0  0  0  0  0
   29.2283  -20.5962   -7.5604 C   0  0  0  0  0  0  0  0  0  0  0  0
   28.6516  -19.8736   -6.5531 C   0  0  0  0  0  0  0  0  0  0  0  0
   27.5354  -19.1169   -6.8407 C   0  0  0  0  0  0  0  0  0  0  0  0
   27.0127  -19.0967   -8.1399 C   0  0  0  0  0  0  0  0  0  0  0  0
   25.0203  -20.9998   -9.7305 C   0  0  0  0  0  0  0  0  0  0  0  0
   25.1414  -21.8471   -8.6394 O   0  0  0  0  0  0  0  0  0  0  0  0
   23.9804  -20.2968   -9.7975 O   0  0  0  0  0  0  0  0  0  0  0  0
  2  1  1  0
  3  4  1  1
  3  5  1  0
  3  2  1  0
  5  6  1  6
  7  5  1  0
  7  8  2  0
  9 10  1  0
 10 12  1  0
 11 10  2  0
 13 12  1  6
 13 14  1  0
 14  7  1  0
 15 13  1  0
 16 15  2  0
 17 15  1  0
 18 17  1  0
 18 26  1  0
 18 19  1  1
 20 25  2  0
 20 19  1  0
 21 20  1  0
 22 23  1  0
 22 21  2  0
 23 24  2  0
 24 25  1  0
 26 27  1  0
 28 26  2  0
M  END
$$$$
