INF.pdb
     RDKit          3D

 28 28  0  0  1  0  0  0  0  0999 V2000
   21.4123  -18.1661  -15.7623 C   0  0  0  0  0  0  0  0  0  0  0  0
   21.3950  -19.5010  -15.0671 C   0  0  0  0  0  0  0  0  0  0  0  0
   22.7799  -19.8389  -14.6208 C   0  0  2  0  0  0  0  0  0  0  0  0
   23.7097  -19.6815  -15.7818 C   0  0  0  0  0  0  0  0  0  0  0  0
   22.8633  -21.1993  -13.9668 C   0  0  2  0  0  0  0  0  0  0  0  0
   21.9057  -21.2302  -12.8983 N   0  0  0  0  0  0  0  0  0  0  0  0
   24.2655  -21.3721  -13.4487 C   0  0  0  0  0  0  0  0  0  0  0  0
   25.1773  -21.6420  -14.2743 O   0  0  0  0  0  0  0  0  0  0  0  0
   29.1490  -20.2890  -12.8244 N   0  0  0  0  0  0  0  0  0  0  0  0
   27.8048  -20.6917  -13.1386 C   0  0  0  0  0  0  0  0  0  0  0  0
   27.6817  -21.5134  -14.0654 O   0  0  0  0  0  0  0  0  0  0  0  0
   26.6737  -20.1279  -12.3695 C   0  0  0  0  0  0  0  0  0  0  0  0
   25.9126  -21.1762  -11.6088 C   0  0  2  0  0  0  0  0  0  0  0  0
   24.5450  -21.2337  -12.0713 N   0  0  0  0  0  0  0  0  0  0  0  0
   25.9999  -21.0688  -10.1384 C   0  0  0  0  0  0  0  0  0  0  0  0
   24.9521  -20.9647   -9.4565 O   0  0  0  0  0  0  0  0  0  0  0  0
   27.2296  -21.0760   -9.4254 N   0  0  0  0  0  0  0  0  0  0  0  0
   27.3325  -20.8992   -7.9962 C   0  0  1  0  0  0  0  0  0  0  0  0
   28.7735  -20.7770   -7.5442 C   0  0  0  0  0  0  0  0  0  0  0  0
   28.9091  -20.4408   -6.1323 C   0  0  0  0  0  0  0  0  0  0  0  0
   28.8430  -19.1381   -5.7014 C   0  0  0  0  0  0  0  0  0  0  0  0
   28.9693  -18.8039   -4.3698 C   0  0  0  0  0  0  0  0  0  0  0  0
   29.1670  -19.7696   -3.4223 C   0  0  0  0  0  0  0  0  0  0  0  0
   29.2374  -21.0857   -3.8277 C   0  0  0  0  0  0  0  0  0  0  0  0
   29.1078  -21.4140   -5.1830 C   0  0  0  0  0  0  0  0  0  0  0  0
   26.5037  -19.7725   -7.5122 C   0  0  0  0  0  0  0  0  0  0  0  0
   25.6946  -19.8981   -6.3930 O   0  0  0  0  0  0  0  0  0  0  0  0
   26.5029  -18.6603   -8.0980 O   0  0  0  0  0  0  0  0  0  0  0  0
  2  1  1  0
  3  4  1  6
  3  5  1  0
  3  2  1  0
  5  6  1  1
  7  5  1  0
  7  8  2  0
  9 10  1  0
 10 12  1  0
 11 10  2  0
 13 12  1  6
 13 14  1  0
 14  7  1  0
 15 13  1  0
 16 15  2  0
 17 15  1  0
 18 17  1  0
 18 26  1  0
 18 19  1  6
 20 25  2  0
 20 19  1  0
 21 20  1  0
 22 23  1  0
 22 21  2  0
 23 24  2  0
 24 25  1  0
 26 27  1  0
 28 26  2  0
M  END
$$$$
