INF.pdb
     RDKit          3D

 28 28  0  0  1  0  0  0  0  0999 V2000
   15.8889  -21.0927  -14.4957 C   0  0  0  0  0  0  0  0  0  0  0  0
   16.5568  -22.3397  -15.0101 C   0  0  0  0  0  0  0  0  0  0  0  0
   17.9116  -22.4601  -14.3928 C   0  0  2  0  0  0  0  0  0  0  0  0
   18.6663  -21.1929  -14.6417 C   0  0  0  0  0  0  0  0  0  0  0  0
   18.6503  -23.6970  -14.8506 C   0  0  2  0  0  0  0  0  0  0  0  0
   17.9589  -24.8391  -14.3241 N   0  0  0  0  0  0  0  0  0  0  0  0
   20.0547  -23.6145  -14.3163 C   0  0  0  0  0  0  0  0  0  0  0  0
   20.2465  -23.8793  -13.1002 O   0  0  0  0  0  0  0  0  0  0  0  0
   25.1498  -24.5597  -13.4998 N   0  0  0  0  0  0  0  0  0  0  0  0
   24.7699  -24.0058  -14.7712 C   0  0  0  0  0  0  0  0  0  0  0  0
   25.6721  -23.4359  -15.4120 O   0  0  0  0  0  0  0  0  0  0  0  0
   23.3721  -24.1371  -15.2379 C   0  0  0  0  0  0  0  0  0  0  0  0
   22.4602  -23.1112  -14.6270 C   0  0  2  0  0  0  0  0  0  0  0  0
   21.1252  -23.2490  -15.1618 N   0  0  0  0  0  0  0  0  0  0  0  0
   22.9484  -21.7192  -14.6979 C   0  0  0  0  0  0  0  0  0  0  0  0
   22.5552  -20.9658  -15.6206 O   0  0  0  0  0  0  0  0  0  0  0  0
   23.8611  -21.1619  -13.7614 N   0  0  0  0  0  0  0  0  0  0  0  0
   24.3155  -19.7919  -13.7975 C   0  0  1  0  0  0  0  0  0  0  0  0
   24.9793  -19.3823  -12.4986 C   0  0  0  0  0  0  0  0  0  0  0  0
   26.2405  -20.0708  -12.2528 C   0  0  0  0  0  0  0  0  0  0  0  0
   27.3951  -19.6911  -12.8929 C   0  0  0  0  0  0  0  0  0  0  0  0
   28.5955  -20.3320  -12.6712 C   0  0  0  0  0  0  0  0  0  0  0  0
   28.6778  -21.3795  -11.7964 C   0  0  0  0  0  0  0  0  0  0  0  0
   27.5334  -21.7812  -11.1402 C   0  0  0  0  0  0  0  0  0  0  0  0
   26.3193  -21.1232  -11.3729 C   0  0  0  0  0  0  0  0  0  0  0  0
   25.1784  -19.5209  -14.9691 C   0  0  0  0  0  0  0  0  0  0  0  0
   25.7115  -20.5513  -15.7287 O   0  0  0  0  0  0  0  0  0  0  0  0
   25.4595  -18.3465  -15.3185 O   0  0  0  0  0  0  0  0  0  0  0  0
  2  1  1  0
  3  4  1  6
  3  5  1  0
  3  2  1  0
  5  6  1  1
  7  5  1  0
  7  8  2  0
  9 10  1  0
 10 12  1  0
 11 10  2  0
 13 12  1  6
 13 14  1  0
 14  7  1  0
 15 13  1  0
 16 15  2  0
 17 15  1  0
 18 17  1  0
 18 26  1  0
 18 19  1  1
 20 25  2  0
 20 19  1  0
 21 20  1  0
 22 23  1  0
 22 21  2  0
 23 24  2  0
 24 25  1  0
 26 27  1  0
 28 26  2  0
M  END
$$$$
