INF.pdb
     RDKit          3D

 28 28  0  0  1  0  0  0  0  0999 V2000
   14.5855  -28.5045  -18.2631 C   0  0  0  0  0  0  0  0  0  0  0  0
   16.0723  -28.6860  -18.4118 C   0  0  0  0  0  0  0  0  0  0  0  0
   16.7687  -27.9346  -17.3248 C   0  0  2  0  0  0  0  0  0  0  0  0
   16.2884  -26.5182  -17.3372 C   0  0  0  0  0  0  0  0  0  0  0  0
   18.2733  -28.0576  -17.4059 C   0  0  2  0  0  0  0  0  0  0  0  0
   18.5857  -29.4328  -17.6723 N   0  0  0  0  0  0  0  0  0  0  0  0
   18.8399  -27.6149  -16.0839 C   0  0  0  0  0  0  0  0  0  0  0  0
   18.5724  -26.4527  -15.6797 O   0  0  0  0  0  0  0  0  0  0  0  0
   21.2554  -27.4140  -11.5773 N   0  0  0  0  0  0  0  0  0  0  0  0
   20.6228  -28.6982  -11.7131 C   0  0  0  0  0  0  0  0  0  0  0  0
   20.6083  -29.4121  -10.6936 O   0  0  0  0  0  0  0  0  0  0  0  0
   20.0403  -29.0926  -13.0146 C   0  0  0  0  0  0  0  0  0  0  0  0
   20.2196  -28.0394  -14.0709 C   0  0  2  0  0  0  0  0  0  0  0  0
   19.6498  -28.4851  -15.3215 N   0  0  0  0  0  0  0  0  0  0  0  0
   21.6018  -27.5450  -14.2327 C   0  0  0  0  0  0  0  0  0  0  0  0
   22.5683  -28.3275  -14.0679 O   0  0  0  0  0  0  0  0  0  0  0  0
   21.9169  -26.2013  -14.5729 N   0  0  0  0  0  0  0  0  0  0  0  0
   23.2015  -25.7790  -15.0790 C   0  0  1  0  0  0  0  0  0  0  0  0
   24.3434  -26.3145  -14.2394 C   0  0  0  0  0  0  0  0  0  0  0  0
   25.5967  -26.4287  -14.9751 C   0  0  0  0  0  0  0  0  0  0  0  0
   26.3331  -25.3164  -15.3032 C   0  0  0  0  0  0  0  0  0  0  0  0
   27.5202  -25.4079  -15.9986 C   0  0  0  0  0  0  0  0  0  0  0  0
   28.0099  -26.6231  -16.3894 C   0  0  0  0  0  0  0  0  0  0  0  0
   27.2903  -27.7560  -16.0728 C   0  0  0  0  0  0  0  0  0  0  0  0
   26.0856  -27.6518  -15.3662 C   0  0  0  0  0  0  0  0  0  0  0  0
   23.3702  -26.1032  -16.5132 C   0  0  0  0  0  0  0  0  0  0  0  0
   23.7998  -25.1503  -17.4246 O   0  0  0  0  0  0  0  0  0  0  0  0
   23.1304  -27.2543  -16.9577 O   0  0  0  0  0  0  0  0  0  0  0  0
  2  1  1  0
  3  4  1  6
  3  5  1  0
  3  2  1  0
  5  6  1  1
  7  5  1  0
  7  8  2  0
  9 10  1  0
 10 12  1  0
 11 10  2  0
 13 12  1  1
 13 14  1  0
 14  7  1  0
 15 13  1  0
 16 15  2  0
 17 15  1  0
 18 17  1  0
 18 26  1  0
 18 19  1  1
 20 25  2  0
 20 19  1  0
 21 20  1  0
 22 23  1  0
 22 21  2  0
 23 24  2  0
 24 25  1  0
 26 27  1  0
 28 26  2  0
M  END
$$$$
