INF.pdb
     RDKit          3D

 28 28  0  0  1  0  0  0  0  0999 V2000
   43.2263   -8.9014   -2.7659 C   0  0  0  0  0  0  0  0  0  0  0  0
   43.7291  -10.0163   -3.6434 C   0  0  0  0  0  0  0  0  0  0  0  0
   43.2883   -9.7700   -5.0492 C   0  0  2  0  0  0  0  0  0  0  0  0
   41.8071   -9.5623   -5.0579 C   0  0  0  0  0  0  0  0  0  0  0  0
   43.7469  -10.8527   -5.9995 C   0  0  2  0  0  0  0  0  0  0  0  0
   45.1674  -10.9923   -5.8502 N   0  0  0  0  0  0  0  0  0  0  0  0
   43.3841  -10.4200   -7.3944 C   0  0  0  0  0  0  0  0  0  0  0  0
   44.3115  -10.2754   -8.2339 O   0  0  0  0  0  0  0  0  0  0  0  0
   40.9728  -10.1611  -11.8254 N   0  0  0  0  0  0  0  0  0  0  0  0
   41.6680  -11.3043  -11.2986 C   0  0  0  0  0  0  0  0  0  0  0  0
   41.9588  -12.1944  -12.1187 O   0  0  0  0  0  0  0  0  0  0  0  0
   41.9919  -11.3627   -9.8561 C   0  0  0  0  0  0  0  0  0  0  0  0
   41.6542  -10.0881   -9.1361 C   0  0  2  0  0  0  0  0  0  0  0  0
   42.0369  -10.1839   -7.7462 N   0  0  0  0  0  0  0  0  0  0  0  0
   40.2607   -9.6274   -9.3003 C   0  0  0  0  0  0  0  0  0  0  0  0
   39.3134  -10.4341   -9.1409 O   0  0  0  0  0  0  0  0  0  0  0  0
   39.9134   -8.2907   -9.6368 N   0  0  0  0  0  0  0  0  0  0  0  0
   39.0457   -7.4587   -8.8371 C   0  0  1  0  0  0  0  0  0  0  0  0
   39.0534   -7.8712   -7.3793 C   0  0  0  0  0  0  0  0  0  0  0  0
   38.1047   -7.1239   -6.5629 C   0  0  0  0  0  0  0  0  0  0  0  0
   36.7543   -7.3627   -6.6427 C   0  0  0  0  0  0  0  0  0  0  0  0
   35.8445   -6.6645   -5.8774 C   0  0  0  0  0  0  0  0  0  0  0  0
   36.2610   -5.6994   -5.0030 C   0  0  0  0  0  0  0  0  0  0  0  0
   37.6115   -5.4395   -4.9032 C   0  0  0  0  0  0  0  0  0  0  0  0
   38.5271   -6.1546   -5.6853 C   0  0  0  0  0  0  0  0  0  0  0  0
   39.3426   -6.0185   -9.0059 C   0  0  0  0  0  0  0  0  0  0  0  0
   38.3289   -5.0823   -9.1437 O   0  0  0  0  0  0  0  0  0  0  0  0
   40.5245   -5.5914   -9.0305 O   0  0  0  0  0  0  0  0  0  0  0  0
  2  1  1  0
  3  4  1  1
  3  5  1  0
  3  2  1  0
  5  6  1  6
  7  5  1  0
  7  8  2  0
  9 10  1  0
 10 12  1  0
 11 10  2  0
 13 12  1  1
 13 14  1  0
 14  7  1  0
 15 13  1  0
 16 15  2  0
 17 15  1  0
 18 17  1  0
 18 26  1  0
 18 19  1  1
 20 25  2  0
 20 19  1  0
 21 20  1  0
 22 23  1  0
 22 21  2  0
 23 24  2  0
 24 25  1  0
 26 27  1  0
 28 26  2  0
M  END
$$$$
