FLT.pdb
     RDKit          3D

 27 27  0  0  1  0  0  0  0  0999 V2000
    7.2413  -17.5860   22.1658 N   0  0  0  0  0  0  0  0  0  0  0  0
    7.8564  -16.3337   21.8489 C   0  0  1  0  0  0  0  0  0  0  0  0
    6.8240  -15.3912   21.2618 C   0  0  0  0  0  0  0  0  0  0  0  0
    7.5502  -14.2617   20.6504 C   0  0  0  0  0  0  0  0  0  0  0  0
    7.5544  -13.0221   21.2518 C   0  0  0  0  0  0  0  0  0  0  0  0
    8.2344  -11.9739   20.6749 C   0  0  0  0  0  0  0  0  0  0  0  0
    8.9182  -12.1562   19.4882 C   0  0  0  0  0  0  0  0  0  0  0  0
    8.9235  -13.3896   18.8745 C   0  0  0  0  0  0  0  0  0  0  0  0
    8.2287  -14.4452   19.4716 C   0  0  0  0  0  0  0  0  0  0  0  0
    8.5462  -15.7282   23.0208 C   0  0  0  0  0  0  0  0  0  0  0  0
    9.7694  -15.4102   22.8575 O   0  0  0  0  0  0  0  0  0  0  0  0
    7.6441  -12.0491   25.5690 C   0  0  0  0  0  0  0  0  0  0  0  0
    6.6763  -13.2379   25.6616 C   0  0  2  0  0  0  0  0  0  0  0  0
    5.5041  -12.7958   26.4848 C   0  0  0  0  0  0  0  0  0  0  0  0
    7.4422  -14.3629   26.2574 C   0  0  0  0  0  0  0  0  0  0  0  0
    8.5266  -14.9294   25.3827 C   0  0  2  0  0  0  0  0  0  0  0  0
    7.8744  -15.5212   24.2428 N   0  0  0  0  0  0  0  0  0  0  0  0
    9.3384  -15.9706   26.0642 C   0  0  0  0  0  0  0  0  0  0  0  0
    9.6709  -15.7997   27.2635 O   0  0  0  0  0  0  0  0  0  0  0  0
    8.9135  -19.8554   26.7499 C   0  0  0  0  0  0  0  0  0  0  0  0
   10.1514  -19.5323   25.9735 C   0  0  1  0  0  0  0  0  0  0  0  0
    9.8586  -19.7471   24.6138 O   0  0  0  0  0  0  0  0  0  0  0  0
   10.5936  -18.1094   26.1011 C   0  0  2  0  0  0  0  0  0  0  0  0
    9.7683  -17.1595   25.4433 N   0  0  0  0  0  0  0  0  0  0  0  0
   12.0044  -18.0342   25.6101 C   0  0  0  0  0  0  0  0  0  0  0  0
   12.3117  -17.3372   24.6096 O   0  0  0  0  0  0  0  0  0  0  0  0
   13.0120  -18.7337   26.2484 O   0  0  0  0  0  0  0  0  0  0  0  0
  2  1  1  1
  2  3  1  0
  3  4  1  0
  4  9  2  0
  5  4  1  0
  5  6  2  0
  6  7  1  0
  7  8  2  0
  9  8  1  0
 10 17  1  0
 10  2  1  0
 11 10  2  0
 13 12  1  1
 13 15  1  0
 14 13  1  0
 16 15  1  1
 16 17  1  0
 18 16  1  0
 19 18  2  0
 21 20  1  1
 21 23  1  0
 21 22  1  0
 23 25  1  0
 23 24  1  6
 24 18  1  0
 25 27  1  0
 26 25  2  0
M  END
$$$$
