FLT.pdb
     RDKit          3D

 27 27  0  0  1  0  0  0  0  0999 V2000
    8.0321  -16.6291   21.7493 N   0  0  0  0  0  0  0  0  0  0  0  0
    9.3828  -16.1868   21.9138 C   0  0  1  0  0  0  0  0  0  0  0  0
    9.7556  -15.2503   20.7812 C   0  0  0  0  0  0  0  0  0  0  0  0
    8.5969  -14.3718   20.5314 C   0  0  0  0  0  0  0  0  0  0  0  0
    7.4447  -14.5009   21.2759 C   0  0  0  0  0  0  0  0  0  0  0  0
    6.3685  -13.6774   21.0364 C   0  0  0  0  0  0  0  0  0  0  0  0
    6.4347  -12.7146   20.0477 C   0  0  0  0  0  0  0  0  0  0  0  0
    7.5795  -12.5728   19.2946 C   0  0  0  0  0  0  0  0  0  0  0  0
    8.6650  -13.4161   19.5487 C   0  0  0  0  0  0  0  0  0  0  0  0
    9.6155  -15.5579   23.2428 C   0  0  0  0  0  0  0  0  0  0  0  0
   10.7827  -15.0921   23.4537 O   0  0  0  0  0  0  0  0  0  0  0  0
    8.2213  -12.1217   25.6912 C   0  0  0  0  0  0  0  0  0  0  0  0
    7.1399  -13.1650   25.3737 C   0  0  2  0  0  0  0  0  0  0  0  0
    5.8329  -12.6146   25.8593 C   0  0  0  0  0  0  0  0  0  0  0  0
    7.5530  -14.4227   26.0479 C   0  0  0  0  0  0  0  0  0  0  0  0
    8.8411  -15.0189   25.5507 C   0  0  2  0  0  0  0  0  0  0  0  0
    8.5932  -15.4856   24.2108 N   0  0  0  0  0  0  0  0  0  0  0  0
    9.3098  -16.1613   26.3770 C   0  0  0  0  0  0  0  0  0  0  0  0
    9.3154  -16.0500   27.6283 O   0  0  0  0  0  0  0  0  0  0  0  0
    8.4568  -20.1929   25.9121 C   0  0  0  0  0  0  0  0  0  0  0  0
    9.9023  -19.8322   26.0537 C   0  0  1  0  0  0  0  0  0  0  0  0
   10.4527  -19.7999   24.7589 O   0  0  0  0  0  0  0  0  0  0  0  0
   10.1350  -18.4835   26.6564 C   0  0  2  0  0  0  0  0  0  0  0  0
    9.7569  -17.3845   25.8406 N   0  0  0  0  0  0  0  0  0  0  0  0
   11.5800  -18.4062   27.0344 C   0  0  0  0  0  0  0  0  0  0  0  0
   12.3337  -17.5199   26.5575 O   0  0  0  0  0  0  0  0  0  0  0  0
   12.1263  -19.3136   27.9235 O   0  0  0  0  0  0  0  0  0  0  0  0
  2  1  1  6
  2  3  1  0
  3  4  1  0
  4  9  2  0
  5  4  1  0
  5  6  2  0
  6  7  1  0
  7  8  2  0
  9  8  1  0
 10 17  1  0
 10  2  1  0
 11 10  2  0
 13 12  1  1
 13 15  1  0
 14 13  1  0
 16 15  1  1
 16 17  1  0
 18 16  1  0
 19 18  2  0
 21 20  1  6
 21 23  1  0
 21 22  1  0
 23 25  1  0
 23 24  1  6
 24 18  1  0
 25 27  1  0
 26 25  2  0
M  END
$$$$
