FLT.pdb
     RDKit          3D

 27 27  0  0  1  0  0  0  0  0999 V2000
    9.6104  -17.5927   21.7332 N   0  0  0  0  0  0  0  0  0  0  0  0
    9.2199  -16.2602   22.0782 C   0  0  1  0  0  0  0  0  0  0  0  0
    7.8934  -15.9302   21.4222 C   0  0  0  0  0  0  0  0  0  0  0  0
    7.9536  -14.5236   20.9812 C   0  0  0  0  0  0  0  0  0  0  0  0
    7.3024  -13.5374   21.6897 C   0  0  0  0  0  0  0  0  0  0  0  0
    7.3636  -12.2278   21.2716 C   0  0  0  0  0  0  0  0  0  0  0  0
    8.0785  -11.8913   20.1381 C   0  0  0  0  0  0  0  0  0  0  0  0
    8.7351  -12.8656   19.4188 C   0  0  0  0  0  0  0  0  0  0  0  0
    8.6644  -14.1917   19.8550 C   0  0  0  0  0  0  0  0  0  0  0  0
    9.1699  -16.0473   23.5507 C   0  0  0  0  0  0  0  0  0  0  0  0
   10.2081  -16.3842   24.2084 O   0  0  0  0  0  0  0  0  0  0  0  0
    7.9318  -12.1365   25.9330 C   0  0  0  0  0  0  0  0  0  0  0  0
    6.8607  -12.9268   25.1670 C   0  0  2  0  0  0  0  0  0  0  0  0
    5.5785  -12.1573   25.2718 C   0  0  0  0  0  0  0  0  0  0  0  0
    6.8066  -14.2766   25.7850 C   0  0  0  0  0  0  0  0  0  0  0  0
    8.0279  -15.1268   25.5669 C   0  0  2  0  0  0  0  0  0  0  0  0
    8.0305  -15.5015   24.1761 N   0  0  0  0  0  0  0  0  0  0  0  0
    8.0330  -16.3601   26.3954 C   0  0  0  0  0  0  0  0  0  0  0  0
    8.0006  -16.2569   27.6469 O   0  0  0  0  0  0  0  0  0  0  0  0
    6.1811  -20.0258   25.7654 C   0  0  0  0  0  0  0  0  0  0  0  0
    7.6451  -20.0773   26.0715 C   0  0  1  0  0  0  0  0  0  0  0  0
    8.3200  -20.2630   24.8505 O   0  0  0  0  0  0  0  0  0  0  0  0
    8.1831  -18.8198   26.6761 C   0  0  2  0  0  0  0  0  0  0  0  0
    8.0726  -17.6627   25.8608 N   0  0  0  0  0  0  0  0  0  0  0  0
    9.6057  -19.0805   27.0575 C   0  0  0  0  0  0  0  0  0  0  0  0
   10.5488  -18.4178   26.5550 O   0  0  0  0  0  0  0  0  0  0  0  0
    9.9208  -20.0630   27.9781 O   0  0  0  0  0  0  0  0  0  0  0  0
  2  1  1  1
  2  3  1  0
  3  4  1  0
  4  9  2  0
  5  4  1  0
  5  6  2  0
  6  7  1  0
  7  8  2  0
  9  8  1  0
 10 17  1  0
 10  2  1  0
 11 10  2  0
 13 12  1  1
 13 15  1  0
 14 13  1  0
 16 15  1  6
 16 17  1  0
 18 16  1  0
 19 18  2  0
 21 20  1  6
 21 23  1  0
 21 22  1  0
 23 25  1  0
 23 24  1  6
 24 18  1  0
 25 27  1  0
 26 25  2  0
M  END
$$$$
