FLT.pdb
     RDKit          3D

 27 27  0  0  1  0  0  0  0  0999 V2000
    5.3012  -19.9312   23.9226 N   0  0  0  0  0  0  0  0  0  0  0  0
    6.0018  -19.1528   24.8976 C   0  0  1  0  0  0  0  0  0  0  0  0
    7.2288  -19.9083   25.3693 C   0  0  0  0  0  0  0  0  0  0  0  0
    6.8125  -20.7799   26.4845 C   0  0  0  0  0  0  0  0  0  0  0  0
    6.7622  -20.2949   27.7733 C   0  0  0  0  0  0  0  0  0  0  0  0
    6.3728  -21.1146   28.8078 C   0  0  0  0  0  0  0  0  0  0  0  0
    6.0291  -22.4302   28.5626 C   0  0  0  0  0  0  0  0  0  0  0  0
    6.0742  -22.9301   27.2797 C   0  0  0  0  0  0  0  0  0  0  0  0
    6.4715  -22.0864   26.2385 C   0  0  0  0  0  0  0  0  0  0  0  0
    6.3541  -17.7970   24.3940 C   0  0  0  0  0  0  0  0  0  0  0  0
    6.6551  -17.7109   23.1588 O   0  0  0  0  0  0  0  0  0  0  0  0
    6.8839  -12.2885   27.0310 C   0  0  0  0  0  0  0  0  0  0  0  0
    7.2981  -13.1096   25.8010 C   0  0  2  0  0  0  0  0  0  0  0  0
    6.9080  -12.3217   24.5868 C   0  0  0  0  0  0  0  0  0  0  0  0
    6.6106  -14.4216   25.9156 C   0  0  0  0  0  0  0  0  0  0  0  0
    7.0168  -15.4454   24.8915 C   0  0  2  0  0  0  0  0  0  0  0  0
    6.3524  -16.6734   25.2455 N   0  0  0  0  0  0  0  0  0  0  0  0
    8.4826  -15.6856   24.8596 C   0  0  0  0  0  0  0  0  0  0  0  0
    9.0618  -16.0759   25.9038 O   0  0  0  0  0  0  0  0  0  0  0  0
    9.8730  -17.5552   21.5398 C   0  0  0  0  0  0  0  0  0  0  0  0
   10.8289  -16.5605   22.1198 C   0  0  1  0  0  0  0  0  0  0  0  0
   10.7326  -15.3893   21.3455 O   0  0  0  0  0  0  0  0  0  0  0  0
   10.5193  -16.1728   23.5306 C   0  0  2  0  0  0  0  0  0  0  0  0
    9.2817  -15.5014   23.7144 N   0  0  0  0  0  0  0  0  0  0  0  0
   11.6630  -15.3475   24.0285 C   0  0  0  0  0  0  0  0  0  0  0  0
   11.4839  -14.1880   24.4805 O   0  0  0  0  0  0  0  0  0  0  0  0
   12.9539  -15.8427   24.0037 O   0  0  0  0  0  0  0  0  0  0  0  0
  2  1  1  6
  2  3  1  0
  3  4  1  0
  4  9  2  0
  5  4  1  0
  5  6  2  0
  6  7  1  0
  7  8  2  0
  9  8  1  0
 10 17  1  0
 10  2  1  0
 11 10  2  0
 13 12  1  1
 13 15  1  0
 14 13  1  0
 16 15  1  1
 16 17  1  0
 18 16  1  0
 19 18  2  0
 21 20  1  6
 21 23  1  0
 21 22  1  0
 23 25  1  0
 23 24  1  6
 24 18  1  0
 25 27  1  0
 26 25  2  0
M  END
$$$$
