FLT.pdb
     RDKit          3D

 27 27  0  0  1  0  0  0  0  0999 V2000
    6.8420  -17.5700   22.1809 N   0  0  0  0  0  0  0  0  0  0  0  0
    7.5129  -16.3455   21.8684 C   0  0  1  0  0  0  0  0  0  0  0  0
    6.5234  -15.3542   21.2879 C   0  0  0  0  0  0  0  0  0  0  0  0
    7.2980  -14.2355   20.7175 C   0  0  0  0  0  0  0  0  0  0  0  0
    7.4219  -13.0464   21.4025 C   0  0  0  0  0  0  0  0  0  0  0  0
    8.1462  -12.0079   20.8632 C   0  0  0  0  0  0  0  0  0  0  0  0
    8.7549  -12.1493   19.6309 C   0  0  0  0  0  0  0  0  0  0  0  0
    8.6404  -13.3319   18.9337 C   0  0  0  0  0  0  0  0  0  0  0  0
    7.9018  -14.3783   19.4932 C   0  0  0  0  0  0  0  0  0  0  0  0
    8.2320  -15.7777   23.0416 C   0  0  0  0  0  0  0  0  0  0  0  0
    9.4648  -15.5028   22.8731 O   0  0  0  0  0  0  0  0  0  0  0  0
    8.0981  -12.2364   25.9130 C   0  0  0  0  0  0  0  0  0  0  0  0
    6.9123  -13.2074   25.8140 C   0  0  2  0  0  0  0  0  0  0  0  0
    5.7692  -12.5933   26.5646 C   0  0  0  0  0  0  0  0  0  0  0  0
    7.3765  -14.5023   26.3751 C   0  0  0  0  0  0  0  0  0  0  0  0
    8.3003  -15.2877   25.4854 C   0  0  2  0  0  0  0  0  0  0  0  0
    7.5761  -15.5588   24.2702 N   0  0  0  0  0  0  0  0  0  0  0  0
    8.7282  -16.5775   26.0860 C   0  0  0  0  0  0  0  0  0  0  0  0
    7.8546  -17.3800   26.4993 O   0  0  0  0  0  0  0  0  0  0  0  0
   10.5659  -19.4306   24.5283 C   0  0  0  0  0  0  0  0  0  0  0  0
   11.2680  -19.0785   25.8022 C   0  0  1  0  0  0  0  0  0  0  0  0
   12.4014  -18.3187   25.4571 O   0  0  0  0  0  0  0  0  0  0  0  0
   10.4519  -18.2394   26.7330 C   0  0  2  0  0  0  0  0  0  0  0  0
   10.0743  -16.9681   26.2257 N   0  0  0  0  0  0  0  0  0  0  0  0
   11.2229  -18.1073   28.0077 C   0  0  0  0  0  0  0  0  0  0  0  0
   11.6232  -16.9874   28.4162 O   0  0  0  0  0  0  0  0  0  0  0  0
   11.5165  -19.2207   28.7735 O   0  0  0  0  0  0  0  0  0  0  0  0
  2  1  1  1
  2  3  1  0
  3  4  1  0
  4  9  2  0
  5  4  1  0
  5  6  2  0
  6  7  1  0
  7  8  2  0
  9  8  1  0
 10 17  1  0
 10  2  1  0
 11 10  2  0
 13 12  1  1
 13 15  1  0
 14 13  1  0
 16 15  1  1
 16 17  1  0
 18 16  1  0
 19 18  2  0
 21 20  1  6
 21 23  1  0
 21 22  1  0
 23 25  1  0
 23 24  1  6
 24 18  1  0
 25 27  1  0
 26 25  2  0
M  END
$$$$
