FLT.pdb
     RDKit          3D

 27 27  0  0  1  0  0  0  0  0999 V2000
    6.5149  -17.5717   26.2305 N   0  0  0  0  0  0  0  0  0  0  0  0
    6.8967  -16.4680   25.4041 C   0  0  1  0  0  0  0  0  0  0  0  0
    8.0683  -15.7396   26.0331 C   0  0  0  0  0  0  0  0  0  0  0  0
    7.6241  -14.3671   26.3421 C   0  0  0  0  0  0  0  0  0  0  0  0
    6.4272  -13.8900   25.8538 C   0  0  0  0  0  0  0  0  0  0  0  0
    6.0204  -12.6084   26.1468 C   0  0  0  0  0  0  0  0  0  0  0  0
    6.8085  -11.7900   26.9330 C   0  0  0  0  0  0  0  0  0  0  0  0
    8.0078  -12.2522   27.4289 C   0  0  0  0  0  0  0  0  0  0  0  0
    8.4087  -13.5559   27.1233 C   0  0  0  0  0  0  0  0  0  0  0  0
    7.1972  -16.8834   24.0065 C   0  0  0  0  0  0  0  0  0  0  0  0
    7.1890  -18.1360   23.7726 O   0  0  0  0  0  0  0  0  0  0  0  0
    8.0218  -13.4694   22.4450 C   0  0  0  0  0  0  0  0  0  0  0  0
    8.3029  -13.9411   21.0108 C   0  0  2  0  0  0  0  0  0  0  0  0
    8.0090  -12.7898   20.0969 C   0  0  0  0  0  0  0  0  0  0  0  0
    7.4431  -15.1303   20.7791 C   0  0  0  0  0  0  0  0  0  0  0  0
    7.7564  -16.3211   21.6427 C   0  0  2  0  0  0  0  0  0  0  0  0
    7.4750  -15.9347   23.0015 N   0  0  0  0  0  0  0  0  0  0  0  0
    9.1764  -16.7484   21.5503 C   0  0  0  0  0  0  0  0  0  0  0  0
    9.6183  -17.1708   20.4529 O   0  0  0  0  0  0  0  0  0  0  0  0
   12.3467  -15.2460   21.2383 C   0  0  0  0  0  0  0  0  0  0  0  0
   12.4593  -16.1172   22.4499 C   0  0  1  0  0  0  0  0  0  0  0  0
   12.2856  -15.2904   23.5754 O   0  0  0  0  0  0  0  0  0  0  0  0
   11.4129  -17.1827   22.5305 C   0  0  2  0  0  0  0  0  0  0  0  0
   10.0776  -16.7108   22.6322 N   0  0  0  0  0  0  0  0  0  0  0  0
   11.7645  -18.0679   23.6837 C   0  0  0  0  0  0  0  0  0  0  0  0
   10.9687  -18.2395   24.6420 O   0  0  0  0  0  0  0  0  0  0  0  0
   12.9813  -18.7236   23.7246 O   0  0  0  0  0  0  0  0  0  0  0  0
  2  1  1  1
  2  3  1  0
  3  4  1  0
  4  9  2  0
  5  4  1  0
  5  6  2  0
  6  7  1  0
  7  8  2  0
  9  8  1  0
 10 17  1  0
 10  2  1  0
 11 10  2  0
 13 12  1  1
 13 15  1  0
 14 13  1  0
 16 15  1  6
 16 17  1  0
 18 16  1  0
 19 18  2  0
 21 20  1  6
 21 23  1  0
 21 22  1  0
 23 25  1  0
 23 24  1  1
 24 18  1  0
 25 27  1  0
 26 25  2  0
M  END
$$$$
