FLT.pdb
     RDKit          3D

 27 27  0  0  1  0  0  0  0  0999 V2000
    9.9125  -17.1865   21.3805 N   0  0  0  0  0  0  0  0  0  0  0  0
    9.1314  -16.1413   21.9676 C   0  0  1  0  0  0  0  0  0  0  0  0
    7.7599  -16.1039   21.3223 C   0  0  0  0  0  0  0  0  0  0  0  0
    7.4978  -14.7100   20.9161 C   0  0  0  0  0  0  0  0  0  0  0  0
    8.1513  -14.1591   19.8354 C   0  0  0  0  0  0  0  0  0  0  0  0
    7.9009  -12.8582   19.4633 C   0  0  0  0  0  0  0  0  0  0  0  0
    6.9924  -12.0940   20.1702 C   0  0  0  0  0  0  0  0  0  0  0  0
    6.3308  -12.6302   21.2530 C   0  0  0  0  0  0  0  0  0  0  0  0
    6.5948  -13.9529   21.6199 C   0  0  0  0  0  0  0  0  0  0  0  0
    9.0364  -16.2675   23.4478 C   0  0  0  0  0  0  0  0  0  0  0  0
    9.8417  -17.0860   24.0004 O   0  0  0  0  0  0  0  0  0  0  0  0
    8.5154  -12.5433   26.3578 C   0  0  0  0  0  0  0  0  0  0  0  0
    7.2775  -13.0646   25.6133 C   0  0  2  0  0  0  0  0  0  0  0  0
    6.1352  -12.1565   25.9565 C   0  0  0  0  0  0  0  0  0  0  0  0
    7.0818  -14.4714   26.0486 C   0  0  0  0  0  0  0  0  0  0  0  0
    8.1652  -15.4255   25.6270 C   0  0  2  0  0  0  0  0  0  0  0  0
    8.1023  -15.5175   24.1909 N   0  0  0  0  0  0  0  0  0  0  0  0
    7.9983  -16.7853   26.2020 C   0  0  0  0  0  0  0  0  0  0  0  0
    6.8445  -17.2736   26.2938 O   0  0  0  0  0  0  0  0  0  0  0  0
    8.6943  -20.1303   25.0089 C   0  0  0  0  0  0  0  0  0  0  0  0
    9.4036  -19.9933   26.3195 C   0  0  1  0  0  0  0  0  0  0  0  0
   10.7479  -19.6881   26.0361 O   0  0  0  0  0  0  0  0  0  0  0  0
    8.8810  -18.8869   27.1795 C   0  0  2  0  0  0  0  0  0  0  0  0
    9.0682  -17.5788   26.6599 N   0  0  0  0  0  0  0  0  0  0  0  0
    9.5143  -19.0310   28.5267 C   0  0  0  0  0  0  0  0  0  0  0  0
    9.3442  -20.0652   29.2214 O   0  0  0  0  0  0  0  0  0  0  0  0
   10.3077  -18.0239   29.0449 O   0  0  0  0  0  0  0  0  0  0  0  0
  2  1  1  6
  2  3  1  0
  3  4  1  0
  4  9  2  0
  5  4  1  0
  5  6  2  0
  6  7  1  0
  7  8  2  0
  9  8  1  0
 10 17  1  0
 10  2  1  0
 11 10  2  0
 13 12  1  1
 13 15  1  0
 14 13  1  0
 16 15  1  1
 16 17  1  0
 18 16  1  0
 19 18  2  0
 21 20  1  6
 21 23  1  0
 21 22  1  0
 23 25  1  0
 23 24  1  6
 24 18  1  0
 25 27  1  0
 26 25  2  0
M  END
$$$$
