FLT.pdb
     RDKit          3D

 27 27  0  0  1  0  0  0  0  0999 V2000
    7.7464  -19.0415   27.4657 N   0  0  0  0  0  0  0  0  0  0  0  0
    8.2534  -17.7065   27.3765 C   0  0  1  0  0  0  0  0  0  0  0  0
    9.6645  -17.6576   27.9290 C   0  0  0  0  0  0  0  0  0  0  0  0
    9.8197  -16.3732   28.6382 C   0  0  0  0  0  0  0  0  0  0  0  0
    9.7608  -15.1804   27.9509 C   0  0  0  0  0  0  0  0  0  0  0  0
    9.9066  -13.9868   28.6201 C   0  0  0  0  0  0  0  0  0  0  0  0
   10.1132  -13.9749   29.9862 C   0  0  0  0  0  0  0  0  0  0  0  0
   10.1746  -15.1589   30.6877 C   0  0  0  0  0  0  0  0  0  0  0  0
   10.0248  -16.3639   29.9952 C   0  0  0  0  0  0  0  0  0  0  0  0
    8.1895  -17.1672   25.9905 C   0  0  0  0  0  0  0  0  0  0  0  0
    7.9891  -18.0148   25.0603 O   0  0  0  0  0  0  0  0  0  0  0  0
    5.9313  -13.6928   25.7445 C   0  0  0  0  0  0  0  0  0  0  0  0
    7.4098  -13.2888   25.8420 C   0  0  2  0  0  0  0  0  0  0  0  0
    7.4540  -11.8047   26.0484 C   0  0  0  0  0  0  0  0  0  0  0  0
    8.0573  -13.7427   24.5844 C   0  0  0  0  0  0  0  0  0  0  0  0
    8.1460  -15.2346   24.4157 C   0  0  2  0  0  0  0  0  0  0  0  0
    8.3437  -15.7904   25.7298 N   0  0  0  0  0  0  0  0  0  0  0  0
    9.2729  -15.6548   23.5433 C   0  0  0  0  0  0  0  0  0  0  0  0
   10.4497  -15.3879   23.8924 O   0  0  0  0  0  0  0  0  0  0  0  0
    9.9687  -19.3217   21.9271 C   0  0  0  0  0  0  0  0  0  0  0  0
    9.9830  -18.1880   20.9503 C   0  0  1  0  0  0  0  0  0  0  0  0
    8.7158  -18.1480   20.3395 O   0  0  0  0  0  0  0  0  0  0  0  0
   10.2029  -16.8487   21.5784 C   0  0  2  0  0  0  0  0  0  0  0  0
    9.1064  -16.3460   22.3273 N   0  0  0  0  0  0  0  0  0  0  0  0
   10.5940  -15.9027   20.4879 C   0  0  0  0  0  0  0  0  0  0  0  0
    9.9018  -14.8863   20.2253 O   0  0  0  0  0  0  0  0  0  0  0  0
   11.7338  -16.1239   19.7368 O   0  0  0  0  0  0  0  0  0  0  0  0
  2  1  1  6
  2  3  1  0
  3  4  1  0
  4  9  2  0
  5  4  1  0
  5  6  2  0
  6  7  1  0
  7  8  2  0
  9  8  1  0
 10 17  1  0
 10  2  1  0
 11 10  2  0
 13 12  1  6
 13 15  1  0
 14 13  1  0
 16 15  1  1
 16 17  1  0
 18 16  1  0
 19 18  2  0
 21 20  1  1
 21 23  1  0
 21 22  1  0
 23 25  1  0
 23 24  1  6
 24 18  1  0
 25 27  1  0
 26 25  2  0
M  END
$$$$
