FLT.pdb
     RDKit          3D

 27 27  0  0  1  0  0  0  0  0999 V2000
    6.6821  -17.6847   21.7143 N   0  0  0  0  0  0  0  0  0  0  0  0
    7.3630  -16.4845   21.3359 C   0  0  1  0  0  0  0  0  0  0  0  0
    6.4327  -15.6024   20.5265 C   0  0  0  0  0  0  0  0  0  0  0  0
    7.2092  -14.4304   20.0791 C   0  0  0  0  0  0  0  0  0  0  0  0
    7.2104  -13.2662   20.8162 C   0  0  0  0  0  0  0  0  0  0  0  0
    7.9374  -12.1777   20.3917 C   0  0  0  0  0  0  0  0  0  0  0  0
    8.6718  -12.2433   19.2232 C   0  0  0  0  0  0  0  0  0  0  0  0
    8.6808  -13.3999   18.4750 C   0  0  0  0  0  0  0  0  0  0  0  0
    7.9379  -14.4979   18.9180 C   0  0  0  0  0  0  0  0  0  0  0  0
    7.9245  -15.7578   22.5075 C   0  0  0  0  0  0  0  0  0  0  0  0
    9.1504  -15.4186   22.4307 O   0  0  0  0  0  0  0  0  0  0  0  0
    5.8179  -12.7873   27.3597 C   0  0  0  0  0  0  0  0  0  0  0  0
    7.0610  -13.5026   26.8106 C   0  0  2  0  0  0  0  0  0  0  0  0
    8.1575  -12.4846   26.7191 C   0  0  0  0  0  0  0  0  0  0  0  0
    6.6702  -14.0879   25.5022 C   0  0  0  0  0  0  0  0  0  0  0  0
    7.7079  -14.9689   24.8628 C   0  0  2  0  0  0  0  0  0  0  0  0
    7.1347  -15.4646   23.6379 N   0  0  0  0  0  0  0  0  0  0  0  0
    8.0932  -16.1245   25.7135 C   0  0  0  0  0  0  0  0  0  0  0  0
    7.1924  -16.8303   26.2317 O   0  0  0  0  0  0  0  0  0  0  0  0
    9.5284  -19.2566   24.7413 C   0  0  0  0  0  0  0  0  0  0  0  0
   10.4049  -18.7427   25.8401 C   0  0  1  0  0  0  0  0  0  0  0  0
   11.5349  -18.1620   25.2348 O   0  0  0  0  0  0  0  0  0  0  0  0
    9.7682  -17.6793   26.6770 C   0  0  2  0  0  0  0  0  0  0  0  0
    9.4269  -16.4885   25.9830 N   0  0  0  0  0  0  0  0  0  0  0  0
   10.6924  -17.3958   27.8183 C   0  0  0  0  0  0  0  0  0  0  0  0
   11.1734  -16.2483   28.0000 O   0  0  0  0  0  0  0  0  0  0  0  0
   11.0429  -18.3951   28.7075 O   0  0  0  0  0  0  0  0  0  0  0  0
  2  1  1  1
  2  3  1  0
  3  4  1  0
  4  9  2  0
  5  4  1  0
  5  6  2  0
  6  7  1  0
  7  8  2  0
  9  8  1  0
 10 17  1  0
 10  2  1  0
 11 10  2  0
 13 12  1  6
 13 15  1  0
 14 13  1  0
 16 15  1  1
 16 17  1  0
 18 16  1  0
 19 18  2  0
 21 20  1  6
 21 23  1  0
 21 22  1  0
 23 25  1  0
 23 24  1  6
 24 18  1  0
 25 27  1  0
 26 25  2  0
M  END
$$$$
