FLT.pdb
     RDKit          3D

 27 27  0  0  1  0  0  0  0  0999 V2000
    5.6218  -18.1369   24.7132 N   0  0  0  0  0  0  0  0  0  0  0  0
    6.2230  -16.8461   24.8530 C   0  0  1  0  0  0  0  0  0  0  0  0
    6.3979  -16.5201   26.3233 C   0  0  0  0  0  0  0  0  0  0  0  0
    6.5286  -15.0552   26.4412 C   0  0  0  0  0  0  0  0  0  0  0  0
    5.5733  -14.2199   25.9044 C   0  0  0  0  0  0  0  0  0  0  0  0
    5.7029  -12.8547   26.0188 C   0  0  0  0  0  0  0  0  0  0  0  0
    6.7918  -12.3107   26.6727 C   0  0  0  0  0  0  0  0  0  0  0  0
    7.7555  -13.1324   27.2147 C   0  0  0  0  0  0  0  0  0  0  0  0
    7.6111  -14.5172   27.0911 C   0  0  0  0  0  0  0  0  0  0  0  0
    7.5092  -16.7365   24.1115 C   0  0  0  0  0  0  0  0  0  0  0  0
    8.2167  -17.7941   24.0430 O   0  0  0  0  0  0  0  0  0  0  0  0
    7.7741  -14.7801   20.1534 C   0  0  0  0  0  0  0  0  0  0  0  0
    7.8344  -13.7881   21.3242 C   0  0  2  0  0  0  0  0  0  0  0  0
    7.7765  -12.4076   20.7427 C   0  0  0  0  0  0  0  0  0  0  0  0
    9.0901  -14.0795   22.0628 C   0  0  0  0  0  0  0  0  0  0  0  0
    9.1288  -15.4161   22.7513 C   0  0  2  0  0  0  0  0  0  0  0  0
    7.9151  -15.5231   23.5196 N   0  0  0  0  0  0  0  0  0  0  0  0
   10.2898  -15.5650   23.6664 C   0  0  0  0  0  0  0  0  0  0  0  0
   11.4519  -15.5395   23.1899 O   0  0  0  0  0  0  0  0  0  0  0  0
   10.7559  -13.9422   27.4597 C   0  0  0  0  0  0  0  0  0  0  0  0
   11.0745  -15.3981   27.3244 C   0  0  1  0  0  0  0  0  0  0  0  0
    9.9613  -16.1145   27.8020 O   0  0  0  0  0  0  0  0  0  0  0  0
   11.3012  -15.8411   25.9141 C   0  0  2  0  0  0  0  0  0  0  0  0
   10.1722  -15.7361   25.0595 N   0  0  0  0  0  0  0  0  0  0  0  0
   11.8149  -17.2449   25.9639 C   0  0  0  0  0  0  0  0  0  0  0  0
   11.1880  -18.1897   25.4202 O   0  0  0  0  0  0  0  0  0  0  0  0
   12.9995  -17.5404   26.6132 O   0  0  0  0  0  0  0  0  0  0  0  0
  2  1  1  1
  2  3  1  0
  3  4  1  0
  4  9  2  0
  5  4  1  0
  5  6  2  0
  6  7  1  0
  7  8  2  0
  9  8  1  0
 10 17  1  0
 10  2  1  0
 11 10  2  0
 13 12  1  6
 13 15  1  0
 14 13  1  0
 16 15  1  1
 16 17  1  0
 18 16  1  0
 19 18  2  0
 21 20  1  6
 21 23  1  0
 21 22  1  0
 23 25  1  0
 23 24  1  6
 24 18  1  0
 25 27  1  0
 26 25  2  0
M  END
$$$$
