FLT.pdb
     RDKit          3D

 27 27  0  0  1  0  0  0  0  0999 V2000
    5.1112  -16.4943   25.3332 N   0  0  0  0  0  0  0  0  0  0  0  0
    6.2556  -15.9883   24.6393 C   0  0  1  0  0  0  0  0  0  0  0  0
    7.3881  -15.7580   25.6208 C   0  0  0  0  0  0  0  0  0  0  0  0
    7.3052  -14.3565   26.0741 C   0  0  0  0  0  0  0  0  0  0  0  0
    8.4495  -13.6276   26.3144 C   0  0  0  0  0  0  0  0  0  0  0  0
    8.3633  -12.3209   26.7370 C   0  0  0  0  0  0  0  0  0  0  0  0
    7.1287  -11.7292   26.9237 C   0  0  0  0  0  0  0  0  0  0  0  0
    5.9752  -12.4445   26.6877 C   0  0  0  0  0  0  0  0  0  0  0  0
    6.0776  -13.7709   26.2588 C   0  0  0  0  0  0  0  0  0  0  0  0
    6.6751  -16.8722   23.5174 C   0  0  0  0  0  0  0  0  0  0  0  0
    5.7796  -17.6388   23.0335 O   0  0  0  0  0  0  0  0  0  0  0  0
    7.9681  -12.5202   21.0281 C   0  0  0  0  0  0  0  0  0  0  0  0
    8.3314  -13.9713   20.6805 C   0  0  2  0  0  0  0  0  0  0  0  0
    7.5635  -14.3403   19.4471 C   0  0  0  0  0  0  0  0  0  0  0  0
    7.9902  -14.7910   21.8716 C   0  0  0  0  0  0  0  0  0  0  0  0
    8.3297  -16.2518   21.7584 C   0  0  2  0  0  0  0  0  0  0  0  0
    7.9951  -16.8554   23.0227 N   0  0  0  0  0  0  0  0  0  0  0  0
    9.7685  -16.4939   21.4778 C   0  0  0  0  0  0  0  0  0  0  0  0
   10.0971  -17.0451   20.3978 O   0  0  0  0  0  0  0  0  0  0  0  0
   11.9316  -17.4064   19.9347 C   0  0  0  0  0  0  0  0  0  0  0  0
   12.7655  -16.8529   21.0472 C   0  0  1  0  0  0  0  0  0  0  0  0
   13.0845  -15.5248   20.7080 O   0  0  0  0  0  0  0  0  0  0  0  0
   12.0629  -16.8055   22.3665 C   0  0  2  0  0  0  0  0  0  0  0  0
   10.8088  -16.1398   22.3589 N   0  0  0  0  0  0  0  0  0  0  0  0
   13.0015  -16.1826   23.3504 C   0  0  0  0  0  0  0  0  0  0  0  0
   12.6958  -15.1319   23.9700 O   0  0  0  0  0  0  0  0  0  0  0  0
   14.2364  -16.7503   23.6047 O   0  0  0  0  0  0  0  0  0  0  0  0
  2  1  1  1
  2  3  1  0
  3  4  1  0
  4  9  2  0
  5  4  1  0
  5  6  2  0
  6  7  1  0
  7  8  2  0
  9  8  1  0
 10 17  1  0
 10  2  1  0
 11 10  2  0
 13 12  1  1
 13 15  1  0
 14 13  1  0
 16 15  1  1
 16 17  1  0
 18 16  1  0
 19 18  2  0
 21 20  1  6
 21 23  1  0
 21 22  1  0
 23 25  1  0
 23 24  1  6
 24 18  1  0
 25 27  1  0
 26 25  2  0
M  END
$$$$
