FLT.pdb
     RDKit          3D

 27 27  0  0  1  0  0  0  0  0999 V2000
    5.5076  -17.7515   24.7608 N   0  0  0  0  0  0  0  0  0  0  0  0
    6.2687  -16.5454   24.8755 C   0  0  1  0  0  0  0  0  0  0  0  0
    6.5616  -16.2627   26.3360 C   0  0  0  0  0  0  0  0  0  0  0  0
    6.6307  -14.7980   26.4999 C   0  0  0  0  0  0  0  0  0  0  0  0
    5.5486  -14.0048   26.1860 C   0  0  0  0  0  0  0  0  0  0  0  0
    5.6215  -12.6395   26.3419 C   0  0  0  0  0  0  0  0  0  0  0  0
    6.7800  -12.0532   26.8142 C   0  0  0  0  0  0  0  0  0  0  0  0
    7.8705  -12.8325   27.1324 C   0  0  0  0  0  0  0  0  0  0  0  0
    7.7826  -14.2179   26.9692 C   0  0  0  0  0  0  0  0  0  0  0  0
    7.5164  -16.5830   24.0645 C   0  0  0  0  0  0  0  0  0  0  0  0
    8.1025  -17.7111   23.9768 O   0  0  0  0  0  0  0  0  0  0  0  0
    7.3959  -14.6243   20.2204 C   0  0  0  0  0  0  0  0  0  0  0  0
    7.8482  -13.6642   21.3305 C   0  0  2  0  0  0  0  0  0  0  0  0
    7.8876  -12.2868   20.7403 C   0  0  0  0  0  0  0  0  0  0  0  0
    9.1676  -14.1555   21.8046 C   0  0  0  0  0  0  0  0  0  0  0  0
    9.1348  -15.4755   22.5247 C   0  0  2  0  0  0  0  0  0  0  0  0
    8.0159  -15.4272   23.4305 N   0  0  0  0  0  0  0  0  0  0  0  0
   10.3710  -15.7432   23.3041 C   0  0  0  0  0  0  0  0  0  0  0  0
   11.4775  -15.7616   22.7095 O   0  0  0  0  0  0  0  0  0  0  0  0
   11.3449  -14.2328   26.9753 C   0  0  0  0  0  0  0  0  0  0  0  0
   11.5622  -15.7069   26.8362 C   0  0  1  0  0  0  0  0  0  0  0  0
   10.4782  -16.3491   27.4631 O   0  0  0  0  0  0  0  0  0  0  0  0
   11.5878  -16.1855   25.4196 C   0  0  2  0  0  0  0  0  0  0  0  0
   10.3855  -15.9825   24.6921 N   0  0  0  0  0  0  0  0  0  0  0  0
   11.9697  -17.6313   25.4432 C   0  0  0  0  0  0  0  0  0  0  0  0
   11.1966  -18.5186   25.0004 O   0  0  0  0  0  0  0  0  0  0  0  0
   13.1904  -18.0306   25.9560 O   0  0  0  0  0  0  0  0  0  0  0  0
  2  1  1  1
  2  3  1  0
  3  4  1  0
  4  9  2  0
  5  4  1  0
  5  6  2  0
  6  7  1  0
  7  8  2  0
  9  8  1  0
 10 17  1  0
 10  2  1  0
 11 10  2  0
 13 12  1  6
 13 15  1  0
 14 13  1  0
 16 15  1  1
 16 17  1  0
 18 16  1  0
 19 18  2  0
 21 20  1  6
 21 23  1  0
 21 22  1  0
 23 25  1  0
 23 24  1  1
 24 18  1  0
 25 27  1  0
 26 25  2  0
M  END
$$$$
