FLT.pdb
     RDKit          3D

 27 27  0  0  1  0  0  0  0  0999 V2000
   11.2350  -16.8581   21.6940 N   0  0  0  0  0  0  0  0  0  0  0  0
   10.1795  -15.9010   21.8237 C   0  0  1  0  0  0  0  0  0  0  0  0
    8.9982  -16.3242   20.9726 C   0  0  0  0  0  0  0  0  0  0  0  0
    8.1759  -15.1243   20.7257 C   0  0  0  0  0  0  0  0  0  0  0  0
    8.7264  -14.0042   20.1420 C   0  0  0  0  0  0  0  0  0  0  0  0
    7.9523  -12.8892   19.9152 C   0  0  0  0  0  0  0  0  0  0  0  0
    6.6172  -12.8840   20.2709 C   0  0  0  0  0  0  0  0  0  0  0  0
    6.0520  -13.9961   20.8554 C   0  0  0  0  0  0  0  0  0  0  0  0
    6.8499  -15.1216   21.0799 C   0  0  0  0  0  0  0  0  0  0  0  0
    9.7822  -15.6837   23.2417 C   0  0  0  0  0  0  0  0  0  0  0  0
   10.3466  -16.4268   24.1095 O   0  0  0  0  0  0  0  0  0  0  0  0
    6.8634  -13.7837   27.1517 C   0  0  0  0  0  0  0  0  0  0  0  0
    7.2781  -12.6040   26.2600 C   0  0  2  0  0  0  0  0  0  0  0  0
    6.1288  -11.6421   26.2297 C   0  0  0  0  0  0  0  0  0  0  0  0
    7.6215  -13.1759   24.9326 C   0  0  0  0  0  0  0  0  0  0  0  0
    8.6718  -14.2523   24.9548 C   0  0  2  0  0  0  0  0  0  0  0  0
    8.8313  -14.7054   23.5969 N   0  0  0  0  0  0  0  0  0  0  0  0
    8.2980  -15.4113   25.8059 C   0  0  0  0  0  0  0  0  0  0  0  0
    8.1713  -15.2454   27.0447 O   0  0  0  0  0  0  0  0  0  0  0  0
    5.9192  -18.7328   24.6841 C   0  0  0  0  0  0  0  0  0  0  0  0
    7.1826  -19.0000   25.4405 C   0  0  1  0  0  0  0  0  0  0  0  0
    8.1531  -19.4000   24.5031 O   0  0  0  0  0  0  0  0  0  0  0  0
    7.7318  -17.8018   26.1471 C   0  0  2  0  0  0  0  0  0  0  0  0
    8.0719  -16.7089   25.3069 N   0  0  0  0  0  0  0  0  0  0  0  0
    8.9097  -18.2567   26.9486 C   0  0  0  0  0  0  0  0  0  0  0  0
   10.0459  -17.7419   26.7901 O   0  0  0  0  0  0  0  0  0  0  0  0
    8.7775  -19.2611   27.8898 O   0  0  0  0  0  0  0  0  0  0  0  0
  2  1  1  1
  2  3  1  0
  3  4  1  0
  4  9  2  0
  5  4  1  0
  5  6  2  0
  6  7  1  0
  7  8  2  0
  9  8  1  0
 10 17  1  0
 10  2  1  0
 11 10  2  0
 13 12  1  1
 13 15  1  0
 14 13  1  0
 16 15  1  6
 16 17  1  0
 18 16  1  0
 19 18  2  0
 21 20  1  6
 21 23  1  0
 21 22  1  0
 23 25  1  0
 23 24  1  6
 24 18  1  0
 25 27  1  0
 26 25  2  0
M  END
$$$$
