KEF.pdb
     RDKit          3D

 30 30  0  0  1  0  0  0  0  0999 V2000
    5.9104  -16.6090   21.4778 N   0  0  0  0  0  0  0  0  0  0  0  0
    7.1716  -15.9788   21.5846 C   0  0  1  0  0  0  0  0  0  0  0  0
    7.1422  -14.4632   21.6895 C   0  0  0  0  0  0  0  0  0  0  0  0
    6.9740  -13.7551   20.3993 C   0  0  0  0  0  0  0  0  0  0  0  0
    8.1853  -13.3477   19.6561 C   0  0  0  0  0  0  0  0  0  0  0  0
    7.8588  -12.6293   18.3790 C   0  0  0  0  0  0  0  0  0  0  0  0
    9.0143  -12.2224   17.6735 N   0  0  0  0  0  0  0  0  0  0  0  0
    8.0537  -16.5283   22.6610 C   0  0  0  0  0  0  0  0  0  0  0  0
    7.4985  -16.8976   23.7348 O   0  0  0  0  0  0  0  0  0  0  0  0
    9.4432  -16.6707   22.5861 N   0  0  0  0  0  0  0  0  0  0  0  0
   10.2208  -17.3023   23.6841 C   0  0  1  0  0  0  0  0  0  0  0  0
   11.5274  -17.6165   23.0386 C   0  0  0  0  0  0  0  0  0  0  0  0
   12.6100  -18.2146   23.8235 C   0  0  0  0  0  0  0  0  0  0  0  0
   13.8147  -18.4682   23.0057 C   0  0  0  0  0  0  0  0  0  0  0  0
   13.8777  -18.1409   21.7677 O   0  0  0  0  0  0  0  0  0  0  0  0
   10.2207  -16.4613   24.8776 C   0  0  0  0  0  0  0  0  0  0  0  0
   10.4010  -15.2250   24.7354 O   0  0  0  0  0  0  0  0  0  0  0  0
   14.9661  -19.0731   23.5101 O   0  0  0  0  0  0  0  0  0  0  0  0
   10.0308  -16.9355   26.1931 N   0  0  0  0  0  0  0  0  0  0  0  0
   10.0570  -16.0728   27.3467 C   0  0  1  0  0  0  0  0  0  0  0  0
    8.6614  -15.8745   27.9163 C   0  0  0  0  0  0  0  0  0  0  0  0
    7.9228  -14.7720   27.2428 C   0  0  0  0  0  0  0  0  0  0  0  0
    8.1428  -13.4454   27.5464 C   0  0  0  0  0  0  0  0  0  0  0  0
    7.4474  -12.4654   26.8770 C   0  0  0  0  0  0  0  0  0  0  0  0
    6.5137  -12.7394   25.8894 C   0  0  0  0  0  0  0  0  0  0  0  0
    6.3256  -14.0886   25.6182 C   0  0  0  0  0  0  0  0  0  0  0  0
    7.0035  -15.0808   26.2688 C   0  0  0  0  0  0  0  0  0  0  0  0
   11.0254  -16.5973   28.3088 C   0  0  0  0  0  0  0  0  0  0  0  0
   11.4240  -15.9551   29.4611 O   0  0  0  0  0  0  0  0  0  0  0  0
   11.5369  -17.7362   28.0567 O   0  0  0  0  0  0  0  0  0  0  0  0
  2  1  1  1
  2  3  1  0
  4  5  1  0
  4  3  1  0
  6  5  1  0
  7  6  1  0
  8  9  2  0
  8  2  1  0
 10  8  1  0
 11 10  1  0
 11 12  1  6
 13 12  1  0
 13 14  1  0
 14 15  2  0
 16 11  1  0
 16 19  1  0
 17 16  2  0
 18 14  1  0
 20 19  1  0
 20 28  1  0
 20 21  1  1
 21 22  1  0
 22 27  2  0
 23 22  1  0
 23 24  2  0
 24 25  1  0
 25 26  2  0
 27 26  1  0
 28 29  1  0
 30 28  2  0
M  END
$$$$
