KEF.pdb
     RDKit          3D

 30 30  0  0  1  0  0  0  0  0999 V2000
    8.4521  -14.6505   20.0970 N   0  0  0  0  0  0  0  0  0  0  0  0
    7.6742  -15.4848   20.9326 C   0  0  1  0  0  0  0  0  0  0  0  0
    6.8034  -16.5036   20.2166 C   0  0  0  0  0  0  0  0  0  0  0  0
    7.3807  -17.0413   18.9629 C   0  0  0  0  0  0  0  0  0  0  0  0
    6.6195  -18.0684   18.2204 C   0  0  0  0  0  0  0  0  0  0  0  0
    7.3634  -18.5753   17.0190 C   0  0  0  0  0  0  0  0  0  0  0  0
    6.6064  -19.4967   16.2598 N   0  0  0  0  0  0  0  0  0  0  0  0
    8.4429  -16.1719   22.0168 C   0  0  0  0  0  0  0  0  0  0  0  0
    7.8158  -16.9972   22.7401 O   0  0  0  0  0  0  0  0  0  0  0  0
    9.7989  -15.9824   22.3037 N   0  0  0  0  0  0  0  0  0  0  0  0
   10.5026  -16.8105   23.3177 C   0  0  1  0  0  0  0  0  0  0  0  0
   11.8885  -16.9059   22.7767 C   0  0  0  0  0  0  0  0  0  0  0  0
   12.1849  -17.8204   21.6714 C   0  0  0  0  0  0  0  0  0  0  0  0
   13.6174  -17.8076   21.3084 C   0  0  0  0  0  0  0  0  0  0  0  0
   14.4324  -16.9406   21.7858 O   0  0  0  0  0  0  0  0  0  0  0  0
   10.3172  -16.2658   24.6596 C   0  0  0  0  0  0  0  0  0  0  0  0
   10.9316  -15.2121   24.9651 O   0  0  0  0  0  0  0  0  0  0  0  0
   14.1908  -18.7284   20.4312 O   0  0  0  0  0  0  0  0  0  0  0  0
    9.4912  -16.8379   25.6506 N   0  0  0  0  0  0  0  0  0  0  0  0
    9.4136  -16.3259   26.9950 C   0  0  1  0  0  0  0  0  0  0  0  0
    8.0070  -15.8502   27.3215 C   0  0  0  0  0  0  0  0  0  0  0  0
    7.7346  -14.4813   26.8054 C   0  0  0  0  0  0  0  0  0  0  0  0
    6.8223  -14.2416   25.8000 C   0  0  0  0  0  0  0  0  0  0  0  0
    6.5935  -12.9532   25.3761 C   0  0  0  0  0  0  0  0  0  0  0  0
    7.2427  -11.8523   25.9136 C   0  0  0  0  0  0  0  0  0  0  0  0
    8.1520  -12.1427   26.9226 C   0  0  0  0  0  0  0  0  0  0  0  0
    8.3974  -13.4134   27.3614 C   0  0  0  0  0  0  0  0  0  0  0  0
    9.9314  -17.3358   27.9173 C   0  0  0  0  0  0  0  0  0  0  0  0
   10.3373  -18.6027   27.5576 O   0  0  0  0  0  0  0  0  0  0  0  0
   10.0107  -17.0138   29.1472 O   0  0  0  0  0  0  0  0  0  0  0  0
  2  1  1  6
  2  3  1  0
  4  5  1  0
  4  3  1  0
  6  5  1  0
  7  6  1  0
  8  9  2  0
  8  2  1  0
 10  8  1  0
 11 10  1  0
 11 12  1  6
 13 12  1  0
 13 14  1  0
 14 15  2  0
 16 11  1  0
 16 19  1  0
 17 16  2  0
 18 14  1  0
 20 19  1  0
 20 28  1  0
 20 21  1  1
 21 22  1  0
 22 27  2  0
 23 22  1  0
 23 24  2  0
 24 25  1  0
 25 26  2  0
 27 26  1  0
 28 29  1  0
 30 28  2  0
M  END
$$$$
