KEF.pdb
     RDKit          3D

 30 30  0  0  1  0  0  0  0  0999 V2000
    5.5114  -20.2656   21.6266 N   0  0  0  0  0  0  0  0  0  0  0  0
    5.7966  -19.4702   22.7603 C   0  0  1  0  0  0  0  0  0  0  0  0
    6.3113  -20.2208   23.9771 C   0  0  0  0  0  0  0  0  0  0  0  0
    5.3618  -21.2052   24.5463 C   0  0  0  0  0  0  0  0  0  0  0  0
    5.8342  -22.5865   24.7793 C   0  0  0  0  0  0  0  0  0  0  0  0
    4.7757  -23.4581   25.3904 C   0  0  0  0  0  0  0  0  0  0  0  0
    5.2146  -24.7869   25.5906 N   0  0  0  0  0  0  0  0  0  0  0  0
    6.6893  -18.2998   22.4918 C   0  0  0  0  0  0  0  0  0  0  0  0
    7.9199  -18.5342   22.3246 O   0  0  0  0  0  0  0  0  0  0  0  0
    6.2830  -16.9638   22.4089 N   0  0  0  0  0  0  0  0  0  0  0  0
    7.2614  -15.8648   22.1989 C   0  0  1  0  0  0  0  0  0  0  0  0
    6.5212  -14.9133   21.3220 C   0  0  0  0  0  0  0  0  0  0  0  0
    7.2115  -13.7582   20.7429 C   0  0  0  0  0  0  0  0  0  0  0  0
    8.1745  -14.1547   19.6943 C   0  0  0  0  0  0  0  0  0  0  0  0
    9.3253  -13.6006   19.5830 O   0  0  0  0  0  0  0  0  0  0  0  0
    7.7806  -15.3746   23.4725 C   0  0  0  0  0  0  0  0  0  0  0  0
    7.2831  -14.3253   23.9545 O   0  0  0  0  0  0  0  0  0  0  0  0
    7.9130  -15.1532   18.7559 O   0  0  0  0  0  0  0  0  0  0  0  0
    8.8092  -15.9963   24.2121 N   0  0  0  0  0  0  0  0  0  0  0  0
    9.2314  -15.5305   25.5084 C   0  0  1  0  0  0  0  0  0  0  0  0
    8.0754  -15.5314   26.4959 C   0  0  0  0  0  0  0  0  0  0  0  0
    7.3250  -14.2463   26.4954 C   0  0  0  0  0  0  0  0  0  0  0  0
    5.9569  -14.1928   26.3345 C   0  0  0  0  0  0  0  0  0  0  0  0
    5.3111  -12.9787   26.3642 C   0  0  0  0  0  0  0  0  0  0  0  0
    5.9713  -11.7739   26.5510 C   0  0  0  0  0  0  0  0  0  0  0  0
    7.3474  -11.8775   26.7081 C   0  0  0  0  0  0  0  0  0  0  0  0
    8.0125  -13.0710   26.6825 C   0  0  0  0  0  0  0  0  0  0  0  0
   10.3867  -16.3158   25.9410 C   0  0  0  0  0  0  0  0  0  0  0  0
   11.1083  -16.0935   27.0938 O   0  0  0  0  0  0  0  0  0  0  0  0
   10.7496  -17.2784   25.1899 O   0  0  0  0  0  0  0  0  0  0  0  0
  2  1  1  6
  2  3  1  0
  4  5  1  0
  4  3  1  0
  6  5  1  0
  7  6  1  0
  8  9  2  0
  8  2  1  0
 10  8  1  0
 11 10  1  0
 11 12  1  1
 13 12  1  0
 13 14  1  0
 14 15  2  0
 16 11  1  0
 16 19  1  0
 17 16  2  0
 18 14  1  0
 20 19  1  0
 20 28  1  0
 20 21  1  1
 21 22  1  0
 22 27  2  0
 23 22  1  0
 23 24  2  0
 24 25  1  0
 25 26  2  0
 27 26  1  0
 28 29  1  0
 30 28  2  0
M  END
$$$$
