KEF.pdb
     RDKit          3D

 30 30  0  0  1  0  0  0  0  0999 V2000
    7.2958  -19.1525   19.7361 N   0  0  0  0  0  0  0  0  0  0  0  0
    7.2944  -17.9646   20.5031 C   0  0  1  0  0  0  0  0  0  0  0  0
    5.9635  -17.5913   21.1341 C   0  0  0  0  0  0  0  0  0  0  0  0
    4.8330  -18.4753   20.7666 C   0  0  0  0  0  0  0  0  0  0  0  0
    3.4853  -18.1443   21.2761 C   0  0  0  0  0  0  0  0  0  0  0  0
    2.4414  -19.1159   20.8072 C   0  0  0  0  0  0  0  0  0  0  0  0
    2.0519  -18.8905   19.4671 N   0  0  0  0  0  0  0  0  0  0  0  0
    8.3678  -17.8931   21.5431 C   0  0  0  0  0  0  0  0  0  0  0  0
    8.3669  -18.7826   22.4410 O   0  0  0  0  0  0  0  0  0  0  0  0
    9.3766  -16.9264   21.6116 N   0  0  0  0  0  0  0  0  0  0  0  0
   10.4027  -16.9478   22.6866 C   0  0  1  0  0  0  0  0  0  0  0  0
   11.6213  -16.4263   22.0042 C   0  0  0  0  0  0  0  0  0  0  0  0
   12.8581  -16.2229   22.7623 C   0  0  0  0  0  0  0  0  0  0  0  0
   13.9514  -15.7048   21.9135 C   0  0  0  0  0  0  0  0  0  0  0  0
   14.1406  -16.1243   20.7168 O   0  0  0  0  0  0  0  0  0  0  0  0
    9.9259  -16.2556   23.8805 C   0  0  0  0  0  0  0  0  0  0  0  0
    9.2755  -15.1899   23.7314 O   0  0  0  0  0  0  0  0  0  0  0  0
   14.8513  -14.7280   22.3399 O   0  0  0  0  0  0  0  0  0  0  0  0
   10.1412  -16.6969   25.2035 N   0  0  0  0  0  0  0  0  0  0  0  0
    9.5586  -16.0464   26.3494 C   0  0  1  0  0  0  0  0  0  0  0  0
    8.0457  -15.9632   26.2236 C   0  0  0  0  0  0  0  0  0  0  0  0
    7.5405  -14.5683   26.3394 C   0  0  0  0  0  0  0  0  0  0  0  0
    8.2189  -13.5955   27.0423 C   0  0  0  0  0  0  0  0  0  0  0  0
    7.7173  -12.3160   27.0984 C   0  0  0  0  0  0  0  0  0  0  0  0
    6.5390  -11.9362   26.4741 C   0  0  0  0  0  0  0  0  0  0  0  0
    5.8909  -12.9490   25.7789 C   0  0  0  0  0  0  0  0  0  0  0  0
    6.3682  -14.2275   25.7081 C   0  0  0  0  0  0  0  0  0  0  0  0
   10.0206  -16.7199   27.5624 C   0  0  0  0  0  0  0  0  0  0  0  0
   10.0428  -16.1578   28.8205 O   0  0  0  0  0  0  0  0  0  0  0  0
   10.4336  -17.9186   27.4405 O   0  0  0  0  0  0  0  0  0  0  0  0
  2  1  1  1
  2  3  1  0
  4  5  1  0
  4  3  1  0
  6  5  1  0
  7  6  1  0
  8  9  2  0
  8  2  1  0
 10  8  1  0
 11 10  1  0
 11 12  1  6
 13 12  1  0
 13 14  1  0
 14 15  2  0
 16 11  1  0
 16 19  1  0
 17 16  2  0
 18 14  1  0
 20 19  1  0
 20 28  1  0
 20 21  1  6
 21 22  1  0
 22 27  2  0
 23 22  1  0
 23 24  2  0
 24 25  1  0
 25 26  2  0
 27 26  1  0
 28 29  1  0
 30 28  2  0
M  END
$$$$
