KEF.pdb
     RDKit          3D

 30 30  0  0  1  0  0  0  0  0999 V2000
    6.6889  -17.7052   19.8806 N   0  0  0  0  0  0  0  0  0  0  0  0
    7.9993  -17.2078   20.0672 C   0  0  1  0  0  0  0  0  0  0  0  0
    8.1198  -15.6967   20.1720 C   0  0  0  0  0  0  0  0  0  0  0  0
    7.8791  -14.9658   18.9062 C   0  0  0  0  0  0  0  0  0  0  0  0
    7.8891  -13.4878   18.9332 C   0  0  0  0  0  0  0  0  0  0  0  0
    7.5843  -12.8886   17.5909 C   0  0  0  0  0  0  0  0  0  0  0  0
    7.6730  -11.4777   17.5926 N   0  0  0  0  0  0  0  0  0  0  0  0
    8.7507  -17.8396   21.1964 C   0  0  0  0  0  0  0  0  0  0  0  0
    8.0782  -18.2454   22.1866 O   0  0  0  0  0  0  0  0  0  0  0  0
   10.1363  -18.0224   21.2553 N   0  0  0  0  0  0  0  0  0  0  0  0
   10.7879  -18.6567   22.4310 C   0  0  1  0  0  0  0  0  0  0  0  0
   12.0343  -19.2386   21.8562 C   0  0  0  0  0  0  0  0  0  0  0  0
   13.0096  -18.3733   21.1883 C   0  0  0  0  0  0  0  0  0  0  0  0
   14.1500  -19.1389   20.6428 C   0  0  0  0  0  0  0  0  0  0  0  0
   14.3957  -19.1900   19.3855 O   0  0  0  0  0  0  0  0  0  0  0  0
   10.9092  -17.7111   23.5368 C   0  0  0  0  0  0  0  0  0  0  0  0
   11.0424  -16.4906   23.2652 O   0  0  0  0  0  0  0  0  0  0  0  0
   15.0409  -19.8551   21.4423 O   0  0  0  0  0  0  0  0  0  0  0  0
   10.8872  -18.0665   24.9023 N   0  0  0  0  0  0  0  0  0  0  0  0
   11.0508  -17.1056   25.9632 C   0  0  1  0  0  0  0  0  0  0  0  0
    9.7133  -16.5153   26.3809 C   0  0  0  0  0  0  0  0  0  0  0  0
    9.8420  -15.5576   27.5126 C   0  0  0  0  0  0  0  0  0  0  0  0
   10.3352  -15.9345   28.7436 C   0  0  0  0  0  0  0  0  0  0  0  0
   10.4532  -15.0026   29.7483 C   0  0  0  0  0  0  0  0  0  0  0  0
   10.0962  -13.6719   29.5930 C   0  0  0  0  0  0  0  0  0  0  0  0
    9.6047  -13.3393   28.3373 C   0  0  0  0  0  0  0  0  0  0  0  0
    9.4775  -14.2461   27.3228 C   0  0  0  0  0  0  0  0  0  0  0  0
   11.7958  -17.7288   27.0565 C   0  0  0  0  0  0  0  0  0  0  0  0
   12.7897  -17.1153   27.7878 O   0  0  0  0  0  0  0  0  0  0  0  0
   11.4987  -18.9319   27.3507 O   0  0  0  0  0  0  0  0  0  0  0  0
  2  1  1  1
  2  3  1  0
  4  5  1  0
  4  3  1  0
  6  5  1  0
  7  6  1  0
  8  9  2  0
  8  2  1  0
 10  8  1  0
 11 10  1  0
 11 12  1  6
 13 12  1  0
 13 14  1  0
 14 15  2  0
 16 11  1  0
 16 19  1  0
 17 16  2  0
 18 14  1  0
 20 19  1  0
 20 28  1  0
 20 21  1  1
 21 22  1  0
 22 27  2  0
 23 22  1  0
 23 24  2  0
 24 25  1  0
 25 26  2  0
 27 26  1  0
 28 29  1  0
 30 28  2  0
M  END
$$$$
