AYY.pdb
     RDKit          3D

 30 31  0  0  1  0  0  0  0  0999 V2000
   38.0676   -3.9520   -9.8374 C   0  0  0  0  0  0  0  0  0  0  0  0
   38.6824   -5.2220   -9.2816 C   0  0  2  0  0  0  0  0  0  0  0  0
   39.9163   -4.9819   -8.5864 N   0  0  0  0  0  0  0  0  0  0  0  0
   38.8498   -6.1864  -10.3804 C   0  0  0  0  0  0  0  0  0  0  0  0
   39.8164   -5.9904  -11.1803 O   0  0  0  0  0  0  0  0  0  0  0  0
   42.3997  -10.6416   -7.4960 O   0  0  0  0  0  0  0  0  0  0  0  0
   41.3807  -10.4038   -8.4092 C   0  0  0  0  0  0  0  0  0  0  0  0
   41.5865  -10.4704   -9.7773 C   0  0  0  0  0  0  0  0  0  0  0  0
   40.5650  -10.2318  -10.6776 C   0  0  0  0  0  0  0  0  0  0  0  0
   39.3033   -9.9185  -10.2265 C   0  0  0  0  0  0  0  0  0  0  0  0
   38.1769   -9.6540  -11.1229 C   0  0  0  0  0  0  0  0  0  0  0  0
   38.1523   -8.2323  -11.6389 C   0  0  2  0  0  0  0  0  0  0  0  0
   37.9777   -7.2907  -10.5508 N   0  0  0  0  0  0  0  0  0  0  0  0
   36.9670   -8.1357  -12.5509 C   0  0  0  0  0  0  0  0  0  0  0  0
   35.8736   -7.6314  -12.1856 O   0  0  0  0  0  0  0  0  0  0  0  0
   39.1028   -9.8533   -8.8632 C   0  0  0  0  0  0  0  0  0  0  0  0
   40.1303  -10.0933   -7.9639 C   0  0  0  0  0  0  0  0  0  0  0  0
   31.5060   -5.5849  -18.5259 O   0  0  0  0  0  0  0  0  0  0  0  0
   32.4859   -5.9402  -17.5917 C   0  0  0  0  0  0  0  0  0  0  0  0
   32.1557   -6.4258  -16.3436 C   0  0  0  0  0  0  0  0  0  0  0  0
   33.1185   -6.7773  -15.4193 C   0  0  0  0  0  0  0  0  0  0  0  0
   34.4661   -6.6554  -15.7107 C   0  0  0  0  0  0  0  0  0  0  0  0
   35.5345   -7.0110  -14.7692 C   0  0  0  0  0  0  0  0  0  0  0  0
   35.9057   -8.4714  -14.7748 C   0  0  2  0  0  0  0  0  0  0  0  0
   37.0402   -8.6204  -13.8863 N   0  0  0  0  0  0  0  0  0  0  0  0
   36.2407   -9.0092  -16.0875 C   0  0  0  0  0  0  0  0  0  0  0  0
   37.4162   -8.9949  -16.5162 O   0  0  0  0  0  0  0  0  0  0  0  0
   34.7830   -6.1686  -16.9620 C   0  0  0  0  0  0  0  0  0  0  0  0
   33.8262   -5.8161  -17.8890 C   0  0  0  0  0  0  0  0  0  0  0  0
   35.2484   -9.5498  -16.8862 O   0  0  0  0  0  0  0  0  0  0  0  0
  2  1  1  6
  2  3  1  0
  4  2  1  0
  4 13  1  0
  5  4  2  0
  7 17  2  0
  7  6  1  0
  8  7  1  0
  9 10  1  0
  9  8  2  0
 10 16  2  0
 12 11  1  1
 11 10  1  0
 13 12  1  0
 14 15  2  0
 14 12  1  0
 16 17  1  0
 18 19  1  0
 19 20  2  0
 19 29  1  0
 20 21  1  0
 21 22  2  0
 22 23  1  0
 24 23  1  6
 24 25  1  0
 24 26  1  0
 25 14  1  0
 26 30  1  0
 27 26  2  0
 28 22  1  0
 29 28  2  0
M  END
$$$$
