AYY.pdb
     RDKit          3D

 30 31  0  0  1  0  0  0  0  0999 V2000
   25.4062  -16.1171  -15.6278 C   0  0  0  0  0  0  0  0  0  0  0  0
   25.9661  -17.2928  -16.4050 C   0  0  2  0  0  0  0  0  0  0  0  0
   25.2767  -17.5155  -17.6455 N   0  0  0  0  0  0  0  0  0  0  0  0
   25.9424  -18.4844  -15.5419 C   0  0  0  0  0  0  0  0  0  0  0  0
   24.8538  -19.1355  -15.4838 O   0  0  0  0  0  0  0  0  0  0  0  0
   28.1767  -23.7258  -19.2213 O   0  0  0  0  0  0  0  0  0  0  0  0
   28.2338  -23.0177  -18.0278 C   0  0  0  0  0  0  0  0  0  0  0  0
   28.9262  -21.8238  -17.9116 C   0  0  0  0  0  0  0  0  0  0  0  0
   28.9767  -21.1270  -16.7187 C   0  0  0  0  0  0  0  0  0  0  0  0
   28.3304  -21.6124  -15.6051 C   0  0  0  0  0  0  0  0  0  0  0  0
   28.3425  -20.9273  -14.3118 C   0  0  0  0  0  0  0  0  0  0  0  0
   27.0796  -20.1375  -14.0485 C   0  0  2  0  0  0  0  0  0  0  0  0
   27.0780  -18.8992  -14.8019 N   0  0  0  0  0  0  0  0  0  0  0  0
   27.0854  -19.8087  -12.5864 C   0  0  0  0  0  0  0  0  0  0  0  0
   27.9374  -19.0394  -12.0710 O   0  0  0  0  0  0  0  0  0  0  0  0
   27.6420  -22.8020  -15.7254 C   0  0  0  0  0  0  0  0  0  0  0  0
   27.5941  -23.4974  -16.9238 C   0  0  0  0  0  0  0  0  0  0  0  0
   19.8898  -21.2916  -11.2752 O   0  0  0  0  0  0  0  0  0  0  0  0
   21.1458  -20.7676  -10.9479 C   0  0  0  0  0  0  0  0  0  0  0  0
   21.6211  -20.7787   -9.6531 C   0  0  0  0  0  0  0  0  0  0  0  0
   22.8588  -20.2632   -9.3258 C   0  0  0  0  0  0  0  0  0  0  0  0
   23.6799  -19.7094  -10.2928 C   0  0  0  0  0  0  0  0  0  0  0  0
   25.0039  -19.1448  -10.0056 C   0  0  0  0  0  0  0  0  0  0  0  0
   26.1521  -20.0761  -10.2968 C   0  0  2  0  0  0  0  0  0  0  0  0
   26.1087  -20.3664  -11.7155 N   0  0  0  0  0  0  0  0  0  0  0  0
   26.1303  -21.3235   -9.5431 C   0  0  0  0  0  0  0  0  0  0  0  0
   26.2097  -21.3311   -8.2944 O   0  0  0  0  0  0  0  0  0  0  0  0
   23.1929  -19.7044  -11.5836 C   0  0  0  0  0  0  0  0  0  0  0  0
   21.9581  -20.2176  -11.9163 C   0  0  0  0  0  0  0  0  0  0  0  0
   26.0199  -22.5312  -10.2096 O   0  0  0  0  0  0  0  0  0  0  0  0
  2  1  1  1
  2  3  1  0
  4  2  1  0
  4 13  1  0
  5  4  2  0
  7 17  2  0
  7  6  1  0
  8  7  1  0
  9 10  1  0
  9  8  2  0
 10 16  2  0
 12 11  1  6
 11 10  1  0
 13 12  1  0
 14 15  2  0
 14 12  1  0
 16 17  1  0
 18 19  1  0
 19 20  2  0
 19 29  1  0
 20 21  1  0
 21 22  2  0
 22 23  1  0
 24 23  1  1
 24 25  1  0
 24 26  1  0
 25 14  1  0
 26 30  1  0
 27 26  2  0
 28 22  1  0
 29 28  2  0
M  END
$$$$
