AYY.pdb
     RDKit          3D

 30 31  0  0  1  0  0  0  0  0999 V2000
   25.3014  -19.2000  -19.4562 C   0  0  0  0  0  0  0  0  0  0  0  0
   26.1109  -20.4070  -19.0230 C   0  0  2  0  0  0  0  0  0  0  0  0
   26.0666  -21.4765  -19.9809 N   0  0  0  0  0  0  0  0  0  0  0  0
   25.6432  -20.8384  -17.6961 C   0  0  0  0  0  0  0  0  0  0  0  0
   24.5648  -21.5072  -17.6518 O   0  0  0  0  0  0  0  0  0  0  0  0
   24.7918  -20.9546   -8.8727 O   0  0  0  0  0  0  0  0  0  0  0  0
   25.2966  -20.8970  -10.1653 C   0  0  0  0  0  0  0  0  0  0  0  0
   25.4663  -22.0315  -10.9415 C   0  0  0  0  0  0  0  0  0  0  0  0
   25.9698  -21.9629  -12.2272 C   0  0  0  0  0  0  0  0  0  0  0  0
   26.3180  -20.7477  -12.7707 C   0  0  0  0  0  0  0  0  0  0  0  0
   26.8565  -20.6023  -14.1239 C   0  0  0  0  0  0  0  0  0  0  0  0
   25.8253  -20.8546  -15.2015 C   0  0  2  0  0  0  0  0  0  0  0  0
   26.3555  -20.5281  -16.5105 N   0  0  0  0  0  0  0  0  0  0  0  0
   24.6763  -19.9385  -14.9079 C   0  0  0  0  0  0  0  0  0  0  0  0
   24.7500  -18.6921  -15.0635 O   0  0  0  0  0  0  0  0  0  0  0  0
   26.1472  -19.6203  -11.9940 C   0  0  0  0  0  0  0  0  0  0  0  0
   25.6420  -19.6939  -10.7051 C   0  0  0  0  0  0  0  0  0  0  0  0
   18.4584  -21.3898  -18.5704 O   0  0  0  0  0  0  0  0  0  0  0  0
   19.3247  -20.7309  -17.6902 C   0  0  0  0  0  0  0  0  0  0  0  0
   20.6777  -20.6349  -17.9406 C   0  0  0  0  0  0  0  0  0  0  0  0
   21.5355  -19.9862  -17.0755 C   0  0  0  0  0  0  0  0  0  0  0  0
   21.0679  -19.4010  -15.9116 C   0  0  0  0  0  0  0  0  0  0  0  0
   21.9308  -18.7000  -14.9534 C   0  0  0  0  0  0  0  0  0  0  0  0
   22.4595  -19.5701  -13.8426 C   0  0  2  0  0  0  0  0  0  0  0  0
   23.4397  -20.4579  -14.4340 N   0  0  0  0  0  0  0  0  0  0  0  0
   21.4458  -20.3556  -13.1497 C   0  0  0  0  0  0  0  0  0  0  0  0
   20.5016  -19.8065  -12.5392 O   0  0  0  0  0  0  0  0  0  0  0  0
   19.7130  -19.5041  -15.6729 C   0  0  0  0  0  0  0  0  0  0  0  0
   18.8517  -20.1504  -16.5329 C   0  0  0  0  0  0  0  0  0  0  0  0
   21.5170  -21.7375  -13.1592 O   0  0  0  0  0  0  0  0  0  0  0  0
  2  1  1  6
  2  3  1  0
  4  2  1  0
  4 13  1  0
  5  4  2  0
  7 17  2  0
  7  6  1  0
  8  7  1  0
  9 10  1  0
  9  8  2  0
 10 16  2  0
 12 11  1  1
 11 10  1  0
 13 12  1  0
 14 15  2  0
 14 12  1  0
 16 17  1  0
 18 19  1  0
 19 20  2  0
 19 29  1  0
 20 21  1  0
 21 22  2  0
 22 23  1  0
 24 23  1  6
 24 25  1  0
 24 26  1  0
 25 14  1  0
 26 30  1  0
 27 26  2  0
 28 22  1  0
 29 28  2  0
M  END
$$$$
