AYY.pdb
     RDKit          3D

 30 31  0  0  1  0  0  0  0  0999 V2000
   26.2949  -20.7689  -16.8894 C   0  0  0  0  0  0  0  0  0  0  0  0
   27.1751  -21.2320  -15.7446 C   0  0  2  0  0  0  0  0  0  0  0  0
   27.9791  -22.3713  -16.0898 N   0  0  0  0  0  0  0  0  0  0  0  0
   26.3260  -21.4942  -14.5717 C   0  0  0  0  0  0  0  0  0  0  0  0
   25.8814  -22.6753  -14.4314 O   0  0  0  0  0  0  0  0  0  0  0  0
   30.8824  -21.4125   -9.6925 O   0  0  0  0  0  0  0  0  0  0  0  0
   29.5869  -21.0681  -10.0558 C   0  0  0  0  0  0  0  0  0  0  0  0
   28.4992  -21.3239   -9.2373 C   0  0  0  0  0  0  0  0  0  0  0  0
   27.2136  -20.9768   -9.6087 C   0  0  0  0  0  0  0  0  0  0  0  0
   26.9844  -20.3608  -10.8177 C   0  0  0  0  0  0  0  0  0  0  0  0
   25.6506  -19.9668  -11.2736 C   0  0  0  0  0  0  0  0  0  0  0  0
   25.1790  -20.7552  -12.4753 C   0  0  2  0  0  0  0  0  0  0  0  0
   26.0100  -20.4819  -13.6311 N   0  0  0  0  0  0  0  0  0  0  0  0
   23.7854  -20.2871  -12.7658 C   0  0  0  0  0  0  0  0  0  0  0  0
   23.5455  -19.1789  -13.3113 O   0  0  0  0  0  0  0  0  0  0  0  0
   28.0707  -20.1080  -11.6297 C   0  0  0  0  0  0  0  0  0  0  0  0
   29.3583  -20.4578  -11.2530 C   0  0  0  0  0  0  0  0  0  0  0  0
   21.3890  -25.5157  -17.1194 O   0  0  0  0  0  0  0  0  0  0  0  0
   21.3596  -24.3005  -16.4252 C   0  0  0  0  0  0  0  0  0  0  0  0
   20.2369  -23.8833  -15.7412 C   0  0  0  0  0  0  0  0  0  0  0  0
   20.2035  -22.6860  -15.0554 C   0  0  0  0  0  0  0  0  0  0  0  0
   21.3053  -21.8487  -15.0265 C   0  0  0  0  0  0  0  0  0  0  0  0
   21.3291  -20.5642  -14.3168 C   0  0  0  0  0  0  0  0  0  0  0  0
   21.3310  -20.6852  -12.8148 C   0  0  2  0  0  0  0  0  0  0  0  0
   22.6652  -21.0961  -12.4277 N   0  0  0  0  0  0  0  0  0  0  0  0
   20.3562  -21.6270  -12.2788 C   0  0  0  0  0  0  0  0  0  0  0  0
   20.7138  -22.7002  -11.7438 O   0  0  0  0  0  0  0  0  0  0  0  0
   22.4215  -22.2776  -15.7145 C   0  0  0  0  0  0  0  0  0  0  0  0
   22.4609  -23.4719  -16.4009 C   0  0  0  0  0  0  0  0  0  0  0  0
   19.0045  -21.3410  -12.3565 O   0  0  0  0  0  0  0  0  0  0  0  0
  2  1  1  6
  2  3  1  0
  4  2  1  0
  4 13  1  0
  5  4  2  0
  7 17  2  0
  7  6  1  0
  8  7  1  0
  9 10  1  0
  9  8  2  0
 10 16  2  0
 12 11  1  1
 11 10  1  0
 13 12  1  0
 14 15  2  0
 14 12  1  0
 16 17  1  0
 18 19  1  0
 19 20  2  0
 19 29  1  0
 20 21  1  0
 21 22  2  0
 22 23  1  0
 24 23  1  6
 24 25  1  0
 24 26  1  0
 25 14  1  0
 26 30  1  0
 27 26  2  0
 28 22  1  0
 29 28  2  0
M  END
$$$$
