AYY.pdb
     RDKit          3D

 30 31  0  0  1  0  0  0  0  0999 V2000
   20.8900  -11.0440  -21.8149 C   0  0  0  0  0  0  0  0  0  0  0  0
   21.7886  -11.6519  -20.7552 C   0  0  2  0  0  0  0  0  0  0  0  0
   21.8240  -13.0867  -20.8155 N   0  0  0  0  0  0  0  0  0  0  0  0
   21.3560  -11.1683  -19.4344 C   0  0  0  0  0  0  0  0  0  0  0  0
   20.2434  -11.5964  -18.9972 O   0  0  0  0  0  0  0  0  0  0  0  0
   21.5618   -7.4955  -11.3882 O   0  0  0  0  0  0  0  0  0  0  0  0
   21.8972   -7.9704  -12.6496 C   0  0  0  0  0  0  0  0  0  0  0  0
   22.1351   -9.3132  -12.8923 C   0  0  0  0  0  0  0  0  0  0  0  0
   22.4684   -9.7754  -14.1518 C   0  0  0  0  0  0  0  0  0  0  0  0
   22.5723   -8.8977  -15.2065 C   0  0  0  0  0  0  0  0  0  0  0  0
   22.9211   -9.3179  -16.5645 C   0  0  0  0  0  0  0  0  0  0  0  0
   21.7390   -9.8568  -17.3393 C   0  0  2  0  0  0  0  0  0  0  0  0
   22.1371  -10.2637  -18.6723 N   0  0  0  0  0  0  0  0  0  0  0  0
   20.7610   -8.7273  -17.4552 C   0  0  0  0  0  0  0  0  0  0  0  0
   20.9045   -7.7927  -18.2854 O   0  0  0  0  0  0  0  0  0  0  0  0
   22.3346   -7.5612  -14.9602 C   0  0  0  0  0  0  0  0  0  0  0  0
   22.0005   -7.1022  -13.6953 C   0  0  0  0  0  0  0  0  0  0  0  0
   14.6630  -12.1388  -14.7190 O   0  0  0  0  0  0  0  0  0  0  0  0
   15.3610  -11.1257  -15.3866 C   0  0  0  0  0  0  0  0  0  0  0  0
   16.0980  -11.3812  -16.5242 C   0  0  0  0  0  0  0  0  0  0  0  0
   16.7877  -10.3854  -17.1856 C   0  0  0  0  0  0  0  0  0  0  0  0
   16.7671   -9.0787  -16.7295 C   0  0  0  0  0  0  0  0  0  0  0  0
   17.4812   -7.9786  -17.3886 C   0  0  0  0  0  0  0  0  0  0  0  0
   18.7275   -7.5297  -16.6706 C   0  0  2  0  0  0  0  0  0  0  0  0
   19.6152   -8.6731  -16.6139 N   0  0  0  0  0  0  0  0  0  0  0  0
   18.5037   -7.0191  -15.3238 C   0  0  0  0  0  0  0  0  0  0  0  0
   18.8899   -7.6512  -14.3154 O   0  0  0  0  0  0  0  0  0  0  0  0
   16.0266   -8.8365  -15.5911 C   0  0  0  0  0  0  0  0  0  0  0  0
   15.3359   -9.8266  -14.9264 C   0  0  0  0  0  0  0  0  0  0  0  0
   17.8521   -5.8119  -15.1424 O   0  0  0  0  0  0  0  0  0  0  0  0
  2  1  1  6
  2  3  1  0
  4  2  1  0
  4 13  1  0
  5  4  2  0
  7 17  2  0
  7  6  1  0
  8  7  1  0
  9 10  1  0
  9  8  2  0
 10 16  2  0
 12 11  1  1
 11 10  1  0
 13 12  1  0
 14 15  2  0
 14 12  1  0
 16 17  1  0
 18 19  1  0
 19 20  2  0
 19 29  1  0
 20 21  1  0
 21 22  2  0
 22 23  1  0
 24 23  1  1
 24 25  1  0
 24 26  1  0
 25 14  1  0
 26 30  1  0
 27 26  2  0
 28 22  1  0
 29 28  2  0
M  END
$$$$
