AYY.pdb
     RDKit          3D

 30 31  0  0  1  0  0  0  0  0999 V2000
   38.9455  -29.9314  -22.5407 C   0  0  0  0  0  0  0  0  0  0  0  0
   39.8492  -29.3993  -21.4454 C   0  0  2  0  0  0  0  0  0  0  0  0
   41.2420  -29.4820  -21.7874 N   0  0  0  0  0  0  0  0  0  0  0  0
   39.5475  -30.1138  -20.1948 C   0  0  0  0  0  0  0  0  0  0  0  0
   39.9599  -31.3109  -20.0982 O   0  0  0  0  0  0  0  0  0  0  0  0
   44.5832  -28.4525  -16.3267 O   0  0  0  0  0  0  0  0  0  0  0  0
   43.2178  -28.6922  -16.4118 C   0  0  0  0  0  0  0  0  0  0  0  0
   42.6642  -29.9217  -16.0953 C   0  0  0  0  0  0  0  0  0  0  0  0
   41.3035  -30.1496  -16.1836 C   0  0  0  0  0  0  0  0  0  0  0  0
   40.4581  -29.1443  -16.5939 C   0  0  0  0  0  0  0  0  0  0  0  0
   39.0092  -29.3163  -16.7100 C   0  0  0  0  0  0  0  0  0  0  0  0
   38.6087  -30.1904  -17.8777 C   0  0  2  0  0  0  0  0  0  0  0  0
   38.8287  -29.5048  -19.1357 N   0  0  0  0  0  0  0  0  0  0  0  0
   37.1409  -30.4512  -17.7246 C   0  0  0  0  0  0  0  0  0  0  0  0
   36.2673  -29.6104  -18.0607 O   0  0  0  0  0  0  0  0  0  0  0  0
   41.0139  -27.9214  -16.9081 C   0  0  0  0  0  0  0  0  0  0  0  0
   42.3791  -27.6974  -16.8181 C   0  0  0  0  0  0  0  0  0  0  0  0
   36.5079  -33.9732  -11.1753 O   0  0  0  0  0  0  0  0  0  0  0  0
   36.1504  -33.8302  -12.5210 C   0  0  0  0  0  0  0  0  0  0  0  0
   34.8311  -33.7611  -12.9174 C   0  0  0  0  0  0  0  0  0  0  0  0
   34.4740  -33.6201  -14.2431 C   0  0  0  0  0  0  0  0  0  0  0  0
   35.4344  -33.5418  -15.2367 C   0  0  0  0  0  0  0  0  0  0  0  0
   35.1162  -33.3934  -16.6619 C   0  0  0  0  0  0  0  0  0  0  0  0
   35.2614  -31.9886  -17.1870 C   0  0  2  0  0  0  0  0  0  0  0  0
   36.6774  -31.6825  -17.1836 N   0  0  0  0  0  0  0  0  0  0  0  0
   34.5420  -30.9762  -16.4241 C   0  0  0  0  0  0  0  0  0  0  0  0
   35.1483  -30.1441  -15.7129 O   0  0  0  0  0  0  0  0  0  0  0  0
   36.7499  -33.6122  -14.8272 C   0  0  0  0  0  0  0  0  0  0  0  0
   37.1125  -33.7529  -13.5051 C   0  0  0  0  0  0  0  0  0  0  0  0
   33.1603  -30.9227  -16.4784 O   0  0  0  0  0  0  0  0  0  0  0  0
  2  1  1  6
  2  3  1  0
  4  2  1  0
  4 13  1  0
  5  4  2  0
  7 17  2  0
  7  6  1  0
  8  7  1  0
  9 10  1  0
  9  8  2  0
 10 16  2  0
 12 11  1  1
 11 10  1  0
 13 12  1  0
 14 15  2  0
 14 12  1  0
 16 17  1  0
 18 19  1  0
 19 20  2  0
 19 29  1  0
 20 21  1  0
 21 22  2  0
 22 23  1  0
 24 23  1  1
 24 25  1  0
 24 26  1  0
 25 14  1  0
 26 30  1  0
 27 26  2  0
 28 22  1  0
 29 28  2  0
M  END
$$$$
