AYY.pdb
     RDKit          3D

 30 31  0  0  1  0  0  0  0  0999 V2000
   25.5874  -23.1972  -18.5354 C   0  0  0  0  0  0  0  0  0  0  0  0
   26.3254  -23.7608  -17.3365 C   0  0  2  0  0  0  0  0  0  0  0  0
   26.5073  -25.1835  -17.4164 N   0  0  0  0  0  0  0  0  0  0  0  0
   25.6096  -23.3666  -16.1126 C   0  0  0  0  0  0  0  0  0  0  0  0
   24.5492  -24.0057  -15.8310 O   0  0  0  0  0  0  0  0  0  0  0  0
   23.9007  -20.0500   -8.1139 O   0  0  0  0  0  0  0  0  0  0  0  0
   24.4707  -20.3248   -9.3503 C   0  0  0  0  0  0  0  0  0  0  0  0
   24.0631  -19.6840  -10.5086 C   0  0  0  0  0  0  0  0  0  0  0  0
   24.6373  -19.9651  -11.7343 C   0  0  0  0  0  0  0  0  0  0  0  0
   25.6408  -20.9018  -11.8306 C   0  0  0  0  0  0  0  0  0  0  0  0
   26.2919  -21.2483  -13.0948 C   0  0  0  0  0  0  0  0  0  0  0  0
   25.3681  -21.9546  -14.0622 C   0  0  2  0  0  0  0  0  0  0  0  0
   26.0722  -22.3207  -15.2752 N   0  0  0  0  0  0  0  0  0  0  0  0
   24.2920  -20.9717  -14.4110 C   0  0  0  0  0  0  0  0  0  0  0  0
   24.4981  -19.9836  -15.1623 O   0  0  0  0  0  0  0  0  0  0  0  0
   26.0435  -21.5376  -10.6744 C   0  0  0  0  0  0  0  0  0  0  0  0
   25.4648  -21.2524   -9.4472 C   0  0  0  0  0  0  0  0  0  0  0  0
   17.9801  -24.1795  -17.2239 O   0  0  0  0  0  0  0  0  0  0  0  0
   18.9067  -23.2028  -16.8407 C   0  0  0  0  0  0  0  0  0  0  0  0
   20.2649  -23.4413  -16.8686 C   0  0  0  0  0  0  0  0  0  0  0  0
   21.1821  -22.4813  -16.4916 C   0  0  0  0  0  0  0  0  0  0  0  0
   20.7716  -21.2296  -16.0667 C   0  0  0  0  0  0  0  0  0  0  0  0
   21.6987  -20.1699  -15.6522 C   0  0  0  0  0  0  0  0  0  0  0  0
   21.9663  -20.1244  -14.1701 C   0  0  2  0  0  0  0  0  0  0  0  0
   22.9758  -21.1261  -13.8940 N   0  0  0  0  0  0  0  0  0  0  0  0
   20.7979  -20.3662  -13.3328 C   0  0  0  0  0  0  0  0  0  0  0  0
   20.7117  -21.3872  -12.6147 O   0  0  0  0  0  0  0  0  0  0  0  0
   19.4109  -21.0039  -16.0433 C   0  0  0  0  0  0  0  0  0  0  0  0
   18.4904  -21.9584  -16.4185 C   0  0  0  0  0  0  0  0  0  0  0  0
   19.7555  -19.4562  -13.3224 O   0  0  0  0  0  0  0  0  0  0  0  0
  2  1  1  6
  2  3  1  0
  4  2  1  0
  4 13  1  0
  5  4  2  0
  7 17  2  0
  7  6  1  0
  8  7  1  0
  9 10  1  0
  9  8  2  0
 10 16  2  0
 12 11  1  1
 11 10  1  0
 13 12  1  0
 14 15  2  0
 14 12  1  0
 16 17  1  0
 18 19  1  0
 19 20  2  0
 19 29  1  0
 20 21  1  0
 21 22  2  0
 22 23  1  0
 24 23  1  6
 24 25  1  0
 24 26  1  0
 25 14  1  0
 26 30  1  0
 27 26  2  0
 28 22  1  0
 29 28  2  0
M  END
$$$$
