AYY.pdb
     RDKit          3D

 30 31  0  0  1  0  0  0  0  0999 V2000
   30.0382  -37.2717   -7.0515 C   0  0  0  0  0  0  0  0  0  0  0  0
   31.3890  -36.6149   -7.2602 C   0  0  2  0  0  0  0  0  0  0  0  0
   32.2259  -37.3464   -8.1702 N   0  0  0  0  0  0  0  0  0  0  0  0
   32.0326  -36.4305   -5.9497 C   0  0  0  0  0  0  0  0  0  0  0  0
   32.9676  -37.2342   -5.6458 O   0  0  0  0  0  0  0  0  0  0  0  0
   35.9078  -32.5308    0.8169 O   0  0  0  0  0  0  0  0  0  0  0  0
   35.1539  -32.8173   -0.3139 C   0  0  0  0  0  0  0  0  0  0  0  0
   33.7917  -32.5739   -0.3726 C   0  0  0  0  0  0  0  0  0  0  0  0
   33.0506  -32.8629   -1.5033 C   0  0  0  0  0  0  0  0  0  0  0  0
   33.6603  -33.4065   -2.6107 C   0  0  0  0  0  0  0  0  0  0  0  0
   32.9372  -33.7369   -3.8396 C   0  0  0  0  0  0  0  0  0  0  0  0
   32.3709  -35.1395   -3.8342 C   0  0  2  0  0  0  0  0  0  0  0  0
   31.6362  -35.4048   -5.0553 N   0  0  0  0  0  0  0  0  0  0  0  0
   31.4190  -35.2051   -2.6786 C   0  0  0  0  0  0  0  0  0  0  0  0
   30.1977  -34.9249   -2.7934 O   0  0  0  0  0  0  0  0  0  0  0  0
   35.0172  -33.6472   -2.5478 C   0  0  0  0  0  0  0  0  0  0  0  0
   35.7564  -33.3558   -1.4116 C   0  0  0  0  0  0  0  0  0  0  0  0
   26.0811  -37.6059    3.4914 O   0  0  0  0  0  0  0  0  0  0  0  0
   26.9982  -37.3384    2.4683 C   0  0  0  0  0  0  0  0  0  0  0  0
   26.8990  -36.2091    1.6826 C   0  0  0  0  0  0  0  0  0  0  0  0
   27.8010  -35.9413    0.6728 C   0  0  0  0  0  0  0  0  0  0  0  0
   28.8506  -36.8034    0.4060 C   0  0  0  0  0  0  0  0  0  0  0  0
   29.8391  -36.5733   -0.6543 C   0  0  0  0  0  0  0  0  0  0  0  0
   30.9488  -35.6279   -0.2734 C   0  0  2  0  0  0  0  0  0  0  0  0
   31.8736  -35.5940   -1.3880 N   0  0  0  0  0  0  0  0  0  0  0  0
   31.6652  -35.9889    0.9435 C   0  0  0  0  0  0  0  0  0  0  0  0
   31.0849  -36.0351    2.0512 O   0  0  0  0  0  0  0  0  0  0  0  0
   28.9384  -37.9290    1.1988 C   0  0  0  0  0  0  0  0  0  0  0  0
   28.0410  -38.2016    2.2084 C   0  0  0  0  0  0  0  0  0  0  0  0
   33.0149  -36.2891    0.8871 O   0  0  0  0  0  0  0  0  0  0  0  0
  2  1  1  1
  2  3  1  0
  4  2  1  0
  4 13  1  0
  5  4  2  0
  7 17  2  0
  7  6  1  0
  8  7  1  0
  9 10  1  0
  9  8  2  0
 10 16  2  0
 12 11  1  6
 11 10  1  0
 13 12  1  0
 14 15  2  0
 14 12  1  0
 16 17  1  0
 18 19  1  0
 19 20  2  0
 19 29  1  0
 20 21  1  0
 21 22  2  0
 22 23  1  0
 24 23  1  6
 24 25  1  0
 24 26  1  0
 25 14  1  0
 26 30  1  0
 27 26  2  0
 28 22  1  0
 29 28  2  0
M  END
$$$$
