AYY.pdb
     RDKit          3D

 30 31  0  0  1  0  0  0  0  0999 V2000
   26.7820  -10.7609  -15.3345 C   0  0  0  0  0  0  0  0  0  0  0  0
   26.3482  -10.8458  -16.7852 C   0  0  2  0  0  0  0  0  0  0  0  0
   27.3587  -10.3801  -17.6937 N   0  0  0  0  0  0  0  0  0  0  0  0
   25.0846  -10.1086  -16.9445 C   0  0  0  0  0  0  0  0  0  0  0  0
   25.1667   -8.8662  -17.1938 O   0  0  0  0  0  0  0  0  0  0  0  0
   16.4526   -8.4201  -18.0429 O   0  0  0  0  0  0  0  0  0  0  0  0
   17.6851   -9.0376  -17.8739 C   0  0  0  0  0  0  0  0  0  0  0  0
   18.6988   -8.9285  -18.8113 C   0  0  0  0  0  0  0  0  0  0  0  0
   19.9221   -9.5474  -18.6332 C   0  0  0  0  0  0  0  0  0  0  0  0
   20.1616  -10.2960  -17.5036 C   0  0  0  0  0  0  0  0  0  0  0  0
   21.4319  -10.9776  -17.2512 C   0  0  0  0  0  0  0  0  0  0  0  0
   22.5871  -10.0217  -17.0515 C   0  0  2  0  0  0  0  0  0  0  0  0
   23.8233  -10.7448  -16.8276 N   0  0  0  0  0  0  0  0  0  0  0  0
   22.2680   -9.2262  -15.8222 C   0  0  0  0  0  0  0  0  0  0  0  0
   22.4331   -9.6825  -14.6613 O   0  0  0  0  0  0  0  0  0  0  0  0
   19.1490  -10.4019  -16.5726 C   0  0  0  0  0  0  0  0  0  0  0  0
   17.9237   -9.7795  -16.7555 C   0  0  0  0  0  0  0  0  0  0  0  0
   25.4947   -2.7648  -17.2231 O   0  0  0  0  0  0  0  0  0  0  0  0
   24.8109   -3.7196  -16.4615 C   0  0  0  0  0  0  0  0  0  0  0  0
   23.7367   -3.3790  -15.6662 C   0  0  0  0  0  0  0  0  0  0  0  0
   23.0596   -4.3171  -14.9137 C   0  0  0  0  0  0  0  0  0  0  0  0
   23.4350   -5.6493  -14.9272 C   0  0  0  0  0  0  0  0  0  0  0  0
   22.7555   -6.6911  -14.1479 C   0  0  0  0  0  0  0  0  0  0  0  0
   21.4443   -7.1477  -14.7331 C   0  0  2  0  0  0  0  0  0  0  0  0
   21.7577   -7.9027  -15.9292 N   0  0  0  0  0  0  0  0  0  0  0  0
   20.5181   -6.0721  -15.0644 C   0  0  0  0  0  0  0  0  0  0  0  0
   20.0656   -5.3080  -14.1829 O   0  0  0  0  0  0  0  0  0  0  0  0
   24.5107   -5.9768  -15.7265 C   0  0  0  0  0  0  0  0  0  0  0  0
   25.1906   -5.0446  -16.4800 C   0  0  0  0  0  0  0  0  0  0  0  0
   20.1227   -5.8808  -16.3767 O   0  0  0  0  0  0  0  0  0  0  0  0
  2  1  1  1
  2  3  1  0
  4  2  1  0
  4 13  1  0
  5  4  2  0
  7 17  2  0
  7  6  1  0
  8  7  1  0
  9 10  1  0
  9  8  2  0
 10 16  2  0
 12 11  1  1
 11 10  1  0
 13 12  1  0
 14 15  2  0
 14 12  1  0
 16 17  1  0
 18 19  1  0
 19 20  2  0
 19 29  1  0
 20 21  1  0
 21 22  2  0
 22 23  1  0
 24 23  1  6
 24 25  1  0
 24 26  1  0
 25 14  1  0
 26 30  1  0
 27 26  2  0
 28 22  1  0
 29 28  2  0
M  END
$$$$
