QQQ.pdb
     RDKit          3D

 28 27  0  0  1  0  0  0  0  0999 V2000
   13.1382  -11.0470  -16.8799 N   0  0  0  0  0  0  0  0  0  0  0  0
   13.3905  -12.1464  -16.0309 C   0  0  0  0  0  0  0  0  0  0  0  0
   12.5409  -13.0308  -15.8876 O   0  0  0  0  0  0  0  0  0  0  0  0
   14.7013  -12.2114  -15.3163 C   0  0  0  0  0  0  0  0  0  0  0  0
   15.4468  -10.9207  -15.5211 C   0  0  0  0  0  0  0  0  0  0  0  0
   16.8648  -10.9621  -15.0171 C   0  0  2  0  0  0  0  0  0  0  0  0
   16.9906  -12.0377  -14.0328 N   0  0  0  0  0  0  0  0  0  0  0  0
   17.2131   -9.6597  -14.4152 C   0  0  0  0  0  0  0  0  0  0  0  0
   17.1298   -8.6290  -15.1269 O   0  0  0  0  0  0  0  0  0  0  0  0
   16.0078   -7.6968   -8.5902 N   0  0  0  0  0  0  0  0  0  0  0  0
   16.8906   -6.6783   -9.0618 C   0  0  0  0  0  0  0  0  0  0  0  0
   17.1044   -5.7191   -8.3230 O   0  0  0  0  0  0  0  0  0  0  0  0
   17.4687   -6.8486  -10.3748 C   0  0  0  0  0  0  0  0  0  0  0  0
   17.2189   -8.0709  -11.1527 C   0  0  0  0  0  0  0  0  0  0  0  0
   17.8932   -8.2375  -12.4694 C   0  0  2  0  0  0  0  0  0  0  0  0
   17.6373   -9.5146  -13.0730 N   0  0  0  0  0  0  0  0  0  0  0  0
   19.2900   -7.7774  -12.5413 C   0  0  0  0  0  0  0  0  0  0  0  0
   20.1696   -8.4509  -11.9256 O   0  0  0  0  0  0  0  0  0  0  0  0
   22.7726   -6.0016  -17.1844 N   0  0  0  0  0  0  0  0  0  0  0  0
   21.6652   -5.1704  -16.8861 C   0  0  0  0  0  0  0  0  0  0  0  0
   21.2291   -4.4070  -17.7517 O   0  0  0  0  0  0  0  0  0  0  0  0
   21.0853   -5.2667  -15.5286 C   0  0  0  0  0  0  0  0  0  0  0  0
   21.6890   -6.3110  -14.6578 C   0  0  0  0  0  0  0  0  0  0  0  0
   21.1800   -6.2598  -13.2475 C   0  0  2  0  0  0  0  0  0  0  0  0
   19.7479   -6.6336  -13.2455 N   0  0  0  0  0  0  0  0  0  0  0  0
   21.3524   -4.9239  -12.6408 C   0  0  0  0  0  0  0  0  0  0  0  0
   20.4334   -4.1296  -12.3505 O   0  0  0  0  0  0  0  0  0  0  0  0
   22.6449   -4.4882  -12.3577 O   0  0  0  0  0  0  0  0  0  0  0  0
  2  1  1  0
  2  3  2  0
  4  2  1  0
  5  4  1  0
  6  7  1  1
  6  5  1  0
  8  6  1  0
  9  8  2  0
 11 10  1  0
 11 12  2  0
 13 14  1  0
 13 11  1  0
 15 14  1  1
 15 16  1  0
 16  8  1  0
 17 15  1  0
 17 18  2  0
 19 20  1  0
 20 22  1  0
 20 21  2  0
 22 23  1  0
 24 23  1  6
 24 25  1  0
 25 17  1  0
 26 24  1  0
 27 26  2  0
 28 26  1  0
M  END
$$$$
