QQQ.pdb
     RDKit          3D

 28 27  0  0  1  0  0  0  0  0999 V2000
   19.0019  -11.0234  -21.7452 N   0  0  0  0  0  0  0  0  0  0  0  0
   18.3263  -11.6039  -20.6499 C   0  0  0  0  0  0  0  0  0  0  0  0
   17.0979  -11.7267  -20.6696 O   0  0  0  0  0  0  0  0  0  0  0  0
   19.1297  -12.0620  -19.4761 C   0  0  0  0  0  0  0  0  0  0  0  0
   20.5635  -11.6434  -19.6577 C   0  0  0  0  0  0  0  0  0  0  0  0
   21.5267  -12.4189  -18.7992 C   0  0  2  0  0  0  0  0  0  0  0  0
   20.7692  -13.2685  -17.8793 N   0  0  0  0  0  0  0  0  0  0  0  0
   22.3892  -11.4808  -18.0535 C   0  0  0  0  0  0  0  0  0  0  0  0
   21.9747  -11.0262  -16.9593 O   0  0  0  0  0  0  0  0  0  0  0  0
   28.7033  -10.3075  -18.7723 N   0  0  0  0  0  0  0  0  0  0  0  0
   28.2639   -9.3000  -17.8607 C   0  0  0  0  0  0  0  0  0  0  0  0
   29.1096   -8.5336  -17.4037 O   0  0  0  0  0  0  0  0  0  0  0  0
   26.8559   -9.2547  -17.5406 C   0  0  0  0  0  0  0  0  0  0  0  0
   25.9083  -10.1729  -18.1889 C   0  0  0  0  0  0  0  0  0  0  0  0
   24.4694  -10.1074  -17.8127 C   0  0  2  0  0  0  0  0  0  0  0  0
   23.6627  -11.0674  -18.5116 N   0  0  0  0  0  0  0  0  0  0  0  0
   23.8908   -8.7575  -17.7089 C   0  0  0  0  0  0  0  0  0  0  0  0
   23.4701   -8.2084  -18.7708 O   0  0  0  0  0  0  0  0  0  0  0  0
   18.8783   -7.0820  -15.9982 N   0  0  0  0  0  0  0  0  0  0  0  0
   19.3958   -5.7661  -16.0803 C   0  0  0  0  0  0  0  0  0  0  0  0
   18.6297   -4.8051  -15.9715 O   0  0  0  0  0  0  0  0  0  0  0  0
   20.8516   -5.6172  -16.2967 C   0  0  0  0  0  0  0  0  0  0  0  0
   21.6124   -6.8938  -16.3669 C   0  0  0  0  0  0  0  0  0  0  0  0
   23.0909   -6.6842  -16.5108 C   0  0  2  0  0  0  0  0  0  0  0  0
   23.7599   -8.0044  -16.5132 N   0  0  0  0  0  0  0  0  0  0  0  0
   23.6424   -5.8424  -15.4292 C   0  0  0  0  0  0  0  0  0  0  0  0
   24.4826   -6.2039  -14.5789 O   0  0  0  0  0  0  0  0  0  0  0  0
   23.2022   -4.5246  -15.3274 O   0  0  0  0  0  0  0  0  0  0  0  0
  2  1  1  0
  2  3  2  0
  4  2  1  0
  5  4  1  0
  6  7  1  1
  6  5  1  0
  8  6  1  0
  9  8  2  0
 11 10  1  0
 11 12  2  0
 13 14  1  0
 13 11  1  0
 15 14  1  6
 15 16  1  0
 16  8  1  0
 17 15  1  0
 17 18  2  0
 19 20  1  0
 20 22  1  0
 20 21  2  0
 22 23  1  0
 24 23  1  1
 24 25  1  0
 25 17  1  0
 26 24  1  0
 27 26  2  0
 28 26  1  0
M  END
$$$$
