QQQ.pdb
     RDKit          3D

 28 27  0  0  1  0  0  0  0  0999 V2000
   23.5481  -20.0458   -9.5586 N   0  0  0  0  0  0  0  0  0  0  0  0
   24.8723  -20.4821   -9.3368 C   0  0  0  0  0  0  0  0  0  0  0  0
   25.0884  -21.5229   -8.7087 O   0  0  0  0  0  0  0  0  0  0  0  0
   25.9960  -19.6586   -9.8772 C   0  0  0  0  0  0  0  0  0  0  0  0
   26.3898  -20.1787  -11.2331 C   0  0  0  0  0  0  0  0  0  0  0  0
   25.4930  -21.2783  -11.7359 C   0  0  2  0  0  0  0  0  0  0  0  0
   26.2638  -22.5190  -11.8271 N   0  0  0  0  0  0  0  0  0  0  0  0
   24.9461  -20.9049  -13.0555 C   0  0  0  0  0  0  0  0  0  0  0  0
   25.6195  -21.1721  -14.0807 O   0  0  0  0  0  0  0  0  0  0  0  0
   18.8295  -20.7077  -14.6981 N   0  0  0  0  0  0  0  0  0  0  0  0
   19.4692  -20.1198  -15.8314 C   0  0  0  0  0  0  0  0  0  0  0  0
   18.7653  -19.8172  -16.7928 O   0  0  0  0  0  0  0  0  0  0  0  0
   20.8990  -19.9237  -15.7661 C   0  0  0  0  0  0  0  0  0  0  0  0
   21.6453  -20.2396  -14.5396 C   0  0  0  0  0  0  0  0  0  0  0  0
   23.1158  -20.0091  -14.5111 C   0  0  2  0  0  0  0  0  0  0  0  0
   23.6980  -20.2595  -13.2230 N   0  0  0  0  0  0  0  0  0  0  0  0
   23.5908  -18.7915  -15.1892 C   0  0  0  0  0  0  0  0  0  0  0  0
   23.1254  -17.6774  -14.8042 O   0  0  0  0  0  0  0  0  0  0  0  0
   28.8165  -17.8541  -18.6641 N   0  0  0  0  0  0  0  0  0  0  0  0
   28.2754  -16.5482  -18.5738 C   0  0  0  0  0  0  0  0  0  0  0  0
   28.9211  -15.5924  -19.0118 O   0  0  0  0  0  0  0  0  0  0  0  0
   26.9433  -16.4030  -17.9472 C   0  0  0  0  0  0  0  0  0  0  0  0
   26.3506  -17.6644  -17.4266 C   0  0  0  0  0  0  0  0  0  0  0  0
   24.9984  -17.4617  -16.8091 C   0  0  2  0  0  0  0  0  0  0  0  0
   24.5340  -18.7505  -16.2487 N   0  0  0  0  0  0  0  0  0  0  0  0
   24.0116  -16.9515  -17.7830 C   0  0  0  0  0  0  0  0  0  0  0  0
   23.1775  -17.6407  -18.4066 O   0  0  0  0  0  0  0  0  0  0  0  0
   23.9893  -15.5838  -18.0467 O   0  0  0  0  0  0  0  0  0  0  0  0
  2  1  1  0
  2  3  2  0
  4  2  1  0
  5  4  1  0
  6  7  1  6
  6  5  1  0
  8  6  1  0
  9  8  2  0
 11 10  1  0
 11 12  2  0
 13 14  1  0
 13 11  1  0
 15 14  1  1
 15 16  1  0
 16  8  1  0
 17 15  1  0
 17 18  2  0
 19 20  1  0
 20 22  1  0
 20 21  2  0
 22 23  1  0
 24 23  1  6
 24 25  1  0
 25 17  1  0
 26 24  1  0
 27 26  2  0
 28 26  1  0
M  END
$$$$
