QQQ.pdb
     RDKit          3D

 28 27  0  0  1  0  0  0  0  0999 V2000
   14.5389  -14.8642  -13.3609 N   0  0  0  0  0  0  0  0  0  0  0  0
   14.3824  -15.3313  -14.6839 C   0  0  0  0  0  0  0  0  0  0  0  0
   13.7361  -16.3589  -14.9095 O   0  0  0  0  0  0  0  0  0  0  0  0
   15.0138  -14.5564  -15.7948 C   0  0  0  0  0  0  0  0  0  0  0  0
   15.6687  -13.3231  -15.2346 C   0  0  0  0  0  0  0  0  0  0  0  0
   17.1270  -13.2063  -15.5895 C   0  0  2  0  0  0  0  0  0  0  0  0
   17.7926  -14.4768  -15.2989 N   0  0  0  0  0  0  0  0  0  0  0  0
   17.7373  -12.1076  -14.8145 C   0  0  0  0  0  0  0  0  0  0  0  0
   17.8497  -12.2415  -13.5715 O   0  0  0  0  0  0  0  0  0  0  0  0
   22.5470   -8.5728  -16.4912 N   0  0  0  0  0  0  0  0  0  0  0  0
   21.3234   -8.3037  -17.1765 C   0  0  0  0  0  0  0  0  0  0  0  0
   21.3918   -7.7670  -18.2805 O   0  0  0  0  0  0  0  0  0  0  0  0
   20.0922   -8.6813  -16.5217 C   0  0  0  0  0  0  0  0  0  0  0  0
   20.1133   -9.4014  -15.2402 C   0  0  0  0  0  0  0  0  0  0  0  0
   18.8256   -9.8583  -14.6490 C   0  0  2  0  0  0  0  0  0  0  0  0
   18.2031  -10.9086  -15.4042 N   0  0  0  0  0  0  0  0  0  0  0  0
   17.9179   -8.7971  -14.1824 C   0  0  0  0  0  0  0  0  0  0  0  0
   16.9227   -8.5043  -14.9104 O   0  0  0  0  0  0  0  0  0  0  0  0
   15.9426   -7.4505   -8.4961 N   0  0  0  0  0  0  0  0  0  0  0  0
   15.3477   -6.3896   -9.2220 C   0  0  0  0  0  0  0  0  0  0  0  0
   14.5631   -5.6283   -8.6500 O   0  0  0  0  0  0  0  0  0  0  0  0
   15.7072   -6.2537  -10.6504 C   0  0  0  0  0  0  0  0  0  0  0  0
   16.6596   -7.2764  -11.1609 C   0  0  0  0  0  0  0  0  0  0  0  0
   17.0621   -7.0381  -12.5863 C   0  0  2  0  0  0  0  0  0  0  0  0
   18.0572   -8.0619  -12.9766 N   0  0  0  0  0  0  0  0  0  0  0  0
   17.6244   -5.6870  -12.7884 C   0  0  0  0  0  0  0  0  0  0  0  0
   18.8315   -5.4165  -12.9593 O   0  0  0  0  0  0  0  0  0  0  0  0
   16.7513   -4.6014  -12.7928 O   0  0  0  0  0  0  0  0  0  0  0  0
  2  1  1  0
  2  3  2  0
  4  2  1  0
  5  4  1  0
  6  7  1  1
  6  5  1  0
  8  6  1  0
  9  8  2  0
 11 10  1  0
 11 12  2  0
 13 14  1  0
 13 11  1  0
 15 14  1  6
 15 16  1  0
 16  8  1  0
 17 15  1  0
 17 18  2  0
 19 20  1  0
 20 22  1  0
 20 21  2  0
 22 23  1  0
 24 23  1  1
 24 25  1  0
 25 17  1  0
 26 24  1  0
 27 26  2  0
 28 26  1  0
M  END
$$$$
