QQQ.pdb
     RDKit          3D

 28 27  0  0  1  0  0  0  0  0999 V2000
   23.1402  -14.7435  -17.4866 N   0  0  0  0  0  0  0  0  0  0  0  0
   22.3837  -14.0386  -18.4478 C   0  0  0  0  0  0  0  0  0  0  0  0
   22.9328  -13.2299  -19.2021 O   0  0  0  0  0  0  0  0  0  0  0  0
   20.9135  -14.2943  -18.5278 C   0  0  0  0  0  0  0  0  0  0  0  0
   20.1713  -12.9933  -18.3861 C   0  0  0  0  0  0  0  0  0  0  0  0
   20.0666  -12.5160  -16.9622 C   0  0  2  0  0  0  0  0  0  0  0  0
   19.0802  -13.3341  -16.2556 N   0  0  0  0  0  0  0  0  0  0  0  0
   19.6730  -11.0930  -16.9460 C   0  0  0  0  0  0  0  0  0  0  0  0
   18.6920  -10.7346  -17.6424 O   0  0  0  0  0  0  0  0  0  0  0  0
   15.5887   -8.7720  -15.5685 N   0  0  0  0  0  0  0  0  0  0  0  0
   16.2662   -7.6293  -15.0446 C   0  0  0  0  0  0  0  0  0  0  0  0
   15.5888   -6.6448  -14.7561 O   0  0  0  0  0  0  0  0  0  0  0  0
   17.7003   -7.7129  -14.8921 C   0  0  0  0  0  0  0  0  0  0  0  0
   18.4228   -8.9436  -15.2453 C   0  0  0  0  0  0  0  0  0  0  0  0
   19.7704   -8.8345  -15.8686 C   0  0  2  0  0  0  0  0  0  0  0  0
   20.3478  -10.1107  -16.1831 N   0  0  0  0  0  0  0  0  0  0  0  0
   20.6897   -7.8641  -15.2513 C   0  0  0  0  0  0  0  0  0  0  0  0
   21.1944   -8.1567  -14.1262 O   0  0  0  0  0  0  0  0  0  0  0  0
   22.8221   -2.2008  -17.3646 N   0  0  0  0  0  0  0  0  0  0  0  0
   23.3335   -2.2476  -16.0445 C   0  0  0  0  0  0  0  0  0  0  0  0
   23.9895   -1.2955  -15.6140 O   0  0  0  0  0  0  0  0  0  0  0  0
   23.0470   -3.4580  -15.2438 C   0  0  0  0  0  0  0  0  0  0  0  0
   22.1828   -4.4670  -15.9136 C   0  0  0  0  0  0  0  0  0  0  0  0
   22.0068   -5.7155  -15.1007 C   0  0  2  0  0  0  0  0  0  0  0  0
   21.0670   -6.6142  -15.8076 N   0  0  0  0  0  0  0  0  0  0  0  0
   21.5034   -5.4293  -13.7416 C   0  0  0  0  0  0  0  0  0  0  0  0
   20.3023   -5.3793  -13.4032 O   0  0  0  0  0  0  0  0  0  0  0  0
   22.4307   -5.1907  -12.7297 O   0  0  0  0  0  0  0  0  0  0  0  0
  2  1  1  0
  2  3  2  0
  4  2  1  0
  5  4  1  0
  6  7  1  1
  6  5  1  0
  8  6  1  0
  9  8  2  0
 11 10  1  0
 11 12  2  0
 13 14  1  0
 13 11  1  0
 15 14  1  1
 15 16  1  0
 16  8  1  0
 17 15  1  0
 17 18  2  0
 19 20  1  0
 20 22  1  0
 20 21  2  0
 22 23  1  0
 24 23  1  6
 24 25  1  0
 25 17  1  0
 26 24  1  0
 27 26  2  0
 28 26  1  0
M  END
$$$$
