QQQ.pdb
     RDKit          3D

 28 27  0  0  1  0  0  0  0  0999 V2000
   20.9029  -24.5299  -13.8589 N   0  0  0  0  0  0  0  0  0  0  0  0
   19.9887  -23.9482  -14.7638 C   0  0  0  0  0  0  0  0  0  0  0  0
   20.1212  -24.1187  -15.9795 O   0  0  0  0  0  0  0  0  0  0  0  0
   18.8659  -23.1276  -14.2168 C   0  0  0  0  0  0  0  0  0  0  0  0
   19.0686  -22.9244  -12.7399 C   0  0  0  0  0  0  0  0  0  0  0  0
   19.1187  -21.4749  -12.3365 C   0  0  2  0  0  0  0  0  0  0  0  0
   17.9853  -20.7720  -12.9390 N   0  0  0  0  0  0  0  0  0  0  0  0
   20.3964  -20.8827  -12.7802 C   0  0  0  0  0  0  0  0  0  0  0  0
   20.4114  -20.2198  -13.8461 O   0  0  0  0  0  0  0  0  0  0  0  0
   25.8045  -20.4352   -9.2724 N   0  0  0  0  0  0  0  0  0  0  0  0
   26.0609  -21.1699  -10.4698 C   0  0  0  0  0  0  0  0  0  0  0  0
   27.1225  -21.7850  -10.5476 O   0  0  0  0  0  0  0  0  0  0  0  0
   25.0532  -21.1365  -11.5045 C   0  0  0  0  0  0  0  0  0  0  0  0
   23.8316  -20.3358  -11.3377 C   0  0  0  0  0  0  0  0  0  0  0  0
   22.8146  -20.3377  -12.4248 C   0  0  2  0  0  0  0  0  0  0  0  0
   21.6076  -21.0253  -12.0626 N   0  0  0  0  0  0  0  0  0  0  0  0
   23.3184  -20.6236  -13.7785 C   0  0  0  0  0  0  0  0  0  0  0  0
   23.4556  -21.8372  -14.1170 O   0  0  0  0  0  0  0  0  0  0  0  0
   20.7740  -21.3920  -18.4637 N   0  0  0  0  0  0  0  0  0  0  0  0
   20.6698  -20.0996  -17.8936 C   0  0  0  0  0  0  0  0  0  0  0  0
   19.7038  -19.3869  -18.1786 O   0  0  0  0  0  0  0  0  0  0  0  0
   21.7455  -19.6706  -16.9732 C   0  0  0  0  0  0  0  0  0  0  0  0
   22.8587  -20.6437  -16.8074 C   0  0  0  0  0  0  0  0  0  0  0  0
   24.0550  -20.0499  -16.1241 C   0  0  2  0  0  0  0  0  0  0  0  0
   23.6696  -19.6522  -14.7516 N   0  0  0  0  0  0  0  0  0  0  0  0
   24.5919  -18.8832  -16.8542 C   0  0  0  0  0  0  0  0  0  0  0  0
   24.6522  -17.7141  -16.4192 O   0  0  0  0  0  0  0  0  0  0  0  0
   25.0804  -19.0781  -18.1442 O   0  0  0  0  0  0  0  0  0  0  0  0
  2  1  1  0
  2  3  2  0
  4  2  1  0
  5  4  1  0
  6  7  1  6
  6  5  1  0
  8  6  1  0
  9  8  2  0
 11 10  1  0
 11 12  2  0
 13 14  1  0
 13 11  1  0
 15 14  1  1
 15 16  1  0
 16  8  1  0
 17 15  1  0
 17 18  2  0
 19 20  1  0
 20 22  1  0
 20 21  2  0
 22 23  1  0
 24 23  1  6
 24 25  1  0
 25 17  1  0
 26 24  1  0
 27 26  2  0
 28 26  1  0
M  END
$$$$
