QQQ.pdb
     RDKit          3D

 28 27  0  0  1  0  0  0  0  0999 V2000
   22.5041  -26.2078  -16.0342 N   0  0  0  0  0  0  0  0  0  0  0  0
   23.7612  -26.1196  -16.6706 C   0  0  0  0  0  0  0  0  0  0  0  0
   24.0080  -26.8137  -17.6615 O   0  0  0  0  0  0  0  0  0  0  0  0
   24.7767  -25.1725  -16.1186 C   0  0  0  0  0  0  0  0  0  0  0  0
   24.1935  -24.4475  -14.9362 C   0  0  0  0  0  0  0  0  0  0  0  0
   23.6245  -23.0976  -15.2830 C   0  0  2  0  0  0  0  0  0  0  0  0
   24.7241  -22.1742  -15.5659 N   0  0  0  0  0  0  0  0  0  0  0  0
   22.8039  -22.6040  -14.1592 C   0  0  0  0  0  0  0  0  0  0  0  0
   23.3463  -22.4688  -13.0352 O   0  0  0  0  0  0  0  0  0  0  0  0
   19.4852  -17.4974  -12.5945 N   0  0  0  0  0  0  0  0  0  0  0  0
   20.1122  -18.0767  -13.7393 C   0  0  0  0  0  0  0  0  0  0  0  0
   20.0787  -17.4430  -14.7923 O   0  0  0  0  0  0  0  0  0  0  0  0
   20.7407  -19.3673  -13.5771 C   0  0  0  0  0  0  0  0  0  0  0  0
   19.9302  -20.5788  -13.3858 C   0  0  0  0  0  0  0  0  0  0  0  0
   20.6196  -21.8807  -13.1710 C   0  0  2  0  0  0  0  0  0  0  0  0
   21.4335  -22.2751  -14.2858 N   0  0  0  0  0  0  0  0  0  0  0  0
   19.8023  -22.9531  -12.5794 C   0  0  0  0  0  0  0  0  0  0  0  0
   19.4782  -23.9296  -13.3193 O   0  0  0  0  0  0  0  0  0  0  0  0
   18.4091  -24.2427   -6.4933 N   0  0  0  0  0  0  0  0  0  0  0  0
   17.8160  -25.3300   -7.1806 C   0  0  0  0  0  0  0  0  0  0  0  0
   17.2442  -26.2145   -6.5380 O   0  0  0  0  0  0  0  0  0  0  0  0
   17.9191  -25.3430   -8.6562 C   0  0  0  0  0  0  0  0  0  0  0  0
   18.6390  -24.1833   -9.2481 C   0  0  0  0  0  0  0  0  0  0  0  0
   18.5324  -24.1326  -10.7437 C   0  0  2  0  0  0  0  0  0  0  0  0
   19.3376  -22.9939  -11.2391 N   0  0  0  0  0  0  0  0  0  0  0  0
   17.1335  -23.9954  -11.1984 C   0  0  0  0  0  0  0  0  0  0  0  0
   16.4988  -22.9242  -11.2951 O   0  0  0  0  0  0  0  0  0  0  0  0
   16.4387  -25.1484  -11.5570 O   0  0  0  0  0  0  0  0  0  0  0  0
  2  1  1  0
  2  3  2  0
  4  2  1  0
  5  4  1  0
  6  7  1  1
  6  5  1  0
  8  6  1  0
  9  8  2  0
 11 10  1  0
 11 12  2  0
 13 14  1  0
 13 11  1  0
 15 14  1  6
 15 16  1  0
 16  8  1  0
 17 15  1  0
 17 18  2  0
 19 20  1  0
 20 22  1  0
 20 21  2  0
 22 23  1  0
 24 23  1  1
 24 25  1  0
 25 17  1  0
 26 24  1  0
 27 26  2  0
 28 26  1  0
M  END
$$$$
