QQQ.pdb
     RDKit          3D

 28 27  0  0  1  0  0  0  0  0999 V2000
   22.4209  -20.8519  -11.1024 N   0  0  0  0  0  0  0  0  0  0  0  0
   22.6610  -21.1375   -9.7409 C   0  0  0  0  0  0  0  0  0  0  0  0
   21.7815  -21.6593   -9.0491 O   0  0  0  0  0  0  0  0  0  0  0  0
   23.9961  -20.7948   -9.1635 C   0  0  0  0  0  0  0  0  0  0  0  0
   24.7948  -20.0202  -10.1764 C   0  0  0  0  0  0  0  0  0  0  0  0
   25.4450  -20.8907  -11.2184 C   0  0  2  0  0  0  0  0  0  0  0  0
   26.7726  -21.2881  -10.7481 N   0  0  0  0  0  0  0  0  0  0  0  0
   25.5422  -20.1486  -12.4912 C   0  0  0  0  0  0  0  0  0  0  0  0
   26.1818  -19.0687  -12.5079 O   0  0  0  0  0  0  0  0  0  0  0  0
   26.7346  -23.0650  -16.5262 N   0  0  0  0  0  0  0  0  0  0  0  0
   27.6591  -22.1214  -15.9839 C   0  0  0  0  0  0  0  0  0  0  0  0
   28.8135  -22.4975  -15.7903 O   0  0  0  0  0  0  0  0  0  0  0  0
   27.1702  -20.7917  -15.7011 C   0  0  0  0  0  0  0  0  0  0  0  0
   25.7741  -20.4286  -15.9847 C   0  0  0  0  0  0  0  0  0  0  0  0
   24.9543  -19.8174  -14.9028 C   0  0  2  0  0  0  0  0  0  0  0  0
   24.9490  -20.5948  -13.6959 N   0  0  0  0  0  0  0  0  0  0  0  0
   23.6450  -19.2813  -15.3105 C   0  0  0  0  0  0  0  0  0  0  0  0
   22.6267  -20.0199  -15.1561 O   0  0  0  0  0  0  0  0  0  0  0  0
   22.0302  -13.4172  -17.3054 N   0  0  0  0  0  0  0  0  0  0  0  0
   20.7786  -14.0789  -17.2610 C   0  0  0  0  0  0  0  0  0  0  0  0
   19.7602  -13.4744  -17.6071 O   0  0  0  0  0  0  0  0  0  0  0  0
   20.7644  -15.4820  -16.7928 C   0  0  0  0  0  0  0  0  0  0  0  0
   22.1018  -16.0591  -16.4894 C   0  0  0  0  0  0  0  0  0  0  0  0
   22.0429  -17.5183  -16.1463 C   0  0  2  0  0  0  0  0  0  0  0  0
   23.4156  -17.9969  -15.8685 N   0  0  0  0  0  0  0  0  0  0  0  0
   21.4393  -18.3217  -17.2293 C   0  0  0  0  0  0  0  0  0  0  0  0
   20.2187  -18.5301  -17.3906 O   0  0  0  0  0  0  0  0  0  0  0  0
   22.2858  -18.9096  -18.1667 O   0  0  0  0  0  0  0  0  0  0  0  0
  2  1  1  0
  2  3  2  0
  4  2  1  0
  5  4  1  0
  6  7  1  1
  6  5  1  0
  8  6  1  0
  9  8  2  0
 11 10  1  0
 11 12  2  0
 13 14  1  0
 13 11  1  0
 15 14  1  6
 15 16  1  0
 16  8  1  0
 17 15  1  0
 17 18  2  0
 19 20  1  0
 20 22  1  0
 20 21  2  0
 22 23  1  0
 24 23  1  6
 24 25  1  0
 25 17  1  0
 26 24  1  0
 27 26  2  0
 28 26  1  0
M  END
$$$$
