PPV.pdb
     RDKit          3D

 22 23  0  0  1  0  0  0  0  0999 V2000
   27.8326  -19.5447  -16.1451 N   0  0  0  0  0  0  0  0  0  0  0  0
   28.3515  -18.3101  -16.6444 C   0  0  0  0  0  0  0  0  0  0  0  0
   28.1064  -17.2565  -15.5997 C   0  0  0  0  0  0  0  0  0  0  0  0
   26.9993  -17.9131  -14.7631 C   0  0  0  0  0  0  0  0  0  0  0  0
   27.5097  -19.3571  -14.7378 C   0  0  1  0  0  0  0  0  0  0  0  0
   26.3325  -20.2013  -14.3375 C   0  0  0  0  0  0  0  0  0  0  0  0
   25.4400  -20.2973  -15.2433 O   0  0  0  0  0  0  0  0  0  0  0  0
   26.2450  -20.8105  -13.0948 N   0  0  0  0  0  0  0  0  0  0  0  0
   27.4257  -21.3647  -12.3959 C   0  0  0  0  0  0  0  0  0  0  0  0
   27.1418  -21.1481  -10.9299 C   0  0  0  0  0  0  0  0  0  0  0  0
   25.7917  -20.4790  -10.9097 C   0  0  0  0  0  0  0  0  0  0  0  0
   25.1865  -21.0720  -12.2102 C   0  0  1  0  0  0  0  0  0  0  0  0
   23.8633  -20.5362  -12.4346 C   0  0  0  0  0  0  0  0  0  0  0  0
   23.5303  -19.4074  -12.0678 O   0  0  0  0  0  0  0  0  0  0  0  0
   20.1638  -19.8384  -15.3291 C   0  0  0  0  0  0  0  0  0  0  0  0
   21.4641  -20.5083  -14.9912 C   0  0  2  0  0  0  0  0  0  0  0  0
   21.5385  -21.8806  -15.6529 C   0  0  0  0  0  0  0  0  0  0  0  0
   21.5989  -20.6286  -13.4872 C   0  0  2  0  0  0  0  0  0  0  0  0
   22.8278  -21.2907  -13.1105 N   0  0  0  0  0  0  0  0  0  0  0  0
   20.4383  -21.4313  -13.0152 C   0  0  0  0  0  0  0  0  0  0  0  0
   20.5526  -22.6658  -12.8108 O   0  0  0  0  0  0  0  0  0  0  0  0
   19.2386  -20.7812  -12.8098 O   0  0  0  0  0  0  0  0  0  0  0  0
  1  5  1  0
  2  1  1  0
  3  2  1  0
  3  4  1  0
  4  5  1  0
  5  6  1  6
  6  7  2  0
  8  6  1  0
  9  8  1  0
 10 11  1  0
 10  9  1  0
 11 12  1  0
 12  8  1  0
 12 13  1  6
 13 19  1  0
 13 14  2  0
 16 15  1  1
 17 16  1  0
 18 16  1  0
 18 19  1  6
 20 22  1  0
 20 18  1  0
 21 20  2  0
M  END
$$$$
