PPV.pdb
     RDKit          3D

 22 23  0  0  1  0  0  0  0  0999 V2000
   27.2738  -20.8990  -13.2131 N   0  0  0  0  0  0  0  0  0  0  0  0
   27.1109  -19.9790  -14.2947 C   0  0  0  0  0  0  0  0  0  0  0  0
   28.2621  -19.0126  -14.2487 C   0  0  0  0  0  0  0  0  0  0  0  0
   28.7431  -19.1852  -12.8011 C   0  0  0  0  0  0  0  0  0  0  0  0
   28.6052  -20.7039  -12.6572 C   0  0  1  0  0  0  0  0  0  0  0  0
   28.6181  -20.9787  -11.1796 C   0  0  0  0  0  0  0  0  0  0  0  0
   27.5543  -20.6094  -10.5811 O   0  0  0  0  0  0  0  0  0  0  0  0
   29.6958  -21.5793  -10.5463 N   0  0  0  0  0  0  0  0  0  0  0  0
   30.5801  -22.5494  -11.2295 C   0  0  0  0  0  0  0  0  0  0  0  0
   31.9429  -22.3203  -10.6240 C   0  0  0  0  0  0  0  0  0  0  0  0
   31.7209  -21.2191   -9.6195 C   0  0  0  0  0  0  0  0  0  0  0  0
   30.2376  -21.4939   -9.2539 C   0  0  1  0  0  0  0  0  0  0  0  0
   29.7688  -20.5145   -8.3003 C   0  0  0  0  0  0  0  0  0  0  0  0
   29.7758  -19.3035   -8.5307 O   0  0  0  0  0  0  0  0  0  0  0  0
   27.3851  -21.3487   -4.7676 C   0  0  0  0  0  0  0  0  0  0  0  0
   27.4354  -20.0792   -5.5673 C   0  0  2  0  0  0  0  0  0  0  0  0
   26.4465  -20.1460   -6.7267 C   0  0  0  0  0  0  0  0  0  0  0  0
   28.8446  -19.8529   -6.0750 C   0  0  2  0  0  0  0  0  0  0  0  0
   29.2541  -20.8872   -6.9985 N   0  0  0  0  0  0  0  0  0  0  0  0
   29.7374  -19.8692   -4.8846 C   0  0  0  0  0  0  0  0  0  0  0  0
   30.5099  -20.8378   -4.6752 O   0  0  0  0  0  0  0  0  0  0  0  0
   29.6909  -18.7930   -4.0223 O   0  0  0  0  0  0  0  0  0  0  0  0
  1  5  1  0
  2  1  1  0
  3  2  1  0
  3  4  1  0
  4  5  1  0
  5  6  1  1
  6  7  2  0
  8  6  1  0
  9  8  1  0
 10 11  1  0
 10  9  1  0
 11 12  1  0
 12  8  1  0
 12 13  1  1
 13 19  1  0
 13 14  2  0
 16 15  1  6
 17 16  1  0
 18 16  1  0
 18 19  1  6
 20 22  1  0
 20 18  1  0
 21 20  2  0
M  END
$$$$
