PPV.pdb
     RDKit          3D

 22 23  0  0  1  0  0  0  0  0999 V2000
   27.7908  -20.1271  -15.4481 N   0  0  0  0  0  0  0  0  0  0  0  0
   28.3986  -18.9559  -15.9974 C   0  0  0  0  0  0  0  0  0  0  0  0
   28.1376  -17.8189  -15.0484 C   0  0  0  0  0  0  0  0  0  0  0  0
   26.9493  -18.3642  -14.2439 C   0  0  0  0  0  0  0  0  0  0  0  0
   27.3879  -19.8229  -14.0824 C   0  0  1  0  0  0  0  0  0  0  0  0
   26.1487  -20.5843  -13.7035 C   0  0  0  0  0  0  0  0  0  0  0  0
   25.3642  -20.8055  -14.6842 O   0  0  0  0  0  0  0  0  0  0  0  0
   25.9014  -20.9987  -12.4035 N   0  0  0  0  0  0  0  0  0  0  0  0
   26.9723  -21.4886  -11.5074 C   0  0  0  0  0  0  0  0  0  0  0  0
   26.5518  -21.0462  -10.1276 C   0  0  0  0  0  0  0  0  0  0  0  0
   25.2452  -20.3296  -10.3512 C   0  0  0  0  0  0  0  0  0  0  0  0
   24.7451  -21.0848  -11.6117 C   0  0  1  0  0  0  0  0  0  0  0  0
   23.4830  -20.5373  -12.0538 C   0  0  0  0  0  0  0  0  0  0  0  0
   23.2088  -19.3388  -11.9650 O   0  0  0  0  0  0  0  0  0  0  0  0
   21.0107  -22.6365  -14.7425 C   0  0  0  0  0  0  0  0  0  0  0  0
   21.0527  -21.1391  -14.6424 C   0  0  2  0  0  0  0  0  0  0  0  0
   22.1560  -20.5811  -15.5357 C   0  0  0  0  0  0  0  0  0  0  0  0
   21.2711  -20.7314  -13.1999 C   0  0  2  0  0  0  0  0  0  0  0  0
   22.4440  -21.3616  -12.6365 N   0  0  0  0  0  0  0  0  0  0  0  0
   20.0644  -21.1641  -12.4443 C   0  0  0  0  0  0  0  0  0  0  0  0
   18.9647  -20.5768  -12.6007 O   0  0  0  0  0  0  0  0  0  0  0  0
   20.1899  -22.2250  -11.5710 O   0  0  0  0  0  0  0  0  0  0  0  0
  1  5  1  0
  2  1  1  0
  3  2  1  0
  3  4  1  0
  4  5  1  0
  5  6  1  6
  6  7  2  0
  8  6  1  0
  9  8  1  0
 10 11  1  0
 10  9  1  0
 11 12  1  0
 12  8  1  0
 12 13  1  6
 13 19  1  0
 13 14  2  0
 16 15  1  1
 17 16  1  0
 18 16  1  0
 18 19  1  1
 20 22  1  0
 20 18  1  0
 21 20  2  0
M  END
$$$$
