PPV.pdb
     RDKit          3D

 22 23  0  0  1  0  0  0  0  0999 V2000
   33.3641  -30.2839  -18.4991 N   0  0  0  0  0  0  0  0  0  0  0  0
   33.3775  -31.0428  -19.7102 C   0  0  0  0  0  0  0  0  0  0  0  0
   33.3921  -30.0706  -20.8574 C   0  0  0  0  0  0  0  0  0  0  0  0
   32.8853  -28.7919  -20.1755 C   0  0  0  0  0  0  0  0  0  0  0  0
   33.6284  -28.8934  -18.8401 C   0  0  1  0  0  0  0  0  0  0  0  0
   32.9136  -27.9626  -17.9011 C   0  0  0  0  0  0  0  0  0  0  0  0
   31.7511  -28.3664  -17.5669 O   0  0  0  0  0  0  0  0  0  0  0  0
   33.4832  -26.7808  -17.4518 N   0  0  0  0  0  0  0  0  0  0  0  0
   34.9150  -26.6738  -17.0935 C   0  0  0  0  0  0  0  0  0  0  0  0
   35.3022  -25.2656  -17.4724 C   0  0  0  0  0  0  0  0  0  0  0  0
   34.0328  -24.6684  -18.0227 C   0  0  0  0  0  0  0  0  0  0  0  0
   32.9882  -25.4878  -17.2184 C   0  0  1  0  0  0  0  0  0  0  0  0
   31.6492  -25.1087  -17.6076 C   0  0  0  0  0  0  0  0  0  0  0  0
   31.1675  -25.3967  -18.7051 O   0  0  0  0  0  0  0  0  0  0  0  0
   27.1998  -23.2015  -16.5640 C   0  0  0  0  0  0  0  0  0  0  0  0
   28.5689  -23.5328  -16.0445 C   0  0  2  0  0  0  0  0  0  0  0  0
   29.1861  -22.3132  -15.3677 C   0  0  0  0  0  0  0  0  0  0  0  0
   29.4427  -24.0152  -17.1841 C   0  0  2  0  0  0  0  0  0  0  0  0
   30.7721  -24.3593  -16.7316 N   0  0  0  0  0  0  0  0  0  0  0  0
   29.5259  -22.8980  -18.1635 C   0  0  0  0  0  0  0  0  0  0  0  0
   30.5287  -22.1413  -18.1900 O   0  0  0  0  0  0  0  0  0  0  0  0
   28.4731  -22.7196  -19.0373 O   0  0  0  0  0  0  0  0  0  0  0  0
  1  5  1  0
  2  1  1  0
  3  2  1  0
  3  4  1  0
  4  5  1  0
  5  6  1  1
  6  7  2  0
  8  6  1  0
  9  8  1  0
 10 11  1  0
 10  9  1  0
 11 12  1  0
 12  8  1  0
 12 13  1  6
 13 19  1  0
 13 14  2  0
 16 15  1  6
 17 16  1  0
 18 16  1  0
 18 19  1  1
 20 22  1  0
 20 18  1  0
 21 20  2  0
M  END
$$$$
