PPV.pdb
     RDKit          3D

 22 23  0  0  1  0  0  0  0  0999 V2000
   27.7139  -19.8629  -15.9849 N   0  0  0  0  0  0  0  0  0  0  0  0
   28.3007  -18.7165  -16.6050 C   0  0  0  0  0  0  0  0  0  0  0  0
   28.0953  -17.5450  -15.6847 C   0  0  0  0  0  0  0  0  0  0  0  0
   26.9457  -18.0523  -14.8027 C   0  0  0  0  0  0  0  0  0  0  0  0
   27.3826  -19.5080  -14.6123 C   0  0  1  0  0  0  0  0  0  0  0  0
   26.1593  -20.2456  -14.1449 C   0  0  0  0  0  0  0  0  0  0  0  0
   25.2263  -20.2909  -15.0130 O   0  0  0  0  0  0  0  0  0  0  0  0
   26.0741  -20.8165  -12.8841 N   0  0  0  0  0  0  0  0  0  0  0  0
   27.2449  -21.4053  -12.1968 C   0  0  0  0  0  0  0  0  0  0  0  0
   27.0060  -21.1367  -10.7314 C   0  0  0  0  0  0  0  0  0  0  0  0
   25.6884  -20.4061  -10.6994 C   0  0  0  0  0  0  0  0  0  0  0  0
   25.0262  -21.0055  -11.9689 C   0  0  1  0  0  0  0  0  0  0  0  0
   23.7236  -20.4159  -12.1782 C   0  0  0  0  0  0  0  0  0  0  0  0
   23.4077  -19.3170  -11.7176 O   0  0  0  0  0  0  0  0  0  0  0  0
   21.1546  -21.4984  -15.3222 C   0  0  0  0  0  0  0  0  0  0  0  0
   21.0796  -20.1988  -14.5744 C   0  0  2  0  0  0  0  0  0  0  0  0
   22.0362  -19.1811  -15.1874 C   0  0  0  0  0  0  0  0  0  0  0  0
   21.4067  -20.4324  -13.1138 C   0  0  2  0  0  0  0  0  0  0  0  0
   22.6902  -21.0771  -12.9484 N   0  0  0  0  0  0  0  0  0  0  0  0
   20.3364  -21.3115  -12.5696 C   0  0  0  0  0  0  0  0  0  0  0  0
   20.5587  -22.5270  -12.3417 O   0  0  0  0  0  0  0  0  0  0  0  0
   19.0986  -20.7532  -12.3243 O   0  0  0  0  0  0  0  0  0  0  0  0
  1  5  1  0
  2  1  1  0
  3  2  1  0
  3  4  1  0
  4  5  1  0
  5  6  1  6
  6  7  2  0
  8  6  1  0
  9  8  1  0
 10 11  1  0
 10  9  1  0
 11 12  1  0
 12  8  1  0
 12 13  1  6
 13 19  1  0
 13 14  2  0
 16 15  1  6
 17 16  1  0
 18 16  1  0
 18 19  1  6
 20 22  1  0
 20 18  1  0
 21 20  2  0
M  END
$$$$
