PPV.pdb
     RDKit          3D

 22 23  0  0  1  0  0  0  0  0999 V2000
   23.0201  -21.4099  -12.0447 N   0  0  0  0  0  0  0  0  0  0  0  0
   22.1436  -20.5544  -12.7814 C   0  0  0  0  0  0  0  0  0  0  0  0
   22.9201  -19.3240  -13.1612 C   0  0  0  0  0  0  0  0  0  0  0  0
   24.0809  -19.3782  -12.1580 C   0  0  0  0  0  0  0  0  0  0  0  0
   24.3711  -20.8821  -12.1722 C   0  0  1  0  0  0  0  0  0  0  0  0
   25.1762  -21.1562  -10.9330 C   0  0  0  0  0  0  0  0  0  0  0  0
   24.4708  -21.2496   -9.8747 O   0  0  0  0  0  0  0  0  0  0  0  0
   26.5560  -21.2919  -10.9600 N   0  0  0  0  0  0  0  0  0  0  0  0
   27.2818  -21.8042  -12.1435 C   0  0  0  0  0  0  0  0  0  0  0  0
   28.5972  -21.0652  -12.1377 C   0  0  0  0  0  0  0  0  0  0  0  0
   28.5168  -20.1765  -10.9234 C   0  0  0  0  0  0  0  0  0  0  0  0
   27.5786  -21.0347  -10.0330 C   0  0  1  0  0  0  0  0  0  0  0  0
   27.3151  -20.3550   -8.7852 C   0  0  0  0  0  0  0  0  0  0  0  0
   26.7033  -19.2866   -8.7246 O   0  0  0  0  0  0  0  0  0  0  0  0
   27.4439  -21.9206   -4.7844 C   0  0  0  0  0  0  0  0  0  0  0  0
   28.2927  -20.7295   -5.1231 C   0  0  2  0  0  0  0  0  0  0  0  0
   28.3615  -19.7754   -3.9351 C   0  0  0  0  0  0  0  0  0  0  0  0
   27.7259  -20.0308   -6.3419 C   0  0  2  0  0  0  0  0  0  0  0  0
   27.7530  -20.8832   -7.5094 N   0  0  0  0  0  0  0  0  0  0  0  0
   28.5746  -18.8325   -6.5829 C   0  0  0  0  0  0  0  0  0  0  0  0
   29.6662  -18.9325   -7.1971 O   0  0  0  0  0  0  0  0  0  0  0  0
   28.1279  -17.6143   -6.1134 O   0  0  0  0  0  0  0  0  0  0  0  0
  1  5  1  0
  2  1  1  0
  3  2  1  0
  3  4  1  0
  4  5  1  0
  5  6  1  1
  6  7  2  0
  8  6  1  0
  9  8  1  0
 10 11  1  0
 10  9  1  0
 11 12  1  0
 12  8  1  0
 12 13  1  1
 13 19  1  0
 13 14  2  0
 16 15  1  1
 17 16  1  0
 18 16  1  0
 18 19  1  6
 20 22  1  0
 20 18  1  0
 21 20  2  0
M  END
$$$$
