EED.pdb
     RDKit          3D

 27 26  0  0  1  0  0  0  0  0999 V2000
   17.7698  -11.9372  -14.1373 N   0  0  0  0  0  0  0  0  0  0  0  0
   17.1257  -10.9905  -14.9546 C   0  0  1  0  0  0  0  0  0  0  0  0
   15.6810  -11.1707  -15.2788 C   0  0  0  0  0  0  0  0  0  0  0  0
   15.1485  -12.5080  -14.8972 C   0  0  0  0  0  0  0  0  0  0  0  0
   13.7169  -12.6528  -15.1796 C   0  0  0  0  0  0  0  0  0  0  0  0
   13.0672  -11.7547  -15.7483 O   0  0  0  0  0  0  0  0  0  0  0  0
   17.2615   -9.5665  -14.4645 C   0  0  0  0  0  0  0  0  0  0  0  0
   16.7876   -8.6303  -15.1858 O   0  0  0  0  0  0  0  0  0  0  0  0
   13.0692  -13.8381  -14.7941 O   0  0  0  0  0  0  0  0  0  0  0  0
   17.8835   -9.2050  -13.2562 N   0  0  0  0  0  0  0  0  0  0  0  0
   17.9531   -7.7998  -12.8805 C   0  0  1  0  0  0  0  0  0  0  0  0
   17.8110   -7.5613  -11.4144 C   0  0  0  0  0  0  0  0  0  0  0  0
   17.9344   -6.0727  -11.1433 C   0  0  0  0  0  0  0  0  0  0  0  0
   17.8066   -5.8031   -9.7013 C   0  0  0  0  0  0  0  0  0  0  0  0
   17.6833   -6.7725   -8.9131 O   0  0  0  0  0  0  0  0  0  0  0  0
   19.3181   -7.2659  -13.2792 C   0  0  0  0  0  0  0  0  0  0  0  0
   20.2860   -8.0020  -13.0812 O   0  0  0  0  0  0  0  0  0  0  0  0
   17.8268   -4.4976   -9.2609 O   0  0  0  0  0  0  0  0  0  0  0  0
   19.4688   -5.9963  -13.8448 N   0  0  0  0  0  0  0  0  0  0  0  0
   20.7249   -5.4313  -14.2772 C   0  0  1  0  0  0  0  0  0  0  0  0
   20.5507   -4.2888  -15.2129 C   0  0  0  0  0  0  0  0  0  0  0  0
   21.8595   -3.8099  -15.6897 C   0  0  0  0  0  0  0  0  0  0  0  0
   22.2509   -2.6736  -15.3297 O   0  0  0  0  0  0  0  0  0  0  0  0
   21.6547   -5.1148  -13.1924 C   0  0  0  0  0  0  0  0  0  0  0  0
   22.8475   -4.8312  -13.4539 O   0  0  0  0  0  0  0  0  0  0  0  0
   22.6557   -4.5829  -16.5185 O   0  0  0  0  0  0  0  0  0  0  0  0
   21.3042   -5.1018  -11.8566 O   0  0  0  0  0  0  0  0  0  0  0  0
  2  1  1  1
  2  7  1  0
  3  2  1  0
  4  3  1  0
  5  6  2  0
  5  4  1  0
  7  8  2  0
  9  5  1  0
 10  7  1  0
 10 11  1  0
 11 12  1  1
 13 12  1  0
 14 13  1  0
 15 14  2  0
 16 11  1  0
 16 17  2  0
 18 14  1  0
 19 16  1  0
 20 19  1  0
 20 21  1  1
 22 21  1  0
 23 22  2  0
 24 20  1  0
 25 24  2  0
 26 22  1  0
 27 24  1  0
M  END
$$$$
