EED.pdb
     RDKit          3D

 27 26  0  0  1  0  0  0  0  0999 V2000
   17.8824   -9.9979  -16.5589 N   0  0  0  0  0  0  0  0  0  0  0  0
   18.7385   -9.9068  -15.4464 C   0  0  1  0  0  0  0  0  0  0  0  0
   20.0808  -10.5545  -15.5051 C   0  0  0  0  0  0  0  0  0  0  0  0
   20.9646   -9.9958  -16.5655 C   0  0  0  0  0  0  0  0  0  0  0  0
   22.3180  -10.5590  -16.5342 C   0  0  0  0  0  0  0  0  0  0  0  0
   23.1779  -10.2454  -17.3794 O   0  0  0  0  0  0  0  0  0  0  0  0
   18.9870   -8.4898  -14.9806 C   0  0  0  0  0  0  0  0  0  0  0  0
   19.4407   -8.3101  -13.8045 O   0  0  0  0  0  0  0  0  0  0  0  0
   22.6443  -11.4765  -15.5219 O   0  0  0  0  0  0  0  0  0  0  0  0
   18.7459   -7.3485  -15.7660 N   0  0  0  0  0  0  0  0  0  0  0  0
   18.8698   -6.0280  -15.1649 C   0  0  1  0  0  0  0  0  0  0  0  0
   19.7664   -5.1048  -15.9201 C   0  0  0  0  0  0  0  0  0  0  0  0
   19.9198   -3.8149  -15.1346 C   0  0  0  0  0  0  0  0  0  0  0  0
   20.8856   -2.9234  -15.7986 C   0  0  0  0  0  0  0  0  0  0  0  0
   21.4871   -3.3366  -16.8202 O   0  0  0  0  0  0  0  0  0  0  0  0
   17.4953   -5.3817  -15.1446 C   0  0  0  0  0  0  0  0  0  0  0  0
   16.8143   -5.4838  -16.1662 O   0  0  0  0  0  0  0  0  0  0  0  0
   21.0993   -1.6646  -15.2803 O   0  0  0  0  0  0  0  0  0  0  0  0
   17.0249   -4.7015  -14.0174 N   0  0  0  0  0  0  0  0  0  0  0  0
   15.7205   -4.0928  -13.9078 C   0  0  1  0  0  0  0  0  0  0  0  0
   14.6215   -5.0927  -13.8486 C   0  0  0  0  0  0  0  0  0  0  0  0
   13.3189   -4.4184  -13.7130 C   0  0  0  0  0  0  0  0  0  0  0  0
   12.7048   -4.5118  -12.6230 O   0  0  0  0  0  0  0  0  0  0  0  0
   15.6054   -3.0881  -12.8500 C   0  0  0  0  0  0  0  0  0  0  0  0
   14.5627   -2.3988  -12.7529 O   0  0  0  0  0  0  0  0  0  0  0  0
   12.7672   -3.6922  -14.7554 O   0  0  0  0  0  0  0  0  0  0  0  0
   16.5917   -2.8355  -11.9169 O   0  0  0  0  0  0  0  0  0  0  0  0
  2  1  1  6
  2  7  1  0
  3  2  1  0
  4  3  1  0
  5  6  2  0
  5  4  1  0
  7  8  2  0
  9  5  1  0
 10  7  1  0
 10 11  1  0
 11 12  1  6
 13 12  1  0
 14 13  1  0
 15 14  2  0
 16 11  1  0
 16 17  2  0
 18 14  1  0
 19 16  1  0
 20 19  1  0
 20 21  1  1
 22 21  1  0
 23 22  2  0
 24 20  1  0
 25 24  2  0
 26 22  1  0
 27 24  1  0
M  END
$$$$
