EED.pdb
     RDKit          3D

 27 26  0  0  1  0  0  0  0  0999 V2000
   18.6786  -12.7770  -15.3992 N   0  0  0  0  0  0  0  0  0  0  0  0
   18.2986  -11.6050  -16.0780 C   0  0  1  0  0  0  0  0  0  0  0  0
   16.8522  -11.2522  -16.1692 C   0  0  0  0  0  0  0  0  0  0  0  0
   16.0160  -12.3244  -16.7766 C   0  0  0  0  0  0  0  0  0  0  0  0
   15.8326  -13.4761  -15.8879 C   0  0  0  0  0  0  0  0  0  0  0  0
   15.3532  -13.3516  -14.7447 O   0  0  0  0  0  0  0  0  0  0  0  0
   18.9943  -10.3577  -15.5812 C   0  0  0  0  0  0  0  0  0  0  0  0
   18.9571  -10.0996  -14.3349 O   0  0  0  0  0  0  0  0  0  0  0  0
   16.2112  -14.7490  -16.3452 O   0  0  0  0  0  0  0  0  0  0  0  0
   19.6831   -9.4559  -16.4117 N   0  0  0  0  0  0  0  0  0  0  0  0
   20.3232   -8.2880  -15.8229 C   0  0  1  0  0  0  0  0  0  0  0  0
   21.7331   -8.0862  -16.2679 C   0  0  0  0  0  0  0  0  0  0  0  0
   22.3314   -6.9235  -15.4967 C   0  0  0  0  0  0  0  0  0  0  0  0
   23.7314   -6.7089  -15.8997 C   0  0  0  0  0  0  0  0  0  0  0  0
   24.3252   -7.6169  -16.5314 O   0  0  0  0  0  0  0  0  0  0  0  0
   19.5495   -7.0528  -16.2508 C   0  0  0  0  0  0  0  0  0  0  0  0
   19.1223   -7.0331  -17.4063 O   0  0  0  0  0  0  0  0  0  0  0  0
   24.3465   -5.5199  -15.5726 O   0  0  0  0  0  0  0  0  0  0  0  0
   19.3326   -5.9866  -15.3730 N   0  0  0  0  0  0  0  0  0  0  0  0
   18.6163   -4.7783  -15.7060 C   0  0  1  0  0  0  0  0  0  0  0  0
   17.1442   -4.9206  -15.5521 C   0  0  0  0  0  0  0  0  0  0  0  0
   16.4655   -3.6624  -15.9073 C   0  0  0  0  0  0  0  0  0  0  0  0
   16.8529   -3.0372  -16.9237 O   0  0  0  0  0  0  0  0  0  0  0  0
   19.1221   -3.5715  -15.0509 C   0  0  0  0  0  0  0  0  0  0  0  0
   18.6601   -2.4491  -15.3647 O   0  0  0  0  0  0  0  0  0  0  0  0
   15.4202   -3.1637  -15.1477 O   0  0  0  0  0  0  0  0  0  0  0  0
   20.1017   -3.5765  -14.0774 O   0  0  0  0  0  0  0  0  0  0  0  0
  2  1  1  1
  2  7  1  0
  3  2  1  0
  4  3  1  0
  5  6  2  0
  5  4  1  0
  7  8  2  0
  9  5  1  0
 10  7  1  0
 10 11  1  0
 11 12  1  6
 13 12  1  0
 14 13  1  0
 15 14  2  0
 16 11  1  0
 16 17  2  0
 18 14  1  0
 19 16  1  0
 20 19  1  0
 20 21  1  1
 22 21  1  0
 23 22  2  0
 24 20  1  0
 25 24  2  0
 26 22  1  0
 27 24  1  0
M  END
$$$$
