EED.pdb
     RDKit          3D

 27 26  0  0  1  0  0  0  0  0999 V2000
   16.6093  -13.0628  -15.9002 N   0  0  0  0  0  0  0  0  0  0  0  0
   16.6016  -11.6706  -15.6985 C   0  0  1  0  0  0  0  0  0  0  0  0
   15.7298  -11.0933  -14.6348 C   0  0  0  0  0  0  0  0  0  0  0  0
   14.2745  -11.2383  -14.9155 C   0  0  0  0  0  0  0  0  0  0  0  0
   13.5602   -9.9579  -14.8955 C   0  0  0  0  0  0  0  0  0  0  0  0
   12.8022   -9.6161  -15.8233 O   0  0  0  0  0  0  0  0  0  0  0  0
   17.9740  -11.0783  -15.4701 C   0  0  0  0  0  0  0  0  0  0  0  0
   18.4021  -10.9860  -14.2744 O   0  0  0  0  0  0  0  0  0  0  0  0
   13.7424   -9.1000  -13.7984 O   0  0  0  0  0  0  0  0  0  0  0  0
   18.8143  -10.6169  -16.4989 N   0  0  0  0  0  0  0  0  0  0  0  0
   20.1521  -10.1442  -16.1714 C   0  0  1  0  0  0  0  0  0  0  0  0
   21.1710  -10.4495  -17.2178 C   0  0  0  0  0  0  0  0  0  0  0  0
   22.5372  -10.0178  -16.7159 C   0  0  0  0  0  0  0  0  0  0  0  0
   23.5670  -10.2991  -17.7301 C   0  0  0  0  0  0  0  0  0  0  0  0
   24.5534   -9.5278  -17.8209 O   0  0  0  0  0  0  0  0  0  0  0  0
   20.1045   -8.6320  -16.0366 C   0  0  0  0  0  0  0  0  0  0  0  0
   19.3433   -8.0268  -16.7931 O   0  0  0  0  0  0  0  0  0  0  0  0
   23.4180  -11.3987  -18.5471 O   0  0  0  0  0  0  0  0  0  0  0  0
   20.8897   -7.9577  -15.0967 N   0  0  0  0  0  0  0  0  0  0  0  0
   20.8668   -6.5312  -14.8761 C   0  0  1  0  0  0  0  0  0  0  0  0
   21.3167   -6.1524  -13.5103 C   0  0  0  0  0  0  0  0  0  0  0  0
   21.2781   -4.6895  -13.3430 C   0  0  0  0  0  0  0  0  0  0  0  0
   20.2081   -4.1565  -12.9622 O   0  0  0  0  0  0  0  0  0  0  0  0
   21.5374   -5.7450  -15.9121 C   0  0  0  0  0  0  0  0  0  0  0  0
   22.6225   -6.1446  -16.3964 O   0  0  0  0  0  0  0  0  0  0  0  0
   22.3890   -3.9019  -13.5960 O   0  0  0  0  0  0  0  0  0  0  0  0
   21.0466   -4.5564  -16.4159 O   0  0  0  0  0  0  0  0  0  0  0  0
  2  1  1  1
  2  7  1  0
  3  2  1  0
  4  3  1  0
  5  6  2  0
  5  4  1  0
  7  8  2  0
  9  5  1  0
 10  7  1  0
 10 11  1  0
 11 12  1  6
 13 12  1  0
 14 13  1  0
 15 14  2  0
 16 11  1  0
 16 17  2  0
 18 14  1  0
 19 16  1  0
 20 19  1  0
 20 21  1  1
 22 21  1  0
 23 22  2  0
 24 20  1  0
 25 24  2  0
 26 22  1  0
 27 24  1  0
M  END
$$$$
