EED.pdb
     RDKit          3D

 27 26  0  0  1  0  0  0  0  0999 V2000
   19.9891  -13.7203  -17.9687 N   0  0  0  0  0  0  0  0  0  0  0  0
   19.2658  -12.6211  -17.4711 C   0  0  1  0  0  0  0  0  0  0  0  0
   18.6309  -12.7160  -16.1248 C   0  0  0  0  0  0  0  0  0  0  0  0
   17.6742  -13.8501  -15.9973 C   0  0  0  0  0  0  0  0  0  0  0  0
   16.9766  -13.8647  -14.7077 C   0  0  0  0  0  0  0  0  0  0  0  0
   17.1005  -14.8107  -13.9065 O   0  0  0  0  0  0  0  0  0  0  0  0
   20.0475  -11.3267  -17.4655 C   0  0  0  0  0  0  0  0  0  0  0  0
   21.2355  -11.3390  -17.0077 O   0  0  0  0  0  0  0  0  0  0  0  0
   16.1480  -12.7802  -14.3759 O   0  0  0  0  0  0  0  0  0  0  0  0
   19.5440  -10.1002  -17.9342 N   0  0  0  0  0  0  0  0  0  0  0  0
   20.4308   -8.9482  -18.0168 C   0  0  1  0  0  0  0  0  0  0  0  0
   20.1090   -8.0205  -19.1403 C   0  0  0  0  0  0  0  0  0  0  0  0
   18.6937   -7.5017  -18.9608 C   0  0  0  0  0  0  0  0  0  0  0  0
   18.3421   -6.5847  -20.0581 C   0  0  0  0  0  0  0  0  0  0  0  0
   18.0004   -5.4094  -19.7784 O   0  0  0  0  0  0  0  0  0  0  0  0
   20.2915   -8.1456  -16.7347 C   0  0  0  0  0  0  0  0  0  0  0  0
   19.2102   -8.2122  -16.1479 O   0  0  0  0  0  0  0  0  0  0  0  0
   18.3992   -7.0427  -21.3564 O   0  0  0  0  0  0  0  0  0  0  0  0
   21.3430   -7.3661  -16.2433 N   0  0  0  0  0  0  0  0  0  0  0  0
   21.3195   -6.6460  -14.9924 C   0  0  1  0  0  0  0  0  0  0  0  0
   22.6552   -6.1185  -14.6065 C   0  0  0  0  0  0  0  0  0  0  0  0
   22.5858   -5.4517  -13.2949 C   0  0  0  0  0  0  0  0  0  0  0  0
   22.5068   -4.2000  -13.2608 O   0  0  0  0  0  0  0  0  0  0  0  0
   20.2780   -5.6223  -14.8997 C   0  0  0  0  0  0  0  0  0  0  0  0
   19.5438   -5.5672  -13.8850 O   0  0  0  0  0  0  0  0  0  0  0  0
   22.6063   -6.1738  -12.1132 O   0  0  0  0  0  0  0  0  0  0  0  0
   20.0365   -4.6781  -15.8783 O   0  0  0  0  0  0  0  0  0  0  0  0
  2  1  1  1
  2  7  1  0
  3  2  1  0
  4  3  1  0
  5  6  2  0
  5  4  1  0
  7  8  2  0
  9  5  1  0
 10  7  1  0
 10 11  1  0
 11 12  1  6
 13 12  1  0
 14 13  1  0
 15 14  2  0
 16 11  1  0
 16 17  2  0
 18 14  1  0
 19 16  1  0
 20 19  1  0
 20 21  1  6
 22 21  1  0
 23 22  2  0
 24 20  1  0
 25 24  2  0
 26 22  1  0
 27 24  1  0
M  END
$$$$
