EED.pdb
     RDKit          3D

 27 26  0  0  1  0  0  0  0  0999 V2000
   24.4087  -15.7024  -17.2159 N   0  0  0  0  0  0  0  0  0  0  0  0
   24.0175  -16.6624  -18.1669 C   0  0  1  0  0  0  0  0  0  0  0  0
   24.8562  -16.8667  -19.3834 C   0  0  0  0  0  0  0  0  0  0  0  0
   25.8988  -15.8198  -19.5692 C   0  0  0  0  0  0  0  0  0  0  0  0
   26.7573  -16.0708  -20.7311 C   0  0  0  0  0  0  0  0  0  0  0  0
   27.9940  -16.1741  -20.6219 O   0  0  0  0  0  0  0  0  0  0  0  0
   23.7929  -18.0409  -17.5875 C   0  0  0  0  0  0  0  0  0  0  0  0
   23.3262  -18.9488  -18.3486 O   0  0  0  0  0  0  0  0  0  0  0  0
   26.1611  -16.1952  -21.9968 O   0  0  0  0  0  0  0  0  0  0  0  0
   24.0655  -18.3885  -16.2524 N   0  0  0  0  0  0  0  0  0  0  0  0
   23.7393  -19.7272  -15.7814 C   0  0  1  0  0  0  0  0  0  0  0  0
   24.8873  -20.4377  -15.1460 C   0  0  0  0  0  0  0  0  0  0  0  0
   26.0651  -20.4257  -16.1037 C   0  0  0  0  0  0  0  0  0  0  0  0
   27.1979  -21.1720  -15.5307 C   0  0  0  0  0  0  0  0  0  0  0  0
   28.2508  -21.2855  -16.2050 O   0  0  0  0  0  0  0  0  0  0  0  0
   22.6578  -19.6101  -14.7212 C   0  0  0  0  0  0  0  0  0  0  0  0
   22.6669  -18.5951  -14.0229 O   0  0  0  0  0  0  0  0  0  0  0  0
   27.0690  -21.7218  -14.2738 O   0  0  0  0  0  0  0  0  0  0  0  0
   21.6961  -20.6095  -14.5458 N   0  0  0  0  0  0  0  0  0  0  0  0
   20.4594  -20.4439  -13.8198 C   0  0  1  0  0  0  0  0  0  0  0  0
   19.7293  -19.2058  -14.2008 C   0  0  0  0  0  0  0  0  0  0  0  0
   18.4810  -19.0860  -13.4280 C   0  0  0  0  0  0  0  0  0  0  0  0
   18.5561  -18.9459  -12.1835 O   0  0  0  0  0  0  0  0  0  0  0  0
   19.5876  -21.6192  -13.8280 C   0  0  0  0  0  0  0  0  0  0  0  0
   18.5863  -21.6604  -13.0747 O   0  0  0  0  0  0  0  0  0  0  0  0
   17.2411  -19.1250  -14.0439 O   0  0  0  0  0  0  0  0  0  0  0  0
   19.7902  -22.7230  -14.6329 O   0  0  0  0  0  0  0  0  0  0  0  0
  2  1  1  1
  2  7  1  0
  3  2  1  0
  4  3  1  0
  5  6  2  0
  5  4  1  0
  7  8  2  0
  9  5  1  0
 10  7  1  0
 10 11  1  0
 11 12  1  1
 13 12  1  0
 14 13  1  0
 15 14  2  0
 16 11  1  0
 16 17  2  0
 18 14  1  0
 19 16  1  0
 20 19  1  0
 20 21  1  6
 22 21  1  0
 23 22  2  0
 24 20  1  0
 25 24  2  0
 26 22  1  0
 27 24  1  0
M  END
$$$$
