EED.pdb
     RDKit          3D

 27 26  0  0  1  0  0  0  0  0999 V2000
   18.5763  -12.7729  -15.2034 N   0  0  0  0  0  0  0  0  0  0  0  0
   19.3969  -12.1742  -16.1765 C   0  0  1  0  0  0  0  0  0  0  0  0
   19.5364  -12.8239  -17.5119 C   0  0  0  0  0  0  0  0  0  0  0  0
   19.8657  -14.2743  -17.4358 C   0  0  0  0  0  0  0  0  0  0  0  0
   18.7366  -15.0916  -16.9807 C   0  0  0  0  0  0  0  0  0  0  0  0
   17.6153  -15.0174  -17.5187 O   0  0  0  0  0  0  0  0  0  0  0  0
   19.0565  -10.7280  -16.4577 C   0  0  0  0  0  0  0  0  0  0  0  0
   19.7615  -10.0945  -17.3080 O   0  0  0  0  0  0  0  0  0  0  0  0
   18.9331  -15.9776  -15.9087 O   0  0  0  0  0  0  0  0  0  0  0  0
   18.0060  -10.0305  -15.8354 N   0  0  0  0  0  0  0  0  0  0  0  0
   17.8273   -8.6120  -16.1118 C   0  0  1  0  0  0  0  0  0  0  0  0
   16.4634   -8.1024  -15.7851 C   0  0  0  0  0  0  0  0  0  0  0  0
   15.4347   -8.9405  -16.5227 C   0  0  0  0  0  0  0  0  0  0  0  0
   14.2760   -9.2087  -15.6545 C   0  0  0  0  0  0  0  0  0  0  0  0
   14.0368  -10.3930  -15.3133 O   0  0  0  0  0  0  0  0  0  0  0  0
   18.8033   -7.8308  -15.2489 C   0  0  0  0  0  0  0  0  0  0  0  0
   18.9148   -8.1815  -14.0731 O   0  0  0  0  0  0  0  0  0  0  0  0
   13.4907   -8.1538  -15.2427 O   0  0  0  0  0  0  0  0  0  0  0  0
   19.5410   -6.7617  -15.7660 N   0  0  0  0  0  0  0  0  0  0  0  0
   20.3699   -5.8775  -14.9816 C   0  0  1  0  0  0  0  0  0  0  0  0
   21.7240   -5.6881  -15.5662 C   0  0  0  0  0  0  0  0  0  0  0  0
   22.5328   -4.7996  -14.7141 C   0  0  0  0  0  0  0  0  0  0  0  0
   23.0605   -3.7866  -15.2329 O   0  0  0  0  0  0  0  0  0  0  0  0
   19.7400   -4.6035  -14.6332 C   0  0  0  0  0  0  0  0  0  0  0  0
   20.2857   -3.8435  -13.7987 O   0  0  0  0  0  0  0  0  0  0  0  0
   22.7185   -5.0602  -13.3665 O   0  0  0  0  0  0  0  0  0  0  0  0
   18.5500   -4.1588  -15.1751 O   0  0  0  0  0  0  0  0  0  0  0  0
  2  1  1  1
  2  7  1  0
  3  2  1  0
  4  3  1  0
  5  6  2  0
  5  4  1  0
  7  8  2  0
  9  5  1  0
 10  7  1  0
 10 11  1  0
 11 12  1  1
 13 12  1  0
 14 13  1  0
 15 14  2  0
 16 11  1  0
 16 17  2  0
 18 14  1  0
 19 16  1  0
 20 19  1  0
 20 21  1  6
 22 21  1  0
 23 22  2  0
 24 20  1  0
 25 24  2  0
 26 22  1  0
 27 24  1  0
M  END
$$$$
