EED.pdb
     RDKit          3D

 27 26  0  0  1  0  0  0  0  0999 V2000
   22.2742  -12.8714  -16.7574 N   0  0  0  0  0  0  0  0  0  0  0  0
   22.5172  -11.8533  -17.6973 C   0  0  1  0  0  0  0  0  0  0  0  0
   22.1706  -12.0859  -19.1293 C   0  0  0  0  0  0  0  0  0  0  0  0
   22.0379  -13.5266  -19.4823 C   0  0  0  0  0  0  0  0  0  0  0  0
   22.4074  -13.8086  -20.8730 C   0  0  0  0  0  0  0  0  0  0  0  0
   22.2515  -14.9375  -21.3762 O   0  0  0  0  0  0  0  0  0  0  0  0
   21.8927  -10.5248  -17.3348 C   0  0  0  0  0  0  0  0  0  0  0  0
   22.1067   -9.5274  -18.0968 O   0  0  0  0  0  0  0  0  0  0  0  0
   22.9520  -12.7731  -21.6502 O   0  0  0  0  0  0  0  0  0  0  0  0
   21.0867  -10.3160  -16.2015 N   0  0  0  0  0  0  0  0  0  0  0  0
   20.3840   -9.0500  -16.0475 C   0  0  1  0  0  0  0  0  0  0  0  0
   19.1306   -9.1515  -15.2441 C   0  0  0  0  0  0  0  0  0  0  0  0
   18.0852   -9.8968  -16.0542 C   0  0  0  0  0  0  0  0  0  0  0  0
   16.8416  -10.0374  -15.2783 C   0  0  0  0  0  0  0  0  0  0  0  0
   16.0321  -10.9444  -15.5918 O   0  0  0  0  0  0  0  0  0  0  0  0
   21.2966   -8.0836  -15.3123 C   0  0  0  0  0  0  0  0  0  0  0  0
   22.0301   -8.5583  -14.4437 O   0  0  0  0  0  0  0  0  0  0  0  0
   16.6042   -9.1716  -14.2329 O   0  0  0  0  0  0  0  0  0  0  0  0
   21.3030   -6.7172  -15.6078 N   0  0  0  0  0  0  0  0  0  0  0  0
   22.1494   -5.7398  -14.9658 C   0  0  1  0  0  0  0  0  0  0  0  0
   22.3661   -4.5286  -15.8008 C   0  0  0  0  0  0  0  0  0  0  0  0
   23.0202   -4.8890  -17.0704 C   0  0  0  0  0  0  0  0  0  0  0  0
   23.7211   -5.9288  -17.1111 O   0  0  0  0  0  0  0  0  0  0  0  0
   21.7562   -5.3998  -13.5980 C   0  0  0  0  0  0  0  0  0  0  0  0
   20.6736   -5.8288  -13.1335 O   0  0  0  0  0  0  0  0  0  0  0  0
   22.8768   -4.1092  -18.2061 O   0  0  0  0  0  0  0  0  0  0  0  0
   22.5153   -4.6173  -12.7501 O   0  0  0  0  0  0  0  0  0  0  0  0
  2  1  1  1
  2  7  1  0
  3  2  1  0
  4  3  1  0
  5  6  2  0
  5  4  1  0
  7  8  2  0
  9  5  1  0
 10  7  1  0
 10 11  1  0
 11 12  1  1
 13 12  1  0
 14 13  1  0
 15 14  2  0
 16 11  1  0
 16 17  2  0
 18 14  1  0
 19 16  1  0
 20 19  1  0
 20 21  1  6
 22 21  1  0
 23 22  2  0
 24 20  1  0
 25 24  2  0
 26 22  1  0
 27 24  1  0
M  END
$$$$
