DSL.pdb
     RDKit          3D

 23 22  0  0  1  0  0  0  0  0999 V2000
   11.7973  -15.1314   18.2730 N   0  0  0  0  0  0  0  0  0  0  0  0
   12.5021  -15.5700   19.4859 C   0  0  1  0  0  0  0  0  0  0  0  0
   13.5594  -14.4814   19.6931 C   0  0  0  0  0  0  0  0  0  0  0  0
   14.6944  -14.7169   18.7923 C   0  0  0  0  0  0  0  0  0  0  0  0
   14.8649  -15.9259   18.4127 O   0  0  0  0  0  0  0  0  0  0  0  0
   11.5626  -15.5463   20.6265 C   0  0  0  0  0  0  0  0  0  0  0  0
   10.8011  -14.5586   20.7335 O   0  0  0  0  0  0  0  0  0  0  0  0
   15.5699  -13.7497   18.3368 O   0  0  0  0  0  0  0  0  0  0  0  0
   10.6757  -18.9336   22.8054 O   0  0  0  0  0  0  0  0  0  0  0  0
    9.7755  -17.8863   22.6555 C   0  0  0  0  0  0  0  0  0  0  0  0
   10.5375  -16.5341   22.6181 C   0  0  2  0  0  0  0  0  0  0  0  0
   11.5178  -16.6101   21.5722 N   0  0  0  0  0  0  0  0  0  0  0  0
   11.0746  -16.3090   23.9654 C   0  0  0  0  0  0  0  0  0  0  0  0
   12.3017  -16.5512   24.1680 O   0  0  0  0  0  0  0  0  0  0  0  0
    9.9454  -15.4932   29.4392 C   0  0  0  0  0  0  0  0  0  0  0  0
   10.4428  -14.3908   28.5176 C   0  0  2  0  0  0  0  0  0  0  0  0
    9.8596  -13.0974   29.1016 C   0  0  0  0  0  0  0  0  0  0  0  0
    9.9730  -14.6095   27.1020 C   0  0  0  0  0  0  0  0  0  0  0  0
   10.6958  -15.6849   26.3760 C   0  0  2  0  0  0  0  0  0  0  0  0
   10.2548  -15.8346   25.0040 N   0  0  0  0  0  0  0  0  0  0  0  0
   10.7481  -16.9943   27.0771 C   0  0  0  0  0  0  0  0  0  0  0  0
   11.7921  -17.4193   27.8776 O   0  0  0  0  0  0  0  0  0  0  0  0
    9.7878  -17.8353   26.9704 O   0  0  0  0  0  0  0  0  0  0  0  0
  2  1  1  6
  2  3  1  0
  3  4  1  0
  4  5  2  0
  6 12  1  0
  6  2  1  0
  7  6  2  0
  8  4  1  0
  9 10  1  0
 11 10  1  1
 11 12  1  0
 11 13  1  0
 13 20  1  0
 14 13  2  0
 16 18  1  0
 16 15  1  1
 17 16  1  0
 19 18  1  1
 19 21  1  0
 20 19  1  0
 21 22  1  0
 23 21  2  0
M  END
$$$$
