DSL.pdb
     RDKit          3D

 23 22  0  0  1  0  0  0  0  0999 V2000
   10.7888  -19.5378   20.2692 N   0  0  0  0  0  0  0  0  0  0  0  0
   11.8015  -18.6472   20.8537 C   0  0  1  0  0  0  0  0  0  0  0  0
   12.6706  -18.2641   19.6521 C   0  0  0  0  0  0  0  0  0  0  0  0
   13.5606  -19.3802   19.3100 C   0  0  0  0  0  0  0  0  0  0  0  0
   13.7625  -20.2381   20.2364 O   0  0  0  0  0  0  0  0  0  0  0  0
   11.1371  -17.4318   21.3691 C   0  0  0  0  0  0  0  0  0  0  0  0
   11.4430  -16.3354   20.8484 O   0  0  0  0  0  0  0  0  0  0  0  0
   14.1805  -19.5654   18.0889 O   0  0  0  0  0  0  0  0  0  0  0  0
    7.8093  -17.5911   23.8269 O   0  0  0  0  0  0  0  0  0  0  0  0
    8.0514  -16.5065   22.9933 C   0  0  0  0  0  0  0  0  0  0  0  0
    9.5803  -16.2716   22.8603 C   0  0  2  0  0  0  0  0  0  0  0  0
   10.1776  -17.5001   22.4192 N   0  0  0  0  0  0  0  0  0  0  0  0
   10.0512  -15.7767   24.1594 C   0  0  0  0  0  0  0  0  0  0  0  0
   10.4745  -14.5843   24.2271 O   0  0  0  0  0  0  0  0  0  0  0  0
    9.2972  -13.1108   28.7263 C   0  0  0  0  0  0  0  0  0  0  0  0
   10.1062  -14.3458   28.3624 C   0  0  2  0  0  0  0  0  0  0  0  0
   11.5628  -13.8650   28.3270 C   0  0  0  0  0  0  0  0  0  0  0  0
    9.6834  -14.9010   27.0262 C   0  0  0  0  0  0  0  0  0  0  0  0
   10.3918  -16.1442   26.6277 C   0  0  2  0  0  0  0  0  0  0  0  0
   10.0317  -16.5981   25.2998 N   0  0  0  0  0  0  0  0  0  0  0  0
   10.3287  -17.2511   27.6174 C   0  0  0  0  0  0  0  0  0  0  0  0
    9.5641  -18.3941   27.4749 O   0  0  0  0  0  0  0  0  0  0  0  0
   11.0074  -17.2013   28.7027 O   0  0  0  0  0  0  0  0  0  0  0  0
  2  1  1  6
  2  3  1  0
  3  4  1  0
  4  5  2  0
  6 12  1  0
  6  2  1  0
  7  6  2  0
  8  4  1  0
  9 10  1  0
 11 10  1  1
 11 12  1  0
 11 13  1  0
 13 20  1  0
 14 13  2  0
 16 18  1  0
 16 15  1  6
 17 16  1  0
 19 18  1  1
 19 21  1  0
 20 19  1  0
 21 22  1  0
 23 21  2  0
M  END
$$$$
