DSL.pdb
     RDKit          3D

 23 22  0  0  1  0  0  0  0  0999 V2000
    6.6551  -19.3593   18.9207 N   0  0  0  0  0  0  0  0  0  0  0  0
    7.5709  -18.3309   19.4347 C   0  0  1  0  0  0  0  0  0  0  0  0
    7.3262  -17.1416   18.5010 C   0  0  0  0  0  0  0  0  0  0  0  0
    8.3130  -17.1553   17.4142 C   0  0  0  0  0  0  0  0  0  0  0  0
    9.1566  -18.1159   17.4374 O   0  0  0  0  0  0  0  0  0  0  0  0
    7.1581  -17.9561   20.8034 C   0  0  0  0  0  0  0  0  0  0  0  0
    6.0624  -17.3667   20.9405 O   0  0  0  0  0  0  0  0  0  0  0  0
    8.3934  -16.2275   16.3933 O   0  0  0  0  0  0  0  0  0  0  0  0
    9.2938  -19.0912   24.2566 O   0  0  0  0  0  0  0  0  0  0  0  0
    7.9113  -18.9561   24.2437 C   0  0  0  0  0  0  0  0  0  0  0  0
    7.4957  -17.8596   23.2262 C   0  0  2  0  0  0  0  0  0  0  0  0
    7.9730  -18.2566   21.9319 N   0  0  0  0  0  0  0  0  0  0  0  0
    8.0285  -16.5872   23.7276 C   0  0  0  0  0  0  0  0  0  0  0  0
    9.1636  -16.2086   23.3107 O   0  0  0  0  0  0  0  0  0  0  0  0
    7.8836  -12.6312   27.6145 C   0  0  0  0  0  0  0  0  0  0  0  0
    7.1642  -12.3841   26.2979 C   0  0  2  0  0  0  0  0  0  0  0  0
    5.9793  -11.4797   26.6612 C   0  0  0  0  0  0  0  0  0  0  0  0
    6.6936  -13.6770   25.6820 C   0  0  0  0  0  0  0  0  0  0  0  0
    7.7870  -14.5624   25.2059 C   0  0  2  0  0  0  0  0  0  0  0  0
    7.3016  -15.8057   24.6423 N   0  0  0  0  0  0  0  0  0  0  0  0
    8.8794  -14.7984   26.1857 C   0  0  0  0  0  0  0  0  0  0  0  0
    8.8284  -15.7165   27.2180 O   0  0  0  0  0  0  0  0  0  0  0  0
    9.9724  -14.1333   26.1235 O   0  0  0  0  0  0  0  0  0  0  0  0
  2  1  1  6
  2  3  1  0
  3  4  1  0
  4  5  2  0
  6 12  1  0
  6  2  1  0
  7  6  2  0
  8  4  1  0
  9 10  1  0
 11 10  1  1
 11 12  1  0
 11 13  1  0
 13 20  1  0
 14 13  2  0
 16 18  1  0
 16 15  1  1
 17 16  1  0
 19 18  1  1
 19 21  1  0
 20 19  1  0
 21 22  1  0
 23 21  2  0
M  END
$$$$
