DSL.pdb
     RDKit          3D

 23 22  0  0  1  0  0  0  0  0999 V2000
   11.8953  -18.8498   20.6895 N   0  0  0  0  0  0  0  0  0  0  0  0
   11.5251  -17.4915   20.2672 C   0  0  1  0  0  0  0  0  0  0  0  0
   11.1817  -17.6638   18.7845 C   0  0  0  0  0  0  0  0  0  0  0  0
   12.4160  -17.8317   18.0076 C   0  0  0  0  0  0  0  0  0  0  0  0
   12.8967  -19.0160   17.9713 O   0  0  0  0  0  0  0  0  0  0  0  0
   10.3078  -17.0739   20.9937 C   0  0  0  0  0  0  0  0  0  0  0  0
    9.7892  -15.9786   20.6802 O   0  0  0  0  0  0  0  0  0  0  0  0
   13.0789  -16.8264   17.3297 O   0  0  0  0  0  0  0  0  0  0  0  0
    8.7149  -19.2350   24.2388 O   0  0  0  0  0  0  0  0  0  0  0  0
    7.8553  -18.6021   23.3499 C   0  0  0  0  0  0  0  0  0  0  0  0
    8.5717  -17.3931   22.6901 C   0  0  2  0  0  0  0  0  0  0  0  0
    9.7372  -17.8878   22.0136 N   0  0  0  0  0  0  0  0  0  0  0  0
    8.8321  -16.4174   23.7553 C   0  0  0  0  0  0  0  0  0  0  0  0
    9.9952  -16.3752   24.2561 O   0  0  0  0  0  0  0  0  0  0  0  0
    5.5663  -12.2037   27.0550 C   0  0  0  0  0  0  0  0  0  0  0  0
    6.8898  -12.8942   26.7660 C   0  0  2  0  0  0  0  0  0  0  0  0
    7.8777  -11.7523   26.4940 C   0  0  0  0  0  0  0  0  0  0  0  0
    6.7778  -13.8125   25.5757 C   0  0  0  0  0  0  0  0  0  0  0  0
    7.9558  -14.6932   25.3686 C   0  0  2  0  0  0  0  0  0  0  0  0
    7.8230  -15.5497   24.2076 N   0  0  0  0  0  0  0  0  0  0  0  0
    8.3874  -15.4612   26.5655 C   0  0  0  0  0  0  0  0  0  0  0  0
    9.4850  -15.1523   27.3474 O   0  0  0  0  0  0  0  0  0  0  0  0
    7.7382  -16.4958   26.9512 O   0  0  0  0  0  0  0  0  0  0  0  0
  2  1  1  1
  2  3  1  0
  3  4  1  0
  4  5  2  0
  6 12  1  0
  6  2  1  0
  7  6  2  0
  8  4  1  0
  9 10  1  0
 11 10  1  1
 11 12  1  0
 11 13  1  0
 13 20  1  0
 14 13  2  0
 16 18  1  0
 16 15  1  6
 17 16  1  0
 19 18  1  1
 19 21  1  0
 20 19  1  0
 21 22  1  0
 23 21  2  0
M  END
$$$$
