DSL.pdb
     RDKit          3D

 23 22  0  0  1  0  0  0  0  0999 V2000
    9.9761  -18.4085   19.9444 N   0  0  0  0  0  0  0  0  0  0  0  0
    9.7167  -16.9751   19.7482 C   0  0  1  0  0  0  0  0  0  0  0  0
    8.9876  -16.9293   18.4019 C   0  0  0  0  0  0  0  0  0  0  0  0
    9.9599  -17.0513   17.3089 C   0  0  0  0  0  0  0  0  0  0  0  0
   10.9021  -17.8963   17.4908 O   0  0  0  0  0  0  0  0  0  0  0  0
    8.7987  -16.5006   20.8047 C   0  0  0  0  0  0  0  0  0  0  0  0
    8.5213  -15.2802   20.8303 O   0  0  0  0  0  0  0  0  0  0  0  0
    9.9306  -16.3360   16.1269 O   0  0  0  0  0  0  0  0  0  0  0  0
    7.4735  -18.9972   23.8985 O   0  0  0  0  0  0  0  0  0  0  0  0
    6.6296  -17.9840   23.4617 C   0  0  0  0  0  0  0  0  0  0  0  0
    7.4625  -16.8372   22.8282 C   0  0  2  0  0  0  0  0  0  0  0  0
    8.2421  -17.3972   21.7609 N   0  0  0  0  0  0  0  0  0  0  0  0
    8.2360  -16.2212   23.9130 C   0  0  0  0  0  0  0  0  0  0  0  0
    9.4945  -16.3686   23.9082 O   0  0  0  0  0  0  0  0  0  0  0  0
    8.1027  -11.8012   25.4051 C   0  0  0  0  0  0  0  0  0  0  0  0
    6.9781  -12.7305   25.8338 C   0  0  2  0  0  0  0  0  0  0  0  0
    5.9854  -11.8285   26.5788 C   0  0  0  0  0  0  0  0  0  0  0  0
    7.4902  -13.8312   26.7275 C   0  0  0  0  0  0  0  0  0  0  0  0
    8.3059  -14.8574   26.0293 C   0  0  2  0  0  0  0  0  0  0  0  0
    7.6026  -15.4847   24.9289 N   0  0  0  0  0  0  0  0  0  0  0  0
    8.9426  -15.8669   26.9149 C   0  0  0  0  0  0  0  0  0  0  0  0
   10.0683  -15.6424   27.6855 O   0  0  0  0  0  0  0  0  0  0  0  0
    8.4620  -17.0502   27.0137 O   0  0  0  0  0  0  0  0  0  0  0  0
  2  1  1  1
  2  3  1  0
  3  4  1  0
  4  5  2  0
  6 12  1  0
  6  2  1  0
  7  6  2  0
  8  4  1  0
  9 10  1  0
 11 10  1  1
 11 12  1  0
 11 13  1  0
 13 20  1  0
 14 13  2  0
 16 18  1  0
 16 15  1  1
 17 16  1  0
 19 18  1  1
 19 21  1  0
 20 19  1  0
 21 22  1  0
 23 21  2  0
M  END
$$$$
