DSL.pdb
     RDKit          3D

 23 22  0  0  1  0  0  0  0  0999 V2000
   12.4856  -18.7385   20.7175 N   0  0  0  0  0  0  0  0  0  0  0  0
   11.8892  -17.4062   20.5459 C   0  0  1  0  0  0  0  0  0  0  0  0
   11.1151  -17.5326   19.2303 C   0  0  0  0  0  0  0  0  0  0  0  0
   12.0575  -17.6821   18.1147 C   0  0  0  0  0  0  0  0  0  0  0  0
   13.0446  -18.4688   18.3187 O   0  0  0  0  0  0  0  0  0  0  0  0
   10.9297  -17.1607   21.6427 C   0  0  0  0  0  0  0  0  0  0  0  0
   10.2648  -16.1007   21.6087 O   0  0  0  0  0  0  0  0  0  0  0  0
   11.9566  -17.0493   16.8904 O   0  0  0  0  0  0  0  0  0  0  0  0
   10.1188  -20.0325   24.5159 O   0  0  0  0  0  0  0  0  0  0  0  0
    9.1490  -19.0873   24.2064 C   0  0  0  0  0  0  0  0  0  0  0  0
    9.8239  -17.7690   23.7405 C   0  0  2  0  0  0  0  0  0  0  0  0
   10.7597  -18.0967   22.7025 N   0  0  0  0  0  0  0  0  0  0  0  0
   10.4052  -17.1417   24.9333 C   0  0  0  0  0  0  0  0  0  0  0  0
   11.6663  -17.1448   25.0561 O   0  0  0  0  0  0  0  0  0  0  0  0
   10.1903  -12.7643   27.4959 C   0  0  0  0  0  0  0  0  0  0  0  0
    9.0887  -13.7114   27.0470 C   0  0  2  0  0  0  0  0  0  0  0  0
    7.7818  -12.9750   27.3693 C   0  0  0  0  0  0  0  0  0  0  0  0
    9.1675  -15.0266   27.7796 C   0  0  0  0  0  0  0  0  0  0  0  0
   10.0884  -16.0162   27.1642 C   0  0  2  0  0  0  0  0  0  0  0  0
    9.5893  -16.5497   25.9130 N   0  0  0  0  0  0  0  0  0  0  0  0
   10.5496  -17.0985   28.0723 C   0  0  0  0  0  0  0  0  0  0  0  0
   11.6172  -16.9948   28.9446 O   0  0  0  0  0  0  0  0  0  0  0  0
    9.9578  -18.2343   28.0942 O   0  0  0  0  0  0  0  0  0  0  0  0
  2  1  1  1
  2  3  1  0
  3  4  1  0
  4  5  2  0
  6 12  1  0
  6  2  1  0
  7  6  2  0
  8  4  1  0
  9 10  1  0
 11 10  1  1
 11 12  1  0
 11 13  1  0
 13 20  1  0
 14 13  2  0
 16 18  1  0
 16 15  1  1
 17 16  1  0
 19 18  1  1
 19 21  1  0
 20 19  1  0
 21 22  1  0
 23 21  2  0
M  END
$$$$
