DSL.pdb
     RDKit          3D

 23 22  0  0  1  0  0  0  0  0999 V2000
   13.3501  -19.3353   20.7437 N   0  0  0  0  0  0  0  0  0  0  0  0
   13.6022  -17.9052   20.9709 C   0  0  1  0  0  0  0  0  0  0  0  0
   13.5094  -17.3026   19.5658 C   0  0  0  0  0  0  0  0  0  0  0  0
   14.7532  -17.5659   18.8319 C   0  0  0  0  0  0  0  0  0  0  0  0
   14.9487  -18.7798   18.4809 O   0  0  0  0  0  0  0  0  0  0  0  0
   12.5145  -17.3483   21.8020 C   0  0  0  0  0  0  0  0  0  0  0  0
   12.4433  -16.1033   21.9103 O   0  0  0  0  0  0  0  0  0  0  0  0
   15.7043  -16.6193   18.5017 O   0  0  0  0  0  0  0  0  0  0  0  0
    9.8811  -19.7373   24.0331 O   0  0  0  0  0  0  0  0  0  0  0  0
    9.3800  -18.6224   23.3732 C   0  0  0  0  0  0  0  0  0  0  0  0
   10.5049  -17.5695   23.1826 C   0  0  2  0  0  0  0  0  0  0  0  0
   11.5739  -18.1941   22.4561 N   0  0  0  0  0  0  0  0  0  0  0  0
   10.8596  -17.0765   24.5189 C   0  0  0  0  0  0  0  0  0  0  0  0
   11.9275  -17.5041   25.0499 O   0  0  0  0  0  0  0  0  0  0  0  0
    8.5065  -13.1416   28.7939 C   0  0  0  0  0  0  0  0  0  0  0  0
    9.4773  -14.2571   28.4401 C   0  0  2  0  0  0  0  0  0  0  0  0
   10.8624  -13.6992   28.7929 C   0  0  0  0  0  0  0  0  0  0  0  0
    9.3901  -14.6134   26.9779 C   0  0  0  0  0  0  0  0  0  0  0  0
   10.2210  -15.7787   26.5809 C   0  0  2  0  0  0  0  0  0  0  0  0
   10.0417  -16.1530   25.1928 N   0  0  0  0  0  0  0  0  0  0  0  0
   10.1239  -16.9583   27.4798 C   0  0  0  0  0  0  0  0  0  0  0  0
   11.0664  -17.3061   28.4295 O   0  0  0  0  0  0  0  0  0  0  0  0
    9.1190  -17.7502   27.4179 O   0  0  0  0  0  0  0  0  0  0  0  0
  2  1  1  6
  2  3  1  0
  3  4  1  0
  4  5  2  0
  6 12  1  0
  6  2  1  0
  7  6  2  0
  8  4  1  0
  9 10  1  0
 11 10  1  1
 11 12  1  0
 11 13  1  0
 13 20  1  0
 14 13  2  0
 16 18  1  0
 16 15  1  6
 17 16  1  0
 19 18  1  1
 19 21  1  0
 20 19  1  0
 21 22  1  0
 23 21  2  0
M  END
$$$$
