EIQ.pdb
     RDKit          3D

 27 26  0  0  1  0  0  0  0  0999 V2000
   27.8614  -21.2246  -16.0292 N   0  0  0  0  0  0  0  0  0  0  0  0
   27.3602  -20.2169  -15.0959 C   0  0  1  0  0  0  0  0  0  0  0  0
   26.7926  -19.0614  -15.8746 C   0  0  0  0  0  0  0  0  0  0  0  0
   27.7935  -18.3333  -16.7264 C   0  0  0  0  0  0  0  0  0  0  0  0
   27.7609  -18.6781  -18.1511 C   0  0  0  0  0  0  0  0  0  0  0  0
   28.7838  -18.9977  -18.7928 O   0  0  0  0  0  0  0  0  0  0  0  0
   26.3131  -20.7891  -14.2226 C   0  0  0  0  0  0  0  0  0  0  0  0
   25.4247  -21.5960  -14.5874 O   0  0  0  0  0  0  0  0  0  0  0  0
   26.5411  -18.6578  -18.8542 O   0  0  0  0  0  0  0  0  0  0  0  0
   24.6650  -21.3643   -8.1700 C   0  0  0  0  0  0  0  0  0  0  0  0
   24.3472  -21.4386   -9.6486 C   0  0  0  0  0  0  0  0  0  0  0  0
   25.4339  -20.8075  -10.4895 C   0  0  2  0  0  0  0  0  0  0  0  0
   25.7802  -19.4214  -10.0344 C   0  0  0  0  0  0  0  0  0  0  0  0
   25.2160  -20.9228  -11.9533 C   0  0  2  0  0  0  0  0  0  0  0  0
   26.2115  -20.4648  -12.8307 N   0  0  0  0  0  0  0  0  0  0  0  0
   23.8824  -20.3386  -12.3098 C   0  0  0  0  0  0  0  0  0  0  0  0
   23.7614  -19.1664  -12.7581 O   0  0  0  0  0  0  0  0  0  0  0  0
   22.0578  -19.8555  -17.3773 N   0  0  0  0  0  0  0  0  0  0  0  0
   21.0282  -20.0129  -16.4335 C   0  0  0  0  0  0  0  0  0  0  0  0
   19.8762  -20.4009  -16.7185 O   0  0  0  0  0  0  0  0  0  0  0  0
   21.3576  -19.6880  -14.9970 C   0  0  0  0  0  0  0  0  0  0  0  0
   21.2813  -20.9274  -14.1622 C   0  0  0  0  0  0  0  0  0  0  0  0
   21.3914  -20.6119  -12.7163 C   0  0  2  0  0  0  0  0  0  0  0  0
   22.6727  -21.0770  -12.1618 N   0  0  0  0  0  0  0  0  0  0  0  0
   20.2722  -21.0487  -11.8638 C   0  0  0  0  0  0  0  0  0  0  0  0
   19.1298  -20.4751  -11.9106 O   0  0  0  0  0  0  0  0  0  0  0  0
   20.3619  -22.0947  -10.9634 O   0  0  0  0  0  0  0  0  0  0  0  0
  2  1  1  6
  2  3  1  0
  4  3  1  0
  4  5  1  0
  5  9  1  0
  6  5  2  0
  7 15  1  0
  7  2  1  0
  8  7  2  0
 11 10  1  0
 12 11  1  0
 12 13  1  1
 14 15  1  6
 14 12  1  0
 16 14  1  0
 17 16  2  0
 19 20  2  0
 19 18  1  0
 21 19  1  0
 22 21  1  0
 23 22  1  6
 23 24  1  0
 24 16  1  0
 25 23  1  0
 26 25  2  0
 27 25  1  0
M  END
$$$$
