EIQ.pdb
     RDKit          3D

 27 26  0  0  1  0  0  0  0  0999 V2000
   19.6295  -11.4014  -16.9070 N   0  0  0  0  0  0  0  0  0  0  0  0
   19.4716  -10.6302  -15.6749 C   0  0  1  0  0  0  0  0  0  0  0  0
   20.7075   -9.8027  -15.4482 C   0  0  0  0  0  0  0  0  0  0  0  0
   21.9585  -10.6024  -15.2182 C   0  0  0  0  0  0  0  0  0  0  0  0
   23.1718   -9.8067  -15.0079 C   0  0  0  0  0  0  0  0  0  0  0  0
   23.1893   -8.5617  -15.1067 O   0  0  0  0  0  0  0  0  0  0  0  0
   18.2903   -9.7450  -15.7609 C   0  0  0  0  0  0  0  0  0  0  0  0
   17.9639   -9.0654  -16.7633 O   0  0  0  0  0  0  0  0  0  0  0  0
   24.3845  -10.4426  -14.6796 O   0  0  0  0  0  0  0  0  0  0  0  0
   14.8814  -11.8333  -14.1477 C   0  0  0  0  0  0  0  0  0  0  0  0
   14.4362  -10.5557  -14.8277 C   0  0  0  0  0  0  0  0  0  0  0  0
   14.9607   -9.3285  -14.1167 C   0  0  2  0  0  0  0  0  0  0  0  0
   13.8970   -8.2958  -13.8931 C   0  0  0  0  0  0  0  0  0  0  0  0
   16.2172   -8.7833  -14.6891 C   0  0  2  0  0  0  0  0  0  0  0  0
   17.3766   -9.5746  -14.6705 N   0  0  0  0  0  0  0  0  0  0  0  0
   16.4879   -7.4290  -14.1065 C   0  0  0  0  0  0  0  0  0  0  0  0
   16.7585   -7.2652  -12.8860 O   0  0  0  0  0  0  0  0  0  0  0  0
   19.0982   -2.6695  -16.9077 N   0  0  0  0  0  0  0  0  0  0  0  0
   19.7139   -3.8338  -16.4169 C   0  0  0  0  0  0  0  0  0  0  0  0
   20.8740   -4.1862  -16.7152 O   0  0  0  0  0  0  0  0  0  0  0  0
   18.9062   -4.6933  -15.4752 C   0  0  0  0  0  0  0  0  0  0  0  0
   17.5486   -4.0967  -15.2761 C   0  0  0  0  0  0  0  0  0  0  0  0
   16.7318   -4.9132  -14.3441 C   0  0  2  0  0  0  0  0  0  0  0  0
   16.4546   -6.2467  -14.9013 N   0  0  0  0  0  0  0  0  0  0  0  0
   15.4907   -4.2944  -13.8472 C   0  0  0  0  0  0  0  0  0  0  0  0
   15.5125   -3.2896  -13.0558 O   0  0  0  0  0  0  0  0  0  0  0  0
   14.2264   -4.7379  -14.1901 O   0  0  0  0  0  0  0  0  0  0  0  0
  2  1  1  6
  2  3  1  0
  4  3  1  0
  4  5  1  0
  5  9  1  0
  6  5  2  0
  7 15  1  0
  7  2  1  0
  8  7  2  0
 11 10  1  0
 12 11  1  0
 12 13  1  6
 14 15  1  1
 14 12  1  0
 16 14  1  0
 17 16  2  0
 19 20  2  0
 19 18  1  0
 21 19  1  0
 22 21  1  0
 23 22  1  6
 23 24  1  0
 24 16  1  0
 25 23  1  0
 26 25  2  0
 27 25  1  0
M  END
$$$$
