EIQ.pdb
     RDKit          3D

 27 26  0  0  1  0  0  0  0  0999 V2000
   14.4122  -12.5575  -11.5998 N   0  0  0  0  0  0  0  0  0  0  0  0
   13.9432  -11.2752  -12.1228 C   0  0  1  0  0  0  0  0  0  0  0  0
   12.6229  -10.9354  -11.4864 C   0  0  0  0  0  0  0  0  0  0  0  0
   11.4955  -11.8542  -11.8632 C   0  0  0  0  0  0  0  0  0  0  0  0
   11.1300  -11.8354  -13.2830 C   0  0  0  0  0  0  0  0  0  0  0  0
   10.7674  -12.8584  -13.9013 O   0  0  0  0  0  0  0  0  0  0  0  0
   14.9225  -10.2050  -11.8363 C   0  0  0  0  0  0  0  0  0  0  0  0
   15.4248   -9.9624  -10.7128 O   0  0  0  0  0  0  0  0  0  0  0  0
   11.1793  -10.6295  -14.0083 O   0  0  0  0  0  0  0  0  0  0  0  0
   17.9306   -9.1252  -15.8152 C   0  0  0  0  0  0  0  0  0  0  0  0
   18.0536   -9.0169  -14.3100 C   0  0  0  0  0  0  0  0  0  0  0  0
   17.2258   -7.8778  -13.7589 C   0  0  2  0  0  0  0  0  0  0  0  0
   18.0478   -6.6571  -13.4718 C   0  0  0  0  0  0  0  0  0  0  0  0
   16.3173   -8.2653  -12.6507 C   0  0  2  0  0  0  0  0  0  0  0  0
   15.4059   -9.3144  -12.8492 N   0  0  0  0  0  0  0  0  0  0  0  0
   15.6204   -7.0473  -12.1238 C   0  0  0  0  0  0  0  0  0  0  0  0
   14.6915   -6.4782  -12.7586 O   0  0  0  0  0  0  0  0  0  0  0  0
   14.8820   -5.5007   -6.1838 N   0  0  0  0  0  0  0  0  0  0  0  0
   14.3991   -4.3120   -6.7578 C   0  0  0  0  0  0  0  0  0  0  0  0
   13.9398   -3.3569   -6.0977 O   0  0  0  0  0  0  0  0  0  0  0  0
   14.4487   -4.2061   -8.2625 C   0  0  0  0  0  0  0  0  0  0  0  0
   15.1197   -5.4133   -8.8379 C   0  0  0  0  0  0  0  0  0  0  0  0
   15.2483   -5.3077  -10.3127 C   0  0  2  0  0  0  0  0  0  0  0  0
   15.9692   -6.4622  -10.8723 N   0  0  0  0  0  0  0  0  0  0  0  0
   15.8094   -4.0487  -10.8324 C   0  0  0  0  0  0  0  0  0  0  0  0
   15.0842   -3.0074  -10.9940 O   0  0  0  0  0  0  0  0  0  0  0  0
   17.1392   -3.8914  -11.1786 O   0  0  0  0  0  0  0  0  0  0  0  0
  2  1  1  1
  2  3  1  0
  4  3  1  0
  4  5  1  0
  5  9  1  0
  6  5  2  0
  7 15  1  0
  7  2  1  0
  8  7  2  0
 11 10  1  0
 12 11  1  0
 12 13  1  1
 14 15  1  6
 14 12  1  0
 16 14  1  0
 17 16  2  0
 19 20  2  0
 19 18  1  0
 21 19  1  0
 22 21  1  0
 23 22  1  1
 23 24  1  0
 24 16  1  0
 25 23  1  0
 26 25  2  0
 27 25  1  0
M  END
$$$$
