EIQ.pdb
     RDKit          3D

 27 26  0  0  1  0  0  0  0  0999 V2000
   28.3537  -20.4864  -16.2426 N   0  0  0  0  0  0  0  0  0  0  0  0
   27.7573  -19.7273  -15.1445 C   0  0  1  0  0  0  0  0  0  0  0  0
   27.2001  -18.4370  -15.6814 C   0  0  0  0  0  0  0  0  0  0  0  0
   28.2120  -17.5548  -16.3560 C   0  0  0  0  0  0  0  0  0  0  0  0
   28.4605  -17.8650  -17.7673 C   0  0  0  0  0  0  0  0  0  0  0  0
   27.5471  -17.9258  -18.6171 O   0  0  0  0  0  0  0  0  0  0  0  0
   26.6773  -20.5040  -14.4990 C   0  0  0  0  0  0  0  0  0  0  0  0
   25.9203  -21.3171  -15.0813 O   0  0  0  0  0  0  0  0  0  0  0  0
   29.7728  -18.1096  -18.2154 O   0  0  0  0  0  0  0  0  0  0  0  0
   25.4763  -20.4986   -8.6177 C   0  0  0  0  0  0  0  0  0  0  0  0
   25.2228  -20.1894  -10.0781 C   0  0  0  0  0  0  0  0  0  0  0  0
   25.5451  -21.3697  -10.9666 C   0  0  2  0  0  0  0  0  0  0  0  0
   26.8508  -22.0159  -10.6119 C   0  0  0  0  0  0  0  0  0  0  0  0
   25.3810  -21.1028  -12.4177 C   0  0  2  0  0  0  0  0  0  0  0  0
   26.3842  -20.3973  -13.1006 N   0  0  0  0  0  0  0  0  0  0  0  0
   24.0359  -20.4897  -12.6662 C   0  0  0  0  0  0  0  0  0  0  0  0
   23.8132  -19.2625  -12.4815 O   0  0  0  0  0  0  0  0  0  0  0  0
   20.4559  -20.8493  -17.3448 N   0  0  0  0  0  0  0  0  0  0  0  0
   19.5563  -20.1640  -16.5102 C   0  0  0  0  0  0  0  0  0  0  0  0
   18.4858  -19.6586  -16.9071 O   0  0  0  0  0  0  0  0  0  0  0  0
   19.9267  -20.0444  -15.0521 C   0  0  0  0  0  0  0  0  0  0  0  0
   21.2315  -20.7313  -14.7983 C   0  0  0  0  0  0  0  0  0  0  0  0
   21.6014  -20.6737  -13.3622 C   0  0  2  0  0  0  0  0  0  0  0  0
   22.9299  -21.2613  -13.1265 N   0  0  0  0  0  0  0  0  0  0  0  0
   20.6194  -21.2219  -12.4108 C   0  0  0  0  0  0  0  0  0  0  0  0
   20.6086  -22.4622  -12.0981 O   0  0  0  0  0  0  0  0  0  0  0  0
   19.6501  -20.4563  -11.7885 O   0  0  0  0  0  0  0  0  0  0  0  0
  2  1  1  6
  2  3  1  0
  4  3  1  0
  4  5  1  0
  5  9  1  0
  6  5  2  0
  7 15  1  0
  7  2  1  0
  8  7  2  0
 11 10  1  0
 12 11  1  0
 12 13  1  6
 14 15  1  1
 14 12  1  0
 16 14  1  0
 17 16  2  0
 19 20  2  0
 19 18  1  0
 21 19  1  0
 22 21  1  0
 23 22  1  6
 23 24  1  0
 24 16  1  0
 25 23  1  0
 26 25  2  0
 27 25  1  0
M  END
$$$$
