EIQ.pdb
     RDKit          3D

 27 26  0  0  1  0  0  0  0  0999 V2000
   27.2793  -23.0067  -16.8598 N   0  0  0  0  0  0  0  0  0  0  0  0
   26.8960  -21.7128  -16.2971 C   0  0  1  0  0  0  0  0  0  0  0  0
   26.2540  -20.8776  -17.3713 C   0  0  0  0  0  0  0  0  0  0  0  0
   27.1931  -20.4271  -18.4541 C   0  0  0  0  0  0  0  0  0  0  0  0
   28.3847  -19.7145  -17.9830 C   0  0  0  0  0  0  0  0  0  0  0  0
   28.3280  -18.6007  -17.4206 O   0  0  0  0  0  0  0  0  0  0  0  0
   25.9498  -21.8912  -15.1749 C   0  0  0  0  0  0  0  0  0  0  0  0
   24.9094  -22.5911  -15.2070 O   0  0  0  0  0  0  0  0  0  0  0  0
   29.6613  -20.2828  -18.1567 O   0  0  0  0  0  0  0  0  0  0  0  0
   25.3898  -21.0311   -8.9688 C   0  0  0  0  0  0  0  0  0  0  0  0
   24.8194  -21.3826  -10.3267 C   0  0  0  0  0  0  0  0  0  0  0  0
   25.8038  -21.1017  -11.4396 C   0  0  2  0  0  0  0  0  0  0  0  0
   26.4728  -19.7681  -11.2915 C   0  0  0  0  0  0  0  0  0  0  0  0
   25.2734  -21.3603  -12.8018 C   0  0  2  0  0  0  0  0  0  0  0  0
   26.1387  -21.2601  -13.9026 N   0  0  0  0  0  0  0  0  0  0  0  0
   24.0356  -20.5440  -13.0218 C   0  0  0  0  0  0  0  0  0  0  0  0
   24.0784  -19.2990  -13.2160 O   0  0  0  0  0  0  0  0  0  0  0  0
   21.1512  -19.0496  -16.9250 N   0  0  0  0  0  0  0  0  0  0  0  0
   19.9480  -18.9117  -16.2117 C   0  0  0  0  0  0  0  0  0  0  0  0
   19.0000  -18.1872  -16.5796 O   0  0  0  0  0  0  0  0  0  0  0  0
   19.8165  -19.6949  -14.9283 C   0  0  0  0  0  0  0  0  0  0  0  0
   21.0645  -20.4821  -14.6799 C   0  0  0  0  0  0  0  0  0  0  0  0
   21.5171  -20.3462  -13.2731 C   0  0  2  0  0  0  0  0  0  0  0  0
   22.7370  -21.1307  -13.0239 N   0  0  0  0  0  0  0  0  0  0  0  0
   20.5099  -20.6155  -12.2324 C   0  0  0  0  0  0  0  0  0  0  0  0
   20.5422  -21.6827  -11.5278 O   0  0  0  0  0  0  0  0  0  0  0  0
   19.4696  -19.7535  -11.9359 O   0  0  0  0  0  0  0  0  0  0  0  0
  2  1  1  6
  2  3  1  0
  4  3  1  0
  4  5  1  0
  5  9  1  0
  6  5  2  0
  7 15  1  0
  7  2  1  0
  8  7  2  0
 11 10  1  0
 12 11  1  0
 12 13  1  6
 14 15  1  6
 14 12  1  0
 16 14  1  0
 17 16  2  0
 19 20  2  0
 19 18  1  0
 21 19  1  0
 22 21  1  0
 23 22  1  6
 23 24  1  0
 24 16  1  0
 25 23  1  0
 26 25  2  0
 27 25  1  0
M  END
$$$$
