EIQ.pdb
     RDKit          3D

 27 26  0  0  1  0  0  0  0  0999 V2000
   28.7904  -21.3049  -16.5906 N   0  0  0  0  0  0  0  0  0  0  0  0
   28.0293  -20.2960  -15.8553 C   0  0  1  0  0  0  0  0  0  0  0  0
   27.3658  -19.3667  -16.8350 C   0  0  0  0  0  0  0  0  0  0  0  0
   26.7113  -20.0541  -17.9997 C   0  0  0  0  0  0  0  0  0  0  0  0
   26.0914  -19.1566  -18.9794 C   0  0  0  0  0  0  0  0  0  0  0  0
   26.6359  -18.1025  -19.3701 O   0  0  0  0  0  0  0  0  0  0  0  0
   27.0031  -20.9344  -15.0034 C   0  0  0  0  0  0  0  0  0  0  0  0
   26.2628  -21.8863  -15.3486 O   0  0  0  0  0  0  0  0  0  0  0  0
   24.8297  -19.4675  -19.5217 O   0  0  0  0  0  0  0  0  0  0  0  0
   25.2819  -21.4515   -8.9809 C   0  0  0  0  0  0  0  0  0  0  0  0
   25.0644  -21.7101  -10.4569 C   0  0  0  0  0  0  0  0  0  0  0  0
   25.9815  -20.8691  -11.3160 C   0  0  2  0  0  0  0  0  0  0  0  0
   25.9689  -19.4220  -10.9236 C   0  0  0  0  0  0  0  0  0  0  0  0
   25.8293  -21.0978  -12.7748 C   0  0  2  0  0  0  0  0  0  0  0  0
   26.7492  -20.5114  -13.6583 N   0  0  0  0  0  0  0  0  0  0  0  0
   24.4223  -20.7864  -13.1875 C   0  0  0  0  0  0  0  0  0  0  0  0
   24.0628  -19.6257  -13.5241 O   0  0  0  0  0  0  0  0  0  0  0  0
   19.9310  -24.9242  -14.6795 N   0  0  0  0  0  0  0  0  0  0  0  0
   19.2052  -23.7298  -14.8291 C   0  0  0  0  0  0  0  0  0  0  0  0
   18.0221  -23.6794  -15.2248 O   0  0  0  0  0  0  0  0  0  0  0  0
   19.9183  -22.4449  -14.4853 C   0  0  0  0  0  0  0  0  0  0  0  0
   21.2895  -22.7444  -13.9666 C   0  0  0  0  0  0  0  0  0  0  0  0
   22.0288  -21.4984  -13.6450 C   0  0  2  0  0  0  0  0  0  0  0  0
   23.4087  -21.7873  -13.2230 N   0  0  0  0  0  0  0  0  0  0  0  0
   21.3806  -20.5797  -12.6932 C   0  0  0  0  0  0  0  0  0  0  0  0
   20.5978  -19.6481  -13.0875 O   0  0  0  0  0  0  0  0  0  0  0  0
   21.5595  -20.6490  -11.3235 O   0  0  0  0  0  0  0  0  0  0  0  0
  2  1  1  6
  2  3  1  0
  4  3  1  0
  4  5  1  0
  5  9  1  0
  6  5  2  0
  7 15  1  0
  7  2  1  0
  8  7  2  0
 11 10  1  0
 12 11  1  0
 12 13  1  6
 14 15  1  6
 14 12  1  0
 16 14  1  0
 17 16  2  0
 19 20  2  0
 19 18  1  0
 21 19  1  0
 22 21  1  0
 23 22  1  1
 23 24  1  0
 24 16  1  0
 25 23  1  0
 26 25  2  0
 27 25  1  0
M  END
$$$$
