EIQ.pdb
     RDKit          3D

 27 26  0  0  1  0  0  0  0  0999 V2000
   22.3803  -16.3087  -16.2439 N   0  0  0  0  0  0  0  0  0  0  0  0
   22.8080  -15.2460  -17.1526 C   0  0  1  0  0  0  0  0  0  0  0  0
   21.6787  -14.9130  -18.0894 C   0  0  0  0  0  0  0  0  0  0  0  0
   21.2706  -16.0384  -18.9973 C   0  0  0  0  0  0  0  0  0  0  0  0
   22.1800  -16.2888  -20.1198 C   0  0  0  0  0  0  0  0  0  0  0  0
   22.7127  -15.3693  -20.7763 O   0  0  0  0  0  0  0  0  0  0  0  0
   23.1979  -14.0373  -16.3954 C   0  0  0  0  0  0  0  0  0  0  0  0
   22.5180  -13.4969  -15.4904 O   0  0  0  0  0  0  0  0  0  0  0  0
   22.4860  -17.6099  -20.4986 O   0  0  0  0  0  0  0  0  0  0  0  0
   28.6152  -12.9531  -15.7251 C   0  0  0  0  0  0  0  0  0  0  0  0
   27.1449  -13.1304  -15.4097 C   0  0  0  0  0  0  0  0  0  0  0  0
   26.3279  -11.9361  -15.8486 C   0  0  2  0  0  0  0  0  0  0  0  0
   26.6670  -10.6945  -15.0794 C   0  0  0  0  0  0  0  0  0  0  0  0
   24.8707  -12.1997  -15.9527 C   0  0  2  0  0  0  0  0  0  0  0  0
   24.4305  -13.3463  -16.6324 N   0  0  0  0  0  0  0  0  0  0  0  0
   24.1748  -10.9759  -16.4673 C   0  0  0  0  0  0  0  0  0  0  0  0
   24.2100  -10.6451  -17.6835 O   0  0  0  0  0  0  0  0  0  0  0  0
   18.9072   -8.7120  -14.3637 N   0  0  0  0  0  0  0  0  0  0  0  0
   19.1873   -7.6924  -15.2897 C   0  0  0  0  0  0  0  0  0  0  0  0
   18.4031   -6.7572  -15.5535 O   0  0  0  0  0  0  0  0  0  0  0  0
   20.5204   -7.7517  -15.9947 C   0  0  0  0  0  0  0  0  0  0  0  0
   21.2832   -8.9578  -15.5448 C   0  0  0  0  0  0  0  0  0  0  0  0
   22.6524   -8.9747  -16.1170 C   0  0  2  0  0  0  0  0  0  0  0  0
   23.4320  -10.1147  -15.6088 N   0  0  0  0  0  0  0  0  0  0  0  0
   23.4269   -7.7272  -15.9985 C   0  0  0  0  0  0  0  0  0  0  0  0
   24.3203   -7.5756  -15.0957 O   0  0  0  0  0  0  0  0  0  0  0  0
   23.2571   -6.6410  -16.8377 O   0  0  0  0  0  0  0  0  0  0  0  0
  2  1  1  1
  2  3  1  0
  4  3  1  0
  4  5  1  0
  5  9  1  0
  6  5  2  0
  7 15  1  0
  7  2  1  0
  8  7  2  0
 11 10  1  0
 12 11  1  0
 12 13  1  1
 14 15  1  6
 14 12  1  0
 16 14  1  0
 17 16  2  0
 19 20  2  0
 19 18  1  0
 21 19  1  0
 22 21  1  0
 23 22  1  1
 23 24  1  0
 24 16  1  0
 25 23  1  0
 26 25  2  0
 27 25  1  0
M  END
$$$$
