NGL.pdb
     RDKit          3D

 21 20  0  0  1  0  0  0  0  0999 V2000
   10.0547  -19.4153   17.1279 N   0  0  0  0  0  0  0  0  0  0  0  0
   10.0729  -19.5901   18.5297 C   0  0  0  0  0  0  0  0  0  0  0  0
   10.9878  -20.2583   19.0653 O   0  0  0  0  0  0  0  0  0  0  0  0
    9.0176  -18.9902   19.3857 C   0  0  0  0  0  0  0  0  0  0  0  0
    9.6010  -18.6003   20.7305 C   0  0  2  0  0  0  0  0  0  0  0  0
    9.0807  -19.4747   21.7608 N   0  0  0  0  0  0  0  0  0  0  0  0
    9.2847  -17.2013   21.0700 C   0  0  0  0  0  0  0  0  0  0  0  0
   10.1164  -16.3254   20.7132 O   0  0  0  0  0  0  0  0  0  0  0  0
    8.1170  -16.7939   21.7639 N   0  0  0  0  0  0  0  0  0  0  0  0
    7.8328  -15.4622   22.1821 C   0  0  0  0  0  0  0  0  0  0  0  0
    8.4431  -15.0496   23.4462 C   0  0  0  0  0  0  0  0  0  0  0  0
    9.6576  -14.6422   23.3980 O   0  0  0  0  0  0  0  0  0  0  0  0
    5.7753  -11.9758   26.6631 C   0  0  0  0  0  0  0  0  0  0  0  0
    6.8967  -12.6364   25.8949 C   0  0  1  0  0  0  0  0  0  0  0  0
    7.9278  -11.5316   25.6188 C   0  0  0  0  0  0  0  0  0  0  0  0
    7.5848  -13.7040   26.6701 C   0  0  0  0  0  0  0  0  0  0  0  0
    8.5659  -14.5241   25.8879 C   0  0  2  0  0  0  0  0  0  0  0  0
    7.8526  -15.0448   24.7147 N   0  0  0  0  0  0  0  0  0  0  0  0
    9.0494  -15.6563   26.7284 C   0  0  0  0  0  0  0  0  0  0  0  0
    8.6933  -16.8425   26.5467 O   0  0  0  0  0  0  0  0  0  0  0  0
    9.9379  -15.3983   27.7670 O   0  0  0  0  0  0  0  0  0  0  0  0
  2  1  1  0
  2  3  2  0
  4  2  1  0
  5  4  1  0
  5  6  1  1
  7  9  1  0
  7  5  1  0
  8  7  2  0
 10 11  1  0
 10  9  1  0
 11 18  1  0
 12 11  2  0
 14 13  1  1
 14 15  1  0
 16 14  1  0
 17 16  1  1
 18 17  1  0
 19 21  1  0
 19 17  1  0
 20 19  2  0
M  END
$$$$
