NGL.pdb
     RDKit          3D

 21 20  0  0  1  0  0  0  0  0999 V2000
    4.1591  -22.2208   22.0271 N   0  0  0  0  0  0  0  0  0  0  0  0
    4.7271  -21.1962   22.8168 C   0  0  0  0  0  0  0  0  0  0  0  0
    5.0920  -21.4402   23.9905 O   0  0  0  0  0  0  0  0  0  0  0  0
    4.9003  -19.8243   22.2746 C   0  0  0  0  0  0  0  0  0  0  0  0
    6.2769  -19.2965   22.6312 C   0  0  2  0  0  0  0  0  0  0  0  0
    6.2930  -18.8688   24.0146 N   0  0  0  0  0  0  0  0  0  0  0  0
    6.6621  -18.1675   21.7653 C   0  0  0  0  0  0  0  0  0  0  0  0
    7.1065  -18.4512   20.6216 O   0  0  0  0  0  0  0  0  0  0  0  0
    6.5622  -16.8039   22.1419 N   0  0  0  0  0  0  0  0  0  0  0  0
    7.5266  -15.7978   21.8472 C   0  0  0  0  0  0  0  0  0  0  0  0
    8.0109  -15.0273   22.9928 C   0  0  0  0  0  0  0  0  0  0  0  0
    9.1126  -14.3901   22.8391 O   0  0  0  0  0  0  0  0  0  0  0  0
    7.1699  -11.6770   25.0744 C   0  0  0  0  0  0  0  0  0  0  0  0
    7.1339  -12.3361   26.4339 C   0  0  1  0  0  0  0  0  0  0  0  0
    5.7965  -11.9240   27.0678 C   0  0  0  0  0  0  0  0  0  0  0  0
    7.1535  -13.8222   26.3624 C   0  0  0  0  0  0  0  0  0  0  0  0
    8.1561  -14.3985   25.4088 C   0  0  2  0  0  0  0  0  0  0  0  0
    7.4079  -14.9000   24.2490 N   0  0  0  0  0  0  0  0  0  0  0  0
    8.8797  -15.5230   26.0674 C   0  0  0  0  0  0  0  0  0  0  0  0
    8.5254  -16.7189   25.9607 O   0  0  0  0  0  0  0  0  0  0  0  0
   10.0028  -15.2464   26.8400 O   0  0  0  0  0  0  0  0  0  0  0  0
  2  1  1  0
  2  3  2  0
  4  2  1  0
  5  4  1  0
  5  6  1  1
  7  9  1  0
  7  5  1  0
  8  7  2  0
 10 11  1  0
 10  9  1  0
 11 18  1  0
 12 11  2  0
 14 13  1  6
 14 15  1  0
 16 14  1  0
 17 16  1  1
 18 17  1  0
 19 21  1  0
 19 17  1  0
 20 19  2  0
M  END
$$$$
