NGL.pdb
     RDKit          3D

 21 20  0  0  1  0  0  0  0  0999 V2000
    8.4842  -12.4355   17.2799 N   0  0  0  0  0  0  0  0  0  0  0  0
    7.9221  -13.7171   17.4736 C   0  0  0  0  0  0  0  0  0  0  0  0
    7.8414  -14.5169   16.5123 O   0  0  0  0  0  0  0  0  0  0  0  0
    7.4217  -14.1353   18.8080 C   0  0  0  0  0  0  0  0  0  0  0  0
    8.5825  -14.5635   19.6856 C   0  0  2  0  0  0  0  0  0  0  0  0
    9.2170  -15.7354   19.1192 N   0  0  0  0  0  0  0  0  0  0  0  0
    8.1381  -14.8630   21.0588 C   0  0  0  0  0  0  0  0  0  0  0  0
    7.6396  -13.9123   21.7174 O   0  0  0  0  0  0  0  0  0  0  0  0
    8.2392  -16.1393   21.6688 N   0  0  0  0  0  0  0  0  0  0  0  0
    7.8092  -16.4545   22.9897 C   0  0  0  0  0  0  0  0  0  0  0  0
    8.4188  -15.6661   24.0610 C   0  0  0  0  0  0  0  0  0  0  0  0
    9.6654  -15.3920   23.9419 O   0  0  0  0  0  0  0  0  0  0  0  0
    7.5147  -12.1696   25.2009 C   0  0  0  0  0  0  0  0  0  0  0  0
    7.1928  -12.4054   26.6586 C   0  0  1  0  0  0  0  0  0  0  0  0
    5.6655  -12.2897   26.7779 C   0  0  0  0  0  0  0  0  0  0  0  0
    7.5743  -13.7649   27.1278 C   0  0  0  0  0  0  0  0  0  0  0  0
    8.5630  -14.4819   26.2588 C   0  0  2  0  0  0  0  0  0  0  0  0
    7.7964  -15.1686   25.2113 N   0  0  0  0  0  0  0  0  0  0  0  0
    9.3098  -15.4809   27.0750 C   0  0  0  0  0  0  0  0  0  0  0  0
    9.0777  -16.7102   27.0302 O   0  0  0  0  0  0  0  0  0  0  0  0
   10.3145  -15.0419   27.9310 O   0  0  0  0  0  0  0  0  0  0  0  0
  2  1  1  0
  2  3  2  0
  4  2  1  0
  5  4  1  0
  5  6  1  6
  7  9  1  0
  7  5  1  0
  8  7  2  0
 10 11  1  0
 10  9  1  0
 11 18  1  0
 12 11  2  0
 14 13  1  6
 14 15  1  0
 16 14  1  0
 17 16  1  1
 18 17  1  0
 19 21  1  0
 19 17  1  0
 20 19  2  0
M  END
$$$$
