NGL.pdb
     RDKit          3D

 21 20  0  0  1  0  0  0  0  0999 V2000
   10.5002  -18.1630   18.5820 N   0  0  0  0  0  0  0  0  0  0  0  0
   11.2392  -18.5638   19.7174 C   0  0  0  0  0  0  0  0  0  0  0  0
   12.4910  -18.5096   19.7005 O   0  0  0  0  0  0  0  0  0  0  0  0
   10.5516  -19.0518   20.9401 C   0  0  0  0  0  0  0  0  0  0  0  0
    9.0490  -19.0261   20.7346 C   0  0  2  0  0  0  0  0  0  0  0  0
    8.7215  -18.1460   19.6323 N   0  0  0  0  0  0  0  0  0  0  0  0
    8.3467  -18.5724   21.9486 C   0  0  0  0  0  0  0  0  0  0  0  0
    8.5686  -19.2137   23.0096 O   0  0  0  0  0  0  0  0  0  0  0  0
    7.4506  -17.4738   21.9875 N   0  0  0  0  0  0  0  0  0  0  0  0
    6.8681  -16.9308   23.1685 C   0  0  0  0  0  0  0  0  0  0  0  0
    7.7461  -16.0868   23.9794 C   0  0  0  0  0  0  0  0  0  0  0  0
    8.9688  -15.9941   23.6054 O   0  0  0  0  0  0  0  0  0  0  0  0
    6.3720  -12.4859   24.6538 C   0  0  0  0  0  0  0  0  0  0  0  0
    7.1559  -12.2397   25.9222 C   0  0  1  0  0  0  0  0  0  0  0  0
    6.2041  -11.4924   26.8687 C   0  0  0  0  0  0  0  0  0  0  0  0
    7.5686  -13.4953   26.6059 C   0  0  0  0  0  0  0  0  0  0  0  0
    8.3636  -14.4455   25.7621 C   0  0  2  0  0  0  0  0  0  0  0  0
    7.4066  -15.3594   25.1255 N   0  0  0  0  0  0  0  0  0  0  0  0
    9.2987  -15.2174   26.6291 C   0  0  0  0  0  0  0  0  0  0  0  0
    9.0454  -16.3680   27.0523 O   0  0  0  0  0  0  0  0  0  0  0  0
   10.5133  -14.6458   26.9933 O   0  0  0  0  0  0  0  0  0  0  0  0
  2  1  1  0
  2  3  2  0
  4  2  1  0
  5  4  1  0
  5  6  1  6
  7  9  1  0
  7  5  1  0
  8  7  2  0
 10 11  1  0
 10  9  1  0
 11 18  1  0
 12 11  2  0
 14 13  1  6
 14 15  1  0
 16 14  1  0
 17 16  1  1
 18 17  1  0
 19 21  1  0
 19 17  1  0
 20 19  2  0
M  END
$$$$
