NGL.pdb
     RDKit          3D

 21 20  0  0  1  0  0  0  0  0999 V2000
    4.7682  -18.7914   23.4277 N   0  0  0  0  0  0  0  0  0  0  0  0
    4.3092  -18.7490   22.0922 C   0  0  0  0  0  0  0  0  0  0  0  0
    3.1094  -19.0029   21.8344 O   0  0  0  0  0  0  0  0  0  0  0  0
    5.2322  -18.4059   20.9803 C   0  0  0  0  0  0  0  0  0  0  0  0
    6.5935  -18.0306   21.5342 C   0  0  2  0  0  0  0  0  0  0  0  0
    6.4520  -17.5448   22.8910 N   0  0  0  0  0  0  0  0  0  0  0  0
    7.2446  -16.9968   20.7095 C   0  0  0  0  0  0  0  0  0  0  0  0
    7.4199  -17.2651   19.4916 O   0  0  0  0  0  0  0  0  0  0  0  0
    7.6772  -15.7394   21.2026 N   0  0  0  0  0  0  0  0  0  0  0  0
    9.0011  -15.4374   21.6328 C   0  0  0  0  0  0  0  0  0  0  0  0
    9.1524  -15.1322   23.0557 C   0  0  0  0  0  0  0  0  0  0  0  0
   10.3493  -15.0575   23.5087 O   0  0  0  0  0  0  0  0  0  0  0  0
    6.9448  -12.3055   24.6182 C   0  0  0  0  0  0  0  0  0  0  0  0
    7.0665  -12.8246   26.0323 C   0  0  1  0  0  0  0  0  0  0  0  0
    5.7531  -12.4481   26.7349 C   0  0  0  0  0  0  0  0  0  0  0  0
    7.1996  -14.3050   26.1008 C   0  0  0  0  0  0  0  0  0  0  0  0
    8.4184  -14.8643   25.4311 C   0  0  2  0  0  0  0  0  0  0  0  0
    8.1359  -14.9079   23.9907 N   0  0  0  0  0  0  0  0  0  0  0  0
    8.6756  -16.2426   25.9372 C   0  0  0  0  0  0  0  0  0  0  0  0
    8.2948  -17.2728   25.3367 O   0  0  0  0  0  0  0  0  0  0  0  0
    9.3699  -16.4077   27.1311 O   0  0  0  0  0  0  0  0  0  0  0  0
  2  1  1  0
  2  3  2  0
  4  2  1  0
  5  4  1  0
  5  6  1  1
  7  9  1  0
  7  5  1  0
  8  7  2  0
 10 11  1  0
 10  9  1  0
 11 18  1  0
 12 11  2  0
 14 13  1  6
 14 15  1  0
 16 14  1  0
 17 16  1  1
 18 17  1  0
 19 21  1  0
 19 17  1  0
 20 19  2  0
M  END
$$$$
