NGL.pdb
     RDKit          3D

 21 20  0  0  1  0  0  0  0  0999 V2000
   11.8936  -17.6798   22.5926 N   0  0  0  0  0  0  0  0  0  0  0  0
   11.2606  -18.3149   21.5008 C   0  0  0  0  0  0  0  0  0  0  0  0
   11.2597  -17.7680   20.3733 O   0  0  0  0  0  0  0  0  0  0  0  0
   10.5911  -19.6301   21.6686 C   0  0  0  0  0  0  0  0  0  0  0  0
    9.0980  -19.4835   21.4446 C   0  0  2  0  0  0  0  0  0  0  0  0
    8.8569  -18.6190   20.3083 N   0  0  0  0  0  0  0  0  0  0  0  0
    8.4267  -18.9281   22.6335 C   0  0  0  0  0  0  0  0  0  0  0  0
    8.5289  -19.5827   23.7046 O   0  0  0  0  0  0  0  0  0  0  0  0
    7.6849  -17.7194   22.6382 N   0  0  0  0  0  0  0  0  0  0  0  0
    7.1046  -17.1165   23.7909 C   0  0  0  0  0  0  0  0  0  0  0  0
    8.0043  -16.2903   24.5964 C   0  0  0  0  0  0  0  0  0  0  0  0
    9.2444  -16.2970   24.2716 O   0  0  0  0  0  0  0  0  0  0  0  0
    6.1281  -11.7598   26.4490 C   0  0  0  0  0  0  0  0  0  0  0  0
    7.0002  -12.8384   25.8489 C   0  0  1  0  0  0  0  0  0  0  0  0
    7.8031  -12.1584   24.7295 C   0  0  0  0  0  0  0  0  0  0  0  0
    7.9780  -13.4041   26.8176 C   0  0  0  0  0  0  0  0  0  0  0  0
    8.6743  -14.6507   26.3616 C   0  0  2  0  0  0  0  0  0  0  0  0
    7.6689  -15.4837   25.6895 N   0  0  0  0  0  0  0  0  0  0  0  0
    9.2217  -15.3752   27.5437 C   0  0  0  0  0  0  0  0  0  0  0  0
    8.7281  -16.4388   27.9817 O   0  0  0  0  0  0  0  0  0  0  0  0
   10.3327  -14.8574   28.2013 O   0  0  0  0  0  0  0  0  0  0  0  0
  2  1  1  0
  2  3  2  0
  4  2  1  0
  5  4  1  0
  5  6  1  6
  7  9  1  0
  7  5  1  0
  8  7  2  0
 10 11  1  0
 10  9  1  0
 11 18  1  0
 12 11  2  0
 14 13  1  1
 14 15  1  0
 16 14  1  0
 17 16  1  1
 18 17  1  0
 19 21  1  0
 19 17  1  0
 20 19  2  0
M  END
$$$$
