EIV.pdb
     RDKit          3D

 25 24  0  0  1  0  0  0  0  0999 V2000
   18.3849  -13.9950  -17.4429 N   0  0  0  0  0  0  0  0  0  0  0  0
   19.1304  -12.8717  -17.8917 C   0  0  1  0  0  0  0  0  0  0  0  0
   18.4581  -12.0100  -18.9265 C   0  0  0  0  0  0  0  0  0  0  0  0
   18.2095  -12.6111  -20.2511 C   0  0  0  0  0  0  0  0  0  0  0  0
   19.3227  -13.1986  -20.9702 C   0  0  0  0  0  0  0  0  0  0  0  0
   20.4242  -12.6584  -21.1157 O   0  0  0  0  0  0  0  0  0  0  0  0
   19.5770  -11.9394  -16.8280 C   0  0  0  0  0  0  0  0  0  0  0  0
   18.8406  -11.8539  -15.8114 O   0  0  0  0  0  0  0  0  0  0  0  0
   19.1600  -14.4577  -21.5437 O   0  0  0  0  0  0  0  0  0  0  0  0
   23.9199  -12.3964  -14.3088 C   0  0  0  0  0  0  0  0  0  0  0  0
   22.4885  -12.0829  -14.7877 C   0  0  0  0  0  0  0  0  0  0  0  0
   22.4679  -10.7033  -15.3279 C   0  0  2  0  0  0  0  0  0  0  0  0
   23.1051   -9.6910  -14.3961 C   0  0  0  0  0  0  0  0  0  0  0  0
   21.1197  -10.2262  -15.8185 C   0  0  2  0  0  0  0  0  0  0  0  0
   20.7438  -11.1743  -16.8981 N   0  0  0  0  0  0  0  0  0  0  0  0
   21.1156   -8.8753  -16.3760 C   0  0  0  0  0  0  0  0  0  0  0  0
   21.9512   -8.5970  -17.3095 O   0  0  0  0  0  0  0  0  0  0  0  0
   17.8677   -6.2093  -16.2603 C   0  0  0  0  0  0  0  0  0  0  0  0
   18.9438   -6.2069  -17.2959 C   0  0  2  0  0  0  0  0  0  0  0  0
   18.5895   -7.1877  -18.3858 C   0  0  0  0  0  0  0  0  0  0  0  0
   20.2836   -6.5051  -16.6745 C   0  0  2  0  0  0  0  0  0  0  0  0
   20.2784   -7.8055  -16.0060 N   0  0  0  0  0  0  0  0  0  0  0  0
   20.6900   -5.4324  -15.7290 C   0  0  0  0  0  0  0  0  0  0  0  0
   21.1682   -4.1979  -16.1486 O   0  0  0  0  0  0  0  0  0  0  0  0
   20.6048   -5.6314  -14.4920 O   0  0  0  0  0  0  0  0  0  0  0  0
  2  1  1  1
  2  3  1  0
  3  4  1  0
  4  5  1  0
  5  6  2  0
  7  2  1  0
  7  8  2  0
  9  5  1  0
 10 11  1  0
 11 12  1  0
 12 14  1  0
 12 13  1  1
 14 15  1  6
 15  7  1  0
 16 14  1  0
 17 16  2  0
 19 21  1  0
 19 18  1  1
 20 19  1  0
 21 22  1  1
 22 16  1  0
 23 21  1  0
 24 23  1  0
 25 23  2  0
M  END
$$$$
