EIV.pdb
     RDKit          3D

 25 24  0  0  1  0  0  0  0  0999 V2000
   20.9611  -14.1181  -16.8307 N   0  0  0  0  0  0  0  0  0  0  0  0
   20.7893  -12.7242  -17.0465 C   0  0  1  0  0  0  0  0  0  0  0  0
   19.3822  -12.2081  -16.9084 C   0  0  0  0  0  0  0  0  0  0  0  0
   18.3251  -12.9137  -17.6583 C   0  0  0  0  0  0  0  0  0  0  0  0
   17.5645  -13.9480  -16.9850 C   0  0  0  0  0  0  0  0  0  0  0  0
   16.8608  -13.7608  -15.9870 O   0  0  0  0  0  0  0  0  0  0  0  0
   21.6215  -11.8418  -16.1927 C   0  0  0  0  0  0  0  0  0  0  0  0
   21.7753  -12.2009  -14.9967 O   0  0  0  0  0  0  0  0  0  0  0  0
   17.6172  -15.2486  -17.4813 O   0  0  0  0  0  0  0  0  0  0  0  0
   26.9548   -9.8546  -16.2063 C   0  0  0  0  0  0  0  0  0  0  0  0
   25.6138   -9.4679  -15.5516 C   0  0  0  0  0  0  0  0  0  0  0  0
   24.5240  -10.1729  -16.2664 C   0  0  2  0  0  0  0  0  0  0  0  0
   24.6127  -10.0302  -17.7733 C   0  0  0  0  0  0  0  0  0  0  0  0
   23.1291   -9.8720  -15.7671 C   0  0  2  0  0  0  0  0  0  0  0  0
   22.2266  -10.6649  -16.6404 N   0  0  0  0  0  0  0  0  0  0  0  0
   22.7364   -8.4674  -15.8610 C   0  0  0  0  0  0  0  0  0  0  0  0
   22.7033   -7.9185  -17.0207 O   0  0  0  0  0  0  0  0  0  0  0  0
   19.9539   -6.4547  -13.6301 C   0  0  0  0  0  0  0  0  0  0  0  0
   20.5080   -6.0339  -14.9516 C   0  0  2  0  0  0  0  0  0  0  0  0
   19.8186   -6.8045  -16.0499 C   0  0  0  0  0  0  0  0  0  0  0  0
   22.0040   -6.2106  -14.9840 C   0  0  2  0  0  0  0  0  0  0  0  0
   22.3745   -7.6132  -14.8020 N   0  0  0  0  0  0  0  0  0  0  0  0
   22.6697   -5.3571  -13.9651 C   0  0  0  0  0  0  0  0  0  0  0  0
   22.8621   -3.9920  -14.1332 O   0  0  0  0  0  0  0  0  0  0  0  0
   23.0839   -5.8741  -12.8982 O   0  0  0  0  0  0  0  0  0  0  0  0
  2  1  1  1
  2  3  1  0
  3  4  1  0
  4  5  1  0
  5  6  2  0
  7  2  1  0
  7  8  2  0
  9  5  1  0
 10 11  1  0
 11 12  1  0
 12 14  1  0
 12 13  1  6
 14 15  1  6
 15  7  1  0
 16 14  1  0
 17 16  2  0
 19 21  1  0
 19 18  1  1
 20 19  1  0
 21 22  1  1
 22 16  1  0
 23 21  1  0
 24 23  1  0
 25 23  2  0
M  END
$$$$
