EIV.pdb
     RDKit          3D

 25 24  0  0  1  0  0  0  0  0999 V2000
   18.1631  -24.9201  -13.0641 N   0  0  0  0  0  0  0  0  0  0  0  0
   17.4900  -24.2547  -12.0043 C   0  0  1  0  0  0  0  0  0  0  0  0
   15.9872  -24.3338  -12.0303 C   0  0  0  0  0  0  0  0  0  0  0  0
   15.2929  -23.6672  -13.1489 C   0  0  0  0  0  0  0  0  0  0  0  0
   15.2263  -24.3427  -14.4299 C   0  0  0  0  0  0  0  0  0  0  0  0
   15.6090  -23.8547  -15.4983 O   0  0  0  0  0  0  0  0  0  0  0  0
   17.8861  -24.6738  -10.6377 C   0  0  0  0  0  0  0  0  0  0  0  0
   18.0910  -25.9032  -10.4652 O   0  0  0  0  0  0  0  0  0  0  0  0
   14.6981  -25.6308  -14.4812 O   0  0  0  0  0  0  0  0  0  0  0  0
   21.3079  -21.4482   -8.2769 C   0  0  0  0  0  0  0  0  0  0  0  0
   20.5907  -22.7046   -8.8093 C   0  0  0  0  0  0  0  0  0  0  0  0
   19.5251  -23.0768   -7.8493 C   0  0  2  0  0  0  0  0  0  0  0  0
   20.0405  -23.2745   -6.4371 C   0  0  0  0  0  0  0  0  0  0  0  0
   18.6469  -24.2296   -8.2802 C   0  0  2  0  0  0  0  0  0  0  0  0
   18.0395  -23.7939   -9.5635 N   0  0  0  0  0  0  0  0  0  0  0  0
   17.5664  -24.5548   -7.3514 C   0  0  0  0  0  0  0  0  0  0  0  0
   16.5600  -23.7614   -7.2831 O   0  0  0  0  0  0  0  0  0  0  0  0
   15.4861  -27.6763   -7.0555 C   0  0  0  0  0  0  0  0  0  0  0  0
   15.8982  -27.3361   -5.6609 C   0  0  2  0  0  0  0  0  0  0  0  0
   14.7506  -27.6096   -4.7208 C   0  0  0  0  0  0  0  0  0  0  0  0
   16.3750  -25.9093   -5.5780 C   0  0  2  0  0  0  0  0  0  0  0  0
   17.4881  -25.6699   -6.4954 N   0  0  0  0  0  0  0  0  0  0  0  0
   16.7563  -25.5483   -4.1873 C   0  0  0  0  0  0  0  0  0  0  0  0
   15.8948  -24.8987   -3.3129 O   0  0  0  0  0  0  0  0  0  0  0  0
   17.9039  -25.8346   -3.7650 O   0  0  0  0  0  0  0  0  0  0  0  0
  2  1  1  6
  2  3  1  0
  3  4  1  0
  4  5  1  0
  5  6  2  0
  7  2  1  0
  7  8  2  0
  9  5  1  0
 10 11  1  0
 11 12  1  0
 12 14  1  0
 12 13  1  1
 14 15  1  6
 15  7  1  0
 16 14  1  0
 17 16  2  0
 19 21  1  0
 19 18  1  6
 20 19  1  0
 21 22  1  6
 22 16  1  0
 23 21  1  0
 24 23  1  0
 25 23  2  0
M  END
$$$$
