EIV.pdb
     RDKit          3D

 25 24  0  0  1  0  0  0  0  0999 V2000
   23.5513  -16.4365  -15.8742 N   0  0  0  0  0  0  0  0  0  0  0  0
   23.1204  -15.2026  -16.4316 C   0  0  1  0  0  0  0  0  0  0  0  0
   21.6378  -15.0650  -16.6515 C   0  0  0  0  0  0  0  0  0  0  0  0
   20.9485  -16.1755  -17.3366 C   0  0  0  0  0  0  0  0  0  0  0  0
   19.5332  -16.0469  -17.6229 C   0  0  0  0  0  0  0  0  0  0  0  0
   18.8896  -14.9984  -17.5104 O   0  0  0  0  0  0  0  0  0  0  0  0
   23.5243  -13.9899  -15.6791 C   0  0  0  0  0  0  0  0  0  0  0  0
   23.3932  -14.0359  -14.4286 O   0  0  0  0  0  0  0  0  0  0  0  0
   18.8325  -17.1705  -18.0555 O   0  0  0  0  0  0  0  0  0  0  0  0
   28.1727  -12.0643  -15.7178 C   0  0  0  0  0  0  0  0  0  0  0  0
   26.7320  -12.4691  -15.3475 C   0  0  0  0  0  0  0  0  0  0  0  0
   25.8224  -11.3645  -15.7325 C   0  0  2  0  0  0  0  0  0  0  0  0
   26.2509  -10.0210  -15.1756 C   0  0  0  0  0  0  0  0  0  0  0  0
   24.3549  -11.6228  -15.4764 C   0  0  2  0  0  0  0  0  0  0  0  0
   24.0303  -12.8321  -16.2751 N   0  0  0  0  0  0  0  0  0  0  0  0
   23.4624  -10.5449  -15.8977 C   0  0  0  0  0  0  0  0  0  0  0  0
   23.5299  -10.1353  -17.1122 O   0  0  0  0  0  0  0  0  0  0  0  0
   19.9146  -10.3789  -16.3461 C   0  0  0  0  0  0  0  0  0  0  0  0
   20.1995   -9.1598  -15.5317 C   0  0  2  0  0  0  0  0  0  0  0  0
   19.3045   -8.0346  -15.9881 C   0  0  0  0  0  0  0  0  0  0  0  0
   21.6591   -8.7944  -15.6100 C   0  0  2  0  0  0  0  0  0  0  0  0
   22.5030   -9.8793  -15.1112 N   0  0  0  0  0  0  0  0  0  0  0  0
   21.9392   -7.5333  -14.8746 C   0  0  0  0  0  0  0  0  0  0  0  0
   21.8786   -6.2814  -15.4728 O   0  0  0  0  0  0  0  0  0  0  0  0
   22.2461   -7.5804  -13.6577 O   0  0  0  0  0  0  0  0  0  0  0  0
  2  1  1  1
  2  3  1  0
  3  4  1  0
  4  5  1  0
  5  6  2  0
  7  2  1  0
  7  8  2  0
  9  5  1  0
 10 11  1  0
 11 12  1  0
 12 14  1  0
 12 13  1  1
 14 15  1  6
 15  7  1  0
 16 14  1  0
 17 16  2  0
 19 21  1  0
 19 18  1  6
 20 19  1  0
 21 22  1  1
 22 16  1  0
 23 21  1  0
 24 23  1  0
 25 23  2  0
M  END
$$$$
