EIV.pdb
     RDKit          3D

 25 24  0  0  1  0  0  0  0  0999 V2000
   28.2318  -22.0740  -16.1332 N   0  0  0  0  0  0  0  0  0  0  0  0
   27.3215  -21.0483  -15.7617 C   0  0  1  0  0  0  0  0  0  0  0  0
   26.5701  -20.3979  -16.8921 C   0  0  0  0  0  0  0  0  0  0  0  0
   27.3676  -19.7880  -17.9736 C   0  0  0  0  0  0  0  0  0  0  0  0
   28.3827  -18.8130  -17.6264 C   0  0  0  0  0  0  0  0  0  0  0  0
   29.5979  -19.0351  -17.6362 O   0  0  0  0  0  0  0  0  0  0  0  0
   26.2883  -21.4430  -14.7734 C   0  0  0  0  0  0  0  0  0  0  0  0
   25.6644  -22.5098  -15.0096 O   0  0  0  0  0  0  0  0  0  0  0  0
   27.9814  -17.5321  -17.2536 O   0  0  0  0  0  0  0  0  0  0  0  0
   27.2002  -20.8157   -9.5482 C   0  0  0  0  0  0  0  0  0  0  0  0
   26.7684  -21.3918  -10.9113 C   0  0  0  0  0  0  0  0  0  0  0  0
   25.4841  -20.7626  -11.2992 C   0  0  2  0  0  0  0  0  0  0  0  0
   24.4150  -20.8878  -10.2314 C   0  0  0  0  0  0  0  0  0  0  0  0
   24.9552  -21.1673  -12.6565 C   0  0  2  0  0  0  0  0  0  0  0  0
   25.9840  -20.7087  -13.6245 N   0  0  0  0  0  0  0  0  0  0  0  0
   23.6797  -20.5550  -13.0225 C   0  0  0  0  0  0  0  0  0  0  0  0
   23.6015  -19.2742  -13.0469 O   0  0  0  0  0  0  0  0  0  0  0  0
   19.6267  -20.1617  -15.5781 C   0  0  0  0  0  0  0  0  0  0  0  0
   20.9259  -20.7980  -15.2074 C   0  0  2  0  0  0  0  0  0  0  0  0
   20.8622  -22.2747  -15.5092 C   0  0  0  0  0  0  0  0  0  0  0  0
   21.2614  -20.5254  -13.7641 C   0  0  2  0  0  0  0  0  0  0  0  0
   22.4861  -21.2179  -13.3662 N   0  0  0  0  0  0  0  0  0  0  0  0
   20.1348  -20.8988  -12.8690 C   0  0  0  0  0  0  0  0  0  0  0  0
   20.1793  -21.9944  -12.0167 O   0  0  0  0  0  0  0  0  0  0  0  0
   19.0875  -20.2057  -12.8685 O   0  0  0  0  0  0  0  0  0  0  0  0
  2  1  1  6
  2  3  1  0
  3  4  1  0
  4  5  1  0
  5  6  2  0
  7  2  1  0
  7  8  2  0
  9  5  1  0
 10 11  1  0
 11 12  1  0
 12 14  1  0
 12 13  1  1
 14 15  1  6
 15  7  1  0
 16 14  1  0
 17 16  2  0
 19 21  1  0
 19 18  1  1
 20 19  1  0
 21 22  1  1
 22 16  1  0
 23 21  1  0
 24 23  1  0
 25 23  2  0
M  END
$$$$
