EIV.pdb
     RDKit          3D

 25 24  0  0  1  0  0  0  0  0999 V2000
   15.4377  -12.2045  -15.2247 N   0  0  0  0  0  0  0  0  0  0  0  0
   16.6975  -11.6995  -14.8042 C   0  0  1  0  0  0  0  0  0  0  0  0
   17.8057  -11.7743  -15.8199 C   0  0  0  0  0  0  0  0  0  0  0  0
   18.1708  -13.1112  -16.3272 C   0  0  0  0  0  0  0  0  0  0  0  0
   19.2339  -13.2187  -17.3068 C   0  0  0  0  0  0  0  0  0  0  0  0
   19.0552  -13.2953  -18.5268 O   0  0  0  0  0  0  0  0  0  0  0  0
   16.6916  -10.2955  -14.3257 C   0  0  0  0  0  0  0  0  0  0  0  0
   15.9476   -9.4939  -14.9479 O   0  0  0  0  0  0  0  0  0  0  0  0
   20.5542  -13.2388  -16.8629 O   0  0  0  0  0  0  0  0  0  0  0  0
   14.8965   -8.6490  -10.0094 C   0  0  0  0  0  0  0  0  0  0  0  0
   15.3756   -8.6726  -11.4744 C   0  0  0  0  0  0  0  0  0  0  0  0
   16.8211   -8.3478  -11.4989 C   0  0  2  0  0  0  0  0  0  0  0  0
   17.1514   -7.0539  -10.7808 C   0  0  0  0  0  0  0  0  0  0  0  0
   17.4673   -8.3987  -12.8648 C   0  0  2  0  0  0  0  0  0  0  0  0
   17.4500   -9.8337  -13.2472 N   0  0  0  0  0  0  0  0  0  0  0  0
   18.8522   -7.9332  -12.9030 C   0  0  0  0  0  0  0  0  0  0  0  0
   19.6635   -8.3547  -12.0024 O   0  0  0  0  0  0  0  0  0  0  0  0
   21.3826   -8.3352  -15.5853 C   0  0  0  0  0  0  0  0  0  0  0  0
   21.4643   -6.8972  -15.1904 C   0  0  2  0  0  0  0  0  0  0  0  0
   22.9039   -6.4487  -15.2347 C   0  0  0  0  0  0  0  0  0  0  0  0
   20.8410   -6.6791  -13.8361 C   0  0  2  0  0  0  0  0  0  0  0  0
   19.4273   -7.0524  -13.8387 N   0  0  0  0  0  0  0  0  0  0  0  0
   21.0100   -5.2728  -13.3851 C   0  0  0  0  0  0  0  0  0  0  0  0
   22.1591   -4.8158  -12.7530 O   0  0  0  0  0  0  0  0  0  0  0  0
   20.0844   -4.4455  -13.5747 O   0  0  0  0  0  0  0  0  0  0  0  0
  2  1  1  6
  2  3  1  0
  3  4  1  0
  4  5  1  0
  5  6  2  0
  7  2  1  0
  7  8  2  0
  9  5  1  0
 10 11  1  0
 11 12  1  0
 12 14  1  0
 12 13  1  6
 14 15  1  1
 15  7  1  0
 16 14  1  0
 17 16  2  0
 19 21  1  0
 19 18  1  1
 20 19  1  0
 21 22  1  6
 22 16  1  0
 23 21  1  0
 24 23  1  0
 25 23  2  0
M  END
$$$$
