EIV.pdb
     RDKit          3D

 25 24  0  0  1  0  0  0  0  0999 V2000
   28.5803  -21.0577  -15.3835 N   0  0  0  0  0  0  0  0  0  0  0  0
   27.7195  -20.1456  -14.7157 C   0  0  1  0  0  0  0  0  0  0  0  0
   27.0584  -19.1110  -15.5863 C   0  0  0  0  0  0  0  0  0  0  0  0
   27.9325  -18.2925  -16.4488 C   0  0  0  0  0  0  0  0  0  0  0  0
   28.3276  -18.8186  -17.7405 C   0  0  0  0  0  0  0  0  0  0  0  0
   29.4982  -18.9759  -18.1029 O   0  0  0  0  0  0  0  0  0  0  0  0
   26.6228  -20.7646  -13.9320 C   0  0  0  0  0  0  0  0  0  0  0  0
   26.1312  -21.8257  -14.3963 O   0  0  0  0  0  0  0  0  0  0  0  0
   27.3350  -19.1773  -18.6498 O   0  0  0  0  0  0  0  0  0  0  0  0
   26.7694  -20.4469   -8.5654 C   0  0  0  0  0  0  0  0  0  0  0  0
   26.5956  -21.0397   -9.9778 C   0  0  0  0  0  0  0  0  0  0  0  0
   25.3032  -20.5671  -10.5274 C   0  0  2  0  0  0  0  0  0  0  0  0
   24.1182  -20.9297   -9.6538 C   0  0  0  0  0  0  0  0  0  0  0  0
   25.0504  -20.9278  -11.9737 C   0  0  2  0  0  0  0  0  0  0  0  0
   26.1243  -20.2416  -12.7364 N   0  0  0  0  0  0  0  0  0  0  0  0
   23.7616  -20.4811  -12.4984 C   0  0  0  0  0  0  0  0  0  0  0  0
   23.5398  -19.2197  -12.5814 O   0  0  0  0  0  0  0  0  0  0  0  0
   20.0285  -20.8185  -15.5574 C   0  0  0  0  0  0  0  0  0  0  0  0
   21.3063  -21.3067  -14.9580 C   0  0  2  0  0  0  0  0  0  0  0  0
   21.3271  -22.8148  -14.9878 C   0  0  0  0  0  0  0  0  0  0  0  0
   21.4850  -20.7618  -13.5648 C   0  0  2  0  0  0  0  0  0  0  0  0
   22.6981  -21.2898  -12.9423 N   0  0  0  0  0  0  0  0  0  0  0  0
   20.2964  -21.0458  -12.7183 C   0  0  0  0  0  0  0  0  0  0  0  0
   19.1412  -20.2758  -12.7566 O   0  0  0  0  0  0  0  0  0  0  0  0
   20.3177  -22.0206  -11.9269 O   0  0  0  0  0  0  0  0  0  0  0  0
  2  1  1  6
  2  3  1  0
  3  4  1  0
  4  5  1  0
  5  6  2  0
  7  2  1  0
  7  8  2  0
  9  5  1  0
 10 11  1  0
 11 12  1  0
 12 14  1  0
 12 13  1  1
 14 15  1  6
 15  7  1  0
 16 14  1  0
 17 16  2  0
 19 21  1  0
 19 18  1  1
 20 19  1  0
 21 22  1  1
 22 16  1  0
 23 21  1  0
 24 23  1  0
 25 23  2  0
M  END
$$$$
