EIV.pdb
     RDKit          3D

 25 24  0  0  1  0  0  0  0  0999 V2000
   29.6076  -19.8942  -19.1498 N   0  0  0  0  0  0  0  0  0  0  0  0
   28.8093  -20.6525  -18.2517 C   0  0  1  0  0  0  0  0  0  0  0  0
   29.3261  -22.0253  -17.9146 C   0  0  0  0  0  0  0  0  0  0  0  0
   29.0206  -23.1156  -18.8610 C   0  0  0  0  0  0  0  0  0  0  0  0
   27.7336  -23.1194  -19.5282 C   0  0  0  0  0  0  0  0  0  0  0  0
   26.6441  -23.1284  -18.9457 O   0  0  0  0  0  0  0  0  0  0  0  0
   28.5280  -20.0030  -16.9481 C   0  0  0  0  0  0  0  0  0  0  0  0
   29.4956  -19.4251  -16.3888 O   0  0  0  0  0  0  0  0  0  0  0  0
   27.7011  -23.1124  -20.9209 O   0  0  0  0  0  0  0  0  0  0  0  0
   25.7995  -15.6409  -14.9256 C   0  0  0  0  0  0  0  0  0  0  0  0
   26.2217  -17.0011  -14.3355 C   0  0  0  0  0  0  0  0  0  0  0  0
   26.4781  -17.9372  -15.4552 C   0  0  2  0  0  0  0  0  0  0  0  0
   25.2898  -18.0915  -16.3842 C   0  0  0  0  0  0  0  0  0  0  0  0
   27.0386  -19.2821  -15.0518 C   0  0  2  0  0  0  0  0  0  0  0  0
   27.2754  -20.0010  -16.3297 N   0  0  0  0  0  0  0  0  0  0  0  0
   26.1442  -20.0951  -14.2301 C   0  0  0  0  0  0  0  0  0  0  0  0
   25.2867  -20.8461  -14.8198 O   0  0  0  0  0  0  0  0  0  0  0  0
   25.5602  -20.0635   -9.8423 C   0  0  0  0  0  0  0  0  0  0  0  0
   25.7278  -21.2872  -10.6820 C   0  0  2  0  0  0  0  0  0  0  0  0
   27.1766  -21.7071  -10.6682 C   0  0  0  0  0  0  0  0  0  0  0  0
   25.2165  -21.0501  -12.0793 C   0  0  2  0  0  0  0  0  0  0  0  0
   26.1072  -20.1615  -12.8243 N   0  0  0  0  0  0  0  0  0  0  0  0
   23.8321  -20.5089  -12.0621 C   0  0  0  0  0  0  0  0  0  0  0  0
   23.5285  -19.2011  -12.4172 O   0  0  0  0  0  0  0  0  0  0  0  0
   22.8807  -21.2511  -11.7139 O   0  0  0  0  0  0  0  0  0  0  0  0
  2  1  1  1
  2  3  1  0
  3  4  1  0
  4  5  1  0
  5  6  2  0
  7  2  1  0
  7  8  2  0
  9  5  1  0
 10 11  1  0
 11 12  1  0
 12 14  1  0
 12 13  1  1
 14 15  1  6
 15  7  1  0
 16 14  1  0
 17 16  2  0
 19 21  1  0
 19 18  1  1
 20 19  1  0
 21 22  1  1
 22 16  1  0
 23 21  1  0
 24 23  1  0
 25 23  2  0
M  END
$$$$
