EIV.pdb
     RDKit          3D

 25 24  0  0  1  0  0  0  0  0999 V2000
   13.4299  -11.9487  -11.9385 N   0  0  0  0  0  0  0  0  0  0  0  0
   14.6097  -11.1603  -11.8661 C   0  0  1  0  0  0  0  0  0  0  0  0
   15.5002  -11.2004  -13.0789 C   0  0  0  0  0  0  0  0  0  0  0  0
   16.0531  -12.5114  -13.4704 C   0  0  0  0  0  0  0  0  0  0  0  0
   17.0736  -12.5587  -14.4990 C   0  0  0  0  0  0  0  0  0  0  0  0
   18.2430  -12.9085  -14.3081 O   0  0  0  0  0  0  0  0  0  0  0  0
   14.3955   -9.7210  -11.5783 C   0  0  0  0  0  0  0  0  0  0  0  0
   13.3626   -9.1980  -12.0709 O   0  0  0  0  0  0  0  0  0  0  0  0
   16.7329  -12.1883  -15.7980 O   0  0  0  0  0  0  0  0  0  0  0  0
   13.6340   -8.0016   -6.8880 C   0  0  0  0  0  0  0  0  0  0  0  0
   13.6173   -8.1527   -8.4221 C   0  0  0  0  0  0  0  0  0  0  0  0
   14.8258   -7.4930   -8.9700 C   0  0  2  0  0  0  0  0  0  0  0  0
   15.0327   -6.0908   -8.4316 C   0  0  0  0  0  0  0  0  0  0  0  0
   14.9481   -7.5267  -10.4766 C   0  0  2  0  0  0  0  0  0  0  0  0
   15.2604   -8.9405  -10.8073 N   0  0  0  0  0  0  0  0  0  0  0  0
   16.0111   -6.6852  -11.0221 C   0  0  0  0  0  0  0  0  0  0  0  0
   17.2172   -6.8994  -10.6392 O   0  0  0  0  0  0  0  0  0  0  0  0
   15.8937   -4.4493  -14.6094 C   0  0  0  0  0  0  0  0  0  0  0  0
   17.1329   -4.9289  -13.9277 C   0  0  2  0  0  0  0  0  0  0  0  0
   17.4374   -6.3360  -14.3780 C   0  0  0  0  0  0  0  0  0  0  0  0
   16.9923   -4.8274  -12.4310 C   0  0  2  0  0  0  0  0  0  0  0  0
   15.8725   -5.6350  -11.9495 N   0  0  0  0  0  0  0  0  0  0  0  0
   16.8416   -3.4132  -11.9984 C   0  0  0  0  0  0  0  0  0  0  0  0
   17.9092   -2.5278  -11.9278 O   0  0  0  0  0  0  0  0  0  0  0  0
   15.7070   -2.9804  -11.6783 O   0  0  0  0  0  0  0  0  0  0  0  0
  2  1  1  6
  2  3  1  0
  3  4  1  0
  4  5  1  0
  5  6  2  0
  7  2  1  0
  7  8  2  0
  9  5  1  0
 10 11  1  0
 11 12  1  0
 12 14  1  0
 12 13  1  6
 14 15  1  1
 15  7  1  0
 16 14  1  0
 17 16  2  0
 19 21  1  0
 19 18  1  6
 20 19  1  0
 21 22  1  6
 22 16  1  0
 23 21  1  0
 24 23  1  0
 25 23  2  0
M  END
$$$$
