HDF.pdb
     RDKit          3D

 30 31  0  0  1  0  0  0  0  0999 V2000
    9.9821  -14.8405   19.5297 N   0  0  0  0  0  0  0  0  0  0  0  0
    8.7725  -14.8047   20.3499 C   0  0  1  0  0  0  0  0  0  0  0  0
    7.6172  -15.0005   19.4268 C   0  0  0  0  0  0  0  0  0  0  0  0
    7.7607  -14.2609   18.1577 C   0  0  0  0  0  0  0  0  0  0  0  0
    7.8310  -12.8980   17.9774 C   0  0  0  0  0  0  0  0  0  0  0  0
    7.9599  -12.6137   16.6692 N   0  0  0  0  0  0  0  0  0  0  0  0
    7.9712  -13.7886   16.0263 C   0  0  0  0  0  0  0  0  0  0  0  0
    7.8504  -14.7927   16.9277 N   0  0  0  0  0  0  0  0  0  0  0  0
    8.8946  -15.8190   21.4179 C   0  0  0  0  0  0  0  0  0  0  0  0
    7.8570  -16.1242   22.0709 O   0  0  0  0  0  0  0  0  0  0  0  0
   10.1062  -16.4715   21.7493 N   0  0  0  0  0  0  0  0  0  0  0  0
   10.1121  -17.4001   22.8969 C   0  0  1  0  0  0  0  0  0  0  0  0
   11.4314  -18.1614   22.8415 C   0  0  0  0  0  0  0  0  0  0  0  0
   11.4128  -19.1807   21.8099 C   0  0  0  0  0  0  0  0  0  0  0  0
   11.4212  -18.9254   20.5935 O   0  0  0  0  0  0  0  0  0  0  0  0
    9.9312  -16.6517   24.1416 C   0  0  0  0  0  0  0  0  0  0  0  0
   10.7459  -15.7790   24.4953 O   0  0  0  0  0  0  0  0  0  0  0  0
   11.3841  -20.5353   22.1685 O   0  0  0  0  0  0  0  0  0  0  0  0
    8.8313  -16.8376   25.0551 N   0  0  0  0  0  0  0  0  0  0  0  0
    8.8180  -16.2975   26.3730 C   0  0  1  0  0  0  0  0  0  0  0  0
    7.5118  -15.7356   26.8094 C   0  0  0  0  0  0  0  0  0  0  0  0
    7.2840  -14.3461   26.4090 C   0  0  0  0  0  0  0  0  0  0  0  0
    6.0369  -13.9023   26.0380 C   0  0  0  0  0  0  0  0  0  0  0  0
    5.8111  -12.5871   25.6547 C   0  0  0  0  0  0  0  0  0  0  0  0
    6.8424  -11.6821   25.6359 C   0  0  0  0  0  0  0  0  0  0  0  0
    8.0886  -12.1004   26.0003 C   0  0  0  0  0  0  0  0  0  0  0  0
    8.3089  -13.4263   26.3852 C   0  0  0  0  0  0  0  0  0  0  0  0
    9.3430  -17.2223   27.4207 C   0  0  0  0  0  0  0  0  0  0  0  0
    9.5020  -18.4438   27.1886 O   0  0  0  0  0  0  0  0  0  0  0  0
    9.6755  -16.7694   28.6910 O   0  0  0  0  0  0  0  0  0  0  0  0
  2  1  1  6
  2  9  1  0
  2  3  1  0
  3  4  1  0
  4  5  2  0
  4  8  1  0
  5  6  1  0
  6  7  1  0
  8  7  2  0
  9 10  2  0
 11 12  1  0
 11  9  1  0
 12 13  1  1
 13 14  1  0
 14 18  1  0
 14 15  2  0
 16 17  2  0
 16 12  1  0
 19 16  1  0
 20 21  1  1
 20 19  1  0
 22 27  1  0
 22 21  1  0
 23 22  2  0
 24 25  2  0
 24 23  1  0
 25 26  1  0
 26 27  2  0
 28 20  1  0
 28 30  1  0
 29 28  2  0
M  END
$$$$
