HDF.pdb
     RDKit          3D

 30 31  0  0  1  0  0  0  0  0999 V2000
    6.8791  -16.6677   20.6628 N   0  0  0  0  0  0  0  0  0  0  0  0
    8.0461  -16.0225   21.2617 C   0  0  1  0  0  0  0  0  0  0  0  0
    7.7718  -14.5563   21.2743 C   0  0  0  0  0  0  0  0  0  0  0  0
    7.8577  -13.9415   19.9353 C   0  0  0  0  0  0  0  0  0  0  0  0
    8.1464  -14.5589   18.7393 C   0  0  0  0  0  0  0  0  0  0  0  0
    8.1301  -13.6573   17.7413 N   0  0  0  0  0  0  0  0  0  0  0  0
    7.8330  -12.4778   18.3021 C   0  0  0  0  0  0  0  0  0  0  0  0
    7.6666  -12.6462   19.6360 N   0  0  0  0  0  0  0  0  0  0  0  0
    8.2884  -16.6218   22.5907 C   0  0  0  0  0  0  0  0  0  0  0  0
    7.2914  -16.8482   23.3328 O   0  0  0  0  0  0  0  0  0  0  0  0
    9.5730  -16.9605   23.0794 N   0  0  0  0  0  0  0  0  0  0  0  0
    9.6878  -17.4618   24.4631 C   0  0  1  0  0  0  0  0  0  0  0  0
   10.5292  -18.7314   24.4039 C   0  0  0  0  0  0  0  0  0  0  0  0
   10.7656  -19.2733   25.7282 C   0  0  0  0  0  0  0  0  0  0  0  0
   11.8899  -19.3302   26.2552 O   0  0  0  0  0  0  0  0  0  0  0  0
   10.2679  -16.4262   25.3194 C   0  0  0  0  0  0  0  0  0  0  0  0
   11.3087  -15.8257   24.9930 O   0  0  0  0  0  0  0  0  0  0  0  0
    9.6919  -19.7673   26.4814 O   0  0  0  0  0  0  0  0  0  0  0  0
    9.7157  -16.0064   26.5834 N   0  0  0  0  0  0  0  0  0  0  0  0
   10.4399  -15.2169   27.5221 C   0  0  1  0  0  0  0  0  0  0  0  0
    9.8987  -13.8494   27.7439 C   0  0  0  0  0  0  0  0  0  0  0  0
    8.7208  -13.5241   26.9378 C   0  0  0  0  0  0  0  0  0  0  0  0
    7.4767  -13.3912   27.5075 C   0  0  0  0  0  0  0  0  0  0  0  0
    6.3533  -13.0850   26.7515 C   0  0  0  0  0  0  0  0  0  0  0  0
    6.4568  -12.9042   25.3951 C   0  0  0  0  0  0  0  0  0  0  0  0
    7.6817  -13.0311   24.8083 C   0  0  0  0  0  0  0  0  0  0  0  0
    8.8089  -13.3396   25.5758 C   0  0  0  0  0  0  0  0  0  0  0  0
   10.6720  -15.8854   28.8366 C   0  0  0  0  0  0  0  0  0  0  0  0
   11.3175  -15.3181   29.7491 O   0  0  0  0  0  0  0  0  0  0  0  0
   10.1843  -17.1587   29.1018 O   0  0  0  0  0  0  0  0  0  0  0  0
  2  1  1  1
  2  9  1  0
  2  3  1  0
  3  4  1  0
  4  5  2  0
  4  8  1  0
  5  6  1  0
  6  7  1  0
  8  7  2  0
  9 10  2  0
 11 12  1  0
 11  9  1  0
 12 13  1  6
 13 14  1  0
 14 18  1  0
 14 15  2  0
 16 17  2  0
 16 12  1  0
 19 16  1  0
 20 21  1  1
 20 19  1  0
 22 27  1  0
 22 21  1  0
 23 22  2  0
 24 25  2  0
 24 23  1  0
 25 26  1  0
 26 27  2  0
 28 20  1  0
 28 30  1  0
 29 28  2  0
M  END
$$$$
