HDF.pdb
     RDKit          3D

 30 31  0  0  1  0  0  0  0  0999 V2000
    9.1374  -16.7282   21.1697 N   0  0  0  0  0  0  0  0  0  0  0  0
    9.7061  -15.6621   21.9926 C   0  0  1  0  0  0  0  0  0  0  0  0
    8.5751  -14.7784   22.3990 C   0  0  0  0  0  0  0  0  0  0  0  0
    7.9188  -14.1177   21.2540 C   0  0  0  0  0  0  0  0  0  0  0  0
    8.3735  -13.0421   20.5251 C   0  0  0  0  0  0  0  0  0  0  0  0
    7.4887  -12.7340   19.5602 N   0  0  0  0  0  0  0  0  0  0  0  0
    6.4812  -13.6088   19.6777 C   0  0  0  0  0  0  0  0  0  0  0  0
    6.7388  -14.4518   20.7064 N   0  0  0  0  0  0  0  0  0  0  0  0
   10.4507  -16.2747   23.1127 C   0  0  0  0  0  0  0  0  0  0  0  0
   10.0659  -17.3999   23.5391 O   0  0  0  0  0  0  0  0  0  0  0  0
   11.5728  -15.6754   23.7333 N   0  0  0  0  0  0  0  0  0  0  0  0
   12.4197  -16.5098   24.6084 C   0  0  1  0  0  0  0  0  0  0  0  0
   13.8008  -15.8651   24.6306 C   0  0  0  0  0  0  0  0  0  0  0  0
   14.5025  -16.0710   23.3782 C   0  0  0  0  0  0  0  0  0  0  0  0
   14.2842  -17.0312   22.6197 O   0  0  0  0  0  0  0  0  0  0  0  0
   11.8113  -16.6131   25.9356 C   0  0  0  0  0  0  0  0  0  0  0  0
   12.3854  -17.2102   26.8652 O   0  0  0  0  0  0  0  0  0  0  0  0
   15.4845  -15.1578   22.9707 O   0  0  0  0  0  0  0  0  0  0  0  0
   10.5314  -16.0543   26.2941 N   0  0  0  0  0  0  0  0  0  0  0  0
    9.9410  -16.2296   27.5784 C   0  0  1  0  0  0  0  0  0  0  0  0
    9.3846  -14.9928   28.1891 C   0  0  0  0  0  0  0  0  0  0  0  0
    8.5461  -14.1964   27.2915 C   0  0  0  0  0  0  0  0  0  0  0  0
    9.0126  -13.0400   26.7125 C   0  0  0  0  0  0  0  0  0  0  0  0
    8.2246  -12.2768   25.8617 C   0  0  0  0  0  0  0  0  0  0  0  0
    6.9399  -12.6624   25.5719 C   0  0  0  0  0  0  0  0  0  0  0  0
    6.4560  -13.8068   26.1351 C   0  0  0  0  0  0  0  0  0  0  0  0
    7.2551  -14.5706   26.9911 C   0  0  0  0  0  0  0  0  0  0  0  0
    8.9267  -17.3231   27.6436 C   0  0  0  0  0  0  0  0  0  0  0  0
    8.4673  -17.8462   26.6012 O   0  0  0  0  0  0  0  0  0  0  0  0
    8.4519  -17.8039   28.8571 O   0  0  0  0  0  0  0  0  0  0  0  0
  2  1  1  6
  2  9  1  0
  2  3  1  0
  3  4  1  0
  4  5  2  0
  4  8  1  0
  5  6  1  0
  6  7  1  0
  8  7  2  0
  9 10  2  0
 11 12  1  0
 11  9  1  0
 12 13  1  1
 13 14  1  0
 14 18  1  0
 14 15  2  0
 16 17  2  0
 16 12  1  0
 19 16  1  0
 20 21  1  6
 20 19  1  0
 22 27  1  0
 22 21  1  0
 23 22  2  0
 24 25  2  0
 24 23  1  0
 25 26  1  0
 26 27  2  0
 28 20  1  0
 28 30  1  0
 29 28  2  0
M  END
$$$$
