HDF.pdb
     RDKit          3D

 30 31  0  0  1  0  0  0  0  0999 V2000
    8.1153  -18.1623   17.4989 N   0  0  0  0  0  0  0  0  0  0  0  0
    9.0692  -17.1224   17.8803 C   0  0  1  0  0  0  0  0  0  0  0  0
    8.3545  -15.8176   17.7709 C   0  0  0  0  0  0  0  0  0  0  0  0
    8.1580  -15.3826   16.3744 C   0  0  0  0  0  0  0  0  0  0  0  0
    7.4640  -16.0303   15.3775 C   0  0  0  0  0  0  0  0  0  0  0  0
    7.5147  -15.3123   14.2413 N   0  0  0  0  0  0  0  0  0  0  0  0
    8.2355  -14.2178   14.5176 C   0  0  0  0  0  0  0  0  0  0  0  0
    8.6286  -14.2566   15.8135 N   0  0  0  0  0  0  0  0  0  0  0  0
    9.5952  -17.4329   19.2261 C   0  0  0  0  0  0  0  0  0  0  0  0
    8.8566  -18.0821   20.0191 O   0  0  0  0  0  0  0  0  0  0  0  0
   10.8806  -17.0483   19.6771 N   0  0  0  0  0  0  0  0  0  0  0  0
   11.2983  -17.4524   21.0341 C   0  0  1  0  0  0  0  0  0  0  0  0
   12.8215  -17.5086   21.0284 C   0  0  0  0  0  0  0  0  0  0  0  0
   13.3380  -18.0225   22.2824 C   0  0  0  0  0  0  0  0  0  0  0  0
   12.7539  -18.8826   22.9635 O   0  0  0  0  0  0  0  0  0  0  0  0
   10.7606  -16.5128   22.0191 C   0  0  0  0  0  0  0  0  0  0  0  0
   11.2292  -15.3657   22.1411 O   0  0  0  0  0  0  0  0  0  0  0  0
   14.5580  -17.5462   22.7816 O   0  0  0  0  0  0  0  0  0  0  0  0
    9.6714  -16.8044   22.9178 N   0  0  0  0  0  0  0  0  0  0  0  0
    9.3188  -15.9593   24.0088 C   0  0  1  0  0  0  0  0  0  0  0  0
    8.0037  -15.2772   23.8764 C   0  0  0  0  0  0  0  0  0  0  0  0
    7.8941  -14.3887   22.7182 C   0  0  0  0  0  0  0  0  0  0  0  0
    8.4814  -13.1457   22.7101 C   0  0  0  0  0  0  0  0  0  0  0  0
    8.3816  -12.2950   21.6175 C   0  0  0  0  0  0  0  0  0  0  0  0
    7.6834  -12.6783   20.5000 C   0  0  0  0  0  0  0  0  0  0  0  0
    7.0925  -13.9077   20.4858 C   0  0  0  0  0  0  0  0  0  0  0  0
    7.1971  -14.7594   21.5896 C   0  0  0  0  0  0  0  0  0  0  0  0
    9.4138  -16.6132   25.3474 C   0  0  0  0  0  0  0  0  0  0  0  0
    9.7109  -17.8260   25.4585 O   0  0  0  0  0  0  0  0  0  0  0  0
    9.1779  -15.9078   26.5204 O   0  0  0  0  0  0  0  0  0  0  0  0
  2  1  1  1
  2  9  1  0
  2  3  1  0
  3  4  1  0
  4  5  2  0
  4  8  1  0
  5  6  1  0
  6  7  1  0
  8  7  2  0
  9 10  2  0
 11 12  1  0
 11  9  1  0
 12 13  1  6
 13 14  1  0
 14 18  1  0
 14 15  2  0
 16 17  2  0
 16 12  1  0
 19 16  1  0
 20 21  1  6
 20 19  1  0
 22 27  1  0
 22 21  1  0
 23 22  2  0
 24 25  2  0
 24 23  1  0
 25 26  1  0
 26 27  2  0
 28 20  1  0
 28 30  1  0
 29 28  2  0
M  END
$$$$
