HDF.pdb
     RDKit          3D

 30 31  0  0  1  0  0  0  0  0999 V2000
    7.3112  -16.9874   19.8503 N   0  0  0  0  0  0  0  0  0  0  0  0
    8.1977  -16.1415   20.6476 C   0  0  1  0  0  0  0  0  0  0  0  0
    7.4313  -14.9067   20.9841 C   0  0  0  0  0  0  0  0  0  0  0  0
    7.6210  -13.8235   19.9997 C   0  0  0  0  0  0  0  0  0  0  0  0
    8.3957  -13.8420   18.8620 C   0  0  0  0  0  0  0  0  0  0  0  0
    8.3071  -12.6599   18.2266 N   0  0  0  0  0  0  0  0  0  0  0  0
    7.4819  -11.8989   18.9572 C   0  0  0  0  0  0  0  0  0  0  0  0
    7.0624  -12.6027   20.0362 N   0  0  0  0  0  0  0  0  0  0  0  0
    8.6706  -16.9175   21.8131 C   0  0  0  0  0  0  0  0  0  0  0  0
    7.9309  -17.8425   22.2526 O   0  0  0  0  0  0  0  0  0  0  0  0
    9.9065  -16.6869   22.4635 N   0  0  0  0  0  0  0  0  0  0  0  0
   10.3039  -17.5948   23.5576 C   0  0  1  0  0  0  0  0  0  0  0  0
   11.7019  -18.1021   23.2239 C   0  0  0  0  0  0  0  0  0  0  0  0
   12.1999  -18.9983   24.2497 C   0  0  0  0  0  0  0  0  0  0  0  0
   11.5643  -19.9804   24.6697 O   0  0  0  0  0  0  0  0  0  0  0  0
   10.2384  -16.8878   24.8374 C   0  0  0  0  0  0  0  0  0  0  0  0
   10.8205  -15.8000   25.0056 O   0  0  0  0  0  0  0  0  0  0  0  0
   13.4610  -18.7746   24.8189 O   0  0  0  0  0  0  0  0  0  0  0  0
    9.5188  -17.3575   25.9952 N   0  0  0  0  0  0  0  0  0  0  0  0
    9.5562  -16.6922   27.2541 C   0  0  1  0  0  0  0  0  0  0  0  0
    8.2638  -16.0994   27.6908 C   0  0  0  0  0  0  0  0  0  0  0  0
    7.8407  -14.9294   26.9194 C   0  0  0  0  0  0  0  0  0  0  0  0
    6.8768  -15.0242   25.9438 C   0  0  0  0  0  0  0  0  0  0  0  0
    6.4702  -13.9210   25.2055 C   0  0  0  0  0  0  0  0  0  0  0  0
    7.0283  -12.6884   25.4336 C   0  0  0  0  0  0  0  0  0  0  0  0
    7.9867  -12.5707   26.3972 C   0  0  0  0  0  0  0  0  0  0  0  0
    8.3914  -13.6859   27.1369 C   0  0  0  0  0  0  0  0  0  0  0  0
   10.1356  -17.5075   28.3623 C   0  0  0  0  0  0  0  0  0  0  0  0
   10.3649  -18.7313   28.2174 O   0  0  0  0  0  0  0  0  0  0  0  0
   10.4433  -16.9460   29.5950 O   0  0  0  0  0  0  0  0  0  0  0  0
  2  1  1  6
  2  9  1  0
  2  3  1  0
  3  4  1  0
  4  5  2  0
  4  8  1  0
  5  6  1  0
  6  7  1  0
  8  7  2  0
  9 10  2  0
 11 12  1  0
 11  9  1  0
 12 13  1  6
 13 14  1  0
 14 18  1  0
 14 15  2  0
 16 17  2  0
 16 12  1  0
 19 16  1  0
 20 21  1  1
 20 19  1  0
 22 27  1  0
 22 21  1  0
 23 22  2  0
 24 25  2  0
 24 23  1  0
 25 26  1  0
 26 27  2  0
 28 20  1  0
 28 30  1  0
 29 28  2  0
M  END
$$$$
