HDF.pdb
     RDKit          3D

 30 31  0  0  1  0  0  0  0  0999 V2000
    9.9262  -15.3628   19.9614 N   0  0  0  0  0  0  0  0  0  0  0  0
    8.9540  -14.8967   20.9485 C   0  0  1  0  0  0  0  0  0  0  0  0
    7.6316  -14.8390   20.2606 C   0  0  0  0  0  0  0  0  0  0  0  0
    7.6867  -14.1400   18.9619 C   0  0  0  0  0  0  0  0  0  0  0  0
    7.8416  -12.7912   18.7344 C   0  0  0  0  0  0  0  0  0  0  0  0
    7.8424  -12.5455   17.4120 N   0  0  0  0  0  0  0  0  0  0  0  0
    7.6891  -13.7307   16.8072 C   0  0  0  0  0  0  0  0  0  0  0  0
    7.5941  -14.7028   17.7460 N   0  0  0  0  0  0  0  0  0  0  0  0
    9.0057  -15.7919   22.1233 C   0  0  0  0  0  0  0  0  0  0  0  0
    8.1315  -15.6447   23.0234 O   0  0  0  0  0  0  0  0  0  0  0  0
    9.9761  -16.8077   22.2970 N   0  0  0  0  0  0  0  0  0  0  0  0
   10.0444  -17.4976   23.6003 C   0  0  1  0  0  0  0  0  0  0  0  0
   10.9143  -18.7331   23.4003 C   0  0  0  0  0  0  0  0  0  0  0  0
   10.3100  -19.6615   22.4642 C   0  0  0  0  0  0  0  0  0  0  0  0
   10.7846  -19.9108   21.3428 O   0  0  0  0  0  0  0  0  0  0  0  0
   10.5667  -16.5845   24.6181 C   0  0  0  0  0  0  0  0  0  0  0  0
   11.4771  -15.7766   24.3557 O   0  0  0  0  0  0  0  0  0  0  0  0
    9.1281  -20.3305   22.8103 O   0  0  0  0  0  0  0  0  0  0  0  0
   10.0990  -16.5250   25.9807 N   0  0  0  0  0  0  0  0  0  0  0  0
   10.6074  -15.5982   26.9353 C   0  0  1  0  0  0  0  0  0  0  0  0
   10.5567  -14.1720   26.5160 C   0  0  0  0  0  0  0  0  0  0  0  0
    9.2052  -13.6242   26.3882 C   0  0  0  0  0  0  0  0  0  0  0  0
    8.4612  -13.8104   25.2473 C   0  0  0  0  0  0  0  0  0  0  0  0
    7.1795  -13.2932   25.1155 C   0  0  0  0  0  0  0  0  0  0  0  0
    6.6132  -12.5716   26.1361 C   0  0  0  0  0  0  0  0  0  0  0  0
    7.3333  -12.3744   27.2778 C   0  0  0  0  0  0  0  0  0  0  0  0
    8.6234  -12.8982   27.4038 C   0  0  0  0  0  0  0  0  0  0  0  0
   10.0236  -15.7420   28.3017 C   0  0  0  0  0  0  0  0  0  0  0  0
   10.4804  -15.0971   29.2746 O   0  0  0  0  0  0  0  0  0  0  0  0
    8.9544  -16.5930   28.5505 O   0  0  0  0  0  0  0  0  0  0  0  0
  2  1  1  6
  2  9  1  0
  2  3  1  0
  3  4  1  0
  4  5  2  0
  4  8  1  0
  5  6  1  0
  6  7  1  0
  8  7  2  0
  9 10  2  0
 11 12  1  0
 11  9  1  0
 12 13  1  6
 13 14  1  0
 14 18  1  0
 14 15  2  0
 16 17  2  0
 16 12  1  0
 19 16  1  0
 20 21  1  6
 20 19  1  0
 22 27  1  0
 22 21  1  0
 23 22  2  0
 24 25  2  0
 24 23  1  0
 25 26  1  0
 26 27  2  0
 28 20  1  0
 28 30  1  0
 29 28  2  0
M  END
$$$$
