HDF.pdb
     RDKit          3D

 30 31  0  0  1  0  0  0  0  0999 V2000
    8.3571  -16.6218   19.9599 N   0  0  0  0  0  0  0  0  0  0  0  0
    8.9869  -15.6692   20.8725 C   0  0  1  0  0  0  0  0  0  0  0  0
    8.0144  -14.5566   21.0764 C   0  0  0  0  0  0  0  0  0  0  0  0
    7.7686  -13.7729   19.8501 C   0  0  0  0  0  0  0  0  0  0  0  0
    8.2907  -12.5444   19.5139 C   0  0  0  0  0  0  0  0  0  0  0  0
    7.8255  -12.1611   18.3115 N   0  0  0  0  0  0  0  0  0  0  0  0
    7.0150  -13.1404   17.8900 C   0  0  0  0  0  0  0  0  0  0  0  0
    6.9776  -14.1224   18.8225 N   0  0  0  0  0  0  0  0  0  0  0  0
    9.3820  -16.3839   22.1043 C   0  0  0  0  0  0  0  0  0  0  0  0
    8.6549  -17.3391   22.4980 O   0  0  0  0  0  0  0  0  0  0  0  0
   10.5304  -16.0627   22.8669 N   0  0  0  0  0  0  0  0  0  0  0  0
   10.9633  -17.0074   23.9155 C   0  0  1  0  0  0  0  0  0  0  0  0
   12.4391  -17.2963   23.6669 C   0  0  0  0  0  0  0  0  0  0  0  0
   12.9704  -18.2243   24.6466 C   0  0  0  0  0  0  0  0  0  0  0  0
   12.3576  -19.2318   25.0396 O   0  0  0  0  0  0  0  0  0  0  0  0
   10.7036  -16.4346   25.2371 C   0  0  0  0  0  0  0  0  0  0  0  0
   11.2383  -15.3690   25.5962 O   0  0  0  0  0  0  0  0  0  0  0  0
   14.2391  -18.0038   25.1999 O   0  0  0  0  0  0  0  0  0  0  0  0
    9.8328  -17.0208   26.2256 N   0  0  0  0  0  0  0  0  0  0  0  0
    9.7204  -16.5204   27.5544 C   0  0  1  0  0  0  0  0  0  0  0  0
    8.3918  -15.9484   27.9007 C   0  0  0  0  0  0  0  0  0  0  0  0
    8.0177  -14.7664   27.1223 C   0  0  0  0  0  0  0  0  0  0  0  0
    7.1337  -14.8497   26.0727 C   0  0  0  0  0  0  0  0  0  0  0  0
    6.7741  -13.7351   25.3272 C   0  0  0  0  0  0  0  0  0  0  0  0
    7.2996  -12.5024   25.6228 C   0  0  0  0  0  0  0  0  0  0  0  0
    8.1788  -12.3962   26.6605 C   0  0  0  0  0  0  0  0  0  0  0  0
    8.5364  -13.5228   27.4071 C   0  0  0  0  0  0  0  0  0  0  0  0
   10.1437  -17.4856   28.6117 C   0  0  0  0  0  0  0  0  0  0  0  0
   10.3681  -18.6887   28.3409 O   0  0  0  0  0  0  0  0  0  0  0  0
   10.3055  -17.0920   29.9339 O   0  0  0  0  0  0  0  0  0  0  0  0
  2  1  1  6
  2  9  1  0
  2  3  1  0
  3  4  1  0
  4  5  2  0
  4  8  1  0
  5  6  1  0
  6  7  1  0
  8  7  2  0
  9 10  2  0
 11 12  1  0
 11  9  1  0
 12 13  1  6
 13 14  1  0
 14 18  1  0
 14 15  2  0
 16 17  2  0
 16 12  1  0
 19 16  1  0
 20 21  1  1
 20 19  1  0
 22 27  1  0
 22 21  1  0
 23 22  2  0
 24 25  2  0
 24 23  1  0
 25 26  1  0
 26 27  2  0
 28 20  1  0
 28 30  1  0
 29 28  2  0
M  END
$$$$
