HDF.pdb
     RDKit          3D

 30 31  0  0  1  0  0  0  0  0999 V2000
    8.0302  -17.2301   21.0162 N   0  0  0  0  0  0  0  0  0  0  0  0
    8.9367  -16.1523   21.4081 C   0  0  1  0  0  0  0  0  0  0  0  0
    8.0961  -14.9419   21.6400 C   0  0  0  0  0  0  0  0  0  0  0  0
    7.6974  -14.2679   20.3890 C   0  0  0  0  0  0  0  0  0  0  0  0
    8.0294  -14.6157   19.0991 C   0  0  0  0  0  0  0  0  0  0  0  0
    7.4708  -13.7523   18.2323 N   0  0  0  0  0  0  0  0  0  0  0  0
    6.7900  -12.8645   18.9687 C   0  0  0  0  0  0  0  0  0  0  0  0
    6.9251  -13.1745   20.2805 N   0  0  0  0  0  0  0  0  0  0  0  0
    9.7234  -16.5970   22.5775 C   0  0  0  0  0  0  0  0  0  0  0  0
    9.5095  -17.7556   23.0336 O   0  0  0  0  0  0  0  0  0  0  0  0
   10.7056  -15.8013   23.2144 N   0  0  0  0  0  0  0  0  0  0  0  0
   11.7969  -16.4808   23.9401 C   0  0  1  0  0  0  0  0  0  0  0  0
   13.0955  -15.8025   23.5198 C   0  0  0  0  0  0  0  0  0  0  0  0
   14.2508  -16.4693   24.0892 C   0  0  0  0  0  0  0  0  0  0  0  0
   14.4099  -17.7019   24.0693 O   0  0  0  0  0  0  0  0  0  0  0  0
   11.5520  -16.4124   25.3815 C   0  0  0  0  0  0  0  0  0  0  0  0
   12.4212  -16.7608   26.2021 O   0  0  0  0  0  0  0  0  0  0  0  0
   15.2603  -15.7142   24.7015 O   0  0  0  0  0  0  0  0  0  0  0  0
   10.3250  -15.9503   25.9814 N   0  0  0  0  0  0  0  0  0  0  0  0
   10.0601  -16.0468   27.3776 C   0  0  1  0  0  0  0  0  0  0  0  0
    8.7181  -15.5625   27.7980 C   0  0  0  0  0  0  0  0  0  0  0  0
    8.2777  -14.3368   27.1295 C   0  0  0  0  0  0  0  0  0  0  0  0
    8.9671  -13.1558   27.2711 C   0  0  0  0  0  0  0  0  0  0  0  0
    8.5565  -11.9877   26.6430 C   0  0  0  0  0  0  0  0  0  0  0  0
    7.4348  -11.9813   25.8525 C   0  0  0  0  0  0  0  0  0  0  0  0
    6.7352  -13.1421   25.6976 C   0  0  0  0  0  0  0  0  0  0  0  0
    7.1544  -14.3147   26.3330 C   0  0  0  0  0  0  0  0  0  0  0  0
   10.3115  -17.3990   27.9581 C   0  0  0  0  0  0  0  0  0  0  0  0
   10.5795  -18.3807   27.2262 O   0  0  0  0  0  0  0  0  0  0  0  0
   10.2589  -17.6243   29.3277 O   0  0  0  0  0  0  0  0  0  0  0  0
  2  1  1  1
  2  9  1  0
  2  3  1  0
  3  4  1  0
  4  5  2  0
  4  8  1  0
  5  6  1  0
  6  7  1  0
  8  7  2  0
  9 10  2  0
 11 12  1  0
 11  9  1  0
 12 13  1  1
 13 14  1  0
 14 18  1  0
 14 15  2  0
 16 17  2  0
 16 12  1  0
 19 16  1  0
 20 21  1  6
 20 19  1  0
 22 27  1  0
 22 21  1  0
 23 22  2  0
 24 25  2  0
 24 23  1  0
 25 26  1  0
 26 27  2  0
 28 20  1  0
 28 30  1  0
 29 28  2  0
M  END
$$$$
