DCF.pdb
     RDKit          3D

 26 26  0  0  1  0  0  0  0  0999 V2000
    8.9577  -15.9513   19.3753 N   0  0  0  0  0  0  0  0  0  0  0  0
    8.4261  -14.7641   20.0258 C   0  0  1  0  0  0  0  0  0  0  0  0
    7.4116  -14.1356   19.0930 C   0  0  0  0  0  0  0  0  0  0  0  0
    8.0242  -13.9564   17.7336 C   0  0  0  0  0  0  0  0  0  0  0  0
    8.4270  -14.9282   17.0570 O   0  0  0  0  0  0  0  0  0  0  0  0
    7.7667  -15.1041   21.3151 C   0  0  0  0  0  0  0  0  0  0  0  0
    7.1226  -14.2191   21.8916 O   0  0  0  0  0  0  0  0  0  0  0  0
    8.1545  -12.6751   17.1965 O   0  0  0  0  0  0  0  0  0  0  0  0
    7.8399  -16.3834   21.9116 N   0  0  0  0  0  0  0  0  0  0  0  0
    7.3622  -16.6969   23.2228 C   0  0  1  0  0  0  0  0  0  0  0  0
    6.9921  -18.1338   23.4142 C   0  0  0  0  0  0  0  0  0  0  0  0
    6.3877  -18.4787   25.0833 S   0  0  0  0  0  0  0  0  0  0  0  0
    8.3525  -16.3165   24.2787 C   0  0  0  0  0  0  0  0  0  0  0  0
    9.5959  -16.4173   24.0833 O   0  0  0  0  0  0  0  0  0  0  0  0
    7.9508  -15.8243   25.5492 N   0  0  0  0  0  0  0  0  0  0  0  0
    8.8964  -15.5314   26.6259 C   0  0  1  0  0  0  0  0  0  0  0  0
    8.3666  -14.5123   27.5706 C   0  0  0  0  0  0  0  0  0  0  0  0
    7.7600  -13.3887   26.8244 C   0  0  0  0  0  0  0  0  0  0  0  0
    6.3651  -13.2954   26.7740 C   0  0  0  0  0  0  0  0  0  0  0  0
    5.7390  -12.2745   26.1177 C   0  0  0  0  0  0  0  0  0  0  0  0
    6.5244  -11.3207   25.4948 C   0  0  0  0  0  0  0  0  0  0  0  0
    7.8942  -11.3813   25.5245 C   0  0  0  0  0  0  0  0  0  0  0  0
    8.5137  -12.4131   26.1878 C   0  0  0  0  0  0  0  0  0  0  0  0
    9.3965  -16.7732   27.2439 C   0  0  0  0  0  0  0  0  0  0  0  0
   10.4299  -16.8517   28.1620 O   0  0  0  0  0  0  0  0  0  0  0  0
    8.8761  -17.9109   26.9495 O   0  0  0  0  0  0  0  0  0  0  0  0
  2  1  1  6
  3  2  1  0
  3  4  1  0
  4  8  1  0
  5  4  2  0
  6  2  1  0
  6  7  2  0
  9  6  1  0
 10 13  1  0
 10  9  1  0
 10 11  1  6
 12 11  1  0
 13 15  1  0
 14 13  2  0
 15 16  1  0
 16 24  1  0
 16 17  1  1
 18 17  1  0
 19 18  2  0
 20 19  1  0
 21 20  2  0
 21 22  1  0
 22 23  2  0
 23 18  1  0
 24 26  2  0
 24 25  1  0
M  END
$$$$
