DCF.pdb
     RDKit          3D

 26 26  0  0  1  0  0  0  0  0999 V2000
    9.3430  -15.6792   20.0741 N   0  0  0  0  0  0  0  0  0  0  0  0
    8.3720  -14.7657   20.6555 C   0  0  1  0  0  0  0  0  0  0  0  0
    7.1826  -14.6919   19.7205 C   0  0  0  0  0  0  0  0  0  0  0  0
    7.6468  -14.8732   18.3038 C   0  0  0  0  0  0  0  0  0  0  0  0
    7.5236  -13.9700   17.4474 O   0  0  0  0  0  0  0  0  0  0  0  0
    7.9204  -15.2366   21.9923 C   0  0  0  0  0  0  0  0  0  0  0  0
    6.9733  -14.6482   22.5282 O   0  0  0  0  0  0  0  0  0  0  0  0
    8.2344  -16.0782   17.9168 O   0  0  0  0  0  0  0  0  0  0  0  0
    8.5180  -16.3188   22.6775 N   0  0  0  0  0  0  0  0  0  0  0  0
    8.1570  -16.7454   23.9942 C   0  0  1  0  0  0  0  0  0  0  0  0
    8.1847  -18.2287   24.1882 C   0  0  0  0  0  0  0  0  0  0  0  0
    9.8200  -18.9381   23.8841 S   0  0  0  0  0  0  0  0  0  0  0  0
    9.0234  -16.1132   25.0381 C   0  0  0  0  0  0  0  0  0  0  0  0
   10.2106  -15.7640   24.7866 O   0  0  0  0  0  0  0  0  0  0  0  0
    8.5610  -15.8728   26.3595 N   0  0  0  0  0  0  0  0  0  0  0  0
    9.4130  -15.3254   27.4150 C   0  0  1  0  0  0  0  0  0  0  0  0
    8.7434  -14.2235   28.1560 C   0  0  0  0  0  0  0  0  0  0  0  0
    7.9997  -13.3542   27.2188 C   0  0  0  0  0  0  0  0  0  0  0  0
    8.7161  -12.4228   26.4595 C   0  0  0  0  0  0  0  0  0  0  0  0
    8.0954  -11.6010   25.5626 C   0  0  0  0  0  0  0  0  0  0  0  0
    6.7236  -11.7105   25.4185 C   0  0  0  0  0  0  0  0  0  0  0  0
    5.9904  -12.6124   26.1464 C   0  0  0  0  0  0  0  0  0  0  0  0
    6.6254  -13.4344   27.0462 C   0  0  0  0  0  0  0  0  0  0  0  0
    9.9797  -16.4011   28.2492 C   0  0  0  0  0  0  0  0  0  0  0  0
    9.6999  -17.7505   28.1157 O   0  0  0  0  0  0  0  0  0  0  0  0
   10.8065  -16.1335   29.1961 O   0  0  0  0  0  0  0  0  0  0  0  0
  2  1  1  6
  3  2  1  0
  3  4  1  0
  4  8  1  0
  5  4  2  0
  6  2  1  0
  6  7  2  0
  9  6  1  0
 10 13  1  0
 10  9  1  0
 10 11  1  6
 12 11  1  0
 13 15  1  0
 14 13  2  0
 15 16  1  0
 16 24  1  0
 16 17  1  1
 18 17  1  0
 19 18  2  0
 20 19  1  0
 21 20  2  0
 21 22  1  0
 22 23  2  0
 23 18  1  0
 24 26  2  0
 24 25  1  0
M  END
$$$$
