DCF.pdb
     RDKit          3D

 26 26  0  0  1  0  0  0  0  0999 V2000
   10.6612  -16.8653   18.7008 N   0  0  0  0  0  0  0  0  0  0  0  0
   10.6936  -17.8678   19.7540 C   0  0  1  0  0  0  0  0  0  0  0  0
   12.0953  -18.4392   19.8114 C   0  0  0  0  0  0  0  0  0  0  0  0
   12.3569  -19.2500   18.5746 C   0  0  0  0  0  0  0  0  0  0  0  0
   13.4525  -19.8203   18.3779 O   0  0  0  0  0  0  0  0  0  0  0  0
   10.3477  -17.2758   21.0741 C   0  0  0  0  0  0  0  0  0  0  0  0
   11.0247  -16.3238   21.4814 O   0  0  0  0  0  0  0  0  0  0  0  0
   11.3589  -19.3800   17.6081 O   0  0  0  0  0  0  0  0  0  0  0  0
    9.2879  -17.7457   21.8827 N   0  0  0  0  0  0  0  0  0  0  0  0
    8.9520  -17.2180   23.1690 C   0  0  1  0  0  0  0  0  0  0  0  0
    7.5976  -17.6187   23.6624 C   0  0  0  0  0  0  0  0  0  0  0  0
    7.2671  -17.0288   25.3395 S   0  0  0  0  0  0  0  0  0  0  0  0
    9.9654  -17.5947   24.2040 C   0  0  0  0  0  0  0  0  0  0  0  0
   10.3701  -18.7844   24.3281 O   0  0  0  0  0  0  0  0  0  0  0  0
   10.5240  -16.6414   25.0967 N   0  0  0  0  0  0  0  0  0  0  0  0
   11.4826  -16.9952   26.1432 C   0  0  1  0  0  0  0  0  0  0  0  0
   12.1742  -15.7988   26.6927 C   0  0  0  0  0  0  0  0  0  0  0  0
   11.2220  -14.9620   27.4544 C   0  0  0  0  0  0  0  0  0  0  0  0
   11.2535  -15.0169   28.8519 C   0  0  0  0  0  0  0  0  0  0  0  0
   10.4150  -14.2582   29.6175 C   0  0  0  0  0  0  0  0  0  0  0  0
    9.5207  -13.4219   28.9727 C   0  0  0  0  0  0  0  0  0  0  0  0
    9.4629  -13.3431   27.6048 C   0  0  0  0  0  0  0  0  0  0  0  0
   10.3115  -14.1113   26.8442 C   0  0  0  0  0  0  0  0  0  0  0  0
   10.8703  -17.8911   27.1414 C   0  0  0  0  0  0  0  0  0  0  0  0
    9.5196  -18.1806   27.2367 O   0  0  0  0  0  0  0  0  0  0  0  0
   11.5917  -18.4831   28.0251 O   0  0  0  0  0  0  0  0  0  0  0  0
  2  1  1  6
  3  2  1  0
  3  4  1  0
  4  8  1  0
  5  4  2  0
  6  2  1  0
  6  7  2  0
  9  6  1  0
 10 13  1  0
 10  9  1  0
 10 11  1  1
 12 11  1  0
 13 15  1  0
 14 13  2  0
 15 16  1  0
 16 24  1  0
 16 17  1  1
 18 17  1  0
 19 18  2  0
 20 19  1  0
 21 20  2  0
 21 22  1  0
 22 23  2  0
 23 18  1  0
 24 26  2  0
 24 25  1  0
M  END
$$$$
