DCF.pdb
     RDKit          3D

 26 26  0  0  1  0  0  0  0  0999 V2000
    9.6908  -20.2022   18.2085 N   0  0  0  0  0  0  0  0  0  0  0  0
   10.1745  -19.3445   19.2789 C   0  0  1  0  0  0  0  0  0  0  0  0
   10.5188  -17.9974   18.6780 C   0  0  0  0  0  0  0  0  0  0  0  0
   11.6428  -18.1594   17.6953 C   0  0  0  0  0  0  0  0  0  0  0  0
   12.7030  -18.7511   17.9958 O   0  0  0  0  0  0  0  0  0  0  0  0
    9.1426  -19.1646   20.3350 C   0  0  0  0  0  0  0  0  0  0  0  0
    7.9576  -19.0957   19.9864 O   0  0  0  0  0  0  0  0  0  0  0  0
   11.5156  -17.6402   16.4064 O   0  0  0  0  0  0  0  0  0  0  0  0
    9.4482  -19.0687   21.7117 N   0  0  0  0  0  0  0  0  0  0  0  0
    8.4744  -18.9846   22.7560 C   0  0  1  0  0  0  0  0  0  0  0  0
    8.4884  -20.1426   23.7032 C   0  0  0  0  0  0  0  0  0  0  0  0
    7.5195  -19.8291   25.1974 S   0  0  0  0  0  0  0  0  0  0  0  0
    8.6181  -17.7220   23.5468 C   0  0  0  0  0  0  0  0  0  0  0  0
    9.7532  -17.2449   23.8265 O   0  0  0  0  0  0  0  0  0  0  0  0
    7.4935  -16.9962   24.0223 N   0  0  0  0  0  0  0  0  0  0  0  0
    7.6105  -15.8099   24.8699 C   0  0  1  0  0  0  0  0  0  0  0  0
    6.4834  -14.8625   24.6609 C   0  0  0  0  0  0  0  0  0  0  0  0
    6.6441  -13.6761   25.5290 C   0  0  0  0  0  0  0  0  0  0  0  0
    5.9863  -13.6572   26.7635 C   0  0  0  0  0  0  0  0  0  0  0  0
    6.1047  -12.6017   27.6219 C   0  0  0  0  0  0  0  0  0  0  0  0
    6.9004  -11.5361   27.2396 C   0  0  0  0  0  0  0  0  0  0  0  0
    7.5596  -11.5217   26.0370 C   0  0  0  0  0  0  0  0  0  0  0  0
    7.4332  -12.5892   25.1809 C   0  0  0  0  0  0  0  0  0  0  0  0
    7.8758  -16.1844   26.2712 C   0  0  0  0  0  0  0  0  0  0  0  0
    8.8901  -15.6688   27.0602 O   0  0  0  0  0  0  0  0  0  0  0  0
    7.1444  -17.0555   26.8695 O   0  0  0  0  0  0  0  0  0  0  0  0
  2  1  1  6
  3  2  1  0
  3  4  1  0
  4  8  1  0
  5  4  2  0
  6  2  1  0
  6  7  2  0
  9  6  1  0
 10 13  1  0
 10  9  1  0
 10 11  1  1
 12 11  1  0
 13 15  1  0
 14 13  2  0
 15 16  1  0
 16 24  1  0
 16 17  1  1
 18 17  1  0
 19 18  2  0
 20 19  1  0
 21 20  2  0
 21 22  1  0
 22 23  2  0
 23 18  1  0
 24 26  2  0
 24 25  1  0
M  END
$$$$
