DCF.pdb
     RDKit          3D

 26 26  0  0  1  0  0  0  0  0999 V2000
    8.1761  -17.6081   18.3200 N   0  0  0  0  0  0  0  0  0  0  0  0
    8.2460  -16.2322   18.7863 C   0  0  1  0  0  0  0  0  0  0  0  0
    7.4017  -15.3819   17.8597 C   0  0  0  0  0  0  0  0  0  0  0  0
    7.8612  -15.5764   16.4432 C   0  0  0  0  0  0  0  0  0  0  0  0
    7.4759  -14.8314   15.5154 O   0  0  0  0  0  0  0  0  0  0  0  0
    7.7323  -16.1063   20.1766 C   0  0  0  0  0  0  0  0  0  0  0  0
    7.7588  -14.9899   20.7090 O   0  0  0  0  0  0  0  0  0  0  0  0
    8.7433  -16.6137   16.1379 O   0  0  0  0  0  0  0  0  0  0  0  0
    7.2178  -17.1953   20.9164 N   0  0  0  0  0  0  0  0  0  0  0  0
    6.8544  -17.1389   22.2986 C   0  0  1  0  0  0  0  0  0  0  0  0
    6.0961  -18.3341   22.7834 C   0  0  0  0  0  0  0  0  0  0  0  0
    5.8891  -18.3433   24.5797 S   0  0  0  0  0  0  0  0  0  0  0  0
    8.0500  -16.9459   23.1781 C   0  0  0  0  0  0  0  0  0  0  0  0
    9.0784  -17.6692   23.0608 O   0  0  0  0  0  0  0  0  0  0  0  0
    8.0934  -15.9455   24.1855 N   0  0  0  0  0  0  0  0  0  0  0  0
    9.2538  -15.7351   25.0507 C   0  0  1  0  0  0  0  0  0  0  0  0
    9.6746  -14.3091   25.0812 C   0  0  0  0  0  0  0  0  0  0  0  0
    8.5766  -13.4620   25.5951 C   0  0  0  0  0  0  0  0  0  0  0  0
    8.6252  -13.0408   26.9282 C   0  0  0  0  0  0  0  0  0  0  0  0
    7.6543  -12.2432   27.4630 C   0  0  0  0  0  0  0  0  0  0  0  0
    6.6065  -11.8548   26.6469 C   0  0  0  0  0  0  0  0  0  0  0  0
    6.5275  -12.2490   25.3357 C   0  0  0  0  0  0  0  0  0  0  0  0
    7.5102  -13.0518   24.8080 C   0  0  0  0  0  0  0  0  0  0  0  0
    9.0543  -16.3682   26.3673 C   0  0  0  0  0  0  0  0  0  0  0  0
   10.0305  -16.5268   27.3364 O   0  0  0  0  0  0  0  0  0  0  0  0
    7.9053  -16.8335   26.7068 O   0  0  0  0  0  0  0  0  0  0  0  0
  2  1  1  6
  3  2  1  0
  3  4  1  0
  4  8  1  0
  5  4  2  0
  6  2  1  0
  6  7  2  0
  9  6  1  0
 10 13  1  0
 10  9  1  0
 10 11  1  1
 12 11  1  0
 13 15  1  0
 14 13  2  0
 15 16  1  0
 16 24  1  0
 16 17  1  1
 18 17  1  0
 19 18  2  0
 20 19  1  0
 21 20  2  0
 21 22  1  0
 22 23  2  0
 23 18  1  0
 24 26  2  0
 24 25  1  0
M  END
$$$$
