DCF.pdb
     RDKit          3D

 26 26  0  0  1  0  0  0  0  0999 V2000
    8.7270  -20.2520   19.9321 N   0  0  0  0  0  0  0  0  0  0  0  0
    9.0953  -19.8253   21.2729 C   0  0  1  0  0  0  0  0  0  0  0  0
   10.3510  -20.5724   21.6719 C   0  0  0  0  0  0  0  0  0  0  0  0
   10.0372  -22.0329   21.8275 C   0  0  0  0  0  0  0  0  0  0  0  0
   10.7121  -22.9181   21.2574 O   0  0  0  0  0  0  0  0  0  0  0  0
    9.3557  -18.3615   21.3214 C   0  0  0  0  0  0  0  0  0  0  0  0
   10.4450  -17.9490   20.9046 O   0  0  0  0  0  0  0  0  0  0  0  0
    8.9649  -22.4290   22.6278 O   0  0  0  0  0  0  0  0  0  0  0  0
    8.4234  -17.4226   21.8185 N   0  0  0  0  0  0  0  0  0  0  0  0
    8.6173  -16.0055   21.8153 C   0  0  1  0  0  0  0  0  0  0  0  0
    7.3513  -15.2127   21.7306 C   0  0  0  0  0  0  0  0  0  0  0  0
    6.0961  -15.7819   22.9013 S   0  0  0  0  0  0  0  0  0  0  0  0
    9.3846  -15.5488   23.0165 C   0  0  0  0  0  0  0  0  0  0  0  0
   10.2902  -14.6734   22.9266 O   0  0  0  0  0  0  0  0  0  0  0  0
    9.1377  -16.0709   24.3142 N   0  0  0  0  0  0  0  0  0  0  0  0
    9.9002  -15.6659   25.4948 C   0  0  1  0  0  0  0  0  0  0  0  0
    9.8844  -14.1916   25.6893 C   0  0  0  0  0  0  0  0  0  0  0  0
    8.5316  -13.7414   26.0822 C   0  0  0  0  0  0  0  0  0  0  0  0
    7.5931  -13.4881   25.0761 C   0  0  0  0  0  0  0  0  0  0  0  0
    6.3209  -13.0867   25.3683 C   0  0  0  0  0  0  0  0  0  0  0  0
    5.9747  -12.9336   26.6992 C   0  0  0  0  0  0  0  0  0  0  0  0
    6.8694  -13.1734   27.7106 C   0  0  0  0  0  0  0  0  0  0  0  0
    8.1470  -13.5768   27.4051 C   0  0  0  0  0  0  0  0  0  0  0  0
    9.5187  -16.4674   26.6722 C   0  0  0  0  0  0  0  0  0  0  0  0
   10.1332  -16.4134   27.9117 O   0  0  0  0  0  0  0  0  0  0  0  0
    8.5457  -17.3049   26.6112 O   0  0  0  0  0  0  0  0  0  0  0  0
  2  1  1  6
  3  2  1  0
  3  4  1  0
  4  8  1  0
  5  4  2  0
  6  2  1  0
  6  7  2  0
  9  6  1  0
 10 13  1  0
 10  9  1  0
 10 11  1  1
 12 11  1  0
 13 15  1  0
 14 13  2  0
 15 16  1  0
 16 24  1  0
 16 17  1  1
 18 17  1  0
 19 18  2  0
 20 19  1  0
 21 20  2  0
 21 22  1  0
 22 23  2  0
 23 18  1  0
 24 26  2  0
 24 25  1  0
M  END
$$$$
