DCF.pdb
     RDKit          3D

 26 26  0  0  1  0  0  0  0  0999 V2000
    8.9911  -18.7968   18.0635 N   0  0  0  0  0  0  0  0  0  0  0  0
    9.6186  -18.9654   19.3647 C   0  0  1  0  0  0  0  0  0  0  0  0
   11.0687  -18.5454   19.2413 C   0  0  0  0  0  0  0  0  0  0  0  0
   11.7971  -19.5132   18.3535 C   0  0  0  0  0  0  0  0  0  0  0  0
   11.6380  -20.7497   18.4532 O   0  0  0  0  0  0  0  0  0  0  0  0
    8.9496  -18.1317   20.3991 C   0  0  0  0  0  0  0  0  0  0  0  0
    8.7304  -16.9427   20.1372 O   0  0  0  0  0  0  0  0  0  0  0  0
   12.6798  -19.0342   17.3848 O   0  0  0  0  0  0  0  0  0  0  0  0
    8.5539  -18.6292   21.6615 N   0  0  0  0  0  0  0  0  0  0  0  0
    7.8569  -17.8687   22.6522 C   0  0  1  0  0  0  0  0  0  0  0  0
    6.5283  -18.4368   23.0401 C   0  0  0  0  0  0  0  0  0  0  0  0
    5.8171  -17.6152   24.4855 S   0  0  0  0  0  0  0  0  0  0  0  0
    8.6772  -17.6896   23.8913 C   0  0  0  0  0  0  0  0  0  0  0  0
    8.6586  -18.5416   24.8231 O   0  0  0  0  0  0  0  0  0  0  0  0
    9.5160  -16.5598   24.0855 N   0  0  0  0  0  0  0  0  0  0  0  0
    9.1572  -15.4409   24.9564 C   0  0  1  0  0  0  0  0  0  0  0  0
    7.9961  -14.6752   24.4299 C   0  0  0  0  0  0  0  0  0  0  0  0
    7.5911  -13.6309   25.3955 C   0  0  0  0  0  0  0  0  0  0  0  0
    8.5899  -12.9201   26.0695 C   0  0  0  0  0  0  0  0  0  0  0  0
    8.2873  -11.9311   26.9612 C   0  0  0  0  0  0  0  0  0  0  0  0
    6.9531  -11.6424   27.1872 C   0  0  0  0  0  0  0  0  0  0  0  0
    5.9485  -12.3191   26.5439 C   0  0  0  0  0  0  0  0  0  0  0  0
    6.2645  -13.3126   25.6486 C   0  0  0  0  0  0  0  0  0  0  0  0
    9.0483  -15.8767   26.3608 C   0  0  0  0  0  0  0  0  0  0  0  0
    8.0294  -16.6565   26.8812 O   0  0  0  0  0  0  0  0  0  0  0  0
    9.9373  -15.5394   27.2255 O   0  0  0  0  0  0  0  0  0  0  0  0
  2  1  1  6
  3  2  1  0
  3  4  1  0
  4  8  1  0
  5  4  2  0
  6  2  1  0
  6  7  2  0
  9  6  1  0
 10 13  1  0
 10  9  1  0
 10 11  1  1
 12 11  1  0
 13 15  1  0
 14 13  2  0
 15 16  1  0
 16 24  1  0
 16 17  1  6
 18 17  1  0
 19 18  2  0
 20 19  1  0
 21 20  2  0
 21 22  1  0
 22 23  2  0
 23 18  1  0
 24 26  2  0
 24 25  1  0
M  END
$$$$
