DCF.pdb
     RDKit          3D

 26 26  0  0  1  0  0  0  0  0999 V2000
    8.6497  -20.4379   19.9618 N   0  0  0  0  0  0  0  0  0  0  0  0
    9.0442  -19.0605   19.7118 C   0  0  1  0  0  0  0  0  0  0  0  0
    8.4432  -18.6359   18.3879 C   0  0  0  0  0  0  0  0  0  0  0  0
    9.5413  -18.4081   17.3891 C   0  0  0  0  0  0  0  0  0  0  0  0
   10.5934  -19.0843   17.3980 O   0  0  0  0  0  0  0  0  0  0  0  0
    8.5577  -18.1557   20.7876 C   0  0  0  0  0  0  0  0  0  0  0  0
    8.9108  -16.9705   20.7564 O   0  0  0  0  0  0  0  0  0  0  0  0
    9.3981  -17.4172   16.4170 O   0  0  0  0  0  0  0  0  0  0  0  0
    7.7153  -18.5819   21.8395 N   0  0  0  0  0  0  0  0  0  0  0  0
    7.2279  -17.7348   22.8839 C   0  0  1  0  0  0  0  0  0  0  0  0
    6.0352  -18.2760   23.6071 C   0  0  0  0  0  0  0  0  0  0  0  0
    6.2337  -18.2318   25.4039 S   0  0  0  0  0  0  0  0  0  0  0  0
    8.2931  -17.4258   23.8889 C   0  0  0  0  0  0  0  0  0  0  0  0
    9.1505  -18.2889   24.2273 O   0  0  0  0  0  0  0  0  0  0  0  0
    8.3976  -16.1537   24.5122 N   0  0  0  0  0  0  0  0  0  0  0  0
    9.5052  -15.7868   25.3943 C   0  0  1  0  0  0  0  0  0  0  0  0
    9.7525  -14.3204   25.3974 C   0  0  0  0  0  0  0  0  0  0  0  0
    8.5124  -13.5927   25.7434 C   0  0  0  0  0  0  0  0  0  0  0  0
    8.3601  -13.1145   27.0492 C   0  0  0  0  0  0  0  0  0  0  0  0
    7.2487  -12.4196   27.4323 C   0  0  0  0  0  0  0  0  0  0  0  0
    6.2623  -12.1950   26.4882 C   0  0  0  0  0  0  0  0  0  0  0  0
    6.3789  -12.6493   25.1994 C   0  0  0  0  0  0  0  0  0  0  0  0
    7.5017  -13.3476   24.8249 C   0  0  0  0  0  0  0  0  0  0  0  0
    9.3533  -16.4096   26.7222 C   0  0  0  0  0  0  0  0  0  0  0  0
   10.3333  -16.4637   27.6988 O   0  0  0  0  0  0  0  0  0  0  0  0
    8.2471  -16.9668   27.0653 O   0  0  0  0  0  0  0  0  0  0  0  0
  2  1  1  1
  3  2  1  0
  3  4  1  0
  4  8  1  0
  5  4  2  0
  6  2  1  0
  6  7  2  0
  9  6  1  0
 10 13  1  0
 10  9  1  0
 10 11  1  1
 12 11  1  0
 13 15  1  0
 14 13  2  0
 15 16  1  0
 16 24  1  0
 16 17  1  1
 18 17  1  0
 19 18  2  0
 20 19  1  0
 21 20  2  0
 21 22  1  0
 22 23  2  0
 23 18  1  0
 24 26  2  0
 24 25  1  0
M  END
$$$$
