DCF.pdb
     RDKit          3D

 26 26  0  0  1  0  0  0  0  0999 V2000
    7.8598  -18.8763   18.7498 N   0  0  0  0  0  0  0  0  0  0  0  0
    8.0095  -17.4762   19.1139 C   0  0  1  0  0  0  0  0  0  0  0  0
    7.4195  -16.6382   17.9985 C   0  0  0  0  0  0  0  0  0  0  0  0
    8.3913  -16.5693   16.8556 C   0  0  0  0  0  0  0  0  0  0  0  0
    9.5209  -17.1027   16.9157 O   0  0  0  0  0  0  0  0  0  0  0  0
    7.3035  -17.1707   20.3870 C   0  0  0  0  0  0  0  0  0  0  0  0
    6.0903  -16.9333   20.3384 O   0  0  0  0  0  0  0  0  0  0  0  0
    8.0380  -15.8943   15.6865 O   0  0  0  0  0  0  0  0  0  0  0  0
    7.9480  -17.1384   21.6446 N   0  0  0  0  0  0  0  0  0  0  0  0
    7.2740  -17.1981   22.9047 C   0  0  1  0  0  0  0  0  0  0  0  0
    6.6739  -18.5326   23.2173 C   0  0  0  0  0  0  0  0  0  0  0  0
    7.9221  -19.8259   23.4151 S   0  0  0  0  0  0  0  0  0  0  0  0
    8.1748  -16.8059   24.0338 C   0  0  0  0  0  0  0  0  0  0  0  0
    9.4289  -16.9266   23.9491 O   0  0  0  0  0  0  0  0  0  0  0  0
    7.6720  -16.2797   25.2536 N   0  0  0  0  0  0  0  0  0  0  0  0
    8.5260  -15.9682   26.3995 C   0  0  1  0  0  0  0  0  0  0  0  0
    7.8685  -15.0269   27.3446 C   0  0  0  0  0  0  0  0  0  0  0  0
    7.4959  -13.7774   26.6467 C   0  0  0  0  0  0  0  0  0  0  0  0
    8.4674  -13.1245   25.8806 C   0  0  0  0  0  0  0  0  0  0  0  0
    8.1873  -11.9765   25.1961 C   0  0  0  0  0  0  0  0  0  0  0  0
    6.9040  -11.4654   25.2772 C   0  0  0  0  0  0  0  0  0  0  0  0
    5.9273  -12.0796   26.0186 C   0  0  0  0  0  0  0  0  0  0  0  0
    6.2204  -13.2344   26.7035 C   0  0  0  0  0  0  0  0  0  0  0  0
    9.0723  -17.1978   27.0025 C   0  0  0  0  0  0  0  0  0  0  0  0
   10.2189  -17.2704   27.7753 O   0  0  0  0  0  0  0  0  0  0  0  0
    8.4863  -18.3294   26.8356 O   0  0  0  0  0  0  0  0  0  0  0  0
  2  1  1  6
  3  2  1  0
  3  4  1  0
  4  8  1  0
  5  4  2  0
  6  2  1  0
  6  7  2  0
  9  6  1  0
 10 13  1  0
 10  9  1  0
 10 11  1  1
 12 11  1  0
 13 15  1  0
 14 13  2  0
 15 16  1  0
 16 24  1  0
 16 17  1  1
 18 17  1  0
 19 18  2  0
 20 19  1  0
 21 20  2  0
 21 22  1  0
 22 23  2  0
 23 18  1  0
 24 26  2  0
 24 25  1  0
M  END
$$$$
