DCF.pdb
     RDKit          3D

 26 26  0  0  1  0  0  0  0  0999 V2000
    9.5558  -19.4721   20.7395 N   0  0  0  0  0  0  0  0  0  0  0  0
   10.5924  -18.5335   20.3396 C   0  0  1  0  0  0  0  0  0  0  0  0
   10.8538  -18.7293   18.8606 C   0  0  0  0  0  0  0  0  0  0  0  0
    9.5973  -19.2027   18.1878 C   0  0  0  0  0  0  0  0  0  0  0  0
    8.8468  -20.0540   18.7135 O   0  0  0  0  0  0  0  0  0  0  0  0
   10.1719  -17.1279   20.5846 C   0  0  0  0  0  0  0  0  0  0  0  0
   11.0068  -16.2313   20.4123 O   0  0  0  0  0  0  0  0  0  0  0  0
    9.2437  -18.6871   16.9403 O   0  0  0  0  0  0  0  0  0  0  0  0
    8.8707  -16.7677   21.0031 N   0  0  0  0  0  0  0  0  0  0  0  0
    8.4683  -15.4406   21.3532 C   0  0  1  0  0  0  0  0  0  0  0  0
    6.9947  -15.2005   21.2572 C   0  0  0  0  0  0  0  0  0  0  0  0
    6.0571  -16.1358   22.4885 S   0  0  0  0  0  0  0  0  0  0  0  0
    8.9215  -15.0698   22.7306 C   0  0  0  0  0  0  0  0  0  0  0  0
    8.5696  -13.9838   23.2704 O   0  0  0  0  0  0  0  0  0  0  0  0
    9.7658  -15.9132   23.5009 N   0  0  0  0  0  0  0  0  0  0  0  0
   10.1781  -15.5947   24.8677 C   0  0  1  0  0  0  0  0  0  0  0  0
    9.0149  -15.2994   25.7459 C   0  0  0  0  0  0  0  0  0  0  0  0
    9.4760  -14.9610   27.1097 C   0  0  0  0  0  0  0  0  0  0  0  0
    9.4024  -13.6282   27.5286 C   0  0  0  0  0  0  0  0  0  0  0  0
    9.7945  -13.2484   28.7804 C   0  0  0  0  0  0  0  0  0  0  0  0
   10.2728  -14.2233   29.6380 C   0  0  0  0  0  0  0  0  0  0  0  0
   10.3583  -15.5390   29.2603 C   0  0  0  0  0  0  0  0  0  0  0  0
    9.9610  -15.9099   27.9982 C   0  0  0  0  0  0  0  0  0  0  0  0
   11.1257  -16.6002   25.3828 C   0  0  0  0  0  0  0  0  0  0  0  0
   10.9783  -17.9723   25.2696 O   0  0  0  0  0  0  0  0  0  0  0  0
   12.1956  -16.2420   25.9982 O   0  0  0  0  0  0  0  0  0  0  0  0
  2  1  1  6
  3  2  1  0
  3  4  1  0
  4  8  1  0
  5  4  2  0
  6  2  1  0
  6  7  2  0
  9  6  1  0
 10 13  1  0
 10  9  1  0
 10 11  1  1
 12 11  1  0
 13 15  1  0
 14 13  2  0
 15 16  1  0
 16 24  1  0
 16 17  1  1
 18 17  1  0
 19 18  2  0
 20 19  1  0
 21 20  2  0
 21 22  1  0
 22 23  2  0
 23 18  1  0
 24 26  2  0
 24 25  1  0
M  END
$$$$
