RQI.pdb
     RDKit          3D

 29 28  0  0  1  0  0  0  0  0999 V2000
   30.7417  -29.7834  -19.4062 N   0  0  0  0  0  0  0  0  0  0  0  0
   30.1489  -30.1721  -18.1863 C   0  0  0  0  0  0  0  0  0  0  0  0
   30.8717  -30.5895  -17.2211 N   0  0  0  0  0  0  0  0  0  0  0  0
   28.7143  -30.1140  -17.9843 N   0  0  0  0  0  0  0  0  0  0  0  0
   28.1040  -28.8886  -17.6095 C   0  0  0  0  0  0  0  0  0  0  0  0
   28.9752  -27.7019  -17.7038 C   0  0  0  0  0  0  0  0  0  0  0  0
   28.4257  -26.3530  -17.4253 C   0  0  0  0  0  0  0  0  0  0  0  0
   27.1510  -26.2771  -16.7160 C   0  0  2  0  0  0  0  0  0  0  0  0
   26.0240  -26.7638  -17.4943 N   0  0  0  0  0  0  0  0  0  0  0  0
   26.7896  -24.9004  -16.2620 C   0  0  0  0  0  0  0  0  0  0  0  0
   27.6738  -24.2686  -15.6475 O   0  0  0  0  0  0  0  0  0  0  0  0
   30.4418  -30.8780  -16.3288 N   0  0  0  0  0  0  0  0  0  0  0  0
   25.1504  -23.7340  -21.2640 C   0  0  0  0  0  0  0  0  0  0  0  0
   25.4434  -22.3865  -20.9070 O   0  0  0  0  0  0  0  0  0  0  0  0
   25.3904  -21.5237  -21.8180 C   0  0  0  0  0  0  0  0  0  0  0  0
   25.7985  -22.0263  -19.5013 C   0  0  0  0  0  0  0  0  0  0  0  0
   25.8797  -23.2719  -18.6829 C   0  0  2  0  0  0  0  0  0  0  0  0
   25.4109  -23.0804  -17.2575 N   0  0  0  0  0  0  0  0  0  0  0  0
   25.5549  -24.2846  -16.4741 C   0  0  0  0  0  0  0  0  0  0  0  0
   24.0213  -22.5728  -17.3336 O   0  0  0  0  0  0  0  0  0  0  0  0
   23.7787  -21.4774  -17.8721 C   0  0  0  0  0  0  0  0  0  0  0  0
   20.5967  -25.4072  -19.7271 C   0  0  0  0  0  0  0  0  0  0  0  0
   21.3096  -24.2301  -19.0684 C   0  0  2  0  0  0  0  0  0  0  0  0
   20.8049  -23.9891  -17.6851 C   0  0  0  0  0  0  0  0  0  0  0  0
   19.3364  -23.6478  -17.7640 C   0  0  2  0  0  0  0  0  0  0  0  0
   21.5895  -22.8711  -17.0122 N   0  0  0  0  0  0  0  0  0  0  0  0
   22.9724  -23.3415  -16.7909 C   0  0  0  0  0  0  0  0  0  0  0  0
   21.0131  -22.4534  -15.7108 O   0  0  0  0  0  0  0  0  0  0  0  0
   19.9902  -21.7481  -15.5683 O   0  0  0  0  0  0  0  0  0  0  0  0
  2  3  2  0
  2  1  1  0
  4  2  1  0
  5  4  1  0
  6  5  1  0
  7  6  1  0
  8  7  1  0
  8  9  1  6
 10  8  1  0
 10 11  2  0
 13 12  1  0
 13 14  2  0
 15 16  1  0
 15 13  1  0
 17 16  1  1
 17 18  1  0
 17 19  1  0
 18 10  1  0
 19 20  2  0
 19 26  1  0
 22 21  1  0
 23 22  1  0
 23 25  1  0
 23 24  1  1
 25 27  1  0
 25 26  1  6
 27 28  2  0
 27 29  1  0
M  END
$$$$
