RQI.pdb
     RDKit          3D

 29 28  0  0  1  0  0  0  0  0999 V2000
   25.4412  -24.3020  -16.1803 N   0  0  0  0  0  0  0  0  0  0  0  0
   25.6467  -25.6953  -16.0949 C   0  0  0  0  0  0  0  0  0  0  0  0
   26.8097  -26.1888  -16.2745 N   0  0  0  0  0  0  0  0  0  0  0  0
   24.5591  -26.6089  -15.8040 N   0  0  0  0  0  0  0  0  0  0  0  0
   23.2655  -26.0980  -15.5212 C   0  0  0  0  0  0  0  0  0  0  0  0
   23.0212  -25.7638  -14.1053 C   0  0  0  0  0  0  0  0  0  0  0  0
   22.1596  -26.6382  -13.2736 C   0  0  0  0  0  0  0  0  0  0  0  0
   20.7332  -26.3278  -13.2221 C   0  0  2  0  0  0  0  0  0  0  0  0
   20.4427  -24.9101  -13.3592 N   0  0  0  0  0  0  0  0  0  0  0  0
   20.0581  -26.7794  -11.9682 C   0  0  0  0  0  0  0  0  0  0  0  0
   20.1084  -28.0020  -11.7202 O   0  0  0  0  0  0  0  0  0  0  0  0
   26.9742  -27.2011  -16.1633 N   0  0  0  0  0  0  0  0  0  0  0  0
   18.2721  -23.4250   -6.9555 C   0  0  0  0  0  0  0  0  0  0  0  0
   18.5009  -24.7501   -6.4858 O   0  0  0  0  0  0  0  0  0  0  0  0
   18.5310  -24.9244   -5.2424 C   0  0  0  0  0  0  0  0  0  0  0  0
   18.6958  -25.8795   -7.4439 C   0  0  0  0  0  0  0  0  0  0  0  0
   18.5596  -25.3665   -8.8390 C   0  0  2  0  0  0  0  0  0  0  0  0
   18.7285  -26.4421   -9.8891 N   0  0  0  0  0  0  0  0  0  0  0  0
   19.3883  -25.9439  -11.0727 C   0  0  0  0  0  0  0  0  0  0  0  0
   17.3809  -27.0034  -10.1406 O   0  0  0  0  0  0  0  0  0  0  0  0
   16.6184  -26.4673  -10.9652 C   0  0  0  0  0  0  0  0  0  0  0  0
   16.4492  -32.3963   -9.5884 C   0  0  0  0  0  0  0  0  0  0  0  0
   16.5671  -30.9156   -9.9371 C   0  0  2  0  0  0  0  0  0  0  0  0
   15.5289  -30.1041   -9.2373 C   0  0  0  0  0  0  0  0  0  0  0  0
   14.1739  -30.6983   -9.5378 C   0  0  2  0  0  0  0  0  0  0  0  0
   15.5959  -28.6480   -9.6773 N   0  0  0  0  0  0  0  0  0  0  0  0
   16.9669  -28.1525   -9.4380 C   0  0  0  0  0  0  0  0  0  0  0  0
   14.6394  -27.7743   -8.9549 O   0  0  0  0  0  0  0  0  0  0  0  0
   14.8224  -27.2915   -7.8158 O   0  0  0  0  0  0  0  0  0  0  0  0
  2  3  2  0
  2  1  1  0
  4  2  1  0
  5  4  1  0
  6  5  1  0
  7  6  1  0
  8  7  1  0
  8  9  1  1
 10  8  1  0
 10 11  2  0
 13 12  1  0
 13 14  2  0
 15 16  1  0
 15 13  1  0
 17 16  1  1
 17 18  1  0
 17 19  1  0
 18 10  1  0
 19 20  2  0
 19 26  1  0
 22 21  1  0
 23 22  1  0
 23 25  1  0
 23 24  1  1
 25 27  1  0
 25 26  1  6
 27 28  2  0
 27 29  1  0
M  END
$$$$
