RQI.pdb
     RDKit          3D

 29 28  0  0  1  0  0  0  0  0999 V2000
   31.1760  -23.9947  -17.9258 N   0  0  0  0  0  0  0  0  0  0  0  0
   30.6167  -23.1433  -18.9020 C   0  0  0  0  0  0  0  0  0  0  0  0
   30.9424  -23.2664  -20.1296 N   0  0  0  0  0  0  0  0  0  0  0  0
   29.6629  -22.1084  -18.5533 N   0  0  0  0  0  0  0  0  0  0  0  0
   29.1081  -22.0717  -17.2474 C   0  0  0  0  0  0  0  0  0  0  0  0
   28.3526  -23.2765  -16.8551 C   0  0  0  0  0  0  0  0  0  0  0  0
   27.2031  -23.1624  -15.9253 C   0  0  0  0  0  0  0  0  0  0  0  0
   26.5511  -21.8599  -15.8153 C   0  0  2  0  0  0  0  0  0  0  0  0
   27.4834  -20.7560  -15.6570 N   0  0  0  0  0  0  0  0  0  0  0  0
   25.5802  -21.7603  -14.6842 C   0  0  0  0  0  0  0  0  0  0  0  0
   24.7808  -22.7103  -14.5535 O   0  0  0  0  0  0  0  0  0  0  0  0
   30.5415  -22.6409  -20.8453 N   0  0  0  0  0  0  0  0  0  0  0  0
   26.4891  -21.5041  -10.4731 C   0  0  0  0  0  0  0  0  0  0  0  0
   25.3499  -21.0716   -9.7354 O   0  0  0  0  0  0  0  0  0  0  0  0
   25.1702  -21.5795   -8.6010 C   0  0  0  0  0  0  0  0  0  0  0  0
   24.4133  -20.0535  -10.2994 C   0  0  0  0  0  0  0  0  0  0  0  0
   24.8905  -19.6474  -11.6541 C   0  0  2  0  0  0  0  0  0  0  0  0
   24.5101  -20.6297  -12.7397 N   0  0  0  0  0  0  0  0  0  0  0  0
   25.5076  -20.6982  -13.7813 C   0  0  0  0  0  0  0  0  0  0  0  0
   23.1653  -20.2327  -13.2174 O   0  0  0  0  0  0  0  0  0  0  0  0
   22.9856  -19.1178  -13.7403 C   0  0  0  0  0  0  0  0  0  0  0  0
   20.7816  -22.5036  -16.9076 C   0  0  0  0  0  0  0  0  0  0  0  0
   21.1848  -21.5139  -15.8187 C   0  0  2  0  0  0  0  0  0  0  0  0
   20.2815  -21.6051  -14.6346 C   0  0  0  0  0  0  0  0  0  0  0  0
   18.8802  -21.2541  -15.0732 C   0  0  2  0  0  0  0  0  0  0  0  0
   20.7539  -20.6773  -13.5236 N   0  0  0  0  0  0  0  0  0  0  0  0
   22.0874  -21.1292  -13.0759 C   0  0  0  0  0  0  0  0  0  0  0  0
   19.8409  -20.6522  -12.3548 O   0  0  0  0  0  0  0  0  0  0  0  0
   19.8215  -21.5011  -11.4366 O   0  0  0  0  0  0  0  0  0  0  0  0
  2  3  2  0
  2  1  1  0
  4  2  1  0
  5  4  1  0
  6  5  1  0
  7  6  1  0
  8  7  1  0
  8  9  1  1
 10  8  1  0
 10 11  2  0
 13 12  1  0
 13 14  2  0
 15 16  1  0
 15 13  1  0
 17 16  1  1
 17 18  1  0
 17 19  1  0
 18 10  1  0
 19 20  2  0
 19 26  1  0
 22 21  1  0
 23 22  1  0
 23 25  1  0
 23 24  1  1
 25 27  1  0
 25 26  1  6
 27 28  2  0
 27 29  1  0
M  END
$$$$
