RQI.pdb
     RDKit          3D

 29 28  0  0  1  0  0  0  0  0999 V2000
   31.7069  -25.5945  -16.3304 N   0  0  0  0  0  0  0  0  0  0  0  0
   30.3412  -25.9304  -16.2174 C   0  0  0  0  0  0  0  0  0  0  0  0
   29.9922  -27.0774  -15.7804 N   0  0  0  0  0  0  0  0  0  0  0  0
   29.2946  -24.9983  -16.5888 N   0  0  0  0  0  0  0  0  0  0  0  0
   29.6380  -23.7213  -17.1043 C   0  0  0  0  0  0  0  0  0  0  0  0
   30.0307  -22.7232  -16.0914 C   0  0  0  0  0  0  0  0  0  0  0  0
   29.0219  -22.1889  -15.1450 C   0  0  0  0  0  0  0  0  0  0  0  0
   27.9435  -21.3732  -15.6977 C   0  0  2  0  0  0  0  0  0  0  0  0
   28.4095  -20.3163  -16.5801 N   0  0  0  0  0  0  0  0  0  0  0  0
   27.0879  -20.7161  -14.6642 C   0  0  0  0  0  0  0  0  0  0  0  0
   27.3770  -19.5373  -14.3721 O   0  0  0  0  0  0  0  0  0  0  0  0
   28.9957  -27.3393  -15.7282 N   0  0  0  0  0  0  0  0  0  0  0  0
   21.0750  -20.8391  -13.8420 C   0  0  0  0  0  0  0  0  0  0  0  0
   21.4772  -19.9811  -12.7785 O   0  0  0  0  0  0  0  0  0  0  0  0
   20.5771  -19.3371  -12.1849 C   0  0  0  0  0  0  0  0  0  0  0  0
   22.9156  -19.8604  -12.3938 C   0  0  0  0  0  0  0  0  0  0  0  0
   23.7499  -20.6101  -13.3787 C   0  0  2  0  0  0  0  0  0  0  0  0
   25.2191  -20.6342  -13.0195 N   0  0  0  0  0  0  0  0  0  0  0  0
   26.0085  -21.3187  -14.0159 C   0  0  0  0  0  0  0  0  0  0  0  0
   25.3139  -21.2249  -11.6644 O   0  0  0  0  0  0  0  0  0  0  0  0
   25.0356  -22.4235  -11.4781 C   0  0  0  0  0  0  0  0  0  0  0  0
   28.6676  -19.1076   -7.7911 C   0  0  0  0  0  0  0  0  0  0  0  0
   27.8747  -20.0779   -8.6613 C   0  0  2  0  0  0  0  0  0  0  0  0
   26.4327  -20.1033   -8.2788 C   0  0  0  0  0  0  0  0  0  0  0  0
   26.3235  -20.5951   -6.8556 C   0  0  2  0  0  0  0  0  0  0  0  0
   25.6394  -20.9932   -9.2259 N   0  0  0  0  0  0  0  0  0  0  0  0
   25.7233  -20.4180  -10.5841 C   0  0  0  0  0  0  0  0  0  0  0  0
   24.2104  -21.1211   -8.8489 O   0  0  0  0  0  0  0  0  0  0  0  0
   23.3152  -20.2920   -9.1234 O   0  0  0  0  0  0  0  0  0  0  0  0
  2  3  2  0
  2  1  1  0
  4  2  1  0
  5  4  1  0
  6  5  1  0
  7  6  1  0
  8  7  1  0
  8  9  1  6
 10  8  1  0
 10 11  2  0
 13 12  1  0
 13 14  2  0
 15 16  1  0
 15 13  1  0
 17 16  1  6
 17 18  1  0
 17 19  1  0
 18 10  1  0
 19 20  2  0
 19 26  1  0
 22 21  1  0
 23 22  1  0
 23 25  1  0
 23 24  1  6
 25 27  1  0
 25 26  1  6
 27 28  2  0
 27 29  1  0
M  END
$$$$
