RQI.pdb
     RDKit          3D

 29 28  0  0  1  0  0  0  0  0999 V2000
   28.6275  -17.1673  -20.3620 N   0  0  0  0  0  0  0  0  0  0  0  0
   29.6511  -17.2750  -19.3969 C   0  0  0  0  0  0  0  0  0  0  0  0
   30.7577  -17.8391  -19.6893 N   0  0  0  0  0  0  0  0  0  0  0  0
   29.4879  -16.7564  -18.0528 N   0  0  0  0  0  0  0  0  0  0  0  0
   28.3490  -15.9721  -17.7331 C   0  0  0  0  0  0  0  0  0  0  0  0
   27.0503  -16.6332  -17.9623 C   0  0  0  0  0  0  0  0  0  0  0  0
   26.1878  -16.9954  -16.8117 C   0  0  0  0  0  0  0  0  0  0  0  0
   26.4247  -18.2867  -16.1712 C   0  0  2  0  0  0  0  0  0  0  0  0
   26.0541  -19.4220  -16.9998 N   0  0  0  0  0  0  0  0  0  0  0  0
   25.7100  -18.4599  -14.8707 C   0  0  0  0  0  0  0  0  0  0  0  0
   25.8984  -17.5739  -14.0116 O   0  0  0  0  0  0  0  0  0  0  0  0
   31.4975  -17.9458  -18.9782 N   0  0  0  0  0  0  0  0  0  0  0  0
   20.2317  -21.1699  -13.9453 C   0  0  0  0  0  0  0  0  0  0  0  0
   20.5240  -20.6750  -12.6420 O   0  0  0  0  0  0  0  0  0  0  0  0
   19.6104  -20.7380  -11.7826 C   0  0  0  0  0  0  0  0  0  0  0  0
   21.8677  -20.1059  -12.3221 C   0  0  0  0  0  0  0  0  0  0  0  0
   22.7311  -20.1775  -13.5377 C   0  0  2  0  0  0  0  0  0  0  0  0
   24.1046  -19.5787  -13.3296 N   0  0  0  0  0  0  0  0  0  0  0  0
   24.8625  -19.5239  -14.5572 C   0  0  0  0  0  0  0  0  0  0  0  0
   24.7519  -20.3674  -12.2557 O   0  0  0  0  0  0  0  0  0  0  0  0
   25.2069  -21.5013  -12.4929 C   0  0  0  0  0  0  0  0  0  0  0  0
   27.3164  -17.7718   -8.1623 C   0  0  0  0  0  0  0  0  0  0  0  0
   26.9574  -18.7845   -9.2455 C   0  0  2  0  0  0  0  0  0  0  0  0
   25.9159  -19.7435   -8.7747 C   0  0  0  0  0  0  0  0  0  0  0  0
   26.4853  -20.5439   -7.6282 C   0  0  2  0  0  0  0  0  0  0  0  0
   25.4711  -20.6561   -9.9094 N   0  0  0  0  0  0  0  0  0  0  0  0
   24.8498  -19.8232  -10.9596 C   0  0  0  0  0  0  0  0  0  0  0  0
   24.4972  -21.6897   -9.4811 O   0  0  0  0  0  0  0  0  0  0  0  0
   24.7472  -22.9087   -9.3570 O   0  0  0  0  0  0  0  0  0  0  0  0
  2  3  2  0
  2  1  1  0
  4  2  1  0
  5  4  1  0
  6  5  1  0
  7  6  1  0
  8  7  1  0
  8  9  1  6
 10  8  1  0
 10 11  2  0
 13 12  1  0
 13 14  2  0
 15 16  1  0
 15 13  1  0
 17 16  1  6
 17 18  1  0
 17 19  1  0
 18 10  1  0
 19 20  2  0
 19 26  1  0
 22 21  1  0
 23 22  1  0
 23 25  1  0
 23 24  1  1
 25 27  1  0
 25 26  1  6
 27 28  2  0
 27 29  1  0
M  END
$$$$
