RQI.pdb
     RDKit          3D

 29 28  0  0  1  0  0  0  0  0999 V2000
   27.7797  -25.9058  -16.1952 N   0  0  0  0  0  0  0  0  0  0  0  0
   28.9265  -26.4456  -16.8150 C   0  0  0  0  0  0  0  0  0  0  0  0
   29.4069  -27.5614  -16.4246 N   0  0  0  0  0  0  0  0  0  0  0  0
   29.5956  -25.7626  -17.9050 N   0  0  0  0  0  0  0  0  0  0  0  0
   29.3139  -24.3950  -18.1590 C   0  0  0  0  0  0  0  0  0  0  0  0
   30.0707  -23.4366  -17.3314 C   0  0  0  0  0  0  0  0  0  0  0  0
   29.3718  -22.3000  -16.6845 C   0  0  0  0  0  0  0  0  0  0  0  0
   28.5407  -21.4485  -17.5318 C   0  0  2  0  0  0  0  0  0  0  0  0
   29.2430  -20.2882  -18.0547 N   0  0  0  0  0  0  0  0  0  0  0  0
   27.3130  -20.9316  -16.8555 C   0  0  0  0  0  0  0  0  0  0  0  0
   27.4049  -19.8064  -16.3225 O   0  0  0  0  0  0  0  0  0  0  0  0
   30.2417  -27.9623  -16.8791 N   0  0  0  0  0  0  0  0  0  0  0  0
   20.8078  -21.5423  -14.5646 C   0  0  0  0  0  0  0  0  0  0  0  0
   21.5883  -21.7577  -15.7365 O   0  0  0  0  0  0  0  0  0  0  0  0
   21.5118  -22.8866  -16.2813 C   0  0  0  0  0  0  0  0  0  0  0  0
   22.4594  -20.6758  -16.2862 C   0  0  0  0  0  0  0  0  0  0  0  0
   23.6668  -21.2908  -16.9124 C   0  0  2  0  0  0  0  0  0  0  0  0
   24.9351  -21.0513  -16.1236 N   0  0  0  0  0  0  0  0  0  0  0  0
   26.0941  -21.6078  -16.7806 C   0  0  0  0  0  0  0  0  0  0  0  0
   24.6960  -21.5891  -14.7642 O   0  0  0  0  0  0  0  0  0  0  0  0
   24.7016  -22.8170  -14.5619 C   0  0  0  0  0  0  0  0  0  0  0  0
   25.9842  -20.8366   -9.0157 C   0  0  0  0  0  0  0  0  0  0  0  0
   24.9441  -21.3236  -10.0201 C   0  0  2  0  0  0  0  0  0  0  0  0
   25.2374  -20.8268  -11.3961 C   0  0  0  0  0  0  0  0  0  0  0  0
   25.3331  -19.3208  -11.3512 C   0  0  2  0  0  0  0  0  0  0  0  0
   24.1591  -21.2760  -12.3727 N   0  0  0  0  0  0  0  0  0  0  0  0
   24.4619  -20.6980  -13.6981 C   0  0  0  0  0  0  0  0  0  0  0  0
   22.7942  -20.8576  -11.9697 O   0  0  0  0  0  0  0  0  0  0  0  0
   22.1530  -21.3241  -11.0026 O   0  0  0  0  0  0  0  0  0  0  0  0
  2  3  2  0
  2  1  1  0
  4  2  1  0
  5  4  1  0
  6  5  1  0
  7  6  1  0
  8  7  1  0
  8  9  1  1
 10  8  1  0
 10 11  2  0
 13 12  1  0
 13 14  2  0
 15 16  1  0
 15 13  1  0
 17 16  1  6
 17 18  1  0
 17 19  1  0
 18 10  1  0
 19 20  2  0
 19 26  1  0
 22 21  1  0
 23 22  1  0
 23 25  1  0
 23 24  1  6
 25 27  1  0
 25 26  1  1
 27 28  2  0
 27 29  1  0
M  END
$$$$
