RQI.pdb
     RDKit          3D

 29 28  0  0  1  0  0  0  0  0999 V2000
   30.2270  -20.3398  -17.4632 N   0  0  0  0  0  0  0  0  0  0  0  0
   29.2635  -19.6219  -18.2028 C   0  0  0  0  0  0  0  0  0  0  0  0
   29.3584  -19.5328  -19.4721 N   0  0  0  0  0  0  0  0  0  0  0  0
   28.1429  -18.9654  -17.5581 N   0  0  0  0  0  0  0  0  0  0  0  0
   27.9687  -19.0837  -16.1545 C   0  0  0  0  0  0  0  0  0  0  0  0
   27.8266  -20.4650  -15.6564 C   0  0  0  0  0  0  0  0  0  0  0  0
   27.5340  -20.7116  -14.2238 C   0  0  0  0  0  0  0  0  0  0  0  0
   26.1309  -20.8013  -13.8275 C   0  0  2  0  0  0  0  0  0  0  0  0
   25.2193  -20.1849  -14.7771 N   0  0  0  0  0  0  0  0  0  0  0  0
   25.8351  -20.1891  -12.4972 C   0  0  0  0  0  0  0  0  0  0  0  0
   25.7393  -18.9447  -12.4679 O   0  0  0  0  0  0  0  0  0  0  0  0
   28.6836  -18.9690  -20.0116 N   0  0  0  0  0  0  0  0  0  0  0  0
   21.2800  -20.3934   -9.0481 C   0  0  0  0  0  0  0  0  0  0  0  0
   21.6035  -20.3119  -10.4329 O   0  0  0  0  0  0  0  0  0  0  0  0
   20.6491  -20.3099  -11.2492 C   0  0  0  0  0  0  0  0  0  0  0  0
   23.0253  -20.2324  -10.8842 C   0  0  0  0  0  0  0  0  0  0  0  0
   23.9211  -20.2947   -9.6918 C   0  0  2  0  0  0  0  0  0  0  0  0
   25.3908  -20.2514  -10.0471 N   0  0  0  0  0  0  0  0  0  0  0  0
   25.6618  -20.8998  -11.3083 C   0  0  0  0  0  0  0  0  0  0  0  0
   26.1212  -20.8363   -8.8988 O   0  0  0  0  0  0  0  0  0  0  0  0
   26.2842  -22.0673   -8.8160 C   0  0  0  0  0  0  0  0  0  0  0  0
   29.7727  -19.2167   -4.1801 C   0  0  0  0  0  0  0  0  0  0  0  0
   28.8259  -20.2088   -4.8487 C   0  0  2  0  0  0  0  0  0  0  0  0
   28.2021  -19.6293   -6.0740 C   0  0  0  0  0  0  0  0  0  0  0  0
   27.5066  -18.3440   -5.6952 C   0  0  2  0  0  0  0  0  0  0  0  0
   27.2243  -20.6151   -6.6987 N   0  0  0  0  0  0  0  0  0  0  0  0
   26.6325  -19.9866   -7.8976 C   0  0  0  0  0  0  0  0  0  0  0  0
   26.1304  -21.0154   -5.7802 O   0  0  0  0  0  0  0  0  0  0  0  0
   24.9823  -20.5197   -5.7668 O   0  0  0  0  0  0  0  0  0  0  0  0
  2  3  2  0
  2  1  1  0
  4  2  1  0
  5  4  1  0
  6  5  1  0
  7  6  1  0
  8  7  1  0
  8  9  1  6
 10  8  1  0
 10 11  2  0
 13 12  1  0
 13 14  2  0
 15 16  1  0
 15 13  1  0
 17 16  1  6
 17 18  1  0
 17 19  1  0
 18 10  1  0
 19 20  2  0
 19 26  1  0
 22 21  1  0
 23 22  1  0
 23 25  1  0
 23 24  1  6
 25 27  1  0
 25 26  1  1
 27 28  2  0
 27 29  1  0
M  END
$$$$
