NAA.pdb
     RDKit          3D

 19 18  0  0  1  0  0  0  0  0999 V2000
   20.0858  -14.0757  -16.5135 N   0  0  0  0  0  0  0  0  0  0  0  0
   20.6479  -13.1305  -17.3936 C   0  0  0  0  0  0  0  0  0  0  0  0
   21.5455  -13.5355  -18.1833 O   0  0  0  0  0  0  0  0  0  0  0  0
   20.1791  -11.7181  -17.3674 C   0  0  0  0  0  0  0  0  0  0  0  0
   19.0909  -11.6300  -16.3219 C   0  0  2  0  0  0  0  0  0  0  0  0
   17.8318  -12.0264  -16.9094 N   0  0  0  0  0  0  0  0  0  0  0  0
   18.9452  -10.2571  -15.7851 C   0  0  0  0  0  0  0  0  0  0  0  0
   18.5972   -9.2815  -16.5349 O   0  0  0  0  0  0  0  0  0  0  0  0
   18.7776   -8.7443  -12.3757 C   0  0  0  0  0  0  0  0  0  0  0  0
   18.9749   -8.6072  -13.8753 C   0  0  2  0  0  0  0  0  0  0  0  0
   19.1788   -9.9339  -14.4193 N   0  0  0  0  0  0  0  0  0  0  0  0
   20.1080   -7.7022  -14.1923 C   0  0  0  0  0  0  0  0  0  0  0  0
   21.2629   -8.1848  -14.2906 O   0  0  0  0  0  0  0  0  0  0  0  0
   20.4892   -4.1375  -15.4124 C   0  0  0  0  0  0  0  0  0  0  0  0
   20.9831   -5.4393  -14.8779 C   0  0  2  0  0  0  0  0  0  0  0  0
   19.9562   -6.3092  -14.3922 N   0  0  0  0  0  0  0  0  0  0  0  0
   22.0285   -5.1807  -13.8456 C   0  0  0  0  0  0  0  0  0  0  0  0
   21.6745   -5.2359  -12.6408 O   0  0  0  0  0  0  0  0  0  0  0  0
   23.3299   -4.8918  -14.1429 O   0  0  0  0  0  0  0  0  0  0  0  0
  2  1  1  0
  3  2  2  0
  4  2  1  0
  5  4  1  0
  5  6  1  6
  7  5  1  0
  7  8  2  0
 10  9  1  1
 10 11  1  0
 10 12  1  0
 11  7  1  0
 12 13  2  0
 15 14  1  1
 15 17  1  0
 16 12  1  0
 16 15  1  0
 17 18  2  0
 17 19  1  0
M  END
$$$$
