NAA.pdb
     RDKit          3D

 19 18  0  0  1  0  0  0  0  0999 V2000
   14.0434  -11.2228   -9.2472 N   0  0  0  0  0  0  0  0  0  0  0  0
   15.1109  -11.4399  -10.1402 C   0  0  0  0  0  0  0  0  0  0  0  0
   15.4458  -12.6362  -10.3637 O   0  0  0  0  0  0  0  0  0  0  0  0
   15.7953  -10.2820  -10.7777 C   0  0  0  0  0  0  0  0  0  0  0  0
   15.1756   -9.0281  -10.2041 C   0  0  2  0  0  0  0  0  0  0  0  0
   13.7840   -8.9652  -10.5877 N   0  0  0  0  0  0  0  0  0  0  0  0
   15.8507   -7.8021  -10.6891 C   0  0  0  0  0  0  0  0  0  0  0  0
   15.6547   -7.3565  -11.8715 O   0  0  0  0  0  0  0  0  0  0  0  0
   17.7377   -4.9888   -9.1509 C   0  0  0  0  0  0  0  0  0  0  0  0
   17.4207   -5.8538  -10.3583 C   0  0  2  0  0  0  0  0  0  0  0  0
   16.7500   -7.0472   -9.8855 N   0  0  0  0  0  0  0  0  0  0  0  0
   18.6472   -6.1800  -11.1282 C   0  0  0  0  0  0  0  0  0  0  0  0
   19.3928   -7.1047  -10.7214 O   0  0  0  0  0  0  0  0  0  0  0  0
   20.1029   -5.3323  -14.5125 C   0  0  0  0  0  0  0  0  0  0  0  0
   20.1697   -5.8232  -13.1058 C   0  0  2  0  0  0  0  0  0  0  0  0
   19.0266   -5.4982  -12.3092 N   0  0  0  0  0  0  0  0  0  0  0  0
   21.4379   -5.3480  -12.4803 C   0  0  0  0  0  0  0  0  0  0  0  0
   21.3957   -4.2653  -11.8434 O   0  0  0  0  0  0  0  0  0  0  0  0
   22.6224   -6.0227  -12.5657 O   0  0  0  0  0  0  0  0  0  0  0  0
  2  1  1  0
  3  2  2  0
  4  2  1  0
  5  4  1  0
  5  6  1  6
  7  5  1  0
  7  8  2  0
 10  9  1  1
 10 11  1  0
 10 12  1  0
 11  7  1  0
 12 13  2  0
 15 14  1  6
 15 17  1  0
 16 12  1  0
 16 15  1  0
 17 18  2  0
 17 19  1  0
M  END
$$$$
