NAA.pdb
     RDKit          3D

 19 18  0  0  1  0  0  0  0  0999 V2000
   13.8658  -10.6717   -8.7987 N   0  0  0  0  0  0  0  0  0  0  0  0
   13.1694   -9.6400   -9.4579 C   0  0  0  0  0  0  0  0  0  0  0  0
   11.9101   -9.7192   -9.4904 O   0  0  0  0  0  0  0  0  0  0  0  0
   13.9196   -8.5154  -10.0808 C   0  0  0  0  0  0  0  0  0  0  0  0
   15.3656   -8.6608   -9.6647 C   0  0  2  0  0  0  0  0  0  0  0  0
   15.5245   -8.1741   -8.3136 N   0  0  0  0  0  0  0  0  0  0  0  0
   16.2777   -7.8974  -10.5475 C   0  0  0  0  0  0  0  0  0  0  0  0
   16.3766   -6.6253  -10.4640 O   0  0  0  0  0  0  0  0  0  0  0  0
   18.7854   -8.7581  -13.2178 C   0  0  0  0  0  0  0  0  0  0  0  0
   17.9096   -7.7690  -12.4686 C   0  0  2  0  0  0  0  0  0  0  0  0
   17.0944   -8.5171  -11.5342 N   0  0  0  0  0  0  0  0  0  0  0  0
   17.0807   -6.9646  -13.4010 C   0  0  0  0  0  0  0  0  0  0  0  0
   15.9915   -7.4374  -13.8089 O   0  0  0  0  0  0  0  0  0  0  0  0
   16.8526   -3.4243  -14.6307 C   0  0  0  0  0  0  0  0  0  0  0  0
   16.7062   -4.8992  -14.7974 C   0  0  2  0  0  0  0  0  0  0  0  0
   17.4551   -5.6793  -13.8606 N   0  0  0  0  0  0  0  0  0  0  0  0
   17.0231   -5.2671  -16.2079 C   0  0  0  0  0  0  0  0  0  0  0  0
   18.1484   -5.7811  -16.4303 O   0  0  0  0  0  0  0  0  0  0  0  0
   16.1628   -5.0750  -17.2512 O   0  0  0  0  0  0  0  0  0  0  0  0
  2  1  1  0
  3  2  2  0
  4  2  1  0
  5  4  1  0
  5  6  1  1
  7  5  1  0
  7  8  2  0
 10  9  1  6
 10 11  1  0
 10 12  1  0
 11  7  1  0
 12 13  2  0
 15 14  1  6
 15 17  1  0
 16 12  1  0
 16 15  1  0
 17 18  2  0
 17 19  1  0
M  END
$$$$
