NAA.pdb
     RDKit          3D

 19 18  0  0  1  0  0  0  0  0999 V2000
   12.0414  -12.6241  -11.8026 N   0  0  0  0  0  0  0  0  0  0  0  0
   12.6758  -13.0147  -10.6072 C   0  0  0  0  0  0  0  0  0  0  0  0
   12.3343  -14.1208  -10.1041 O   0  0  0  0  0  0  0  0  0  0  0  0
   13.7039  -12.1343   -9.9881 C   0  0  0  0  0  0  0  0  0  0  0  0
   13.8494  -10.9238  -10.8818 C   0  0  2  0  0  0  0  0  0  0  0  0
   14.4665  -11.3211  -12.1264 N   0  0  0  0  0  0  0  0  0  0  0  0
   14.6854   -9.8708  -10.2601 C   0  0  0  0  0  0  0  0  0  0  0  0
   14.3985   -9.3817   -9.1140 O   0  0  0  0  0  0  0  0  0  0  0  0
   17.8730   -8.0871  -11.1729 C   0  0  0  0  0  0  0  0  0  0  0  0
   16.6432   -8.2784  -10.3026 C   0  0  2  0  0  0  0  0  0  0  0  0
   15.8475   -9.3389  -10.8855 N   0  0  0  0  0  0  0  0  0  0  0  0
   15.8699   -7.0181  -10.1724 C   0  0  0  0  0  0  0  0  0  0  0  0
   15.0969   -6.6799  -11.1021 O   0  0  0  0  0  0  0  0  0  0  0  0
   15.1627   -4.3963   -7.5366 C   0  0  0  0  0  0  0  0  0  0  0  0
   15.3159   -4.8926   -8.9347 C   0  0  2  0  0  0  0  0  0  0  0  0
   15.9571   -6.1669   -9.0449 N   0  0  0  0  0  0  0  0  0  0  0  0
   16.0027   -3.8509   -9.7524 C   0  0  0  0  0  0  0  0  0  0  0  0
   17.1602   -4.1136  -10.1659 O   0  0  0  0  0  0  0  0  0  0  0  0
   15.4423   -2.6458  -10.0674 O   0  0  0  0  0  0  0  0  0  0  0  0
  2  1  1  0
  3  2  2  0
  4  2  1  0
  5  4  1  0
  5  6  1  6
  7  5  1  0
  7  8  2  0
 10  9  1  6
 10 11  1  0
 10 12  1  0
 11  7  1  0
 12 13  2  0
 15 14  1  1
 15 17  1  0
 16 12  1  0
 16 15  1  0
 17 18  2  0
 17 19  1  0
M  END
$$$$
