NAA.pdb
     RDKit          3D

 19 18  0  0  1  0  0  0  0  0999 V2000
   20.0407   -9.7943  -18.2778 N   0  0  0  0  0  0  0  0  0  0  0  0
   18.7413   -9.5302  -17.8024 C   0  0  0  0  0  0  0  0  0  0  0  0
   17.8126   -9.4722  -18.6552 O   0  0  0  0  0  0  0  0  0  0  0  0
   18.5075   -9.3324  -16.3459 C   0  0  0  0  0  0  0  0  0  0  0  0
   19.8537   -9.4182  -15.6635 C   0  0  2  0  0  0  0  0  0  0  0  0
   20.2186  -10.8068  -15.5012 N   0  0  0  0  0  0  0  0  0  0  0  0
   19.8420   -8.7781  -14.3278 C   0  0  0  0  0  0  0  0  0  0  0  0
   19.1854   -9.2816  -13.3529 O   0  0  0  0  0  0  0  0  0  0  0  0
   21.5861   -5.8405  -12.7524 C   0  0  0  0  0  0  0  0  0  0  0  0
   20.5589   -6.9590  -12.7317 C   0  0  2  0  0  0  0  0  0  0  0  0
   20.5496   -7.5774  -14.0413 N   0  0  0  0  0  0  0  0  0  0  0  0
   19.2157   -6.4543  -12.3517 C   0  0  0  0  0  0  0  0  0  0  0  0
   18.5016   -5.9067  -13.2272 O   0  0  0  0  0  0  0  0  0  0  0  0
   16.2916   -7.0195  -10.7645 C   0  0  0  0  0  0  0  0  0  0  0  0
   17.4166   -6.0491  -10.6326 C   0  0  2  0  0  0  0  0  0  0  0  0
   18.6897   -6.5578  -11.0417 N   0  0  0  0  0  0  0  0  0  0  0  0
   17.4492   -5.5229   -9.2371 C   0  0  0  0  0  0  0  0  0  0  0  0
   18.4837   -5.7492   -8.5601 O   0  0  0  0  0  0  0  0  0  0  0  0
   16.4253   -4.8187   -8.6703 O   0  0  0  0  0  0  0  0  0  0  0  0
  2  1  1  0
  3  2  2  0
  4  2  1  0
  5  4  1  0
  5  6  1  1
  7  5  1  0
  7  8  2  0
 10  9  1  6
 10 11  1  0
 10 12  1  0
 11  7  1  0
 12 13  2  0
 15 14  1  1
 15 17  1  0
 16 12  1  0
 16 15  1  0
 17 18  2  0
 17 19  1  0
M  END
$$$$
