NAA.pdb
     RDKit          3D

 19 18  0  0  1  0  0  0  0  0999 V2000
   18.1909  -13.0919  -16.3373 N   0  0  0  0  0  0  0  0  0  0  0  0
   19.4948  -12.7131  -15.9625 C   0  0  0  0  0  0  0  0  0  0  0  0
   20.2367  -13.6041  -15.4638 O   0  0  0  0  0  0  0  0  0  0  0  0
   19.9478  -11.3091  -16.1603 C   0  0  0  0  0  0  0  0  0  0  0  0
   18.7726  -10.5364  -16.7145 C   0  0  2  0  0  0  0  0  0  0  0  0
   18.5720  -10.9008  -18.0982 N   0  0  0  0  0  0  0  0  0  0  0  0
   18.9858   -9.0724  -16.6423 C   0  0  0  0  0  0  0  0  0  0  0  0
   19.7432   -8.4670  -17.4759 O   0  0  0  0  0  0  0  0  0  0  0  0
   17.4933   -6.2188  -14.7340 C   0  0  0  0  0  0  0  0  0  0  0  0
   18.6245   -6.8295  -15.5427 C   0  0  2  0  0  0  0  0  0  0  0  0
   18.3722   -8.2511  -15.6556 N   0  0  0  0  0  0  0  0  0  0  0  0
   19.9447   -6.5522  -14.9232 C   0  0  0  0  0  0  0  0  0  0  0  0
   20.3521   -7.2988  -13.9997 O   0  0  0  0  0  0  0  0  0  0  0  0
   22.8729   -4.2172  -15.5676 C   0  0  0  0  0  0  0  0  0  0  0  0
   22.0926   -5.2370  -14.8090 C   0  0  2  0  0  0  0  0  0  0  0  0
   20.7789   -5.4801  -15.3209 N   0  0  0  0  0  0  0  0  0  0  0  0
   22.0672   -4.8611  -13.3656 C   0  0  0  0  0  0  0  0  0  0  0  0
   21.0607   -4.2323  -12.9516 O   0  0  0  0  0  0  0  0  0  0  0  0
   23.0691   -5.1630  -12.4878 O   0  0  0  0  0  0  0  0  0  0  0  0
  2  1  1  0
  3  2  2  0
  4  2  1  0
  5  4  1  0
  5  6  1  6
  7  5  1  0
  7  8  2  0
 10  9  1  1
 10 11  1  0
 10 12  1  0
 11  7  1  0
 12 13  2  0
 15 14  1  6
 15 17  1  0
 16 12  1  0
 16 15  1  0
 17 18  2  0
 17 19  1  0
M  END
$$$$
