NAA.pdb
     RDKit          3D

 19 18  0  0  1  0  0  0  0  0999 V2000
   17.7298  -11.6013  -14.3425 N   0  0  0  0  0  0  0  0  0  0  0  0
   17.0206  -10.3989  -14.5304 C   0  0  0  0  0  0  0  0  0  0  0  0
   17.1621   -9.8092  -15.6374 O   0  0  0  0  0  0  0  0  0  0  0  0
   16.1475   -9.8724  -13.4459 C   0  0  0  0  0  0  0  0  0  0  0  0
   16.8018   -8.6157  -12.9188 C   0  0  2  0  0  0  0  0  0  0  0  0
   18.0245   -8.9660  -12.2334 N   0  0  0  0  0  0  0  0  0  0  0  0
   15.9260   -7.8883  -11.9712 C   0  0  0  0  0  0  0  0  0  0  0  0
   14.7559   -7.4987  -12.3094 O   0  0  0  0  0  0  0  0  0  0  0  0
   16.0481   -7.0438   -8.3173 C   0  0  0  0  0  0  0  0  0  0  0  0
   15.4678   -6.8660   -9.7095 C   0  0  2  0  0  0  0  0  0  0  0  0
   16.3198   -7.5774  -10.6397 N   0  0  0  0  0  0  0  0  0  0  0  0
   15.3425   -5.4303  -10.0651 C   0  0  0  0  0  0  0  0  0  0  0  0
   16.3427   -4.8289  -10.5280 O   0  0  0  0  0  0  0  0  0  0  0  0
   12.5368   -2.9261  -10.4864 C   0  0  0  0  0  0  0  0  0  0  0  0
   13.9614   -3.3373  -10.3261 C   0  0  2  0  0  0  0  0  0  0  0  0
   14.1439   -4.6938   -9.9093 N   0  0  0  0  0  0  0  0  0  0  0  0
   14.6494   -2.3773   -9.4149 C   0  0  0  0  0  0  0  0  0  0  0  0
   14.9083   -2.7729   -8.2504 O   0  0  0  0  0  0  0  0  0  0  0  0
   15.0051   -1.1102   -9.7804 O   0  0  0  0  0  0  0  0  0  0  0  0
  2  1  1  0
  3  2  2  0
  4  2  1  0
  5  4  1  0
  5  6  1  1
  7  5  1  0
  7  8  2  0
 10  9  1  1
 10 11  1  0
 10 12  1  0
 11  7  1  0
 12 13  2  0
 15 14  1  1
 15 17  1  0
 16 12  1  0
 16 15  1  0
 17 18  2  0
 17 19  1  0
M  END
$$$$
