VRA.pdb
     RDKit          3D

 24 23  0  0  1  0  0  0  0  0999 V2000
   24.0855  -19.4261   -9.5788 C   0  0  0  0  0  0  0  0  0  0  0  0
   24.8071  -20.7982   -9.6884 C   0  0  2  0  0  0  0  0  0  0  0  0
   26.1365  -20.5905   -8.9900 C   0  0  0  0  0  0  0  0  0  0  0  0
   24.9081  -21.0793  -11.1406 C   0  0  2  0  0  0  0  0  0  0  0  0
   25.1346  -22.5233  -11.2994 N   0  0  0  0  0  0  0  0  0  0  0  0
   25.9375  -20.3589  -11.9030 C   0  0  0  0  0  0  0  0  0  0  0  0
   25.8246  -19.0873  -12.0394 O   0  0  0  0  0  0  0  0  0  0  0  0
   33.9765  -22.3369  -11.2352 N   0  0  0  0  0  0  0  0  0  0  0  0
   33.4813  -23.0861  -12.3158 C   0  0  0  0  0  0  0  0  0  0  0  0
   34.2509  -23.9858  -12.8776 N   0  0  0  0  0  0  0  0  0  0  0  0
   32.1606  -22.8786  -12.8033 N   0  0  0  0  0  0  0  0  0  0  0  0
   31.4355  -21.7392  -12.2704 C   0  0  0  0  0  0  0  0  0  0  0  0
   30.1038  -21.5505  -12.9510 C   0  0  0  0  0  0  0  0  0  0  0  0
   29.4195  -20.2767  -12.6241 C   0  0  0  0  0  0  0  0  0  0  0  0
   28.0594  -20.1092  -13.2412 C   0  0  2  0  0  0  0  0  0  0  0  0
   27.0679  -20.9170  -12.5172 N   0  0  0  0  0  0  0  0  0  0  0  0
   27.9996  -20.3473  -14.6914 C   0  0  0  0  0  0  0  0  0  0  0  0
   27.8339  -21.5090  -15.1495 O   0  0  0  0  0  0  0  0  0  0  0  0
   33.9532  -24.5163  -13.7098 C   0  0  0  0  0  0  0  0  0  0  0  0
   28.9258  -20.7495  -17.4705 C   0  0  2  0  0  0  0  0  0  0  0  0
   28.0207  -19.6065  -17.0772 N   0  0  0  0  0  0  0  0  0  0  0  0
   28.1207  -19.3182  -15.6652 C   0  0  0  0  0  0  0  0  0  0  0  0
   26.6245  -19.9151  -17.4737 O   0  0  0  0  0  0  0  0  0  0  0  0
   25.7384  -20.0187  -16.5883 O   0  0  0  0  0  0  0  0  0  0  0  0
  2  1  1  6
  2  3  1  0
  4  2  1  0
  4  6  1  0
  4  5  1  1
  6  7  2  0
  9  8  1  0
  9 11  1  0
 10  9  2  0
 12 11  1  0
 13 12  1  0
 14 13  1  0
 15 14  1  1
 16  6  1  0
 16 15  1  0
 17 18  2  0
 17 15  1  0
 20 19  1  6
 20 21  1  0
 21 17  1  0
 22 24  1  0
 22 20  1  0
 23 22  2  0
M  END
$$$$
