VRA.pdb
     RDKit          3D

 24 23  0  0  1  0  0  0  0  0999 V2000
   30.4265  -23.3544   -9.6749 C   0  0  0  0  0  0  0  0  0  0  0  0
   31.5958  -22.4083  -10.0659 C   0  0  2  0  0  0  0  0  0  0  0  0
   31.5149  -21.2660   -9.0725 C   0  0  0  0  0  0  0  0  0  0  0  0
   31.3412  -22.0228  -11.4746 C   0  0  2  0  0  0  0  0  0  0  0  0
   32.4823  -21.2138  -11.9275 N   0  0  0  0  0  0  0  0  0  0  0  0
   30.1027  -21.2868  -11.7653 C   0  0  0  0  0  0  0  0  0  0  0  0
   30.0761  -20.0205  -11.5553 O   0  0  0  0  0  0  0  0  0  0  0  0
   25.4767  -17.7366  -16.2707 N   0  0  0  0  0  0  0  0  0  0  0  0
   24.2435  -18.3757  -16.0588 C   0  0  0  0  0  0  0  0  0  0  0  0
   23.1356  -17.6865  -16.1811 N   0  0  0  0  0  0  0  0  0  0  0  0
   24.1861  -19.7552  -15.7146 N   0  0  0  0  0  0  0  0  0  0  0  0
   25.4535  -20.4394  -15.5312 C   0  0  0  0  0  0  0  0  0  0  0  0
   25.9040  -20.4149  -14.0929 C   0  0  0  0  0  0  0  0  0  0  0  0
   27.2189  -21.0542  -13.8478 C   0  0  0  0  0  0  0  0  0  0  0  0
   27.6814  -21.0288  -12.4181 C   0  0  2  0  0  0  0  0  0  0  0  0
   28.9075  -21.8243  -12.2645 N   0  0  0  0  0  0  0  0  0  0  0  0
   26.6621  -21.4049  -11.4268 C   0  0  0  0  0  0  0  0  0  0  0  0
   26.2943  -22.6030  -11.3003 O   0  0  0  0  0  0  0  0  0  0  0  0
   22.2084  -18.1370  -16.1722 C   0  0  0  0  0  0  0  0  0  0  0  0
   25.2015  -20.3154   -8.2661 C   0  0  1  0  0  0  0  0  0  0  0  0
   24.9876  -20.8930   -9.6448 N   0  0  0  0  0  0  0  0  0  0  0  0
   26.0273  -20.4761  -10.5570 C   0  0  0  0  0  0  0  0  0  0  0  0
   23.6415  -20.5150  -10.1420 O   0  0  0  0  0  0  0  0  0  0  0  0
   23.5408  -19.7606  -11.1423 O   0  0  0  0  0  0  0  0  0  0  0  0
  2  1  1  1
  2  3  1  0
  4  2  1  0
  4  6  1  0
  4  5  1  1
  6  7  2  0
  9  8  1  0
  9 11  1  0
 10  9  2  0
 12 11  1  0
 13 12  1  0
 14 13  1  0
 15 14  1  6
 16  6  1  0
 16 15  1  0
 17 18  2  0
 17 15  1  0
 20 19  1  1
 20 21  1  0
 21 17  1  0
 22 24  1  0
 22 20  1  0
 23 22  2  0
M  END
$$$$
