VRA.pdb
     RDKit          3D

 24 23  0  0  1  0  0  0  0  0999 V2000
   24.5719  -11.7158  -15.8374 C   0  0  0  0  0  0  0  0  0  0  0  0
   24.2347  -13.1317  -16.3823 C   0  0  2  0  0  0  0  0  0  0  0  0
   22.9437  -13.5143  -15.6858 C   0  0  0  0  0  0  0  0  0  0  0  0
   25.4003  -13.9794  -16.0347 C   0  0  2  0  0  0  0  0  0  0  0  0
   26.5458  -13.5066  -16.8259 N   0  0  0  0  0  0  0  0  0  0  0  0
   25.2676  -15.4304  -16.2267 C   0  0  0  0  0  0  0  0  0  0  0  0
   25.2322  -15.8916  -17.4243 O   0  0  0  0  0  0  0  0  0  0  0  0
   26.1347  -20.8913  -10.6618 N   0  0  0  0  0  0  0  0  0  0  0  0
   26.3732  -21.4584  -11.9250 C   0  0  0  0  0  0  0  0  0  0  0  0
   25.9161  -22.6588  -12.1849 N   0  0  0  0  0  0  0  0  0  0  0  0
   27.1019  -20.7466  -12.9186 N   0  0  0  0  0  0  0  0  0  0  0  0
   27.2288  -19.3116  -12.7378 C   0  0  0  0  0  0  0  0  0  0  0  0
   26.0887  -18.5603  -13.3764 C   0  0  0  0  0  0  0  0  0  0  0  0
   26.0400  -18.6541  -14.8551 C   0  0  0  0  0  0  0  0  0  0  0  0
   24.9681  -17.8286  -15.5094 C   0  0  2  0  0  0  0  0  0  0  0  0
   25.1747  -16.4026  -15.2203 N   0  0  0  0  0  0  0  0  0  0  0  0
   23.5901  -18.2488  -15.2130 C   0  0  0  0  0  0  0  0  0  0  0  0
   22.9561  -17.7503  -14.2454 O   0  0  0  0  0  0  0  0  0  0  0  0
   26.0379  -23.1016  -13.1078 C   0  0  0  0  0  0  0  0  0  0  0  0
   21.5932  -20.0265  -14.0605 C   0  0  2  0  0  0  0  0  0  0  0  0
   21.5959  -19.7181  -15.5387 N   0  0  0  0  0  0  0  0  0  0  0  0
   22.8823  -19.2224  -15.9703 C   0  0  0  0  0  0  0  0  0  0  0  0
   20.5083  -18.7583  -15.8513 O   0  0  0  0  0  0  0  0  0  0  0  0
   20.7990  -17.6006  -16.2449 O   0  0  0  0  0  0  0  0  0  0  0  0
  2  1  1  1
  2  3  1  0
  4  2  1  0
  4  6  1  0
  4  5  1  6
  6  7  2  0
  9  8  1  0
  9 11  1  0
 10  9  2  0
 12 11  1  0
 13 12  1  0
 14 13  1  0
 15 14  1  1
 16  6  1  0
 16 15  1  0
 17 18  2  0
 17 15  1  0
 20 19  1  6
 20 21  1  0
 21 17  1  0
 22 24  1  0
 22 20  1  0
 23 22  2  0
M  END
$$$$
