VRA.pdb
     RDKit          3D

 24 23  0  0  1  0  0  0  0  0999 V2000
   25.4176  -20.4864   -6.3209 C   0  0  0  0  0  0  0  0  0  0  0  0
   25.0157  -20.1692   -7.7883 C   0  0  2  0  0  0  0  0  0  0  0  0
   24.2126  -21.3744   -8.2362 C   0  0  0  0  0  0  0  0  0  0  0  0
   26.2921  -19.9707   -8.5159 C   0  0  2  0  0  0  0  0  0  0  0  0
   26.9296  -18.7618   -7.9741 N   0  0  0  0  0  0  0  0  0  0  0  0
   26.2293  -19.8493   -9.9792 C   0  0  0  0  0  0  0  0  0  0  0  0
   25.7343  -18.7790  -10.4868 O   0  0  0  0  0  0  0  0  0  0  0  0
   31.5941  -20.9929  -11.0759 N   0  0  0  0  0  0  0  0  0  0  0  0
   31.8321  -22.0293  -11.9943 C   0  0  0  0  0  0  0  0  0  0  0  0
   32.7965  -22.8848  -11.7588 N   0  0  0  0  0  0  0  0  0  0  0  0
   31.0414  -22.1581  -13.1703 N   0  0  0  0  0  0  0  0  0  0  0  0
   29.9922  -21.1740  -13.3670 C   0  0  0  0  0  0  0  0  0  0  0  0
   28.8094  -21.4238  -12.4665 C   0  0  0  0  0  0  0  0  0  0  0  0
   27.4927  -21.3506  -13.1436 C   0  0  0  0  0  0  0  0  0  0  0  0
   26.4115  -20.6628  -12.3584 C   0  0  2  0  0  0  0  0  0  0  0  0
   26.6640  -20.7971  -10.9169 N   0  0  0  0  0  0  0  0  0  0  0  0
   25.0390  -21.0590  -12.7087 C   0  0  0  0  0  0  0  0  0  0  0  0
   24.2895  -21.6123  -11.8609 O   0  0  0  0  0  0  0  0  0  0  0  0
   33.0044  -23.6638  -12.4012 C   0  0  0  0  0  0  0  0  0  0  0  0
   22.3454  -20.2804  -12.9265 C   0  0  2  0  0  0  0  0  0  0  0  0
   23.0313  -20.7910  -14.1711 N   0  0  0  0  0  0  0  0  0  0  0  0
   24.4634  -20.8568  -13.9932 C   0  0  0  0  0  0  0  0  0  0  0  0
   22.6638  -19.9397  -15.3296 O   0  0  0  0  0  0  0  0  0  0  0  0
   21.4571  -19.8420  -15.6675 O   0  0  0  0  0  0  0  0  0  0  0  0
  2  1  1  1
  2  3  1  0
  4  2  1  0
  4  6  1  0
  4  5  1  1
  6  7  2  0
  9  8  1  0
  9 11  1  0
 10  9  2  0
 12 11  1  0
 13 12  1  0
 14 13  1  0
 15 14  1  6
 16  6  1  0
 16 15  1  0
 17 18  2  0
 17 15  1  0
 20 19  1  1
 20 21  1  0
 21 17  1  0
 22 24  1  0
 22 20  1  0
 23 22  2  0
M  END
$$$$
