VRA.pdb
     RDKit          3D

 24 23  0  0  1  0  0  0  0  0999 V2000
   26.7702  -33.6348  -15.5246 C   0  0  0  0  0  0  0  0  0  0  0  0
   27.1091  -33.5748  -14.0091 C   0  0  2  0  0  0  0  0  0  0  0  0
   28.0720  -34.7239  -13.7845 C   0  0  0  0  0  0  0  0  0  0  0  0
   25.8109  -33.7086  -13.3059 C   0  0  2  0  0  0  0  0  0  0  0  0
   25.1254  -32.4104  -13.3864 N   0  0  0  0  0  0  0  0  0  0  0  0
   25.8396  -34.1347  -11.8996 C   0  0  0  0  0  0  0  0  0  0  0  0
   26.2537  -35.3182  -11.6239 O   0  0  0  0  0  0  0  0  0  0  0  0
   27.8820  -33.7209   -3.7058 N   0  0  0  0  0  0  0  0  0  0  0  0
   28.7539  -34.2550   -4.6694 C   0  0  0  0  0  0  0  0  0  0  0  0
   29.6507  -35.1376   -4.3028 N   0  0  0  0  0  0  0  0  0  0  0  0
   28.6736  -33.8494   -6.0310 N   0  0  0  0  0  0  0  0  0  0  0  0
   27.6338  -32.8950   -6.3714 C   0  0  0  0  0  0  0  0  0  0  0  0
   26.5197  -33.5333   -7.1611 C   0  0  0  0  0  0  0  0  0  0  0  0
   26.5780  -33.2844   -8.6213 C   0  0  0  0  0  0  0  0  0  0  0  0
   25.4650  -33.9061   -9.4171 C   0  0  2  0  0  0  0  0  0  0  0  0
   25.4571  -33.3725  -10.7863 N   0  0  0  0  0  0  0  0  0  0  0  0
   24.1345  -33.8260   -8.7953 C   0  0  0  0  0  0  0  0  0  0  0  0
   23.4610  -32.7627   -8.8441 O   0  0  0  0  0  0  0  0  0  0  0  0
   30.2554  -35.6178   -4.9857 C   0  0  0  0  0  0  0  0  0  0  0  0
   21.6878  -36.0972   -7.0172 C   0  0  1  0  0  0  0  0  0  0  0  0
   22.2118  -34.7690   -7.5086 N   0  0  0  0  0  0  0  0  0  0  0  0
   23.5184  -34.9083   -8.1088 C   0  0  0  0  0  0  0  0  0  0  0  0
   22.2258  -33.7926   -6.3912 O   0  0  0  0  0  0  0  0  0  0  0  0
   23.2752  -33.6397   -5.7164 O   0  0  0  0  0  0  0  0  0  0  0  0
  2  1  1  6
  2  3  1  0
  4  2  1  0
  4  6  1  0
  4  5  1  1
  6  7  2  0
  9  8  1  0
  9 11  1  0
 10  9  2  0
 12 11  1  0
 13 12  1  0
 14 13  1  0
 15 14  1  1
 16  6  1  0
 16 15  1  0
 17 18  2  0
 17 15  1  0
 20 19  1  6
 20 21  1  0
 21 17  1  0
 22 24  1  0
 22 20  1  0
 23 22  2  0
M  END
$$$$
