VRA.pdb
     RDKit          3D

 24 23  0  0  1  0  0  0  0  0999 V2000
   25.5549  -16.8269  -18.5727 C   0  0  0  0  0  0  0  0  0  0  0  0
   26.7004  -16.3590  -17.6323 C   0  0  2  0  0  0  0  0  0  0  0  0
   27.6597  -15.6113  -18.5373 C   0  0  0  0  0  0  0  0  0  0  0  0
   27.2530  -17.5971  -17.0326 C   0  0  2  0  0  0  0  0  0  0  0  0
   27.8366  -18.3961  -18.1201 N   0  0  0  0  0  0  0  0  0  0  0  0
   26.3339  -18.4513  -16.2673 C   0  0  0  0  0  0  0  0  0  0  0  0
   25.8639  -19.5062  -16.8281 O   0  0  0  0  0  0  0  0  0  0  0  0
   25.2349  -20.7965   -7.8100 N   0  0  0  0  0  0  0  0  0  0  0  0
   24.0442  -21.2092   -8.4313 C   0  0  0  0  0  0  0  0  0  0  0  0
   23.0613  -21.6646   -7.6937 N   0  0  0  0  0  0  0  0  0  0  0  0
   23.8960  -21.1383   -9.8447 N   0  0  0  0  0  0  0  0  0  0  0  0
   24.6788  -20.1305  -10.5372 C   0  0  0  0  0  0  0  0  0  0  0  0
   24.4055  -20.1250  -12.0196 C   0  0  0  0  0  0  0  0  0  0  0  0
   25.2245  -19.1620  -12.7939 C   0  0  0  0  0  0  0  0  0  0  0  0
   24.9570  -19.1450  -14.2727 C   0  0  2  0  0  0  0  0  0  0  0  0
   25.8980  -18.2426  -14.9508 N   0  0  0  0  0  0  0  0  0  0  0  0
   23.5642  -18.8613  -14.6507 C   0  0  0  0  0  0  0  0  0  0  0  0
   23.1238  -17.6812  -14.6580 O   0  0  0  0  0  0  0  0  0  0  0  0
   22.1625  -21.9598   -8.1032 C   0  0  0  0  0  0  0  0  0  0  0  0
   20.5304  -18.9903  -14.1395 C   0  0  2  0  0  0  0  0  0  0  0  0
   21.2600  -19.5317  -15.3456 N   0  0  0  0  0  0  0  0  0  0  0  0
   22.6291  -19.8646  -15.0267 C   0  0  0  0  0  0  0  0  0  0  0  0
   21.1813  -18.5534  -16.4585 O   0  0  0  0  0  0  0  0  0  0  0  0
   21.5659  -17.3714  -16.2716 O   0  0  0  0  0  0  0  0  0  0  0  0
  2  1  1  6
  2  3  1  0
  4  2  1  0
  4  6  1  0
  4  5  1  6
  6  7  2  0
  9  8  1  0
  9 11  1  0
 10  9  2  0
 12 11  1  0
 13 12  1  0
 14 13  1  0
 15 14  1  1
 16  6  1  0
 16 15  1  0
 17 18  2  0
 17 15  1  0
 20 19  1  1
 20 21  1  0
 21 17  1  0
 22 24  1  0
 22 20  1  0
 23 22  2  0
M  END
$$$$
