VRA.pdb
     RDKit          3D

 24 23  0  0  1  0  0  0  0  0999 V2000
   24.7154  -20.8040   -8.2480 C   0  0  0  0  0  0  0  0  0  0  0  0
   24.4379  -20.0980   -9.6044 C   0  0  2  0  0  0  0  0  0  0  0  0
   22.9884  -20.4160   -9.9141 C   0  0  0  0  0  0  0  0  0  0  0  0
   25.4154  -20.6732  -10.5592 C   0  0  2  0  0  0  0  0  0  0  0  0
   26.7610  -20.4295  -10.0191 N   0  0  0  0  0  0  0  0  0  0  0  0
   25.3752  -20.1912  -11.9470 C   0  0  0  0  0  0  0  0  0  0  0  0
   25.7230  -18.9790  -12.1874 O   0  0  0  0  0  0  0  0  0  0  0  0
   28.8049  -23.1008  -18.3424 N   0  0  0  0  0  0  0  0  0  0  0  0
   28.4263  -23.7561  -17.1586 C   0  0  0  0  0  0  0  0  0  0  0  0
   28.3859  -25.0658  -17.1363 N   0  0  0  0  0  0  0  0  0  0  0  0
   28.0882  -23.0162  -15.9911 N   0  0  0  0  0  0  0  0  0  0  0  0
   28.2543  -21.5754  -16.0558 C   0  0  0  0  0  0  0  0  0  0  0  0
   27.3329  -20.8585  -15.1022 C   0  0  0  0  0  0  0  0  0  0  0  0
   25.8899  -21.1027  -15.3385 C   0  0  0  0  0  0  0  0  0  0  0  0
   24.9605  -20.3496  -14.4286 C   0  0  2  0  0  0  0  0  0  0  0  0
   24.9908  -20.9268  -13.0774 N   0  0  0  0  0  0  0  0  0  0  0  0
   23.5841  -20.2038  -14.9262 C   0  0  0  0  0  0  0  0  0  0  0  0
   22.6322  -20.8285  -14.3873 O   0  0  0  0  0  0  0  0  0  0  0  0
   28.1073  -25.5893  -16.2931 C   0  0  0  0  0  0  0  0  0  0  0  0
   21.2459  -18.2722  -15.1135 C   0  0  2  0  0  0  0  0  0  0  0  0
   21.8481  -19.0209  -16.2784 N   0  0  0  0  0  0  0  0  0  0  0  0
   23.2258  -19.3720  -16.0226 C   0  0  0  0  0  0  0  0  0  0  0  0
   21.7114  -18.2138  -17.5160 O   0  0  0  0  0  0  0  0  0  0  0  0
   22.7430  -17.7850  -18.0921 O   0  0  0  0  0  0  0  0  0  0  0  0
  2  1  1  1
  2  3  1  0
  4  2  1  0
  4  6  1  0
  4  5  1  1
  6  7  2  0
  9  8  1  0
  9 11  1  0
 10  9  2  0
 12 11  1  0
 13 12  1  0
 14 13  1  0
 15 14  1  6
 16  6  1  0
 16 15  1  0
 17 18  2  0
 17 15  1  0
 20 19  1  1
 20 21  1  0
 21 17  1  0
 22 24  1  0
 22 20  1  0
 23 22  2  0
M  END
$$$$
