MVS.pdb
     RDKit          3D

 22 21  0  0  1  0  0  0  0  0999 V2000
   28.8187  -20.4433   -4.4624 C   0  0  0  0  0  0  0  0  0  0  0  0
   29.1462  -19.5086   -5.9816 S   0  0  0  0  0  0  0  0  0  0  0  0
   27.5166  -19.1866   -6.7604 C   0  0  0  0  0  0  0  0  0  0  0  0
   27.1214  -20.4487   -7.4595 C   0  0  0  0  0  0  0  0  0  0  0  0
   25.7677  -20.2769   -8.1049 C   0  0  2  0  0  0  0  0  0  0  0  0
   24.7808  -20.9520   -7.2409 N   0  0  0  0  0  0  0  0  0  0  0  0
   25.7674  -20.9680   -9.4121 C   0  0  0  0  0  0  0  0  0  0  0  0
   25.9488  -22.1969   -9.5715 O   0  0  0  0  0  0  0  0  0  0  0  0
   23.2457  -21.4844  -11.3565 C   0  0  0  0  0  0  0  0  0  0  0  0
   24.1026  -20.7460  -12.3914 C   0  0  1  0  0  0  0  0  0  0  0  0
   23.6116  -19.3389  -12.4518 C   0  0  0  0  0  0  0  0  0  0  0  0
   25.5348  -20.8345  -11.8662 C   0  0  2  0  0  0  0  0  0  0  0  0
   25.5478  -20.2082  -10.5891 N   0  0  0  0  0  0  0  0  0  0  0  0
   26.5018  -20.2725  -12.8254 C   0  0  0  0  0  0  0  0  0  0  0  0
   26.8699  -19.0744  -12.7838 O   0  0  0  0  0  0  0  0  0  0  0  0
   28.2198  -22.7333  -15.5121 O   0  0  0  0  0  0  0  0  0  0  0  0
   28.9623  -21.5604  -15.2815 C   0  0  0  0  0  0  0  0  0  0  0  0
   27.9589  -20.5264  -14.8053 C   0  0  2  0  0  0  0  0  0  0  0  0
   27.0518  -21.0957  -13.8435 N   0  0  0  0  0  0  0  0  0  0  0  0
   27.2309  -20.0260  -15.9996 C   0  0  0  0  0  0  0  0  0  0  0  0
   26.0025  -20.1921  -16.1407 O   0  0  0  0  0  0  0  0  0  0  0  0
   27.9407  -19.3546  -16.9843 O   0  0  0  0  0  0  0  0  0  0  0  0
  1  2  1  0
  2  3  1  0
  4  3  1  0
  5  6  1  1
  5  4  1  0
  7  5  1  0
  8  7  2  0
 10  9  1  1
 10 12  1  0
 11 10  1  0
 12 13  1  1
 12 14  1  0
 13  7  1  0
 14 19  1  0
 15 14  2  0
 16 17  1  0
 18 17  1  6
 18 20  1  0
 19 18  1  0
 20 21  2  0
 20 22  1  0
M  END
$$$$
