MVS.pdb
     RDKit          3D

 22 21  0  0  1  0  0  0  0  0999 V2000
   26.8596  -22.6102  -17.7799 C   0  0  0  0  0  0  0  0  0  0  0  0
   28.4556  -22.9680  -16.9964 S   0  0  0  0  0  0  0  0  0  0  0  0
   28.8872  -21.4959  -15.9902 C   0  0  0  0  0  0  0  0  0  0  0  0
   27.6069  -20.7667  -15.7307 C   0  0  0  0  0  0  0  0  0  0  0  0
   27.8828  -19.5055  -14.9485 C   0  0  2  0  0  0  0  0  0  0  0  0
   28.3024  -19.9122  -13.5940 N   0  0  0  0  0  0  0  0  0  0  0  0
   26.6265  -18.7368  -14.8177 C   0  0  0  0  0  0  0  0  0  0  0  0
   25.7466  -18.9462  -13.9514 O   0  0  0  0  0  0  0  0  0  0  0  0
   24.3410  -14.6093  -15.8632 C   0  0  0  0  0  0  0  0  0  0  0  0
   25.6312  -15.4346  -15.9329 C   0  0  1  0  0  0  0  0  0  0  0  0
   26.5765  -14.8665  -14.9286 C   0  0  0  0  0  0  0  0  0  0  0  0
   25.2149  -16.8638  -15.5883 C   0  0  2  0  0  0  0  0  0  0  0  0
   26.3729  -17.6782  -15.7266 N   0  0  0  0  0  0  0  0  0  0  0  0
   24.0648  -17.3054  -16.3966 C   0  0  0  0  0  0  0  0  0  0  0  0
   24.1215  -17.4079  -17.6452 O   0  0  0  0  0  0  0  0  0  0  0  0
   20.9618  -19.0081  -14.5265 O   0  0  0  0  0  0  0  0  0  0  0  0
   21.1293  -19.3667  -15.8769 C   0  0  0  0  0  0  0  0  0  0  0  0
   21.7495  -18.1559  -16.5493 C   0  0  2  0  0  0  0  0  0  0  0  0
   22.8363  -17.6326  -15.7638 N   0  0  0  0  0  0  0  0  0  0  0  0
   20.6770  -17.1431  -16.7245 C   0  0  0  0  0  0  0  0  0  0  0  0
   20.7026  -16.0460  -16.1310 O   0  0  0  0  0  0  0  0  0  0  0  0
   19.6180  -17.4287  -17.5737 O   0  0  0  0  0  0  0  0  0  0  0  0
  1  2  1  0
  2  3  1  0
  4  3  1  0
  5  6  1  1
  5  4  1  0
  7  5  1  0
  8  7  2  0
 10  9  1  1
 10 12  1  0
 11 10  1  0
 12 13  1  6
 12 14  1  0
 13  7  1  0
 14 19  1  0
 15 14  2  0
 16 17  1  0
 18 17  1  1
 18 20  1  0
 19 18  1  0
 20 21  2  0
 20 22  1  0
M  END
$$$$
