MVS.pdb
     RDKit          3D

 22 21  0  0  1  0  0  0  0  0999 V2000
   18.0217  -14.1161  -20.2596 C   0  0  0  0  0  0  0  0  0  0  0  0
   19.6860  -14.7877  -19.9987 S   0  0  0  0  0  0  0  0  0  0  0  0
   20.8296  -13.3537  -19.9599 C   0  0  0  0  0  0  0  0  0  0  0  0
   20.4302  -12.5216  -18.7826 C   0  0  0  0  0  0  0  0  0  0  0  0
   21.2355  -11.2452  -18.7580 C   0  0  2  0  0  0  0  0  0  0  0  0
   22.6551  -11.6192  -18.9030 N   0  0  0  0  0  0  0  0  0  0  0  0
   21.0736  -10.6003  -17.4372 C   0  0  0  0  0  0  0  0  0  0  0  0
   19.9756  -10.2770  -16.9289 O   0  0  0  0  0  0  0  0  0  0  0  0
   23.0010   -9.7769  -13.1061 C   0  0  0  0  0  0  0  0  0  0  0  0
   23.0889  -10.4856  -14.4628 C   0  0  1  0  0  0  0  0  0  0  0  0
   22.6812  -11.9045  -14.2498 C   0  0  0  0  0  0  0  0  0  0  0  0
   22.1160   -9.7370  -15.3727 C   0  0  2  0  0  0  0  0  0  0  0  0
   22.2298  -10.3154  -16.6672 N   0  0  0  0  0  0  0  0  0  0  0  0
   22.3481   -8.2823  -15.3377 C   0  0  0  0  0  0  0  0  0  0  0  0
   23.3578   -7.7508  -15.8576 O   0  0  0  0  0  0  0  0  0  0  0  0
   20.7189   -3.9194  -15.2448 O   0  0  0  0  0  0  0  0  0  0  0  0
   20.3687   -5.2809  -15.1824 C   0  0  0  0  0  0  0  0  0  0  0  0
   21.6178   -6.0049  -14.7152 C   0  0  2  0  0  0  0  0  0  0  0  0
   21.4100   -7.4291  -14.6982 N   0  0  0  0  0  0  0  0  0  0  0  0
   21.9506   -5.4944  -13.3604 C   0  0  0  0  0  0  0  0  0  0  0  0
   21.5160   -6.0389  -12.3254 O   0  0  0  0  0  0  0  0  0  0  0  0
   22.7688   -4.3800  -13.2466 O   0  0  0  0  0  0  0  0  0  0  0  0
  1  2  1  0
  2  3  1  0
  4  3  1  0
  5  6  1  1
  5  4  1  0
  7  5  1  0
  8  7  2  0
 10  9  1  1
 10 12  1  0
 11 10  1  0
 12 13  1  6
 12 14  1  0
 13  7  1  0
 14 19  1  0
 15 14  2  0
 16 17  1  0
 18 17  1  1
 18 20  1  0
 19 18  1  0
 20 21  2  0
 20 22  1  0
M  END
$$$$
