MVS.pdb
     RDKit          3D

 22 21  0  0  1  0  0  0  0  0999 V2000
   16.8889   -9.6680  -19.7527 C   0  0  0  0  0  0  0  0  0  0  0  0
   16.5090  -11.4407  -19.7057 S   0  0  0  0  0  0  0  0  0  0  0  0
   18.0283  -12.2868  -19.1211 C   0  0  0  0  0  0  0  0  0  0  0  0
   18.5110  -11.5213  -17.9299 C   0  0  0  0  0  0  0  0  0  0  0  0
   19.8195  -12.0964  -17.4446 C   0  0  2  0  0  0  0  0  0  0  0  0
   19.5350  -13.4391  -16.9039 N   0  0  0  0  0  0  0  0  0  0  0  0
   20.3280  -11.2633  -16.3339 C   0  0  0  0  0  0  0  0  0  0  0  0
   19.8509  -11.2462  -15.1760 O   0  0  0  0  0  0  0  0  0  0  0  0
   23.1608  -11.6987  -14.9633 C   0  0  0  0  0  0  0  0  0  0  0  0
   23.3818  -10.2045  -15.2259 C   0  0  1  0  0  0  0  0  0  0  0  0
   24.2909  -10.0903  -16.4029 C   0  0  0  0  0  0  0  0  0  0  0  0
   21.9930   -9.6358  -15.5133 C   0  0  2  0  0  0  0  0  0  0  0  0
   21.4371  -10.4113  -16.5682 N   0  0  0  0  0  0  0  0  0  0  0  0
   22.0436   -8.1890  -15.7880 C   0  0  0  0  0  0  0  0  0  0  0  0
   22.4355   -7.7274  -16.8861 O   0  0  0  0  0  0  0  0  0  0  0  0
   19.4555   -5.8572  -14.3686 O   0  0  0  0  0  0  0  0  0  0  0  0
   20.2881   -5.3202  -15.3679 C   0  0  0  0  0  0  0  0  0  0  0  0
   21.6786   -5.8517  -15.0729 C   0  0  2  0  0  0  0  0  0  0  0  0
   21.6399   -7.2626  -14.7902 N   0  0  0  0  0  0  0  0  0  0  0  0
   22.2143   -5.0869  -13.9177 C   0  0  0  0  0  0  0  0  0  0  0  0
   22.4591   -3.8657  -13.9917 O   0  0  0  0  0  0  0  0  0  0  0  0
   22.4475   -5.7528  -12.7234 O   0  0  0  0  0  0  0  0  0  0  0  0
  1  2  1  0
  2  3  1  0
  4  3  1  0
  5  6  1  1
  5  4  1  0
  7  5  1  0
  8  7  2  0
 10  9  1  6
 10 12  1  0
 11 10  1  0
 12 13  1  6
 12 14  1  0
 13  7  1  0
 14 19  1  0
 15 14  2  0
 16 17  1  0
 18 17  1  1
 18 20  1  0
 19 18  1  0
 20 21  2  0
 20 22  1  0
M  END
$$$$
