MVS.pdb
     RDKit          3D

 22 21  0  0  1  0  0  0  0  0999 V2000
   29.9754  -20.8027  -12.5996 C   0  0  0  0  0  0  0  0  0  0  0  0
   29.8652  -20.6818  -10.7934 S   0  0  0  0  0  0  0  0  0  0  0  0
   28.0784  -20.6636  -10.3775 C   0  0  0  0  0  0  0  0  0  0  0  0
   27.3432  -20.9763  -11.6423 C   0  0  0  0  0  0  0  0  0  0  0  0
   25.8552  -20.9614  -11.3892 C   0  0  2  0  0  0  0  0  0  0  0  0
   25.5482  -22.1054  -10.5099 N   0  0  0  0  0  0  0  0  0  0  0  0
   25.1479  -21.1766  -12.6698 C   0  0  0  0  0  0  0  0  0  0  0  0
   25.4302  -22.0693  -13.5017 O   0  0  0  0  0  0  0  0  0  0  0  0
   21.4520  -19.5418  -13.1292 C   0  0  0  0  0  0  0  0  0  0  0  0
   21.9342  -20.7341  -13.9636 C   0  0  1  0  0  0  0  0  0  0  0  0
   21.1070  -20.7715  -15.2042 C   0  0  0  0  0  0  0  0  0  0  0  0
   23.4058  -20.4495  -14.2607 C   0  0  2  0  0  0  0  0  0  0  0  0
   24.0657  -20.3245  -13.0068 N   0  0  0  0  0  0  0  0  0  0  0  0
   23.5663  -19.2838  -15.1475 C   0  0  0  0  0  0  0  0  0  0  0  0
   23.5017  -18.1048  -14.7251 O   0  0  0  0  0  0  0  0  0  0  0  0
   26.0814  -18.8304  -18.1559 O   0  0  0  0  0  0  0  0  0  0  0  0
   24.7639  -18.6665  -18.6223 C   0  0  0  0  0  0  0  0  0  0  0  0
   23.9338  -18.3298  -17.3975 C   0  0  2  0  0  0  0  0  0  0  0  0
   23.8034  -19.4745  -16.5347 N   0  0  0  0  0  0  0  0  0  0  0  0
   22.6065  -17.8605  -17.8716 C   0  0  0  0  0  0  0  0  0  0  0  0
   21.6291  -18.6304  -17.9636 O   0  0  0  0  0  0  0  0  0  0  0  0
   22.4530  -16.5269  -18.2211 O   0  0  0  0  0  0  0  0  0  0  0  0
  1  2  1  0
  2  3  1  0
  4  3  1  0
  5  6  1  1
  5  4  1  0
  7  5  1  0
  8  7  2  0
 10  9  1  1
 10 12  1  0
 11 10  1  0
 12 13  1  1
 12 14  1  0
 13  7  1  0
 14 19  1  0
 15 14  2  0
 16 17  1  0
 18 17  1  6
 18 20  1  0
 19 18  1  0
 20 21  2  0
 20 22  1  0
M  END
$$$$
