MVS.pdb
     RDKit          3D

 22 21  0  0  1  0  0  0  0  0999 V2000
   26.4484  -15.9840  -15.8711 C   0  0  0  0  0  0  0  0  0  0  0  0
   27.9925  -16.2865  -16.7728 S   0  0  0  0  0  0  0  0  0  0  0  0
   28.7705  -17.7578  -16.0011 C   0  0  0  0  0  0  0  0  0  0  0  0
   27.6536  -18.6118  -15.4899 C   0  0  0  0  0  0  0  0  0  0  0  0
   28.2129  -19.8433  -14.8199 C   0  0  2  0  0  0  0  0  0  0  0  0
   28.8619  -20.6557  -15.8664 N   0  0  0  0  0  0  0  0  0  0  0  0
   27.0961  -20.6367  -14.2635 C   0  0  0  0  0  0  0  0  0  0  0  0
   26.5064  -21.5626  -14.8664 O   0  0  0  0  0  0  0  0  0  0  0  0
   25.7258  -19.6321  -10.4391 C   0  0  0  0  0  0  0  0  0  0  0  0
   25.8212  -21.1041  -10.8570 C   0  0  1  0  0  0  0  0  0  0  0  0
   24.7564  -21.8447  -10.1204 C   0  0  0  0  0  0  0  0  0  0  0  0
   25.5882  -21.1105  -12.3671 C   0  0  2  0  0  0  0  0  0  0  0  0
   26.6383  -20.3502  -12.9523 N   0  0  0  0  0  0  0  0  0  0  0  0
   24.2354  -20.6384  -12.7110 C   0  0  0  0  0  0  0  0  0  0  0  0
   23.9345  -19.4212  -12.7329 O   0  0  0  0  0  0  0  0  0  0  0  0
   22.0254  -22.1311  -15.5252 O   0  0  0  0  0  0  0  0  0  0  0  0
   21.2413  -22.0993  -14.3572 C   0  0  0  0  0  0  0  0  0  0  0  0
   21.9186  -21.1022  -13.4353 C   0  0  2  0  0  0  0  0  0  0  0  0
   23.2173  -21.5747  -13.0328 N   0  0  0  0  0  0  0  0  0  0  0  0
   21.0311  -20.9045  -12.2605 C   0  0  0  0  0  0  0  0  0  0  0  0
   21.3013  -21.3856  -11.1416 O   0  0  0  0  0  0  0  0  0  0  0  0
   19.8694  -20.1626  -12.4158 O   0  0  0  0  0  0  0  0  0  0  0  0
  1  2  1  0
  2  3  1  0
  4  3  1  0
  5  6  1  6
  5  4  1  0
  7  5  1  0
  8  7  2  0
 10  9  1  1
 10 12  1  0
 11 10  1  0
 12 13  1  6
 12 14  1  0
 13  7  1  0
 14 19  1  0
 15 14  2  0
 16 17  1  0
 18 17  1  6
 18 20  1  0
 19 18  1  0
 20 21  2  0
 20 22  1  0
M  END
$$$$
