MVS.pdb
     RDKit          3D

 22 21  0  0  1  0  0  0  0  0999 V2000
   29.6248  -20.2974   -8.0774 C   0  0  0  0  0  0  0  0  0  0  0  0
   28.5028  -19.8427   -6.7270 S   0  0  0  0  0  0  0  0  0  0  0  0
   26.8468  -19.6039   -7.4796 C   0  0  0  0  0  0  0  0  0  0  0  0
   26.7913  -20.4956   -8.6796 C   0  0  0  0  0  0  0  0  0  0  0  0
   25.4674  -20.3271   -9.3847 C   0  0  2  0  0  0  0  0  0  0  0  0
   24.4406  -20.9827   -8.5528 N   0  0  0  0  0  0  0  0  0  0  0  0
   25.5186  -21.0395  -10.6795 C   0  0  0  0  0  0  0  0  0  0  0  0
   25.5551  -22.2846  -10.8099 O   0  0  0  0  0  0  0  0  0  0  0  0
   23.0884  -21.1426  -12.9402 C   0  0  0  0  0  0  0  0  0  0  0  0
   24.1891  -20.5383  -13.8198 C   0  0  1  0  0  0  0  0  0  0  0  0
   23.9826  -19.0612  -13.8376 C   0  0  0  0  0  0  0  0  0  0  0  0
   25.5037  -20.9282  -13.1456 C   0  0  2  0  0  0  0  0  0  0  0  0
   25.5277  -20.2824  -11.8785 N   0  0  0  0  0  0  0  0  0  0  0  0
   26.6647  -20.6254  -14.0009 C   0  0  0  0  0  0  0  0  0  0  0  0
   27.2094  -19.4960  -14.0184 O   0  0  0  0  0  0  0  0  0  0  0  0
   28.3528  -23.6248  -16.0999 O   0  0  0  0  0  0  0  0  0  0  0  0
   29.2354  -22.5669  -15.8136 C   0  0  0  0  0  0  0  0  0  0  0  0
   28.3622  -21.3366  -15.6502 C   0  0  2  0  0  0  0  0  0  0  0  0
   27.2056  -21.6309  -14.8455 N   0  0  0  0  0  0  0  0  0  0  0  0
   27.9698  -20.8827  -17.0091 C   0  0  0  0  0  0  0  0  0  0  0  0
   26.7809  -20.8849  -17.3874 O   0  0  0  0  0  0  0  0  0  0  0  0
   28.9564  -20.4438  -17.8798 O   0  0  0  0  0  0  0  0  0  0  0  0
  1  2  1  0
  2  3  1  0
  4  3  1  0
  5  6  1  1
  5  4  1  0
  7  5  1  0
  8  7  2  0
 10  9  1  1
 10 12  1  0
 11 10  1  0
 12 13  1  1
 12 14  1  0
 13  7  1  0
 14 19  1  0
 15 14  2  0
 16 17  1  0
 18 17  1  6
 18 20  1  0
 19 18  1  0
 20 21  2  0
 20 22  1  0
M  END
$$$$
