MVS.pdb
     RDKit          3D

 22 21  0  0  1  0  0  0  0  0999 V2000
   15.3383  -11.9186  -20.5417 C   0  0  0  0  0  0  0  0  0  0  0  0
   15.8706  -11.3407  -18.9071 S   0  0  0  0  0  0  0  0  0  0  0  0
   17.5921  -11.9319  -18.6773 C   0  0  0  0  0  0  0  0  0  0  0  0
   18.0421  -11.4257  -17.3434 C   0  0  0  0  0  0  0  0  0  0  0  0
   19.4402  -11.9151  -17.0527 C   0  0  2  0  0  0  0  0  0  0  0  0
   19.3359  -13.3332  -16.6600 N   0  0  0  0  0  0  0  0  0  0  0  0
   19.9802  -11.1675  -15.8968 C   0  0  0  0  0  0  0  0  0  0  0  0
   19.5239  -11.2241  -14.7319 O   0  0  0  0  0  0  0  0  0  0  0  0
   22.7097  -11.4693  -14.2145 C   0  0  0  0  0  0  0  0  0  0  0  0
   22.9447  -10.0141  -14.6359 C   0  0  1  0  0  0  0  0  0  0  0  0
   23.8994  -10.0322  -15.7818 C   0  0  0  0  0  0  0  0  0  0  0  0
   21.5697   -9.4841  -15.0399 C   0  0  2  0  0  0  0  0  0  0  0  0
   21.0972  -10.3161  -16.0925 N   0  0  0  0  0  0  0  0  0  0  0  0
   21.6165   -8.0504  -15.3768 C   0  0  0  0  0  0  0  0  0  0  0  0
   21.9354   -7.6388  -16.5176 O   0  0  0  0  0  0  0  0  0  0  0  0
   20.2951   -3.6919  -15.1871 O   0  0  0  0  0  0  0  0  0  0  0  0
   20.0491   -5.0359  -14.8501 C   0  0  0  0  0  0  0  0  0  0  0  0
   21.4157   -5.6800  -14.7074 C   0  0  2  0  0  0  0  0  0  0  0  0
   21.2937   -7.0791  -14.3923 N   0  0  0  0  0  0  0  0  0  0  0  0
   22.1450   -4.9502  -13.6387 C   0  0  0  0  0  0  0  0  0  0  0  0
   22.3309   -5.4472  -12.5095 O   0  0  0  0  0  0  0  0  0  0  0  0
   22.6324   -3.6796  -13.9076 O   0  0  0  0  0  0  0  0  0  0  0  0
  1  2  1  0
  2  3  1  0
  4  3  1  0
  5  6  1  1
  5  4  1  0
  7  5  1  0
  8  7  2  0
 10  9  1  6
 10 12  1  0
 11 10  1  0
 12 13  1  6
 12 14  1  0
 13  7  1  0
 14 19  1  0
 15 14  2  0
 16 17  1  0
 18 17  1  1
 18 20  1  0
 19 18  1  0
 20 21  2  0
 20 22  1  0
M  END
$$$$
