MVS.pdb
     RDKit          3D

 22 21  0  0  1  0  0  0  0  0999 V2000
   22.3787  -14.5362  -23.6960 C   0  0  0  0  0  0  0  0  0  0  0  0
   21.6853  -13.5521  -22.3396 S   0  0  0  0  0  0  0  0  0  0  0  0
   22.3623  -14.2524  -20.7849 C   0  0  0  0  0  0  0  0  0  0  0  0
   21.8640  -13.3837  -19.6736 C   0  0  0  0  0  0  0  0  0  0  0  0
   22.3935  -13.8849  -18.3520 C   0  0  2  0  0  0  0  0  0  0  0  0
   21.8852  -15.2574  -18.1677 N   0  0  0  0  0  0  0  0  0  0  0  0
   21.8387  -13.0506  -17.2645 C   0  0  0  0  0  0  0  0  0  0  0  0
   20.6814  -13.1602  -16.7983 O   0  0  0  0  0  0  0  0  0  0  0  0
   22.6529  -12.8437  -14.0587 C   0  0  0  0  0  0  0  0  0  0  0  0
   22.9036  -11.3764  -14.4256 C   0  0  1  0  0  0  0  0  0  0  0  0
   24.3738  -11.2111  -14.6156 C   0  0  0  0  0  0  0  0  0  0  0  0
   22.1259  -11.1459  -15.7205 C   0  0  2  0  0  0  0  0  0  0  0  0
   22.6549  -12.0445  -16.6879 N   0  0  0  0  0  0  0  0  0  0  0  0
   22.1565   -9.7305  -16.1291 C   0  0  0  0  0  0  0  0  0  0  0  0
   23.1070   -9.2414  -16.7848 O   0  0  0  0  0  0  0  0  0  0  0  0
   20.1068   -5.7455  -17.3292 O   0  0  0  0  0  0  0  0  0  0  0  0
   19.9239   -7.0983  -16.9877 C   0  0  0  0  0  0  0  0  0  0  0  0
   21.1362   -7.4798  -16.1586 C   0  0  2  0  0  0  0  0  0  0  0  0
   21.0838   -8.8677  -15.7804 N   0  0  0  0  0  0  0  0  0  0  0  0
   21.1566   -6.5978  -14.9635 C   0  0  0  0  0  0  0  0  0  0  0  0
   20.8624   -7.0202  -13.8270 O   0  0  0  0  0  0  0  0  0  0  0  0
   21.5141   -5.2666  -15.1192 O   0  0  0  0  0  0  0  0  0  0  0  0
  1  2  1  0
  2  3  1  0
  4  3  1  0
  5  6  1  1
  5  4  1  0
  7  5  1  0
  8  7  2  0
 10  9  1  6
 10 12  1  0
 11 10  1  0
 12 13  1  6
 12 14  1  0
 13  7  1  0
 14 19  1  0
 15 14  2  0
 16 17  1  0
 18 17  1  6
 18 20  1  0
 19 18  1  0
 20 21  2  0
 20 22  1  0
M  END
$$$$
