CRQ.pdb
     RDKit          3D

 27 26  0  0  1  0  0  0  0  0999 V2000
   28.5736  -20.9609   -9.7153 N   0  0  0  0  0  0  0  0  0  0  0  0
   27.1535  -20.8906   -9.5692 C   0  0  1  0  0  0  0  0  0  0  0  0
   26.7769  -19.7542   -8.6100 C   0  0  0  0  0  0  0  0  0  0  0  0
   27.2887  -20.1335   -6.9256 S   0  0  0  0  0  0  0  0  0  0  0  0
   26.4308  -20.6799  -10.8327 C   0  0  0  0  0  0  0  0  0  0  0  0
   26.9253  -19.8657  -11.6565 O   0  0  0  0  0  0  0  0  0  0  0  0
   25.1568  -22.7193  -17.1536 N   0  0  0  0  0  0  0  0  0  0  0  0
   24.2618  -23.8251  -17.2599 C   0  0  0  0  0  0  0  0  0  0  0  0
   23.5775  -24.0012  -18.3258 N   0  0  0  0  0  0  0  0  0  0  0  0
   24.1025  -24.7526  -16.1991 N   0  0  0  0  0  0  0  0  0  0  0  0
   24.5625  -24.4963  -14.8760 C   0  0  0  0  0  0  0  0  0  0  0  0
   24.4249  -23.0171  -14.4635 C   0  0  0  0  0  0  0  0  0  0  0  0
   24.8971  -22.8352  -13.0487 C   0  0  0  0  0  0  0  0  0  0  0  0
   24.7814  -21.4203  -12.5759 C   0  0  2  0  0  0  0  0  0  0  0  0
   25.2212  -21.3316  -11.1781 N   0  0  0  0  0  0  0  0  0  0  0  0
   23.4011  -20.8905  -12.6977 C   0  0  0  0  0  0  0  0  0  0  0  0
   22.4567  -21.1651  -11.9214 O   0  0  0  0  0  0  0  0  0  0  0  0
   22.9871  -24.8511  -18.4121 N   0  0  0  0  0  0  0  0  0  0  0  0
   21.2913  -16.2145  -16.6976 C   0  0  0  0  0  0  0  0  0  0  0  0
   20.2089  -16.5658  -15.8627 O   0  0  0  0  0  0  0  0  0  0  0  0
   19.1167  -15.9774  -15.9716 C   0  0  0  0  0  0  0  0  0  0  0  0
   20.2972  -17.6420  -14.8156 C   0  0  0  0  0  0  0  0  0  0  0  0
   21.6553  -18.2830  -14.8199 C   0  0  2  0  0  0  0  0  0  0  0  0
   21.7292  -19.3602  -13.8013 N   0  0  0  0  0  0  0  0  0  0  0  0
   23.0396  -19.9883  -13.7596 C   0  0  0  0  0  0  0  0  0  0  0  0
   20.7072  -20.3886  -14.0244 O   0  0  0  0  0  0  0  0  0  0  0  0
   20.9666  -21.3128  -14.8801 O   0  0  0  0  0  0  0  0  0  0  0  0
  2  1  1  6
  3  2  1  0
  4  3  1  0
  5  2  1  0
  5  6  2  0
  7  8  1  0
  8 10  1  0
  9  8  2  0
 10 11  1  0
 12 11  1  0
 12 13  1  0
 14 15  1  0
 14 13  1  1
 15  5  1  0
 16 14  1  0
 17 16  2  0
 18 19  1  0
 19 21  1  0
 19 20  2  0
 21 22  1  0
 23 22  1  1
 23 25  1  0
 23 24  1  0
 24 16  1  0
 25 27  1  0
 26 25  2  0
M  END
$$$$
