CRQ.pdb
     RDKit          3D

 27 26  0  0  1  0  0  0  0  0999 V2000
   28.4508  -21.0502   -9.8847 N   0  0  0  0  0  0  0  0  0  0  0  0
   27.0221  -21.0455   -9.8417 C   0  0  1  0  0  0  0  0  0  0  0  0
   26.5329  -20.2389   -8.6319 C   0  0  0  0  0  0  0  0  0  0  0  0
   27.4153  -20.7167   -7.1366 S   0  0  0  0  0  0  0  0  0  0  0  0
   26.3881  -20.4903  -11.0471 C   0  0  0  0  0  0  0  0  0  0  0  0
   26.4273  -19.2411  -11.2017 O   0  0  0  0  0  0  0  0  0  0  0  0
   28.4035  -20.6680  -17.0899 N   0  0  0  0  0  0  0  0  0  0  0  0
   27.9955  -19.3046  -17.1890 C   0  0  0  0  0  0  0  0  0  0  0  0
   28.4439  -18.5638  -18.1300 N   0  0  0  0  0  0  0  0  0  0  0  0
   27.0920  -18.7332  -16.2573 N   0  0  0  0  0  0  0  0  0  0  0  0
   27.1664  -18.9853  -14.8578 C   0  0  0  0  0  0  0  0  0  0  0  0
   27.1954  -20.4881  -14.5145 C   0  0  0  0  0  0  0  0  0  0  0  0
   25.7932  -21.0239  -14.4470 C   0  0  0  0  0  0  0  0  0  0  0  0
   25.0836  -20.6354  -13.1882 C   0  0  2  0  0  0  0  0  0  0  0  0
   25.7406  -21.2686  -12.0382 N   0  0  0  0  0  0  0  0  0  0  0  0
   23.6473  -21.0062  -13.2069 C   0  0  0  0  0  0  0  0  0  0  0  0
   23.2005  -22.1551  -12.9825 O   0  0  0  0  0  0  0  0  0  0  0  0
   28.1659  -17.5637  -18.1612 N   0  0  0  0  0  0  0  0  0  0  0  0
   18.5538  -17.0306  -13.3358 C   0  0  0  0  0  0  0  0  0  0  0  0
   18.2544  -18.2128  -12.6251 O   0  0  0  0  0  0  0  0  0  0  0  0
   17.2206  -18.2840  -11.9345 C   0  0  0  0  0  0  0  0  0  0  0  0
   19.1366  -19.4308  -12.6520 C   0  0  0  0  0  0  0  0  0  0  0  0
   20.3342  -19.2052  -13.5295 C   0  0  2  0  0  0  0  0  0  0  0  0
   21.2218  -20.3949  -13.5202 N   0  0  0  0  0  0  0  0  0  0  0  0
   22.6289  -20.0307  -13.4960 C   0  0  0  0  0  0  0  0  0  0  0  0
   20.9686  -21.2694  -14.6704 O   0  0  0  0  0  0  0  0  0  0  0  0
   21.6440  -21.0555  -15.7435 O   0  0  0  0  0  0  0  0  0  0  0  0
  2  1  1  6
  3  2  1  0
  4  3  1  0
  5  2  1  0
  5  6  2  0
  7  8  1  0
  8 10  1  0
  9  8  2  0
 10 11  1  0
 12 11  1  0
 12 13  1  0
 14 15  1  0
 14 13  1  6
 15  5  1  0
 16 14  1  0
 17 16  2  0
 18 19  1  0
 19 21  1  0
 19 20  2  0
 21 22  1  0
 23 22  1  1
 23 25  1  0
 23 24  1  0
 24 16  1  0
 25 27  1  0
 26 25  2  0
M  END
$$$$
