CRQ.pdb
     RDKit          3D

 27 26  0  0  1  0  0  0  0  0999 V2000
   28.8087  -25.8668  -16.9069 N   0  0  0  0  0  0  0  0  0  0  0  0
   27.4600  -26.1998  -17.2435 C   0  0  1  0  0  0  0  0  0  0  0  0
   27.2236  -27.7033  -17.0513 C   0  0  0  0  0  0  0  0  0  0  0  0
   27.9465  -28.6494  -18.4023 S   0  0  0  0  0  0  0  0  0  0  0  0
   26.4498  -25.4747  -16.4580 C   0  0  0  0  0  0  0  0  0  0  0  0
   26.7880  -25.0588  -15.3185 O   0  0  0  0  0  0  0  0  0  0  0  0
   23.0109  -19.5690  -14.1414 N   0  0  0  0  0  0  0  0  0  0  0  0
   21.8451  -19.4763  -14.9583 C   0  0  0  0  0  0  0  0  0  0  0  0
   20.8091  -18.8567  -14.5361 N   0  0  0  0  0  0  0  0  0  0  0  0
   21.7972  -20.0627  -16.2485 N   0  0  0  0  0  0  0  0  0  0  0  0
   22.8500  -20.8686  -16.7681 C   0  0  0  0  0  0  0  0  0  0  0  0
   22.9678  -22.2363  -16.0662 C   0  0  0  0  0  0  0  0  0  0  0  0
   24.0070  -23.0758  -16.7541 C   0  0  0  0  0  0  0  0  0  0  0  0
   24.2060  -24.4057  -16.0979 C   0  0  2  0  0  0  0  0  0  0  0  0
   25.1291  -25.2169  -16.9010 N   0  0  0  0  0  0  0  0  0  0  0  0
   22.9327  -25.1428  -15.9076 C   0  0  0  0  0  0  0  0  0  0  0  0
   22.2082  -25.5736  -16.8347 O   0  0  0  0  0  0  0  0  0  0  0  0
   19.9669  -18.8100  -15.1419 N   0  0  0  0  0  0  0  0  0  0  0  0
   20.1674  -27.0826  -10.3332 C   0  0  0  0  0  0  0  0  0  0  0  0
   19.4496  -27.6773  -11.3931 O   0  0  0  0  0  0  0  0  0  0  0  0
   18.4976  -28.4435  -11.1529 C   0  0  0  0  0  0  0  0  0  0  0  0
   19.7750  -27.4343  -12.8413 C   0  0  0  0  0  0  0  0  0  0  0  0
   20.9589  -26.5206  -12.9780 C   0  0  2  0  0  0  0  0  0  0  0  0
   21.1964  -26.1807  -14.4033 N   0  0  0  0  0  0  0  0  0  0  0  0
   22.4233  -25.4239  -14.5908 C   0  0  0  0  0  0  0  0  0  0  0  0
   20.0735  -25.4307  -14.9763 O   0  0  0  0  0  0  0  0  0  0  0  0
   20.0203  -24.1666  -14.7466 O   0  0  0  0  0  0  0  0  0  0  0  0
  2  1  1  1
  3  2  1  0
  4  3  1  0
  5  2  1  0
  5  6  2  0
  7  8  1  0
  8 10  1  0
  9  8  2  0
 10 11  1  0
 12 11  1  0
 12 13  1  0
 14 15  1  0
 14 13  1  6
 15  5  1  0
 16 14  1  0
 17 16  2  0
 18 19  1  0
 19 21  1  0
 19 20  2  0
 21 22  1  0
 23 22  1  6
 23 25  1  0
 23 24  1  0
 24 16  1  0
 25 27  1  0
 26 25  2  0
M  END
$$$$
