CRQ.pdb
     RDKit          3D

 27 26  0  0  1  0  0  0  0  0999 V2000
   28.2833  -18.2581  -18.0750 N   0  0  0  0  0  0  0  0  0  0  0  0
   27.4657  -19.1622  -18.8215 C   0  0  1  0  0  0  0  0  0  0  0  0
   28.3401  -20.0446  -19.7216 C   0  0  0  0  0  0  0  0  0  0  0  0
   29.0937  -19.0769  -21.0402 S   0  0  0  0  0  0  0  0  0  0  0  0
   26.6323  -20.0432  -17.9893 C   0  0  0  0  0  0  0  0  0  0  0  0
   27.2222  -20.8102  -17.1832 O   0  0  0  0  0  0  0  0  0  0  0  0
   20.4476  -17.6137  -16.4738 N   0  0  0  0  0  0  0  0  0  0  0  0
   20.6925  -17.8204  -15.0837 C   0  0  0  0  0  0  0  0  0  0  0  0
   20.5780  -16.8512  -14.2574 N   0  0  0  0  0  0  0  0  0  0  0  0
   21.0681  -19.0916  -14.5797 N   0  0  0  0  0  0  0  0  0  0  0  0
   21.2196  -20.2366  -15.4126 C   0  0  0  0  0  0  0  0  0  0  0  0
   22.6436  -20.8266  -15.3769 C   0  0  0  0  0  0  0  0  0  0  0  0
   23.5452  -20.0406  -16.2863 C   0  0  0  0  0  0  0  0  0  0  0  0
   24.4497  -20.9111  -17.1005 C   0  0  2  0  0  0  0  0  0  0  0  0
   25.2170  -20.0820  -18.0380 N   0  0  0  0  0  0  0  0  0  0  0  0
   23.7105  -21.9560  -17.8507 C   0  0  0  0  0  0  0  0  0  0  0  0
   22.9731  -21.7414  -18.8406 O   0  0  0  0  0  0  0  0  0  0  0  0
   20.7477  -17.0258  -13.2478 N   0  0  0  0  0  0  0  0  0  0  0  0
   19.4997  -23.0339  -20.1919 C   0  0  0  0  0  0  0  0  0  0  0  0
   19.8861  -24.3896  -20.2615 O   0  0  0  0  0  0  0  0  0  0  0  0
   19.2308  -25.1934  -20.9510 C   0  0  0  0  0  0  0  0  0  0  0  0
   21.0795  -24.9402  -19.5299 C   0  0  0  0  0  0  0  0  0  0  0  0
   21.8097  -23.8500  -18.7998 C   0  0  2  0  0  0  0  0  0  0  0  0
   23.0701  -24.3674  -18.2105 N   0  0  0  0  0  0  0  0  0  0  0  0
   23.7945  -23.3434  -17.4759 C   0  0  0  0  0  0  0  0  0  0  0  0
   23.9506  -24.9429  -19.2330 O   0  0  0  0  0  0  0  0  0  0  0  0
   25.0351  -24.3107  -19.5117 O   0  0  0  0  0  0  0  0  0  0  0  0
  2  1  1  1
  3  2  1  0
  4  3  1  0
  5  2  1  0
  5  6  2  0
  7  8  1  0
  8 10  1  0
  9  8  2  0
 10 11  1  0
 12 11  1  0
 12 13  1  0
 14 15  1  0
 14 13  1  6
 15  5  1  0
 16 14  1  0
 17 16  2  0
 18 19  1  0
 19 21  1  0
 19 20  2  0
 21 22  1  0
 23 22  1  1
 23 25  1  0
 23 24  1  0
 24 16  1  0
 25 27  1  0
 26 25  2  0
M  END
$$$$
