CRQ.pdb
     RDKit          3D

 27 26  0  0  1  0  0  0  0  0999 V2000
   23.2444  -29.9892  -20.1548 N   0  0  0  0  0  0  0  0  0  0  0  0
   23.1608  -30.0873  -18.7313 C   0  0  1  0  0  0  0  0  0  0  0  0
   21.7163  -30.3806  -18.3061 C   0  0  0  0  0  0  0  0  0  0  0  0
   21.5802  -30.4944  -16.5140 S   0  0  0  0  0  0  0  0  0  0  0  0
   24.0272  -31.1241  -18.1501 C   0  0  0  0  0  0  0  0  0  0  0  0
   24.0500  -32.2479  -18.7178 O   0  0  0  0  0  0  0  0  0  0  0  0
   30.8863  -33.5683  -16.3593 N   0  0  0  0  0  0  0  0  0  0  0  0
   31.2742  -32.3268  -16.9453 C   0  0  0  0  0  0  0  0  0  0  0  0
   32.3201  -32.2580  -17.6780 N   0  0  0  0  0  0  0  0  0  0  0  0
   30.5228  -31.1427  -16.7352 N   0  0  0  0  0  0  0  0  0  0  0  0
   29.3432  -31.1100  -15.9381 C   0  0  0  0  0  0  0  0  0  0  0  0
   28.1144  -31.7089  -16.6512 C   0  0  0  0  0  0  0  0  0  0  0  0
   26.8808  -31.4764  -15.8254 C   0  0  0  0  0  0  0  0  0  0  0  0
   25.6451  -32.0341  -16.4586 C   0  0  2  0  0  0  0  0  0  0  0  0
   24.8321  -30.9378  -16.9992 N   0  0  0  0  0  0  0  0  0  0  0  0
   24.8323  -32.8358  -15.5112 C   0  0  0  0  0  0  0  0  0  0  0  0
   24.0879  -32.3588  -14.6235 O   0  0  0  0  0  0  0  0  0  0  0  0
   32.5886  -31.3435  -18.0901 N   0  0  0  0  0  0  0  0  0  0  0  0
   22.3227  -39.6614  -13.6856 C   0  0  0  0  0  0  0  0  0  0  0  0
   23.0156  -38.7016  -14.4542 O   0  0  0  0  0  0  0  0  0  0  0  0
   23.6522  -39.0501  -15.4662 C   0  0  0  0  0  0  0  0  0  0  0  0
   23.0325  -37.2365  -14.1142 C   0  0  0  0  0  0  0  0  0  0  0  0
   23.9752  -36.4892  -15.0131 C   0  0  2  0  0  0  0  0  0  0  0  0
   24.0551  -35.0608  -14.6168 N   0  0  0  0  0  0  0  0  0  0  0  0
   24.8451  -34.2748  -15.5502 C   0  0  0  0  0  0  0  0  0  0  0  0
   24.6046  -34.9028  -13.2659 O   0  0  0  0  0  0  0  0  0  0  0  0
   23.8097  -35.0885  -12.2723 O   0  0  0  0  0  0  0  0  0  0  0  0
  2  1  1  6
  3  2  1  0
  4  3  1  0
  5  2  1  0
  5  6  2  0
  7  8  1  0
  8 10  1  0
  9  8  2  0
 10 11  1  0
 12 11  1  0
 12 13  1  0
 14 15  1  0
 14 13  1  1
 15  5  1  0
 16 14  1  0
 17 16  2  0
 18 19  1  0
 19 21  1  0
 19 20  2  0
 21 22  1  0
 23 22  1  6
 23 25  1  0
 23 24  1  0
 24 16  1  0
 25 27  1  0
 26 25  2  0
M  END
$$$$
