CRQ.pdb
     RDKit          3D

 27 26  0  0  1  0  0  0  0  0999 V2000
   28.7381  -23.1672  -17.8799 N   0  0  0  0  0  0  0  0  0  0  0  0
   28.5546  -21.8147  -17.4556 C   0  0  1  0  0  0  0  0  0  0  0  0
   28.0652  -20.9552  -18.6282 C   0  0  0  0  0  0  0  0  0  0  0  0
   29.4453  -20.4000  -19.6432 S   0  0  0  0  0  0  0  0  0  0  0  0
   27.6016  -21.6587  -16.3462 C   0  0  0  0  0  0  0  0  0  0  0  0
   26.5758  -22.3892  -16.3540 O   0  0  0  0  0  0  0  0  0  0  0  0
   26.1178  -20.1875   -8.5590 N   0  0  0  0  0  0  0  0  0  0  0  0
   24.9241  -20.6204   -9.2092 C   0  0  0  0  0  0  0  0  0  0  0  0
   23.7912  -20.4925   -8.6300 N   0  0  0  0  0  0  0  0  0  0  0  0
   24.9550  -21.2014  -10.5024 N   0  0  0  0  0  0  0  0  0  0  0  0
   26.0972  -21.1339  -11.3502 C   0  0  0  0  0  0  0  0  0  0  0  0
   26.3349  -19.7269  -11.9342 C   0  0  0  0  0  0  0  0  0  0  0  0
   27.2857  -19.8093  -13.0947 C   0  0  0  0  0  0  0  0  0  0  0  0
   26.7356  -20.5989  -14.2405 C   0  0  2  0  0  0  0  0  0  0  0  0
   27.7652  -20.7440  -15.2768 N   0  0  0  0  0  0  0  0  0  0  0  0
   25.5223  -19.9797  -14.8280 C   0  0  0  0  0  0  0  0  0  0  0  0
   25.5252  -19.1298  -15.7486 O   0  0  0  0  0  0  0  0  0  0  0  0
   22.9333  -20.8067   -9.1237 N   0  0  0  0  0  0  0  0  0  0  0  0
   23.1393  -22.5437  -18.8193 C   0  0  0  0  0  0  0  0  0  0  0  0
   22.0178  -21.7375  -18.5287 O   0  0  0  0  0  0  0  0  0  0  0  0
   21.0490  -21.7061  -19.3105 C   0  0  0  0  0  0  0  0  0  0  0  0
   21.9187  -20.8864  -17.2924 C   0  0  0  0  0  0  0  0  0  0  0  0
   23.1419  -21.0424  -16.4355 C   0  0  1  0  0  0  0  0  0  0  0  0
   23.0415  -20.1959  -15.2202 N   0  0  0  0  0  0  0  0  0  0  0  0
   24.2061  -20.3283  -14.3604 C   0  0  0  0  0  0  0  0  0  0  0  0
   21.8326  -20.4991  -14.4466 O   0  0  0  0  0  0  0  0  0  0  0  0
   21.9351  -21.3486  -13.4868 O   0  0  0  0  0  0  0  0  0  0  0  0
  2  1  1  6
  3  2  1  0
  4  3  1  0
  5  2  1  0
  5  6  2  0
  7  8  1  0
  8 10  1  0
  9  8  2  0
 10 11  1  0
 12 11  1  0
 12 13  1  0
 14 15  1  0
 14 13  1  1
 15  5  1  0
 16 14  1  0
 17 16  2  0
 18 19  1  0
 19 21  1  0
 19 20  2  0
 21 22  1  0
 23 22  1  6
 23 25  1  0
 23 24  1  0
 24 16  1  0
 25 27  1  0
 26 25  2  0
M  END
$$$$
