CRQ.pdb
     RDKit          3D

 27 26  0  0  1  0  0  0  0  0999 V2000
   27.0378  -19.5866   -7.9682 N   0  0  0  0  0  0  0  0  0  0  0  0
   26.1790  -20.5832   -8.5271 C   0  0  1  0  0  0  0  0  0  0  0  0
   24.8833  -20.6813   -7.7117 C   0  0  0  0  0  0  0  0  0  0  0  0
   25.2250  -21.1605   -6.0098 S   0  0  0  0  0  0  0  0  0  0  0  0
   25.8171  -20.3429   -9.9322 C   0  0  0  0  0  0  0  0  0  0  0  0
   25.2601  -19.2481  -10.2099 O   0  0  0  0  0  0  0  0  0  0  0  0
   28.7892  -20.7933  -17.5042 N   0  0  0  0  0  0  0  0  0  0  0  0
   27.5146  -21.3246  -17.8625 C   0  0  0  0  0  0  0  0  0  0  0  0
   26.9525  -20.9713  -18.9555 N   0  0  0  0  0  0  0  0  0  0  0  0
   26.8371  -22.2491  -17.0275 N   0  0  0  0  0  0  0  0  0  0  0  0
   27.1215  -22.3849  -15.6387 C   0  0  0  0  0  0  0  0  0  0  0  0
   26.2096  -21.5187  -14.7470 C   0  0  0  0  0  0  0  0  0  0  0  0
   26.6096  -21.6710  -13.3066 C   0  0  0  0  0  0  0  0  0  0  0  0
   25.7083  -20.9269  -12.3724 C   0  0  2  0  0  0  0  0  0  0  0  0
   26.0548  -21.2603  -10.9853 N   0  0  0  0  0  0  0  0  0  0  0  0
   24.2738  -21.2203  -12.6109 C   0  0  0  0  0  0  0  0  0  0  0  0
   23.6936  -22.2797  -12.2777 O   0  0  0  0  0  0  0  0  0  0  0  0
   26.0558  -21.4178  -19.2294 N   0  0  0  0  0  0  0  0  0  0  0  0
   19.6196  -16.9193  -12.7410 C   0  0  0  0  0  0  0  0  0  0  0  0
   18.9886  -18.1620  -12.9641 O   0  0  0  0  0  0  0  0  0  0  0  0
   17.7465  -18.2335  -13.0171 C   0  0  0  0  0  0  0  0  0  0  0  0
   19.7497  -19.4464  -13.1475 C   0  0  0  0  0  0  0  0  0  0  0  0
   21.2302  -19.2072  -13.0694 C   0  0  1  0  0  0  0  0  0  0  0  0
   21.9779  -20.4637  -13.3258 N   0  0  0  0  0  0  0  0  0  0  0  0
   23.4172  -20.2683  -13.2684 C   0  0  0  0  0  0  0  0  0  0  0  0
   21.6213  -21.0522  -14.6213 O   0  0  0  0  0  0  0  0  0  0  0  0
   22.4353  -20.8772  -15.6012 O   0  0  0  0  0  0  0  0  0  0  0  0
  2  1  1  1
  3  2  1  0
  4  3  1  0
  5  2  1  0
  5  6  2  0
  7  8  1  0
  8 10  1  0
  9  8  2  0
 10 11  1  0
 12 11  1  0
 12 13  1  0
 14 15  1  0
 14 13  1  6
 15  5  1  0
 16 14  1  0
 17 16  2  0
 18 19  1  0
 19 21  1  0
 19 20  2  0
 21 22  1  0
 23 22  1  1
 23 25  1  0
 23 24  1  0
 24 16  1  0
 25 27  1  0
 26 25  2  0
M  END
$$$$
