TRH.pdb
     RDKit          3D

 29 29  0  0  1  0  0  0  0  0999 V2000
   26.8874  -14.3040  -15.6300 C   0  0  0  0  0  0  0  0  0  0  0  0
   25.9698  -15.4981  -15.6267 C   0  0  1  0  0  0  0  0  0  0  0  0
   24.8617  -15.2972  -16.4443 O   0  0  0  0  0  0  0  0  0  0  0  0
   26.7893  -16.6942  -16.0944 C   0  0  2  0  0  0  0  0  0  0  0  0
   27.3077  -16.5123  -17.4147 N   0  0  0  0  0  0  0  0  0  0  0  0
   25.9560  -17.9462  -16.0198 C   0  0  0  0  0  0  0  0  0  0  0  0
   25.2579  -18.3278  -16.9831 O   0  0  0  0  0  0  0  0  0  0  0  0
   26.8720  -20.4326   -8.5961 N   0  0  0  0  0  0  0  0  0  0  0  0
   25.8499  -21.0438   -9.4017 C   0  0  0  0  0  0  0  0  0  0  0  0
   24.6566  -21.1373   -8.9336 N   0  0  0  0  0  0  0  0  0  0  0  0
   26.1257  -21.5433  -10.6958 N   0  0  0  0  0  0  0  0  0  0  0  0
   27.1271  -20.9550  -11.5437 C   0  0  0  0  0  0  0  0  0  0  0  0
   26.5286  -20.0433  -12.5918 C   0  0  0  0  0  0  0  0  0  0  0  0
   25.7139  -20.7500  -13.5978 C   0  0  0  0  0  0  0  0  0  0  0  0
   25.0768  -19.8633  -14.6302 C   0  0  2  0  0  0  0  0  0  0  0  0
   25.9730  -18.6903  -14.8377 N   0  0  0  0  0  0  0  0  0  0  0  0
   23.7835  -19.3152  -14.1866 C   0  0  0  0  0  0  0  0  0  0  0  0
   23.7907  -18.2100  -13.5355 O   0  0  0  0  0  0  0  0  0  0  0  0
   23.8747  -21.5305   -9.4697 N   0  0  0  0  0  0  0  0  0  0  0  0
   22.5400  -19.8942  -14.4170 C   0  0  1  0  0  0  0  0  0  0  0  0
   21.2760  -19.2416  -14.0168 C   0  0  0  0  0  0  0  0  0  0  0  0
   21.1979  -17.8593  -14.6269 C   0  0  0  0  0  0  0  0  0  0  0  0
   20.9292  -17.9525  -16.0735 C   0  0  0  0  0  0  0  0  0  0  0  0
   20.7884  -19.1099  -16.8483 N   0  0  0  0  0  0  0  0  0  0  0  0
   20.5539  -18.7096  -18.0989 C   0  0  0  0  0  0  0  0  0  0  0  0
   20.5347  -17.3679  -18.1793 N   0  0  0  0  0  0  0  0  0  0  0  0
   20.7631  -16.9222  -16.9466 C   0  0  0  0  0  0  0  0  0  0  0  0
   20.1427  -20.1059  -14.3424 O   0  0  0  0  0  0  0  0  0  0  0  0
   20.2895  -21.1449  -15.0330 O   0  0  0  0  0  0  0  0  0  0  0  0
  2  1  1  6
  2  4  1  0
  3  2  1  0
  4  6  1  0
  4  5  1  6
  6  7  2  0
  9  8  1  0
 10  9  2  0
 11  9  1  0
 12 13  1  0
 12 11  1  0
 13 14  1  0
 15 14  1  1
 16 15  1  0
 16  6  1  0
 17 15  1  0
 18 17  2  0
 19 17  1  0
 20 27  1  0
 20 19  1  0
 20 21  1  1
 22 21  1  0
 23 22  2  0
 24 23  1  0
 25 24  1  0
 25 26  2  0
 26 22  1  0
 27 29  1  0
 28 27  2  0
M  END
$$$$
