TRH.pdb
     RDKit          3D

 29 29  0  0  1  0  0  0  0  0999 V2000
   26.7541  -16.4083  -17.0379 C   0  0  0  0  0  0  0  0  0  0  0  0
   25.6514  -15.4876  -17.4900 C   0  0  1  0  0  0  0  0  0  0  0  0
   24.4081  -16.1107  -17.4389 O   0  0  0  0  0  0  0  0  0  0  0  0
   25.6910  -14.2628  -16.5851 C   0  0  2  0  0  0  0  0  0  0  0  0
   25.4829  -14.5983  -15.2106 N   0  0  0  0  0  0  0  0  0  0  0  0
   24.6723  -13.2537  -17.0447 C   0  0  0  0  0  0  0  0  0  0  0  0
   24.6409  -12.8440  -18.2245 O   0  0  0  0  0  0  0  0  0  0  0  0
   17.2275  -15.8506  -15.7823 N   0  0  0  0  0  0  0  0  0  0  0  0
   18.1127  -16.2057  -16.8581 C   0  0  0  0  0  0  0  0  0  0  0  0
   17.8311  -17.2240  -17.5900 N   0  0  0  0  0  0  0  0  0  0  0  0
   19.2843  -15.4618  -17.1305 N   0  0  0  0  0  0  0  0  0  0  0  0
   19.6493  -14.3036  -16.3603 C   0  0  0  0  0  0  0  0  0  0  0  0
   20.9437  -13.6823  -16.8361 C   0  0  0  0  0  0  0  0  0  0  0  0
   21.3441  -12.4861  -16.0718 C   0  0  0  0  0  0  0  0  0  0  0  0
   22.6355  -11.8577  -16.5137 C   0  0  2  0  0  0  0  0  0  0  0  0
   23.7447  -12.7715  -16.1181 N   0  0  0  0  0  0  0  0  0  0  0  0
   22.9025  -10.5759  -15.8387 C   0  0  0  0  0  0  0  0  0  0  0  0
   23.0969  -10.5933  -14.5709 O   0  0  0  0  0  0  0  0  0  0  0  0
   18.4072  -17.5161  -18.3875 N   0  0  0  0  0  0  0  0  0  0  0  0
   22.9673   -9.3339  -16.4617 C   0  0  1  0  0  0  0  0  0  0  0  0
   23.1893   -8.0813  -15.7098 C   0  0  0  0  0  0  0  0  0  0  0  0
   24.4151   -7.3737  -16.2443 C   0  0  0  0  0  0  0  0  0  0  0  0
   25.5984   -8.2463  -16.1353 C   0  0  0  0  0  0  0  0  0  0  0  0
   26.3447   -8.5425  -14.9886 N   0  0  0  0  0  0  0  0  0  0  0  0
   27.3183   -9.3721  -15.3668 C   0  0  0  0  0  0  0  0  0  0  0  0
   27.2470   -9.6293  -16.6842 N   0  0  0  0  0  0  0  0  0  0  0  0
   26.2017   -8.9418  -17.1371 C   0  0  0  0  0  0  0  0  0  0  0  0
   21.9740   -7.2687  -15.7232 O   0  0  0  0  0  0  0  0  0  0  0  0
   21.0016   -7.5579  -16.4640 O   0  0  0  0  0  0  0  0  0  0  0  0
  2  1  1  1
  2  4  1  0
  3  2  1  0
  4  6  1  0
  4  5  1  1
  6  7  2  0
  9  8  1  0
 10  9  2  0
 11  9  1  0
 12 13  1  0
 12 11  1  0
 13 14  1  0
 15 14  1  1
 16 15  1  0
 16  6  1  0
 17 15  1  0
 18 17  2  0
 19 17  1  0
 20 27  1  0
 20 19  1  0
 20 21  1  1
 22 21  1  0
 23 22  2  0
 24 23  1  0
 25 24  1  0
 25 26  2  0
 26 22  1  0
 27 29  1  0
 28 27  2  0
M  END
$$$$
