TRH.pdb
     RDKit          3D

 29 29  0  0  1  0  0  0  0  0999 V2000
   25.5454  -14.1065  -19.5758 C   0  0  0  0  0  0  0  0  0  0  0  0
   25.0175  -15.4030  -19.0207 C   0  0  1  0  0  0  0  0  0  0  0  0
   23.6324  -15.4827  -19.1293 O   0  0  0  0  0  0  0  0  0  0  0  0
   25.6956  -16.5292  -19.7904 C   0  0  2  0  0  0  0  0  0  0  0  0
   25.3832  -16.4960  -21.1856 N   0  0  0  0  0  0  0  0  0  0  0  0
   25.3157  -17.8584  -19.1935 C   0  0  0  0  0  0  0  0  0  0  0  0
   24.3016  -18.4818  -19.5726 O   0  0  0  0  0  0  0  0  0  0  0  0
   30.6501  -23.6729  -15.8305 N   0  0  0  0  0  0  0  0  0  0  0  0
   29.9471  -23.4256  -17.0601 C   0  0  0  0  0  0  0  0  0  0  0  0
   30.4418  -23.8633  -18.1626 N   0  0  0  0  0  0  0  0  0  0  0  0
   28.7253  -22.7138  -17.0854 N   0  0  0  0  0  0  0  0  0  0  0  0
   28.0745  -22.2717  -15.8817 C   0  0  0  0  0  0  0  0  0  0  0  0
   26.8038  -21.5019  -16.1656 C   0  0  0  0  0  0  0  0  0  0  0  0
   26.9902  -20.3694  -17.0918 C   0  0  0  0  0  0  0  0  0  0  0  0
   25.7344  -19.6159  -17.4285 C   0  0  2  0  0  0  0  0  0  0  0  0
   26.1263  -18.3966  -18.1912 N   0  0  0  0  0  0  0  0  0  0  0  0
   25.0223  -19.1370  -16.2313 C   0  0  0  0  0  0  0  0  0  0  0  0
   25.3699  -18.0052  -15.7379 O   0  0  0  0  0  0  0  0  0  0  0  0
   29.9600  -23.7779  -19.0648 N   0  0  0  0  0  0  0  0  0  0  0  0
   23.9914  -19.8090  -15.5829 C   0  0  2  0  0  0  0  0  0  0  0  0
   22.7862  -19.1160  -15.0819 C   0  0  0  0  0  0  0  0  0  0  0  0
   22.3295  -18.0873  -16.0930 C   0  0  0  0  0  0  0  0  0  0  0  0
   21.1471  -17.3646  -15.5898 C   0  0  0  0  0  0  0  0  0  0  0  0
   20.4808  -17.5497  -14.3726 N   0  0  0  0  0  0  0  0  0  0  0  0
   19.4734  -16.6757  -14.3488 C   0  0  0  0  0  0  0  0  0  0  0  0
   19.4481  -15.9393  -15.4730 N   0  0  0  0  0  0  0  0  0  0  0  0
   20.4663  -16.3663  -16.2154 C   0  0  0  0  0  0  0  0  0  0  0  0
   21.7628  -20.0944  -14.7175 O   0  0  0  0  0  0  0  0  0  0  0  0
   21.4864  -21.0627  -15.4684 O   0  0  0  0  0  0  0  0  0  0  0  0
  2  1  1  6
  2  4  1  0
  3  2  1  0
  4  6  1  0
  4  5  1  6
  6  7  2  0
  9  8  1  0
 10  9  2  0
 11  9  1  0
 12 13  1  0
 12 11  1  0
 13 14  1  0
 15 14  1  1
 16 15  1  0
 16  6  1  0
 17 15  1  0
 18 17  2  0
 19 17  1  0
 20 27  1  0
 20 19  1  0
 20 21  1  1
 22 21  1  0
 23 22  2  0
 24 23  1  0
 25 24  1  0
 25 26  2  0
 26 22  1  0
 27 29  1  0
 28 27  2  0
M  END
$$$$
