TRH.pdb
     RDKit          3D

 29 29  0  0  1  0  0  0  0  0999 V2000
   33.4024   -6.6463  -14.7002 C   0  0  0  0  0  0  0  0  0  0  0  0
   34.8718   -6.5229  -15.0057 C   0  0  1  0  0  0  0  0  0  0  0  0
   35.5787   -5.9982  -13.9278 O   0  0  0  0  0  0  0  0  0  0  0  0
   35.3729   -7.9155  -15.3671 C   0  0  2  0  0  0  0  0  0  0  0  0
   36.7928   -7.9537  -15.5329 N   0  0  0  0  0  0  0  0  0  0  0  0
   34.6803   -8.4014  -16.6126 C   0  0  0  0  0  0  0  0  0  0  0  0
   35.0807   -8.0830  -17.7524 O   0  0  0  0  0  0  0  0  0  0  0  0
   30.9617  -16.2374  -18.1916 N   0  0  0  0  0  0  0  0  0  0  0  0
   30.4593  -15.3667  -19.2197 C   0  0  0  0  0  0  0  0  0  0  0  0
   29.6876  -15.8498  -20.1268 N   0  0  0  0  0  0  0  0  0  0  0  0
   30.7930  -13.9929  -19.2561 N   0  0  0  0  0  0  0  0  0  0  0  0
   31.6181  -13.3808  -18.2498 C   0  0  0  0  0  0  0  0  0  0  0  0
   31.7704  -11.8908  -18.4605 C   0  0  0  0  0  0  0  0  0  0  0  0
   32.5747  -11.2233  -17.4199 C   0  0  0  0  0  0  0  0  0  0  0  0
   32.8254   -9.7608  -17.6570 C   0  0  2  0  0  0  0  0  0  0  0  0
   33.5629   -9.2285  -16.4760 N   0  0  0  0  0  0  0  0  0  0  0  0
   31.5799   -8.9793  -17.7465 C   0  0  0  0  0  0  0  0  0  0  0  0
   30.8862   -8.8297  -16.6779 O   0  0  0  0  0  0  0  0  0  0  0  0
   29.2931  -15.2826  -20.8858 N   0  0  0  0  0  0  0  0  0  0  0  0
   31.0853   -8.3785  -18.8994 C   0  0  2  0  0  0  0  0  0  0  0  0
   29.7775   -7.6915  -18.9358 C   0  0  0  0  0  0  0  0  0  0  0  0
   29.8543   -6.4929  -19.8560 C   0  0  0  0  0  0  0  0  0  0  0  0
   28.5452   -5.8188  -19.9290 C   0  0  0  0  0  0  0  0  0  0  0  0
   27.7334   -5.4015  -18.8676 N   0  0  0  0  0  0  0  0  0  0  0  0
   26.6500   -4.8422  -19.4086 C   0  0  0  0  0  0  0  0  0  0  0  0
   26.7120   -4.8725  -20.7510 N   0  0  0  0  0  0  0  0  0  0  0  0
   27.8639   -5.4661  -21.0528 C   0  0  0  0  0  0  0  0  0  0  0  0
   28.7224   -8.6439  -19.2780 O   0  0  0  0  0  0  0  0  0  0  0  0
   28.8689   -9.4769  -20.2068 O   0  0  0  0  0  0  0  0  0  0  0  0
  2  1  1  1
  2  4  1  0
  3  2  1  0
  4  6  1  0
  4  5  1  6
  6  7  2  0
  9  8  1  0
 10  9  2  0
 11  9  1  0
 12 13  1  0
 12 11  1  0
 13 14  1  0
 15 14  1  1
 16 15  1  0
 16  6  1  0
 17 15  1  0
 18 17  2  0
 19 17  1  0
 20 27  1  0
 20 19  1  0
 20 21  1  6
 22 21  1  0
 23 22  2  0
 24 23  1  0
 25 24  1  0
 25 26  2  0
 26 22  1  0
 27 29  1  0
 28 27  2  0
M  END
$$$$
