TRH.pdb
     RDKit          3D

 29 29  0  0  1  0  0  0  0  0999 V2000
   16.3235  -24.4386  -12.7592 C   0  0  0  0  0  0  0  0  0  0  0  0
   17.2561  -23.2601  -12.8560 C   0  0  1  0  0  0  0  0  0  0  0  0
   16.6831  -22.1065  -12.3292 O   0  0  0  0  0  0  0  0  0  0  0  0
   18.5294  -23.6335  -12.1076 C   0  0  2  0  0  0  0  0  0  0  0  0
   18.2961  -23.8399  -10.7118 N   0  0  0  0  0  0  0  0  0  0  0  0
   19.5771  -22.5729  -12.3189 C   0  0  0  0  0  0  0  0  0  0  0  0
   19.6701  -21.5829  -11.5626 O   0  0  0  0  0  0  0  0  0  0  0  0
   26.8350  -24.5420  -16.3844 N   0  0  0  0  0  0  0  0  0  0  0  0
   25.6624  -25.0171  -15.7013 C   0  0  0  0  0  0  0  0  0  0  0  0
   25.3913  -26.2731  -15.7231 N   0  0  0  0  0  0  0  0  0  0  0  0
   24.8015  -24.1362  -15.0062 N   0  0  0  0  0  0  0  0  0  0  0  0
   25.0675  -22.7263  -14.9104 C   0  0  0  0  0  0  0  0  0  0  0  0
   24.0051  -21.9939  -14.1213 C   0  0  0  0  0  0  0  0  0  0  0  0
   22.6310  -22.4369  -14.4224 C   0  0  0  0  0  0  0  0  0  0  0  0
   21.5557  -21.7320  -13.6446 C   0  0  2  0  0  0  0  0  0  0  0  0
   20.4609  -22.7116  -13.3918 N   0  0  0  0  0  0  0  0  0  0  0  0
   20.9451  -20.6232  -14.3979 C   0  0  0  0  0  0  0  0  0  0  0  0
   20.0484  -20.9104  -15.2690 O   0  0  0  0  0  0  0  0  0  0  0  0
   24.6011  -26.6837  -15.2128 N   0  0  0  0  0  0  0  0  0  0  0  0
   21.2552  -19.2760  -14.2442 C   0  0  2  0  0  0  0  0  0  0  0  0
   20.5429  -18.2104  -14.9795 C   0  0  0  0  0  0  0  0  0  0  0  0
   20.8777  -16.8624  -14.3795 C   0  0  0  0  0  0  0  0  0  0  0  0
   20.1111  -15.7978  -15.0522 C   0  0  0  0  0  0  0  0  0  0  0  0
   18.7609  -15.8139  -15.4216 N   0  0  0  0  0  0  0  0  0  0  0  0
   18.5059  -14.6385  -15.9985 C   0  0  0  0  0  0  0  0  0  0  0  0
   19.6058  -13.8662  -16.0243 N   0  0  0  0  0  0  0  0  0  0  0  0
   20.5699  -14.5798  -15.4485 C   0  0  0  0  0  0  0  0  0  0  0  0
   20.8245  -18.3168  -16.4102 O   0  0  0  0  0  0  0  0  0  0  0  0
   21.9766  -18.5866  -16.8320 O   0  0  0  0  0  0  0  0  0  0  0  0
  2  1  1  1
  2  4  1  0
  3  2  1  0
  4  6  1  0
  4  5  1  1
  6  7  2  0
  9  8  1  0
 10  9  2  0
 11  9  1  0
 12 13  1  0
 12 11  1  0
 13 14  1  0
 15 14  1  6
 16 15  1  0
 16  6  1  0
 17 15  1  0
 18 17  2  0
 19 17  1  0
 20 27  1  0
 20 19  1  0
 20 21  1  1
 22 21  1  0
 23 22  2  0
 24 23  1  0
 25 24  1  0
 25 26  2  0
 26 22  1  0
 27 29  1  0
 28 27  2  0
M  END
$$$$
