TRH.pdb
     RDKit          3D

 29 29  0  0  1  0  0  0  0  0999 V2000
   27.6472  -16.7077  -18.5528 C   0  0  0  0  0  0  0  0  0  0  0  0
   26.5768  -17.5403  -17.8978 C   0  0  1  0  0  0  0  0  0  0  0  0
   25.5395  -17.8300  -18.7792 O   0  0  0  0  0  0  0  0  0  0  0  0
   27.2445  -18.8143  -17.3958 C   0  0  2  0  0  0  0  0  0  0  0  0
   27.8628  -19.5539  -18.4522 N   0  0  0  0  0  0  0  0  0  0  0  0
   26.2385  -19.6674  -16.6695 C   0  0  0  0  0  0  0  0  0  0  0  0
   25.5063  -20.4779  -17.2758 O   0  0  0  0  0  0  0  0  0  0  0  0
   26.3375  -19.4537   -9.3598 N   0  0  0  0  0  0  0  0  0  0  0  0
   25.7594  -20.7571   -9.5452 C   0  0  0  0  0  0  0  0  0  0  0  0
   24.8031  -21.1330   -8.7733 N   0  0  0  0  0  0  0  0  0  0  0  0
   26.2169  -21.6340  -10.5561 N   0  0  0  0  0  0  0  0  0  0  0  0
   27.2502  -21.2577  -11.4827 C   0  0  0  0  0  0  0  0  0  0  0  0
   26.7502  -21.2032  -12.9092 C   0  0  0  0  0  0  0  0  0  0  0  0
   25.5495  -20.3651  -13.0857 C   0  0  0  0  0  0  0  0  0  0  0  0
   25.0704  -20.2395  -14.5044 C   0  0  2  0  0  0  0  0  0  0  0  0
   26.1315  -19.5392  -15.2825 N   0  0  0  0  0  0  0  0  0  0  0  0
   23.8610  -19.4068  -14.6228 C   0  0  0  0  0  0  0  0  0  0  0  0
   24.0141  -18.1526  -14.8439 O   0  0  0  0  0  0  0  0  0  0  0  0
   24.4246  -20.5430   -8.0236 N   0  0  0  0  0  0  0  0  0  0  0  0
   22.5520  -19.8657  -14.5189 C   0  0  1  0  0  0  0  0  0  0  0  0
   21.4321  -19.2373  -15.2500 C   0  0  0  0  0  0  0  0  0  0  0  0
   21.7626  -19.1594  -16.7244 C   0  0  0  0  0  0  0  0  0  0  0  0
   20.6320  -18.5804  -17.4727 C   0  0  0  0  0  0  0  0  0  0  0  0
   19.4405  -18.0553  -16.9587 N   0  0  0  0  0  0  0  0  0  0  0  0
   18.7178  -17.6471  -18.0029 C   0  0  0  0  0  0  0  0  0  0  0  0
   19.3678  -17.8758  -19.1571 N   0  0  0  0  0  0  0  0  0  0  0  0
   20.5248  -18.4409  -18.8219 C   0  0  0  0  0  0  0  0  0  0  0  0
   20.1845  -19.9386  -14.9512 O   0  0  0  0  0  0  0  0  0  0  0  0
   19.0795  -19.3412  -14.9612 O   0  0  0  0  0  0  0  0  0  0  0  0
  2  1  1  6
  2  4  1  0
  3  2  1  0
  4  6  1  0
  4  5  1  6
  6  7  2  0
  9  8  1  0
 10  9  2  0
 11  9  1  0
 12 13  1  0
 12 11  1  0
 13 14  1  0
 15 14  1  1
 16 15  1  0
 16  6  1  0
 17 15  1  0
 18 17  2  0
 19 17  1  0
 20 27  1  0
 20 19  1  0
 20 21  1  1
 22 21  1  0
 23 22  2  0
 24 23  1  0
 25 24  1  0
 25 26  2  0
 26 22  1  0
 27 29  1  0
 28 27  2  0
M  END
$$$$
