TRH.pdb
     RDKit          3D

 29 29  0  0  1  0  0  0  0  0999 V2000
   28.8760  -20.3409  -18.8766 C   0  0  0  0  0  0  0  0  0  0  0  0
   27.7728  -21.0861  -18.1726 C   0  0  1  0  0  0  0  0  0  0  0  0
   28.1544  -21.4825  -16.8944 O   0  0  0  0  0  0  0  0  0  0  0  0
   26.5655  -20.1584  -18.1238 C   0  0  2  0  0  0  0  0  0  0  0  0
   26.8513  -18.9333  -17.4437 N   0  0  0  0  0  0  0  0  0  0  0  0
   25.4030  -20.8647  -17.4779 C   0  0  0  0  0  0  0  0  0  0  0  0
   24.7090  -21.6935  -18.1042 O   0  0  0  0  0  0  0  0  0  0  0  0
   26.4818  -21.2111   -9.2831 N   0  0  0  0  0  0  0  0  0  0  0  0
   25.2473  -20.9664   -9.9783 C   0  0  0  0  0  0  0  0  0  0  0  0
   24.2132  -20.6021   -9.3077 N   0  0  0  0  0  0  0  0  0  0  0  0
   25.1439  -21.1160  -11.3808 N   0  0  0  0  0  0  0  0  0  0  0  0
   25.9443  -22.0636  -12.1084 C   0  0  0  0  0  0  0  0  0  0  0  0
   25.6213  -22.0732  -13.5860 C   0  0  0  0  0  0  0  0  0  0  0  0
   24.4221  -21.2895  -13.9366 C   0  0  0  0  0  0  0  0  0  0  0  0
   24.0521  -21.3189  -15.3927 C   0  0  2  0  0  0  0  0  0  0  0  0
   25.1038  -20.5765  -16.1442 N   0  0  0  0  0  0  0  0  0  0  0  0
   22.7841  -20.6223  -15.6698 C   0  0  0  0  0  0  0  0  0  0  0  0
   22.7753  -19.3413  -15.6038 O   0  0  0  0  0  0  0  0  0  0  0  0
   23.2993  -20.4264   -9.7405 N   0  0  0  0  0  0  0  0  0  0  0  0
   21.5821  -21.2370  -16.0044 C   0  0  2  0  0  0  0  0  0  0  0  0
   20.3243  -20.4793  -16.1704 C   0  0  0  0  0  0  0  0  0  0  0  0
   19.5821  -20.9798  -17.3901 C   0  0  0  0  0  0  0  0  0  0  0  0
   18.3209  -20.2362  -17.5630 C   0  0  0  0  0  0  0  0  0  0  0  0
   18.1561  -18.8630  -17.7795 N   0  0  0  0  0  0  0  0  0  0  0  0
   16.8439  -18.6436  -17.8761 C   0  0  0  0  0  0  0  0  0  0  0  0
   16.1528  -19.7879  -17.7357 N   0  0  0  0  0  0  0  0  0  0  0  0
   17.0587  -20.7439  -17.5468 C   0  0  0  0  0  0  0  0  0  0  0  0
   19.5462  -20.5262  -14.9336 O   0  0  0  0  0  0  0  0  0  0  0  0
   19.7093  -21.4447  -14.0923 O   0  0  0  0  0  0  0  0  0  0  0  0
  2  1  1  1
  2  4  1  0
  3  2  1  0
  4  6  1  0
  4  5  1  1
  6  7  2  0
  9  8  1  0
 10  9  2  0
 11  9  1  0
 12 13  1  0
 12 11  1  0
 13 14  1  0
 15 14  1  1
 16 15  1  0
 16  6  1  0
 17 15  1  0
 18 17  2  0
 19 17  1  0
 20 27  1  0
 20 19  1  0
 20 21  1  1
 22 21  1  0
 23 22  2  0
 24 23  1  0
 25 24  1  0
 25 26  2  0
 26 22  1  0
 27 29  1  0
 28 27  2  0
M  END
$$$$
