DET.pdb
     RDKit          3D

 25 24  0  0  1  0  0  0  0  0999 V2000
   10.7913  -17.2640   21.0908 N   0  0  0  0  0  0  0  0  0  0  0  0
    9.3662  -16.8625   20.9699 C   0  0  1  0  0  0  0  0  0  0  0  0
    8.7214  -18.0095   20.2379 C   0  0  0  0  0  0  0  0  0  0  0  0
    9.0741  -18.1979   18.8453 C   0  0  0  0  0  0  0  0  0  0  0  0
   10.1529  -18.5500   18.3393 O   0  0  0  0  0  0  0  0  0  0  0  0
    8.8833  -16.7682   22.3714 C   0  0  0  0  0  0  0  0  0  0  0  0
    7.6431  -16.6390   22.5722 O   0  0  0  0  0  0  0  0  0  0  0  0
    8.0461  -17.9476   17.9020 O   0  0  0  0  0  0  0  0  0  0  0  0
    9.7095  -16.8157   23.5137 N   0  0  0  0  0  0  0  0  0  0  0  0
    9.1035  -16.7708   24.8736 C   0  0  1  0  0  0  0  0  0  0  0  0
   10.0223  -17.5287   25.7774 C   0  0  0  0  0  0  0  0  0  0  0  0
   10.1565  -18.9856   25.5551 C   0  0  0  0  0  0  0  0  0  0  0  0
   11.1998  -19.4967   26.4958 C   0  0  0  0  0  0  0  0  0  0  0  0
   12.2896  -19.9015   26.0416 O   0  0  0  0  0  0  0  0  0  0  0  0
    9.0547  -15.3502   25.2605 C   0  0  0  0  0  0  0  0  0  0  0  0
   10.1208  -14.6866   25.2005 O   0  0  0  0  0  0  0  0  0  0  0  0
   10.9669  -19.5227   27.8455 O   0  0  0  0  0  0  0  0  0  0  0  0
    6.5259  -12.2740   24.3902 C   0  0  0  0  0  0  0  0  0  0  0  0
    6.7519  -12.5022   25.8519 C   0  0  1  0  0  0  0  0  0  0  0  0
    5.6627  -13.1794   26.3702 O   0  0  0  0  0  0  0  0  0  0  0  0
    7.9874  -13.3151   26.1526 C   0  0  2  0  0  0  0  0  0  0  0  0
    7.8821  -14.6744   25.6933 N   0  0  0  0  0  0  0  0  0  0  0  0
    8.3748  -13.2594   27.5691 C   0  0  0  0  0  0  0  0  0  0  0  0
    8.5306  -14.3275   28.2079 O   0  0  0  0  0  0  0  0  0  0  0  0
    8.5859  -12.0820   28.2684 O   0  0  0  0  0  0  0  0  0  0  0  0
  2  1  1  1
  2  3  1  0
  3  4  1  0
  4  5  2  0
  6  2  1  0
  7  6  2  0
  8  4  1  0
  9  6  1  0
 10  9  1  0
 10 11  1  1
 11 12  1  0
 12 13  1  0
 13 17  1  0
 14 13  2  0
 15 10  1  0
 16 15  2  0
 19 18  1  6
 19 21  1  0
 19 20  1  0
 21 22  1  1
 22 15  1  0
 23 21  1  0
 23 25  1  0
 24 23  2  0
M  END
$$$$
