DET.pdb
     RDKit          3D

 25 24  0  0  1  0  0  0  0  0999 V2000
    9.4246  -16.5375   19.9061 N   0  0  0  0  0  0  0  0  0  0  0  0
    8.0760  -16.0328   20.2708 C   0  0  1  0  0  0  0  0  0  0  0  0
    7.1298  -17.0044   19.6165 C   0  0  0  0  0  0  0  0  0  0  0  0
    7.1984  -17.1382   18.1754 C   0  0  0  0  0  0  0  0  0  0  0  0
    8.0068  -16.6480   17.3694 O   0  0  0  0  0  0  0  0  0  0  0  0
    8.0257  -16.1345   21.7519 C   0  0  0  0  0  0  0  0  0  0  0  0
    6.8952  -16.1849   22.3126 O   0  0  0  0  0  0  0  0  0  0  0  0
    6.2006  -17.9470   17.5759 O   0  0  0  0  0  0  0  0  0  0  0  0
    9.1552  -16.1838   22.5953 N   0  0  0  0  0  0  0  0  0  0  0  0
    8.9816  -16.3771   24.0620 C   0  0  1  0  0  0  0  0  0  0  0  0
   10.2162  -17.0626   24.5530 C   0  0  0  0  0  0  0  0  0  0  0  0
   10.4466  -18.4578   24.1164 C   0  0  0  0  0  0  0  0  0  0  0  0
   11.7539  -18.9048   24.6872 C   0  0  0  0  0  0  0  0  0  0  0  0
   12.6198  -19.3895   23.9301 O   0  0  0  0  0  0  0  0  0  0  0  0
    8.8709  -15.0303   24.6489 C   0  0  0  0  0  0  0  0  0  0  0  0
    9.6716  -14.1468   24.2504 O   0  0  0  0  0  0  0  0  0  0  0  0
   12.0045  -18.7855   26.0286 O   0  0  0  0  0  0  0  0  0  0  0  0
    6.4300  -12.2875   24.3971 C   0  0  0  0  0  0  0  0  0  0  0  0
    6.6410  -12.5729   25.8509 C   0  0  1  0  0  0  0  0  0  0  0  0
    5.5917  -13.3496   26.3088 O   0  0  0  0  0  0  0  0  0  0  0  0
    7.9243  -13.3121   26.1415 C   0  0  2  0  0  0  0  0  0  0  0  0
    7.9162  -14.6579   25.6331 N   0  0  0  0  0  0  0  0  0  0  0  0
    8.2890  -13.2820   27.5647 C   0  0  0  0  0  0  0  0  0  0  0  0
    8.4607  -14.3614   28.1800 O   0  0  0  0  0  0  0  0  0  0  0  0
    8.4616  -12.1174   28.2953 O   0  0  0  0  0  0  0  0  0  0  0  0
  2  1  1  6
  2  3  1  0
  3  4  1  0
  4  5  2  0
  6  2  1  0
  7  6  2  0
  8  4  1  0
  9  6  1  0
 10  9  1  0
 10 11  1  1
 11 12  1  0
 12 13  1  0
 13 17  1  0
 14 13  2  0
 15 10  1  0
 16 15  2  0
 19 18  1  6
 19 21  1  0
 19 20  1  0
 21 22  1  1
 22 15  1  0
 23 21  1  0
 23 25  1  0
 24 23  2  0
M  END
$$$$
