DET.pdb
     RDKit          3D

 25 24  0  0  1  0  0  0  0  0999 V2000
    9.3377  -18.0164   19.4773 N   0  0  0  0  0  0  0  0  0  0  0  0
    8.6130  -16.7464   19.7389 C   0  0  1  0  0  0  0  0  0  0  0  0
    7.3685  -16.8526   18.8979 C   0  0  0  0  0  0  0  0  0  0  0  0
    7.5336  -17.1817   17.4966 C   0  0  0  0  0  0  0  0  0  0  0  0
    8.5641  -17.4640   16.8626 O   0  0  0  0  0  0  0  0  0  0  0  0
    8.2970  -16.7873   21.1897 C   0  0  0  0  0  0  0  0  0  0  0  0
    7.1234  -17.0947   21.5407 O   0  0  0  0  0  0  0  0  0  0  0  0
    6.3519  -17.1878   16.7138 O   0  0  0  0  0  0  0  0  0  0  0  0
    9.2162  -16.5099   22.2231 N   0  0  0  0  0  0  0  0  0  0  0  0
    8.8139  -16.6899   23.6459 C   0  0  1  0  0  0  0  0  0  0  0  0
    9.9249  -17.4341   24.3145 C   0  0  0  0  0  0  0  0  0  0  0  0
   11.2119  -16.7269   24.4986 C   0  0  0  0  0  0  0  0  0  0  0  0
   12.1782  -17.6894   25.1106 C   0  0  0  0  0  0  0  0  0  0  0  0
   12.0764  -17.9739   26.3216 O   0  0  0  0  0  0  0  0  0  0  0  0
    8.6825  -15.3375   24.2153 C   0  0  0  0  0  0  0  0  0  0  0  0
    9.4021  -14.4246   23.7364 O   0  0  0  0  0  0  0  0  0  0  0  0
   13.1685  -18.2571   24.3534 O   0  0  0  0  0  0  0  0  0  0  0  0
    6.4158  -11.5800   26.1859 C   0  0  0  0  0  0  0  0  0  0  0  0
    6.4347  -12.9910   25.6875 C   0  0  1  0  0  0  0  0  0  0  0  0
    6.0390  -13.0001   24.3619 O   0  0  0  0  0  0  0  0  0  0  0  0
    7.7938  -13.6423   25.7686 C   0  0  2  0  0  0  0  0  0  0  0  0
    7.7930  -14.9909   25.2676 N   0  0  0  0  0  0  0  0  0  0  0  0
    8.3786  -13.5739   27.1150 C   0  0  0  0  0  0  0  0  0  0  0  0
    8.6652  -14.6362   27.7171 O   0  0  0  0  0  0  0  0  0  0  0  0
    8.6431  -12.3903   27.7850 O   0  0  0  0  0  0  0  0  0  0  0  0
  2  1  1  6
  2  3  1  0
  3  4  1  0
  4  5  2  0
  6  2  1  0
  7  6  2  0
  8  4  1  0
  9  6  1  0
 10  9  1  0
 10 11  1  1
 11 12  1  0
 12 13  1  0
 13 17  1  0
 14 13  2  0
 15 10  1  0
 16 15  2  0
 19 18  1  6
 19 21  1  0
 19 20  1  0
 21 22  1  1
 22 15  1  0
 23 21  1  0
 23 25  1  0
 24 23  2  0
M  END
$$$$
