DET.pdb
     RDKit          3D

 25 24  0  0  1  0  0  0  0  0999 V2000
   11.0610  -16.0846   14.0909 N   0  0  0  0  0  0  0  0  0  0  0  0
    9.6417  -15.7244   14.3403 C   0  0  1  0  0  0  0  0  0  0  0  0
    8.8747  -16.5191   13.3168 C   0  0  0  0  0  0  0  0  0  0  0  0
    8.9831  -16.1082   11.9317 C   0  0  0  0  0  0  0  0  0  0  0  0
    9.9834  -15.7608   11.2817 O   0  0  0  0  0  0  0  0  0  0  0  0
    9.3702  -16.2038   15.7198 C   0  0  0  0  0  0  0  0  0  0  0  0
    8.1783  -16.1894   16.1372 O   0  0  0  0  0  0  0  0  0  0  0  0
    7.7759  -16.0939   11.1889 O   0  0  0  0  0  0  0  0  0  0  0  0
   10.3498  -16.6845   16.6136 N   0  0  0  0  0  0  0  0  0  0  0  0
    9.9469  -17.2109   17.9475 C   0  0  1  0  0  0  0  0  0  0  0  0
   11.0358  -18.1349   18.3902 C   0  0  0  0  0  0  0  0  0  0  0  0
   10.7721  -19.5895   18.3215 C   0  0  0  0  0  0  0  0  0  0  0  0
   12.0107  -20.2994   18.7653 C   0  0  0  0  0  0  0  0  0  0  0  0
   13.0539  -19.6444   18.9666 O   0  0  0  0  0  0  0  0  0  0  0  0
    9.8611  -16.0463   18.8456 C   0  0  0  0  0  0  0  0  0  0  0  0
   10.8184  -15.2314   18.8462 O   0  0  0  0  0  0  0  0  0  0  0  0
   12.0060  -21.6566   18.9508 O   0  0  0  0  0  0  0  0  0  0  0  0
    7.8083  -12.9624   19.0361 C   0  0  0  0  0  0  0  0  0  0  0  0
    7.7255  -13.6521   20.3616 C   0  0  1  0  0  0  0  0  0  0  0  0
    6.5247  -14.3352   20.4336 O   0  0  0  0  0  0  0  0  0  0  0  0
    8.8372  -14.6454   20.5965 C   0  0  2  0  0  0  0  0  0  0  0  0
    8.7663  -15.7765   19.7102 N   0  0  0  0  0  0  0  0  0  0  0  0
    8.9324  -15.0724   21.9993 C   0  0  0  0  0  0  0  0  0  0  0  0
    8.8374  -16.2911   22.2805 O   0  0  0  0  0  0  0  0  0  0  0  0
    9.1243  -14.2039   23.0617 O   0  0  0  0  0  0  0  0  0  0  0  0
  2  1  1  6
  2  3  1  0
  3  4  1  0
  4  5  2  0
  6  2  1  0
  7  6  2  0
  8  4  1  0
  9  6  1  0
 10  9  1  0
 10 11  1  1
 11 12  1  0
 12 13  1  0
 13 17  1  0
 14 13  2  0
 15 10  1  0
 16 15  2  0
 19 18  1  6
 19 21  1  0
 19 20  1  0
 21 22  1  6
 22 15  1  0
 23 21  1  0
 23 25  1  0
 24 23  2  0
M  END
$$$$
