DET.pdb
     RDKit          3D

 25 24  0  0  1  0  0  0  0  0999 V2000
    9.7607  -16.6417   19.7173 N   0  0  0  0  0  0  0  0  0  0  0  0
    8.3953  -16.0574   19.7479 C   0  0  1  0  0  0  0  0  0  0  0  0
    7.5873  -16.9630   18.8567 C   0  0  0  0  0  0  0  0  0  0  0  0
    7.9169  -16.9819   17.4459 C   0  0  0  0  0  0  0  0  0  0  0  0
    7.9497  -16.0499   16.6250 O   0  0  0  0  0  0  0  0  0  0  0  0
    7.9720  -16.1683   21.1674 C   0  0  0  0  0  0  0  0  0  0  0  0
    6.7754  -15.8912   21.4610 O   0  0  0  0  0  0  0  0  0  0  0  0
    8.2560  -18.2459   16.9015 O   0  0  0  0  0  0  0  0  0  0  0  0
    8.8099  -16.5674   22.2296 N   0  0  0  0  0  0  0  0  0  0  0  0
    8.2486  -16.7321   23.5995 C   0  0  1  0  0  0  0  0  0  0  0  0
    8.9681  -17.8856   24.2216 C   0  0  0  0  0  0  0  0  0  0  0  0
    9.9203  -18.6383   23.3748 C   0  0  0  0  0  0  0  0  0  0  0  0
   10.5387  -19.7048   24.2203 C   0  0  0  0  0  0  0  0  0  0  0  0
   11.3191  -19.3828   25.1396 O   0  0  0  0  0  0  0  0  0  0  0  0
    8.5482  -15.4851   24.3245 C   0  0  0  0  0  0  0  0  0  0  0  0
    9.6954  -14.9883   24.1922 O   0  0  0  0  0  0  0  0  0  0  0  0
   10.2547  -21.0254   23.9923 O   0  0  0  0  0  0  0  0  0  0  0  0
    6.6271  -11.9982   24.4461 C   0  0  0  0  0  0  0  0  0  0  0  0
    6.9513  -12.5311   25.8065 C   0  0  1  0  0  0  0  0  0  0  0  0
    5.8121  -13.1038   26.3431 O   0  0  0  0  0  0  0  0  0  0  0  0
    8.0373  -13.5792   25.8019 C   0  0  2  0  0  0  0  0  0  0  0  0
    7.6266  -14.8002   25.1614 N   0  0  0  0  0  0  0  0  0  0  0  0
    8.5850  -13.8375   27.1408 C   0  0  0  0  0  0  0  0  0  0  0  0
    9.0865  -12.8918   27.7945 O   0  0  0  0  0  0  0  0  0  0  0  0
    8.5878  -15.0823   27.7493 O   0  0  0  0  0  0  0  0  0  0  0  0
  2  1  1  1
  2  3  1  0
  3  4  1  0
  4  5  2  0
  6  2  1  0
  7  6  2  0
  8  4  1  0
  9  6  1  0
 10  9  1  0
 10 11  1  1
 11 12  1  0
 12 13  1  0
 13 17  1  0
 14 13  2  0
 15 10  1  0
 16 15  2  0
 19 18  1  6
 19 21  1  0
 19 20  1  0
 21 22  1  1
 22 15  1  0
 23 21  1  0
 23 25  1  0
 24 23  2  0
M  END
$$$$
