DET.pdb
     RDKit          3D

 25 24  0  0  1  0  0  0  0  0999 V2000
    9.6407  -18.1084   20.0827 N   0  0  0  0  0  0  0  0  0  0  0  0
    9.4177  -16.6697   20.3776 C   0  0  1  0  0  0  0  0  0  0  0  0
    8.2829  -16.2790   19.4683 C   0  0  0  0  0  0  0  0  0  0  0  0
    8.5354  -16.2862   18.0416 C   0  0  0  0  0  0  0  0  0  0  0  0
    9.4639  -15.7715   17.3963 O   0  0  0  0  0  0  0  0  0  0  0  0
    9.0091  -16.6389   21.8054 C   0  0  0  0  0  0  0  0  0  0  0  0
    7.7772  -16.5775   22.0767 O   0  0  0  0  0  0  0  0  0  0  0  0
    7.5910  -16.9805   17.2445 O   0  0  0  0  0  0  0  0  0  0  0  0
    9.8986  -16.6769   22.8994 N   0  0  0  0  0  0  0  0  0  0  0  0
    9.3694  -16.8111   24.2853 C   0  0  1  0  0  0  0  0  0  0  0  0
   10.3858  -17.5885   25.0587 C   0  0  0  0  0  0  0  0  0  0  0  0
   10.1570  -17.7642   26.5102 C   0  0  0  0  0  0  0  0  0  0  0  0
   11.3400  -18.4825   27.0752 C   0  0  0  0  0  0  0  0  0  0  0  0
   12.4268  -17.8792   27.1887 O   0  0  0  0  0  0  0  0  0  0  0  0
    9.2500  -15.4433   24.8193 C   0  0  0  0  0  0  0  0  0  0  0  0
   10.1779  -14.6318   24.5725 O   0  0  0  0  0  0  0  0  0  0  0  0
   11.2377  -19.7913   27.4663 O   0  0  0  0  0  0  0  0  0  0  0  0
    7.0823  -12.3899   24.2776 C   0  0  0  0  0  0  0  0  0  0  0  0
    7.0347  -12.7942   25.7177 C   0  0  1  0  0  0  0  0  0  0  0  0
    5.8779  -13.5202   25.9380 O   0  0  0  0  0  0  0  0  0  0  0  0
    8.2041  -13.6473   26.1448 C   0  0  2  0  0  0  0  0  0  0  0  0
    8.1534  -14.9744   25.5917 N   0  0  0  0  0  0  0  0  0  0  0  0
    8.3797  -13.6838   27.6033 C   0  0  0  0  0  0  0  0  0  0  0  0
    8.4655  -12.6071   28.2409 O   0  0  0  0  0  0  0  0  0  0  0  0
    8.4594  -14.8517   28.3446 O   0  0  0  0  0  0  0  0  0  0  0  0
  2  1  1  6
  2  3  1  0
  3  4  1  0
  4  5  2  0
  6  2  1  0
  7  6  2  0
  8  4  1  0
  9  6  1  0
 10  9  1  0
 10 11  1  1
 11 12  1  0
 12 13  1  0
 13 17  1  0
 14 13  2  0
 15 10  1  0
 16 15  2  0
 19 18  1  6
 19 21  1  0
 19 20  1  0
 21 22  1  1
 22 15  1  0
 23 21  1  0
 23 25  1  0
 24 23  2  0
M  END
$$$$
