DET.pdb
     RDKit          3D

 25 24  0  0  1  0  0  0  0  0999 V2000
    9.0857  -15.9745   19.6069 N   0  0  0  0  0  0  0  0  0  0  0  0
    7.7053  -15.9027   20.1509 C   0  0  1  0  0  0  0  0  0  0  0  0
    7.0158  -17.1066   19.5657 C   0  0  0  0  0  0  0  0  0  0  0  0
    7.2075  -17.3671   18.1533 C   0  0  0  0  0  0  0  0  0  0  0  0
    7.0275  -16.6213   17.1761 O   0  0  0  0  0  0  0  0  0  0  0  0
    7.8747  -16.0310   21.6210 C   0  0  0  0  0  0  0  0  0  0  0  0
    6.8445  -16.1977   22.3323 O   0  0  0  0  0  0  0  0  0  0  0  0
    7.6699  -18.6637   17.8153 O   0  0  0  0  0  0  0  0  0  0  0  0
    9.1118  -15.9846   22.2970 N   0  0  0  0  0  0  0  0  0  0  0  0
    9.1707  -16.2501   23.7615 C   0  0  1  0  0  0  0  0  0  0  0  0
   10.5407  -16.7765   24.0468 C   0  0  0  0  0  0  0  0  0  0  0  0
   10.8962  -18.1018   23.4924 C   0  0  0  0  0  0  0  0  0  0  0  0
   12.3157  -18.3866   23.8648 C   0  0  0  0  0  0  0  0  0  0  0  0
   13.1690  -18.5284   22.9651 O   0  0  0  0  0  0  0  0  0  0  0  0
    8.9673  -14.9521   24.4280 C   0  0  0  0  0  0  0  0  0  0  0  0
    9.6118  -13.9620   23.9981 O   0  0  0  0  0  0  0  0  0  0  0  0
   12.6819  -18.4920   25.1806 O   0  0  0  0  0  0  0  0  0  0  0  0
    6.5275  -12.2365   24.5591 C   0  0  0  0  0  0  0  0  0  0  0  0
    6.7345  -12.7381   25.9537 C   0  0  1  0  0  0  0  0  0  0  0  0
    5.7236  -13.6315   26.2600 O   0  0  0  0  0  0  0  0  0  0  0  0
    8.0526  -13.4461   26.1519 C   0  0  2  0  0  0  0  0  0  0  0  0
    8.0871  -14.7396   25.5230 N   0  0  0  0  0  0  0  0  0  0  0  0
    8.4474  -13.5295   27.5649 C   0  0  0  0  0  0  0  0  0  0  0  0
    8.7179  -14.6477   28.0643 O   0  0  0  0  0  0  0  0  0  0  0  0
    8.5450  -12.4339   28.4075 O   0  0  0  0  0  0  0  0  0  0  0  0
  2  1  1  6
  2  3  1  0
  3  4  1  0
  4  5  2  0
  6  2  1  0
  7  6  2  0
  8  4  1  0
  9  6  1  0
 10  9  1  0
 10 11  1  6
 11 12  1  0
 12 13  1  0
 13 17  1  0
 14 13  2  0
 15 10  1  0
 16 15  2  0
 19 18  1  6
 19 21  1  0
 19 20  1  0
 21 22  1  1
 22 15  1  0
 23 21  1  0
 23 25  1  0
 24 23  2  0
M  END
$$$$
