DET.pdb
     RDKit          3D

 25 24  0  0  1  0  0  0  0  0999 V2000
   11.3186  -17.5571   18.3873 N   0  0  0  0  0  0  0  0  0  0  0  0
   10.0195  -18.0626   18.9004 C   0  0  1  0  0  0  0  0  0  0  0  0
    9.9506  -19.4797   18.3962 C   0  0  0  0  0  0  0  0  0  0  0  0
   10.1615  -19.6971   16.9793 C   0  0  0  0  0  0  0  0  0  0  0  0
    9.6610  -19.1144   16.0028 O   0  0  0  0  0  0  0  0  0  0  0  0
   10.1564  -18.0148   20.3788 C   0  0  0  0  0  0  0  0  0  0  0  0
    9.2423  -18.5271   21.0838 O   0  0  0  0  0  0  0  0  0  0  0  0
   11.0734  -20.7261   16.6350 O   0  0  0  0  0  0  0  0  0  0  0  0
   11.2426  -17.4381   21.0695 N   0  0  0  0  0  0  0  0  0  0  0  0
   11.3074  -17.5181   22.5555 C   0  0  1  0  0  0  0  0  0  0  0  0
   12.7537  -17.4409   22.9262 C   0  0  0  0  0  0  0  0  0  0  0  0
   13.6712  -18.4331   22.3228 C   0  0  0  0  0  0  0  0  0  0  0  0
   15.0552  -18.1206   22.7935 C   0  0  0  0  0  0  0  0  0  0  0  0
   15.6147  -17.0758   22.4019 O   0  0  0  0  0  0  0  0  0  0  0  0
   10.5798  -16.3438   23.0674 C   0  0  0  0  0  0  0  0  0  0  0  0
   11.2026  -15.2548   23.1487 O   0  0  0  0  0  0  0  0  0  0  0  0
   15.7080  -18.9699   23.6472 O   0  0  0  0  0  0  0  0  0  0  0  0
    8.0927  -13.9521   21.9276 C   0  0  0  0  0  0  0  0  0  0  0  0
    7.5752  -14.5534   23.1966 C   0  0  1  0  0  0  0  0  0  0  0  0
    6.6664  -15.5471   22.8800 O   0  0  0  0  0  0  0  0  0  0  0  0
    8.6520  -15.1687   24.0567 C   0  0  2  0  0  0  0  0  0  0  0  0
    9.2178  -16.3552   23.4721 N   0  0  0  0  0  0  0  0  0  0  0  0
    8.2084  -15.4134   25.4361 C   0  0  0  0  0  0  0  0  0  0  0  0
    8.2783  -16.5727   25.9096 O   0  0  0  0  0  0  0  0  0  0  0  0
    7.7054  -14.4307   26.2735 O   0  0  0  0  0  0  0  0  0  0  0  0
  2  1  1  6
  2  3  1  0
  3  4  1  0
  4  5  2  0
  6  2  1  0
  7  6  2  0
  8  4  1  0
  9  6  1  0
 10  9  1  0
 10 11  1  6
 11 12  1  0
 12 13  1  0
 13 17  1  0
 14 13  2  0
 15 10  1  0
 16 15  2  0
 19 18  1  6
 19 21  1  0
 19 20  1  0
 21 22  1  6
 22 15  1  0
 23 21  1  0
 23 25  1  0
 24 23  2  0
M  END
$$$$
