DET.pdb
     RDKit          3D

 25 24  0  0  1  0  0  0  0  0999 V2000
   10.6890  -19.0393   20.6686 N   0  0  0  0  0  0  0  0  0  0  0  0
   11.2359  -17.7945   21.2669 C   0  0  1  0  0  0  0  0  0  0  0  0
   11.1294  -16.7772   20.1620 C   0  0  0  0  0  0  0  0  0  0  0  0
   12.1861  -16.7521   19.1710 C   0  0  0  0  0  0  0  0  0  0  0  0
   12.1335  -16.4805   17.9598 O   0  0  0  0  0  0  0  0  0  0  0  0
   10.3138  -17.4813   22.3886 C   0  0  0  0  0  0  0  0  0  0  0  0
    9.0700  -17.5273   22.1747 O   0  0  0  0  0  0  0  0  0  0  0  0
   13.4838  -17.0847   19.6344 O   0  0  0  0  0  0  0  0  0  0  0  0
   10.7208  -17.1350   23.6940 N   0  0  0  0  0  0  0  0  0  0  0  0
    9.7288  -17.1241   24.8052 C   0  0  1  0  0  0  0  0  0  0  0  0
   10.3155  -17.9410   25.9114 C   0  0  0  0  0  0  0  0  0  0  0  0
    9.7346  -17.7838   27.2635 C   0  0  0  0  0  0  0  0  0  0  0  0
   10.5569  -18.5969   28.2109 C   0  0  0  0  0  0  0  0  0  0  0  0
   11.3034  -19.4913   27.7629 O   0  0  0  0  0  0  0  0  0  0  0  0
    9.5860  -15.7181   25.2214 C   0  0  0  0  0  0  0  0  0  0  0  0
   10.6305  -15.0267   25.3283 O   0  0  0  0  0  0  0  0  0  0  0  0
   10.4953  -18.3665   29.5598 O   0  0  0  0  0  0  0  0  0  0  0  0
    6.8952  -12.8782   23.9668 C   0  0  0  0  0  0  0  0  0  0  0  0
    7.0624  -12.9953   25.4493 C   0  0  1  0  0  0  0  0  0  0  0  0
    6.0003  -13.7190   25.9612 O   0  0  0  0  0  0  0  0  0  0  0  0
    8.3369  -13.6914   25.8605 C   0  0  2  0  0  0  0  0  0  0  0  0
    8.3459  -15.0858   25.5064 N   0  0  0  0  0  0  0  0  0  0  0  0
    8.6571  -13.5001   27.2818 C   0  0  0  0  0  0  0  0  0  0  0  0
    8.8616  -14.5022   28.0079 O   0  0  0  0  0  0  0  0  0  0  0  0
    8.7520  -12.2607   27.8941 O   0  0  0  0  0  0  0  0  0  0  0  0
  2  1  1  6
  2  3  1  0
  3  4  1  0
  4  5  2  0
  6  2  1  0
  7  6  2  0
  8  4  1  0
  9  6  1  0
 10  9  1  0
 10 11  1  1
 11 12  1  0
 12 13  1  0
 13 17  1  0
 14 13  2  0
 15 10  1  0
 16 15  2  0
 19 18  1  6
 19 21  1  0
 19 20  1  0
 21 22  1  1
 22 15  1  0
 23 21  1  0
 23 25  1  0
 24 23  2  0
M  END
$$$$
