DET.pdb
     RDKit          3D

 25 24  0  0  1  0  0  0  0  0999 V2000
    8.9271  -17.2502   20.2752 N   0  0  0  0  0  0  0  0  0  0  0  0
    7.6761  -16.4665   20.4407 C   0  0  1  0  0  0  0  0  0  0  0  0
    6.6372  -17.2718   19.7062 C   0  0  0  0  0  0  0  0  0  0  0  0
    6.9603  -17.7181   18.3662 C   0  0  0  0  0  0  0  0  0  0  0  0
    8.0367  -17.6632   17.7481 O   0  0  0  0  0  0  0  0  0  0  0  0
    7.4283  -16.4610   21.9053 C   0  0  0  0  0  0  0  0  0  0  0  0
    6.3436  -15.9727   22.3293 O   0  0  0  0  0  0  0  0  0  0  0  0
    5.9010  -18.3099   17.6335 O   0  0  0  0  0  0  0  0  0  0  0  0
    8.3181  -16.9679   22.8753 N   0  0  0  0  0  0  0  0  0  0  0  0
    7.9519  -16.9217   24.3184 C   0  0  1  0  0  0  0  0  0  0  0  0
    8.7658  -17.9739   25.0009 C   0  0  0  0  0  0  0  0  0  0  0  0
    8.6671  -18.0700   26.4744 C   0  0  0  0  0  0  0  0  0  0  0  0
    9.6203  -19.1287   26.9276 C   0  0  0  0  0  0  0  0  0  0  0  0
   10.8096  -19.0847   26.5516 O   0  0  0  0  0  0  0  0  0  0  0  0
    8.3304  -15.5823   24.8009 C   0  0  0  0  0  0  0  0  0  0  0  0
    9.3860  -15.0703   24.3492 O   0  0  0  0  0  0  0  0  0  0  0  0
    9.1972  -20.1405   27.7485 O   0  0  0  0  0  0  0  0  0  0  0  0
    6.4991  -12.1609   24.6684 C   0  0  0  0  0  0  0  0  0  0  0  0
    6.9588  -12.4721   26.0581 C   0  0  1  0  0  0  0  0  0  0  0  0
    5.8820  -12.9428   26.7880 O   0  0  0  0  0  0  0  0  0  0  0  0
    8.0473  -13.5160   26.1150 C   0  0  2  0  0  0  0  0  0  0  0  0
    7.5808  -14.8243   25.7404 N   0  0  0  0  0  0  0  0  0  0  0  0
    8.7390  -13.5473   27.4111 C   0  0  0  0  0  0  0  0  0  0  0  0
    8.8148  -14.6280   28.0433 O   0  0  0  0  0  0  0  0  0  0  0  0
    9.3288  -12.4410   28.0010 O   0  0  0  0  0  0  0  0  0  0  0  0
  2  1  1  1
  2  3  1  0
  3  4  1  0
  4  5  2  0
  6  2  1  0
  7  6  2  0
  8  4  1  0
  9  6  1  0
 10  9  1  0
 10 11  1  1
 11 12  1  0
 12 13  1  0
 13 17  1  0
 14 13  2  0
 15 10  1  0
 16 15  2  0
 19 18  1  6
 19 21  1  0
 19 20  1  0
 21 22  1  1
 22 15  1  0
 23 21  1  0
 23 25  1  0
 24 23  2  0
M  END
$$$$
