DET.pdb
     RDKit          3D

 25 24  0  0  1  0  0  0  0  0999 V2000
   11.2567  -17.1186   18.0872 N   0  0  0  0  0  0  0  0  0  0  0  0
   10.0405  -17.4917   18.8540 C   0  0  1  0  0  0  0  0  0  0  0  0
    9.5558  -18.7511   18.1858 C   0  0  0  0  0  0  0  0  0  0  0  0
    9.0553  -18.6398   16.8307 C   0  0  0  0  0  0  0  0  0  0  0  0
    9.6312  -18.2529   15.8000 O   0  0  0  0  0  0  0  0  0  0  0  0
   10.5322  -17.7580   20.2302 C   0  0  0  0  0  0  0  0  0  0  0  0
    9.7347  -18.2707   21.0645 O   0  0  0  0  0  0  0  0  0  0  0  0
    7.7064  -19.0263   16.6302 O   0  0  0  0  0  0  0  0  0  0  0  0
   11.8384  -17.4838   20.6866 N   0  0  0  0  0  0  0  0  0  0  0  0
   12.2283  -17.8315   22.0815 C   0  0  1  0  0  0  0  0  0  0  0  0
   13.7211  -17.7706   22.1370 C   0  0  0  0  0  0  0  0  0  0  0  0
   14.4690  -19.0239   21.8918 C   0  0  0  0  0  0  0  0  0  0  0  0
   15.9280  -18.7012   21.9377 C   0  0  0  0  0  0  0  0  0  0  0  0
   16.7630  -19.6260   21.8642 O   0  0  0  0  0  0  0  0  0  0  0  0
   11.6368  -16.7979   22.9487 C   0  0  0  0  0  0  0  0  0  0  0  0
   12.1884  -15.6686   22.9790 O   0  0  0  0  0  0  0  0  0  0  0  0
   16.3500  -17.4037   22.0591 O   0  0  0  0  0  0  0  0  0  0  0  0
    9.0225  -14.4527   22.8759 C   0  0  0  0  0  0  0  0  0  0  0  0
    8.8140  -15.2280   24.1388 C   0  0  1  0  0  0  0  0  0  0  0  0
    7.8453  -16.1901   23.9156 O   0  0  0  0  0  0  0  0  0  0  0  0
   10.0571  -15.9290   24.6298 C   0  0  2  0  0  0  0  0  0  0  0  0
   10.4800  -16.9873   23.7518 N   0  0  0  0  0  0  0  0  0  0  0  0
    9.9340  -16.4028   26.0153 C   0  0  0  0  0  0  0  0  0  0  0  0
   10.0901  -17.6218   26.2660 O   0  0  0  0  0  0  0  0  0  0  0  0
    9.6506  -15.5793   27.0930 O   0  0  0  0  0  0  0  0  0  0  0  0
  2  1  1  6
  2  3  1  0
  3  4  1  0
  4  5  2  0
  6  2  1  0
  7  6  2  0
  8  4  1  0
  9  6  1  0
 10  9  1  0
 10 11  1  6
 11 12  1  0
 12 13  1  0
 13 17  1  0
 14 13  2  0
 15 10  1  0
 16 15  2  0
 19 18  1  6
 19 21  1  0
 19 20  1  0
 21 22  1  6
 22 15  1  0
 23 21  1  0
 23 25  1  0
 24 23  2  0
M  END
$$$$
