MAV.pdb
     RDKit          3D

 21 20  0  0  1  0  0  0  0  0999 V2000
   26.1943  -19.3565   -7.2633 C   0  0  0  0  0  0  0  0  0  0  0  0
   27.7288  -20.2466   -6.8335 S   0  0  0  0  0  0  0  0  0  0  0  0
   28.3580  -21.0628   -8.3009 C   0  0  0  0  0  0  0  0  0  0  0  0
   27.3856  -20.8851   -9.4711 C   0  0  0  0  0  0  0  0  0  0  0  0
   27.8651  -21.6168  -10.6900 C   0  0  2  0  0  0  0  0  0  0  0  0
   29.1702  -21.1451  -11.1065 N   0  0  0  0  0  0  0  0  0  0  0  0
   26.8486  -21.3675  -11.7643 C   0  0  0  0  0  0  0  0  0  0  0  0
   26.9347  -20.3773  -12.5246 O   0  0  0  0  0  0  0  0  0  0  0  0
   24.1992  -23.5592  -13.3381 C   0  0  0  0  0  0  0  0  0  0  0  0
   24.8934  -22.2556  -13.1104 C   0  0  2  0  0  0  0  0  0  0  0  0
   25.7480  -22.2455  -11.9615 N   0  0  0  0  0  0  0  0  0  0  0  0
   23.9432  -21.1002  -13.1093 C   0  0  0  0  0  0  0  0  0  0  0  0
   23.5858  -20.6192  -12.0059 O   0  0  0  0  0  0  0  0  0  0  0  0
   24.2079  -18.0562  -15.6646 C   0  0  0  0  0  0  0  0  0  0  0  0
   22.7773  -18.5497  -15.5873 C   0  0  2  0  0  0  0  0  0  0  0  0
   21.7952  -17.3980  -15.6394 C   0  0  0  0  0  0  0  0  0  0  0  0
   22.5435  -19.4025  -14.3681 C   0  0  2  0  0  0  0  0  0  0  0  0
   23.4280  -20.5231  -14.2816 N   0  0  0  0  0  0  0  0  0  0  0  0
   21.1091  -19.7970  -14.3072 C   0  0  0  0  0  0  0  0  0  0  0  0
   20.7544  -20.9569  -14.9813 O   0  0  0  0  0  0  0  0  0  0  0  0
   20.2422  -19.1570  -13.7004 O   0  0  0  0  0  0  0  0  0  0  0  0
  2  1  1  0
  3  2  1  0
  4  3  1  0
  5  4  1  0
  5  6  1  6
  5  7  1  0
  7  8  2  0
 10  9  1  1
 10 12  1  0
 11  7  1  0
 11 10  1  0
 12 13  2  0
 12 18  1  0
 15 16  1  1
 15 14  1  0
 17 15  1  0
 17 18  1  6
 19 17  1  0
 19 20  1  0
 21 19  2  0
M  END
$$$$
