MAV.pdb
     RDKit          3D

 21 20  0  0  1  0  0  0  0  0999 V2000
   13.4640  -16.1175  -16.4788 C   0  0  0  0  0  0  0  0  0  0  0  0
   14.8025  -14.9132  -16.1790 S   0  0  0  0  0  0  0  0  0  0  0  0
   15.9779  -15.0020  -17.5304 C   0  0  0  0  0  0  0  0  0  0  0  0
   17.2140  -14.1517  -17.2216 C   0  0  0  0  0  0  0  0  0  0  0  0
   18.2293  -14.2522  -18.3217 C   0  0  2  0  0  0  0  0  0  0  0  0
   18.8512  -15.5606  -18.3448 N   0  0  0  0  0  0  0  0  0  0  0  0
   19.2527  -13.1884  -18.0558 C   0  0  0  0  0  0  0  0  0  0  0  0
   20.2142  -13.3895  -17.2805 O   0  0  0  0  0  0  0  0  0  0  0  0
   19.9041   -9.6865  -19.4057 C   0  0  0  0  0  0  0  0  0  0  0  0
   20.0833  -10.8279  -18.4579 C   0  0  2  0  0  0  0  0  0  0  0  0
   19.1713  -11.9106  -18.6736 N   0  0  0  0  0  0  0  0  0  0  0  0
   20.0932  -10.3825  -17.0299 C   0  0  0  0  0  0  0  0  0  0  0  0
   19.0152  -10.4092  -16.3864 O   0  0  0  0  0  0  0  0  0  0  0  0
   22.3745   -9.9406  -12.7574 C   0  0  0  0  0  0  0  0  0  0  0  0
   22.4303  -10.2456  -14.2405 C   0  0  2  0  0  0  0  0  0  0  0  0
   23.7970   -9.9349  -14.8144 C   0  0  0  0  0  0  0  0  0  0  0  0
   21.3495   -9.5245  -15.0023 C   0  0  2  0  0  0  0  0  0  0  0  0
   21.2486   -9.9347  -16.3687 N   0  0  0  0  0  0  0  0  0  0  0  0
   21.5369   -8.0547  -14.8563 C   0  0  0  0  0  0  0  0  0  0  0  0
   21.1859   -7.5019  -13.6329 O   0  0  0  0  0  0  0  0  0  0  0  0
   21.9790   -7.3230  -15.7499 O   0  0  0  0  0  0  0  0  0  0  0  0
  2  1  1  0
  3  2  1  0
  4  3  1  0
  5  4  1  0
  5  6  1  1
  5  7  1  0
  7  8  2  0
 10  9  1  6
 10 12  1  0
 11  7  1  0
 11 10  1  0
 12 13  2  0
 12 18  1  0
 15 16  1  6
 15 14  1  0
 17 15  1  0
 17 18  1  6
 19 17  1  0
 19 20  1  0
 21 19  2  0
M  END
$$$$
