MAV.pdb
     RDKit          3D

 21 20  0  0  1  0  0  0  0  0999 V2000
   34.7791  -30.6885    2.3609 C   0  0  0  0  0  0  0  0  0  0  0  0
   35.3471  -29.2915    1.3324 S   0  0  0  0  0  0  0  0  0  0  0  0
   36.9517  -28.7502    1.9221 C   0  0  0  0  0  0  0  0  0  0  0  0
   36.7902  -27.7105    3.0353 C   0  0  0  0  0  0  0  0  0  0  0  0
   38.1154  -27.3590    3.6448 C   0  0  2  0  0  0  0  0  0  0  0  0
   38.8160  -28.5435    4.0979 N   0  0  0  0  0  0  0  0  0  0  0  0
   37.8251  -26.4463    4.7990 C   0  0  0  0  0  0  0  0  0  0  0  0
   37.2728  -26.8682    5.8396 O   0  0  0  0  0  0  0  0  0  0  0  0
   38.7995  -22.9003    5.7187 C   0  0  0  0  0  0  0  0  0  0  0  0
   37.9565  -24.1301    5.8197 C   0  0  2  0  0  0  0  0  0  0  0  0
   38.1658  -25.0666    4.7569 N   0  0  0  0  0  0  0  0  0  0  0  0
   36.5069  -23.8099    6.0040 C   0  0  0  0  0  0  0  0  0  0  0  0
   35.7968  -23.6372    4.9829 O   0  0  0  0  0  0  0  0  0  0  0  0
   34.0628  -25.7921    8.1928 C   0  0  0  0  0  0  0  0  0  0  0  0
   33.9179  -24.3310    8.5671 C   0  0  2  0  0  0  0  0  0  0  0  0
   32.4703  -23.9724    8.8315 C   0  0  0  0  0  0  0  0  0  0  0  0
   34.5160  -23.4233    7.5247 C   0  0  2  0  0  0  0  0  0  0  0  0
   35.8962  -23.6920    7.2633 N   0  0  0  0  0  0  0  0  0  0  0  0
   34.2687  -22.0045    7.9026 C   0  0  0  0  0  0  0  0  0  0  0  0
   35.3362  -21.3144    8.4591 O   0  0  0  0  0  0  0  0  0  0  0  0
   33.1859  -21.4276    7.7478 O   0  0  0  0  0  0  0  0  0  0  0  0
  2  1  1  0
  3  2  1  0
  4  3  1  0
  5  4  1  0
  5  6  1  1
  5  7  1  0
  7  8  2  0
 10  9  1  6
 10 12  1  0
 11  7  1  0
 11 10  1  0
 12 13  2  0
 12 18  1  0
 15 16  1  6
 15 14  1  0
 17 15  1  0
 17 18  1  1
 19 17  1  0
 19 20  1  0
 21 19  2  0
M  END
$$$$
