MAV.pdb
     RDKit          3D

 21 20  0  0  1  0  0  0  0  0999 V2000
   25.6114  -20.1558   -6.9114 C   0  0  0  0  0  0  0  0  0  0  0  0
   27.3960  -19.9023   -7.1992 S   0  0  0  0  0  0  0  0  0  0  0  0
   27.9005  -20.8771   -8.6171 C   0  0  0  0  0  0  0  0  0  0  0  0
   26.9227  -20.6778   -9.7793 C   0  0  0  0  0  0  0  0  0  0  0  0
   27.2898  -21.5409  -10.9504 C   0  0  2  0  0  0  0  0  0  0  0  0
   28.6410  -21.2716  -11.3984 N   0  0  0  0  0  0  0  0  0  0  0  0
   26.3037  -21.2278  -12.0363 C   0  0  0  0  0  0  0  0  0  0  0  0
   26.4304  -20.2133  -12.7578 O   0  0  0  0  0  0  0  0  0  0  0  0
   23.6558  -23.2840  -13.7731 C   0  0  0  0  0  0  0  0  0  0  0  0
   24.3392  -21.9973  -13.4406 C   0  0  2  0  0  0  0  0  0  0  0  0
   25.1870  -22.0707  -12.2890 N   0  0  0  0  0  0  0  0  0  0  0  0
   23.3807  -20.8519  -13.3559 C   0  0  0  0  0  0  0  0  0  0  0  0
   23.0397  -20.4386  -12.2203 O   0  0  0  0  0  0  0  0  0  0  0  0
   21.0365  -17.0653  -15.5625 C   0  0  0  0  0  0  0  0  0  0  0  0
   21.9746  -18.2498  -15.6757 C   0  0  2  0  0  0  0  0  0  0  0  0
   21.7551  -19.0028  -16.9714 C   0  0  0  0  0  0  0  0  0  0  0  0
   21.8589  -19.1719  -14.4905 C   0  0  2  0  0  0  0  0  0  0  0  0
   22.8403  -20.2123  -14.4835 N   0  0  0  0  0  0  0  0  0  0  0  0
   20.4674  -19.6944  -14.4033 C   0  0  0  0  0  0  0  0  0  0  0  0
   19.5797  -18.9704  -13.6203 O   0  0  0  0  0  0  0  0  0  0  0  0
   20.0761  -20.7157  -14.9805 O   0  0  0  0  0  0  0  0  0  0  0  0
  2  1  1  0
  3  2  1  0
  4  3  1  0
  5  4  1  0
  5  6  1  6
  5  7  1  0
  7  8  2  0
 10  9  1  1
 10 12  1  0
 11  7  1  0
 11 10  1  0
 12 13  2  0
 12 18  1  0
 15 16  1  6
 15 14  1  0
 17 15  1  0
 17 18  1  6
 19 17  1  0
 19 20  1  0
 21 19  2  0
M  END
$$$$
