MAV.pdb
     RDKit          3D

 21 20  0  0  1  0  0  0  0  0999 V2000
   29.6091  -18.7470   -6.4124 C   0  0  0  0  0  0  0  0  0  0  0  0
   28.3406  -18.9719   -5.1193 S   0  0  0  0  0  0  0  0  0  0  0  0
   27.0187  -19.9922   -5.7727 C   0  0  0  0  0  0  0  0  0  0  0  0
   26.6788  -19.5746   -7.2067 C   0  0  0  0  0  0  0  0  0  0  0  0
   25.5810  -20.4260   -7.7733 C   0  0  2  0  0  0  0  0  0  0  0  0
   25.8575  -21.8354   -7.5823 N   0  0  0  0  0  0  0  0  0  0  0  0
   25.4997  -20.0997   -9.2350 C   0  0  0  0  0  0  0  0  0  0  0  0
   25.2317  -18.9429   -9.6297 O   0  0  0  0  0  0  0  0  0  0  0  0
   26.2656  -21.8248  -12.5069 C   0  0  0  0  0  0  0  0  0  0  0  0
   25.4453  -20.9395  -11.6257 C   0  0  2  0  0  0  0  0  0  0  0  0
   25.7240  -21.0908  -10.2293 N   0  0  0  0  0  0  0  0  0  0  0  0
   23.9822  -21.0480  -11.9177 C   0  0  0  0  0  0  0  0  0  0  0  0
   23.2873  -21.8245  -11.2172 O   0  0  0  0  0  0  0  0  0  0  0  0
   21.9278  -18.1053  -14.2952 C   0  0  0  0  0  0  0  0  0  0  0  0
   21.2701  -19.0702  -13.3296 C   0  0  2  0  0  0  0  0  0  0  0  0
   21.1894  -18.4832  -11.9357 C   0  0  0  0  0  0  0  0  0  0  0  0
   21.9647  -20.4065  -13.3120 C   0  0  2  0  0  0  0  0  0  0  0  0
   23.3426  -20.3246  -12.9376 N   0  0  0  0  0  0  0  0  0  0  0  0
   21.7648  -21.0860  -14.6217 C   0  0  0  0  0  0  0  0  0  0  0  0
   20.4947  -21.5831  -14.8765 O   0  0  0  0  0  0  0  0  0  0  0  0
   22.6536  -21.2243  -15.4704 O   0  0  0  0  0  0  0  0  0  0  0  0
  2  1  1  0
  3  2  1  0
  4  3  1  0
  5  4  1  0
  5  6  1  6
  5  7  1  0
  7  8  2  0
 10  9  1  6
 10 12  1  0
 11  7  1  0
 11 10  1  0
 12 13  2  0
 12 18  1  0
 15 16  1  1
 15 14  1  0
 17 15  1  0
 17 18  1  6
 19 17  1  0
 19 20  1  0
 21 19  2  0
M  END
$$$$
