MAV.pdb
     RDKit          3D

 21 20  0  0  1  0  0  0  0  0999 V2000
   27.6446  -12.1528  -14.9293 C   0  0  0  0  0  0  0  0  0  0  0  0
   27.5904  -13.9300  -15.3422 S   0  0  0  0  0  0  0  0  0  0  0  0
   25.8882  -14.4044  -15.6473 C   0  0  0  0  0  0  0  0  0  0  0  0
   25.0648  -13.1903  -16.0883 C   0  0  0  0  0  0  0  0  0  0  0  0
   23.6395  -13.5722  -16.3604 C   0  0  2  0  0  0  0  0  0  0  0  0
   23.5499  -14.5298  -17.4439 N   0  0  0  0  0  0  0  0  0  0  0  0
   22.9196  -12.3057  -16.7173 C   0  0  0  0  0  0  0  0  0  0  0  0
   23.3545  -11.5376  -17.6043 O   0  0  0  0  0  0  0  0  0  0  0  0
   19.5378  -10.8072  -15.9168 C   0  0  0  0  0  0  0  0  0  0  0  0
   20.9746  -10.7300  -16.3204 C   0  0  2  0  0  0  0  0  0  0  0  0
   21.7154  -11.9279  -16.0627 N   0  0  0  0  0  0  0  0  0  0  0  0
   21.6560   -9.5212  -15.7615 C   0  0  0  0  0  0  0  0  0  0  0  0
   22.3405   -9.6486  -14.7165 O   0  0  0  0  0  0  0  0  0  0  0  0
   23.6064   -6.9606  -18.0091 C   0  0  0  0  0  0  0  0  0  0  0  0
   22.7152   -6.1946  -17.0525 C   0  0  2  0  0  0  0  0  0  0  0  0
   23.4059   -4.9498  -16.5354 C   0  0  0  0  0  0  0  0  0  0  0  0
   22.2402   -7.0593  -15.9146 C   0  0  2  0  0  0  0  0  0  0  0  0
   21.5704   -8.2470  -16.3461 N   0  0  0  0  0  0  0  0  0  0  0  0
   21.4162   -6.2420  -14.9818 C   0  0  0  0  0  0  0  0  0  0  0  0
   20.0431   -6.4355  -15.0331 O   0  0  0  0  0  0  0  0  0  0  0  0
   21.8853   -5.4209  -14.1849 O   0  0  0  0  0  0  0  0  0  0  0  0
  2  1  1  0
  3  2  1  0
  4  3  1  0
  5  4  1  0
  5  6  1  6
  5  7  1  0
  7  8  2  0
 10  9  1  1
 10 12  1  0
 11  7  1  0
 11 10  1  0
 12 13  2  0
 12 18  1  0
 15 16  1  1
 15 14  1  0
 17 15  1  0
 17 18  1  6
 19 17  1  0
 19 20  1  0
 21 19  2  0
M  END
$$$$
