WHP.pdb
     RDKit          3D

 32 35  0  0  1  0  0  0  0  0999 V2000
   23.7973  -21.5430  -17.4482 N   0  0  0  0  0  0  0  0  0  0  0  0
   23.5760  -21.0224  -16.1253 C   0  0  1  0  0  0  0  0  0  0  0  0
   22.6954  -21.9701  -15.3703 C   0  0  0  0  0  0  0  0  0  0  0  0
   21.3196  -21.4416  -15.1871 C   0  0  0  0  0  0  0  0  0  0  0  0
   20.1907  -21.7130  -15.9096 C   0  0  0  0  0  0  0  0  0  0  0  0
   19.1710  -21.0206  -15.4014 N   0  0  0  0  0  0  0  0  0  0  0  0
   19.6338  -20.3086  -14.3615 C   0  0  0  0  0  0  0  0  0  0  0  0
   19.0245  -19.4245  -13.4758 C   0  0  0  0  0  0  0  0  0  0  0  0
   19.7416  -18.8205  -12.4830 C   0  0  0  0  0  0  0  0  0  0  0  0
   21.0753  -19.0770  -12.3440 C   0  0  0  0  0  0  0  0  0  0  0  0
   21.7074  -19.9519  -13.2104 C   0  0  0  0  0  0  0  0  0  0  0  0
   20.9687  -20.5504  -14.2039 C   0  0  0  0  0  0  0  0  0  0  0  0
   24.8431  -20.8138  -15.3786 C   0  0  0  0  0  0  0  0  0  0  0  0
   25.7467  -21.6805  -15.5153 O   0  0  0  0  0  0  0  0  0  0  0  0
   25.0829  -19.7170  -14.5404 N   0  0  0  0  0  0  0  0  0  0  0  0
   26.2867  -19.6472  -13.7304 C   0  0  1  0  0  0  0  0  0  0  0  0
   26.7990  -18.2129  -13.7260 C   0  0  0  0  0  0  0  0  0  0  0  0
   27.3800  -17.8306  -15.0328 C   0  0  0  0  0  0  0  0  0  0  0  0
   27.5498  -18.6677  -16.1118 C   0  0  0  0  0  0  0  0  0  0  0  0
   28.0981  -17.9860  -17.1073 N   0  0  0  0  0  0  0  0  0  0  0  0
   28.2871  -16.7234  -16.6947 C   0  0  0  0  0  0  0  0  0  0  0  0
   27.8458  -16.6427  -15.4309 N   0  0  0  0  0  0  0  0  0  0  0  0
   25.9926  -20.0270  -12.2942 C   0  0  0  0  0  0  0  0  0  0  0  0
   24.9179  -19.5375  -11.8655 O   0  0  0  0  0  0  0  0  0  0  0  0
   26.8568  -20.8410  -11.5605 N   0  0  0  0  0  0  0  0  0  0  0  0
   27.9853  -21.5828  -12.1745 C   0  0  0  0  0  0  0  0  0  0  0  0
   29.0939  -21.2515  -11.2142 C   0  0  0  0  0  0  0  0  0  0  0  0
   28.4244  -20.8914   -9.9059 C   0  0  0  0  0  0  0  0  0  0  0  0
   26.9486  -21.2610  -10.2058 C   0  0  1  0  0  0  0  0  0  0  0  0
   26.0624  -20.7083   -9.2165 C   0  0  0  0  0  0  0  0  0  0  0  0
   25.6727  -19.3610   -9.3642 O   0  0  0  0  0  0  0  0  0  0  0  0
   25.6003  -21.2970   -8.2378 O   0  0  0  0  0  0  0  0  0  0  0  0
  2 13  1  0
  2  1  1  6
  3  2  1  0
  4  3  1  0
  4  5  2  0
  6  5  1  0
  7 12  2  0
  7  6  1  0
  8  7  1  0
  9 10  1  0
  9  8  2  0
 10 11  2  0
 11 12  1  0
 12  4  1  0
 13 14  2  0
 15 16  1  0
 15 13  1  0
 16 17  1  1
 18 17  1  0
 19 18  2  0
 20 21  1  0
 20 19  1  0
 21 22  2  0
 22 18  1  0
 23 16  1  0
 24 23  2  0
 25 23  1  0
 25 29  1  0
 26 25  1  0
 27 26  1  0
 27 28  1  0
 28 29  1  0
 29 30  1  1
 30 31  1  0
 32 30  2  0
M  END
$$$$
