WHP.pdb
     RDKit          3D

 32 35  0  0  1  0  0  0  0  0999 V2000
   27.2683  -18.1897  -19.1456 N   0  0  0  0  0  0  0  0  0  0  0  0
   26.1191  -18.0309  -18.2946 C   0  0  1  0  0  0  0  0  0  0  0  0
   24.8841  -18.3493  -19.0801 C   0  0  0  0  0  0  0  0  0  0  0  0
   24.0604  -17.1444  -19.3543 C   0  0  0  0  0  0  0  0  0  0  0  0
   24.2217  -16.1951  -20.3253 C   0  0  0  0  0  0  0  0  0  0  0  0
   23.2540  -15.2852  -20.2105 N   0  0  0  0  0  0  0  0  0  0  0  0
   22.4745  -15.6408  -19.1769 C   0  0  0  0  0  0  0  0  0  0  0  0
   21.3379  -15.0708  -18.6106 C   0  0  0  0  0  0  0  0  0  0  0  0
   20.7233  -15.6495  -17.5373 C   0  0  0  0  0  0  0  0  0  0  0  0
   21.2181  -16.8032  -17.0008 C   0  0  0  0  0  0  0  0  0  0  0  0
   22.3469  -17.3923  -17.5435 C   0  0  0  0  0  0  0  0  0  0  0  0
   22.9520  -16.7948  -18.6241 C   0  0  0  0  0  0  0  0  0  0  0  0
   26.1823  -18.8960  -17.0887 C   0  0  0  0  0  0  0  0  0  0  0  0
   26.4928  -20.1049  -17.2574 O   0  0  0  0  0  0  0  0  0  0  0  0
   25.9179  -18.4434  -15.7894 N   0  0  0  0  0  0  0  0  0  0  0  0
   25.8896  -19.3681  -14.6694 C   0  0  1  0  0  0  0  0  0  0  0  0
   26.3459  -18.6387  -13.4126 C   0  0  0  0  0  0  0  0  0  0  0  0
   26.3637  -19.5318  -12.2322 C   0  0  0  0  0  0  0  0  0  0  0  0
   27.3712  -20.4103  -11.9051 C   0  0  0  0  0  0  0  0  0  0  0  0
   27.0482  -21.0435  -10.7866 N   0  0  0  0  0  0  0  0  0  0  0  0
   25.8511  -20.5926  -10.3822 C   0  0  0  0  0  0  0  0  0  0  0  0
   25.4460  -19.6734  -11.2707 N   0  0  0  0  0  0  0  0  0  0  0  0
   24.4820  -19.8665  -14.4175 C   0  0  0  0  0  0  0  0  0  0  0  0
   23.6710  -18.9423  -14.1597 O   0  0  0  0  0  0  0  0  0  0  0  0
   24.1645  -21.2242  -14.4767 N   0  0  0  0  0  0  0  0  0  0  0  0
   25.0112  -22.2230  -15.1742 C   0  0  0  0  0  0  0  0  0  0  0  0
   25.0755  -23.3092  -14.1364 C   0  0  0  0  0  0  0  0  0  0  0  0
   23.8558  -23.1272  -13.2598 C   0  0  0  0  0  0  0  0  0  0  0  0
   23.0808  -22.0323  -14.0377 C   0  0  1  0  0  0  0  0  0  0  0  0
   22.0352  -21.4621  -13.2308 C   0  0  0  0  0  0  0  0  0  0  0  0
   20.7900  -22.1239  -13.2069 O   0  0  0  0  0  0  0  0  0  0  0  0
   22.1136  -20.4401  -12.5473 O   0  0  0  0  0  0  0  0  0  0  0  0
  2 13  1  0
  2  1  1  6
  3  2  1  0
  4  3  1  0
  4  5  2  0
  6  5  1  0
  7 12  2  0
  7  6  1  0
  8  7  1  0
  9 10  1  0
  9  8  2  0
 10 11  2  0
 11 12  1  0
 12  4  1  0
 13 14  2  0
 15 16  1  0
 15 13  1  0
 16 17  1  1
 18 17  1  0
 19 18  2  0
 20 21  1  0
 20 19  1  0
 21 22  2  0
 22 18  1  0
 23 16  1  0
 24 23  2  0
 25 23  1  0
 25 29  1  0
 26 25  1  0
 27 26  1  0
 27 28  1  0
 28 29  1  0
 29 30  1  1
 30 31  1  0
 32 30  2  0
M  END
$$$$
