WHP.pdb
     RDKit          3D

 32 35  0  0  1  0  0  0  0  0999 V2000
   28.3432  -20.0108   -9.9496 N   0  0  0  0  0  0  0  0  0  0  0  0
   27.4656  -21.1438  -10.0777 C   0  0  1  0  0  0  0  0  0  0  0  0
   26.6876  -21.3029   -8.8077 C   0  0  0  0  0  0  0  0  0  0  0  0
   26.9832  -20.2304   -7.8238 C   0  0  0  0  0  0  0  0  0  0  0  0
   26.4838  -18.9589   -7.7617 C   0  0  0  0  0  0  0  0  0  0  0  0
   27.0191  -18.3309   -6.7146 N   0  0  0  0  0  0  0  0  0  0  0  0
   27.8560  -19.1857   -6.1051 C   0  0  0  0  0  0  0  0  0  0  0  0
   28.6709  -19.0716   -4.9825 C   0  0  0  0  0  0  0  0  0  0  0  0
   29.4423  -20.1187   -4.5661 C   0  0  0  0  0  0  0  0  0  0  0  0
   29.4250  -21.3003   -5.2496 C   0  0  0  0  0  0  0  0  0  0  0  0
   28.6241  -21.4423   -6.3694 C   0  0  0  0  0  0  0  0  0  0  0  0
   27.8544  -20.3768   -6.7734 C   0  0  0  0  0  0  0  0  0  0  0  0
   26.5304  -21.0099  -11.2241 C   0  0  0  0  0  0  0  0  0  0  0  0
   26.3762  -19.8608  -11.7162 O   0  0  0  0  0  0  0  0  0  0  0  0
   25.8194  -22.0816  -11.7799 N   0  0  0  0  0  0  0  0  0  0  0  0
   25.0381  -21.9089  -12.9923 C   0  0  1  0  0  0  0  0  0  0  0  0
   25.2990  -23.0866  -13.9222 C   0  0  0  0  0  0  0  0  0  0  0  0
   24.5932  -22.9358  -15.2148 C   0  0  0  0  0  0  0  0  0  0  0  0
   23.4545  -23.6105  -15.5913 C   0  0  0  0  0  0  0  0  0  0  0  0
   23.1055  -23.2253  -16.8105 N   0  0  0  0  0  0  0  0  0  0  0  0
   23.9958  -22.3142  -17.2315 C   0  0  0  0  0  0  0  0  0  0  0  0
   24.8954  -22.1474  -16.2511 N   0  0  0  0  0  0  0  0  0  0  0  0
   23.5561  -21.8975  -12.6814 C   0  0  0  0  0  0  0  0  0  0  0  0
   23.1762  -22.9187  -12.0558 O   0  0  0  0  0  0  0  0  0  0  0  0
   22.7345  -20.8384  -13.0699 N   0  0  0  0  0  0  0  0  0  0  0  0
   23.2572  -19.4921  -13.4095 C   0  0  0  0  0  0  0  0  0  0  0  0
   22.5185  -19.2199  -14.6907 C   0  0  0  0  0  0  0  0  0  0  0  0
   21.2779  -20.0852  -14.6538 C   0  0  0  0  0  0  0  0  0  0  0  0
   21.3340  -20.6385  -13.2062 C   0  0  1  0  0  0  0  0  0  0  0  0
   20.4269  -21.7419  -13.0354 C   0  0  0  0  0  0  0  0  0  0  0  0
   19.6016  -21.7419  -11.8918 O   0  0  0  0  0  0  0  0  0  0  0  0
   20.2926  -22.7027  -13.7948 O   0  0  0  0  0  0  0  0  0  0  0  0
  2 13  1  0
  2  1  1  1
  3  2  1  0
  4  3  1  0
  4  5  2  0
  6  5  1  0
  7 12  2  0
  7  6  1  0
  8  7  1  0
  9 10  1  0
  9  8  2  0
 10 11  2  0
 11 12  1  0
 12  4  1  0
 13 14  2  0
 15 16  1  0
 15 13  1  0
 16 17  1  6
 18 17  1  0
 19 18  2  0
 20 21  1  0
 20 19  1  0
 21 22  2  0
 22 18  1  0
 23 16  1  0
 24 23  2  0
 25 23  1  0
 25 29  1  0
 26 25  1  0
 27 26  1  0
 27 28  1  0
 28 29  1  0
 29 30  1  6
 30 31  1  0
 32 30  2  0
M  END
$$$$
