WHP.pdb
     RDKit          3D

 32 35  0  0  1  0  0  0  0  0999 V2000
   28.0216  -22.3659  -13.6223 N   0  0  0  0  0  0  0  0  0  0  0  0
   26.8875  -21.6659  -13.0800 C   0  0  1  0  0  0  0  0  0  0  0  0
   27.3258  -20.3078  -12.6252 C   0  0  0  0  0  0  0  0  0  0  0  0
   28.1853  -20.3653  -11.4154 C   0  0  0  0  0  0  0  0  0  0  0  0
   29.5428  -20.5068  -11.3308 C   0  0  0  0  0  0  0  0  0  0  0  0
   29.9018  -20.5090  -10.0468 N   0  0  0  0  0  0  0  0  0  0  0  0
   28.7895  -20.3705   -9.3078 C   0  0  0  0  0  0  0  0  0  0  0  0
   28.5689  -20.3090   -7.9348 C   0  0  0  0  0  0  0  0  0  0  0  0
   27.3075  -20.1616   -7.4329 C   0  0  0  0  0  0  0  0  0  0  0  0
   26.2377  -20.0717   -8.2762 C   0  0  0  0  0  0  0  0  0  0  0  0
   26.4273  -20.1298   -9.6460 C   0  0  0  0  0  0  0  0  0  0  0  0
   27.7048  -20.2785  -10.1326 C   0  0  0  0  0  0  0  0  0  0  0  0
   25.7810  -21.5320  -14.0621 C   0  0  0  0  0  0  0  0  0  0  0  0
   26.0584  -21.0317  -15.1842 O   0  0  0  0  0  0  0  0  0  0  0  0
   24.4612  -21.9281  -13.8087 N   0  0  0  0  0  0  0  0  0  0  0  0
   23.4454  -21.8415  -14.8435 C   0  0  1  0  0  0  0  0  0  0  0  0
   22.9348  -23.2421  -15.1555 C   0  0  0  0  0  0  0  0  0  0  0  0
   21.9239  -23.2326  -16.2370 C   0  0  0  0  0  0  0  0  0  0  0  0
   22.1728  -23.4629  -17.5707 C   0  0  0  0  0  0  0  0  0  0  0  0
   21.0356  -23.3744  -18.2456 N   0  0  0  0  0  0  0  0  0  0  0  0
   20.0545  -23.0912  -17.3754 C   0  0  0  0  0  0  0  0  0  0  0  0
   20.6087  -23.0077  -16.1571 N   0  0  0  0  0  0  0  0  0  0  0  0
   22.2622  -21.0235  -14.3701 C   0  0  0  0  0  0  0  0  0  0  0  0
   21.7268  -21.4868  -13.3323 O   0  0  0  0  0  0  0  0  0  0  0  0
   21.8450  -19.8781  -15.0496 N   0  0  0  0  0  0  0  0  0  0  0  0
   22.7183  -19.1318  -15.9884 C   0  0  0  0  0  0  0  0  0  0  0  0
   21.7844  -18.9463  -17.1523 C   0  0  0  0  0  0  0  0  0  0  0  0
   20.3838  -19.0448  -16.5885 C   0  0  0  0  0  0  0  0  0  0  0  0
   20.6693  -19.0797  -15.0648 C   0  0  1  0  0  0  0  0  0  0  0  0
   19.5058  -19.4932  -14.3266 C   0  0  0  0  0  0  0  0  0  0  0  0
   18.5317  -20.2518  -15.0083 O   0  0  0  0  0  0  0  0  0  0  0  0
   19.2663  -19.2508  -13.1427 O   0  0  0  0  0  0  0  0  0  0  0  0
  2 13  1  0
  2  1  1  6
  3  2  1  0
  4  3  1  0
  4  5  2  0
  6  5  1  0
  7 12  2  0
  7  6  1  0
  8  7  1  0
  9 10  1  0
  9  8  2  0
 10 11  2  0
 11 12  1  0
 12  4  1  0
 13 14  2  0
 15 16  1  0
 15 13  1  0
 16 17  1  1
 18 17  1  0
 19 18  2  0
 20 21  1  0
 20 19  1  0
 21 22  2  0
 22 18  1  0
 23 16  1  0
 24 23  2  0
 25 23  1  0
 25 29  1  0
 26 25  1  0
 27 26  1  0
 27 28  1  0
 28 29  1  0
 29 30  1  1
 30 31  1  0
 32 30  2  0
M  END
$$$$
