WHP.pdb
     RDKit          3D

 32 35  0  0  1  0  0  0  0  0999 V2000
   27.7582  -19.8881  -15.9459 N   0  0  0  0  0  0  0  0  0  0  0  0
   27.0803  -20.4359  -14.8011 C   0  0  1  0  0  0  0  0  0  0  0  0
   27.0670  -19.4124  -13.7075 C   0  0  0  0  0  0  0  0  0  0  0  0
   27.3835  -19.9975  -12.3797 C   0  0  0  0  0  0  0  0  0  0  0  0
   28.5735  -20.4878  -11.9175 C   0  0  0  0  0  0  0  0  0  0  0  0
   28.4114  -20.9170  -10.6657 N   0  0  0  0  0  0  0  0  0  0  0  0
   27.1309  -20.7073  -10.3207 C   0  0  0  0  0  0  0  0  0  0  0  0
   26.4136  -20.9572   -9.1544 C   0  0  0  0  0  0  0  0  0  0  0  0
   25.0885  -20.6398   -9.0642 C   0  0  0  0  0  0  0  0  0  0  0  0
   24.4441  -20.0690  -10.1238 C   0  0  0  0  0  0  0  0  0  0  0  0
   25.1325  -19.8091  -11.2961 C   0  0  0  0  0  0  0  0  0  0  0  0
   26.4663  -20.1357  -11.3680 C   0  0  0  0  0  0  0  0  0  0  0  0
   25.6893  -20.8542  -15.1121 C   0  0  0  0  0  0  0  0  0  0  0  0
   25.0949  -20.2472  -16.0418 O   0  0  0  0  0  0  0  0  0  0  0  0
   25.0121  -21.8761  -14.4337 N   0  0  0  0  0  0  0  0  0  0  0  0
   23.7159  -22.3439  -14.8932 C   0  0  1  0  0  0  0  0  0  0  0  0
   23.7547  -23.8607  -15.0260 C   0  0  0  0  0  0  0  0  0  0  0  0
   24.6211  -24.2945  -16.1452 C   0  0  0  0  0  0  0  0  0  0  0  0
   24.2303  -24.4285  -17.4579 C   0  0  0  0  0  0  0  0  0  0  0  0
   25.2651  -24.8356  -18.1789 N   0  0  0  0  0  0  0  0  0  0  0  0
   26.3189  -24.9682  -17.3593 C   0  0  0  0  0  0  0  0  0  0  0  0
   25.9133  -24.6358  -16.1251 N   0  0  0  0  0  0  0  0  0  0  0  0
   22.6338  -22.0051  -13.8894 C   0  0  0  0  0  0  0  0  0  0  0  0
   22.7243  -22.6672  -12.8255 O   0  0  0  0  0  0  0  0  0  0  0  0
   21.6561  -21.0473  -14.1619 N   0  0  0  0  0  0  0  0  0  0  0  0
   21.8899  -19.8839  -15.0524 C   0  0  0  0  0  0  0  0  0  0  0  0
   20.6549  -19.9340  -15.9087 C   0  0  0  0  0  0  0  0  0  0  0  0
   19.6123  -20.6763  -15.1016 C   0  0  0  0  0  0  0  0  0  0  0  0
   20.3236  -20.8070  -13.7299 C   0  0  1  0  0  0  0  0  0  0  0  0
   19.6549  -21.7609  -12.8857 C   0  0  0  0  0  0  0  0  0  0  0  0
   19.6277  -23.1059  -13.3089 O   0  0  0  0  0  0  0  0  0  0  0  0
   19.0940  -21.5231  -11.8148 O   0  0  0  0  0  0  0  0  0  0  0  0
  2 13  1  0
  2  1  1  6
  3  2  1  0
  4  3  1  0
  4  5  2  0
  6  5  1  0
  7 12  2  0
  7  6  1  0
  8  7  1  0
  9 10  1  0
  9  8  2  0
 10 11  2  0
 11 12  1  0
 12  4  1  0
 13 14  2  0
 15 16  1  0
 15 13  1  0
 16 17  1  1
 18 17  1  0
 19 18  2  0
 20 21  1  0
 20 19  1  0
 21 22  2  0
 22 18  1  0
 23 16  1  0
 24 23  2  0
 25 23  1  0
 25 29  1  0
 26 25  1  0
 27 26  1  0
 27 28  1  0
 28 29  1  0
 29 30  1  6
 30 31  1  0
 32 30  2  0
M  END
$$$$
