WHP.pdb
     RDKit          3D

 32 35  0  0  1  0  0  0  0  0999 V2000
   24.0647  -32.3123  -17.1304 N   0  0  0  0  0  0  0  0  0  0  0  0
   24.4100  -33.3015  -16.1444 C   0  0  1  0  0  0  0  0  0  0  0  0
   25.8210  -33.7478  -16.3759 C   0  0  0  0  0  0  0  0  0  0  0  0
   25.9865  -34.4543  -17.6717 C   0  0  0  0  0  0  0  0  0  0  0  0
   26.1577  -33.9283  -18.9223 C   0  0  0  0  0  0  0  0  0  0  0  0
   26.2655  -34.9235  -19.8029 N   0  0  0  0  0  0  0  0  0  0  0  0
   26.1652  -36.0813  -19.1305 C   0  0  0  0  0  0  0  0  0  0  0  0
   26.2058  -37.4135  -19.5317 C   0  0  0  0  0  0  0  0  0  0  0  0
   26.0751  -38.4241  -18.6227 C   0  0  0  0  0  0  0  0  0  0  0  0
   25.9017  -38.1404  -17.2986 C   0  0  0  0  0  0  0  0  0  0  0  0
   25.8575  -36.8247  -16.8711 C   0  0  0  0  0  0  0  0  0  0  0  0
   25.9909  -35.8207  -17.8012 C   0  0  0  0  0  0  0  0  0  0  0  0
   24.2675  -32.7924  -14.7561 C   0  0  0  0  0  0  0  0  0  0  0  0
   23.8609  -31.6092  -14.6108 O   0  0  0  0  0  0  0  0  0  0  0  0
   24.5581  -33.5500  -13.6139 N   0  0  0  0  0  0  0  0  0  0  0  0
   24.1948  -33.0729  -12.2908 C   0  0  1  0  0  0  0  0  0  0  0  0
   22.6867  -32.8678  -12.2345 C   0  0  0  0  0  0  0  0  0  0  0  0
   22.2408  -32.4162  -10.8971 C   0  0  0  0  0  0  0  0  0  0  0  0
   21.9962  -31.1127  -10.5300 C   0  0  0  0  0  0  0  0  0  0  0  0
   21.6152  -31.0838   -9.2610 N   0  0  0  0  0  0  0  0  0  0  0  0
   21.6082  -32.3431   -8.7983 C   0  0  0  0  0  0  0  0  0  0  0  0
   21.9908  -33.1436   -9.8038 N   0  0  0  0  0  0  0  0  0  0  0  0
   24.5523  -34.0951  -11.2323 C   0  0  0  0  0  0  0  0  0  0  0  0
   23.9430  -35.1846  -11.3741 O   0  0  0  0  0  0  0  0  0  0  0  0
   25.4712  -33.8112  -10.2211 N   0  0  0  0  0  0  0  0  0  0  0  0
   26.3188  -32.5936  -10.2171 C   0  0  0  0  0  0  0  0  0  0  0  0
   26.1310  -32.1263   -8.8003 C   0  0  0  0  0  0  0  0  0  0  0  0
   25.7277  -33.3477   -8.0036 C   0  0  0  0  0  0  0  0  0  0  0  0
   25.9274  -34.4747   -9.0498 C   0  0  1  0  0  0  0  0  0  0  0  0
   25.3021  -35.6979   -8.6227 C   0  0  0  0  0  0  0  0  0  0  0  0
   26.1411  -36.7632   -8.2351 O   0  0  0  0  0  0  0  0  0  0  0  0
   24.0914  -35.9170   -8.5588 O   0  0  0  0  0  0  0  0  0  0  0  0
  2 13  1  0
  2  1  1  6
  3  2  1  0
  4  3  1  0
  4  5  2  0
  6  5  1  0
  7 12  2  0
  7  6  1  0
  8  7  1  0
  9 10  1  0
  9  8  2  0
 10 11  2  0
 11 12  1  0
 12  4  1  0
 13 14  2  0
 15 16  1  0
 15 13  1  0
 16 17  1  6
 18 17  1  0
 19 18  2  0
 20 21  1  0
 20 19  1  0
 21 22  2  0
 22 18  1  0
 23 16  1  0
 24 23  2  0
 25 23  1  0
 25 29  1  0
 26 25  1  0
 27 26  1  0
 27 28  1  0
 28 29  1  0
 29 30  1  1
 30 31  1  0
 32 30  2  0
M  END
$$$$
