WHP.pdb
     RDKit          3D

 32 35  0  0  1  0  0  0  0  0999 V2000
   27.5574  -21.8329  -12.7441 N   0  0  0  0  0  0  0  0  0  0  0  0
   26.3519  -21.6189  -11.9884 C   0  0  1  0  0  0  0  0  0  0  0  0
   26.5844  -20.5145  -11.0035 C   0  0  0  0  0  0  0  0  0  0  0  0
   27.7252  -20.7959  -10.0953 C   0  0  0  0  0  0  0  0  0  0  0  0
   28.9371  -21.3591  -10.3857 C   0  0  0  0  0  0  0  0  0  0  0  0
   29.6652  -21.4258   -9.2709 N   0  0  0  0  0  0  0  0  0  0  0  0
   28.9334  -20.9119   -8.2694 C   0  0  0  0  0  0  0  0  0  0  0  0
   29.1845  -20.7304   -6.9124 C   0  0  0  0  0  0  0  0  0  0  0  0
   28.2459  -20.1697   -6.0942 C   0  0  0  0  0  0  0  0  0  0  0  0
   27.0399  -19.7765   -6.5989 C   0  0  0  0  0  0  0  0  0  0  0  0
   26.7629  -19.9448   -7.9445 C   0  0  0  0  0  0  0  0  0  0  0  0
   27.7204  -20.5113   -8.7526 C   0  0  0  0  0  0  0  0  0  0  0  0
   25.1923  -21.2822  -12.8536 C   0  0  0  0  0  0  0  0  0  0  0  0
   25.2229  -20.1798  -13.4619 O   0  0  0  0  0  0  0  0  0  0  0  0
   24.0798  -22.1162  -13.0263 N   0  0  0  0  0  0  0  0  0  0  0  0
   23.0183  -21.7607  -13.9520 C   0  0  1  0  0  0  0  0  0  0  0  0
   23.0699  -22.6997  -15.1499 C   0  0  0  0  0  0  0  0  0  0  0  0
   24.2487  -22.4374  -16.0062 C   0  0  0  0  0  0  0  0  0  0  0  0
   24.3433  -21.4521  -16.9623 C   0  0  0  0  0  0  0  0  0  0  0  0
   25.5390  -21.5130  -17.5308 N   0  0  0  0  0  0  0  0  0  0  0  0
   26.2212  -22.5184  -16.9618 C   0  0  0  0  0  0  0  0  0  0  0  0
   25.4246  -23.0723  -16.0361 N   0  0  0  0  0  0  0  0  0  0  0  0
   21.6598  -21.9280  -13.3041 C   0  0  0  0  0  0  0  0  0  0  0  0
   21.4736  -23.0811  -12.8413 O   0  0  0  0  0  0  0  0  0  0  0  0
   20.7403  -20.8796  -13.2498 N   0  0  0  0  0  0  0  0  0  0  0  0
   21.1418  -19.4514  -13.2452 C   0  0  0  0  0  0  0  0  0  0  0  0
   20.2026  -18.8931  -14.2782 C   0  0  0  0  0  0  0  0  0  0  0  0
   19.0236  -19.8400  -14.3314 C   0  0  0  0  0  0  0  0  0  0  0  0
   19.3278  -20.7746  -13.1320 C   0  0  1  0  0  0  0  0  0  0  0  0
   18.5096  -21.9572  -13.1733 C   0  0  0  0  0  0  0  0  0  0  0  0
   17.4508  -22.0552  -12.2469 O   0  0  0  0  0  0  0  0  0  0  0  0
   18.6382  -22.9090  -13.9449 O   0  0  0  0  0  0  0  0  0  0  0  0
  2 13  1  0
  2  1  1  6
  3  2  1  0
  4  3  1  0
  4  5  2  0
  6  5  1  0
  7 12  2  0
  7  6  1  0
  8  7  1  0
  9 10  1  0
  9  8  2  0
 10 11  2  0
 11 12  1  0
 12  4  1  0
 13 14  2  0
 15 16  1  0
 15 13  1  0
 16 17  1  6
 18 17  1  0
 19 18  2  0
 20 21  1  0
 20 19  1  0
 21 22  2  0
 22 18  1  0
 23 16  1  0
 24 23  2  0
 25 23  1  0
 25 29  1  0
 26 25  1  0
 27 26  1  0
 27 28  1  0
 28 29  1  0
 29 30  1  6
 30 31  1  0
 32 30  2  0
M  END
$$$$
