IVM.pdb
     RDKit          3D

 24 23  0  0  1  0  0  0  0  0999 V2000
    7.4045  -11.9230   18.5517 C   0  0  0  0  0  0  0  0  0  0  0  0
    8.3156  -13.1131   18.3835 C   0  0  0  0  0  0  0  0  0  0  0  0
    8.0302  -14.1552   19.4358 C   0  0  2  0  0  0  0  0  0  0  0  0
    8.4000  -13.5726   20.7995 C   0  0  0  0  0  0  0  0  0  0  0  0
    8.7951  -15.4219   19.2400 C   0  0  2  0  0  0  0  0  0  0  0  0
    8.4236  -16.1364   18.0421 N   0  0  0  0  0  0  0  0  0  0  0  0
    8.5995  -16.2962   20.4072 C   0  0  0  0  0  0  0  0  0  0  0  0
    7.9710  -17.3830   20.3232 O   0  0  0  0  0  0  0  0  0  0  0  0
   11.2447  -17.8001   21.9194 C   0  0  0  0  0  0  0  0  0  0  0  0
    9.8429  -18.1690   22.3065 C   0  0  1  0  0  0  0  0  0  0  0  0
    9.8367  -19.1650   23.4733 C   0  0  0  0  0  0  0  0  0  0  0  0
    9.1121  -16.9387   22.8017 C   0  0  2  0  0  0  0  0  0  0  0  0
    9.1024  -15.9824   21.7114 N   0  0  0  0  0  0  0  0  0  0  0  0
    9.7680  -16.3834   24.0152 C   0  0  0  0  0  0  0  0  0  0  0  0
   10.9336  -15.8967   23.9167 O   0  0  0  0  0  0  0  0  0  0  0  0
    6.4123  -11.5364   25.7664 C   0  0  0  0  0  0  0  0  0  0  0  0
    6.6173  -12.4216   27.3441 S   0  0  0  0  0  0  0  0  0  0  0  0
    8.1356  -13.4294   27.3104 C   0  0  0  0  0  0  0  0  0  0  0  0
    8.0542  -14.5333   26.3148 C   0  0  0  0  0  0  0  0  0  0  0  0
    9.2564  -15.4093   26.2291 C   0  0  2  0  0  0  0  0  0  0  0  0
    9.0440  -16.4292   25.2318 N   0  0  0  0  0  0  0  0  0  0  0  0
    9.6813  -16.0080   27.4949 C   0  0  0  0  0  0  0  0  0  0  0  0
    9.5183  -17.2082   27.8143 O   0  0  0  0  0  0  0  0  0  0  0  0
   10.3163  -15.2028   28.4291 O   0  0  0  0  0  0  0  0  0  0  0  0
  2  1  1  0
  3  5  1  0
  3  2  1  0
  3  4  1  1
  5  6  1  6
  7  5  1  0
  8  7  2  0
 10 11  1  1
 10  9  1  0
 12 10  1  0
 12 13  1  6
 13  7  1  0
 14 12  1  0
 15 14  2  0
 17 16  1  0
 17 18  1  0
 19 18  1  0
 20 19  1  1
 20 22  1  0
 20 21  1  0
 21 14  1  0
 22 24  1  0
 23 22  2  0
M  END
$$$$
