IVM.pdb
     RDKit          3D

 24 23  0  0  1  0  0  0  0  0999 V2000
    6.6130  -11.5234   27.4973 C   0  0  0  0  0  0  0  0  0  0  0  0
    5.8952  -12.5916   26.7109 C   0  0  0  0  0  0  0  0  0  0  0  0
    6.8824  -13.5315   26.0653 C   0  0  2  0  0  0  0  0  0  0  0  0
    7.7911  -12.7149   25.1470 C   0  0  0  0  0  0  0  0  0  0  0  0
    6.2367  -14.6070   25.2563 C   0  0  2  0  0  0  0  0  0  0  0  0
    5.4028  -15.4891   26.0372 N   0  0  0  0  0  0  0  0  0  0  0  0
    7.2751  -15.3966   24.5757 C   0  0  0  0  0  0  0  0  0  0  0  0
    7.8533  -16.3597   25.1426 O   0  0  0  0  0  0  0  0  0  0  0  0
    9.8304  -16.2371   20.4008 C   0  0  0  0  0  0  0  0  0  0  0  0
    8.8443  -15.3969   21.1576 C   0  0  1  0  0  0  0  0  0  0  0  0
    7.4247  -15.5805   20.6057 C   0  0  0  0  0  0  0  0  0  0  0  0
    8.7942  -15.8492   22.6018 C   0  0  2  0  0  0  0  0  0  0  0  0
    7.7024  -15.1339   23.2338 N   0  0  0  0  0  0  0  0  0  0  0  0
   10.0897  -15.5912   23.2847 C   0  0  0  0  0  0  0  0  0  0  0  0
   10.5165  -14.4011   23.3657 O   0  0  0  0  0  0  0  0  0  0  0  0
   10.5025  -13.3479   28.3270 C   0  0  0  0  0  0  0  0  0  0  0  0
   10.8290  -15.1003   28.6974 S   0  0  0  0  0  0  0  0  0  0  0  0
   11.7779  -15.8661   27.3427 C   0  0  0  0  0  0  0  0  0  0  0  0
   10.9678  -16.0101   26.1020 C   0  0  0  0  0  0  0  0  0  0  0  0
   11.7043  -16.5190   24.9108 C   0  0  2  0  0  0  0  0  0  0  0  0
   10.7857  -16.7052   23.8149 N   0  0  0  0  0  0  0  0  0  0  0  0
   12.4889  -17.7333   25.1366 C   0  0  0  0  0  0  0  0  0  0  0  0
   12.1462  -18.8869   24.7893 O   0  0  0  0  0  0  0  0  0  0  0  0
   13.7109  -17.6225   25.7838 O   0  0  0  0  0  0  0  0  0  0  0  0
  2  1  1  0
  3  5  1  0
  3  2  1  0
  3  4  1  6
  5  6  1  1
  7  5  1  0
  8  7  2  0
 10 11  1  6
 10  9  1  0
 12 10  1  0
 12 13  1  1
 13  7  1  0
 14 12  1  0
 15 14  2  0
 17 16  1  0
 17 18  1  0
 19 18  1  0
 20 19  1  1
 20 22  1  0
 20 21  1  0
 21 14  1  0
 22 24  1  0
 23 22  2  0
M  END
$$$$
