IVM.pdb
     RDKit          3D

 24 23  0  0  1  0  0  0  0  0999 V2000
    8.2770  -22.3588   23.2536 C   0  0  0  0  0  0  0  0  0  0  0  0
    7.5240  -21.3952   22.3709 C   0  0  0  0  0  0  0  0  0  0  0  0
    8.2306  -20.0641   22.3114 C   0  0  2  0  0  0  0  0  0  0  0  0
    8.3849  -19.5396   23.7386 C   0  0  0  0  0  0  0  0  0  0  0  0
    7.5007  -19.0396   21.5078 C   0  0  2  0  0  0  0  0  0  0  0  0
    7.1997  -19.4729   20.1643 N   0  0  0  0  0  0  0  0  0  0  0  0
    8.2971  -17.8037   21.4525 C   0  0  0  0  0  0  0  0  0  0  0  0
    9.4278  -17.7680   20.9014 O   0  0  0  0  0  0  0  0  0  0  0  0
    6.9873  -14.8499   20.1189 C   0  0  0  0  0  0  0  0  0  0  0  0
    7.6877  -14.2875   21.3206 C   0  0  1  0  0  0  0  0  0  0  0  0
    6.6870  -13.9405   22.4304 C   0  0  0  0  0  0  0  0  0  0  0  0
    8.6147  -15.3330   21.9040 C   0  0  2  0  0  0  0  0  0  0  0  0
    7.8534  -16.5626   22.0137 N   0  0  0  0  0  0  0  0  0  0  0  0
    9.1468  -14.8956   23.2219 C   0  0  0  0  0  0  0  0  0  0  0  0
    9.7286  -13.7736   23.3091 O   0  0  0  0  0  0  0  0  0  0  0  0
    6.4816  -11.7279   26.0147 C   0  0  0  0  0  0  0  0  0  0  0  0
    7.2240  -12.2325   27.5988 S   0  0  0  0  0  0  0  0  0  0  0  0
    8.0746  -13.8340   27.4161 C   0  0  0  0  0  0  0  0  0  0  0  0
    8.0941  -14.3008   26.0026 C   0  0  0  0  0  0  0  0  0  0  0  0
    9.1679  -15.2769   25.6644 C   0  0  2  0  0  0  0  0  0  0  0  0
    8.9719  -15.7692   24.3231 N   0  0  0  0  0  0  0  0  0  0  0  0
    9.3161  -16.3889   26.6040 C   0  0  0  0  0  0  0  0  0  0  0  0
    9.0753  -17.5898   26.3422 O   0  0  0  0  0  0  0  0  0  0  0  0
    9.7565  -16.1154   27.8908 O   0  0  0  0  0  0  0  0  0  0  0  0
  2  1  1  0
  3  5  1  0
  3  2  1  0
  3  4  1  1
  5  6  1  6
  7  5  1  0
  8  7  2  0
 10 11  1  1
 10  9  1  0
 12 10  1  0
 12 13  1  1
 13  7  1  0
 14 12  1  0
 15 14  2  0
 17 16  1  0
 17 18  1  0
 19 18  1  0
 20 19  1  1
 20 22  1  0
 20 21  1  0
 21 14  1  0
 22 24  1  0
 23 22  2  0
M  END
$$$$
