IVM.pdb
     RDKit          3D

 24 23  0  0  1  0  0  0  0  0999 V2000
    5.8964  -11.4789   27.1920 C   0  0  0  0  0  0  0  0  0  0  0  0
    5.3989  -12.8195   26.7124 C   0  0  0  0  0  0  0  0  0  0  0  0
    6.5155  -13.6027   26.0686 C   0  0  2  0  0  0  0  0  0  0  0  0
    7.1280  -12.7432   24.9632 C   0  0  0  0  0  0  0  0  0  0  0  0
    6.0665  -14.8938   25.4691 C   0  0  2  0  0  0  0  0  0  0  0  0
    5.5617  -15.8327   26.4422 N   0  0  0  0  0  0  0  0  0  0  0  0
    7.1852  -15.5078   24.7368 C   0  0  0  0  0  0  0  0  0  0  0  0
    8.0091  -16.2712   25.3041 O   0  0  0  0  0  0  0  0  0  0  0  0
    8.4769  -14.1282   20.9993 C   0  0  0  0  0  0  0  0  0  0  0  0
    8.2727  -15.6082   21.1378 C   0  0  1  0  0  0  0  0  0  0  0  0
    9.3438  -16.3877   20.3642 C   0  0  0  0  0  0  0  0  0  0  0  0
    8.4290  -16.0091   22.5895 C   0  0  2  0  0  0  0  0  0  0  0  0
    7.4201  -15.2873   23.3409 N   0  0  0  0  0  0  0  0  0  0  0  0
    9.8004  -15.7081   23.0793 C   0  0  0  0  0  0  0  0  0  0  0  0
   10.4553  -14.7688   22.5371 O   0  0  0  0  0  0  0  0  0  0  0  0
   11.3569  -13.4262   28.2315 C   0  0  0  0  0  0  0  0  0  0  0  0
   10.5399  -15.0520   28.2973 S   0  0  0  0  0  0  0  0  0  0  0  0
   11.2819  -16.1818   27.0748 C   0  0  0  0  0  0  0  0  0  0  0  0
   11.6732  -15.4760   25.8237 C   0  0  0  0  0  0  0  0  0  0  0  0
   11.6644  -16.3088   24.5881 C   0  0  2  0  0  0  0  0  0  0  0  0
   10.3068  -16.4986   24.1400 N   0  0  0  0  0  0  0  0  0  0  0  0
   12.3539  -17.5946   24.6997 C   0  0  0  0  0  0  0  0  0  0  0  0
   11.8044  -18.7165   24.6086 O   0  0  0  0  0  0  0  0  0  0  0  0
   13.7229  -17.5956   24.9237 O   0  0  0  0  0  0  0  0  0  0  0  0
  2  1  1  0
  3  5  1  0
  3  2  1  0
  3  4  1  6
  5  6  1  1
  7  5  1  0
  8  7  2  0
 10 11  1  6
 10  9  1  0
 12 10  1  0
 12 13  1  1
 13  7  1  0
 14 12  1  0
 15 14  2  0
 17 16  1  0
 17 18  1  0
 19 18  1  0
 20 19  1  1
 20 22  1  0
 20 21  1  0
 21 14  1  0
 22 24  1  0
 23 22  2  0
M  END
$$$$
