IVM.pdb
     RDKit          3D

 24 23  0  0  1  0  0  0  0  0999 V2000
    7.7429  -12.1182   19.0958 C   0  0  0  0  0  0  0  0  0  0  0  0
    7.9151  -13.6117   18.9748 C   0  0  0  0  0  0  0  0  0  0  0  0
    7.9338  -14.2576   20.3375 C   0  0  2  0  0  0  0  0  0  0  0  0
    9.0257  -13.5870   21.1706 C   0  0  0  0  0  0  0  0  0  0  0  0
    8.2056  -15.7248   20.2957 C   0  0  2  0  0  0  0  0  0  0  0  0
    7.2144  -16.4704   19.5574 N   0  0  0  0  0  0  0  0  0  0  0  0
    8.2824  -16.2469   21.6691 C   0  0  0  0  0  0  0  0  0  0  0  0
    7.2646  -16.3305   22.4042 O   0  0  0  0  0  0  0  0  0  0  0  0
   10.1552  -19.3685   22.7667 C   0  0  0  0  0  0  0  0  0  0  0  0
   10.5956  -18.2685   23.6872 C   0  0  1  0  0  0  0  0  0  0  0  0
   11.9300  -17.6664   23.2287 C   0  0  0  0  0  0  0  0  0  0  0  0
    9.5892  -17.1379   23.6458 C   0  0  2  0  0  0  0  0  0  0  0  0
    9.5047  -16.6943   22.2676 N   0  0  0  0  0  0  0  0  0  0  0  0
    9.9930  -16.0334   24.5558 C   0  0  0  0  0  0  0  0  0  0  0  0
   10.7553  -15.1216   24.1167 O   0  0  0  0  0  0  0  0  0  0  0  0
    6.2664  -12.1165   26.2408 C   0  0  0  0  0  0  0  0  0  0  0  0
    7.2137  -11.8656   27.7752 S   0  0  0  0  0  0  0  0  0  0  0  0
    8.7091  -12.9074   27.7719 C   0  0  0  0  0  0  0  0  0  0  0  0
    8.5984  -14.0447   26.8176 C   0  0  0  0  0  0  0  0  0  0  0  0
    9.7730  -14.9603   26.7721 C   0  0  2  0  0  0  0  0  0  0  0  0
    9.4967  -16.0610   25.8822 N   0  0  0  0  0  0  0  0  0  0  0  0
   10.2290  -15.4521   28.0726 C   0  0  0  0  0  0  0  0  0  0  0  0
   10.0850  -16.6243   28.4900 O   0  0  0  0  0  0  0  0  0  0  0  0
   10.8738  -14.5692   28.9265 O   0  0  0  0  0  0  0  0  0  0  0  0
  2  1  1  0
  3  5  1  0
  3  2  1  0
  3  4  1  1
  5  6  1  6
  7  5  1  0
  8  7  2  0
 10 11  1  6
 10  9  1  0
 12 10  1  0
 12 13  1  6
 13  7  1  0
 14 12  1  0
 15 14  2  0
 17 16  1  0
 17 18  1  0
 19 18  1  0
 20 19  1  1
 20 22  1  0
 20 21  1  0
 21 14  1  0
 22 24  1  0
 23 22  2  0
M  END
$$$$
