IVM.pdb
     RDKit          3D

 24 23  0  0  1  0  0  0  0  0999 V2000
    6.3996  -11.5727   27.4615 C   0  0  0  0  0  0  0  0  0  0  0  0
    5.7569  -12.7740   26.8145 C   0  0  0  0  0  0  0  0  0  0  0  0
    6.7944  -13.6305   26.1328 C   0  0  2  0  0  0  0  0  0  0  0  0
    7.6139  -12.7390   25.2003 C   0  0  0  0  0  0  0  0  0  0  0  0
    6.2101  -14.7442   25.3289 C   0  0  2  0  0  0  0  0  0  0  0  0
    5.4797  -15.7026   26.1234 N   0  0  0  0  0  0  0  0  0  0  0  0
    7.2844  -15.4362   24.5995 C   0  0  0  0  0  0  0  0  0  0  0  0
    7.9421  -16.3737   25.1209 O   0  0  0  0  0  0  0  0  0  0  0  0
    9.6245  -16.0901   20.2876 C   0  0  0  0  0  0  0  0  0  0  0  0
    8.7647  -15.2123   21.1487 C   0  0  1  0  0  0  0  0  0  0  0  0
    7.3024  -15.2476   20.6860 C   0  0  0  0  0  0  0  0  0  0  0  0
    8.7675  -15.7351   22.5697 C   0  0  2  0  0  0  0  0  0  0  0  0
    7.6596  -15.1011   23.2582 N   0  0  0  0  0  0  0  0  0  0  0  0
   10.0654  -15.4516   23.2378 C   0  0  0  0  0  0  0  0  0  0  0  0
   10.6920  -14.3914   22.9406 O   0  0  0  0  0  0  0  0  0  0  0  0
   10.7259  -13.2117   28.1500 C   0  0  0  0  0  0  0  0  0  0  0  0
   10.9442  -14.9890   28.4794 S   0  0  0  0  0  0  0  0  0  0  0  0
   10.8335  -15.9375   26.9270 C   0  0  0  0  0  0  0  0  0  0  0  0
   11.9097  -15.5691   25.9665 C   0  0  0  0  0  0  0  0  0  0  0  0
   11.8913  -16.3037   24.6703 C   0  0  2  0  0  0  0  0  0  0  0  0
   10.5370  -16.3952   24.1831 N   0  0  0  0  0  0  0  0  0  0  0  0
   12.5195  -17.6250   24.6952 C   0  0  0  0  0  0  0  0  0  0  0  0
   11.9201  -18.7107   24.5199 O   0  0  0  0  0  0  0  0  0  0  0  0
   13.8845  -17.7059   24.9292 O   0  0  0  0  0  0  0  0  0  0  0  0
  2  1  1  0
  3  5  1  0
  3  2  1  0
  3  4  1  6
  5  6  1  1
  7  5  1  0
  8  7  2  0
 10 11  1  6
 10  9  1  0
 12 10  1  0
 12 13  1  1
 13  7  1  0
 14 12  1  0
 15 14  2  0
 17 16  1  0
 17 18  1  0
 19 18  1  0
 20 19  1  1
 20 22  1  0
 20 21  1  0
 21 14  1  0
 22 24  1  0
 23 22  2  0
M  END
$$$$
