IVM.pdb
     RDKit          3D

 24 23  0  0  1  0  0  0  0  0999 V2000
    6.4125  -11.4978   27.3418 C   0  0  0  0  0  0  0  0  0  0  0  0
    5.7373  -12.5830   26.5410 C   0  0  0  0  0  0  0  0  0  0  0  0
    6.7603  -13.4956   25.9124 C   0  0  2  0  0  0  0  0  0  0  0  0
    7.6728  -12.6518   25.0230 C   0  0  0  0  0  0  0  0  0  0  0  0
    6.1584  -14.5782   25.0796 C   0  0  2  0  0  0  0  0  0  0  0  0
    5.3235  -15.4835   25.8325 N   0  0  0  0  0  0  0  0  0  0  0  0
    7.2302  -15.3407   24.4202 C   0  0  0  0  0  0  0  0  0  0  0  0
    7.8330  -16.2777   25.0050 O   0  0  0  0  0  0  0  0  0  0  0  0
    9.8307  -16.1564   20.2711 C   0  0  0  0  0  0  0  0  0  0  0  0
    8.8605  -15.2996   21.0298 C   0  0  1  0  0  0  0  0  0  0  0  0
    7.4426  -15.4339   20.4595 C   0  0  0  0  0  0  0  0  0  0  0  0
    8.7810  -15.7718   22.4663 C   0  0  2  0  0  0  0  0  0  0  0  0
    7.6645  -15.0793   23.0804 N   0  0  0  0  0  0  0  0  0  0  0  0
   10.0557  -15.5061   23.1844 C   0  0  0  0  0  0  0  0  0  0  0  0
   10.4542  -14.3100   23.3090 O   0  0  0  0  0  0  0  0  0  0  0  0
   10.2186  -13.2622   27.7582 C   0  0  0  0  0  0  0  0  0  0  0  0
   11.0191  -14.7349   28.4689 S   0  0  0  0  0  0  0  0  0  0  0  0
   11.8727  -15.6808   27.1657 C   0  0  0  0  0  0  0  0  0  0  0  0
   11.0215  -15.8666   25.9585 C   0  0  0  0  0  0  0  0  0  0  0  0
   11.7138  -16.4328   24.7667 C   0  0  2  0  0  0  0  0  0  0  0  0
   10.7648  -16.6201   23.6971 N   0  0  0  0  0  0  0  0  0  0  0  0
   12.4641  -17.6653   25.0105 C   0  0  0  0  0  0  0  0  0  0  0  0
   12.0220  -18.8240   24.8349 O   0  0  0  0  0  0  0  0  0  0  0  0
   13.7686  -17.5671   25.4721 O   0  0  0  0  0  0  0  0  0  0  0  0
  2  1  1  0
  3  5  1  0
  3  2  1  0
  3  4  1  6
  5  6  1  1
  7  5  1  0
  8  7  2  0
 10 11  1  6
 10  9  1  0
 12 10  1  0
 12 13  1  1
 13  7  1  0
 14 12  1  0
 15 14  2  0
 17 16  1  0
 17 18  1  0
 19 18  1  0
 20 19  1  1
 20 22  1  0
 20 21  1  0
 21 14  1  0
 22 24  1  0
 23 22  2  0
M  END
$$$$
