IVM.pdb
     RDKit          3D

 24 23  0  0  1  0  0  0  0  0999 V2000
    7.5208  -12.0634   20.1256 C   0  0  0  0  0  0  0  0  0  0  0  0
    7.1601  -13.5118   20.3416 C   0  0  0  0  0  0  0  0  0  0  0  0
    8.3436  -14.4031   20.0594 C   0  0  2  0  0  0  0  0  0  0  0  0
    8.8124  -14.1383   18.6290 C   0  0  0  0  0  0  0  0  0  0  0  0
    8.0372  -15.8577   20.1945 C   0  0  2  0  0  0  0  0  0  0  0  0
    6.9928  -16.3084   19.3061 N   0  0  0  0  0  0  0  0  0  0  0  0
    7.6518  -16.1489   21.5843 C   0  0  0  0  0  0  0  0  0  0  0  0
    6.4700  -15.9987   21.9896 O   0  0  0  0  0  0  0  0  0  0  0  0
    7.3008  -19.0059   23.3483 C   0  0  0  0  0  0  0  0  0  0  0  0
    8.2722  -18.2916   24.2413 C   0  0  1  0  0  0  0  0  0  0  0  0
    9.7137  -18.7276   23.9489 C   0  0  0  0  0  0  0  0  0  0  0  0
    8.2194  -16.8042   23.9628 C   0  0  2  0  0  0  0  0  0  0  0  0
    8.5788  -16.6194   22.5700 N   0  0  0  0  0  0  0  0  0  0  0  0
    9.1330  -16.0608   24.8704 C   0  0  0  0  0  0  0  0  0  0  0  0
   10.3321  -15.8650   24.5113 O   0  0  0  0  0  0  0  0  0  0  0  0
    5.8443  -10.8824   26.1373 C   0  0  0  0  0  0  0  0  0  0  0  0
    7.0577  -11.5030   27.3445 S   0  0  0  0  0  0  0  0  0  0  0  0
    8.1290  -12.7602   26.5741 C   0  0  0  0  0  0  0  0  0  0  0  0
    8.6835  -13.7137   27.5740 C   0  0  0  0  0  0  0  0  0  0  0  0
    9.4464  -14.8626   27.0100 C   0  0  2  0  0  0  0  0  0  0  0  0
    8.6059  -15.6057   26.1039 N   0  0  0  0  0  0  0  0  0  0  0  0
   10.0501  -15.7546   28.0005 C   0  0  0  0  0  0  0  0  0  0  0  0
    9.6150  -16.8881   28.3086 O   0  0  0  0  0  0  0  0  0  0  0  0
   11.1941  -15.3332   28.6624 O   0  0  0  0  0  0  0  0  0  0  0  0
  2  1  1  0
  3  5  1  0
  3  2  1  0
  3  4  1  6
  5  6  1  6
  7  5  1  0
  8  7  2  0
 10 11  1  6
 10  9  1  0
 12 10  1  0
 12 13  1  6
 13  7  1  0
 14 12  1  0
 15 14  2  0
 17 16  1  0
 17 18  1  0
 19 18  1  0
 20 19  1  1
 20 22  1  0
 20 21  1  0
 21 14  1  0
 22 24  1  0
 23 22  2  0
M  END
$$$$
