EDT.pdb
     RDKit          3D

 25 24  0  0  1  0  0  0  0  0999 V2000
   14.6256   -9.9843  -15.4988 N   0  0  0  0  0  0  0  0  0  0  0  0
   15.1553   -8.9493  -16.3029 C   0  0  1  0  0  0  0  0  0  0  0  0
   14.5546   -7.5974  -16.2026 C   0  0  0  0  0  0  0  0  0  0  0  0
   14.3287   -7.0375  -14.8536 C   0  0  0  0  0  0  0  0  0  0  0  0
   15.2589   -6.0019  -14.4482 C   0  0  0  0  0  0  0  0  0  0  0  0
   15.3160   -4.8665  -14.9446 O   0  0  0  0  0  0  0  0  0  0  0  0
   16.6581   -8.8827  -16.1178 C   0  0  0  0  0  0  0  0  0  0  0  0
   17.1895   -9.4038  -15.0979 O   0  0  0  0  0  0  0  0  0  0  0  0
   16.1793   -6.2739  -13.4161 O   0  0  0  0  0  0  0  0  0  0  0  0
   17.5152   -8.2537  -17.0484 N   0  0  0  0  0  0  0  0  0  0  0  0
   18.9613   -8.2753  -16.8962 C   0  0  1  0  0  0  0  0  0  0  0  0
   19.5803   -8.1944  -18.2709 C   0  0  0  0  0  0  0  0  0  0  0  0
   21.0538   -8.2461  -18.2556 C   0  0  0  0  0  0  0  0  0  0  0  0
   21.7016   -8.3648  -17.1919 O   0  0  0  0  0  0  0  0  0  0  0  0
   19.3716   -7.0423  -16.1689 C   0  0  0  0  0  0  0  0  0  0  0  0
   18.7860   -5.9509  -16.3824 O   0  0  0  0  0  0  0  0  0  0  0  0
   21.7022   -8.1554  -19.4986 O   0  0  0  0  0  0  0  0  0  0  0  0
   22.8123   -6.8304  -13.4589 C   0  0  0  0  0  0  0  0  0  0  0  0
   21.5047   -6.1373  -13.2013 C   0  0  1  0  0  0  0  0  0  0  0  0
   21.8078   -4.8899  -12.6124 O   0  0  0  0  0  0  0  0  0  0  0  0
   20.7516   -5.8264  -14.4732 C   0  0  2  0  0  0  0  0  0  0  0  0
   20.4245   -7.0288  -15.2137 N   0  0  0  0  0  0  0  0  0  0  0  0
   21.4579   -4.8781  -15.3364 C   0  0  0  0  0  0  0  0  0  0  0  0
   22.1374   -5.3069  -16.3016 O   0  0  0  0  0  0  0  0  0  0  0  0
   21.4140   -3.5117  -15.1399 O   0  0  0  0  0  0  0  0  0  0  0  0
  2  1  1  1
  3  4  1  0
  3  2  1  0
  5  4  1  0
  5  6  2  0
  7  2  1  0
  7  8  2  0
  9  5  1  0
 10  7  1  0
 11 10  1  0
 11 15  1  0
 11 12  1  6
 13 17  1  0
 13 12  1  0
 14 13  2  0
 15 22  1  0
 16 15  2  0
 19 18  1  6
 19 20  1  0
 19 21  1  0
 21 23  1  0
 21 22  1  6
 23 24  2  0
 23 25  1  0
M  END
$$$$
