EDT.pdb
     RDKit          3D

 25 24  0  0  1  0  0  0  0  0999 V2000
   18.6882  -12.6718  -17.4579 N   0  0  0  0  0  0  0  0  0  0  0  0
   18.4044  -11.3155  -17.7378 C   0  0  1  0  0  0  0  0  0  0  0  0
   17.1127  -10.7529  -17.2759 C   0  0  0  0  0  0  0  0  0  0  0  0
   16.5430  -11.2697  -16.0139 C   0  0  0  0  0  0  0  0  0  0  0  0
   16.0651  -10.2599  -15.0898 C   0  0  0  0  0  0  0  0  0  0  0  0
   15.2508   -9.3681  -15.3734 O   0  0  0  0  0  0  0  0  0  0  0  0
   19.5607  -10.4505  -17.2772 C   0  0  0  0  0  0  0  0  0  0  0  0
   20.2767  -10.8232  -16.3064 O   0  0  0  0  0  0  0  0  0  0  0  0
   16.5417  -10.2648  -13.7634 O   0  0  0  0  0  0  0  0  0  0  0  0
   19.8868   -9.2207  -17.8918 N   0  0  0  0  0  0  0  0  0  0  0  0
   21.0308   -8.4301  -17.4667 C   0  0  1  0  0  0  0  0  0  0  0  0
   21.3682   -7.4587  -18.5722 C   0  0  0  0  0  0  0  0  0  0  0  0
   22.0214   -8.0926  -19.7321 C   0  0  0  0  0  0  0  0  0  0  0  0
   22.8435   -9.0264  -19.6010 O   0  0  0  0  0  0  0  0  0  0  0  0
   20.6217   -7.6140  -16.2901 C   0  0  0  0  0  0  0  0  0  0  0  0
   19.4560   -7.1513  -16.2088 O   0  0  0  0  0  0  0  0  0  0  0  0
   21.6763   -7.5969  -21.0006 O   0  0  0  0  0  0  0  0  0  0  0  0
   20.9556   -6.7716  -11.5065 C   0  0  0  0  0  0  0  0  0  0  0  0
   21.3893   -7.4563  -12.7712 C   0  0  1  0  0  0  0  0  0  0  0  0
   20.6659   -8.6664  -12.8542 O   0  0  0  0  0  0  0  0  0  0  0  0
   21.0307   -6.6698  -14.0098 C   0  0  2  0  0  0  0  0  0  0  0  0
   21.5053   -7.3181  -15.2164 N   0  0  0  0  0  0  0  0  0  0  0  0
   21.5023   -5.2847  -13.9619 C   0  0  0  0  0  0  0  0  0  0  0  0
   22.6264   -4.9963  -14.4421 O   0  0  0  0  0  0  0  0  0  0  0  0
   20.7606   -4.2608  -13.4057 O   0  0  0  0  0  0  0  0  0  0  0  0
  2  1  1  1
  3  4  1  0
  3  2  1  0
  5  4  1  0
  5  6  2  0
  7  2  1  0
  7  8  2  0
  9  5  1  0
 10  7  1  0
 11 10  1  0
 11 15  1  0
 11 12  1  6
 13 17  1  0
 13 12  1  0
 14 13  2  0
 15 22  1  0
 16 15  2  0
 19 18  1  1
 19 20  1  0
 19 21  1  0
 21 23  1  0
 21 22  1  6
 23 24  2  0
 23 25  1  0
M  END
$$$$
