EDT.pdb
     RDKit          3D

 25 24  0  0  1  0  0  0  0  0999 V2000
   17.9275  -12.4856  -17.6022 N   0  0  0  0  0  0  0  0  0  0  0  0
   17.4669  -11.2758  -17.0343 C   0  0  1  0  0  0  0  0  0  0  0  0
   17.0456  -11.2767  -15.6127 C   0  0  0  0  0  0  0  0  0  0  0  0
   15.9565  -12.1923  -15.2129 C   0  0  0  0  0  0  0  0  0  0  0  0
   14.6351  -11.5981  -15.1592 C   0  0  0  0  0  0  0  0  0  0  0  0
   14.4080  -10.3824  -15.0630 O   0  0  0  0  0  0  0  0  0  0  0  0
   18.4791  -10.1775  -17.2923 C   0  0  0  0  0  0  0  0  0  0  0  0
   19.6914  -10.4726  -17.4852 O   0  0  0  0  0  0  0  0  0  0  0  0
   13.5041  -12.4370  -15.2187 O   0  0  0  0  0  0  0  0  0  0  0  0
   18.1287   -8.8092  -17.3292 N   0  0  0  0  0  0  0  0  0  0  0  0
   19.1201   -7.7691  -17.5530 C   0  0  1  0  0  0  0  0  0  0  0  0
   18.4556   -6.6393  -18.3026 C   0  0  0  0  0  0  0  0  0  0  0  0
   19.3354   -5.4746  -18.5102 C   0  0  0  0  0  0  0  0  0  0  0  0
   19.0438   -4.3381  -18.0761 O   0  0  0  0  0  0  0  0  0  0  0  0
   19.5287   -7.2224  -16.2294 C   0  0  0  0  0  0  0  0  0  0  0  0
   18.6720   -7.0115  -15.3342 O   0  0  0  0  0  0  0  0  0  0  0  0
   20.5250   -5.7003  -19.2229 O   0  0  0  0  0  0  0  0  0  0  0  0
   22.5617   -7.2319  -12.5279 C   0  0  0  0  0  0  0  0  0  0  0  0
   22.1500   -7.5949  -13.9261 C   0  0  1  0  0  0  0  0  0  0  0  0
   21.3635   -8.7644  -13.8343 O   0  0  0  0  0  0  0  0  0  0  0  0
   21.2672   -6.5472  -14.5621 C   0  0  2  0  0  0  0  0  0  0  0  0
   20.8793   -6.9147  -15.9096 N   0  0  0  0  0  0  0  0  0  0  0  0
   21.8709   -5.2134  -14.5565 C   0  0  0  0  0  0  0  0  0  0  0  0
   22.4036   -4.7704  -15.6040 O   0  0  0  0  0  0  0  0  0  0  0  0
   21.8844   -4.4033  -13.4380 O   0  0  0  0  0  0  0  0  0  0  0  0
  2  1  1  1
  3  4  1  0
  3  2  1  0
  5  4  1  0
  5  6  2  0
  7  2  1  0
  7  8  2  0
  9  5  1  0
 10  7  1  0
 11 10  1  0
 11 15  1  0
 11 12  1  6
 13 17  1  0
 13 12  1  0
 14 13  2  0
 15 22  1  0
 16 15  2  0
 19 18  1  1
 19 20  1  0
 19 21  1  0
 21 23  1  0
 21 22  1  6
 23 24  2  0
 23 25  1  0
M  END
$$$$
