EDT.pdb
     RDKit          3D

 25 24  0  0  1  0  0  0  0  0999 V2000
   17.4276  -21.3990  -14.5045 N   0  0  0  0  0  0  0  0  0  0  0  0
   17.7758  -21.7221  -15.8359 C   0  0  1  0  0  0  0  0  0  0  0  0
   16.9443  -21.1784  -16.9366 C   0  0  0  0  0  0  0  0  0  0  0  0
   15.7512  -20.3839  -16.5768 C   0  0  0  0  0  0  0  0  0  0  0  0
   16.0032  -19.2369  -15.7266 C   0  0  0  0  0  0  0  0  0  0  0  0
   15.5304  -19.0791  -14.5906 O   0  0  0  0  0  0  0  0  0  0  0  0
   19.2408  -21.4093  -16.0665 C   0  0  0  0  0  0  0  0  0  0  0  0
   19.7738  -21.6799  -17.1787 O   0  0  0  0  0  0  0  0  0  0  0  0
   16.8437  -18.2076  -16.1964 O   0  0  0  0  0  0  0  0  0  0  0  0
   20.0600  -20.8168  -15.0795 N   0  0  0  0  0  0  0  0  0  0  0  0
   21.4645  -20.5272  -15.3206 C   0  0  1  0  0  0  0  0  0  0  0  0
   21.5986  -19.0497  -15.6015 C   0  0  0  0  0  0  0  0  0  0  0  0
   22.9885  -18.6220  -15.8450 C   0  0  0  0  0  0  0  0  0  0  0  0
   23.9466  -19.4251  -15.7995 O   0  0  0  0  0  0  0  0  0  0  0  0
   22.2176  -20.7939  -14.0639 C   0  0  0  0  0  0  0  0  0  0  0  0
   21.7255  -20.4892  -12.9482 O   0  0  0  0  0  0  0  0  0  0  0  0
   23.1898  -17.2616  -16.1326 O   0  0  0  0  0  0  0  0  0  0  0  0
   26.2015  -22.7401  -11.7536 C   0  0  0  0  0  0  0  0  0  0  0  0
   25.4478  -22.4847  -13.0277 C   0  0  1  0  0  0  0  0  0  0  0  0
   25.0066  -23.7387  -13.5046 O   0  0  0  0  0  0  0  0  0  0  0  0
   24.2019  -21.6590  -12.8099 C   0  0  2  0  0  0  0  0  0  0  0  0
   23.5062  -21.3943  -14.0538 N   0  0  0  0  0  0  0  0  0  0  0  0
   24.4657  -20.4049  -12.1021 C   0  0  0  0  0  0  0  0  0  0  0  0
   24.8565  -19.4004  -12.7467 O   0  0  0  0  0  0  0  0  0  0  0  0
   24.3038  -20.2680  -10.7373 O   0  0  0  0  0  0  0  0  0  0  0  0
  2  1  1  1
  3  4  1  0
  3  2  1  0
  5  4  1  0
  5  6  2  0
  7  2  1  0
  7  8  2  0
  9  5  1  0
 10  7  1  0
 11 10  1  0
 11 15  1  0
 11 12  1  1
 13 17  1  0
 13 12  1  0
 14 13  2  0
 15 22  1  0
 16 15  2  0
 19 18  1  1
 19 20  1  0
 19 21  1  0
 21 23  1  0
 21 22  1  6
 23 24  2  0
 23 25  1  0
M  END
$$$$
