EDT.pdb
     RDKit          3D

 25 24  0  0  1  0  0  0  0  0999 V2000
   17.6174  -13.7480  -16.7886 N   0  0  0  0  0  0  0  0  0  0  0  0
   17.3519  -12.3616  -16.7127 C   0  0  1  0  0  0  0  0  0  0  0  0
   16.4616  -11.8696  -15.6340 C   0  0  0  0  0  0  0  0  0  0  0  0
   15.1246  -12.4858  -15.5033 C   0  0  0  0  0  0  0  0  0  0  0  0
   15.0622  -13.6574  -14.6515 C   0  0  0  0  0  0  0  0  0  0  0  0
   15.7713  -13.8449  -13.6511 O   0  0  0  0  0  0  0  0  0  0  0  0
   18.6590  -11.5943  -16.7201 C   0  0  0  0  0  0  0  0  0  0  0  0
   19.6244  -11.9904  -16.0093 O   0  0  0  0  0  0  0  0  0  0  0  0
   14.1376  -14.6767  -14.9555 O   0  0  0  0  0  0  0  0  0  0  0  0
   18.8583  -10.4323  -17.4988 N   0  0  0  0  0  0  0  0  0  0  0  0
   20.1069   -9.6880  -17.4608 C   0  0  1  0  0  0  0  0  0  0  0  0
   20.3253   -9.0659  -18.8192 C   0  0  0  0  0  0  0  0  0  0  0  0
   21.5646   -8.2723  -18.9093 C   0  0  0  0  0  0  0  0  0  0  0  0
   22.3653   -8.1828  -17.9522 O   0  0  0  0  0  0  0  0  0  0  0  0
   19.9505   -8.5646  -16.4958 C   0  0  0  0  0  0  0  0  0  0  0  0
   18.9613   -7.7927  -16.5702 O   0  0  0  0  0  0  0  0  0  0  0  0
   21.8076   -7.6161  -20.1276 O   0  0  0  0  0  0  0  0  0  0  0  0
   21.4849   -6.1227  -12.4201 C   0  0  0  0  0  0  0  0  0  0  0  0
   21.5800   -7.3182  -13.3247 C   0  0  1  0  0  0  0  0  0  0  0  0
   21.0555   -8.4184  -12.6112 O   0  0  0  0  0  0  0  0  0  0  0  0
   20.7266   -7.1788  -14.5631 C   0  0  2  0  0  0  0  0  0  0  0  0
   20.8887   -8.3064  -15.4594 N   0  0  0  0  0  0  0  0  0  0  0  0
   20.9641   -5.9251  -15.2808 C   0  0  0  0  0  0  0  0  0  0  0  0
   20.1518   -4.9756  -15.1542 O   0  0  0  0  0  0  0  0  0  0  0  0
   22.0554   -5.7300  -16.1047 O   0  0  0  0  0  0  0  0  0  0  0  0
  2  1  1  1
  3  4  1  0
  3  2  1  0
  5  4  1  0
  5  6  2  0
  7  2  1  0
  7  8  2  0
  9  5  1  0
 10  7  1  0
 11 10  1  0
 11 15  1  0
 11 12  1  6
 13 17  1  0
 13 12  1  0
 14 13  2  0
 15 22  1  0
 16 15  2  0
 19 18  1  1
 19 20  1  0
 19 21  1  0
 21 23  1  0
 21 22  1  6
 23 24  2  0
 23 25  1  0
M  END
$$$$
