EDT.pdb
     RDKit          3D

 25 24  0  0  1  0  0  0  0  0999 V2000
   15.3123   -9.7913  -17.3995 N   0  0  0  0  0  0  0  0  0  0  0  0
   16.1088   -9.5880  -16.2494 C   0  0  1  0  0  0  0  0  0  0  0  0
   17.0090  -10.6810  -15.8099 C   0  0  0  0  0  0  0  0  0  0  0  0
   16.4086  -12.0008  -15.5234 C   0  0  0  0  0  0  0  0  0  0  0  0
   17.3525  -13.0599  -15.2246 C   0  0  0  0  0  0  0  0  0  0  0  0
   18.2490  -13.4470  -15.9896 O   0  0  0  0  0  0  0  0  0  0  0  0
   16.8737   -8.2866  -16.3866 C   0  0  0  0  0  0  0  0  0  0  0  0
   17.4681   -8.0179  -17.4676 O   0  0  0  0  0  0  0  0  0  0  0  0
   17.2722  -13.7181  -13.9809 O   0  0  0  0  0  0  0  0  0  0  0  0
   16.9581   -7.3367  -15.3441 N   0  0  0  0  0  0  0  0  0  0  0  0
   17.7530   -6.1258  -15.4719 C   0  0  1  0  0  0  0  0  0  0  0  0
   16.9401   -4.9708  -14.9383 C   0  0  0  0  0  0  0  0  0  0  0  0
   15.8873   -4.5158  -15.8649 C   0  0  0  0  0  0  0  0  0  0  0  0
   16.0486   -4.5221  -17.1055 O   0  0  0  0  0  0  0  0  0  0  0  0
   18.9444   -6.2550  -14.5878 C   0  0  0  0  0  0  0  0  0  0  0  0
   18.8225   -6.6788  -13.4109 O   0  0  0  0  0  0  0  0  0  0  0  0
   14.6861   -4.0714  -15.2875 O   0  0  0  0  0  0  0  0  0  0  0  0
   23.6259   -7.2523  -13.9052 C   0  0  0  0  0  0  0  0  0  0  0  0
   22.4182   -7.0479  -14.7747 C   0  0  1  0  0  0  0  0  0  0  0  0
   21.7782   -8.3013  -14.8934 O   0  0  0  0  0  0  0  0  0  0  0  0
   21.4038   -6.1188  -14.1508 C   0  0  2  0  0  0  0  0  0  0  0  0
   20.2572   -5.9144  -15.0139 N   0  0  0  0  0  0  0  0  0  0  0  0
   21.9768   -4.8299  -13.7587 C   0  0  0  0  0  0  0  0  0  0  0  0
   22.4894   -4.7010  -12.6195 O   0  0  0  0  0  0  0  0  0  0  0  0
   21.9824   -3.7290  -14.5928 O   0  0  0  0  0  0  0  0  0  0  0  0
  2  1  1  6
  3  4  1  0
  3  2  1  0
  5  4  1  0
  5  6  2  0
  7  2  1  0
  7  8  2  0
  9  5  1  0
 10  7  1  0
 11 10  1  0
 11 15  1  0
 11 12  1  1
 13 17  1  0
 13 12  1  0
 14 13  2  0
 15 22  1  0
 16 15  2  0
 19 18  1  1
 19 20  1  0
 19 21  1  0
 21 23  1  0
 21 22  1  6
 23 24  2  0
 23 25  1  0
M  END
$$$$
