EDT.pdb
     RDKit          3D

 25 24  0  0  1  0  0  0  0  0999 V2000
   19.6521  -21.7525  -11.7843 N   0  0  0  0  0  0  0  0  0  0  0  0
   20.3850  -22.0890  -12.9453 C   0  0  1  0  0  0  0  0  0  0  0  0
   19.7188  -22.9004  -13.9923 C   0  0  0  0  0  0  0  0  0  0  0  0
   19.4159  -24.3141  -13.6858 C   0  0  0  0  0  0  0  0  0  0  0  0
   18.0094  -24.6254  -13.5215 C   0  0  0  0  0  0  0  0  0  0  0  0
   17.5579  -25.7527  -13.2683 O   0  0  0  0  0  0  0  0  0  0  0  0
   20.9898  -20.8346  -13.5437 C   0  0  0  0  0  0  0  0  0  0  0  0
   20.5122  -19.7038  -13.2484 O   0  0  0  0  0  0  0  0  0  0  0  0
   17.0594  -23.5925  -13.6527 O   0  0  0  0  0  0  0  0  0  0  0  0
   22.0856  -20.8653  -14.4352 N   0  0  0  0  0  0  0  0  0  0  0  0
   22.7430  -19.6487  -14.8851 C   0  0  1  0  0  0  0  0  0  0  0  0
   24.1991  -19.9640  -15.1305 C   0  0  0  0  0  0  0  0  0  0  0  0
   24.9914  -18.7928  -15.5479 C   0  0  0  0  0  0  0  0  0  0  0  0
   24.4623  -17.6827  -15.7781 O   0  0  0  0  0  0  0  0  0  0  0  0
   22.1609  -19.2638  -16.2007 C   0  0  0  0  0  0  0  0  0  0  0  0
   22.1308  -20.0867  -17.1503 O   0  0  0  0  0  0  0  0  0  0  0  0
   26.3777  -18.9810  -15.6766 O   0  0  0  0  0  0  0  0  0  0  0  0
   19.4174  -15.9473  -16.6909 C   0  0  0  0  0  0  0  0  0  0  0  0
   19.5035  -17.2398  -17.4516 C   0  0  1  0  0  0  0  0  0  0  0  0
   18.9462  -17.0053  -18.7280 O   0  0  0  0  0  0  0  0  0  0  0  0
   20.9287  -17.6782  -17.6925 C   0  0  2  0  0  0  0  0  0  0  0  0
   21.6187  -17.9740  -16.4525 N   0  0  0  0  0  0  0  0  0  0  0  0
   21.6968  -16.7121  -18.4797 C   0  0  0  0  0  0  0  0  0  0  0  0
   21.4127  -16.5341  -19.6901 O   0  0  0  0  0  0  0  0  0  0  0  0
   22.7366  -15.9734  -17.9497 O   0  0  0  0  0  0  0  0  0  0  0  0
  2  1  1  1
  3  4  1  0
  3  2  1  0
  5  4  1  0
  5  6  2  0
  7  2  1  0
  7  8  2  0
  9  5  1  0
 10  7  1  0
 11 10  1  0
 11 15  1  0
 11 12  1  6
 13 17  1  0
 13 12  1  0
 14 13  2  0
 15 22  1  0
 16 15  2  0
 19 18  1  1
 19 20  1  0
 19 21  1  0
 21 23  1  0
 21 22  1  1
 23 24  2  0
 23 25  1  0
M  END
$$$$
