EDT.pdb
     RDKit          3D

 25 24  0  0  1  0  0  0  0  0999 V2000
   16.2315  -13.5865  -17.5639 N   0  0  0  0  0  0  0  0  0  0  0  0
   15.8992  -13.4733  -16.1946 C   0  0  1  0  0  0  0  0  0  0  0  0
   15.9137  -14.6983  -15.3593 C   0  0  0  0  0  0  0  0  0  0  0  0
   16.1557  -15.9925  -16.0307 C   0  0  0  0  0  0  0  0  0  0  0  0
   16.3098  -17.1308  -15.1461 C   0  0  0  0  0  0  0  0  0  0  0  0
   15.4782  -18.0413  -15.0112 O   0  0  0  0  0  0  0  0  0  0  0  0
   16.7364  -12.3815  -15.5587 C   0  0  0  0  0  0  0  0  0  0  0  0
   16.5932  -12.1128  -14.3334 O   0  0  0  0  0  0  0  0  0  0  0  0
   17.4803  -17.2404  -14.3685 O   0  0  0  0  0  0  0  0  0  0  0  0
   17.6907  -11.6316  -16.2821 N   0  0  0  0  0  0  0  0  0  0  0  0
   18.4521  -10.5581  -15.6634 C   0  0  1  0  0  0  0  0  0  0  0  0
   19.8479  -10.5794  -16.2387 C   0  0  0  0  0  0  0  0  0  0  0  0
   20.7342   -9.5485  -15.6680 C   0  0  0  0  0  0  0  0  0  0  0  0
   20.3406   -8.7480  -14.7908 O   0  0  0  0  0  0  0  0  0  0  0  0
   17.8422   -9.2612  -16.0681 C   0  0  0  0  0  0  0  0  0  0  0  0
   17.7407   -8.9554  -17.2829 O   0  0  0  0  0  0  0  0  0  0  0  0
   22.0504   -9.5053  -16.1575 O   0  0  0  0  0  0  0  0  0  0  0  0
   15.3361   -7.0009  -13.4003 C   0  0  0  0  0  0  0  0  0  0  0  0
   15.2535   -7.0679  -14.8987 C   0  0  1  0  0  0  0  0  0  0  0  0
   14.6782   -5.8541  -15.3350 O   0  0  0  0  0  0  0  0  0  0  0  0
   16.6130   -7.1443  -15.5525 C   0  0  2  0  0  0  0  0  0  0  0  0
   17.3514   -8.3165  -15.1259 N   0  0  0  0  0  0  0  0  0  0  0  0
   17.4152   -5.9379  -15.3420 C   0  0  0  0  0  0  0  0  0  0  0  0
   18.4526   -5.9994  -14.6368 O   0  0  0  0  0  0  0  0  0  0  0  0
   17.0834   -4.7140  -15.8894 O   0  0  0  0  0  0  0  0  0  0  0  0
  2  1  1  6
  3  4  1  0
  3  2  1  0
  5  4  1  0
  5  6  2  0
  7  2  1  0
  7  8  2  0
  9  5  1  0
 10  7  1  0
 11 10  1  0
 11 15  1  0
 11 12  1  6
 13 17  1  0
 13 12  1  0
 14 13  2  0
 15 22  1  0
 16 15  2  0
 19 18  1  1
 19 20  1  0
 19 21  1  0
 21 23  1  0
 21 22  1  1
 23 24  2  0
 23 25  1  0
M  END
$$$$
