EDT.pdb
     RDKit          3D

 25 24  0  0  1  0  0  0  0  0999 V2000
   24.4658  -22.6208  -14.3242 N   0  0  0  0  0  0  0  0  0  0  0  0
   24.2767  -21.2326  -14.1361 C   0  0  1  0  0  0  0  0  0  0  0  0
   25.4196  -20.3222  -14.3878 C   0  0  0  0  0  0  0  0  0  0  0  0
   26.7008  -20.9203  -14.8181 C   0  0  0  0  0  0  0  0  0  0  0  0
   27.1794  -20.4924  -16.1180 C   0  0  0  0  0  0  0  0  0  0  0  0
   28.2415  -20.8644  -16.6399 O   0  0  0  0  0  0  0  0  0  0  0  0
   23.0516  -20.7794  -14.9049 C   0  0  0  0  0  0  0  0  0  0  0  0
   22.8980  -21.1325  -16.1073 O   0  0  0  0  0  0  0  0  0  0  0  0
   26.4034  -19.5872  -16.8696 O   0  0  0  0  0  0  0  0  0  0  0  0
   22.0494  -19.9640  -14.3331 N   0  0  0  0  0  0  0  0  0  0  0  0
   20.9127  -19.4896  -15.1062 C   0  0  1  0  0  0  0  0  0  0  0  0
   19.6554  -20.0518  -14.4873 C   0  0  0  0  0  0  0  0  0  0  0  0
   19.6906  -20.0862  -13.0138 C   0  0  0  0  0  0  0  0  0  0  0  0
   20.7117  -20.4401  -12.3835 O   0  0  0  0  0  0  0  0  0  0  0  0
   20.8360  -18.0095  -14.9613 C   0  0  0  0  0  0  0  0  0  0  0  0
   21.0244  -17.4672  -13.8432 O   0  0  0  0  0  0  0  0  0  0  0  0
   18.5171  -19.7007  -12.3444 O   0  0  0  0  0  0  0  0  0  0  0  0
   22.9732  -15.3198  -16.1606 C   0  0  0  0  0  0  0  0  0  0  0  0
   21.5956  -15.0156  -16.6765 C   0  0  1  0  0  0  0  0  0  0  0  0
   21.5184  -15.5447  -17.9837 O   0  0  0  0  0  0  0  0  0  0  0  0
   20.5123  -15.7060  -15.8821 C   0  0  2  0  0  0  0  0  0  0  0  0
   20.5518  -17.1449  -16.0535 N   0  0  0  0  0  0  0  0  0  0  0  0
   19.1728  -15.1981  -16.1836 C   0  0  0  0  0  0  0  0  0  0  0  0
   18.3288  -15.9577  -16.7204 O   0  0  0  0  0  0  0  0  0  0  0  0
   18.7831  -13.9032  -15.9029 O   0  0  0  0  0  0  0  0  0  0  0  0
  2  1  1  6
  3  4  1  0
  3  2  1  0
  5  4  1  0
  5  6  2  0
  7  2  1  0
  7  8  2  0
  9  5  1  0
 10  7  1  0
 11 10  1  0
 11 15  1  0
 11 12  1  1
 13 17  1  0
 13 12  1  0
 14 13  2  0
 15 22  1  0
 16 15  2  0
 19 18  1  1
 19 20  1  0
 19 21  1  0
 21 23  1  0
 21 22  1  6
 23 24  2  0
 23 25  1  0
M  END
$$$$
