TEC.pdb
     RDKit          3D

 23 22  0  0  1  0  0  0  0  0999 V2000
   15.5227   -8.6990  -15.6366 C   0  0  0  0  0  0  0  0  0  0  0  0
   16.2171   -9.9923  -15.8944 C   0  0  1  0  0  0  0  0  0  0  0  0
   16.0538  -10.3290  -17.2394 O   0  0  0  0  0  0  0  0  0  0  0  0
   17.6940   -9.9355  -15.5743 C   0  0  2  0  0  0  0  0  0  0  0  0
   18.1904  -11.3166  -15.7565 N   0  0  0  0  0  0  0  0  0  0  0  0
   17.9731   -9.5807  -14.1648 C   0  0  0  0  0  0  0  0  0  0  0  0
   17.7012  -10.4070  -13.2553 O   0  0  0  0  0  0  0  0  0  0  0  0
   18.5406   -8.3426  -13.7670 N   0  0  0  0  0  0  0  0  0  0  0  0
   18.7958   -7.9699  -12.3759 C   0  0  1  0  0  0  0  0  0  0  0  0
   20.1319   -7.3656  -12.2435 C   0  0  0  0  0  0  0  0  0  0  0  0
   20.3201   -5.9531  -12.6458 C   0  0  0  0  0  0  0  0  0  0  0  0
   21.5913   -5.3068  -12.3815 C   0  0  0  0  0  0  0  0  0  0  0  0
   22.0187   -4.2097  -12.7434 O   0  0  0  0  0  0  0  0  0  0  0  0
   17.6529   -7.3435  -11.7422 C   0  0  0  0  0  0  0  0  0  0  0  0
   17.0531   -6.4086  -12.3326 O   0  0  0  0  0  0  0  0  0  0  0  0
   22.4954   -6.0519  -11.5764 O   0  0  0  0  0  0  0  0  0  0  0  0
   17.1524   -7.7340  -10.4625 N   0  0  0  0  0  0  0  0  0  0  0  0
   16.0879   -7.0816   -9.7732 C   0  0  1  0  0  0  0  0  0  0  0  0
   15.3988   -7.9848   -8.7690 C   0  0  0  0  0  0  0  0  0  0  0  0
   14.0052   -7.1150   -7.9999 S   0  0  0  0  0  0  0  0  0  0  0  0
   16.5101   -5.8492   -9.0664 C   0  0  0  0  0  0  0  0  0  0  0  0
   15.7031   -4.7245   -9.1263 O   0  0  0  0  0  0  0  0  0  0  0  0
   17.5784   -5.7746   -8.4075 O   0  0  0  0  0  0  0  0  0  0  0  0
  2  3  1  0
  2  1  1  6
  4  2  1  0
  4  5  1  1
  6  8  1  0
  6  4  1  0
  7  6  2  0
  9  8  1  0
  9 14  1  0
  9 10  1  6
 11 10  1  0
 12 11  1  0
 13 12  2  0
 14 17  1  0
 15 14  2  0
 16 12  1  0
 17 18  1  0
 18 19  1  1
 18 21  1  0
 20 19  1  0
 21 22  1  0
 23 21  2  0
M  END
$$$$
