TEC.pdb
     RDKit          3D

 23 22  0  0  1  0  0  0  0  0999 V2000
   21.2134  -11.8661  -16.1961 C   0  0  0  0  0  0  0  0  0  0  0  0
   20.9545  -10.4727  -15.7353 C   0  0  1  0  0  0  0  0  0  0  0  0
   21.2374   -9.5938  -16.7825 O   0  0  0  0  0  0  0  0  0  0  0  0
   19.5261  -10.2628  -15.2853 C   0  0  2  0  0  0  0  0  0  0  0  0
   18.7042  -10.3936  -16.5078 N   0  0  0  0  0  0  0  0  0  0  0  0
   19.2721   -8.9016  -14.7627 C   0  0  0  0  0  0  0  0  0  0  0  0
   18.8573   -8.0078  -15.5456 O   0  0  0  0  0  0  0  0  0  0  0  0
   19.4699   -8.5344  -13.4065 N   0  0  0  0  0  0  0  0  0  0  0  0
   19.2396   -7.1885  -12.8822 C   0  0  1  0  0  0  0  0  0  0  0  0
   18.5618   -7.2556  -11.5769 C   0  0  0  0  0  0  0  0  0  0  0  0
   18.2206   -5.9925  -10.8835 C   0  0  0  0  0  0  0  0  0  0  0  0
   17.5134   -6.0501   -9.6185 C   0  0  0  0  0  0  0  0  0  0  0  0
   16.5125   -6.6899   -9.2927 O   0  0  0  0  0  0  0  0  0  0  0  0
   20.3798   -6.3121  -13.0608 C   0  0  0  0  0  0  0  0  0  0  0  0
   21.4486   -6.5533  -12.4431 O   0  0  0  0  0  0  0  0  0  0  0  0
   18.0554   -5.2414   -8.5827 O   0  0  0  0  0  0  0  0  0  0  0  0
   20.3651   -5.1688  -13.9172 N   0  0  0  0  0  0  0  0  0  0  0  0
   21.4843   -4.3170  -14.1538 C   0  0  1  0  0  0  0  0  0  0  0  0
   22.0810   -4.5029  -15.5354 C   0  0  0  0  0  0  0  0  0  0  0  0
   22.5532   -6.2366  -15.7835 S   0  0  0  0  0  0  0  0  0  0  0  0
   21.1784   -2.8778  -13.9771 C   0  0  0  0  0  0  0  0  0  0  0  0
   22.2196   -1.9642  -13.9396 O   0  0  0  0  0  0  0  0  0  0  0  0
   20.0055   -2.4409  -13.8577 O   0  0  0  0  0  0  0  0  0  0  0  0
  2  3  1  0
  2  1  1  6
  4  2  1  0
  4  5  1  6
  6  8  1  0
  6  4  1  0
  7  6  2  0
  9  8  1  0
  9 14  1  0
  9 10  1  1
 11 10  1  0
 12 11  1  0
 13 12  2  0
 14 17  1  0
 15 14  2  0
 16 12  1  0
 17 18  1  0
 18 19  1  6
 18 21  1  0
 20 19  1  0
 21 22  1  0
 23 21  2  0
M  END
$$$$
