TEC.pdb
     RDKit          3D

 23 22  0  0  1  0  0  0  0  0999 V2000
   21.9275  -13.5774  -19.3292 C   0  0  0  0  0  0  0  0  0  0  0  0
   21.3056  -12.2869  -18.9184 C   0  0  1  0  0  0  0  0  0  0  0  0
   19.9625  -12.5134  -18.6118 O   0  0  0  0  0  0  0  0  0  0  0  0
   21.9885  -11.6652  -17.7209 C   0  0  2  0  0  0  0  0  0  0  0  0
   21.7901  -12.6235  -16.6122 N   0  0  0  0  0  0  0  0  0  0  0  0
   21.3631  -10.3966  -17.2850 C   0  0  0  0  0  0  0  0  0  0  0  0
   21.4171   -9.3910  -18.0398 O   0  0  0  0  0  0  0  0  0  0  0  0
   20.6921  -10.2405  -16.0446 N   0  0  0  0  0  0  0  0  0  0  0  0
   20.1481   -8.9708  -15.5637 C   0  0  1  0  0  0  0  0  0  0  0  0
   18.8766   -9.1929  -14.8555 C   0  0  0  0  0  0  0  0  0  0  0  0
   17.7439   -9.7973  -15.5934 C   0  0  0  0  0  0  0  0  0  0  0  0
   16.4811   -9.9973  -14.9086 C   0  0  0  0  0  0  0  0  0  0  0  0
   15.8290  -11.0255  -14.7223 O   0  0  0  0  0  0  0  0  0  0  0  0
   21.1585   -8.1095  -14.9829 C   0  0  0  0  0  0  0  0  0  0  0  0
   22.0109   -8.5978  -14.1973 O   0  0  0  0  0  0  0  0  0  0  0  0
   15.8947   -8.8237  -14.3616 O   0  0  0  0  0  0  0  0  0  0  0  0
   21.2500   -6.7105  -15.2571 N   0  0  0  0  0  0  0  0  0  0  0  0
   22.1568   -5.8151  -14.6167 C   0  0  1  0  0  0  0  0  0  0  0  0
   23.1372   -5.1816  -15.5846 C   0  0  0  0  0  0  0  0  0  0  0  0
   24.2759   -4.0869  -14.6930 S   0  0  0  0  0  0  0  0  0  0  0  0
   21.4830   -4.7269  -13.8696 C   0  0  0  0  0  0  0  0  0  0  0  0
   22.0994   -4.1924  -12.7497 O   0  0  0  0  0  0  0  0  0  0  0  0
   20.3654   -4.2602  -14.2073 O   0  0  0  0  0  0  0  0  0  0  0  0
  2  3  1  0
  2  1  1  1
  4  2  1  0
  4  5  1  1
  6  8  1  0
  6  4  1  0
  7  6  2  0
  9  8  1  0
  9 14  1  0
  9 10  1  1
 11 10  1  0
 12 11  1  0
 13 12  2  0
 14 17  1  0
 15 14  2  0
 16 12  1  0
 17 18  1  0
 18 19  1  6
 18 21  1  0
 20 19  1  0
 21 22  1  0
 23 21  2  0
M  END
$$$$
