TEC.pdb
     RDKit          3D

 23 22  0  0  1  0  0  0  0  0999 V2000
   23.9872  -33.8670   -5.3729 C   0  0  0  0  0  0  0  0  0  0  0  0
   25.2179  -33.0265   -5.3828 C   0  0  1  0  0  0  0  0  0  0  0  0
   25.3549  -32.4166   -4.1345 O   0  0  0  0  0  0  0  0  0  0  0  0
   26.4669  -33.8242   -5.6836 C   0  0  2  0  0  0  0  0  0  0  0  0
   26.2132  -34.4781   -6.9855 N   0  0  0  0  0  0  0  0  0  0  0  0
   26.7100  -34.9166   -4.7151 C   0  0  0  0  0  0  0  0  0  0  0  0
   26.2178  -36.0543   -4.9324 O   0  0  0  0  0  0  0  0  0  0  0  0
   27.4795  -34.7583   -3.5336 N   0  0  0  0  0  0  0  0  0  0  0  0
   27.6823  -35.8147   -2.5426 C   0  0  1  0  0  0  0  0  0  0  0  0
   28.9096  -35.5637   -1.7690 C   0  0  0  0  0  0  0  0  0  0  0  0
   29.3020  -36.5303   -0.7182 C   0  0  0  0  0  0  0  0  0  0  0  0
   30.4867  -36.2678    0.0762 C   0  0  0  0  0  0  0  0  0  0  0  0
   31.0368  -36.9539    0.9387 O   0  0  0  0  0  0  0  0  0  0  0  0
   26.4600  -36.1871   -1.8588 C   0  0  0  0  0  0  0  0  0  0  0  0
   25.6846  -35.2881   -1.4434 O   0  0  0  0  0  0  0  0  0  0  0  0
   31.1215  -35.0209   -0.1743 O   0  0  0  0  0  0  0  0  0  0  0  0
   26.0717  -37.5421   -1.6263 N   0  0  0  0  0  0  0  0  0  0  0  0
   24.9124  -37.9409   -0.8976 C   0  0  1  0  0  0  0  0  0  0  0  0
   23.7651  -38.3518   -1.7998 C   0  0  0  0  0  0  0  0  0  0  0  0
   24.4038  -39.1524   -3.2968 S   0  0  0  0  0  0  0  0  0  0  0  0
   25.1657  -39.0483    0.0543 C   0  0  0  0  0  0  0  0  0  0  0  0
   24.1567  -39.4418    0.9187 O   0  0  0  0  0  0  0  0  0  0  0  0
   26.2654  -39.6547    0.1159 O   0  0  0  0  0  0  0  0  0  0  0  0
  2  3  1  0
  2  1  1  1
  4  2  1  0
  4  5  1  6
  6  8  1  0
  6  4  1  0
  7  6  2  0
  9  8  1  0
  9 14  1  0
  9 10  1  1
 11 10  1  0
 12 11  1  0
 13 12  2  0
 14 17  1  0
 15 14  2  0
 16 12  1  0
 17 18  1  0
 18 19  1  6
 18 21  1  0
 20 19  1  0
 21 22  1  0
 23 21  2  0
M  END
$$$$
