TEC.pdb
     RDKit          3D

 23 22  0  0  1  0  0  0  0  0999 V2000
   22.6956  -10.5189  -16.7806 C   0  0  0  0  0  0  0  0  0  0  0  0
   21.7870  -10.8407  -17.9173 C   0  0  1  0  0  0  0  0  0  0  0  0
   22.1878  -12.0524  -18.4831 O   0  0  0  0  0  0  0  0  0  0  0  0
   20.3389  -10.9468  -17.4948 C   0  0  2  0  0  0  0  0  0  0  0  0
   19.5879  -11.2472  -18.7328 N   0  0  0  0  0  0  0  0  0  0  0  0
   19.7866   -9.6750  -16.9770 C   0  0  0  0  0  0  0  0  0  0  0  0
   19.7022   -8.6814  -17.7447 O   0  0  0  0  0  0  0  0  0  0  0  0
   19.3363   -9.5030  -15.6425 N   0  0  0  0  0  0  0  0  0  0  0  0
   18.9086   -8.2211  -15.0831 C   0  0  1  0  0  0  0  0  0  0  0  0
   17.5553   -8.3354  -14.5147 C   0  0  0  0  0  0  0  0  0  0  0  0
   16.4206   -8.6185  -15.4229 C   0  0  0  0  0  0  0  0  0  0  0  0
   15.0804   -8.7000  -14.8746 C   0  0  0  0  0  0  0  0  0  0  0  0
   14.1235   -7.9329  -14.9898 O   0  0  0  0  0  0  0  0  0  0  0  0
   19.9551   -7.5579  -14.3312 C   0  0  0  0  0  0  0  0  0  0  0  0
   20.4479   -8.1260  -13.3230 O   0  0  0  0  0  0  0  0  0  0  0  0
   14.8205   -9.8457  -14.0744 O   0  0  0  0  0  0  0  0  0  0  0  0
   20.4753   -6.2726  -14.6750 N   0  0  0  0  0  0  0  0  0  0  0  0
   21.5206   -5.6049  -13.9712 C   0  0  1  0  0  0  0  0  0  0  0  0
   22.8836   -5.8250  -14.5983 C   0  0  0  0  0  0  0  0  0  0  0  0
   23.3680   -7.5661  -14.4441 S   0  0  0  0  0  0  0  0  0  0  0  0
   21.3063   -4.1441  -13.8426 C   0  0  0  0  0  0  0  0  0  0  0  0
   20.2948   -3.5416  -14.5733 O   0  0  0  0  0  0  0  0  0  0  0  0
   22.0068   -3.4167  -13.0935 O   0  0  0  0  0  0  0  0  0  0  0  0
  2  3  1  0
  2  1  1  1
  4  2  1  0
  4  5  1  6
  6  8  1  0
  6  4  1  0
  7  6  2  0
  9  8  1  0
  9 14  1  0
  9 10  1  1
 11 10  1  0
 12 11  1  0
 13 12  2  0
 14 17  1  0
 15 14  2  0
 16 12  1  0
 17 18  1  0
 18 19  1  6
 18 21  1  0
 20 19  1  0
 21 22  1  0
 23 21  2  0
M  END
$$$$
