TEC.pdb
     RDKit          3D

 23 22  0  0  1  0  0  0  0  0999 V2000
   15.7181  -12.2940  -11.3302 C   0  0  0  0  0  0  0  0  0  0  0  0
   14.3053  -11.9743  -10.9793 C   0  0  1  0  0  0  0  0  0  0  0  0
   13.6821  -13.1372  -10.5227 O   0  0  0  0  0  0  0  0  0  0  0  0
   14.1959  -10.9043   -9.9163 C   0  0  2  0  0  0  0  0  0  0  0  0
   12.7464  -10.6691   -9.7412 N   0  0  0  0  0  0  0  0  0  0  0  0
   14.7759   -9.6073  -10.3309 C   0  0  0  0  0  0  0  0  0  0  0  0
   14.2357   -8.9608  -11.2659 O   0  0  0  0  0  0  0  0  0  0  0  0
   15.9255   -9.0352   -9.7273 N   0  0  0  0  0  0  0  0  0  0  0  0
   16.5718   -7.8104  -10.1977 C   0  0  1  0  0  0  0  0  0  0  0  0
   16.4036   -6.7303   -9.2115 C   0  0  0  0  0  0  0  0  0  0  0  0
   15.0592   -6.1394   -9.0214 C   0  0  0  0  0  0  0  0  0  0  0  0
   14.9054   -5.0066   -8.1289 C   0  0  0  0  0  0  0  0  0  0  0  0
   15.7328   -4.4308   -7.4211 O   0  0  0  0  0  0  0  0  0  0  0  0
   17.8718   -8.0521  -10.7909 C   0  0  0  0  0  0  0  0  0  0  0  0
   18.7819   -8.5729  -10.0962 O   0  0  0  0  0  0  0  0  0  0  0  0
   13.5922   -4.4678   -8.0527 O   0  0  0  0  0  0  0  0  0  0  0  0
   18.1883   -7.7320  -12.1467 N   0  0  0  0  0  0  0  0  0  0  0  0
   19.4683   -7.9182  -12.7474 C   0  0  1  0  0  0  0  0  0  0  0  0
   19.4320   -8.8803  -13.9189 C   0  0  0  0  0  0  0  0  0  0  0  0
   18.6488  -10.4392  -13.4226 S   0  0  0  0  0  0  0  0  0  0  0  0
   20.0922   -6.6562  -13.2105 C   0  0  0  0  0  0  0  0  0  0  0  0
   21.4326   -6.6529  -13.5616 O   0  0  0  0  0  0  0  0  0  0  0  0
   19.4559   -5.5755  -13.3007 O   0  0  0  0  0  0  0  0  0  0  0  0
  2  3  1  0
  2  1  1  1
  4  2  1  0
  4  5  1  6
  6  8  1  0
  6  4  1  0
  7  6  2  0
  9  8  1  0
  9 14  1  0
  9 10  1  1
 11 10  1  0
 12 11  1  0
 13 12  2  0
 14 17  1  0
 15 14  2  0
 16 12  1  0
 17 18  1  0
 18 19  1  6
 18 21  1  0
 20 19  1  0
 21 22  1  0
 23 21  2  0
M  END
$$$$
