TEC.pdb
     RDKit          3D

 23 22  0  0  1  0  0  0  0  0999 V2000
   21.4671  -13.6059  -16.5524 C   0  0  0  0  0  0  0  0  0  0  0  0
   21.7077  -12.5296  -17.5549 C   0  0  1  0  0  0  0  0  0  0  0  0
   21.9633  -13.1196  -18.7942 O   0  0  0  0  0  0  0  0  0  0  0  0
   20.5349  -11.5845  -17.6892 C   0  0  2  0  0  0  0  0  0  0  0  0
   20.9484  -10.5835  -18.6963 N   0  0  0  0  0  0  0  0  0  0  0  0
   20.2496  -10.8275  -16.4499 C   0  0  0  0  0  0  0  0  0  0  0  0
   19.8433  -11.4437  -15.4305 O   0  0  0  0  0  0  0  0  0  0  0  0
   20.4097   -9.4222  -16.3367 N   0  0  0  0  0  0  0  0  0  0  0  0
   20.0784   -8.6560  -15.1357 C   0  0  1  0  0  0  0  0  0  0  0  0
   20.9331   -7.4612  -15.0374 C   0  0  0  0  0  0  0  0  0  0  0  0
   20.7044   -6.5086  -13.9272 C   0  0  0  0  0  0  0  0  0  0  0  0
   21.5084   -5.3037  -13.8534 C   0  0  0  0  0  0  0  0  0  0  0  0
   21.1711   -4.1271  -13.7151 O   0  0  0  0  0  0  0  0  0  0  0  0
   18.6503   -8.5435  -14.9160 C   0  0  0  0  0  0  0  0  0  0  0  0
   17.9041   -8.1895  -15.8646 O   0  0  0  0  0  0  0  0  0  0  0  0
   22.9120   -5.5032  -13.9565 O   0  0  0  0  0  0  0  0  0  0  0  0
   18.0244   -8.8201  -13.6620 N   0  0  0  0  0  0  0  0  0  0  0  0
   16.6280   -8.6871  -13.4045 C   0  0  1  0  0  0  0  0  0  0  0  0
   16.1869   -9.4353  -12.1616 C   0  0  0  0  0  0  0  0  0  0  0  0
   14.4003   -9.2402  -11.9164 S   0  0  0  0  0  0  0  0  0  0  0  0
   16.1834   -7.2794  -13.2735 C   0  0  0  0  0  0  0  0  0  0  0  0
   15.0798   -6.8485  -13.9920 O   0  0  0  0  0  0  0  0  0  0  0  0
   16.7669   -6.4475  -12.5329 O   0  0  0  0  0  0  0  0  0  0  0  0
  2  3  1  0
  2  1  1  1
  4  2  1  0
  4  5  1  6
  6  8  1  0
  6  4  1  0
  7  6  2  0
  9  8  1  0
  9 14  1  0
  9 10  1  6
 11 10  1  0
 12 11  1  0
 13 12  2  0
 14 17  1  0
 15 14  2  0
 16 12  1  0
 17 18  1  0
 18 19  1  1
 18 21  1  0
 20 19  1  0
 21 22  1  0
 23 21  2  0
M  END
$$$$
