TEC.pdb
     RDKit          3D

 23 22  0  0  1  0  0  0  0  0999 V2000
   18.5353  -12.7228  -15.4859 C   0  0  0  0  0  0  0  0  0  0  0  0
   18.6740  -11.2820  -15.1309 C   0  0  1  0  0  0  0  0  0  0  0  0
   18.9318  -10.5557  -16.2950 O   0  0  0  0  0  0  0  0  0  0  0  0
   17.4373  -10.7239  -14.4631 C   0  0  2  0  0  0  0  0  0  0  0  0
   16.3783  -10.7678  -15.4944 N   0  0  0  0  0  0  0  0  0  0  0  0
   17.5741   -9.3024  -14.0743 C   0  0  0  0  0  0  0  0  0  0  0  0
   17.2532   -8.4047  -14.8959 O   0  0  0  0  0  0  0  0  0  0  0  0
   18.0532   -8.8801  -12.8073 N   0  0  0  0  0  0  0  0  0  0  0  0
   18.2798   -7.4816  -12.4438 C   0  0  1  0  0  0  0  0  0  0  0  0
   17.6913   -7.1923  -11.1257 C   0  0  0  0  0  0  0  0  0  0  0  0
   17.8724   -5.8432  -10.5429 C   0  0  0  0  0  0  0  0  0  0  0  0
   17.3358   -5.5654   -9.2244 C   0  0  0  0  0  0  0  0  0  0  0  0
   17.2524   -4.5042   -8.6046 O   0  0  0  0  0  0  0  0  0  0  0  0
   19.6224   -7.0306  -12.7510 C   0  0  0  0  0  0  0  0  0  0  0  0
   20.5927   -7.8120  -12.5775 O   0  0  0  0  0  0  0  0  0  0  0  0
   16.8213   -6.6930   -8.5285 O   0  0  0  0  0  0  0  0  0  0  0  0
   19.9170   -5.7263  -13.2537 N   0  0  0  0  0  0  0  0  0  0  0  0
   21.2097   -5.2885  -13.6678 C   0  0  1  0  0  0  0  0  0  0  0  0
   21.7461   -6.0769  -14.8468 C   0  0  0  0  0  0  0  0  0  0  0  0
   23.3685   -5.4343  -15.3415 S   0  0  0  0  0  0  0  0  0  0  0  0
   21.2614   -3.8493  -14.0177 C   0  0  0  0  0  0  0  0  0  0  0  0
   22.4444   -3.1509  -13.8367 O   0  0  0  0  0  0  0  0  0  0  0  0
   20.2714   -3.2244  -14.4760 O   0  0  0  0  0  0  0  0  0  0  0  0
  2  3  1  0
  2  1  1  6
  4  2  1  0
  4  5  1  6
  6  8  1  0
  6  4  1  0
  7  6  2  0
  9  8  1  0
  9 14  1  0
  9 10  1  1
 11 10  1  0
 12 11  1  0
 13 12  2  0
 14 17  1  0
 15 14  2  0
 16 12  1  0
 17 18  1  0
 18 19  1  6
 18 21  1  0
 20 19  1  0
 21 22  1  0
 23 21  2  0
M  END
$$$$
