TEC.pdb
     RDKit          3D

 23 22  0  0  1  0  0  0  0  0999 V2000
   33.3683  -27.1236  -19.0905 C   0  0  0  0  0  0  0  0  0  0  0  0
   32.0478  -27.7738  -18.8563 C   0  0  1  0  0  0  0  0  0  0  0  0
   31.0705  -27.0734  -19.5657 O   0  0  0  0  0  0  0  0  0  0  0  0
   32.0271  -29.2238  -19.2854 C   0  0  2  0  0  0  0  0  0  0  0  0
   32.1806  -29.2020  -20.7561 N   0  0  0  0  0  0  0  0  0  0  0  0
   30.7354  -29.8943  -19.0166 C   0  0  0  0  0  0  0  0  0  0  0  0
   29.8081  -29.8088  -19.8632 O   0  0  0  0  0  0  0  0  0  0  0  0
   30.4723  -30.6437  -17.8408 N   0  0  0  0  0  0  0  0  0  0  0  0
   29.1955  -31.2984  -17.5574 C   0  0  1  0  0  0  0  0  0  0  0  0
   29.4009  -32.4685  -16.6878 C   0  0  0  0  0  0  0  0  0  0  0  0
   28.2233  -33.2616  -16.2672 C   0  0  0  0  0  0  0  0  0  0  0  0
   28.4163  -34.4047  -15.3956 C   0  0  0  0  0  0  0  0  0  0  0  0
   27.6095  -35.2406  -14.9862 O   0  0  0  0  0  0  0  0  0  0  0  0
   28.1331  -30.3573  -17.2645 C   0  0  0  0  0  0  0  0  0  0  0  0
   28.3763  -29.3528  -16.5476 O   0  0  0  0  0  0  0  0  0  0  0  0
   29.7470  -34.5993  -14.9353 O   0  0  0  0  0  0  0  0  0  0  0  0
   26.7988  -30.5017  -17.7541 N   0  0  0  0  0  0  0  0  0  0  0  0
   25.7441  -29.5696  -17.5239 C   0  0  1  0  0  0  0  0  0  0  0  0
   25.1655  -29.0097  -18.8088 C   0  0  0  0  0  0  0  0  0  0  0  0
   25.7845  -27.3284  -19.0917 S   0  0  0  0  0  0  0  0  0  0  0  0
   24.6281  -30.1270  -16.7238 C   0  0  0  0  0  0  0  0  0  0  0  0
   23.6945  -29.2646  -16.1718 O   0  0  0  0  0  0  0  0  0  0  0  0
   24.4864  -31.3595  -16.5193 O   0  0  0  0  0  0  0  0  0  0  0  0
  2  3  1  0
  2  1  1  6
  4  2  1  0
  4  5  1  6
  6  8  1  0
  6  4  1  0
  7  6  2  0
  9  8  1  0
  9 14  1  0
  9 10  1  1
 11 10  1  0
 12 11  1  0
 13 12  2  0
 14 17  1  0
 15 14  2  0
 16 12  1  0
 17 18  1  0
 18 19  1  6
 18 21  1  0
 20 19  1  0
 21 22  1  0
 23 21  2  0
M  END
$$$$
