TEC.pdb
     RDKit          3D

 23 22  0  0  1  0  0  0  0  0999 V2000
   27.1350  -16.8475  -14.6167 C   0  0  0  0  0  0  0  0  0  0  0  0
   26.3537  -15.7619  -15.2741 C   0  0  1  0  0  0  0  0  0  0  0  0
   27.1145  -15.2295  -16.3166 O   0  0  0  0  0  0  0  0  0  0  0  0
   25.0308  -16.2460  -15.8240 C   0  0  2  0  0  0  0  0  0  0  0  0
   25.3759  -17.1586  -16.9353 N   0  0  0  0  0  0  0  0  0  0  0  0
   24.2141  -15.1643  -16.4186 C   0  0  0  0  0  0  0  0  0  0  0  0
   24.5047  -14.7305  -17.5637 O   0  0  0  0  0  0  0  0  0  0  0  0
   23.1010  -14.5747  -15.7655 N   0  0  0  0  0  0  0  0  0  0  0  0
   22.3604  -13.4269  -16.2882 C   0  0  1  0  0  0  0  0  0  0  0  0
   20.9118  -13.6857  -16.2394 C   0  0  0  0  0  0  0  0  0  0  0  0
   19.9821  -12.6357  -16.7144 C   0  0  0  0  0  0  0  0  0  0  0  0
   18.5550  -12.8937  -16.6933 C   0  0  0  0  0  0  0  0  0  0  0  0
   17.6088  -12.1278  -16.5052 O   0  0  0  0  0  0  0  0  0  0  0  0
   22.8845  -12.1589  -15.8216 C   0  0  0  0  0  0  0  0  0  0  0  0
   23.3933  -12.0842  -14.6737 O   0  0  0  0  0  0  0  0  0  0  0  0
   18.1788  -14.2446  -16.9260 O   0  0  0  0  0  0  0  0  0  0  0  0
   22.8620  -10.9640  -16.6042 N   0  0  0  0  0  0  0  0  0  0  0  0
   23.3651   -9.7012  -16.1727 C   0  0  1  0  0  0  0  0  0  0  0  0
   24.3129   -9.0736  -17.1762 C   0  0  0  0  0  0  0  0  0  0  0  0
   24.9320   -7.4899  -16.5446 S   0  0  0  0  0  0  0  0  0  0  0  0
   22.3017   -8.7149  -15.8684 C   0  0  0  0  0  0  0  0  0  0  0  0
   22.3548   -8.0079  -14.6779 O   0  0  0  0  0  0  0  0  0  0  0  0
   21.3419   -8.4865  -16.6480 O   0  0  0  0  0  0  0  0  0  0  0  0
  2  3  1  0
  2  1  1  6
  4  2  1  0
  4  5  1  6
  6  8  1  0
  6  4  1  0
  7  6  2  0
  9  8  1  0
  9 14  1  0
  9 10  1  1
 11 10  1  0
 12 11  1  0
 13 12  2  0
 14 17  1  0
 15 14  2  0
 16 12  1  0
 17 18  1  0
 18 19  1  6
 18 21  1  0
 20 19  1  0
 21 22  1  0
 23 21  2  0
M  END
$$$$
