WGP.pdb
     RDKit          3D

 26 28  0  0  1  0  0  0  0  0999 V2000
   25.0839  -20.1613  -10.0815 N   0  0  0  0  0  0  0  0  0  0  0  0
   26.4648  -20.4955  -10.1894 C   0  0  1  0  0  0  0  0  0  0  0  0
   27.0304  -21.3422   -9.1035 C   0  0  0  0  0  0  0  0  0  0  0  0
   26.9130  -20.7516   -7.7541 C   0  0  0  0  0  0  0  0  0  0  0  0
   25.7459  -20.2885   -7.1750 C   0  0  0  0  0  0  0  0  0  0  0  0
   25.9993  -19.8052   -5.9543 N   0  0  0  0  0  0  0  0  0  0  0  0
   27.3319  -19.9352   -5.6953 C   0  0  0  0  0  0  0  0  0  0  0  0
   28.0580  -19.5865   -4.5788 C   0  0  0  0  0  0  0  0  0  0  0  0
   29.4080  -19.8329   -4.5712 C   0  0  0  0  0  0  0  0  0  0  0  0
   30.0047  -20.4149   -5.6611 C   0  0  0  0  0  0  0  0  0  0  0  0
   29.2469  -20.7520   -6.7642 C   0  0  0  0  0  0  0  0  0  0  0  0
   27.8914  -20.5239   -6.8177 C   0  0  0  0  0  0  0  0  0  0  0  0
   26.8143  -21.0296  -11.5457 C   0  0  0  0  0  0  0  0  0  0  0  0
   26.0484  -21.8914  -12.0355 O   0  0  0  0  0  0  0  0  0  0  0  0
   27.9397  -20.6235  -12.2915 N   0  0  0  0  0  0  0  0  0  0  0  0
   28.1489  -19.3175  -12.8239 C   0  0  0  0  0  0  0  0  0  0  0  0
   27.2734  -19.1161  -14.0017 C   0  0  0  0  0  0  0  0  0  0  0  0
   26.0294  -19.1543  -13.8369 O   0  0  0  0  0  0  0  0  0  0  0  0
   27.7880  -18.8836  -15.2974 N   0  0  0  0  0  0  0  0  0  0  0  0
   29.1572  -19.0154  -15.7165 C   0  0  0  0  0  0  0  0  0  0  0  0
   29.2647  -18.3471  -17.0610 C   0  0  0  0  0  0  0  0  0  0  0  0
   27.9464  -17.6254  -17.2724 C   0  0  0  0  0  0  0  0  0  0  0  0
   27.0124  -18.4683  -16.4374 C   0  0  1  0  0  0  0  0  0  0  0  0
   26.5918  -19.7031  -17.1763 C   0  0  0  0  0  0  0  0  0  0  0  0
   25.6624  -19.6804  -18.2015 O   0  0  0  0  0  0  0  0  0  0  0  0
   27.0912  -20.8378  -16.8733 O   0  0  0  0  0  0  0  0  0  0  0  0
  2 13  1  0
  2  1  1  1
  3  2  1  0
  4  3  1  0
  5  4  2  0
  6  7  1  0
  6  5  1  0
  7 12  2  0
  8  7  1  0
  8  9  2  0
  9 10  1  0
 10 11  2  0
 12  4  1  0
 12 11  1  0
 13 15  1  0
 14 13  2  0
 16 15  1  0
 17 16  1  0
 18 17  2  0
 19 17  1  0
 19 23  1  0
 20 21  1  0
 20 19  1  0
 21 22  1  0
 22 23  1  0
 23 24  1  6
 24 25  1  0
 26 24  2  0
M  END
$$$$
