WGP.pdb
     RDKit          3D

 26 28  0  0  1  0  0  0  0  0999 V2000
   25.4500  -20.4824   -9.3568 N   0  0  0  0  0  0  0  0  0  0  0  0
   26.8517  -20.6672   -9.5338 C   0  0  1  0  0  0  0  0  0  0  0  0
   27.5882  -21.2906   -8.4004 C   0  0  0  0  0  0  0  0  0  0  0  0
   27.6608  -20.4460   -7.1901 C   0  0  0  0  0  0  0  0  0  0  0  0
   26.7355  -19.4881   -6.8181 C   0  0  0  0  0  0  0  0  0  0  0  0
   27.1154  -18.9007   -5.6785 N   0  0  0  0  0  0  0  0  0  0  0  0
   28.2941  -19.4511   -5.2691 C   0  0  0  0  0  0  0  0  0  0  0  0
   29.0647  -19.1778   -4.1615 C   0  0  0  0  0  0  0  0  0  0  0  0
   30.2234  -19.8897   -3.9769 C   0  0  0  0  0  0  0  0  0  0  0  0
   30.5905  -20.8493   -4.8864 C   0  0  0  0  0  0  0  0  0  0  0  0
   29.7945  -21.0978   -5.9860 C   0  0  0  0  0  0  0  0  0  0  0  0
   28.6253  -20.4096   -6.2131 C   0  0  0  0  0  0  0  0  0  0  0  0
   27.1752  -21.3340  -10.8368 C   0  0  0  0  0  0  0  0  0  0  0  0
   27.8634  -22.3796  -10.7884 O   0  0  0  0  0  0  0  0  0  0  0  0
   26.7554  -20.8587  -12.0959 N   0  0  0  0  0  0  0  0  0  0  0  0
   27.1161  -21.4253  -13.3537 C   0  0  0  0  0  0  0  0  0  0  0  0
   26.5312  -20.6163  -14.4480 C   0  0  0  0  0  0  0  0  0  0  0  0
   25.8576  -19.6003  -14.1478 O   0  0  0  0  0  0  0  0  0  0  0  0
   26.7047  -20.9474  -15.8111 N   0  0  0  0  0  0  0  0  0  0  0  0
   27.2506  -22.1690  -16.3377 C   0  0  0  0  0  0  0  0  0  0  0  0
   27.5422  -21.9209  -17.7935 C   0  0  0  0  0  0  0  0  0  0  0  0
   27.3561  -20.4296  -18.0057 C   0  0  0  0  0  0  0  0  0  0  0  0
   26.3565  -20.1008  -16.9227 C   0  0  1  0  0  0  0  0  0  0  0  0
   24.9631  -20.4561  -17.3467 C   0  0  0  0  0  0  0  0  0  0  0  0
   24.2291  -19.6802  -18.2269 O   0  0  0  0  0  0  0  0  0  0  0  0
   24.4008  -21.5097  -16.8970 O   0  0  0  0  0  0  0  0  0  0  0  0
  2 13  1  0
  2  1  1  1
  3  2  1  0
  4  3  1  0
  5  4  2  0
  6  7  1  0
  6  5  1  0
  7 12  2  0
  8  7  1  0
  8  9  2  0
  9 10  1  0
 10 11  2  0
 12  4  1  0
 12 11  1  0
 13 15  1  0
 14 13  2  0
 16 15  1  0
 17 16  1  0
 18 17  2  0
 19 17  1  0
 19 23  1  0
 20 21  1  0
 20 19  1  0
 21 22  1  0
 22 23  1  0
 23 24  1  6
 24 25  1  0
 26 24  2  0
M  END
$$$$
