WGP.pdb
     RDKit          3D

 26 28  0  0  1  0  0  0  0  0999 V2000
   24.7575  -20.0925   -9.6020 N   0  0  0  0  0  0  0  0  0  0  0  0
   26.1716  -20.2515   -9.6734 C   0  0  1  0  0  0  0  0  0  0  0  0
   26.7823  -21.2080   -8.7100 C   0  0  0  0  0  0  0  0  0  0  0  0
   26.6289  -20.8183   -7.2930 C   0  0  0  0  0  0  0  0  0  0  0  0
   25.4533  -20.8645   -6.5663 C   0  0  0  0  0  0  0  0  0  0  0  0
   25.6660  -20.4279   -5.3205 N   0  0  0  0  0  0  0  0  0  0  0  0
   26.9793  -20.0838   -5.1909 C   0  0  0  0  0  0  0  0  0  0  0  0
   27.6652  -19.5904   -4.1040 C   0  0  0  0  0  0  0  0  0  0  0  0
   29.0052  -19.3264   -4.2388 C   0  0  0  0  0  0  0  0  0  0  0  0
   29.6316  -19.5553   -5.4379 C   0  0  0  0  0  0  0  0  0  0  0  0
   28.9137  -20.0506   -6.5075 C   0  0  0  0  0  0  0  0  0  0  0  0
   27.5697  -20.3296   -6.4200 C   0  0  0  0  0  0  0  0  0  0  0  0
   26.6439  -20.5006  -11.0741 C   0  0  0  0  0  0  0  0  0  0  0  0
   25.9182  -21.2153  -11.8034 O   0  0  0  0  0  0  0  0  0  0  0  0
   27.8409  -19.9840  -11.6105 N   0  0  0  0  0  0  0  0  0  0  0  0
   28.2532  -20.1002  -12.9705 C   0  0  0  0  0  0  0  0  0  0  0  0
   27.4400  -19.1941  -13.8143 C   0  0  0  0  0  0  0  0  0  0  0  0
   26.5207  -18.5337  -13.2710 O   0  0  0  0  0  0  0  0  0  0  0  0
   27.6625  -19.0483  -15.2024 N   0  0  0  0  0  0  0  0  0  0  0  0
   28.6238  -19.7609  -15.9998 C   0  0  0  0  0  0  0  0  0  0  0  0
   28.7183  -19.0352  -17.3152 C   0  0  0  0  0  0  0  0  0  0  0  0
   27.9416  -17.7441  -17.1336 C   0  0  0  0  0  0  0  0  0  0  0  0
   26.9497  -18.1447  -16.0679 C   0  0  1  0  0  0  0  0  0  0  0  0
   25.7949  -18.8962  -16.6589 C   0  0  0  0  0  0  0  0  0  0  0  0
   24.7292  -18.2642  -17.2757 O   0  0  0  0  0  0  0  0  0  0  0  0
   25.7611  -20.1709  -16.6087 O   0  0  0  0  0  0  0  0  0  0  0  0
  2 13  1  0
  2  1  1  6
  3  2  1  0
  4  3  1  0
  5  4  2  0
  6  7  1  0
  6  5  1  0
  7 12  2  0
  8  7  1  0
  8  9  2  0
  9 10  1  0
 10 11  2  0
 12  4  1  0
 12 11  1  0
 13 15  1  0
 14 13  2  0
 16 15  1  0
 17 16  1  0
 18 17  2  0
 19 17  1  0
 19 23  1  0
 20 21  1  0
 20 19  1  0
 21 22  1  0
 22 23  1  0
 23 24  1  6
 24 25  1  0
 26 24  2  0
M  END
$$$$
