WGP.pdb
     RDKit          3D

 26 28  0  0  1  0  0  0  0  0999 V2000
   24.9082  -19.4383  -10.7724 N   0  0  0  0  0  0  0  0  0  0  0  0
   26.2355  -19.9383  -10.9093 C   0  0  1  0  0  0  0  0  0  0  0  0
   26.5933  -21.1126  -10.0674 C   0  0  0  0  0  0  0  0  0  0  0  0
   26.4650  -20.8755   -8.6145 C   0  0  0  0  0  0  0  0  0  0  0  0
   25.2925  -20.9502   -7.8854 C   0  0  0  0  0  0  0  0  0  0  0  0
   25.5311  -20.6636   -6.6013 N   0  0  0  0  0  0  0  0  0  0  0  0
   26.8591  -20.3937   -6.4481 C   0  0  0  0  0  0  0  0  0  0  0  0
   27.5722  -20.0538   -5.3205 C   0  0  0  0  0  0  0  0  0  0  0  0
   28.9219  -19.8354   -5.4392 C   0  0  0  0  0  0  0  0  0  0  0  0
   29.5310  -19.9577   -6.6625 C   0  0  0  0  0  0  0  0  0  0  0  0
   28.7861  -20.2999   -7.7728 C   0  0  0  0  0  0  0  0  0  0  0  0
   27.4314  -20.5278   -7.7027 C   0  0  0  0  0  0  0  0  0  0  0  0
   26.6162  -20.1500  -12.3436 C   0  0  0  0  0  0  0  0  0  0  0  0
   25.6860  -20.1947  -13.1813 O   0  0  0  0  0  0  0  0  0  0  0  0
   27.9425  -20.2993  -12.7977 N   0  0  0  0  0  0  0  0  0  0  0  0
   28.3901  -20.0599  -14.1301 C   0  0  0  0  0  0  0  0  0  0  0  0
   27.6726  -20.9591  -15.0633 C   0  0  0  0  0  0  0  0  0  0  0  0
   26.6410  -21.5466  -14.6549 O   0  0  0  0  0  0  0  0  0  0  0  0
   28.1073  -21.1769  -16.3904 N   0  0  0  0  0  0  0  0  0  0  0  0
   29.2880  -20.6375  -17.0092 C   0  0  0  0  0  0  0  0  0  0  0  0
   29.1446  -20.8677  -18.4898 C   0  0  0  0  0  0  0  0  0  0  0  0
   27.7205  -21.3489  -18.6990 C   0  0  0  0  0  0  0  0  0  0  0  0
   27.4281  -21.9917  -17.3643 C   0  0  1  0  0  0  0  0  0  0  0  0
   28.0100  -23.3713  -17.2892 C   0  0  0  0  0  0  0  0  0  0  0  0
   29.0757  -23.6890  -16.4652 O   0  0  0  0  0  0  0  0  0  0  0  0
   27.5274  -24.3146  -18.0004 O   0  0  0  0  0  0  0  0  0  0  0  0
  2 13  1  0
  2  1  1  6
  3  2  1  0
  4  3  1  0
  5  4  2  0
  6  7  1  0
  6  5  1  0
  7 12  2  0
  8  7  1  0
  8  9  2  0
  9 10  1  0
 10 11  2  0
 12  4  1  0
 12 11  1  0
 13 15  1  0
 14 13  2  0
 16 15  1  0
 17 16  1  0
 18 17  2  0
 19 17  1  0
 19 23  1  0
 20 21  1  0
 20 19  1  0
 21 22  1  0
 22 23  1  0
 23 24  1  6
 24 25  1  0
 26 24  2  0
M  END
$$$$
