WGP.pdb
     RDKit          3D

 26 28  0  0  1  0  0  0  0  0999 V2000
   26.2057  -24.4228  -16.4653 N   0  0  0  0  0  0  0  0  0  0  0  0
   27.0144  -23.6395  -17.3387 C   0  0  1  0  0  0  0  0  0  0  0  0
   26.4121  -22.3774  -17.8487 C   0  0  0  0  0  0  0  0  0  0  0  0
   25.0766  -22.5487  -18.4576 C   0  0  0  0  0  0  0  0  0  0  0  0
   23.8877  -22.0647  -17.9436 C   0  0  0  0  0  0  0  0  0  0  0  0
   22.8691  -22.4117  -18.7375 N   0  0  0  0  0  0  0  0  0  0  0  0
   23.3543  -23.1293  -19.7908 C   0  0  0  0  0  0  0  0  0  0  0  0
   22.6957  -23.6930  -20.8603 C   0  0  0  0  0  0  0  0  0  0  0  0
   23.4310  -24.3711  -21.7999 C   0  0  0  0  0  0  0  0  0  0  0  0
   24.7920  -24.4751  -21.6608 C   0  0  0  0  0  0  0  0  0  0  0  0
   25.4205  -23.8980  -20.5761 C   0  0  0  0  0  0  0  0  0  0  0  0
   24.7255  -23.2094  -19.6092 C   0  0  0  0  0  0  0  0  0  0  0  0
   28.3892  -23.4121  -16.7862 C   0  0  0  0  0  0  0  0  0  0  0  0
   28.5278  -23.4991  -15.5443 O   0  0  0  0  0  0  0  0  0  0  0  0
   29.5195  -23.1102  -17.5729 N   0  0  0  0  0  0  0  0  0  0  0  0
   30.8394  -22.9025  -17.0752 C   0  0  0  0  0  0  0  0  0  0  0  0
   31.7428  -23.9445  -17.6157 C   0  0  0  0  0  0  0  0  0  0  0  0
   31.8617  -24.0469  -18.8614 O   0  0  0  0  0  0  0  0  0  0  0  0
   32.4717  -24.8224  -16.7816 N   0  0  0  0  0  0  0  0  0  0  0  0
   32.3166  -24.9882  -15.3617 C   0  0  0  0  0  0  0  0  0  0  0  0
   33.5156  -25.7620  -14.8826 C   0  0  0  0  0  0  0  0  0  0  0  0
   34.4707  -25.8189  -16.0608 C   0  0  0  0  0  0  0  0  0  0  0  0
   33.5114  -25.7159  -17.2224 C   0  0  1  0  0  0  0  0  0  0  0  0
   32.8772  -27.0415  -17.5193 C   0  0  0  0  0  0  0  0  0  0  0  0
   33.4916  -28.0060  -18.2988 O   0  0  0  0  0  0  0  0  0  0  0  0
   31.7247  -27.3247  -17.0501 O   0  0  0  0  0  0  0  0  0  0  0  0
  2 13  1  0
  2  1  1  1
  3  2  1  0
  4  3  1  0
  5  4  2  0
  6  7  1  0
  6  5  1  0
  7 12  2  0
  8  7  1  0
  8  9  2  0
  9 10  1  0
 10 11  2  0
 12  4  1  0
 12 11  1  0
 13 15  1  0
 14 13  2  0
 16 15  1  0
 17 16  1  0
 18 17  2  0
 19 17  1  0
 19 23  1  0
 20 21  1  0
 20 19  1  0
 21 22  1  0
 22 23  1  0
 23 24  1  1
 24 25  1  0
 26 24  2  0
M  END
$$$$
