WGP.pdb
     RDKit          3D

 26 28  0  0  1  0  0  0  0  0999 V2000
   22.8981  -31.6610  -13.3494 N   0  0  0  0  0  0  0  0  0  0  0  0
   22.2654  -31.1519  -12.1786 C   0  0  1  0  0  0  0  0  0  0  0  0
   20.7928  -30.9482  -12.2542 C   0  0  0  0  0  0  0  0  0  0  0  0
   20.3738  -29.9328  -13.2427 C   0  0  0  0  0  0  0  0  0  0  0  0
   19.9915  -30.1865  -14.5471 C   0  0  0  0  0  0  0  0  0  0  0  0
   19.6897  -29.0414  -15.1681 N   0  0  0  0  0  0  0  0  0  0  0  0
   19.8629  -28.0069  -14.2965 C   0  0  0  0  0  0  0  0  0  0  0  0
   19.6760  -26.6546  -14.4746 C   0  0  0  0  0  0  0  0  0  0  0  0
   19.9213  -25.8140  -13.4179 C   0  0  0  0  0  0  0  0  0  0  0  0
   20.3428  -26.3272  -12.2172 C   0  0  0  0  0  0  0  0  0  0  0  0
   20.5200  -27.6883  -12.0732 C   0  0  0  0  0  0  0  0  0  0  0  0
   20.2874  -28.5693  -13.1036 C   0  0  0  0  0  0  0  0  0  0  0  0
   22.6557  -31.9127  -10.9473 C   0  0  0  0  0  0  0  0  0  0  0  0
   22.4132  -33.1416  -10.9339 O   0  0  0  0  0  0  0  0  0  0  0  0
   23.2714  -31.3328   -9.8194 N   0  0  0  0  0  0  0  0  0  0  0  0
   23.2993  -31.9006   -8.5118 C   0  0  0  0  0  0  0  0  0  0  0  0
   24.4013  -32.8864   -8.4227 C   0  0  0  0  0  0  0  0  0  0  0  0
   25.0774  -33.1240   -9.4536 O   0  0  0  0  0  0  0  0  0  0  0  0
   24.7160  -33.5648   -7.2233 N   0  0  0  0  0  0  0  0  0  0  0  0
   24.0849  -33.3884   -5.9433 C   0  0  0  0  0  0  0  0  0  0  0  0
   24.9688  -34.0623   -4.9282 C   0  0  0  0  0  0  0  0  0  0  0  0
   26.2468  -34.4214   -5.6640 C   0  0  0  0  0  0  0  0  0  0  0  0
   25.7408  -34.5661   -7.0792 C   0  0  1  0  0  0  0  0  0  0  0  0
   25.1014  -35.9056   -7.2907 C   0  0  0  0  0  0  0  0  0  0  0  0
   25.8332  -37.0482   -7.5638 O   0  0  0  0  0  0  0  0  0  0  0  0
   23.8335  -36.0331   -7.2232 O   0  0  0  0  0  0  0  0  0  0  0  0
  2 13  1  0
  2  1  1  6
  3  2  1  0
  4  3  1  0
  5  4  2  0
  6  7  1  0
  6  5  1  0
  7 12  2  0
  8  7  1  0
  8  9  2  0
  9 10  1  0
 10 11  2  0
 12  4  1  0
 12 11  1  0
 13 15  1  0
 14 13  2  0
 16 15  1  0
 17 16  1  0
 18 17  2  0
 19 17  1  0
 19 23  1  0
 20 21  1  0
 20 19  1  0
 21 22  1  0
 22 23  1  0
 23 24  1  1
 24 25  1  0
 26 24  2  0
M  END
$$$$
