PMS.pdb
     RDKit          3D

 22 22  0  0  1  0  0  0  0  0999 V2000
   22.9221  -11.3358  -19.9100 N   0  0  0  0  0  0  0  0  0  0  0  0
   22.8244  -12.7358  -20.2710 C   0  0  0  0  0  0  0  0  0  0  0  0
   22.3941  -13.3398  -18.9261 C   0  0  0  0  0  0  0  0  0  0  0  0
   21.2094  -12.4084  -18.6352 C   0  0  0  0  0  0  0  0  0  0  0  0
   21.7586  -11.0807  -19.1264 C   0  0  1  0  0  0  0  0  0  0  0  0
   22.0776  -10.2944  -17.8763 C   0  0  0  0  0  0  0  0  0  0  0  0
   21.1109  -10.1178  -17.0928 O   0  0  0  0  0  0  0  0  0  0  0  0
   27.4187  -12.8971  -15.0993 C   0  0  0  0  0  0  0  0  0  0  0  0
   27.2440  -11.1639  -15.5622 S   0  0  0  0  0  0  0  0  0  0  0  0
   25.4797  -10.8184  -15.8538 C   0  0  0  0  0  0  0  0  0  0  0  0
   25.2775   -9.3622  -16.1755 C   0  0  0  0  0  0  0  0  0  0  0  0
   23.7965   -9.1206  -16.5059 C   0  0  2  0  0  0  0  0  0  0  0  0
   23.3901   -9.8246  -17.6730 N   0  0  0  0  0  0  0  0  0  0  0  0
   23.5132   -7.6680  -16.5794 C   0  0  0  0  0  0  0  0  0  0  0  0
   24.1019   -7.0082  -17.4592 O   0  0  0  0  0  0  0  0  0  0  0  0
   20.0250   -6.0855  -15.7490 O   0  0  0  0  0  0  0  0  0  0  0  0
   21.0023   -5.3665  -16.4293 C   0  0  0  0  0  0  0  0  0  0  0  0
   22.3401   -5.5911  -15.7436 C   0  0  2  0  0  0  0  0  0  0  0  0
   22.6194   -6.9976  -15.7135 N   0  0  0  0  0  0  0  0  0  0  0  0
   22.3848   -4.9422  -14.4397 C   0  0  0  0  0  0  0  0  0  0  0  0
   22.4880   -5.6157  -13.3908 O   0  0  0  0  0  0  0  0  0  0  0  0
   22.3138   -3.5671  -14.3407 O   0  0  0  0  0  0  0  0  0  0  0  0
  1  5  1  0
  2  1  1  0
  3  2  1  0
  3  4  1  0
  4  5  1  0
  5  6  1  1
  6  7  2  0
  8  9  1  0
  9 10  1  0
 11 10  1  0
 12 11  1  6
 12 14  1  0
 13  6  1  0
 13 12  1  0
 14 19  1  0
 14 15  2  0
 16 17  1  0
 18 17  1  1
 18 20  1  0
 19 18  1  0
 20 21  2  0
 20 22  1  0
M  END
$$$$
