PMS.pdb
     RDKit          3D

 22 22  0  0  1  0  0  0  0  0999 V2000
   19.9487  -11.9064  -17.8655 N   0  0  0  0  0  0  0  0  0  0  0  0
   19.5905  -13.3061  -17.9763 C   0  0  0  0  0  0  0  0  0  0  0  0
   20.0703  -13.8242  -16.6125 C   0  0  0  0  0  0  0  0  0  0  0  0
   19.3655  -12.7903  -15.7237 C   0  0  0  0  0  0  0  0  0  0  0  0
   19.5409  -11.5300  -16.5522 C   0  0  1  0  0  0  0  0  0  0  0  0
   20.6021  -10.7271  -15.8367 C   0  0  0  0  0  0  0  0  0  0  0  0
   20.3085  -10.3724  -14.6673 O   0  0  0  0  0  0  0  0  0  0  0  0
   27.0915  -11.5582  -15.4325 C   0  0  0  0  0  0  0  0  0  0  0  0
   26.9447   -9.8663  -16.0364 S   0  0  0  0  0  0  0  0  0  0  0  0
   25.2704   -9.2594  -15.6550 C   0  0  0  0  0  0  0  0  0  0  0  0
   24.2366  -10.1016  -16.3528 C   0  0  0  0  0  0  0  0  0  0  0  0
   22.8360   -9.6269  -15.9362 C   0  0  2  0  0  0  0  0  0  0  0  0
   21.8107  -10.4359  -16.4995 N   0  0  0  0  0  0  0  0  0  0  0  0
   22.6669   -8.1862  -16.2388 C   0  0  0  0  0  0  0  0  0  0  0  0
   22.7074   -7.8386  -17.4361 O   0  0  0  0  0  0  0  0  0  0  0  0
   21.6114   -5.4990  -13.2434 O   0  0  0  0  0  0  0  0  0  0  0  0
   21.1469   -5.3113  -14.5410 C   0  0  0  0  0  0  0  0  0  0  0  0
   22.2024   -5.8097  -15.5146 C   0  0  2  0  0  0  0  0  0  0  0  0
   22.4637   -7.1952  -15.2515 N   0  0  0  0  0  0  0  0  0  0  0  0
   23.3869   -4.9611  -15.4947 C   0  0  0  0  0  0  0  0  0  0  0  0
   23.3047   -3.7384  -15.7449 O   0  0  0  0  0  0  0  0  0  0  0  0
   24.6246   -5.4959  -15.1981 O   0  0  0  0  0  0  0  0  0  0  0  0
  1  5  1  0
  2  1  1  0
  3  2  1  0
  3  4  1  0
  4  5  1  0
  5  6  1  1
  6  7  2  0
  8  9  1  0
  9 10  1  0
 11 10  1  0
 12 11  1  6
 12 14  1  0
 13  6  1  0
 13 12  1  0
 14 19  1  0
 14 15  2  0
 16 17  1  0
 18 17  1  1
 18 20  1  0
 19 18  1  0
 20 21  2  0
 20 22  1  0
M  END
$$$$
