PMS.pdb
     RDKit          3D

 22 22  0  0  1  0  0  0  0  0999 V2000
   14.3793  -21.6279    1.4802 N   0  0  0  0  0  0  0  0  0  0  0  0
   14.4142  -22.4400    0.2805 C   0  0  0  0  0  0  0  0  0  0  0  0
   15.7440  -23.1804    0.4852 C   0  0  0  0  0  0  0  0  0  0  0  0
   15.4905  -23.6995    1.9072 C   0  0  0  0  0  0  0  0  0  0  0  0
   14.7806  -22.5089    2.5269 C   0  0  1  0  0  0  0  0  0  0  0  0
   15.7974  -21.8725    3.4456 C   0  0  0  0  0  0  0  0  0  0  0  0
   16.2118  -22.6071    4.3774 O   0  0  0  0  0  0  0  0  0  0  0  0
   21.7711  -16.9704    4.0179 C   0  0  0  0  0  0  0  0  0  0  0  0
   20.5024  -17.6505    2.9331 S   0  0  0  0  0  0  0  0  0  0  0  0
   19.2692  -18.5155    3.9570 C   0  0  0  0  0  0  0  0  0  0  0  0
   18.2176  -19.1489    3.0867 C   0  0  0  0  0  0  0  0  0  0  0  0
   17.2045  -19.8854    3.9766 C   0  0  2  0  0  0  0  0  0  0  0  0
   16.2035  -20.5442    3.2103 N   0  0  0  0  0  0  0  0  0  0  0  0
   16.6419  -18.9641    4.9917 C   0  0  0  0  0  0  0  0  0  0  0  0
   15.8080  -18.1200    4.6069 O   0  0  0  0  0  0  0  0  0  0  0  0
   15.8263  -18.0482    9.6391 O   0  0  0  0  0  0  0  0  0  0  0  0
   16.5339  -18.8077    8.7132 C   0  0  0  0  0  0  0  0  0  0  0  0
   16.4796  -18.1088    7.3645 C   0  0  2  0  0  0  0  0  0  0  0  0
   16.9971  -18.9917    6.3595 N   0  0  0  0  0  0  0  0  0  0  0  0
   17.1323  -16.8069    7.4136 C   0  0  0  0  0  0  0  0  0  0  0  0
   18.3532  -16.6914    7.1675 O   0  0  0  0  0  0  0  0  0  0  0  0
   16.4101  -15.6748    7.7340 O   0  0  0  0  0  0  0  0  0  0  0  0
  1  5  1  0
  2  1  1  0
  3  2  1  0
  3  4  1  0
  4  5  1  0
  5  6  1  1
  6  7  2  0
  8  9  1  0
  9 10  1  0
 11 10  1  0
 12 11  1  6
 12 14  1  0
 13  6  1  0
 13 12  1  0
 14 19  1  0
 14 15  2  0
 16 17  1  0
 18 17  1  1
 18 20  1  0
 19 18  1  0
 20 21  2  0
 20 22  1  0
M  END
$$$$
