PMS.pdb
     RDKit          3D

 22 22  0  0  1  0  0  0  0  0999 V2000
   28.5997  -21.6124  -14.2992 N   0  0  0  0  0  0  0  0  0  0  0  0
   29.3462  -21.9673  -15.4894 C   0  0  0  0  0  0  0  0  0  0  0  0
   28.1953  -22.3046  -16.4486 C   0  0  0  0  0  0  0  0  0  0  0  0
   27.3701  -21.0241  -16.2615 C   0  0  0  0  0  0  0  0  0  0  0  0
   27.5346  -20.7899  -14.7703 C   0  0  1  0  0  0  0  0  0  0  0  0
   26.2077  -21.1736  -14.1579 C   0  0  0  0  0  0  0  0  0  0  0  0
   25.5082  -21.9608  -14.8440 O   0  0  0  0  0  0  0  0  0  0  0  0
   26.6500  -19.3961   -8.0571 C   0  0  0  0  0  0  0  0  0  0  0  0
   26.0312  -21.0702   -8.3081 S   0  0  0  0  0  0  0  0  0  0  0  0
   25.9460  -21.3928  -10.0986 C   0  0  0  0  0  0  0  0  0  0  0  0
   24.7634  -20.6847  -10.7026 C   0  0  0  0  0  0  0  0  0  0  0  0
   24.6769  -21.0336  -12.1964 C   0  0  2  0  0  0  0  0  0  0  0  0
   25.8492  -20.6452  -12.9021 N   0  0  0  0  0  0  0  0  0  0  0  0
   23.4366  -20.4775  -12.7864 C   0  0  0  0  0  0  0  0  0  0  0  0
   23.3831  -19.2438  -12.9626 O   0  0  0  0  0  0  0  0  0  0  0  0
   20.4176  -22.9994  -14.0699 O   0  0  0  0  0  0  0  0  0  0  0  0
   20.5818  -21.7878  -14.7331 C   0  0  0  0  0  0  0  0  0  0  0  0
   21.1166  -20.7606  -13.7486 C   0  0  2  0  0  0  0  0  0  0  0  0
   22.3221  -21.2642  -13.1567 N   0  0  0  0  0  0  0  0  0  0  0  0
   20.0960  -20.3641  -12.7871 C   0  0  0  0  0  0  0  0  0  0  0  0
   19.0446  -19.8003  -13.1628 O   0  0  0  0  0  0  0  0  0  0  0  0
   20.2741  -20.6055  -11.4396 O   0  0  0  0  0  0  0  0  0  0  0  0
  1  5  1  0
  2  1  1  0
  3  2  1  0
  3  4  1  0
  4  5  1  0
  5  6  1  1
  6  7  2  0
  8  9  1  0
  9 10  1  0
 11 10  1  0
 12 11  1  1
 12 14  1  0
 13  6  1  0
 13 12  1  0
 14 19  1  0
 14 15  2  0
 16 17  1  0
 18 17  1  6
 18 20  1  0
 19 18  1  0
 20 21  2  0
 20 22  1  0
M  END
$$$$
