PMS.pdb
     RDKit          3D

 22 22  0  0  1  0  0  0  0  0999 V2000
   26.9851  -18.8760  -15.2770 N   0  0  0  0  0  0  0  0  0  0  0  0
   28.2297  -18.1342  -15.2559 C   0  0  0  0  0  0  0  0  0  0  0  0
   28.9811  -18.8843  -14.1463 C   0  0  0  0  0  0  0  0  0  0  0  0
   28.8013  -20.3106  -14.6839 C   0  0  0  0  0  0  0  0  0  0  0  0
   27.3770  -20.2449  -15.2059 C   0  0  1  0  0  0  0  0  0  0  0  0
   26.5503  -21.0208  -14.2072 C   0  0  0  0  0  0  0  0  0  0  0  0
   26.7557  -22.2606  -14.1892 O   0  0  0  0  0  0  0  0  0  0  0  0
   26.1858  -19.0748   -8.4620 C   0  0  0  0  0  0  0  0  0  0  0  0
   25.8543  -20.8396   -8.6180 S   0  0  0  0  0  0  0  0  0  0  0  0
   25.8383  -21.2708  -10.3875 C   0  0  0  0  0  0  0  0  0  0  0  0
   24.7575  -20.5061  -11.1030 C   0  0  0  0  0  0  0  0  0  0  0  0
   24.6805  -20.9876  -12.5600 C   0  0  2  0  0  0  0  0  0  0  0  0
   25.6340  -20.3327  -13.3877 N   0  0  0  0  0  0  0  0  0  0  0  0
   23.2945  -20.8704  -13.0710 C   0  0  0  0  0  0  0  0  0  0  0  0
   22.8044  -19.7264  -13.1549 O   0  0  0  0  0  0  0  0  0  0  0  0
   21.5182  -23.2525  -15.7505 O   0  0  0  0  0  0  0  0  0  0  0  0
   20.7551  -23.1817  -14.5897 C   0  0  0  0  0  0  0  0  0  0  0  0
   21.1238  -21.9123  -13.8393 C   0  0  2  0  0  0  0  0  0  0  0  0
   22.5069  -21.9760  -13.4647 N   0  0  0  0  0  0  0  0  0  0  0  0
   20.2120  -21.6669  -12.7295 C   0  0  0  0  0  0  0  0  0  0  0  0
   20.5605  -21.8948  -11.5500 O   0  0  0  0  0  0  0  0  0  0  0  0
   18.9429  -21.1764  -12.9632 O   0  0  0  0  0  0  0  0  0  0  0  0
  1  5  1  0
  2  1  1  0
  3  2  1  0
  3  4  1  0
  4  5  1  0
  5  6  1  1
  6  7  2  0
  8  9  1  0
  9 10  1  0
 11 10  1  0
 12 11  1  1
 12 14  1  0
 13  6  1  0
 13 12  1  0
 14 19  1  0
 14 15  2  0
 16 17  1  0
 18 17  1  1
 18 20  1  0
 19 18  1  0
 20 21  2  0
 20 22  1  0
M  END
$$$$
