PMS.pdb
     RDKit          3D

 22 22  0  0  1  0  0  0  0  0999 V2000
   21.0662  -22.1671  -13.6112 N   0  0  0  0  0  0  0  0  0  0  0  0
   19.7107  -22.3852  -13.1475 C   0  0  0  0  0  0  0  0  0  0  0  0
   19.6190  -21.3185  -12.0465 C   0  0  0  0  0  0  0  0  0  0  0  0
   20.0984  -20.1132  -12.8669 C   0  0  0  0  0  0  0  0  0  0  0  0
   21.1955  -20.7501  -13.7015 C   0  0  1  0  0  0  0  0  0  0  0  0
   22.4909  -20.2589  -13.0984 C   0  0  0  0  0  0  0  0  0  0  0  0
   22.6523  -19.0127  -13.1170 O   0  0  0  0  0  0  0  0  0  0  0  0
   26.1066  -18.9306   -8.2933 C   0  0  0  0  0  0  0  0  0  0  0  0
   26.0176  -20.7153   -8.5294 S   0  0  0  0  0  0  0  0  0  0  0  0
   26.3550  -21.0844  -10.2807 C   0  0  0  0  0  0  0  0  0  0  0  0
   25.1482  -21.7109  -10.9257 C   0  0  0  0  0  0  0  0  0  0  0  0
   24.7042  -20.8424  -12.1129 C   0  0  2  0  0  0  0  0  0  0  0  0
   23.4045  -21.1932  -12.5719 N   0  0  0  0  0  0  0  0  0  0  0  0
   25.7244  -20.8741  -13.1871 C   0  0  0  0  0  0  0  0  0  0  0  0
   25.9879  -21.9797  -13.7013 O   0  0  0  0  0  0  0  0  0  0  0  0
   28.7229  -18.2770  -16.0212 O   0  0  0  0  0  0  0  0  0  0  0  0
   27.9405  -18.3300  -14.8723 C   0  0  0  0  0  0  0  0  0  0  0  0
   27.2731  -19.6936  -14.7983 C   0  0  2  0  0  0  0  0  0  0  0  0
   26.4076  -19.7286  -13.6551 N   0  0  0  0  0  0  0  0  0  0  0  0
   28.2552  -20.7692  -14.8409 C   0  0  0  0  0  0  0  0  0  0  0  0
   28.7975  -21.1850  -13.7933 O   0  0  0  0  0  0  0  0  0  0  0  0
   28.6042  -21.3494  -16.0439 O   0  0  0  0  0  0  0  0  0  0  0  0
  1  5  1  0
  2  1  1  0
  3  2  1  0
  3  4  1  0
  4  5  1  0
  5  6  1  1
  6  7  2  0
  8  9  1  0
  9 10  1  0
 11 10  1  0
 12 11  1  1
 12 14  1  0
 13  6  1  0
 13 12  1  0
 14 19  1  0
 14 15  2  0
 16 17  1  0
 18 17  1  1
 18 20  1  0
 19 18  1  0
 20 21  2  0
 20 22  1  0
M  END
$$$$
