PMS.pdb
     RDKit          3D

 22 22  0  0  1  0  0  0  0  0999 V2000
   28.3915  -21.6998  -16.8909 N   0  0  0  0  0  0  0  0  0  0  0  0
   28.5184  -21.1381  -18.2206 C   0  0  0  0  0  0  0  0  0  0  0  0
   27.2116  -20.3363  -18.3091 C   0  0  0  0  0  0  0  0  0  0  0  0
   27.3427  -19.5555  -16.9942 C   0  0  0  0  0  0  0  0  0  0  0  0
   27.9277  -20.6202  -16.0833 C   0  0  1  0  0  0  0  0  0  0  0  0
   26.7929  -21.0364  -15.1767 C   0  0  0  0  0  0  0  0  0  0  0  0
   26.0525  -21.9463  -15.6277 O   0  0  0  0  0  0  0  0  0  0  0  0
   24.4503  -21.2584   -7.6959 C   0  0  0  0  0  0  0  0  0  0  0  0
   25.6156  -20.5029   -8.8448 S   0  0  0  0  0  0  0  0  0  0  0  0
   25.1213  -20.9420  -10.5419 C   0  0  0  0  0  0  0  0  0  0  0  0
   26.0971  -20.3716  -11.5356 C   0  0  0  0  0  0  0  0  0  0  0  0
   25.6964  -20.8210  -12.9492 C   0  0  2  0  0  0  0  0  0  0  0  0
   26.6399  -20.4025  -13.9279 N   0  0  0  0  0  0  0  0  0  0  0  0
   24.3134  -20.3873  -13.2573 C   0  0  0  0  0  0  0  0  0  0  0  0
   24.1224  -19.1730  -13.4697 O   0  0  0  0  0  0  0  0  0  0  0  0
   19.7919  -21.7368  -14.4020 O   0  0  0  0  0  0  0  0  0  0  0  0
   21.0822  -22.1211  -14.0523 C   0  0  0  0  0  0  0  0  0  0  0  0
   21.8652  -20.8852  -13.6403 C   0  0  2  0  0  0  0  0  0  0  0  0
   23.2104  -21.2687  -13.3228 N   0  0  0  0  0  0  0  0  0  0  0  0
   21.1839  -20.1529  -12.5807 C   0  0  0  0  0  0  0  0  0  0  0  0
   20.3613  -19.2502  -12.8508 O   0  0  0  0  0  0  0  0  0  0  0  0
   21.4366  -20.4452  -11.2553 O   0  0  0  0  0  0  0  0  0  0  0  0
  1  5  1  0
  2  1  1  0
  3  2  1  0
  3  4  1  0
  4  5  1  0
  5  6  1  1
  6  7  2  0
  8  9  1  0
  9 10  1  0
 11 10  1  0
 12 11  1  1
 12 14  1  0
 13  6  1  0
 13 12  1  0
 14 19  1  0
 14 15  2  0
 16 17  1  0
 18 17  1  1
 18 20  1  0
 19 18  1  0
 20 21  2  0
 20 22  1  0
M  END
$$$$
