PMS.pdb
     RDKit          3D

 22 22  0  0  1  0  0  0  0  0999 V2000
   20.9015  -11.5756  -18.5372 N   0  0  0  0  0  0  0  0  0  0  0  0
   21.0166  -13.0193  -18.4891 C   0  0  0  0  0  0  0  0  0  0  0  0
   20.2538  -13.3155  -17.1895 C   0  0  0  0  0  0  0  0  0  0  0  0
   18.9716  -12.5324  -17.5034 C   0  0  0  0  0  0  0  0  0  0  0  0
   19.5432  -11.3081  -18.1960 C   0  0  1  0  0  0  0  0  0  0  0  0
   19.4210  -10.1876  -17.1898 C   0  0  0  0  0  0  0  0  0  0  0  0
   18.2484   -9.9200  -16.8252 O   0  0  0  0  0  0  0  0  0  0  0  0
   21.7387   -9.7271  -10.6715 C   0  0  0  0  0  0  0  0  0  0  0  0
   22.4773   -9.2828  -12.2545 S   0  0  0  0  0  0  0  0  0  0  0  0
   21.1406   -9.0300  -13.4655 C   0  0  0  0  0  0  0  0  0  0  0  0
   21.7068   -8.5701  -14.7819 C   0  0  0  0  0  0  0  0  0  0  0  0
   20.5687   -8.4600  -15.8083 C   0  0  2  0  0  0  0  0  0  0  0  0
   20.5856   -9.5356  -16.7388 N   0  0  0  0  0  0  0  0  0  0  0  0
   20.5886   -7.1302  -16.4619 C   0  0  0  0  0  0  0  0  0  0  0  0
   21.3865   -6.9622  -17.4059 O   0  0  0  0  0  0  0  0  0  0  0  0
   17.6040   -4.4172  -15.7136 O   0  0  0  0  0  0  0  0  0  0  0  0
   18.2684   -4.3713  -16.9348 C   0  0  0  0  0  0  0  0  0  0  0  0
   19.7186   -4.7710  -16.7173 C   0  0  2  0  0  0  0  0  0  0  0  0
   19.7588   -6.0531  -16.0756 N   0  0  0  0  0  0  0  0  0  0  0  0
   20.4589   -3.7273  -16.0200 C   0  0  0  0  0  0  0  0  0  0  0  0
   20.9282   -3.9271  -14.8779 O   0  0  0  0  0  0  0  0  0  0  0  0
   20.6551   -2.4956  -16.6117 O   0  0  0  0  0  0  0  0  0  0  0  0
  1  5  1  0
  2  1  1  0
  3  2  1  0
  3  4  1  0
  4  5  1  0
  5  6  1  1
  6  7  2  0
  8  9  1  0
  9 10  1  0
 11 10  1  0
 12 11  1  1
 12 14  1  0
 13  6  1  0
 13 12  1  0
 14 19  1  0
 14 15  2  0
 16 17  1  0
 18 17  1  1
 18 20  1  0
 19 18  1  0
 20 21  2  0
 20 22  1  0
M  END
$$$$
