GTV.pdb
     RDKit          3D

 19 18  0  0  1  0  0  0  0  0999 V2000
    8.2781  -13.5380   17.5027 N   0  0  0  0  0  0  0  0  0  0  0  0
    8.9049  -13.4661   18.8051 C   0  0  0  0  0  0  0  0  0  0  0  0
    7.9424  -13.8276   19.8602 C   0  0  0  0  0  0  0  0  0  0  0  0
    6.7642  -14.1215   19.5448 O   0  0  0  0  0  0  0  0  0  0  0  0
    6.7390  -16.1788   20.5193 C   0  0  0  0  0  0  0  0  0  0  0  0
    7.3444  -15.9798   21.8791 C   0  0  1  0  0  0  0  0  0  0  0  0
    8.5041  -16.7041   21.9855 O   0  0  0  0  0  0  0  0  0  0  0  0
    7.5536  -14.5226   22.2252 C   0  0  2  0  0  0  0  0  0  0  0  0
    8.3254  -13.8487   21.2229 N   0  0  0  0  0  0  0  0  0  0  0  0
    8.1497  -14.3084   23.5605 C   0  0  0  0  0  0  0  0  0  0  0  0
    9.3990  -14.3556   23.6690 O   0  0  0  0  0  0  0  0  0  0  0  0
    5.8465  -13.1687   26.9667 C   0  0  0  0  0  0  0  0  0  0  0  0
    7.2932  -12.7527   26.8164 C   0  0  2  0  0  0  0  0  0  0  0  0
    7.4074  -11.4149   26.1390 C   0  0  0  0  0  0  0  0  0  0  0  0
    8.0750  -13.7847   26.0070 C   0  0  2  0  0  0  0  0  0  0  0  0
    7.4077  -14.0501   24.7410 N   0  0  0  0  0  0  0  0  0  0  0  0
    8.1243  -15.0193   26.8174 C   0  0  0  0  0  0  0  0  0  0  0  0
    8.8441  -15.0121   27.9956 O   0  0  0  0  0  0  0  0  0  0  0  0
    7.5378  -16.0716   26.4755 O   0  0  0  0  0  0  0  0  0  0  0  0
  2  1  1  0
  3  2  1  0
  3  4  2  0
  6  5  1  6
  6  8  1  0
  7  6  1  0
  8  9  1  6
  9  3  1  0
 10  8  1  0
 11 10  2  0
 13 12  1  6
 13 14  1  0
 15 13  1  0
 15 16  1  6
 16 10  1  0
 17 15  1  0
 18 17  1  0
 19 17  2  0
M  END
$$$$
