GTV.pdb
     RDKit          3D

 19 18  0  0  1  0  0  0  0  0999 V2000
   11.0727  -17.5764   18.9847 N   0  0  0  0  0  0  0  0  0  0  0  0
   11.0854  -17.4073   20.4219 C   0  0  0  0  0  0  0  0  0  0  0  0
   10.2388  -16.2669   20.8134 C   0  0  0  0  0  0  0  0  0  0  0  0
   10.3813  -15.1652   20.2302 O   0  0  0  0  0  0  0  0  0  0  0  0
    6.6931  -15.9188   20.4130 C   0  0  0  0  0  0  0  0  0  0  0  0
    6.9390  -15.6818   21.8754 C   0  0  1  0  0  0  0  0  0  0  0  0
    6.5103  -16.7622   22.6032 O   0  0  0  0  0  0  0  0  0  0  0  0
    8.3765  -15.3269   22.1829 C   0  0  2  0  0  0  0  0  0  0  0  0
    9.2683  -16.3941   21.8361 N   0  0  0  0  0  0  0  0  0  0  0  0
    8.5991  -14.9081   23.5827 C   0  0  0  0  0  0  0  0  0  0  0  0
    9.4646  -15.5184   24.2560 O   0  0  0  0  0  0  0  0  0  0  0  0
    7.5916  -11.9729   27.4977 C   0  0  0  0  0  0  0  0  0  0  0  0
    7.2924  -12.3512   26.0638 C   0  0  2  0  0  0  0  0  0  0  0  0
    5.8323  -12.6581   25.8752 C   0  0  0  0  0  0  0  0  0  0  0  0
    8.1118  -13.5678   25.6397 C   0  0  2  0  0  0  0  0  0  0  0  0
    7.9007  -13.8565   24.2288 N   0  0  0  0  0  0  0  0  0  0  0  0
    7.6483  -14.7058   26.4602 C   0  0  0  0  0  0  0  0  0  0  0  0
    8.2815  -14.9609   27.6603 O   0  0  0  0  0  0  0  0  0  0  0  0
    6.7027  -15.4475   26.1078 O   0  0  0  0  0  0  0  0  0  0  0  0
  2  1  1  0
  3  2  1  0
  3  4  2  0
  6  5  1  6
  6  8  1  0
  7  6  1  0
  8  9  1  1
  9  3  1  0
 10  8  1  0
 11 10  2  0
 13 12  1  1
 13 14  1  0
 15 13  1  0
 15 16  1  6
 16 10  1  0
 17 15  1  0
 18 17  1  0
 19 17  2  0
M  END
$$$$
