GTV.pdb
     RDKit          3D

 19 18  0  0  1  0  0  0  0  0999 V2000
    3.4057  -19.4508   21.2208 N   0  0  0  0  0  0  0  0  0  0  0  0
    3.6333  -18.0857   21.6438 C   0  0  0  0  0  0  0  0  0  0  0  0
    4.5790  -18.0477   22.7729 C   0  0  0  0  0  0  0  0  0  0  0  0
    4.3472  -18.7388   23.7940 O   0  0  0  0  0  0  0  0  0  0  0  0
    7.4045  -19.6313   23.2234 C   0  0  0  0  0  0  0  0  0  0  0  0
    7.8651  -18.2161   23.4244 C   0  0  1  0  0  0  0  0  0  0  0  0
    8.5794  -17.7967   22.3314 O   0  0  0  0  0  0  0  0  0  0  0  0
    6.7349  -17.2689   23.7592 C   0  0  2  0  0  0  0  0  0  0  0  0
    5.7437  -17.2447   22.7240 N   0  0  0  0  0  0  0  0  0  0  0  0
    7.1829  -15.8955   24.0713 C   0  0  0  0  0  0  0  0  0  0  0  0
    7.2227  -15.0562   23.1392 O   0  0  0  0  0  0  0  0  0  0  0  0
    7.1511  -14.0331   27.8058 C   0  0  0  0  0  0  0  0  0  0  0  0
    7.4137  -13.2941   26.5121 C   0  0  2  0  0  0  0  0  0  0  0  0
    6.1278  -12.8887   25.8461 C   0  0  0  0  0  0  0  0  0  0  0  0
    8.2197  -14.1585   25.5455 C   0  0  2  0  0  0  0  0  0  0  0  0
    7.5749  -15.4501   25.3593 N   0  0  0  0  0  0  0  0  0  0  0  0
    9.5558  -14.3462   26.1480 C   0  0  0  0  0  0  0  0  0  0  0  0
   10.3964  -13.2559   26.2526 O   0  0  0  0  0  0  0  0  0  0  0  0
    9.9540  -15.4571   26.5672 O   0  0  0  0  0  0  0  0  0  0  0  0
  2  1  1  0
  3  2  1  0
  3  4  2  0
  6  5  1  6
  6  8  1  0
  7  6  1  0
  8  9  1  6
  9  3  1  0
 10  8  1  0
 11 10  2  0
 13 12  1  1
 13 14  1  0
 15 13  1  0
 15 16  1  1
 16 10  1  0
 17 15  1  0
 18 17  1  0
 19 17  2  0
M  END
$$$$
