GTV.pdb
     RDKit          3D

 19 18  0  0  1  0  0  0  0  0999 V2000
   12.1803  -16.6339   19.7424 N   0  0  0  0  0  0  0  0  0  0  0  0
   11.1804  -17.1221   20.6677 C   0  0  0  0  0  0  0  0  0  0  0  0
   10.4644  -15.9964   21.2928 C   0  0  0  0  0  0  0  0  0  0  0  0
   10.9240  -14.8346   21.1789 O   0  0  0  0  0  0  0  0  0  0  0  0
    7.0686  -14.8247   20.4922 C   0  0  0  0  0  0  0  0  0  0  0  0
    7.0928  -15.1077   21.9668 C   0  0  1  0  0  0  0  0  0  0  0  0
    6.4187  -16.2724   22.2309 O   0  0  0  0  0  0  0  0  0  0  0  0
    8.4908  -15.1198   22.5432 C   0  0  2  0  0  0  0  0  0  0  0  0
    9.2673  -16.2046   22.0191 N   0  0  0  0  0  0  0  0  0  0  0  0
    8.5245  -15.1330   24.0208 C   0  0  0  0  0  0  0  0  0  0  0  0
    9.1416  -16.0635   24.5937 O   0  0  0  0  0  0  0  0  0  0  0  0
    5.8373  -12.8766   26.4223 C   0  0  0  0  0  0  0  0  0  0  0  0
    7.2399  -13.0888   26.9481 C   0  0  2  0  0  0  0  0  0  0  0  0
    8.1046  -11.8851   26.6933 C   0  0  0  0  0  0  0  0  0  0  0  0
    7.8867  -14.3087   26.2965 C   0  0  2  0  0  0  0  0  0  0  0  0
    7.9055  -14.1621   24.8485 N   0  0  0  0  0  0  0  0  0  0  0  0
    7.0694  -15.4810   26.6721 C   0  0  0  0  0  0  0  0  0  0  0  0
    7.1947  -15.9973   27.9465 O   0  0  0  0  0  0  0  0  0  0  0  0
    6.2673  -16.0235   25.8779 O   0  0  0  0  0  0  0  0  0  0  0  0
  2  1  1  0
  3  2  1  0
  3  4  2  0
  6  5  1  6
  6  8  1  0
  7  6  1  0
  8  9  1  6
  9  3  1  0
 10  8  1  0
 11 10  2  0
 13 12  1  6
 13 14  1  0
 15 13  1  0
 15 16  1  6
 16 10  1  0
 17 15  1  0
 18 17  1  0
 19 17  2  0
M  END
$$$$
