GTV.pdb
     RDKit          3D

 19 18  0  0  1  0  0  0  0  0999 V2000
   12.2304  -16.3284   19.7873 N   0  0  0  0  0  0  0  0  0  0  0  0
   11.1793  -16.8897   20.6084 C   0  0  0  0  0  0  0  0  0  0  0  0
   10.4020  -15.8173   21.2536 C   0  0  0  0  0  0  0  0  0  0  0  0
   10.7967  -14.6299   21.1619 O   0  0  0  0  0  0  0  0  0  0  0  0
    6.6917  -15.1815   20.6329 C   0  0  0  0  0  0  0  0  0  0  0  0
    6.9259  -15.2919   22.1122 C   0  0  1  0  0  0  0  0  0  0  0  0
    6.4459  -16.4909   22.5736 O   0  0  0  0  0  0  0  0  0  0  0  0
    8.3714  -15.0743   22.4993 C   0  0  2  0  0  0  0  0  0  0  0  0
    9.2182  -16.1049   21.9746 N   0  0  0  0  0  0  0  0  0  0  0  0
    8.5818  -14.9307   23.9552 C   0  0  0  0  0  0  0  0  0  0  0  0
    9.4037  -15.6953   24.5160 O   0  0  0  0  0  0  0  0  0  0  0  0
    5.8708  -12.9397   26.5291 C   0  0  0  0  0  0  0  0  0  0  0  0
    7.3442  -12.8036   26.8443 C   0  0  2  0  0  0  0  0  0  0  0  0
    7.8879  -11.4919   26.3487 C   0  0  0  0  0  0  0  0  0  0  0  0
    8.1434  -13.9404   26.2118 C   0  0  2  0  0  0  0  0  0  0  0  0
    7.9176  -13.9828   24.7745 N   0  0  0  0  0  0  0  0  0  0  0  0
    7.6706  -15.1955   26.8319 C   0  0  0  0  0  0  0  0  0  0  0  0
    6.8652  -16.0391   26.0930 O   0  0  0  0  0  0  0  0  0  0  0  0
    7.9730  -15.5225   28.0024 O   0  0  0  0  0  0  0  0  0  0  0  0
  2  1  1  0
  3  2  1  0
  3  4  2  0
  6  5  1  6
  6  8  1  0
  7  6  1  0
  8  9  1  1
  9  3  1  0
 10  8  1  0
 11 10  2  0
 13 12  1  6
 13 14  1  0
 15 13  1  0
 15 16  1  6
 16 10  1  0
 17 15  1  0
 18 17  1  0
 19 17  2  0
M  END
$$$$
