GTV.pdb
     RDKit          3D

 19 18  0  0  1  0  0  0  0  0999 V2000
   12.3235  -14.9309   19.2797 N   0  0  0  0  0  0  0  0  0  0  0  0
   11.7134  -15.5472   20.4382 C   0  0  0  0  0  0  0  0  0  0  0  0
   10.5583  -14.7547   20.8944 C   0  0  0  0  0  0  0  0  0  0  0  0
   10.4714  -13.5471   20.5655 O   0  0  0  0  0  0  0  0  0  0  0  0
    6.8736  -14.7395   20.4132 C   0  0  0  0  0  0  0  0  0  0  0  0
    7.1386  -15.0024   21.8678 C   0  0  1  0  0  0  0  0  0  0  0  0
    6.9175  -16.3257   22.1520 O   0  0  0  0  0  0  0  0  0  0  0  0
    8.5127  -14.5508   22.3090 C   0  0  2  0  0  0  0  0  0  0  0  0
    9.5461  -15.3333   21.6972 N   0  0  0  0  0  0  0  0  0  0  0  0
    8.6883  -14.5282   23.7763 C   0  0  0  0  0  0  0  0  0  0  0  0
    9.5764  -15.2575   24.2807 O   0  0  0  0  0  0  0  0  0  0  0  0
    5.7998  -12.9257   26.4091 C   0  0  0  0  0  0  0  0  0  0  0  0
    7.2484  -12.7815   26.8211 C   0  0  2  0  0  0  0  0  0  0  0  0
    7.7670  -11.4036   26.5143 C   0  0  0  0  0  0  0  0  0  0  0  0
    8.1225  -13.8090   26.1061 C   0  0  2  0  0  0  0  0  0  0  0  0
    7.9206  -13.7351   24.6665 N   0  0  0  0  0  0  0  0  0  0  0  0
    7.7156  -15.1399   26.6027 C   0  0  0  0  0  0  0  0  0  0  0  0
    6.9587  -15.9522   25.7821 O   0  0  0  0  0  0  0  0  0  0  0  0
    8.0316  -15.5584   27.7400 O   0  0  0  0  0  0  0  0  0  0  0  0
  2  1  1  0
  3  2  1  0
  3  4  2  0
  6  5  1  6
  6  8  1  0
  7  6  1  0
  8  9  1  6
  9  3  1  0
 10  8  1  0
 11 10  2  0
 13 12  1  6
 13 14  1  0
 15 13  1  0
 15 16  1  6
 16 10  1  0
 17 15  1  0
 18 17  1  0
 19 17  2  0
M  END
$$$$
