GTV.pdb
     RDKit          3D

 19 18  0  0  1  0  0  0  0  0999 V2000
    8.5138  -13.2475   17.6271 N   0  0  0  0  0  0  0  0  0  0  0  0
    9.1939  -13.5961   18.8559 C   0  0  0  0  0  0  0  0  0  0  0  0
    8.2297  -13.7069   19.9643 C   0  0  0  0  0  0  0  0  0  0  0  0
    7.0724  -13.2437   19.8225 O   0  0  0  0  0  0  0  0  0  0  0  0
    6.5303  -16.3894   20.7847 C   0  0  0  0  0  0  0  0  0  0  0  0
    7.1482  -16.0594   22.1131 C   0  0  1  0  0  0  0  0  0  0  0  0
    8.1494  -16.9521   22.3982 O   0  0  0  0  0  0  0  0  0  0  0  0
    7.6245  -14.6270   22.2036 C   0  0  2  0  0  0  0  0  0  0  0  0
    8.5878  -14.3269   21.1854 N   0  0  0  0  0  0  0  0  0  0  0  0
    8.1540  -14.2595   23.5336 C   0  0  0  0  0  0  0  0  0  0  0  0
    9.3974  -14.2695   23.7027 O   0  0  0  0  0  0  0  0  0  0  0  0
    5.6460  -13.2339   26.8413 C   0  0  0  0  0  0  0  0  0  0  0  0
    7.0302  -12.6349   26.7232 C   0  0  2  0  0  0  0  0  0  0  0  0
    6.9857  -11.2891   26.0534 C   0  0  0  0  0  0  0  0  0  0  0  0
    7.9543  -13.5529   25.9265 C   0  0  2  0  0  0  0  0  0  0  0  0
    7.3534  -13.8917   24.6448 N   0  0  0  0  0  0  0  0  0  0  0  0
    8.1433  -14.7771   26.7321 C   0  0  0  0  0  0  0  0  0  0  0  0
    8.8514  -14.6916   27.9143 O   0  0  0  0  0  0  0  0  0  0  0  0
    7.6853  -15.8891   26.3826 O   0  0  0  0  0  0  0  0  0  0  0  0
  2  1  1  0
  3  2  1  0
  3  4  2  0
  6  5  1  6
  6  8  1  0
  7  6  1  0
  8  9  1  6
  9  3  1  0
 10  8  1  0
 11 10  2  0
 13 12  1  6
 13 14  1  0
 15 13  1  0
 15 16  1  6
 16 10  1  0
 17 15  1  0
 18 17  1  0
 19 17  2  0
M  END
$$$$
