GTV.pdb
     RDKit          3D

 19 18  0  0  1  0  0  0  0  0999 V2000
    3.1876  -18.8253   20.6487 N   0  0  0  0  0  0  0  0  0  0  0  0
    3.6141  -17.7422   21.5084 C   0  0  0  0  0  0  0  0  0  0  0  0
    5.0077  -17.3677   21.2116 C   0  0  0  0  0  0  0  0  0  0  0  0
    5.8435  -18.2649   20.9462 O   0  0  0  0  0  0  0  0  0  0  0  0
    8.2854  -13.7061   20.3931 C   0  0  0  0  0  0  0  0  0  0  0  0
    6.8766  -14.2241   20.4414 C   0  0  1  0  0  0  0  0  0  0  0  0
    6.3007  -14.1300   19.2004 O   0  0  0  0  0  0  0  0  0  0  0  0
    6.7809  -15.6241   21.0050 C   0  0  2  0  0  0  0  0  0  0  0  0
    5.4183  -16.0130   21.2210 N   0  0  0  0  0  0  0  0  0  0  0  0
    7.5720  -15.8242   22.2373 C   0  0  0  0  0  0  0  0  0  0  0  0
    7.1741  -15.2785   23.2951 O   0  0  0  0  0  0  0  0  0  0  0  0
   10.3997  -18.8891   22.7933 C   0  0  0  0  0  0  0  0  0  0  0  0
    9.7824  -18.1181   23.9393 C   0  0  2  0  0  0  0  0  0  0  0  0
    8.4806  -18.7347   24.3716 C   0  0  0  0  0  0  0  0  0  0  0  0
    9.5337  -16.6640   23.5456 C   0  0  2  0  0  0  0  0  0  0  0  0
    8.7594  -16.5954   22.3150 N   0  0  0  0  0  0  0  0  0  0  0  0
   10.8580  -16.0412   23.3413 C   0  0  0  0  0  0  0  0  0  0  0  0
   11.6160  -15.7141   24.4479 O   0  0  0  0  0  0  0  0  0  0  0  0
   11.3184  -15.7991   22.2021 O   0  0  0  0  0  0  0  0  0  0  0  0
  2  1  1  0
  3  2  1  0
  3  4  2  0
  6  5  1  6
  6  8  1  0
  7  6  1  0
  8  9  1  1
  9  3  1  0
 10  8  1  0
 11 10  2  0
 13 12  1  6
 13 14  1  0
 15 13  1  0
 15 16  1  6
 16 10  1  0
 17 15  1  0
 18 17  1  0
 19 17  2  0
M  END
$$$$
