GTV.pdb
     RDKit          3D

 19 18  0  0  1  0  0  0  0  0999 V2000
   11.7698  -17.0711   19.2360 N   0  0  0  0  0  0  0  0  0  0  0  0
   11.2125  -17.2258   20.5625 C   0  0  0  0  0  0  0  0  0  0  0  0
   10.2784  -16.1260   20.8598 C   0  0  0  0  0  0  0  0  0  0  0  0
   10.4544  -15.0061   20.3223 O   0  0  0  0  0  0  0  0  0  0  0  0
    6.6559  -15.6333   20.3102 C   0  0  0  0  0  0  0  0  0  0  0  0
    6.8868  -15.5105   21.7890 C   0  0  1  0  0  0  0  0  0  0  0  0
    6.4064  -16.6228   22.4315 O   0  0  0  0  0  0  0  0  0  0  0  0
    8.3313  -15.2337   22.1404 C   0  0  2  0  0  0  0  0  0  0  0  0
    9.1866  -16.3125   21.7414 N   0  0  0  0  0  0  0  0  0  0  0  0
    8.5449  -14.9118   23.5671 C   0  0  0  0  0  0  0  0  0  0  0  0
    9.3689  -15.6010   24.2157 O   0  0  0  0  0  0  0  0  0  0  0  0
    7.5458  -12.2186   27.6546 C   0  0  0  0  0  0  0  0  0  0  0  0
    7.2873  -12.4695   26.1852 C   0  0  2  0  0  0  0  0  0  0  0  0
    5.8212  -12.6700   25.9169 C   0  0  0  0  0  0  0  0  0  0  0  0
    8.0511  -13.6995   25.7005 C   0  0  2  0  0  0  0  0  0  0  0  0
    7.8816  -13.8707   24.2651 N   0  0  0  0  0  0  0  0  0  0  0  0
    7.4888  -14.8642   26.4152 C   0  0  0  0  0  0  0  0  0  0  0  0
    7.9905  -15.1848   27.6609 O   0  0  0  0  0  0  0  0  0  0  0  0
    6.5742  -15.5711   25.9333 O   0  0  0  0  0  0  0  0  0  0  0  0
  2  1  1  0
  3  2  1  0
  3  4  2  0
  6  5  1  6
  6  8  1  0
  7  6  1  0
  8  9  1  1
  9  3  1  0
 10  8  1  0
 11 10  2  0
 13 12  1  1
 13 14  1  0
 15 13  1  0
 15 16  1  6
 16 10  1  0
 17 15  1  0
 18 17  1  0
 19 17  2  0
M  END
$$$$
