GTV.pdb
     RDKit          3D

 19 18  0  0  1  0  0  0  0  0999 V2000
    1.8497  -20.5676   22.2453 N   0  0  0  0  0  0  0  0  0  0  0  0
    2.3561  -19.2148   22.3327 C   0  0  0  0  0  0  0  0  0  0  0  0
    3.8262  -19.2207   22.4290 C   0  0  0  0  0  0  0  0  0  0  0  0
    4.4026  -20.1812   22.9940 O   0  0  0  0  0  0  0  0  0  0  0  0
    6.1066  -19.4118   19.6922 C   0  0  0  0  0  0  0  0  0  0  0  0
    6.5768  -18.2197   20.4753 C   0  0  1  0  0  0  0  0  0  0  0  0
    6.2939  -17.0672   19.7879 O   0  0  0  0  0  0  0  0  0  0  0  0
    6.0310  -18.1863   21.8851 C   0  0  2  0  0  0  0  0  0  0  0  0
    4.5979  -18.1611   21.8947 N   0  0  0  0  0  0  0  0  0  0  0  0
    6.5681  -17.0796   22.7044 C   0  0  0  0  0  0  0  0  0  0  0  0
    6.0277  -15.9511   22.6079 O   0  0  0  0  0  0  0  0  0  0  0  0
    8.2104  -17.1123   26.3958 C   0  0  0  0  0  0  0  0  0  0  0  0
    7.9590  -15.8393   25.6178 C   0  0  2  0  0  0  0  0  0  0  0  0
    6.5195  -15.4157   25.7175 C   0  0  0  0  0  0  0  0  0  0  0  0
    8.3197  -16.0211   24.1454 C   0  0  2  0  0  0  0  0  0  0  0  0
    7.6598  -17.1989   23.6016 N   0  0  0  0  0  0  0  0  0  0  0  0
    9.7860  -16.1915   24.0797 C   0  0  0  0  0  0  0  0  0  0  0  0
   10.5942  -15.1129   24.3793 O   0  0  0  0  0  0  0  0  0  0  0  0
   10.3229  -17.2775   23.7624 O   0  0  0  0  0  0  0  0  0  0  0  0
  2  1  1  0
  3  2  1  0
  3  4  2  0
  6  5  1  6
  6  8  1  0
  7  6  1  0
  8  9  1  6
  9  3  1  0
 10  8  1  0
 11 10  2  0
 13 12  1  1
 13 14  1  0
 15 13  1  0
 15 16  1  1
 16 10  1  0
 17 15  1  0
 18 17  1  0
 19 17  2  0
M  END
$$$$
