GTV.pdb
     RDKit          3D

 19 18  0  0  1  0  0  0  0  0999 V2000
   11.8179  -16.6497   19.5606 N   0  0  0  0  0  0  0  0  0  0  0  0
   10.5118  -17.0253   20.0577 C   0  0  0  0  0  0  0  0  0  0  0  0
    9.8116  -15.8500   20.6044 C   0  0  0  0  0  0  0  0  0  0  0  0
    9.3965  -14.9613   19.8221 O   0  0  0  0  0  0  0  0  0  0  0  0
    7.2241  -14.9532   20.4105 C   0  0  0  0  0  0  0  0  0  0  0  0
    7.2273  -15.1647   21.8972 C   0  0  1  0  0  0  0  0  0  0  0  0
    6.7867  -16.4298   22.1908 O   0  0  0  0  0  0  0  0  0  0  0  0
    8.5674  -14.8704   22.5330 C   0  0  2  0  0  0  0  0  0  0  0  0
    9.6000  -15.7075   21.9968 N   0  0  0  0  0  0  0  0  0  0  0  0
    8.5562  -14.9527   24.0087 C   0  0  0  0  0  0  0  0  0  0  0  0
    9.1874  -15.8883   24.5573 O   0  0  0  0  0  0  0  0  0  0  0  0
    5.7015  -12.9323   26.4459 C   0  0  0  0  0  0  0  0  0  0  0  0
    7.1057  -13.0975   26.9841 C   0  0  2  0  0  0  0  0  0  0  0  0
    7.9154  -11.8458   26.7860 C   0  0  0  0  0  0  0  0  0  0  0  0
    7.8181  -14.2607   26.2981 C   0  0  2  0  0  0  0  0  0  0  0  0
    7.8789  -14.0433   24.8602 N   0  0  0  0  0  0  0  0  0  0  0  0
    7.0329  -15.4780   26.5894 C   0  0  0  0  0  0  0  0  0  0  0  0
    7.1812  -16.0854   27.8204 O   0  0  0  0  0  0  0  0  0  0  0  0
    6.2381  -15.9793   25.7615 O   0  0  0  0  0  0  0  0  0  0  0  0
  2  1  1  0
  3  2  1  0
  3  4  2  0
  6  5  1  6
  6  8  1  0
  7  6  1  0
  8  9  1  6
  9  3  1  0
 10  8  1  0
 11 10  2  0
 13 12  1  6
 13 14  1  0
 15 13  1  0
 15 16  1  6
 16 10  1  0
 17 15  1  0
 18 17  1  0
 19 17  2  0
M  END
$$$$
