SHT.pdb
     RDKit          3D

 24 24  0  0  1  0  0  0  0  0999 V2000
   12.6854  -14.4454   16.9745 O   0  0  0  0  0  0  0  0  0  0  0  0
   13.7163  -14.3932   17.9211 C   0  0  0  0  0  0  0  0  0  0  0  0
   13.3897  -15.3926   19.0118 C   0  0  2  0  0  0  0  0  0  0  0  0
   12.8149  -16.5874   18.4307 N   0  0  0  0  0  0  0  0  0  0  0  0
   12.4205  -14.8346   19.9790 C   0  0  0  0  0  0  0  0  0  0  0  0
   12.7322  -13.8221   20.6452 O   0  0  0  0  0  0  0  0  0  0  0  0
   11.1274  -15.4101   20.1874 N   0  0  0  0  0  0  0  0  0  0  0  0
   10.2182  -14.9108   21.2014 C   0  0  1  0  0  0  0  0  0  0  0  0
    8.8452  -14.8962   20.6116 C   0  0  0  0  0  0  0  0  0  0  0  0
    8.8054  -14.0406   19.3968 C   0  0  0  0  0  0  0  0  0  0  0  0
    9.7735  -13.2754   18.8277 C   0  0  0  0  0  0  0  0  0  0  0  0
    9.2278  -12.7003   17.7436 N   0  0  0  0  0  0  0  0  0  0  0  0
    7.9484  -13.0949   17.6352 C   0  0  0  0  0  0  0  0  0  0  0  0
    7.7006  -13.9102   18.6455 N   0  0  0  0  0  0  0  0  0  0  0  0
   10.3754  -15.6671   22.4279 C   0  0  0  0  0  0  0  0  0  0  0  0
    9.6101  -15.4314   23.4032 O   0  0  0  0  0  0  0  0  0  0  0  0
    9.4574  -18.9254   23.4882 C   0  0  0  0  0  0  0  0  0  0  0  0
   10.9571  -18.8650   23.6923 C   0  0  1  0  0  0  0  0  0  0  0  0
   11.6295  -19.3779   22.6089 O   0  0  0  0  0  0  0  0  0  0  0  0
   11.4029  -17.4319   23.8850 C   0  0  2  0  0  0  0  0  0  0  0  0
   11.3438  -16.6845   22.6435 N   0  0  0  0  0  0  0  0  0  0  0  0
   12.7648  -17.3392   24.4334 C   0  0  0  0  0  0  0  0  0  0  0  0
   13.6711  -16.8042   23.7708 O   0  0  0  0  0  0  0  0  0  0  0  0
   13.0377  -17.8460   25.6840 O   0  0  0  0  0  0  0  0  0  0  0  0
  2  1  1  0
  3  2  1  0
  3  5  1  0
  3  4  1  6
  5  6  2  0
  5  7  1  0
  7  8  1  0
  8 15  1  0
  8  9  1  6
 10  9  1  0
 11 10  2  0
 12 11  1  0
 13 12  1  0
 13 14  2  0
 14 10  1  0
 15 16  2  0
 15 21  1  0
 18 17  1  6
 18 19  1  0
 20 22  1  0
 20 18  1  0
 20 21  1  6
 22 24  1  0
 23 22  2  0
M  END
$$$$
