SHT.pdb
     RDKit          3D

 24 24  0  0  1  0  0  0  0  0999 V2000
    6.5336  -17.6113   18.3304 O   0  0  0  0  0  0  0  0  0  0  0  0
    7.8539  -17.6786   18.7930 C   0  0  0  0  0  0  0  0  0  0  0  0
    8.7688  -17.5024   17.5985 C   0  0  2  0  0  0  0  0  0  0  0  0
    8.7381  -18.6914   16.7733 N   0  0  0  0  0  0  0  0  0  0  0  0
   10.1659  -17.2675   18.0218 C   0  0  0  0  0  0  0  0  0  0  0  0
   10.9515  -18.2377   18.1104 O   0  0  0  0  0  0  0  0  0  0  0  0
   10.6625  -15.9635   18.3376 N   0  0  0  0  0  0  0  0  0  0  0  0
   12.0299  -15.7457   18.7699 C   0  0  1  0  0  0  0  0  0  0  0  0
   12.5651  -14.5762   18.0089 C   0  0  0  0  0  0  0  0  0  0  0  0
   14.0343  -14.4551   18.1987 C   0  0  0  0  0  0  0  0  0  0  0  0
   14.7507  -13.6566   19.0328 C   0  0  0  0  0  0  0  0  0  0  0  0
   16.0473  -13.9320   18.8169 N   0  0  0  0  0  0  0  0  0  0  0  0
   16.1423  -14.8803   17.8702 C   0  0  0  0  0  0  0  0  0  0  0  0
   14.9123  -15.1921   17.5003 N   0  0  0  0  0  0  0  0  0  0  0  0
   12.0858  -15.6437   20.2147 C   0  0  0  0  0  0  0  0  0  0  0  0
   11.4559  -14.7167   20.7949 O   0  0  0  0  0  0  0  0  0  0  0  0
   10.3206  -16.6602   22.8292 C   0  0  0  0  0  0  0  0  0  0  0  0
   11.6867  -17.2442   23.1244 C   0  0  1  0  0  0  0  0  0  0  0  0
   11.8101  -18.5118   22.6076 O   0  0  0  0  0  0  0  0  0  0  0  0
   12.7692  -16.3817   22.5129 C   0  0  2  0  0  0  0  0  0  0  0  0
   12.8078  -16.5194   21.0697 N   0  0  0  0  0  0  0  0  0  0  0  0
   14.1012  -16.6870   23.0573 C   0  0  0  0  0  0  0  0  0  0  0  0
   14.9682  -17.2088   22.3342 O   0  0  0  0  0  0  0  0  0  0  0  0
   14.3899  -16.3944   24.3713 O   0  0  0  0  0  0  0  0  0  0  0  0
  2  1  1  0
  3  2  1  0
  3  5  1  0
  3  4  1  6
  5  6  2  0
  5  7  1  0
  7  8  1  0
  8 15  1  0
  8  9  1  6
 10  9  1  0
 11 10  2  0
 12 11  1  0
 13 12  1  0
 13 14  2  0
 14 10  1  0
 15 16  2  0
 15 21  1  0
 18 17  1  6
 18 19  1  0
 20 22  1  0
 20 18  1  0
 20 21  1  6
 22 24  1  0
 23 22  2  0
M  END
$$$$
