SHT.pdb
     RDKit          3D

 24 24  0  0  1  0  0  0  0  0999 V2000
    6.7830  -19.5711   20.8558 O   0  0  0  0  0  0  0  0  0  0  0  0
    6.9531  -20.0708   19.5585 C   0  0  0  0  0  0  0  0  0  0  0  0
    6.8827  -18.8983   18.6017 C   0  0  2  0  0  0  0  0  0  0  0  0
    7.1650  -19.3436   17.2534 N   0  0  0  0  0  0  0  0  0  0  0  0
    7.8647  -17.8526   18.9600 C   0  0  0  0  0  0  0  0  0  0  0  0
    9.0821  -18.0581   18.7550 O   0  0  0  0  0  0  0  0  0  0  0  0
    7.4771  -16.6024   19.5374 N   0  0  0  0  0  0  0  0  0  0  0  0
    8.4510  -15.5970   19.9184 C   0  0  1  0  0  0  0  0  0  0  0  0
    7.8687  -14.2582   19.5995 C   0  0  0  0  0  0  0  0  0  0  0  0
    7.8963  -14.0099   18.1343 C   0  0  0  0  0  0  0  0  0  0  0  0
    8.3770  -14.7771   17.1209 C   0  0  0  0  0  0  0  0  0  0  0  0
    8.1597  -14.0987   15.9824 N   0  0  0  0  0  0  0  0  0  0  0  0
    7.5573  -12.9341   16.2742 C   0  0  0  0  0  0  0  0  0  0  0  0
    7.4012  -12.8891   17.5859 N   0  0  0  0  0  0  0  0  0  0  0  0
    8.8648  -15.7995   21.2926 C   0  0  0  0  0  0  0  0  0  0  0  0
    8.0718  -15.5028   22.2284 O   0  0  0  0  0  0  0  0  0  0  0  0
    8.9045  -18.5211   23.3160 C   0  0  0  0  0  0  0  0  0  0  0  0
   10.3386  -18.0460   23.4249 C   0  0  1  0  0  0  0  0  0  0  0  0
   11.1577  -18.7275   22.5568 O   0  0  0  0  0  0  0  0  0  0  0  0
   10.4294  -16.5720   23.0951 C   0  0  2  0  0  0  0  0  0  0  0  0
   10.1232  -16.3187   21.7004 N   0  0  0  0  0  0  0  0  0  0  0  0
   11.7540  -16.0111   23.4024 C   0  0  0  0  0  0  0  0  0  0  0  0
   12.4965  -15.6205   22.4843 O   0  0  0  0  0  0  0  0  0  0  0  0
   12.1741  -15.9179   24.7103 O   0  0  0  0  0  0  0  0  0  0  0  0
  2  1  1  0
  3  2  1  0
  3  5  1  0
  3  4  1  6
  5  6  2  0
  5  7  1  0
  7  8  1  0
  8 15  1  0
  8  9  1  1
 10  9  1  0
 11 10  2  0
 12 11  1  0
 13 12  1  0
 13 14  2  0
 14 10  1  0
 15 16  2  0
 15 21  1  0
 18 17  1  6
 18 19  1  0
 20 22  1  0
 20 18  1  0
 20 21  1  6
 22 24  1  0
 23 22  2  0
M  END
$$$$
