SHT.pdb
     RDKit          3D

 24 24  0  0  1  0  0  0  0  0999 V2000
   10.2551  -16.6751   19.3026 O   0  0  0  0  0  0  0  0  0  0  0  0
    9.4232  -16.1925   20.3208 C   0  0  0  0  0  0  0  0  0  0  0  0
    8.5146  -17.3269   20.7481 C   0  0  2  0  0  0  0  0  0  0  0  0
    7.4680  -17.5178   19.7663 N   0  0  0  0  0  0  0  0  0  0  0  0
    7.8803  -17.0446   22.0535 C   0  0  0  0  0  0  0  0  0  0  0  0
    6.8139  -16.3905   22.0888 O   0  0  0  0  0  0  0  0  0  0  0  0
    8.4406  -17.4929   23.2912 N   0  0  0  0  0  0  0  0  0  0  0  0
    7.7819  -17.2593   24.5624 C   0  0  1  0  0  0  0  0  0  0  0  0
    8.1775  -18.3641   25.4876 C   0  0  0  0  0  0  0  0  0  0  0  0
    7.3507  -19.5747   25.2423 C   0  0  0  0  0  0  0  0  0  0  0  0
    6.3665  -19.7983   24.3324 C   0  0  0  0  0  0  0  0  0  0  0  0
    5.9373  -21.0563   24.5246 N   0  0  0  0  0  0  0  0  0  0  0  0
    6.6352  -21.6087   25.5307 C   0  0  0  0  0  0  0  0  0  0  0  0
    7.4927  -20.6996   25.9609 N   0  0  0  0  0  0  0  0  0  0  0  0
    8.0555  -15.9133   25.0255 C   0  0  0  0  0  0  0  0  0  0  0  0
    9.1310  -15.3478   24.6851 O   0  0  0  0  0  0  0  0  0  0  0  0
    6.6656  -11.4517   26.4503 C   0  0  0  0  0  0  0  0  0  0  0  0
    6.3559  -12.8434   25.9387 C   0  0  1  0  0  0  0  0  0  0  0  0
    6.1351  -12.8390   24.5821 O   0  0  0  0  0  0  0  0  0  0  0  0
    7.5133  -13.7761   26.2220 C   0  0  2  0  0  0  0  0  0  0  0  0
    7.1971  -15.1433   25.8559 N   0  0  0  0  0  0  0  0  0  0  0  0
    7.9249  -13.7431   27.6339 C   0  0  0  0  0  0  0  0  0  0  0  0
    7.8529  -14.7707   28.3309 O   0  0  0  0  0  0  0  0  0  0  0  0
    8.3914  -12.5715   28.1863 O   0  0  0  0  0  0  0  0  0  0  0  0
  2  1  1  0
  3  2  1  0
  3  5  1  0
  3  4  1  6
  5  6  2  0
  5  7  1  0
  7  8  1  0
  8 15  1  0
  8  9  1  1
 10  9  1  0
 11 10  2  0
 12 11  1  0
 13 12  1  0
 13 14  2  0
 14 10  1  0
 15 16  2  0
 15 21  1  0
 18 17  1  6
 18 19  1  0
 20 22  1  0
 20 18  1  0
 20 21  1  1
 22 24  1  0
 23 22  2  0
M  END
$$$$
