SHT.pdb
     RDKit          3D

 24 24  0  0  1  0  0  0  0  0999 V2000
    7.0791  -12.7598   20.9064 O   0  0  0  0  0  0  0  0  0  0  0  0
    8.1794  -12.3710   20.1320 C   0  0  0  0  0  0  0  0  0  0  0  0
    8.5413  -13.5341   19.2313 C   0  0  2  0  0  0  0  0  0  0  0  0
    7.4610  -13.7949   18.3035 N   0  0  0  0  0  0  0  0  0  0  0  0
    8.7873  -14.7639   20.0144 C   0  0  0  0  0  0  0  0  0  0  0  0
    7.8866  -15.6290   20.0971 O   0  0  0  0  0  0  0  0  0  0  0  0
   10.0250  -15.0088   20.6887 N   0  0  0  0  0  0  0  0  0  0  0  0
   10.2716  -16.2368   21.4205 C   0  0  1  0  0  0  0  0  0  0  0  0
   11.6625  -16.6818   21.1035 C   0  0  0  0  0  0  0  0  0  0  0  0
   11.7131  -17.3335   19.7685 C   0  0  0  0  0  0  0  0  0  0  0  0
   12.1027  -16.8411   18.5634 C   0  0  0  0  0  0  0  0  0  0  0  0
   11.9585  -17.8351   17.6718 N   0  0  0  0  0  0  0  0  0  0  0  0
   11.4898  -18.9248   18.3022 C   0  0  0  0  0  0  0  0  0  0  0  0
   11.3437  -18.6098   19.5774 N   0  0  0  0  0  0  0  0  0  0  0  0
    9.9687  -16.0492   22.8255 C   0  0  0  0  0  0  0  0  0  0  0  0
   10.0904  -14.9023   23.3376 O   0  0  0  0  0  0  0  0  0  0  0  0
    7.2330  -16.7457   26.6840 C   0  0  0  0  0  0  0  0  0  0  0  0
    7.6183  -16.8158   25.2208 C   0  0  1  0  0  0  0  0  0  0  0  0
    7.0943  -15.7591   24.5152 O   0  0  0  0  0  0  0  0  0  0  0  0
    9.1238  -16.7777   25.0725 C   0  0  2  0  0  0  0  0  0  0  0  0
    9.5322  -17.0704   23.7120 N   0  0  0  0  0  0  0  0  0  0  0  0
    9.7991  -17.7129   25.9852 C   0  0  0  0  0  0  0  0  0  0  0  0
    9.7017  -17.5660   27.2164 O   0  0  0  0  0  0  0  0  0  0  0  0
   10.5416  -18.7545   25.4759 O   0  0  0  0  0  0  0  0  0  0  0  0
  2  1  1  0
  3  2  1  0
  3  5  1  0
  3  4  1  6
  5  6  2  0
  5  7  1  0
  7  8  1  0
  8 15  1  0
  8  9  1  1
 10  9  1  0
 11 10  2  0
 12 11  1  0
 13 12  1  0
 13 14  2  0
 14 10  1  0
 15 16  2  0
 15 21  1  0
 18 17  1  1
 18 19  1  0
 20 22  1  0
 20 18  1  0
 20 21  1  6
 22 24  1  0
 23 22  2  0
M  END
$$$$
