SHT.pdb
     RDKit          3D

 24 24  0  0  1  0  0  0  0  0999 V2000
    7.5409  -12.2624   19.1482 O   0  0  0  0  0  0  0  0  0  0  0  0
    8.5636  -12.6501   20.0230 C   0  0  0  0  0  0  0  0  0  0  0  0
    8.7944  -14.1349   19.8307 C   0  0  2  0  0  0  0  0  0  0  0  0
    7.9788  -14.6242   18.7394 N   0  0  0  0  0  0  0  0  0  0  0  0
    8.4436  -14.8954   21.0492 C   0  0  0  0  0  0  0  0  0  0  0  0
    7.3432  -15.4887   21.1065 O   0  0  0  0  0  0  0  0  0  0  0  0
    9.3189  -14.9823   22.1775 N   0  0  0  0  0  0  0  0  0  0  0  0
    8.9478  -15.6952   23.3851 C   0  0  1  0  0  0  0  0  0  0  0  0
    8.6718  -17.1144   23.0069 C   0  0  0  0  0  0  0  0  0  0  0  0
    9.6874  -17.6062   22.0394 C   0  0  0  0  0  0  0  0  0  0  0  0
   10.7846  -16.9902   21.5265 C   0  0  0  0  0  0  0  0  0  0  0  0
   11.3696  -17.8668   20.6940 N   0  0  0  0  0  0  0  0  0  0  0  0
   10.6567  -19.0052   20.6847 C   0  0  0  0  0  0  0  0  0  0  0  0
    9.6352  -18.8371   21.5064 N   0  0  0  0  0  0  0  0  0  0  0  0
    9.9517  -15.4942   24.4110 C   0  0  0  0  0  0  0  0  0  0  0  0
   10.9409  -14.7480   24.1718 O   0  0  0  0  0  0  0  0  0  0  0  0
    8.0171  -14.4306   27.0878 C   0  0  0  0  0  0  0  0  0  0  0  0
    9.4911  -14.0828   27.0596 C   0  0  1  0  0  0  0  0  0  0  0  0
    9.8818  -13.4701   28.2263 O   0  0  0  0  0  0  0  0  0  0  0  0
   10.3224  -15.3353   26.8871 C   0  0  2  0  0  0  0  0  0  0  0  0
    9.9267  -16.0784   25.7062 N   0  0  0  0  0  0  0  0  0  0  0  0
   10.2454  -16.2229   28.0575 C   0  0  0  0  0  0  0  0  0  0  0  0
    9.5517  -17.2544   28.0161 O   0  0  0  0  0  0  0  0  0  0  0  0
   10.9430  -15.9117   29.2030 O   0  0  0  0  0  0  0  0  0  0  0  0
  2  1  1  0
  3  2  1  0
  3  5  1  0
  3  4  1  6
  5  6  2  0
  5  7  1  0
  7  8  1  0
  8 15  1  0
  8  9  1  6
 10  9  1  0
 11 10  2  0
 12 11  1  0
 13 12  1  0
 13 14  2  0
 14 10  1  0
 15 16  2  0
 15 21  1  0
 18 17  1  1
 18 19  1  0
 20 22  1  0
 20 18  1  0
 20 21  1  6
 22 24  1  0
 23 22  2  0
M  END
$$$$
