SHT.pdb
     RDKit          3D

 24 24  0  0  1  0  0  0  0  0999 V2000
    2.1197  -18.5838   21.8224 O   0  0  0  0  0  0  0  0  0  0  0  0
    3.3768  -18.1158   22.2255 C   0  0  0  0  0  0  0  0  0  0  0  0
    4.2479  -18.0165   20.9901 C   0  0  2  0  0  0  0  0  0  0  0  0
    4.0710  -19.1930   20.1652 N   0  0  0  0  0  0  0  0  0  0  0  0
    5.6786  -17.9120   21.3483 C   0  0  0  0  0  0  0  0  0  0  0  0
    6.3412  -18.9565   21.5389 O   0  0  0  0  0  0  0  0  0  0  0  0
    6.3442  -16.6534   21.4878 N   0  0  0  0  0  0  0  0  0  0  0  0
    7.7055  -16.5541   21.9789 C   0  0  1  0  0  0  0  0  0  0  0  0
    8.5943  -16.3047   20.8038 C   0  0  0  0  0  0  0  0  0  0  0  0
    8.1443  -15.1044   20.0514 C   0  0  0  0  0  0  0  0  0  0  0  0
    7.1156  -14.2498   20.2920 C   0  0  0  0  0  0  0  0  0  0  0  0
    7.1369  -13.3299   19.3138 N   0  0  0  0  0  0  0  0  0  0  0  0
    8.1543  -13.6006   18.4795 C   0  0  0  0  0  0  0  0  0  0  0  0
    8.7613  -14.6821   18.9365 N   0  0  0  0  0  0  0  0  0  0  0  0
    7.7791  -15.5801   23.0499 C   0  0  0  0  0  0  0  0  0  0  0  0
    6.9603  -14.6202   23.0715 O   0  0  0  0  0  0  0  0  0  0  0  0
    7.3424  -13.7099   27.0765 C   0  0  0  0  0  0  0  0  0  0  0  0
    7.3125  -14.6047   25.8547 C   0  0  1  0  0  0  0  0  0  0  0  0
    6.4028  -14.1544   24.9281 O   0  0  0  0  0  0  0  0  0  0  0  0
    8.6744  -14.6387   25.1960 C   0  0  2  0  0  0  0  0  0  0  0  0
    8.7191  -15.6048   24.1153 N   0  0  0  0  0  0  0  0  0  0  0  0
    9.7503  -14.9420   26.1522 C   0  0  0  0  0  0  0  0  0  0  0  0
    9.9055  -14.2359   27.1642 O   0  0  0  0  0  0  0  0  0  0  0  0
   10.5885  -16.0108   25.9270 O   0  0  0  0  0  0  0  0  0  0  0  0
  2  1  1  0
  3  2  1  0
  3  5  1  0
  3  4  1  6
  5  6  2  0
  5  7  1  0
  7  8  1  0
  8 15  1  0
  8  9  1  6
 10  9  1  0
 11 10  2  0
 12 11  1  0
 13 12  1  0
 13 14  2  0
 14 10  1  0
 15 16  2  0
 15 21  1  0
 18 17  1  1
 18 19  1  0
 20 22  1  0
 20 18  1  0
 20 21  1  6
 22 24  1  0
 23 22  2  0
M  END
$$$$
