SHT.pdb
     RDKit          3D

 24 24  0  0  1  0  0  0  0  0999 V2000
   11.6744  -18.6763   17.9620 O   0  0  0  0  0  0  0  0  0  0  0  0
   11.7738  -18.0675   16.7045 C   0  0  0  0  0  0  0  0  0  0  0  0
   10.8795  -16.8447   16.7140 C   0  0  2  0  0  0  0  0  0  0  0  0
   10.9979  -16.1366   15.4569 N   0  0  0  0  0  0  0  0  0  0  0  0
   11.2484  -15.9177   17.8052 C   0  0  0  0  0  0  0  0  0  0  0  0
   12.1952  -15.1169   17.6361 O   0  0  0  0  0  0  0  0  0  0  0  0
   10.5610  -15.8977   19.0597 N   0  0  0  0  0  0  0  0  0  0  0  0
   10.9785  -15.0385   20.1513 C   0  0  1  0  0  0  0  0  0  0  0  0
    9.7501  -14.4238   20.7397 C   0  0  0  0  0  0  0  0  0  0  0  0
    8.9967  -13.6658   19.7067 C   0  0  0  0  0  0  0  0  0  0  0  0
    9.1493  -12.3894   19.2661 C   0  0  0  0  0  0  0  0  0  0  0  0
    8.2155  -12.1894   18.3217 N   0  0  0  0  0  0  0  0  0  0  0  0
    7.4945  -13.3130   18.1733 C   0  0  0  0  0  0  0  0  0  0  0  0
    7.9772  -14.2056   19.0202 N   0  0  0  0  0  0  0  0  0  0  0  0
   11.8237  -15.7750   21.0701 C   0  0  0  0  0  0  0  0  0  0  0  0
   11.3162  -16.6799   21.7885 O   0  0  0  0  0  0  0  0  0  0  0  0
   14.0730  -18.2743   20.4249 C   0  0  0  0  0  0  0  0  0  0  0  0
   14.9114  -17.3387   21.2712 C   0  0  1  0  0  0  0  0  0  0  0  0
   15.7200  -16.5482   20.4899 O   0  0  0  0  0  0  0  0  0  0  0  0
   14.0196  -16.4312   22.0903 C   0  0  2  0  0  0  0  0  0  0  0  0
   13.2185  -15.5673   21.2446 N   0  0  0  0  0  0  0  0  0  0  0  0
   14.7833  -15.6006   23.0340 C   0  0  0  0  0  0  0  0  0  0  0  0
   14.8568  -14.3703   22.8670 O   0  0  0  0  0  0  0  0  0  0  0  0
   15.4191  -16.1860   24.1058 O   0  0  0  0  0  0  0  0  0  0  0  0
  2  1  1  0
  3  2  1  0
  3  5  1  0
  3  4  1  6
  5  6  2  0
  5  7  1  0
  7  8  1  0
  8 15  1  0
  8  9  1  1
 10  9  1  0
 11 10  2  0
 12 11  1  0
 13 12  1  0
 13 14  2  0
 14 10  1  0
 15 16  2  0
 15 21  1  0
 18 17  1  6
 18 19  1  0
 20 22  1  0
 20 18  1  0
 20 21  1  6
 22 24  1  0
 23 22  2  0
M  END
$$$$
