SHT.pdb
     RDKit          3D

 24 24  0  0  1  0  0  0  0  0999 V2000
    9.4327  -14.9773   16.1462 O   0  0  0  0  0  0  0  0  0  0  0  0
   10.4152  -15.9452   16.3901 C   0  0  0  0  0  0  0  0  0  0  0  0
   11.7356  -15.3955   15.8905 C   0  0  2  0  0  0  0  0  0  0  0  0
   12.1404  -16.0973   14.6908 N   0  0  0  0  0  0  0  0  0  0  0  0
   12.8014  -15.5545   16.9029 C   0  0  0  0  0  0  0  0  0  0  0  0
   13.3802  -16.6583   17.0161 O   0  0  0  0  0  0  0  0  0  0  0  0
   13.2029  -14.4879   17.7676 N   0  0  0  0  0  0  0  0  0  0  0  0
   14.2827  -14.6391   18.7244 C   0  0  1  0  0  0  0  0  0  0  0  0
   15.2313  -13.5026   18.5207 C   0  0  0  0  0  0  0  0  0  0  0  0
   16.2597  -13.8534   17.5064 C   0  0  0  0  0  0  0  0  0  0  0  0
   16.4596  -15.0087   16.8194 C   0  0  0  0  0  0  0  0  0  0  0  0
   17.5231  -14.8094   16.0238 N   0  0  0  0  0  0  0  0  0  0  0  0
   17.9794  -13.5594   16.2070 C   0  0  0  0  0  0  0  0  0  0  0  0
   17.2043  -12.9856   17.1109 N   0  0  0  0  0  0  0  0  0  0  0  0
   13.7458  -14.7872   20.0626 C   0  0  0  0  0  0  0  0  0  0  0  0
   13.5427  -13.7591   20.7657 O   0  0  0  0  0  0  0  0  0  0  0  0
   10.4488  -15.8405   21.3329 C   0  0  0  0  0  0  0  0  0  0  0  0
   11.4707  -16.7512   21.9815 C   0  0  1  0  0  0  0  0  0  0  0  0
   11.5906  -17.9359   21.2951 O   0  0  0  0  0  0  0  0  0  0  0  0
   12.8285  -16.0837   22.0045 C   0  0  2  0  0  0  0  0  0  0  0  0
   13.4148  -16.0238   20.6794 N   0  0  0  0  0  0  0  0  0  0  0  0
   13.7682  -16.7597   22.9121 C   0  0  0  0  0  0  0  0  0  0  0  0
   14.7328  -17.3967   22.4532 O   0  0  0  0  0  0  0  0  0  0  0  0
   13.5802  -16.6875   24.2741 O   0  0  0  0  0  0  0  0  0  0  0  0
  2  1  1  0
  3  2  1  0
  3  5  1  0
  3  4  1  6
  5  6  2  0
  5  7  1  0
  7  8  1  0
  8 15  1  0
  8  9  1  1
 10  9  1  0
 11 10  2  0
 12 11  1  0
 13 12  1  0
 13 14  2  0
 14 10  1  0
 15 16  2  0
 15 21  1  0
 18 17  1  6
 18 19  1  0
 20 22  1  0
 20 18  1  0
 20 21  1  6
 22 24  1  0
 23 22  2  0
M  END
$$$$
