RHH.pdb
     RDKit          3D

 32 33  0  0  1  0  0  0  0  0999 V2000
    8.3450  -15.3624   15.9454 N   0  0  0  0  0  0  0  0  0  0  0  0
    7.9674  -14.1138   15.4229 C   0  0  0  0  0  0  0  0  0  0  0  0
    8.1496  -13.8579   14.1812 N   0  0  0  0  0  0  0  0  0  0  0  0
    7.3941  -13.1398   16.2708 N   0  0  0  0  0  0  0  0  0  0  0  0
    7.1281  -13.4020   17.6384 C   0  0  0  0  0  0  0  0  0  0  0  0
    8.3530  -13.7052   18.4424 C   0  0  0  0  0  0  0  0  0  0  0  0
    8.1318  -14.0650   19.8727 C   0  0  0  0  0  0  0  0  0  0  0  0
    9.4478  -14.4199   20.5315 C   0  0  2  0  0  0  0  0  0  0  0  0
   10.1644  -15.3918   19.6842 N   0  0  0  0  0  0  0  0  0  0  0  0
    9.1918  -15.0237   21.8564 C   0  0  0  0  0  0  0  0  0  0  0  0
    8.6541  -14.4483   22.8298 O   0  0  0  0  0  0  0  0  0  0  0  0
    8.0249  -12.9168   13.7802 N   0  0  0  0  0  0  0  0  0  0  0  0
    9.5571  -16.3886   22.1521 C   0  0  1  0  0  0  0  0  0  0  0  0
    9.3696  -16.9798   23.4515 C   0  0  0  0  0  0  0  0  0  0  0  0
    9.4685  -18.4723   23.4348 C   0  0  0  0  0  0  0  0  0  0  0  0
    8.5322  -19.0829   22.4675 C   0  0  0  0  0  0  0  0  0  0  0  0
    7.5944  -18.4693   21.6758 N   0  0  0  0  0  0  0  0  0  0  0  0
    6.9603  -19.4039   20.9459 C   0  0  0  0  0  0  0  0  0  0  0  0
    7.4799  -20.5902   21.2626 N   0  0  0  0  0  0  0  0  0  0  0  0
    8.4506  -20.3921   22.2025 C   0  0  0  0  0  0  0  0  0  0  0  0
   10.2588  -16.3051   24.3876 O   0  0  0  0  0  0  0  0  0  0  0  0
   10.9141  -15.3007   24.0155 N   0  0  0  0  0  0  0  0  0  0  0  0
   10.4470  -16.7141   25.7417 C   0  0  1  0  0  0  0  0  0  0  0  0
    9.7623  -16.0879   26.8685 C   0  0  0  0  0  0  0  0  0  0  0  0
    8.2932  -16.0232   26.6542 C   0  0  0  0  0  0  0  0  0  0  0  0
    7.7649  -14.6325   26.6435 C   0  0  0  0  0  0  0  0  0  0  0  0
    8.5658  -13.4964   26.8379 N   0  0  0  0  0  0  0  0  0  0  0  0
    7.7696  -12.4459   26.7675 C   0  0  0  0  0  0  0  0  0  0  0  0
    6.5162  -12.8643   26.5399 N   0  0  0  0  0  0  0  0  0  0  0  0
    6.4975  -14.2029   26.4617 C   0  0  0  0  0  0  0  0  0  0  0  0
   10.1046  -16.9681   28.0455 O   0  0  0  0  0  0  0  0  0  0  0  0
    9.9779  -18.2129   28.0417 O   0  0  0  0  0  0  0  0  0  0  0  0
  2  3  2  0
  2  1  1  0
  4  2  1  0
  5  4  1  0
  6  5  1  0
  7  6  1  0
  8  7  1  0
  8  9  1  6
 10  8  1  0
 10 12  1  0
 11 10  2  0
 13 12  1  0
 13 14  1  1
 14 15  1  0
 15 16  2  0
 16 17  1  0
 18 17  1  0
 19 15  1  0
 19 18  2  0
 20 13  1  0
 21 20  2  0
 22 20  1  0
 23 22  1  0
 23 30  1  0
 23 24  1  1
 25 24  1  0
 26 25  2  0
 27 26  1  0
 28 27  1  0
 28 29  2  0
 29 25  1  0
 30 32  1  0
 31 30  2  0
M  END
$$$$
