RHH.pdb
     RDKit          3D

 32 33  0  0  1  0  0  0  0  0999 V2000
    9.1676  -16.5317   11.3043 N   0  0  0  0  0  0  0  0  0  0  0  0
   10.4987  -16.9559   11.1537 C   0  0  0  0  0  0  0  0  0  0  0  0
   10.9030  -17.4076   10.0254 N   0  0  0  0  0  0  0  0  0  0  0  0
   11.3871  -16.8900   12.2505 N   0  0  0  0  0  0  0  0  0  0  0  0
   11.0163  -16.2857   13.4780 C   0  0  0  0  0  0  0  0  0  0  0  0
   10.5549  -17.2616   14.5141 C   0  0  0  0  0  0  0  0  0  0  0  0
   11.5978  -17.7750   15.4485 C   0  0  0  0  0  0  0  0  0  0  0  0
   11.5699  -16.9916   16.7436 C   0  0  2  0  0  0  0  0  0  0  0  0
   10.7610  -15.7728   16.5525 N   0  0  0  0  0  0  0  0  0  0  0  0
   12.9471  -16.6085   17.1208 C   0  0  0  0  0  0  0  0  0  0  0  0
   13.9145  -17.3931   17.2484 O   0  0  0  0  0  0  0  0  0  0  0  0
   11.8695  -17.7271    9.8651 N   0  0  0  0  0  0  0  0  0  0  0  0
   13.3078  -15.2361   17.3857 C   0  0  1  0  0  0  0  0  0  0  0  0
   14.6453  -14.8381   17.7405 C   0  0  0  0  0  0  0  0  0  0  0  0
   15.0978  -13.6046   17.0253 C   0  0  0  0  0  0  0  0  0  0  0  0
   16.5475  -13.3656   17.1876 C   0  0  0  0  0  0  0  0  0  0  0  0
   17.2032  -12.7252   18.2087 N   0  0  0  0  0  0  0  0  0  0  0  0
   18.5234  -12.7338   17.9530 C   0  0  0  0  0  0  0  0  0  0  0  0
   18.7099  -13.3655   16.7938 N   0  0  0  0  0  0  0  0  0  0  0  0
   17.4897  -13.7556   16.3208 C   0  0  0  0  0  0  0  0  0  0  0  0
   14.7303  -14.7843   19.1939 O   0  0  0  0  0  0  0  0  0  0  0  0
   13.6869  -14.6373   19.8769 N   0  0  0  0  0  0  0  0  0  0  0  0
   15.9518  -14.8900   19.9238 C   0  0  1  0  0  0  0  0  0  0  0  0
   16.2082  -15.9392   20.9057 C   0  0  0  0  0  0  0  0  0  0  0  0
   16.0601  -17.2949   20.3156 C   0  0  0  0  0  0  0  0  0  0  0  0
   14.9625  -18.0853   20.9351 C   0  0  0  0  0  0  0  0  0  0  0  0
   14.0872  -17.5711   21.9044 N   0  0  0  0  0  0  0  0  0  0  0  0
   13.2531  -18.5423   22.2258 C   0  0  0  0  0  0  0  0  0  0  0  0
   13.5598  -19.6340   21.5102 N   0  0  0  0  0  0  0  0  0  0  0  0
   14.6062  -19.3692   20.7144 C   0  0  0  0  0  0  0  0  0  0  0  0
   17.6280  -15.6897   21.3523 O   0  0  0  0  0  0  0  0  0  0  0  0
   18.5485  -15.3436   20.5787 O   0  0  0  0  0  0  0  0  0  0  0  0
  2  3  2  0
  2  1  1  0
  4  2  1  0
  5  4  1  0
  6  5  1  0
  7  6  1  0
  8  7  1  0
  8  9  1  6
 10  8  1  0
 10 12  1  0
 11 10  2  0
 13 12  1  0
 13 14  1  1
 14 15  1  0
 15 16  2  0
 16 17  1  0
 18 17  1  0
 19 15  1  0
 19 18  2  0
 20 13  1  0
 21 20  2  0
 22 20  1  0
 23 22  1  0
 23 30  1  0
 23 24  1  1
 25 24  1  0
 26 25  2  0
 27 26  1  0
 28 27  1  0
 28 29  2  0
 29 25  1  0
 30 32  1  0
 31 30  2  0
M  END
$$$$
