RHH.pdb
     RDKit          3D

 32 33  0  0  1  0  0  0  0  0999 V2000
   14.0341  -20.0519   15.7887 N   0  0  0  0  0  0  0  0  0  0  0  0
   15.1919  -20.0769   16.5846 C   0  0  0  0  0  0  0  0  0  0  0  0
   16.3479  -20.0345   16.0347 N   0  0  0  0  0  0  0  0  0  0  0  0
   15.0782  -20.1564   17.9908 N   0  0  0  0  0  0  0  0  0  0  0  0
   13.8214  -20.2881   18.6332 C   0  0  0  0  0  0  0  0  0  0  0  0
   13.0365  -19.0154   18.6867 C   0  0  0  0  0  0  0  0  0  0  0  0
   12.7780  -18.4556   20.0447 C   0  0  0  0  0  0  0  0  0  0  0  0
   11.3255  -18.0489   20.1740 C   0  0  2  0  0  0  0  0  0  0  0  0
   10.7774  -17.7846   18.8302 N   0  0  0  0  0  0  0  0  0  0  0  0
   11.2256  -16.8211   20.9915 C   0  0  0  0  0  0  0  0  0  0  0  0
   12.1004  -15.9299   21.0807 O   0  0  0  0  0  0  0  0  0  0  0  0
   17.2251  -20.0930   16.5723 N   0  0  0  0  0  0  0  0  0  0  0  0
   10.0586  -16.5346   21.7914 C   0  0  1  0  0  0  0  0  0  0  0  0
    9.9207  -15.3250   22.5602 C   0  0  0  0  0  0  0  0  0  0  0  0
    8.5586  -14.7159   22.4531 C   0  0  0  0  0  0  0  0  0  0  0  0
    8.2409  -14.2992   21.0709 C   0  0  0  0  0  0  0  0  0  0  0  0
    8.4317  -13.0769   20.4772 N   0  0  0  0  0  0  0  0  0  0  0  0
    7.9997  -13.1372   19.2051 C   0  0  0  0  0  0  0  0  0  0  0  0
    7.5420  -14.3706   18.9881 N   0  0  0  0  0  0  0  0  0  0  0  0
    7.6908  -15.0883   20.1404 C   0  0  0  0  0  0  0  0  0  0  0  0
   10.3788  -15.5966   23.9162 O   0  0  0  0  0  0  0  0  0  0  0  0
   11.2520  -16.4762   24.1176 N   0  0  0  0  0  0  0  0  0  0  0  0
    9.8929  -14.9146   25.0716 C   0  0  2  0  0  0  0  0  0  0  0  0
    8.9824  -15.5243   26.0360 C   0  0  0  0  0  0  0  0  0  0  0  0
    7.5608  -15.3429   25.6431 C   0  0  0  0  0  0  0  0  0  0  0  0
    7.0749  -13.9497   25.8339 C   0  0  0  0  0  0  0  0  0  0  0  0
    7.8604  -12.9214   26.3777 N   0  0  0  0  0  0  0  0  0  0  0  0
    7.1119  -11.8343   26.4000 C   0  0  0  0  0  0  0  0  0  0  0  0
    5.9029  -12.1280   25.9000 N   0  0  0  0  0  0  0  0  0  0  0  0
    5.8650  -13.4217   25.5488 C   0  0  0  0  0  0  0  0  0  0  0  0
    9.3670  -16.9835   26.0372 O   0  0  0  0  0  0  0  0  0  0  0  0
    9.0019  -17.7986   25.1608 O   0  0  0  0  0  0  0  0  0  0  0  0
  2  3  2  0
  2  1  1  0
  4  2  1  0
  5  4  1  0
  6  5  1  0
  7  6  1  0
  8  7  1  0
  8  9  1  6
 10  8  1  0
 10 12  1  0
 11 10  2  0
 13 12  1  0
 13 14  1  1
 14 15  1  0
 15 16  2  0
 16 17  1  0
 18 17  1  0
 19 15  1  0
 19 18  2  0
 20 13  1  0
 21 20  2  0
 22 20  1  0
 23 22  1  0
 23 30  1  0
 23 24  1  6
 25 24  1  0
 26 25  2  0
 27 26  1  0
 28 27  1  0
 28 29  2  0
 29 25  1  0
 30 32  1  0
 31 30  2  0
M  END
$$$$
