RHH.pdb
     RDKit          3D

 32 33  0  0  1  0  0  0  0  0999 V2000
    6.6359  -20.6353   15.9087 N   0  0  0  0  0  0  0  0  0  0  0  0
    6.9041  -21.7645   15.1165 C   0  0  0  0  0  0  0  0  0  0  0  0
    6.0369  -22.7025   15.0244 N   0  0  0  0  0  0  0  0  0  0  0  0
    8.1341  -21.8660   14.4286 N   0  0  0  0  0  0  0  0  0  0  0  0
    9.3442  -22.1708   15.1013 C   0  0  0  0  0  0  0  0  0  0  0  0
    9.6216  -21.2828   16.2731 C   0  0  0  0  0  0  0  0  0  0  0  0
   10.8623  -21.5780   17.0464 C   0  0  0  0  0  0  0  0  0  0  0  0
   11.9257  -22.1457   16.1305 C   0  0  2  0  0  0  0  0  0  0  0  0
   11.6472  -23.5752   15.8963 N   0  0  0  0  0  0  0  0  0  0  0  0
   13.2532  -22.0053   16.7659 C   0  0  0  0  0  0  0  0  0  0  0  0
   13.8427  -22.8888   17.4289 O   0  0  0  0  0  0  0  0  0  0  0  0
    6.1506  -23.5089   14.3929 N   0  0  0  0  0  0  0  0  0  0  0  0
   14.0148  -20.7827   16.6711 C   0  0  1  0  0  0  0  0  0  0  0  0
   15.3331  -20.6422   17.2329 C   0  0  0  0  0  0  0  0  0  0  0  0
   16.2072  -19.7152   16.4490 C   0  0  0  0  0  0  0  0  0  0  0  0
   16.7421  -20.3524   15.2272 C   0  0  0  0  0  0  0  0  0  0  0  0
   16.1524  -20.4756   13.9944 N   0  0  0  0  0  0  0  0  0  0  0  0
   16.9933  -21.1264   13.1711 C   0  0  0  0  0  0  0  0  0  0  0  0
   18.0975  -21.4141   13.8608 N   0  0  0  0  0  0  0  0  0  0  0  0
   17.9424  -20.9363   15.1307 C   0  0  0  0  0  0  0  0  0  0  0  0
   15.1900  -20.3202   18.6464 O   0  0  0  0  0  0  0  0  0  0  0  0
   14.3622  -19.4485   19.0093 N   0  0  0  0  0  0  0  0  0  0  0  0
   15.9458  -20.9426   19.6845 C   0  0  1  0  0  0  0  0  0  0  0  0
   15.6787  -20.7322   21.1040 C   0  0  0  0  0  0  0  0  0  0  0  0
   15.6064  -22.0167   21.8479 C   0  0  0  0  0  0  0  0  0  0  0  0
   14.3033  -22.7151   21.6828 C   0  0  0  0  0  0  0  0  0  0  0  0
   13.0750  -22.0473   21.5586 N   0  0  0  0  0  0  0  0  0  0  0  0
   12.1428  -22.9734   21.4336 C   0  0  0  0  0  0  0  0  0  0  0  0
   12.7220  -24.1821   21.4731 N   0  0  0  0  0  0  0  0  0  0  0  0
   14.0467  -24.0398   21.6258 C   0  0  0  0  0  0  0  0  0  0  0  0
   16.8380  -19.8906   21.5784 O   0  0  0  0  0  0  0  0  0  0  0  0
   17.0201  -19.5702   22.7741 O   0  0  0  0  0  0  0  0  0  0  0  0
  2  3  2  0
  2  1  1  0
  4  2  1  0
  5  4  1  0
  6  5  1  0
  7  6  1  0
  8  7  1  0
  8  9  1  1
 10  8  1  0
 10 12  1  0
 11 10  2  0
 13 12  1  0
 13 14  1  1
 14 15  1  0
 15 16  2  0
 16 17  1  0
 18 17  1  0
 19 15  1  0
 19 18  2  0
 20 13  1  0
 21 20  2  0
 22 20  1  0
 23 22  1  0
 23 30  1  0
 23 24  1  1
 25 24  1  0
 26 25  2  0
 27 26  1  0
 28 27  1  0
 28 29  2  0
 29 25  1  0
 30 32  1  0
 31 30  2  0
M  END
$$$$
