RHH.pdb
     RDKit          3D

 32 33  0  0  1  0  0  0  0  0999 V2000
   15.2040  -13.9678   16.6979 N   0  0  0  0  0  0  0  0  0  0  0  0
   16.1905  -13.5161   17.5908 C   0  0  0  0  0  0  0  0  0  0  0  0
   16.9251  -12.5141   17.2799 N   0  0  0  0  0  0  0  0  0  0  0  0
   16.3750  -14.1738   18.8277 N   0  0  0  0  0  0  0  0  0  0  0  0
   15.5970  -15.2988   19.2000 C   0  0  0  0  0  0  0  0  0  0  0  0
   14.2985  -14.9431   19.8529 C   0  0  0  0  0  0  0  0  0  0  0  0
   13.4881  -16.0813   20.3747 C   0  0  0  0  0  0  0  0  0  0  0  0
   12.0654  -15.9856   19.8663 C   0  0  2  0  0  0  0  0  0  0  0  0
   12.0257  -15.0638   18.7152 N   0  0  0  0  0  0  0  0  0  0  0  0
   11.1902  -15.4651   20.9381 C   0  0  0  0  0  0  0  0  0  0  0  0
   11.3269  -14.3671   21.5241 O   0  0  0  0  0  0  0  0  0  0  0  0
   17.5540  -12.0518   17.9528 N   0  0  0  0  0  0  0  0  0  0  0  0
   10.0539  -16.2133   21.4207 C   0  0  1  0  0  0  0  0  0  0  0  0
    9.1432  -15.6939   22.4076 C   0  0  0  0  0  0  0  0  0  0  0  0
    7.7607  -15.4856   21.8757 C   0  0  0  0  0  0  0  0  0  0  0  0
    7.7275  -14.4915   20.7821 C   0  0  0  0  0  0  0  0  0  0  0  0
    7.4893  -14.6926   19.4458 N   0  0  0  0  0  0  0  0  0  0  0  0
    7.5543  -13.5105   18.8080 C   0  0  0  0  0  0  0  0  0  0  0  0
    7.8282  -12.5725   19.7151 N   0  0  0  0  0  0  0  0  0  0  0  0
    7.9354  -13.1783   20.9343 C   0  0  0  0  0  0  0  0  0  0  0  0
    9.2360  -16.5335   23.5945 O   0  0  0  0  0  0  0  0  0  0  0  0
    9.8081  -17.6494   23.5288 N   0  0  0  0  0  0  0  0  0  0  0  0
    8.7075  -16.1702   24.8693 C   0  0  1  0  0  0  0  0  0  0  0  0
    8.8643  -16.9941   26.0640 C   0  0  0  0  0  0  0  0  0  0  0  0
    8.4090  -16.2838   27.2873 C   0  0  0  0  0  0  0  0  0  0  0  0
    9.2980  -15.1550   27.6728 C   0  0  0  0  0  0  0  0  0  0  0  0
   10.6910  -15.1708   27.5018 N   0  0  0  0  0  0  0  0  0  0  0  0
   11.1485  -14.0175   27.9522 C   0  0  0  0  0  0  0  0  0  0  0  0
   10.1175  -13.2831   28.3947 N   0  0  0  0  0  0  0  0  0  0  0  0
    8.9761  -13.9677   28.2301 C   0  0  0  0  0  0  0  0  0  0  0  0
    8.0137  -18.2101   25.7896 O   0  0  0  0  0  0  0  0  0  0  0  0
    7.0585  -18.2213   24.9816 O   0  0  0  0  0  0  0  0  0  0  0  0
  2  3  2  0
  2  1  1  0
  4  2  1  0
  5  4  1  0
  6  5  1  0
  7  6  1  0
  8  7  1  0
  8  9  1  6
 10  8  1  0
 10 12  1  0
 11 10  2  0
 13 12  1  0
 13 14  1  1
 14 15  1  0
 15 16  2  0
 16 17  1  0
 18 17  1  0
 19 15  1  0
 19 18  2  0
 20 13  1  0
 21 20  2  0
 22 20  1  0
 23 22  1  0
 23 30  1  0
 23 24  1  1
 25 24  1  0
 26 25  2  0
 27 26  1  0
 28 27  1  0
 28 29  2  0
 29 25  1  0
 30 32  1  0
 31 30  2  0
M  END
$$$$
