RHH.pdb
     RDKit          3D

 32 33  0  0  1  0  0  0  0  0999 V2000
    8.8458  -15.1430   14.5266 N   0  0  0  0  0  0  0  0  0  0  0  0
    8.1329  -13.9514   14.7419 C   0  0  0  0  0  0  0  0  0  0  0  0
    7.5893  -13.3432   13.7545 N   0  0  0  0  0  0  0  0  0  0  0  0
    8.0236  -13.4223   16.0475 N   0  0  0  0  0  0  0  0  0  0  0  0
    8.5529  -14.0988   17.1753 C   0  0  0  0  0  0  0  0  0  0  0  0
    7.7838  -15.3239   17.5580 C   0  0  0  0  0  0  0  0  0  0  0  0
    8.2684  -16.0586   18.7621 C   0  0  0  0  0  0  0  0  0  0  0  0
    7.4179  -17.2880   19.0010 C   0  0  2  0  0  0  0  0  0  0  0  0
    6.2449  -17.2438   18.1077 N   0  0  0  0  0  0  0  0  0  0  0  0
    6.9599  -17.3081   20.4065 C   0  0  0  0  0  0  0  0  0  0  0  0
    6.2722  -16.4222   20.9634 O   0  0  0  0  0  0  0  0  0  0  0  0
    6.9598  -12.5359   13.8731 N   0  0  0  0  0  0  0  0  0  0  0  0
    7.2821  -18.3996   21.2945 C   0  0  1  0  0  0  0  0  0  0  0  0
    7.0631  -18.3362   22.7162 C   0  0  0  0  0  0  0  0  0  0  0  0
    6.0198  -19.2975   23.1908 C   0  0  0  0  0  0  0  0  0  0  0  0
    4.7223  -19.0923   22.5129 C   0  0  0  0  0  0  0  0  0  0  0  0
    4.3799  -18.1430   21.5832 N   0  0  0  0  0  0  0  0  0  0  0  0
    3.0941  -18.3204   21.2313 C   0  0  0  0  0  0  0  0  0  0  0  0
    2.6228  -19.3601   21.9201 N   0  0  0  0  0  0  0  0  0  0  0  0
    3.6282  -19.8368   22.7118 C   0  0  0  0  0  0  0  0  0  0  0  0
    8.3567  -18.4411   23.3779 O   0  0  0  0  0  0  0  0  0  0  0  0
    9.0917  -19.4360   23.1616 N   0  0  0  0  0  0  0  0  0  0  0  0
    8.8682  -17.4646   24.2841 C   0  0  1  0  0  0  0  0  0  0  0  0
   10.1715  -17.5797   24.9312 C   0  0  0  0  0  0  0  0  0  0  0  0
   10.9935  -16.3571   24.7370 C   0  0  0  0  0  0  0  0  0  0  0  0
   11.2968  -16.0777   23.3076 C   0  0  0  0  0  0  0  0  0  0  0  0
   10.8789  -16.9007   22.2502 N   0  0  0  0  0  0  0  0  0  0  0  0
   11.3249  -16.3531   21.1350 C   0  0  0  0  0  0  0  0  0  0  0  0
   11.9979  -15.2338   21.4386 N   0  0  0  0  0  0  0  0  0  0  0  0
   11.9895  -15.0519   22.7673 C   0  0  0  0  0  0  0  0  0  0  0  0
    9.8438  -17.7919   26.3890 O   0  0  0  0  0  0  0  0  0  0  0  0
    8.6876  -17.7088   26.8599 O   0  0  0  0  0  0  0  0  0  0  0  0
  2  3  2  0
  2  1  1  0
  4  2  1  0
  5  4  1  0
  6  5  1  0
  7  6  1  0
  8  7  1  0
  8  9  1  6
 10  8  1  0
 10 12  1  0
 11 10  2  0
 13 12  1  0
 13 14  1  1
 14 15  1  0
 15 16  2  0
 16 17  1  0
 18 17  1  0
 19 15  1  0
 19 18  2  0
 20 13  1  0
 21 20  2  0
 22 20  1  0
 23 22  1  0
 23 30  1  0
 23 24  1  1
 25 24  1  0
 26 25  2  0
 27 26  1  0
 28 27  1  0
 28 29  2  0
 29 25  1  0
 30 32  1  0
 31 30  2  0
M  END
$$$$
