RHH.pdb
     RDKit          3D

 32 33  0  0  1  0  0  0  0  0999 V2000
    7.5358  -13.7173   19.6278 N   0  0  0  0  0  0  0  0  0  0  0  0
    8.5988  -13.2261   18.8511 C   0  0  0  0  0  0  0  0  0  0  0  0
    8.7979  -11.9639   18.7636 N   0  0  0  0  0  0  0  0  0  0  0  0
    9.4419  -14.1263   18.1617 N   0  0  0  0  0  0  0  0  0  0  0  0
    9.7543  -15.4070   18.6831 C   0  0  0  0  0  0  0  0  0  0  0  0
    8.5952  -16.3532   18.6899 C   0  0  0  0  0  0  0  0  0  0  0  0
    8.7283  -17.5543   19.5639 C   0  0  0  0  0  0  0  0  0  0  0  0
    7.5954  -17.5983   20.5670 C   0  0  2  0  0  0  0  0  0  0  0  0
    6.4276  -16.8924   20.0067 N   0  0  0  0  0  0  0  0  0  0  0  0
    8.0148  -16.9306   21.8176 C   0  0  0  0  0  0  0  0  0  0  0  0
    8.2788  -15.7131   21.9426 O   0  0  0  0  0  0  0  0  0  0  0  0
    9.5737  -11.5566   18.2211 N   0  0  0  0  0  0  0  0  0  0  0  0
    8.1619  -17.6595   23.0549 C   0  0  1  0  0  0  0  0  0  0  0  0
    8.6257  -17.0427   24.2705 C   0  0  0  0  0  0  0  0  0  0  0  0
    7.5127  -16.5225   25.1240 C   0  0  0  0  0  0  0  0  0  0  0  0
    7.3855  -15.0522   25.0399 C   0  0  0  0  0  0  0  0  0  0  0  0
    6.3986  -14.2453   25.5477 N   0  0  0  0  0  0  0  0  0  0  0  0
    6.6779  -12.9667   25.2386 C   0  0  0  0  0  0  0  0  0  0  0  0
    7.8184  -12.9541   24.5481 N   0  0  0  0  0  0  0  0  0  0  0  0
    8.2554  -14.2421   24.4251 C   0  0  0  0  0  0  0  0  0  0  0  0
    9.5369  -17.9694   24.9285 O   0  0  0  0  0  0  0  0  0  0  0  0
    9.1751  -19.1510   25.1514 N   0  0  0  0  0  0  0  0  0  0  0  0
   10.8546  -17.6231   25.3528 C   0  0  2  0  0  0  0  0  0  0  0  0
   11.1297  -16.8721   26.5739 C   0  0  0  0  0  0  0  0  0  0  0  0
   10.2494  -15.6815   26.6992 C   0  0  0  0  0  0  0  0  0  0  0  0
   10.4013  -14.9767   28.0006 C   0  0  0  0  0  0  0  0  0  0  0  0
   11.1922  -15.4573   29.0558 N   0  0  0  0  0  0  0  0  0  0  0  0
   11.0899  -14.5866   30.0427 C   0  0  0  0  0  0  0  0  0  0  0  0
   10.2787  -13.5894   29.6610 N   0  0  0  0  0  0  0  0  0  0  0  0
    9.8484  -13.8149   28.4110 C   0  0  0  0  0  0  0  0  0  0  0  0
   10.8715  -17.8618   27.6835 O   0  0  0  0  0  0  0  0  0  0  0  0
    9.8471  -18.5769   27.7516 O   0  0  0  0  0  0  0  0  0  0  0  0
  2  3  2  0
  2  1  1  0
  4  2  1  0
  5  4  1  0
  6  5  1  0
  7  6  1  0
  8  7  1  0
  8  9  1  6
 10  8  1  0
 10 12  1  0
 11 10  2  0
 13 12  1  0
 13 14  1  1
 14 15  1  0
 15 16  2  0
 16 17  1  0
 18 17  1  0
 19 15  1  0
 19 18  2  0
 20 13  1  0
 21 20  2  0
 22 20  1  0
 23 22  1  0
 23 30  1  0
 23 24  1  6
 25 24  1  0
 26 25  2  0
 27 26  1  0
 28 27  1  0
 28 29  2  0
 29 25  1  0
 30 32  1  0
 31 30  2  0
M  END
$$$$
