RHH.pdb
     RDKit          3D

 32 33  0  0  1  0  0  0  0  0999 V2000
   16.4090  -20.0069   11.0334 N   0  0  0  0  0  0  0  0  0  0  0  0
   16.2419  -18.8266   11.7774 C   0  0  0  0  0  0  0  0  0  0  0  0
   16.4829  -17.6902   11.2380 N   0  0  0  0  0  0  0  0  0  0  0  0
   15.8153  -18.8966   13.1227 N   0  0  0  0  0  0  0  0  0  0  0  0
   15.4925  -20.1305   13.7416 C   0  0  0  0  0  0  0  0  0  0  0  0
   14.8861  -19.9813   15.1013 C   0  0  0  0  0  0  0  0  0  0  0  0
   15.8340  -19.9984   16.2526 C   0  0  0  0  0  0  0  0  0  0  0  0
   15.4790  -21.1206   17.2047 C   0  0  2  0  0  0  0  0  0  0  0  0
   15.1269  -22.3218   16.4241 N   0  0  0  0  0  0  0  0  0  0  0  0
   14.3213  -20.7204   18.0325 C   0  0  0  0  0  0  0  0  0  0  0  0
   14.2575  -19.6992   18.7540 O   0  0  0  0  0  0  0  0  0  0  0  0
   16.4372  -16.8027   11.7599 N   0  0  0  0  0  0  0  0  0  0  0  0
   13.1134  -21.5094   18.0805 C   0  0  1  0  0  0  0  0  0  0  0  0
   11.9439  -21.0973   18.8123 C   0  0  0  0  0  0  0  0  0  0  0  0
   10.6674  -21.5549   18.1808 C   0  0  0  0  0  0  0  0  0  0  0  0
    9.4825  -20.9144   18.7899 C   0  0  0  0  0  0  0  0  0  0  0  0
    9.1232  -19.5901   18.7824 N   0  0  0  0  0  0  0  0  0  0  0  0
    7.9692  -19.4469   19.4579 C   0  0  0  0  0  0  0  0  0  0  0  0
    7.5971  -20.6525   19.8889 N   0  0  0  0  0  0  0  0  0  0  0  0
    8.5317  -21.5588   19.4767 C   0  0  0  0  0  0  0  0  0  0  0  0
   12.1242  -21.4811   20.2060 O   0  0  0  0  0  0  0  0  0  0  0  0
   12.6861  -22.5680   20.4883 N   0  0  0  0  0  0  0  0  0  0  0  0
   11.6956  -20.6873   21.3116 C   0  0  1  0  0  0  0  0  0  0  0  0
   11.9010  -21.0774   22.7031 C   0  0  0  0  0  0  0  0  0  0  0  0
   12.6742  -20.0545   23.4542 C   0  0  0  0  0  0  0  0  0  0  0  0
   13.9227  -20.5926   24.0583 C   0  0  0  0  0  0  0  0  0  0  0  0
   14.2856  -21.9477   24.0125 N   0  0  0  0  0  0  0  0  0  0  0  0
   15.4387  -22.0602   24.6450 C   0  0  0  0  0  0  0  0  0  0  0  0
   15.8150  -20.8499   25.0827 N   0  0  0  0  0  0  0  0  0  0  0  0
   14.8952  -19.9398   24.7306 C   0  0  0  0  0  0  0  0  0  0  0  0
   10.5048  -21.2227   23.2571 O   0  0  0  0  0  0  0  0  0  0  0  0
    9.5265  -20.5519   22.8588 O   0  0  0  0  0  0  0  0  0  0  0  0
  2  3  2  0
  2  1  1  0
  4  2  1  0
  5  4  1  0
  6  5  1  0
  7  6  1  0
  8  7  1  0
  8  9  1  6
 10  8  1  0
 10 12  1  0
 11 10  2  0
 13 12  1  0
 13 14  1  1
 14 15  1  0
 15 16  2  0
 16 17  1  0
 18 17  1  0
 19 15  1  0
 19 18  2  0
 20 13  1  0
 21 20  2  0
 22 20  1  0
 23 22  1  0
 23 30  1  0
 23 24  1  1
 25 24  1  0
 26 25  2  0
 27 26  1  0
 28 27  1  0
 28 29  2  0
 29 25  1  0
 30 32  1  0
 31 30  2  0
M  END
$$$$
