RHH.pdb
     RDKit          3D

 32 33  0  0  1  0  0  0  0  0999 V2000
    8.9889  -14.8585   15.6776 N   0  0  0  0  0  0  0  0  0  0  0  0
    8.0838  -13.8390   15.3373 C   0  0  0  0  0  0  0  0  0  0  0  0
    7.6413  -13.7495   14.1387 N   0  0  0  0  0  0  0  0  0  0  0  0
    7.6694  -12.9092   16.3173 N   0  0  0  0  0  0  0  0  0  0  0  0
    8.1911  -12.9293   17.6353 C   0  0  0  0  0  0  0  0  0  0  0  0
    7.7429  -14.1070   18.4421 C   0  0  0  0  0  0  0  0  0  0  0  0
    8.1975  -14.1462   19.8620 C   0  0  0  0  0  0  0  0  0  0  0  0
    8.8390  -15.4828   20.1682 C   0  0  2  0  0  0  0  0  0  0  0  0
    8.5822  -16.4086   19.0487 N   0  0  0  0  0  0  0  0  0  0  0  0
    8.2546  -16.0409   21.4062 C   0  0  0  0  0  0  0  0  0  0  0  0
    7.3104  -15.5403   22.0584 O   0  0  0  0  0  0  0  0  0  0  0  0
    6.8860  -13.1026   13.8685 N   0  0  0  0  0  0  0  0  0  0  0  0
    8.7463  -17.2647   21.9932 C   0  0  1  0  0  0  0  0  0  0  0  0
    8.3618  -17.7053   23.3090 C   0  0  0  0  0  0  0  0  0  0  0  0
    7.7929  -19.0888   23.3195 C   0  0  0  0  0  0  0  0  0  0  0  0
    7.5053  -19.5634   24.6895 C   0  0  0  0  0  0  0  0  0  0  0  0
    8.0804  -20.6027   25.3767 N   0  0  0  0  0  0  0  0  0  0  0  0
    7.5182  -20.6843   26.5956 C   0  0  0  0  0  0  0  0  0  0  0  0
    6.6030  -19.7191   26.6878 N   0  0  0  0  0  0  0  0  0  0  0  0
    6.5948  -19.0269   25.5106 C   0  0  0  0  0  0  0  0  0  0  0  0
    9.4884  -17.4861   24.2062 O   0  0  0  0  0  0  0  0  0  0  0  0
   10.5049  -16.8731   23.7966 N   0  0  0  0  0  0  0  0  0  0  0  0
    9.5242  -17.9310   25.5616 C   0  0  1  0  0  0  0  0  0  0  0  0
   10.0175  -17.1069   26.6607 C   0  0  0  0  0  0  0  0  0  0  0  0
    9.1998  -15.8789   26.8393 C   0  0  0  0  0  0  0  0  0  0  0  0
    9.6052  -15.0738   28.0228 C   0  0  0  0  0  0  0  0  0  0  0  0
   10.6303  -15.4513   28.9041 N   0  0  0  0  0  0  0  0  0  0  0  0
   10.7111  -14.5116   29.8276 C   0  0  0  0  0  0  0  0  0  0  0  0
    9.7929  -13.5688   29.5708 N   0  0  0  0  0  0  0  0  0  0  0  0
    9.1067  -13.8999   28.4672 C   0  0  0  0  0  0  0  0  0  0  0  0
    9.9239  -18.0062   27.8690 O   0  0  0  0  0  0  0  0  0  0  0  0
    9.1306  -18.9697   27.9576 O   0  0  0  0  0  0  0  0  0  0  0  0
  2  3  2  0
  2  1  1  0
  4  2  1  0
  5  4  1  0
  6  5  1  0
  7  6  1  0
  8  7  1  0
  8  9  1  6
 10  8  1  0
 10 12  1  0
 11 10  2  0
 13 12  1  0
 13 14  1  1
 14 15  1  0
 15 16  2  0
 16 17  1  0
 18 17  1  0
 19 15  1  0
 19 18  2  0
 20 13  1  0
 21 20  2  0
 22 20  1  0
 23 22  1  0
 23 30  1  0
 23 24  1  1
 25 24  1  0
 26 25  2  0
 27 26  1  0
 28 27  1  0
 28 29  2  0
 29 25  1  0
 30 32  1  0
 31 30  2  0
M  END
$$$$
