RHH.pdb
     RDKit          3D

 32 33  0  0  1  0  0  0  0  0999 V2000
   17.1329  -12.8399   16.8141 N   0  0  0  0  0  0  0  0  0  0  0  0
   17.3543  -13.5371   18.0139 C   0  0  0  0  0  0  0  0  0  0  0  0
   18.3996  -14.2652   18.1478 N   0  0  0  0  0  0  0  0  0  0  0  0
   16.4186  -13.4394   19.0682 N   0  0  0  0  0  0  0  0  0  0  0  0
   15.0880  -13.9094   18.9331 C   0  0  0  0  0  0  0  0  0  0  0  0
   14.9842  -15.3975   18.8174 C   0  0  0  0  0  0  0  0  0  0  0  0
   13.9498  -16.0554   19.6668 C   0  0  0  0  0  0  0  0  0  0  0  0
   12.5676  -15.7790   19.1144 C   0  0  2  0  0  0  0  0  0  0  0  0
   12.6789  -14.8330   17.9880 N   0  0  0  0  0  0  0  0  0  0  0  0
   11.7221  -15.1825   20.1704 C   0  0  0  0  0  0  0  0  0  0  0  0
   11.9033  -14.0661   20.7074 O   0  0  0  0  0  0  0  0  0  0  0  0
   18.6021  -14.8002   19.0050 N   0  0  0  0  0  0  0  0  0  0  0  0
   10.5652  -15.8685   20.6944 C   0  0  1  0  0  0  0  0  0  0  0  0
    9.6494  -15.2535   21.6198 C   0  0  0  0  0  0  0  0  0  0  0  0
    8.2151  -15.4702   21.2545 C   0  0  0  0  0  0  0  0  0  0  0  0
    7.8457  -14.7716   20.0053 C   0  0  0  0  0  0  0  0  0  0  0  0
    7.4849  -15.3090   18.7954 N   0  0  0  0  0  0  0  0  0  0  0  0
    7.2313  -14.3097   17.9320 C   0  0  0  0  0  0  0  0  0  0  0  0
    7.4253  -13.1574   18.5740 N   0  0  0  0  0  0  0  0  0  0  0  0
    7.8050  -13.4425   19.8544 C   0  0  0  0  0  0  0  0  0  0  0  0
   10.0208  -15.6680   22.9661 O   0  0  0  0  0  0  0  0  0  0  0  0
   10.6453  -16.7434   23.1401 N   0  0  0  0  0  0  0  0  0  0  0  0
    9.7177  -14.9178   24.1415 C   0  0  1  0  0  0  0  0  0  0  0  0
   10.0546  -15.3703   25.4877 C   0  0  0  0  0  0  0  0  0  0  0  0
    9.8135  -14.3113   26.5020 C   0  0  0  0  0  0  0  0  0  0  0  0
   10.0951  -14.7588   27.8925 C   0  0  0  0  0  0  0  0  0  0  0  0
   10.7231  -15.9747   28.2045 N   0  0  0  0  0  0  0  0  0  0  0  0
   10.8051  -16.0407   29.5203 C   0  0  0  0  0  0  0  0  0  0  0  0
   10.2629  -14.9328   30.0462 N   0  0  0  0  0  0  0  0  0  0  0  0
    9.8229  -14.1373   29.0602 C   0  0  0  0  0  0  0  0  0  0  0  0
    9.1541  -16.5598   25.7150 O   0  0  0  0  0  0  0  0  0  0  0  0
    9.4148  -17.4850   26.5160 O   0  0  0  0  0  0  0  0  0  0  0  0
  2  3  2  0
  2  1  1  0
  4  2  1  0
  5  4  1  0
  6  5  1  0
  7  6  1  0
  8  7  1  0
  8  9  1  6
 10  8  1  0
 10 12  1  0
 11 10  2  0
 13 12  1  0
 13 14  1  1
 14 15  1  0
 15 16  2  0
 16 17  1  0
 18 17  1  0
 19 15  1  0
 19 18  2  0
 20 13  1  0
 21 20  2  0
 22 20  1  0
 23 22  1  0
 23 30  1  0
 23 24  1  1
 25 24  1  0
 26 25  2  0
 27 26  1  0
 28 27  1  0
 28 29  2  0
 29 25  1  0
 30 32  1  0
 31 30  2  0
M  END
$$$$
