RHH.pdb
     RDKit          3D

 32 33  0  0  1  0  0  0  0  0999 V2000
   10.2254  -16.5568   13.5578 N   0  0  0  0  0  0  0  0  0  0  0  0
    8.8614  -16.2687   13.3819 C   0  0  0  0  0  0  0  0  0  0  0  0
    8.2187  -16.7868   12.4026 N   0  0  0  0  0  0  0  0  0  0  0  0
    8.2031  -15.4012   14.2822 N   0  0  0  0  0  0  0  0  0  0  0  0
    8.8503  -14.8875   15.4341 C   0  0  0  0  0  0  0  0  0  0  0  0
    9.1453  -15.9246   16.4715 C   0  0  0  0  0  0  0  0  0  0  0  0
    9.9128  -15.4652   17.6650 C   0  0  0  0  0  0  0  0  0  0  0  0
   10.1793  -16.6301   18.5944 C   0  0  2  0  0  0  0  0  0  0  0  0
    9.0742  -17.6005   18.4805 N   0  0  0  0  0  0  0  0  0  0  0  0
   10.2592  -16.1436   19.9882 C   0  0  0  0  0  0  0  0  0  0  0  0
   11.1514  -15.3972   20.4513 O   0  0  0  0  0  0  0  0  0  0  0  0
    7.2067  -16.6507   12.2636 N   0  0  0  0  0  0  0  0  0  0  0  0
    9.2710  -16.5052   20.9763 C   0  0  2  0  0  0  0  0  0  0  0  0
    9.3477  -16.0725   22.3475 C   0  0  0  0  0  0  0  0  0  0  0  0
    8.0936  -15.4098   22.8228 C   0  0  0  0  0  0  0  0  0  0  0  0
    7.7279  -14.2448   21.9897 C   0  0  0  0  0  0  0  0  0  0  0  0
    6.6426  -14.0855   21.1652 N   0  0  0  0  0  0  0  0  0  0  0  0
    6.7011  -12.8682   20.5968 C   0  0  0  0  0  0  0  0  0  0  0  0
    7.7994  -12.2607   21.0466 N   0  0  0  0  0  0  0  0  0  0  0  0
    8.4337  -13.1108   21.9067 C   0  0  0  0  0  0  0  0  0  0  0  0
    9.8029  -17.1985   23.1520 O   0  0  0  0  0  0  0  0  0  0  0  0
    9.2737  -18.3277   23.0046 N   0  0  0  0  0  0  0  0  0  0  0  0
   10.8403  -17.1111   24.1279 C   0  0  1  0  0  0  0  0  0  0  0  0
   11.3028  -18.2550   24.9076 C   0  0  0  0  0  0  0  0  0  0  0  0
   12.7722  -18.4440   24.7911 C   0  0  0  0  0  0  0  0  0  0  0  0
   13.1958  -18.9171   23.4457 C   0  0  0  0  0  0  0  0  0  0  0  0
   12.9764  -18.1928   22.2636 N   0  0  0  0  0  0  0  0  0  0  0  0
   13.4755  -18.9090   21.2736 C   0  0  0  0  0  0  0  0  0  0  0  0
   13.9941  -20.0402   21.7730 N   0  0  0  0  0  0  0  0  0  0  0  0
   13.8299  -20.0595   23.1038 C   0  0  0  0  0  0  0  0  0  0  0  0
   10.9054  -17.9223   26.3249 O   0  0  0  0  0  0  0  0  0  0  0  0
   11.1424  -18.6636   27.3047 O   0  0  0  0  0  0  0  0  0  0  0  0
  2  3  2  0
  2  1  1  0
  4  2  1  0
  5  4  1  0
  6  5  1  0
  7  6  1  0
  8  7  1  0
  8  9  1  1
 10  8  1  0
 10 12  1  0
 11 10  2  0
 13 12  1  0
 13 14  1  6
 14 15  1  0
 15 16  2  0
 16 17  1  0
 18 17  1  0
 19 15  1  0
 19 18  2  0
 20 13  1  0
 21 20  2  0
 22 20  1  0
 23 22  1  0
 23 30  1  0
 23 24  1  1
 25 24  1  0
 26 25  2  0
 27 26  1  0
 28 27  1  0
 28 29  2  0
 29 25  1  0
 30 32  1  0
 31 30  2  0
M  END
$$$$
