RHH.pdb
     RDKit          3D

 32 33  0  0  1  0  0  0  0  0999 V2000
    6.7389  -23.4686   23.8068 N   0  0  0  0  0  0  0  0  0  0  0  0
    8.0047  -22.9165   23.5472 C   0  0  0  0  0  0  0  0  0  0  0  0
    9.0376  -23.3699   24.1540 N   0  0  0  0  0  0  0  0  0  0  0  0
    8.1344  -21.8564   22.6222 N   0  0  0  0  0  0  0  0  0  0  0  0
    7.0211  -21.0791   22.2146 C   0  0  0  0  0  0  0  0  0  0  0  0
    7.3672  -19.9950   21.2431 C   0  0  0  0  0  0  0  0  0  0  0  0
    6.2211  -19.2347   20.6662 C   0  0  0  0  0  0  0  0  0  0  0  0
    6.7291  -18.1145   19.7836 C   0  0  2  0  0  0  0  0  0  0  0  0
    7.5189  -18.6912   18.6792 N   0  0  0  0  0  0  0  0  0  0  0  0
    7.5883  -17.2097   20.5767 C   0  0  0  0  0  0  0  0  0  0  0  0
    8.8350  -17.2797   20.6676 O   0  0  0  0  0  0  0  0  0  0  0  0
    9.9939  -23.0460   23.9481 N   0  0  0  0  0  0  0  0  0  0  0  0
    7.0365  -16.1210   21.3475 C   0  0  1  0  0  0  0  0  0  0  0  0
    7.8569  -15.2010   22.0917 C   0  0  0  0  0  0  0  0  0  0  0  0
    7.5917  -13.7698   21.7467 C   0  0  0  0  0  0  0  0  0  0  0  0
    7.9170  -13.4662   20.3371 C   0  0  0  0  0  0  0  0  0  0  0  0
    7.0719  -13.0960   19.3214 N   0  0  0  0  0  0  0  0  0  0  0  0
    7.7903  -12.9188   18.1984 C   0  0  0  0  0  0  0  0  0  0  0  0
    9.0673  -13.1699   18.4877 N   0  0  0  0  0  0  0  0  0  0  0  0
    9.1457  -13.5082   19.8085 C   0  0  0  0  0  0  0  0  0  0  0  0
    7.7420  -15.5347   23.5052 O   0  0  0  0  0  0  0  0  0  0  0  0
    6.6663  -16.0034   23.9523 N   0  0  0  0  0  0  0  0  0  0  0  0
    8.7962  -15.3628   24.4514 C   0  0  1  0  0  0  0  0  0  0  0  0
    8.9508  -16.2003   25.6368 C   0  0  0  0  0  0  0  0  0  0  0  0
    9.1213  -17.6331   25.2813 C   0  0  0  0  0  0  0  0  0  0  0  0
    7.8301  -18.3607   25.1517 C   0  0  0  0  0  0  0  0  0  0  0  0
    6.5755  -17.7415   25.2647 N   0  0  0  0  0  0  0  0  0  0  0  0
    5.6643  -18.6822   25.0995 C   0  0  0  0  0  0  0  0  0  0  0  0
    6.2815  -19.8539   24.8896 N   0  0  0  0  0  0  0  0  0  0  0  0
    7.6100  -19.6727   24.9191 C   0  0  0  0  0  0  0  0  0  0  0  0
   10.1830  -15.6557   26.3169 O   0  0  0  0  0  0  0  0  0  0  0  0
   11.1228  -15.0975   25.7080 O   0  0  0  0  0  0  0  0  0  0  0  0
  2  3  2  0
  2  1  1  0
  4  2  1  0
  5  4  1  0
  6  5  1  0
  7  6  1  0
  8  7  1  0
  8  9  1  6
 10  8  1  0
 10 12  1  0
 11 10  2  0
 13 12  1  0
 13 14  1  1
 14 15  1  0
 15 16  2  0
 16 17  1  0
 18 17  1  0
 19 15  1  0
 19 18  2  0
 20 13  1  0
 21 20  2  0
 22 20  1  0
 23 22  1  0
 23 30  1  0
 23 24  1  1
 25 24  1  0
 26 25  2  0
 27 26  1  0
 28 27  1  0
 28 29  2  0
 29 25  1  0
 30 32  1  0
 31 30  2  0
M  END
$$$$
