RHH.pdb
     RDKit          3D

 32 33  0  0  1  0  0  0  0  0999 V2000
    7.8471  -12.5646   17.6017 N   0  0  0  0  0  0  0  0  0  0  0  0
    7.5807  -13.0738   18.8840 C   0  0  0  0  0  0  0  0  0  0  0  0
    7.3182  -12.2735   19.8489 N   0  0  0  0  0  0  0  0  0  0  0  0
    7.6106  -14.4686   19.1080 N   0  0  0  0  0  0  0  0  0  0  0  0
    8.6995  -15.2710   18.6836 C   0  0  0  0  0  0  0  0  0  0  0  0
    9.8715  -15.2354   19.6131 C   0  0  0  0  0  0  0  0  0  0  0  0
   10.4885  -16.5511   19.9487 C   0  0  0  0  0  0  0  0  0  0  0  0
    9.6675  -17.2583   21.0059 C   0  0  2  0  0  0  0  0  0  0  0  0
    8.2351  -17.0305   20.7363 N   0  0  0  0  0  0  0  0  0  0  0  0
   10.0047  -16.7167   22.3396 C   0  0  0  0  0  0  0  0  0  0  0  0
   11.1613  -16.5444   22.7868 O   0  0  0  0  0  0  0  0  0  0  0  0
    7.1616  -12.5953   20.8153 N   0  0  0  0  0  0  0  0  0  0  0  0
    8.9824  -16.3239   23.2801 C   0  0  2  0  0  0  0  0  0  0  0  0
    9.2873  -15.7880   24.5812 C   0  0  0  0  0  0  0  0  0  0  0  0
    8.2645  -14.8095   25.0651 C   0  0  0  0  0  0  0  0  0  0  0  0
    8.5428  -14.3458   26.4408 C   0  0  0  0  0  0  0  0  0  0  0  0
    7.7079  -14.3377   27.5297 N   0  0  0  0  0  0  0  0  0  0  0  0
    8.3701  -13.8293   28.5839 C   0  0  0  0  0  0  0  0  0  0  0  0
    9.6020  -13.5183   28.1799 N   0  0  0  0  0  0  0  0  0  0  0  0
    9.7088  -13.8370   26.8563 C   0  0  0  0  0  0  0  0  0  0  0  0
    9.5577  -16.9039   25.4777 O   0  0  0  0  0  0  0  0  0  0  0  0
    8.6840  -17.7875   25.6587 N   0  0  0  0  0  0  0  0  0  0  0  0
   10.7828  -17.0737   26.1895 C   0  0  1  0  0  0  0  0  0  0  0  0
   10.9782  -18.0974   27.2116 C   0  0  0  0  0  0  0  0  0  0  0  0
   12.1694  -18.9394   26.9279 C   0  0  0  0  0  0  0  0  0  0  0  0
   11.9546  -19.8985   25.8111 C   0  0  0  0  0  0  0  0  0  0  0  0
   10.7062  -20.1230   25.2101 N   0  0  0  0  0  0  0  0  0  0  0  0
   10.8885  -21.0297   24.2682 C   0  0  0  0  0  0  0  0  0  0  0  0
   12.1818  -21.3831   24.2487 N   0  0  0  0  0  0  0  0  0  0  0  0
   12.8481  -20.6979   25.1895 C   0  0  0  0  0  0  0  0  0  0  0  0
   11.1538  -17.3153   28.4902 O   0  0  0  0  0  0  0  0  0  0  0  0
   11.4882  -16.1102   28.5267 O   0  0  0  0  0  0  0  0  0  0  0  0
  2  3  2  0
  2  1  1  0
  4  2  1  0
  5  4  1  0
  6  5  1  0
  7  6  1  0
  8  7  1  0
  8  9  1  6
 10  8  1  0
 10 12  1  0
 11 10  2  0
 13 12  1  0
 13 14  1  6
 14 15  1  0
 15 16  2  0
 16 17  1  0
 18 17  1  0
 19 15  1  0
 19 18  2  0
 20 13  1  0
 21 20  2  0
 22 20  1  0
 23 22  1  0
 23 30  1  0
 23 24  1  1
 25 24  1  0
 26 25  2  0
 27 26  1  0
 28 27  1  0
 28 29  2  0
 29 25  1  0
 30 32  1  0
 31 30  2  0
M  END
$$$$
