VFT.pdb
     RDKit          3D

 26 26  0  0  1  0  0  0  0  0999 V2000
    8.9944  -18.9674   21.4046 C   0  0  0  0  0  0  0  0  0  0  0  0
   10.0438  -18.3763   20.5190 C   0  0  1  0  0  0  0  0  0  0  0  0
   10.1314  -19.0002   19.1443 C   0  0  0  0  0  0  0  0  0  0  0  0
   10.0555  -16.8894   20.4811 C   0  0  2  0  0  0  0  0  0  0  0  0
   11.2228  -16.4275   19.7672 N   0  0  0  0  0  0  0  0  0  0  0  0
    9.9871  -16.2111   21.7767 C   0  0  0  0  0  0  0  0  0  0  0  0
   10.9856  -16.0693   22.5564 O   0  0  0  0  0  0  0  0  0  0  0  0
    8.7540  -15.6714   22.2159 N   0  0  0  0  0  0  0  0  0  0  0  0
    8.5509  -15.0291   23.4903 C   0  0  1  0  0  0  0  0  0  0  0  0
    7.4975  -13.9876   23.5426 C   0  0  0  0  0  0  0  0  0  0  0  0
    7.3398  -13.4503   24.9151 C   0  0  0  0  0  0  0  0  0  0  0  0
    6.1666  -13.7193   25.6107 C   0  0  0  0  0  0  0  0  0  0  0  0
    5.9742  -13.2317   26.8949 C   0  0  0  0  0  0  0  0  0  0  0  0
    6.9844  -12.4804   27.4405 C   0  0  0  0  0  0  0  0  0  0  0  0
    8.1500  -12.2145   26.7473 C   0  0  0  0  0  0  0  0  0  0  0  0
    8.3429  -12.6975   25.4694 C   0  0  0  0  0  0  0  0  0  0  0  0
    8.4936  -16.0216   24.6037 C   0  0  0  0  0  0  0  0  0  0  0  0
    7.4068  -16.6553   24.7663 O   0  0  0  0  0  0  0  0  0  0  0  0
   10.0378  -19.2033   24.9436 C   0  0  0  0  0  0  0  0  0  0  0  0
   10.4819  -18.4446   26.1768 C   0  0  1  0  0  0  0  0  0  0  0  0
   11.7493  -17.8596   25.9425 O   0  0  0  0  0  0  0  0  0  0  0  0
    9.5737  -17.3043   26.4938 C   0  0  2  0  0  0  0  0  0  0  0  0
    9.5505  -16.2930   25.4662 N   0  0  0  0  0  0  0  0  0  0  0  0
   10.0622  -16.7348   27.7939 C   0  0  0  0  0  0  0  0  0  0  0  0
   10.0823  -17.4547   28.9673 O   0  0  0  0  0  0  0  0  0  0  0  0
   10.4713  -15.5581   27.8308 O   0  0  0  0  0  0  0  0  0  0  0  0
  2  4  1  0
  2  1  1  6
  3  2  1  0
  4  6  1  0
  4  5  1  1
  6  7  2  0
  8  9  1  0
  8  6  1  0
 10 11  1  0
  9 10  1  6
 11 12  2  0
 12 13  1  0
 14 13  2  0
 15 14  1  0
 16 15  2  0
 16 11  1  0
 17  9  1  0
 17 18  2  0
 20 19  1  6
 20 22  1  0
 21 20  1  0
 22 23  1  6
 22 24  1  0
 23 17  1  0
 24 25  1  0
 26 24  2  0
M  END
$$$$
