VFT.pdb
     RDKit          3D

 26 26  0  0  1  0  0  0  0  0999 V2000
    9.0144  -18.9317   19.1202 C   0  0  0  0  0  0  0  0  0  0  0  0
    9.3004  -18.2645   20.4271 C   0  0  1  0  0  0  0  0  0  0  0  0
   10.3251  -18.9730   21.2842 C   0  0  0  0  0  0  0  0  0  0  0  0
    9.5374  -16.7990   20.3346 C   0  0  2  0  0  0  0  0  0  0  0  0
   10.7520  -16.5458   19.5955 N   0  0  0  0  0  0  0  0  0  0  0  0
    9.5897  -16.0731   21.6048 C   0  0  0  0  0  0  0  0  0  0  0  0
   10.6722  -15.7913   22.2165 O   0  0  0  0  0  0  0  0  0  0  0  0
    8.3844  -15.6469   22.2134 N   0  0  0  0  0  0  0  0  0  0  0  0
    8.3071  -14.9507   23.4733 C   0  0  1  0  0  0  0  0  0  0  0  0
    7.2107  -13.9630   23.6139 C   0  0  0  0  0  0  0  0  0  0  0  0
    7.1967  -13.3640   24.9697 C   0  0  0  0  0  0  0  0  0  0  0  0
    8.1479  -12.4015   25.2883 C   0  0  0  0  0  0  0  0  0  0  0  0
    8.1754  -11.8189   26.5467 C   0  0  0  0  0  0  0  0  0  0  0  0
    7.2307  -12.2320   27.4521 C   0  0  0  0  0  0  0  0  0  0  0  0
    6.2859  -13.1888   27.1331 C   0  0  0  0  0  0  0  0  0  0  0  0
    6.2575  -13.7704   25.8823 C   0  0  0  0  0  0  0  0  0  0  0  0
    8.4474  -15.8857   24.6282 C   0  0  0  0  0  0  0  0  0  0  0  0
    7.4750  -16.6629   24.8724 O   0  0  0  0  0  0  0  0  0  0  0  0
   10.5091  -18.7717   24.9614 C   0  0  0  0  0  0  0  0  0  0  0  0
   10.8791  -17.9060   26.1478 C   0  0  1  0  0  0  0  0  0  0  0  0
   12.0130  -17.1220   25.8270 O   0  0  0  0  0  0  0  0  0  0  0  0
    9.8057  -16.9271   26.4871 C   0  0  2  0  0  0  0  0  0  0  0  0
    9.5704  -15.9577   25.4459 N   0  0  0  0  0  0  0  0  0  0  0  0
   10.2445  -16.2543   27.7551 C   0  0  0  0  0  0  0  0  0  0  0  0
   10.4702  -16.9393   28.9279 O   0  0  0  0  0  0  0  0  0  0  0  0
   10.4168  -15.0199   27.7645 O   0  0  0  0  0  0  0  0  0  0  0  0
  2  4  1  0
  2  1  1  6
  3  2  1  0
  4  6  1  0
  4  5  1  1
  6  7  2  0
  8  9  1  0
  8  6  1  0
 10 11  1  0
  9 10  1  1
 11 12  2  0
 12 13  1  0
 14 13  2  0
 15 14  1  0
 16 15  2  0
 16 11  1  0
 17  9  1  0
 17 18  2  0
 20 19  1  6
 20 22  1  0
 21 20  1  0
 22 23  1  6
 22 24  1  0
 23 17  1  0
 24 25  1  0
 26 24  2  0
M  END
$$$$
