VFT.pdb
     RDKit          3D

 26 26  0  0  1  0  0  0  0  0999 V2000
    8.2288  -18.8688   18.9359 C   0  0  0  0  0  0  0  0  0  0  0  0
    8.5797  -18.3208   20.2818 C   0  0  1  0  0  0  0  0  0  0  0  0
    9.3481  -19.2746   21.1686 C   0  0  0  0  0  0  0  0  0  0  0  0
    9.1645  -16.9533   20.2596 C   0  0  2  0  0  0  0  0  0  0  0  0
   10.4576  -16.9848   19.6174 N   0  0  0  0  0  0  0  0  0  0  0  0
    9.2898  -16.2848   21.5559 C   0  0  0  0  0  0  0  0  0  0  0  0
   10.3806  -16.2073   22.2113 O   0  0  0  0  0  0  0  0  0  0  0  0
    8.1508  -15.6803   22.1407 N   0  0  0  0  0  0  0  0  0  0  0  0
    8.1449  -15.0148   23.4194 C   0  0  1  0  0  0  0  0  0  0  0  0
    7.1677  -13.9123   23.5837 C   0  0  0  0  0  0  0  0  0  0  0  0
    7.2335  -13.3337   24.9469 C   0  0  0  0  0  0  0  0  0  0  0  0
    8.3848  -12.6577   25.3345 C   0  0  0  0  0  0  0  0  0  0  0  0
    8.4918  -12.1057   26.6024 C   0  0  0  0  0  0  0  0  0  0  0  0
    7.4206  -12.2561   27.4466 C   0  0  0  0  0  0  0  0  0  0  0  0
    6.2770  -12.9283   27.0591 C   0  0  0  0  0  0  0  0  0  0  0  0
    6.1689  -13.4792   25.7987 C   0  0  0  0  0  0  0  0  0  0  0  0
    8.1694  -15.9913   24.5480 C   0  0  0  0  0  0  0  0  0  0  0  0
    7.0848  -16.5854   24.8304 O   0  0  0  0  0  0  0  0  0  0  0  0
    9.4070  -19.2642   24.8050 C   0  0  0  0  0  0  0  0  0  0  0  0
   10.1368  -18.5122   25.8985 C   0  0  1  0  0  0  0  0  0  0  0  0
   11.3766  -18.0415   25.4037 O   0  0  0  0  0  0  0  0  0  0  0  0
    9.3967  -17.2920   26.3331 C   0  0  2  0  0  0  0  0  0  0  0  0
    9.2997  -16.2883   25.3024 N   0  0  0  0  0  0  0  0  0  0  0  0
   10.1361  -16.7626   27.5273 C   0  0  0  0  0  0  0  0  0  0  0  0
   10.3176  -17.4922   28.6807 O   0  0  0  0  0  0  0  0  0  0  0  0
   10.6136  -15.6119   27.4903 O   0  0  0  0  0  0  0  0  0  0  0  0
  2  4  1  0
  2  1  1  6
  3  2  1  0
  4  6  1  0
  4  5  1  1
  6  7  2  0
  8  9  1  0
  8  6  1  0
 10 11  1  0
  9 10  1  1
 11 12  2  0
 12 13  1  0
 14 13  2  0
 15 14  1  0
 16 15  2  0
 16 11  1  0
 17  9  1  0
 17 18  2  0
 20 19  1  6
 20 22  1  0
 21 20  1  0
 22 23  1  6
 22 24  1  0
 23 17  1  0
 24 25  1  0
 26 24  2  0
M  END
$$$$
