VFT.pdb
     RDKit          3D

 26 26  0  0  1  0  0  0  0  0999 V2000
    5.4186  -21.6486   23.3578 C   0  0  0  0  0  0  0  0  0  0  0  0
    6.3024  -20.4987   23.7207 C   0  0  1  0  0  0  0  0  0  0  0  0
    7.7833  -20.7850   23.6129 C   0  0  0  0  0  0  0  0  0  0  0  0
    5.9172  -19.2028   23.1005 C   0  0  2  0  0  0  0  0  0  0  0  0
    5.9513  -19.3199   21.6616 N   0  0  0  0  0  0  0  0  0  0  0  0
    6.7034  -18.0359   23.5047 C   0  0  0  0  0  0  0  0  0  0  0  0
    7.5961  -17.4943   22.7732 O   0  0  0  0  0  0  0  0  0  0  0  0
    6.4819  -17.4534   24.7761 N   0  0  0  0  0  0  0  0  0  0  0  0
    7.2568  -16.3682   25.3237 C   0  0  1  0  0  0  0  0  0  0  0  0
    6.5815  -15.5219   26.3362 C   0  0  0  0  0  0  0  0  0  0  0  0
    7.4407  -14.3864   26.7479 C   0  0  0  0  0  0  0  0  0  0  0  0
    8.3220  -14.5613   27.8087 C   0  0  0  0  0  0  0  0  0  0  0  0
    9.1403  -13.5242   28.2312 C   0  0  0  0  0  0  0  0  0  0  0  0
    9.0408  -12.3311   27.5607 C   0  0  0  0  0  0  0  0  0  0  0  0
    8.1642  -12.1595   26.5062 C   0  0  0  0  0  0  0  0  0  0  0  0
    7.3484  -13.1895   26.0851 C   0  0  0  0  0  0  0  0  0  0  0  0
    8.6301  -16.8107   25.7058 C   0  0  0  0  0  0  0  0  0  0  0  0
    8.7282  -17.7084   26.5967 O   0  0  0  0  0  0  0  0  0  0  0  0
   11.1523  -18.0726   23.1374 C   0  0  0  0  0  0  0  0  0  0  0  0
   11.8405  -17.0496   24.0169 C   0  0  1  0  0  0  0  0  0  0  0  0
   11.8228  -15.7867   23.3780 O   0  0  0  0  0  0  0  0  0  0  0  0
   11.1255  -16.8473   25.3106 C   0  0  2  0  0  0  0  0  0  0  0  0
    9.7996  -16.3042   25.1486 N   0  0  0  0  0  0  0  0  0  0  0  0
   11.9873  -15.9223   26.1198 C   0  0  0  0  0  0  0  0  0  0  0  0
   13.2620  -16.2482   26.5254 O   0  0  0  0  0  0  0  0  0  0  0  0
   11.5443  -14.8046   26.4484 O   0  0  0  0  0  0  0  0  0  0  0  0
  2  4  1  0
  2  1  1  6
  3  2  1  0
  4  6  1  0
  4  5  1  6
  6  7  2  0
  8  9  1  0
  8  6  1  0
 10 11  1  0
  9 10  1  1
 11 12  2  0
 12 13  1  0
 14 13  2  0
 15 14  1  0
 16 15  2  0
 16 11  1  0
 17  9  1  0
 17 18  2  0
 20 19  1  6
 20 22  1  0
 21 20  1  0
 22 23  1  6
 22 24  1  0
 23 17  1  0
 24 25  1  0
 26 24  2  0
M  END
$$$$
