VFT.pdb
     RDKit          3D

 26 26  0  0  1  0  0  0  0  0999 V2000
    8.1574  -18.7991   18.4776 C   0  0  0  0  0  0  0  0  0  0  0  0
    8.5928  -18.1798   19.7667 C   0  0  1  0  0  0  0  0  0  0  0  0
    9.7005  -18.9228   20.4790 C   0  0  0  0  0  0  0  0  0  0  0  0
    8.8307  -16.7130   19.6990 C   0  0  2  0  0  0  0  0  0  0  0  0
    9.9382  -16.4375   18.8142 N   0  0  0  0  0  0  0  0  0  0  0  0
    9.0597  -16.0375   20.9774 C   0  0  0  0  0  0  0  0  0  0  0  0
   10.2169  -15.8006   21.4569 O   0  0  0  0  0  0  0  0  0  0  0  0
    7.9511  -15.6115   21.7483 N   0  0  0  0  0  0  0  0  0  0  0  0
    8.0496  -14.9603   23.0306 C   0  0  1  0  0  0  0  0  0  0  0  0
    6.9705  -14.0013   23.3670 C   0  0  0  0  0  0  0  0  0  0  0  0
    7.1320  -13.4699   24.7413 C   0  0  0  0  0  0  0  0  0  0  0  0
    8.0349  -12.4356   24.9594 C   0  0  0  0  0  0  0  0  0  0  0  0
    8.2222  -11.9120   26.2300 C   0  0  0  0  0  0  0  0  0  0  0  0
    7.4831  -12.4562   27.2501 C   0  0  0  0  0  0  0  0  0  0  0  0
    6.5860  -13.4842   27.0309 C   0  0  0  0  0  0  0  0  0  0  0  0
    6.3989  -14.0073   25.7679 C   0  0  0  0  0  0  0  0  0  0  0  0
    8.3736  -15.9309   24.1172 C   0  0  0  0  0  0  0  0  0  0  0  0
    7.4800  -16.7739   24.4335 O   0  0  0  0  0  0  0  0  0  0  0  0
   10.8822  -18.5612   24.0995 C   0  0  0  0  0  0  0  0  0  0  0  0
   11.1611  -17.7605   25.3543 C   0  0  1  0  0  0  0  0  0  0  0  0
   12.1897  -16.8222   25.0989 O   0  0  0  0  0  0  0  0  0  0  0  0
    9.9832  -16.9490   25.7779 C   0  0  2  0  0  0  0  0  0  0  0  0
    9.5861  -15.9685   24.7980 N   0  0  0  0  0  0  0  0  0  0  0  0
   10.3774  -16.2880   27.0666 C   0  0  0  0  0  0  0  0  0  0  0  0
   10.6723  -16.9937   28.2115 O   0  0  0  0  0  0  0  0  0  0  0  0
   10.4453  -15.0447   27.1205 O   0  0  0  0  0  0  0  0  0  0  0  0
  2  4  1  0
  2  1  1  6
  3  2  1  0
  4  6  1  0
  4  5  1  6
  6  7  2  0
  8  9  1  0
  8  6  1  0
 10 11  1  0
  9 10  1  1
 11 12  2  0
 12 13  1  0
 14 13  2  0
 15 14  1  0
 16 15  2  0
 16 11  1  0
 17  9  1  0
 17 18  2  0
 20 19  1  6
 20 22  1  0
 21 20  1  0
 22 23  1  6
 22 24  1  0
 23 17  1  0
 24 25  1  0
 26 24  2  0
M  END
$$$$
