KTY.pdb
     RDKit          3D

 29 29  0  0  1  0  0  0  0  0999 V2000
    6.6676  -16.4058   20.5071 N   0  0  0  0  0  0  0  0  0  0  0  0
    7.6212  -15.5997   21.2312 C   0  0  1  0  0  0  0  0  0  0  0  0
    7.0826  -14.2386   21.4668 C   0  0  0  0  0  0  0  0  0  0  0  0
    7.6783  -13.2264   20.5514 C   0  0  0  0  0  0  0  0  0  0  0  0
    7.6406  -13.5119   19.0933 C   0  0  0  0  0  0  0  0  0  0  0  0
    8.2445  -12.3248   18.3004 C   0  0  0  0  0  0  0  0  0  0  0  0
    9.2236  -12.8564   17.3741 N   0  0  0  0  0  0  0  0  0  0  0  0
    7.9837  -16.3107   22.4784 C   0  0  0  0  0  0  0  0  0  0  0  0
    7.1067  -16.9918   23.0552 O   0  0  0  0  0  0  0  0  0  0  0  0
   10.2463  -19.1777   22.9095 C   0  0  0  0  0  0  0  0  0  0  0  0
   10.7187  -18.1077   23.8399 C   0  0  1  0  0  0  0  0  0  0  0  0
   11.8811  -17.4705   23.4109 O   0  0  0  0  0  0  0  0  0  0  0  0
    9.6334  -17.1044   24.1720 C   0  0  2  0  0  0  0  0  0  0  0  0
    9.2772  -16.2682   23.0676 N   0  0  0  0  0  0  0  0  0  0  0  0
   10.0866  -16.2522   25.3037 C   0  0  0  0  0  0  0  0  0  0  0  0
   10.7947  -15.2105   25.0896 O   0  0  0  0  0  0  0  0  0  0  0  0
    6.2917  -11.3680   25.4893 O   0  0  0  0  0  0  0  0  0  0  0  0
    6.9552  -12.3416   26.2281 C   0  0  0  0  0  0  0  0  0  0  0  0
    6.4454  -13.6135   26.3945 C   0  0  0  0  0  0  0  0  0  0  0  0
    7.1192  -14.5687   27.1326 C   0  0  0  0  0  0  0  0  0  0  0  0
    8.3278  -14.2632   27.7227 C   0  0  0  0  0  0  0  0  0  0  0  0
    9.1275  -15.1940   28.5246 C   0  0  0  0  0  0  0  0  0  0  0  0
   10.3016  -15.7753   27.7686 C   0  0  2  0  0  0  0  0  0  0  0  0
    9.7762  -16.5242   26.6602 N   0  0  0  0  0  0  0  0  0  0  0  0
   11.0684  -16.6003   28.7152 C   0  0  0  0  0  0  0  0  0  0  0  0
   11.7212  -16.0090   29.7676 O   0  0  0  0  0  0  0  0  0  0  0  0
    8.8163  -12.9843   27.5415 C   0  0  0  0  0  0  0  0  0  0  0  0
    8.1559  -12.0433   26.8163 C   0  0  0  0  0  0  0  0  0  0  0  0
   11.1231  -17.8312   28.5592 O   0  0  0  0  0  0  0  0  0  0  0  0
  2  1  1  1
  2  3  1  0
  4  5  1  0
  4  3  1  0
  6  5  1  0
  7  6  1  0
  8 14  1  0
  8  2  1  0
  9  8  2  0
 11 10  1  6
 12 11  1  0
 13 11  1  0
 13 14  1  6
 15 16  2  0
 15 13  1  0
 17 18  1  0
 18 28  2  0
 19 18  1  0
 19 20  2  0
 20 21  1  0
 21 27  2  0
 21 22  1  0
 23 22  1  1
 23 25  1  0
 23 24  1  0
 24 15  1  0
 25 26  1  0
 28 27  1  0
 29 25  2  0
M  END
$$$$
