KTY.pdb
     RDKit          3D

 29 29  0  0  1  0  0  0  0  0999 V2000
    8.7350  -17.3008   19.6295 N   0  0  0  0  0  0  0  0  0  0  0  0
    9.0959  -16.2444   20.5445 C   0  0  1  0  0  0  0  0  0  0  0  0
    8.3469  -15.0037   20.2316 C   0  0  0  0  0  0  0  0  0  0  0  0
    8.5197  -14.5787   18.8150 C   0  0  0  0  0  0  0  0  0  0  0  0
    7.8280  -13.3369   18.3808 C   0  0  0  0  0  0  0  0  0  0  0  0
    8.0423  -13.1085   16.8627 C   0  0  0  0  0  0  0  0  0  0  0  0
    7.1929  -12.0093   16.4506 N   0  0  0  0  0  0  0  0  0  0  0  0
    8.8780  -16.7278   21.9271 C   0  0  0  0  0  0  0  0  0  0  0  0
    7.7695  -17.2306   22.2171 O   0  0  0  0  0  0  0  0  0  0  0  0
    9.7057  -19.6817   23.4564 C   0  0  0  0  0  0  0  0  0  0  0  0
   10.3585  -18.6463   24.3140 C   0  0  1  0  0  0  0  0  0  0  0  0
   11.7308  -18.5323   24.1016 O   0  0  0  0  0  0  0  0  0  0  0  0
    9.6748  -17.2977   24.2205 C   0  0  2  0  0  0  0  0  0  0  0  0
    9.8575  -16.6560   22.9554 N   0  0  0  0  0  0  0  0  0  0  0  0
   10.1936  -16.4121   25.2969 C   0  0  0  0  0  0  0  0  0  0  0  0
   11.2545  -15.7234   25.1166 O   0  0  0  0  0  0  0  0  0  0  0  0
    6.3752  -11.1536   24.6002 O   0  0  0  0  0  0  0  0  0  0  0  0
    6.9489  -12.0599   25.4853 C   0  0  0  0  0  0  0  0  0  0  0  0
    6.3374  -13.2524   25.8164 C   0  0  0  0  0  0  0  0  0  0  0  0
    6.9229  -14.1415   26.6984 C   0  0  0  0  0  0  0  0  0  0  0  0
    8.1434  -13.8484   27.2699 C   0  0  0  0  0  0  0  0  0  0  0  0
    8.8553  -14.7140   28.2149 C   0  0  0  0  0  0  0  0  0  0  0  0
   10.0529  -15.4064   27.6031 C   0  0  2  0  0  0  0  0  0  0  0  0
    9.5691  -16.2711   26.5621 N   0  0  0  0  0  0  0  0  0  0  0  0
   10.7422  -16.1285   28.6839 C   0  0  0  0  0  0  0  0  0  0  0  0
   11.3834  -15.4293   29.6756 O   0  0  0  0  0  0  0  0  0  0  0  0
    8.7344  -12.6496   26.9227 C   0  0  0  0  0  0  0  0  0  0  0  0
    8.1611  -11.7737   26.0558 C   0  0  0  0  0  0  0  0  0  0  0  0
   10.7421  -17.3703   28.6961 O   0  0  0  0  0  0  0  0  0  0  0  0
  2  1  1  6
  2  3  1  0
  4  5  1  0
  4  3  1  0
  6  5  1  0
  7  6  1  0
  8 14  1  0
  8  2  1  0
  9  8  2  0
 11 10  1  6
 12 11  1  0
 13 11  1  0
 13 14  1  6
 15 16  2  0
 15 13  1  0
 17 18  1  0
 18 28  2  0
 19 18  1  0
 19 20  2  0
 20 21  1  0
 21 27  2  0
 21 22  1  0
 23 22  1  1
 23 25  1  0
 23 24  1  0
 24 15  1  0
 25 26  1  0
 28 27  1  0
 29 25  2  0
M  END
$$$$
