KTY.pdb
     RDKit          3D

 29 29  0  0  1  0  0  0  0  0999 V2000
    9.3765  -18.1926   20.5900 N   0  0  0  0  0  0  0  0  0  0  0  0
   10.4779  -17.3776   21.0440 C   0  0  1  0  0  0  0  0  0  0  0  0
   11.5329  -17.2996   20.0053 C   0  0  0  0  0  0  0  0  0  0  0  0
   12.0365  -18.6428   19.6060 C   0  0  0  0  0  0  0  0  0  0  0  0
   13.0769  -18.6996   18.5461 C   0  0  0  0  0  0  0  0  0  0  0  0
   14.3536  -17.9526   19.0097 C   0  0  0  0  0  0  0  0  0  0  0  0
   15.2913  -17.9398   17.9051 N   0  0  0  0  0  0  0  0  0  0  0  0
    9.9477  -16.0535   21.4416 C   0  0  0  0  0  0  0  0  0  0  0  0
   10.6647  -15.0438   21.2626 O   0  0  0  0  0  0  0  0  0  0  0  0
    8.2177  -13.4341   20.1425 C   0  0  0  0  0  0  0  0  0  0  0  0
    7.3760  -13.8875   21.2913 C   0  0  1  0  0  0  0  0  0  0  0  0
    6.2955  -14.6805   20.9107 O   0  0  0  0  0  0  0  0  0  0  0  0
    8.1895  -14.5549   22.3811 C   0  0  2  0  0  0  0  0  0  0  0  0
    8.6636  -15.8549   22.0192 N   0  0  0  0  0  0  0  0  0  0  0  0
    7.3612  -14.6621   23.6119 C   0  0  0  0  0  0  0  0  0  0  0  0
    6.6963  -15.7252   23.8569 O   0  0  0  0  0  0  0  0  0  0  0  0
   11.8453  -15.0427   28.7292 O   0  0  0  0  0  0  0  0  0  0  0  0
   10.5654  -14.9529   28.1928 C   0  0  0  0  0  0  0  0  0  0  0  0
    9.8718  -13.7606   28.1405 C   0  0  0  0  0  0  0  0  0  0  0  0
    8.5998  -13.6903   27.6035 C   0  0  0  0  0  0  0  0  0  0  0  0
    7.9945  -14.8247   27.1045 C   0  0  0  0  0  0  0  0  0  0  0  0
    6.6537  -14.8678   26.5137 C   0  0  0  0  0  0  0  0  0  0  0  0
    6.3316  -13.6496   25.6769 C   0  0  2  0  0  0  0  0  0  0  0  0
    7.2519  -13.6257   24.5733 N   0  0  0  0  0  0  0  0  0  0  0  0
    6.4445  -12.4728   26.5527 C   0  0  0  0  0  0  0  0  0  0  0  0
    7.4057  -11.5246   26.3067 O   0  0  0  0  0  0  0  0  0  0  0  0
    8.7091  -16.0047   27.1685 C   0  0  0  0  0  0  0  0  0  0  0  0
    9.9597  -16.0766   27.6959 C   0  0  0  0  0  0  0  0  0  0  0  0
    5.6688  -12.3404   27.5135 O   0  0  0  0  0  0  0  0  0  0  0  0
  2  1  1  6
  2  3  1  0
  4  5  1  0
  4  3  1  0
  6  5  1  0
  7  6  1  0
  8 14  1  0
  8  2  1  0
  9  8  2  0
 11 10  1  6
 12 11  1  0
 13 11  1  0
 13 14  1  6
 15 16  2  0
 15 13  1  0
 17 18  1  0
 18 28  2  0
 19 18  1  0
 19 20  2  0
 20 21  1  0
 21 27  2  0
 21 22  1  0
 23 22  1  1
 23 25  1  0
 23 24  1  0
 24 15  1  0
 25 26  1  0
 28 27  1  0
 29 25  2  0
M  END
$$$$
