KTY.pdb
     RDKit          3D

 29 29  0  0  1  0  0  0  0  0999 V2000
    8.9958  -18.1164   17.4568 N   0  0  0  0  0  0  0  0  0  0  0  0
    9.7406  -16.8800   17.4681 C   0  0  1  0  0  0  0  0  0  0  0  0
    9.7049  -16.2365   16.1328 C   0  0  0  0  0  0  0  0  0  0  0  0
   10.2857  -17.1026   15.0699 C   0  0  0  0  0  0  0  0  0  0  0  0
   10.2940  -16.5738   13.6809 C   0  0  0  0  0  0  0  0  0  0  0  0
   11.6985  -16.0210   13.3278 C   0  0  0  0  0  0  0  0  0  0  0  0
   11.6876  -15.6273   11.9334 N   0  0  0  0  0  0  0  0  0  0  0  0
    9.2042  -16.0202   18.5477 C   0  0  0  0  0  0  0  0  0  0  0  0
    8.5295  -15.0147   18.2321 O   0  0  0  0  0  0  0  0  0  0  0  0
    6.6657  -14.9025   19.7098 C   0  0  0  0  0  0  0  0  0  0  0  0
    7.2528  -15.5837   20.9036 C   0  0  1  0  0  0  0  0  0  0  0  0
    6.8267  -16.9012   21.0581 O   0  0  0  0  0  0  0  0  0  0  0  0
    8.7641  -15.4874   20.9440 C   0  0  2  0  0  0  0  0  0  0  0  0
    9.4090  -16.2670   19.9330 N   0  0  0  0  0  0  0  0  0  0  0  0
    9.2454  -15.9268   22.2810 C   0  0  0  0  0  0  0  0  0  0  0  0
    9.6672  -17.1195   22.4599 O   0  0  0  0  0  0  0  0  0  0  0  0
   11.2273  -15.1467   30.9900 O   0  0  0  0  0  0  0  0  0  0  0  0
   10.8512  -14.9748   29.6623 C   0  0  0  0  0  0  0  0  0  0  0  0
   11.4719  -15.6476   28.6290 C   0  0  0  0  0  0  0  0  0  0  0  0
   11.0845  -15.4641   27.3146 C   0  0  0  0  0  0  0  0  0  0  0  0
   10.0583  -14.5947   27.0095 C   0  0  0  0  0  0  0  0  0  0  0  0
    9.5652  -14.3230   25.6560 C   0  0  0  0  0  0  0  0  0  0  0  0
    9.7051  -15.5046   24.7222 C   0  0  2  0  0  0  0  0  0  0  0  0
    9.2709  -15.0817   23.4191 N   0  0  0  0  0  0  0  0  0  0  0  0
    8.8954  -16.6008   25.2766 C   0  0  0  0  0  0  0  0  0  0  0  0
    7.5405  -16.6298   25.0603 O   0  0  0  0  0  0  0  0  0  0  0  0
    9.4537  -13.9340   28.0607 C   0  0  0  0  0  0  0  0  0  0  0  0
    9.8325  -14.1125   29.3538 C   0  0  0  0  0  0  0  0  0  0  0  0
    9.4407  -17.4982   25.9397 O   0  0  0  0  0  0  0  0  0  0  0  0
  2  1  1  6
  2  3  1  0
  4  5  1  0
  4  3  1  0
  6  5  1  0
  7  6  1  0
  8 14  1  0
  8  2  1  0
  9  8  2  0
 11 10  1  6
 12 11  1  0
 13 11  1  0
 13 14  1  6
 15 16  2  0
 15 13  1  0
 17 18  1  0
 18 28  2  0
 19 18  1  0
 19 20  2  0
 20 21  1  0
 21 27  2  0
 21 22  1  0
 23 22  1  1
 23 25  1  0
 23 24  1  0
 24 15  1  0
 25 26  1  0
 28 27  1  0
 29 25  2  0
M  END
$$$$
