NTI.pdb
     RDKit          3D

 24 23  0  0  1  0  0  0  0  0999 V2000
   11.2777  -18.7346   17.7549 N   0  0  0  0  0  0  0  0  0  0  0  0
   10.8093  -17.3611   17.6252 C   0  0  0  0  0  0  0  0  0  0  0  0
   11.4172  -16.6829   16.7777 O   0  0  0  0  0  0  0  0  0  0  0  0
    9.7222  -16.8648   18.4352 C   0  0  0  0  0  0  0  0  0  0  0  0
    9.0784  -17.8657   19.3436 C   0  0  2  0  0  0  0  0  0  0  0  0
    8.2323  -18.7475   18.4746 N   0  0  0  0  0  0  0  0  0  0  0  0
    8.1344  -17.3106   20.3226 C   0  0  0  0  0  0  0  0  0  0  0  0
    6.9096  -17.2346   20.0138 O   0  0  0  0  0  0  0  0  0  0  0  0
    6.0486  -18.2901   21.6766 C   0  0  0  0  0  0  0  0  0  0  0  0
    6.7884  -17.8086   22.9152 C   0  0  1  0  0  0  0  0  0  0  0  0
    7.5962  -18.7742   23.4670 O   0  0  0  0  0  0  0  0  0  0  0  0
    7.5227  -16.5136   22.6254 C   0  0  2  0  0  0  0  0  0  0  0  0
    8.5199  -16.8624   21.5910 N   0  0  0  0  0  0  0  0  0  0  0  0
    8.2439  -15.9914   23.7806 C   0  0  0  0  0  0  0  0  0  0  0  0
    9.4934  -16.1172   23.8806 O   0  0  0  0  0  0  0  0  0  0  0  0
    6.0765  -11.4708   25.9886 C   0  0  0  0  0  0  0  0  0  0  0  0
    7.0745  -12.4106   25.3401 C   0  0  0  0  0  0  0  0  0  0  0  0
    7.5378  -13.3832   26.3950 C   0  0  2  0  0  0  0  0  0  0  0  0
    8.4243  -12.6298   27.3601 C   0  0  0  0  0  0  0  0  0  0  0  0
    8.3588  -14.5095   25.8182 C   0  0  2  0  0  0  0  0  0  0  0  0
    7.6289  -15.3096   24.8751 N   0  0  0  0  0  0  0  0  0  0  0  0
    8.7850  -15.3718   26.9410 C   0  0  0  0  0  0  0  0  0  0  0  0
    9.9304  -15.1548   27.6944 O   0  0  0  0  0  0  0  0  0  0  0  0
    8.0790  -16.3626   27.2418 O   0  0  0  0  0  0  0  0  0  0  0  0
  1  2  1  0
  2  3  2  0
  4  2  1  0
  5  4  1  0
  5  7  1  0
  5  6  1  6
  7  8  2  0
 10  9  1  6
 10 11  1  0
 12 10  1  0
 13  7  1  0
 12 13  1  6
 14 12  1  0
 14 15  2  0
 16 17  1  0
 17 18  1  0
 18 19  1  1
 18 20  1  0
 20 21  1  6
 21 14  1  0
 22 23  1  0
 22 20  1  0
 24 22  2  0
M  END
$$$$
