NTI.pdb
     RDKit          3D

 24 23  0  0  1  0  0  0  0  0999 V2000
    4.8941  -22.8497   20.8369 N   0  0  0  0  0  0  0  0  0  0  0  0
    4.0663  -21.7236   21.2488 C   0  0  0  0  0  0  0  0  0  0  0  0
    3.5929  -21.0568   20.3111 O   0  0  0  0  0  0  0  0  0  0  0  0
    3.8379  -21.4379   22.6453 C   0  0  0  0  0  0  0  0  0  0  0  0
    4.1632  -20.0445   23.0857 C   0  0  2  0  0  0  0  0  0  0  0  0
    3.7479  -19.1361   21.9671 N   0  0  0  0  0  0  0  0  0  0  0  0
    5.5927  -19.7607   23.2697 C   0  0  0  0  0  0  0  0  0  0  0  0
    6.3961  -20.7304   23.3935 O   0  0  0  0  0  0  0  0  0  0  0  0
    7.9781  -20.2497   22.0451 C   0  0  0  0  0  0  0  0  0  0  0  0
    8.1737  -18.7451   22.1517 C   0  0  1  0  0  0  0  0  0  0  0  0
    7.7376  -18.0672   21.0383 O   0  0  0  0  0  0  0  0  0  0  0  0
    7.5707  -18.2212   23.4409 C   0  0  2  0  0  0  0  0  0  0  0  0
    6.1182  -18.4643   23.3105 N   0  0  0  0  0  0  0  0  0  0  0  0
    7.7670  -16.7878   23.6257 C   0  0  0  0  0  0  0  0  0  0  0  0
    7.5884  -15.9775   22.6778 O   0  0  0  0  0  0  0  0  0  0  0  0
    6.0260  -12.1330   26.5551 C   0  0  0  0  0  0  0  0  0  0  0  0
    7.2828  -12.6423   25.8762 C   0  0  0  0  0  0  0  0  0  0  0  0
    7.0649  -14.0968   25.5442 C   0  0  2  0  0  0  0  0  0  0  0  0
    6.6755  -14.8081   26.8199 C   0  0  0  0  0  0  0  0  0  0  0  0
    8.3150  -14.7616   25.0242 C   0  0  2  0  0  0  0  0  0  0  0  0
    8.1669  -16.1801   24.8554 N   0  0  0  0  0  0  0  0  0  0  0  0
    9.3942  -14.5114   26.0033 C   0  0  0  0  0  0  0  0  0  0  0  0
   10.0380  -13.2909   26.1531 O   0  0  0  0  0  0  0  0  0  0  0  0
    9.7603  -15.4492   26.7497 O   0  0  0  0  0  0  0  0  0  0  0  0
  1  2  1  0
  2  3  2  0
  4  2  1  0
  5  4  1  0
  5  7  1  0
  5  6  1  6
  7  8  2  0
 10  9  1  6
 10 11  1  0
 12 10  1  0
 13  7  1  0
 12 13  1  6
 14 12  1  0
 14 15  2  0
 16 17  1  0
 17 18  1  0
 18 19  1  1
 18 20  1  0
 20 21  1  1
 21 14  1  0
 22 23  1  0
 22 20  1  0
 24 22  2  0
M  END
$$$$
