NTI.pdb
     RDKit          3D

 24 23  0  0  1  0  0  0  0  0999 V2000
   13.3604  -19.3960   19.3440 N   0  0  0  0  0  0  0  0  0  0  0  0
   13.6094  -18.0439   19.8263 C   0  0  0  0  0  0  0  0  0  0  0  0
   14.8121  -17.7469   19.9413 O   0  0  0  0  0  0  0  0  0  0  0  0
   12.5186  -17.1501   20.1352 C   0  0  0  0  0  0  0  0  0  0  0  0
   11.1459  -17.6782   19.8555 C   0  0  2  0  0  0  0  0  0  0  0  0
   10.9274  -17.5361   18.3787 N   0  0  0  0  0  0  0  0  0  0  0  0
   10.0441  -16.9165   20.4585 C   0  0  0  0  0  0  0  0  0  0  0  0
    9.6353  -15.8702   19.8759 O   0  0  0  0  0  0  0  0  0  0  0  0
    5.9473  -17.0238   23.0457 C   0  0  0  0  0  0  0  0  0  0  0  0
    7.1813  -17.6267   22.3922 C   0  0  1  0  0  0  0  0  0  0  0  0
    6.8905  -18.3447   21.2566 O   0  0  0  0  0  0  0  0  0  0  0  0
    8.2375  -16.5617   22.1680 C   0  0  2  0  0  0  0  0  0  0  0  0
    9.4139  -17.2924   21.6501 N   0  0  0  0  0  0  0  0  0  0  0  0
    8.6397  -15.8844   23.3956 C   0  0  0  0  0  0  0  0  0  0  0  0
    9.6729  -16.2349   24.0254 O   0  0  0  0  0  0  0  0  0  0  0  0
    6.9050  -11.2272   27.1787 C   0  0  0  0  0  0  0  0  0  0  0  0
    7.7775  -12.4476   26.9570 C   0  0  0  0  0  0  0  0  0  0  0  0
    7.4469  -13.0038   25.5951 C   0  0  2  0  0  0  0  0  0  0  0  0
    6.0073  -13.4640   25.6215 C   0  0  0  0  0  0  0  0  0  0  0  0
    8.2937  -14.2010   25.2416 C   0  0  2  0  0  0  0  0  0  0  0  0
    7.9285  -14.7950   23.9861 N   0  0  0  0  0  0  0  0  0  0  0  0
    8.1146  -15.2060   26.3109 C   0  0  0  0  0  0  0  0  0  0  0  0
    8.9114  -15.2827   27.4449 O   0  0  0  0  0  0  0  0  0  0  0  0
    7.1913  -16.0463   26.2000 O   0  0  0  0  0  0  0  0  0  0  0  0
  1  2  1  0
  2  3  2  0
  4  2  1  0
  5  4  1  0
  5  7  1  0
  5  6  1  6
  7  8  2  0
 10  9  1  6
 10 11  1  0
 12 10  1  0
 13  7  1  0
 12 13  1  1
 14 12  1  0
 14 15  2  0
 16 17  1  0
 17 18  1  0
 18 19  1  1
 18 20  1  0
 20 21  1  6
 21 14  1  0
 22 23  1  0
 22 20  1  0
 24 22  2  0
M  END
$$$$
