NTI.pdb
     RDKit          3D

 24 23  0  0  1  0  0  0  0  0999 V2000
    7.2215  -20.6162   17.8130 N   0  0  0  0  0  0  0  0  0  0  0  0
    7.0819  -19.1828   18.0335 C   0  0  0  0  0  0  0  0  0  0  0  0
    7.5829  -18.4696   17.1456 O   0  0  0  0  0  0  0  0  0  0  0  0
    6.4084  -18.6707   19.2032 C   0  0  0  0  0  0  0  0  0  0  0  0
    7.1989  -17.7164   20.0433 C   0  0  2  0  0  0  0  0  0  0  0  0
    8.5409  -18.3496   20.2594 N   0  0  0  0  0  0  0  0  0  0  0  0
    6.6812  -17.4954   21.4002 C   0  0  0  0  0  0  0  0  0  0  0  0
    5.4648  -17.1778   21.5447 O   0  0  0  0  0  0  0  0  0  0  0  0
    6.0543  -19.6549   24.0673 C   0  0  0  0  0  0  0  0  0  0  0  0
    7.0152  -18.6327   24.6546 C   0  0  1  0  0  0  0  0  0  0  0  0
    8.3009  -19.1063   24.7651 O   0  0  0  0  0  0  0  0  0  0  0  0
    6.9273  -17.3232   23.8945 C   0  0  2  0  0  0  0  0  0  0  0  0
    7.4668  -17.6235   22.5511 N   0  0  0  0  0  0  0  0  0  0  0  0
    7.7457  -16.2654   24.4763 C   0  0  0  0  0  0  0  0  0  0  0  0
    8.8550  -15.9467   23.9713 O   0  0  0  0  0  0  0  0  0  0  0  0
    5.6701  -11.7249   26.5307 C   0  0  0  0  0  0  0  0  0  0  0  0
    6.6554  -12.6080   25.7898 C   0  0  0  0  0  0  0  0  0  0  0  0
    7.4571  -13.3622   26.8203 C   0  0  2  0  0  0  0  0  0  0  0  0
    8.4633  -12.4033   27.4146 C   0  0  0  0  0  0  0  0  0  0  0  0
    8.2314  -14.5092   26.2203 C   0  0  2  0  0  0  0  0  0  0  0  0
    7.3854  -15.5115   25.6353 N   0  0  0  0  0  0  0  0  0  0  0  0
    9.0214  -15.1304   27.3046 C   0  0  0  0  0  0  0  0  0  0  0  0
    8.7675  -16.3921   27.8245 O   0  0  0  0  0  0  0  0  0  0  0  0
    9.9814  -14.4903   27.7938 O   0  0  0  0  0  0  0  0  0  0  0  0
  1  2  1  0
  2  3  2  0
  4  2  1  0
  5  4  1  0
  5  7  1  0
  5  6  1  1
  7  8  2  0
 10  9  1  6
 10 11  1  0
 12 10  1  0
 13  7  1  0
 12 13  1  6
 14 12  1  0
 14 15  2  0
 16 17  1  0
 17 18  1  0
 18 19  1  6
 18 20  1  0
 20 21  1  1
 21 14  1  0
 22 23  1  0
 22 20  1  0
 24 22  2  0
M  END
$$$$
