NTI.pdb
     RDKit          3D

 24 23  0  0  1  0  0  0  0  0999 V2000
    8.9867  -12.8738   17.2080 N   0  0  0  0  0  0  0  0  0  0  0  0
    7.9167  -13.8129   17.5178 C   0  0  0  0  0  0  0  0  0  0  0  0
    7.4420  -14.4033   16.5309 O   0  0  0  0  0  0  0  0  0  0  0  0
    7.4714  -14.0136   18.8763 C   0  0  0  0  0  0  0  0  0  0  0  0
    8.2356  -15.0288   19.6679 C   0  0  2  0  0  0  0  0  0  0  0  0
    8.2565  -16.2827   18.8456 N   0  0  0  0  0  0  0  0  0  0  0  0
    7.6130  -15.4376   20.9341 C   0  0  0  0  0  0  0  0  0  0  0  0
    6.3653  -15.2835   21.0779 O   0  0  0  0  0  0  0  0  0  0  0  0
    7.0882  -18.2817   24.6933 C   0  0  0  0  0  0  0  0  0  0  0  0
    7.6224  -17.8204   23.3461 C   0  0  1  0  0  0  0  0  0  0  0  0
    6.9458  -18.3706   22.2836 O   0  0  0  0  0  0  0  0  0  0  0  0
    7.6863  -16.3061   23.2904 C   0  0  2  0  0  0  0  0  0  0  0  0
    8.3315  -15.9977   21.9964 N   0  0  0  0  0  0  0  0  0  0  0  0
    8.5085  -15.7268   24.3467 C   0  0  0  0  0  0  0  0  0  0  0  0
    9.7662  -15.7435   24.2773 O   0  0  0  0  0  0  0  0  0  0  0  0
    6.3191  -11.7079   26.9942 C   0  0  0  0  0  0  0  0  0  0  0  0
    7.5450  -12.3040   26.3298 C   0  0  0  0  0  0  0  0  0  0  0  0
    8.0943  -13.3633   27.2515 C   0  0  2  0  0  0  0  0  0  0  0  0
    9.1024  -12.7033   28.1642 C   0  0  0  0  0  0  0  0  0  0  0  0
    8.8149  -14.4580   26.5049 C   0  0  2  0  0  0  0  0  0  0  0  0
    7.9895  -15.1047   25.5236 N   0  0  0  0  0  0  0  0  0  0  0  0
    9.2480  -15.4648   27.4971 C   0  0  0  0  0  0  0  0  0  0  0  0
   10.5025  -15.4791   28.0910 O   0  0  0  0  0  0  0  0  0  0  0  0
    8.4441  -16.3663   27.8316 O   0  0  0  0  0  0  0  0  0  0  0  0
  1  2  1  0
  2  3  2  0
  4  2  1  0
  5  4  1  0
  5  7  1  0
  5  6  1  6
  7  8  2  0
 10  9  1  1
 10 11  1  0
 12 10  1  0
 13  7  1  0
 12 13  1  6
 14 12  1  0
 14 15  2  0
 16 17  1  0
 17 18  1  0
 18 19  1  1
 18 20  1  0
 20 21  1  6
 21 14  1  0
 22 23  1  0
 22 20  1  0
 24 22  2  0
M  END
$$$$
