EFI.pdb
     RDKit          3D

 29 29  0  0  1  0  0  0  0  0999 V2000
   10.2071  -16.8561   19.1244 N   0  0  0  0  0  0  0  0  0  0  0  0
   10.7850  -17.3675   20.3493 C   0  0  1  0  0  0  0  0  0  0  0  0
   12.2547  -17.5583   20.2761 C   0  0  0  0  0  0  0  0  0  0  0  0
   12.7526  -18.4909   19.2296 C   0  0  0  0  0  0  0  0  0  0  0  0
   14.2109  -18.7016   19.2938 C   0  0  0  0  0  0  0  0  0  0  0  0
   14.9860  -18.6147   18.3263 O   0  0  0  0  0  0  0  0  0  0  0  0
   10.4890  -16.4546   21.5017 C   0  0  0  0  0  0  0  0  0  0  0  0
   11.1555  -15.4005   21.6908 O   0  0  0  0  0  0  0  0  0  0  0  0
   14.7427  -19.0247   20.5582 O   0  0  0  0  0  0  0  0  0  0  0  0
    9.4443  -16.7710   22.4023 N   0  0  0  0  0  0  0  0  0  0  0  0
    9.0380  -15.8301   23.4829 C   0  0  1  0  0  0  0  0  0  0  0  0
    7.6176  -15.4843   23.3523 C   0  0  0  0  0  0  0  0  0  0  0  0
    7.1178  -14.5459   24.3438 C   0  0  0  0  0  0  0  0  0  0  0  0
    6.4974  -14.9530   25.4932 C   0  0  0  0  0  0  0  0  0  0  0  0
    6.0984  -14.0175   26.4140 C   0  0  0  0  0  0  0  0  0  0  0  0
    6.2983  -12.6574   26.2296 C   0  0  0  0  0  0  0  0  0  0  0  0
    6.9280  -12.2794   25.0582 C   0  0  0  0  0  0  0  0  0  0  0  0
    7.3256  -13.2009   24.1426 C   0  0  0  0  0  0  0  0  0  0  0  0
    9.5745  -16.3050   24.7621 C   0  0  0  0  0  0  0  0  0  0  0  0
   10.1266  -17.4724   24.8131 O   0  0  0  0  0  0  0  0  0  0  0  0
   10.2076  -13.0394   29.3775 C   0  0  0  0  0  0  0  0  0  0  0  0
   10.4977  -13.9014   28.1658 C   0  0  0  0  0  0  0  0  0  0  0  0
   10.1395  -15.3468   28.4206 C   0  0  2  0  0  0  0  0  0  0  0  0
   11.1948  -15.9001   29.3919 C   0  0  0  0  0  0  0  0  0  0  0  0
   10.1935  -16.1661   27.2006 C   0  0  2  0  0  0  0  0  0  0  0  0
    9.5791  -15.6232   26.0052 N   0  0  0  0  0  0  0  0  0  0  0  0
    9.6764  -17.5766   27.4123 C   0  0  0  0  0  0  0  0  0  0  0  0
    8.4622  -17.8522   27.2575 O   0  0  0  0  0  0  0  0  0  0  0  0
   10.5075  -18.6066   27.7797 O   0  0  0  0  0  0  0  0  0  0  0  0
  2  3  1  0
  2  1  1  6
  4  5  1  0
  4  3  1  0
  5  6  2  0
  7  2  1  0
  8  7  2  0
  9  5  1  0
 10  7  1  0
 11 10  1  0
 11 12  1  1
 12 13  1  0
 13 14  2  0
 14 15  1  0
 16 15  2  0
 17 16  1  0
 18 13  1  0
 18 17  2  0
 19 20  2  0
 19 11  1  0
 21 22  1  0
 22 23  1  0
 23 25  1  0
 23 24  1  1
 25 26  1  6
 26 19  1  0
 27 29  1  0
 27 25  1  0
 28 27  2  0
M  END
$$$$
