EFI.pdb
     RDKit          3D

 29 29  0  0  1  0  0  0  0  0999 V2000
   10.2757  -19.1051   21.0107 N   0  0  0  0  0  0  0  0  0  0  0  0
   11.3364  -18.1410   21.2147 C   0  0  1  0  0  0  0  0  0  0  0  0
   11.8658  -17.5674   19.9527 C   0  0  0  0  0  0  0  0  0  0  0  0
   10.9346  -17.5399   18.7930 C   0  0  0  0  0  0  0  0  0  0  0  0
   11.5426  -16.9598   17.5809 C   0  0  0  0  0  0  0  0  0  0  0  0
   10.9722  -16.8469   16.4827 O   0  0  0  0  0  0  0  0  0  0  0  0
   10.8711  -17.0103   22.0830 C   0  0  0  0  0  0  0  0  0  0  0  0
   11.6197  -16.0269   22.3354 O   0  0  0  0  0  0  0  0  0  0  0  0
   12.8712  -16.5061   17.7017 O   0  0  0  0  0  0  0  0  0  0  0  0
    9.5690  -17.0353   22.6365 N   0  0  0  0  0  0  0  0  0  0  0  0
    9.1195  -16.0044   23.6128 C   0  0  1  0  0  0  0  0  0  0  0  0
    7.7002  -15.6915   23.4088 C   0  0  0  0  0  0  0  0  0  0  0  0
    7.1685  -14.6487   24.2710 C   0  0  0  0  0  0  0  0  0  0  0  0
    6.4098  -14.9250   25.3755 C   0  0  0  0  0  0  0  0  0  0  0  0
    5.9851  -13.8968   26.1785 C   0  0  0  0  0  0  0  0  0  0  0  0
    6.2946  -12.5702   25.9172 C   0  0  0  0  0  0  0  0  0  0  0  0
    7.0627  -12.3252   24.7940 C   0  0  0  0  0  0  0  0  0  0  0  0
    7.4863  -13.3390   23.9951 C   0  0  0  0  0  0  0  0  0  0  0  0
    9.6215  -16.3519   24.9458 C   0  0  0  0  0  0  0  0  0  0  0  0
   10.4860  -17.3060   25.0586 O   0  0  0  0  0  0  0  0  0  0  0  0
   10.9195  -13.2395   28.1820 C   0  0  0  0  0  0  0  0  0  0  0  0
    9.5267  -13.8110   28.3510 C   0  0  0  0  0  0  0  0  0  0  0  0
    9.5708  -15.2972   28.6194 C   0  0  2  0  0  0  0  0  0  0  0  0
   10.6623  -15.5239   29.6780 C   0  0  0  0  0  0  0  0  0  0  0  0
    9.9453  -16.0756   27.4293 C   0  0  2  0  0  0  0  0  0  0  0  0
    9.2798  -15.7502   26.1833 N   0  0  0  0  0  0  0  0  0  0  0  0
    9.8531  -17.5738   27.6498 C   0  0  0  0  0  0  0  0  0  0  0  0
   10.8039  -18.2141   28.1598 O   0  0  0  0  0  0  0  0  0  0  0  0
    8.7335  -18.2906   27.3039 O   0  0  0  0  0  0  0  0  0  0  0  0
  2  3  1  0
  2  1  1  6
  4  5  1  0
  4  3  1  0
  5  6  2  0
  7  2  1  0
  8  7  2  0
  9  5  1  0
 10  7  1  0
 11 10  1  0
 11 12  1  1
 12 13  1  0
 13 14  2  0
 14 15  1  0
 16 15  2  0
 17 16  1  0
 18 13  1  0
 18 17  2  0
 19 20  2  0
 19 11  1  0
 21 22  1  0
 22 23  1  0
 23 25  1  0
 23 24  1  1
 25 26  1  6
 26 19  1  0
 27 29  1  0
 27 25  1  0
 28 27  2  0
M  END
$$$$
