EFI.pdb
     RDKit          3D

 29 29  0  0  1  0  0  0  0  0999 V2000
   11.4643  -16.6363   19.2380 N   0  0  0  0  0  0  0  0  0  0  0  0
   10.5866  -17.2581   20.2070 C   0  0  1  0  0  0  0  0  0  0  0  0
   11.0928  -18.5564   20.7168 C   0  0  0  0  0  0  0  0  0  0  0  0
   12.5604  -18.6568   20.9385 C   0  0  0  0  0  0  0  0  0  0  0  0
   12.9862  -20.0015   21.3695 C   0  0  0  0  0  0  0  0  0  0  0  0
   13.5144  -20.2644   22.4632 O   0  0  0  0  0  0  0  0  0  0  0  0
   10.3583  -16.3523   21.3801 C   0  0  0  0  0  0  0  0  0  0  0  0
   11.2586  -15.5684   21.7879 O   0  0  0  0  0  0  0  0  0  0  0  0
   12.7674  -21.0514   20.4554 O   0  0  0  0  0  0  0  0  0  0  0  0
    9.1129  -16.3678   22.0519 N   0  0  0  0  0  0  0  0  0  0  0  0
    8.8101  -15.4087   23.1502 C   0  0  1  0  0  0  0  0  0  0  0  0
    7.4521  -14.8726   23.0008 C   0  0  0  0  0  0  0  0  0  0  0  0
    7.0673  -13.8826   23.9934 C   0  0  0  0  0  0  0  0  0  0  0  0
    7.3161  -12.5468   23.8332 C   0  0  0  0  0  0  0  0  0  0  0  0
    6.8774  -11.6588   24.7825 C   0  0  0  0  0  0  0  0  0  0  0  0
    6.1828  -12.0597   25.9141 C   0  0  0  0  0  0  0  0  0  0  0  0
    5.9475  -13.4158   26.0457 C   0  0  0  0  0  0  0  0  0  0  0  0
    6.3793  -14.3001   25.1092 C   0  0  0  0  0  0  0  0  0  0  0  0
    9.2478  -15.9835   24.4261 C   0  0  0  0  0  0  0  0  0  0  0  0
    9.7963  -17.1536   24.4286 O   0  0  0  0  0  0  0  0  0  0  0  0
   11.2034  -14.0592   30.0289 C   0  0  0  0  0  0  0  0  0  0  0  0
   11.3047  -14.9975   28.8437 C   0  0  0  0  0  0  0  0  0  0  0  0
   10.3793  -14.5745   27.7268 C   0  0  2  0  0  0  0  0  0  0  0  0
    9.0373  -14.2052   28.3794 C   0  0  0  0  0  0  0  0  0  0  0  0
   10.1176  -15.6588   26.7685 C   0  0  2  0  0  0  0  0  0  0  0  0
    9.1562  -15.3998   25.7149 N   0  0  0  0  0  0  0  0  0  0  0  0
    9.7551  -16.9688   27.4425 C   0  0  0  0  0  0  0  0  0  0  0  0
   10.5490  -17.5326   28.2336 O   0  0  0  0  0  0  0  0  0  0  0  0
    8.5511  -17.5911   27.2187 O   0  0  0  0  0  0  0  0  0  0  0  0
  2  3  1  0
  2  1  1  6
  4  5  1  0
  4  3  1  0
  5  6  2  0
  7  2  1  0
  8  7  2  0
  9  5  1  0
 10  7  1  0
 11 10  1  0
 11 12  1  1
 12 13  1  0
 13 14  2  0
 14 15  1  0
 16 15  2  0
 17 16  1  0
 18 13  1  0
 18 17  2  0
 19 20  2  0
 19 11  1  0
 21 22  1  0
 22 23  1  0
 23 25  1  0
 23 24  1  1
 25 26  1  6
 26 19  1  0
 27 29  1  0
 27 25  1  0
 28 27  2  0
M  END
$$$$
