TTT.pdb
     RDKit          3D

 22 21  0  0  1  0  0  0  0  0999 V2000
   24.6766  -12.0302  -15.4666 C   0  0  0  0  0  0  0  0  0  0  0  0
   24.0730  -12.9022  -16.5473 C   0  0  1  0  0  0  0  0  0  0  0  0
   24.5846  -14.1812  -16.4035 O   0  0  0  0  0  0  0  0  0  0  0  0
   22.5805  -12.8340  -16.4060 C   0  0  2  0  0  0  0  0  0  0  0  0
   21.9587  -13.8526  -17.1920 N   0  0  0  0  0  0  0  0  0  0  0  0
   22.0229  -11.4831  -16.6120 C   0  0  0  0  0  0  0  0  0  0  0  0
   22.0572  -10.9812  -17.7457 O   0  0  0  0  0  0  0  0  0  0  0  0
   18.6547  -10.2401  -16.3702 C   0  0  0  0  0  0  0  0  0  0  0  0
   19.3979   -9.3417  -15.4087 C   0  0  1  0  0  0  0  0  0  0  0  0
   19.1098   -9.6779  -14.1231 O   0  0  0  0  0  0  0  0  0  0  0  0
   20.8558   -9.3955  -15.7742 C   0  0  2  0  0  0  0  0  0  0  0  0
   21.4372  -10.7073  -15.5676 N   0  0  0  0  0  0  0  0  0  0  0  0
   21.6578   -8.3150  -15.1907 C   0  0  0  0  0  0  0  0  0  0  0  0
   22.4365   -8.4586  -14.2073 O   0  0  0  0  0  0  0  0  0  0  0  0
   23.2608   -3.6213  -15.7450 C   0  0  0  0  0  0  0  0  0  0  0  0
   22.3863   -4.7518  -16.2403 C   0  0  1  0  0  0  0  0  0  0  0  0
   22.8509   -5.2024  -17.4707 O   0  0  0  0  0  0  0  0  0  0  0  0
   22.3091   -5.8814  -15.2390 C   0  0  2  0  0  0  0  0  0  0  0  0
   21.5785   -7.0111  -15.7417 N   0  0  0  0  0  0  0  0  0  0  0  0
   21.8543   -5.4366  -13.9158 C   0  0  0  0  0  0  0  0  0  0  0  0
   22.7622   -5.0488  -12.9561 O   0  0  0  0  0  0  0  0  0  0  0  0
   20.6361   -5.4069  -13.6515 O   0  0  0  0  0  0  0  0  0  0  0  0
  2  3  1  0
  2  1  1  1
  4  6  1  0
  4  2  1  0
  4  5  1  6
  6  7  2  0
  6 12  1  0
  9  8  1  6
  9 10  1  0
  9 11  1  0
 11 13  1  0
 11 12  1  1
 13 14  2  0
 13 19  1  0
 16 15  1  1
 16 17  1  0
 18 16  1  0
 18 20  1  0
 18 19  1  6
 20 21  1  0
 22 20  2  0
M  END
$$$$
