TTT.pdb
     RDKit          3D

 22 21  0  0  1  0  0  0  0  0999 V2000
   23.9149   -9.4561  -19.5127 C   0  0  0  0  0  0  0  0  0  0  0  0
   22.9496  -10.5806  -19.8230 C   0  0  1  0  0  0  0  0  0  0  0  0
   23.6540  -11.5882  -20.4608 O   0  0  0  0  0  0  0  0  0  0  0  0
   22.3236  -11.0127  -18.5294 C   0  0  2  0  0  0  0  0  0  0  0  0
   21.5894  -12.2250  -18.7118 N   0  0  0  0  0  0  0  0  0  0  0  0
   21.5704   -9.9441  -17.8447 C   0  0  0  0  0  0  0  0  0  0  0  0
   20.8312   -9.2034  -18.5106 O   0  0  0  0  0  0  0  0  0  0  0  0
   20.3982  -10.1443  -13.9382 C   0  0  0  0  0  0  0  0  0  0  0  0
   19.8123   -9.1366  -14.8999 C   0  0  1  0  0  0  0  0  0  0  0  0
   19.1292   -8.1744  -14.2243 O   0  0  0  0  0  0  0  0  0  0  0  0
   20.9328   -8.6366  -15.7696 C   0  0  2  0  0  0  0  0  0  0  0  0
   21.6431   -9.7081  -16.4394 N   0  0  0  0  0  0  0  0  0  0  0  0
   21.8278   -7.6855  -15.1021 C   0  0  0  0  0  0  0  0  0  0  0  0
   22.8987   -8.0077  -14.5161 O   0  0  0  0  0  0  0  0  0  0  0  0
   23.5966   -4.9193  -16.6839 C   0  0  0  0  0  0  0  0  0  0  0  0
   22.7821   -4.2754  -15.5839 C   0  0  1  0  0  0  0  0  0  0  0  0
   21.6890   -3.6144  -16.1324 O   0  0  0  0  0  0  0  0  0  0  0  0
   22.3459   -5.2832  -14.5454 C   0  0  2  0  0  0  0  0  0  0  0  0
   21.5004   -6.3061  -15.0949 N   0  0  0  0  0  0  0  0  0  0  0  0
   21.7894   -4.6531  -13.3418 C   0  0  0  0  0  0  0  0  0  0  0  0
   20.4630   -4.8203  -13.0123 O   0  0  0  0  0  0  0  0  0  0  0  0
   22.5186   -3.9589  -12.6063 O   0  0  0  0  0  0  0  0  0  0  0  0
  2  3  1  0
  2  1  1  1
  4  6  1  0
  4  2  1  0
  4  5  1  6
  6  7  2  0
  6 12  1  0
  9  8  1  1
  9 10  1  0
  9 11  1  0
 11 13  1  0
 11 12  1  1
 13 14  2  0
 13 19  1  0
 16 15  1  6
 16 17  1  0
 18 16  1  0
 18 20  1  0
 18 19  1  6
 20 21  1  0
 22 20  2  0
M  END
$$$$
