TTT.pdb
     RDKit          3D

 22 21  0  0  1  0  0  0  0  0999 V2000
   25.8652  -12.6284  -17.7433 C   0  0  0  0  0  0  0  0  0  0  0  0
   24.4342  -12.1643  -17.9152 C   0  0  1  0  0  0  0  0  0  0  0  0
   23.5991  -13.2345  -17.6410 O   0  0  0  0  0  0  0  0  0  0  0  0
   24.2241  -10.9907  -17.0037 C   0  0  2  0  0  0  0  0  0  0  0  0
   24.5594  -11.3384  -15.6589 N   0  0  0  0  0  0  0  0  0  0  0  0
   22.9041  -10.3477  -17.1534 C   0  0  0  0  0  0  0  0  0  0  0  0
   22.5699   -9.9042  -18.2625 O   0  0  0  0  0  0  0  0  0  0  0  0
   19.4261  -11.6205  -15.9193 C   0  0  0  0  0  0  0  0  0  0  0  0
   19.6134  -10.2165  -15.3923 C   0  0  1  0  0  0  0  0  0  0  0  0
   19.8498  -10.2378  -14.0534 O   0  0  0  0  0  0  0  0  0  0  0  0
   20.6827   -9.5607  -16.2219 C   0  0  2  0  0  0  0  0  0  0  0  0
   21.9744  -10.2034  -16.0809 N   0  0  0  0  0  0  0  0  0  0  0  0
   20.7479   -8.1035  -16.0681 C   0  0  0  0  0  0  0  0  0  0  0  0
   21.6129   -7.4996  -15.3745 O   0  0  0  0  0  0  0  0  0  0  0  0
   17.6964   -5.6432  -18.0333 C   0  0  0  0  0  0  0  0  0  0  0  0
   19.1425   -5.2267  -17.8808 C   0  0  1  0  0  0  0  0  0  0  0  0
   19.2311   -3.8399  -17.8364 O   0  0  0  0  0  0  0  0  0  0  0  0
   19.7815   -5.8538  -16.6632 C   0  0  2  0  0  0  0  0  0  0  0  0
   19.7933   -7.2886  -16.7275 N   0  0  0  0  0  0  0  0  0  0  0  0
   19.2357   -5.3325  -15.4039 C   0  0  0  0  0  0  0  0  0  0  0  0
   19.4847   -4.0352  -15.0156 O   0  0  0  0  0  0  0  0  0  0  0  0
   18.5392   -6.0654  -14.6742 O   0  0  0  0  0  0  0  0  0  0  0  0
  2  3  1  0
  2  1  1  1
  4  6  1  0
  4  2  1  0
  4  5  1  1
  6  7  2  0
  6 12  1  0
  9  8  1  6
  9 10  1  0
  9 11  1  0
 11 13  1  0
 11 12  1  1
 13 14  2  0
 13 19  1  0
 16 15  1  1
 16 17  1  0
 18 16  1  0
 18 20  1  0
 18 19  1  6
 20 21  1  0
 22 20  2  0
M  END
$$$$
