TTT.pdb
     RDKit          3D

 22 21  0  0  1  0  0  0  0  0999 V2000
   23.7554  -11.6105  -15.2256 C   0  0  0  0  0  0  0  0  0  0  0  0
   23.3280  -12.3542  -16.4732 C   0  0  1  0  0  0  0  0  0  0  0  0
   23.8328  -13.6419  -16.4004 O   0  0  0  0  0  0  0  0  0  0  0  0
   21.8299  -12.3005  -16.5440 C   0  0  2  0  0  0  0  0  0  0  0  0
   21.3527  -13.1116  -17.6193 N   0  0  0  0  0  0  0  0  0  0  0  0
   21.2805  -10.9308  -16.5267 C   0  0  0  0  0  0  0  0  0  0  0  0
   21.3578  -10.2354  -17.5509 O   0  0  0  0  0  0  0  0  0  0  0  0
   18.2384   -7.5125  -14.9772 C   0  0  0  0  0  0  0  0  0  0  0  0
   18.7034   -8.9461  -14.8654 C   0  0  1  0  0  0  0  0  0  0  0  0
   17.8350   -9.7793  -15.4984 O   0  0  0  0  0  0  0  0  0  0  0  0
   20.1221   -9.0015  -15.3614 C   0  0  2  0  0  0  0  0  0  0  0  0
   20.6557  -10.3492  -15.3835 N   0  0  0  0  0  0  0  0  0  0  0  0
   21.0197   -8.0406  -14.7115 C   0  0  0  0  0  0  0  0  0  0  0  0
   21.5300   -8.2047  -13.5684 O   0  0  0  0  0  0  0  0  0  0  0  0
   23.9113   -6.2503  -16.7644 C   0  0  0  0  0  0  0  0  0  0  0  0
   23.1084   -5.2323  -15.9852 C   0  0  1  0  0  0  0  0  0  0  0  0
   22.2898   -4.5156  -16.8507 O   0  0  0  0  0  0  0  0  0  0  0  0
   22.3028   -5.8788  -14.8817 C   0  0  2  0  0  0  0  0  0  0  0  0
   21.3582   -6.8381  -15.3819 N   0  0  0  0  0  0  0  0  0  0  0  0
   21.7067   -4.8986  -13.9656 C   0  0  0  0  0  0  0  0  0  0  0  0
   22.4869   -4.2316  -13.0479 O   0  0  0  0  0  0  0  0  0  0  0  0
   20.4832   -4.6627  -14.0132 O   0  0  0  0  0  0  0  0  0  0  0  0
  2  3  1  0
  2  1  1  1
  4  6  1  0
  4  2  1  0
  4  5  1  6
  6  7  2  0
  6 12  1  0
  9  8  1  6
  9 10  1  0
  9 11  1  0
 11 13  1  0
 11 12  1  1
 13 14  2  0
 13 19  1  0
 16 15  1  6
 16 17  1  0
 18 16  1  0
 18 20  1  0
 18 19  1  6
 20 21  1  0
 22 20  2  0
M  END
$$$$
