TTT.pdb
     RDKit          3D

 22 21  0  0  1  0  0  0  0  0999 V2000
   16.2159  -11.9892  -17.4196 C   0  0  0  0  0  0  0  0  0  0  0  0
   17.1396  -11.5004  -16.3240 C   0  0  1  0  0  0  0  0  0  0  0  0
   17.8554  -12.5867  -15.8486 O   0  0  0  0  0  0  0  0  0  0  0  0
   18.0043  -10.4208  -16.9061 C   0  0  2  0  0  0  0  0  0  0  0  0
   18.6897  -10.9017  -18.0640 N   0  0  0  0  0  0  0  0  0  0  0  0
   18.8755   -9.7561  -15.9174 C   0  0  0  0  0  0  0  0  0  0  0  0
   18.3824   -9.3473  -14.8552 O   0  0  0  0  0  0  0  0  0  0  0  0
   23.0058  -10.2752  -16.0401 C   0  0  0  0  0  0  0  0  0  0  0  0
   22.2860   -9.9404  -14.7541 C   0  0  1  0  0  0  0  0  0  0  0  0
   23.1618   -9.4697  -13.8266 O   0  0  0  0  0  0  0  0  0  0  0  0
   21.1546   -9.0110  -15.0976 C   0  0  2  0  0  0  0  0  0  0  0  0
   20.2738   -9.5521  -16.1139 N   0  0  0  0  0  0  0  0  0  0  0  0
   21.5769   -7.6349  -15.3791 C   0  0  0  0  0  0  0  0  0  0  0  0
   22.3015   -7.2992  -16.3570 O   0  0  0  0  0  0  0  0  0  0  0  0
   19.7309   -4.8170  -16.4408 C   0  0  0  0  0  0  0  0  0  0  0  0
   20.3081   -4.3702  -15.1159 C   0  0  1  0  0  0  0  0  0  0  0  0
   19.3208   -4.4012  -14.1375 O   0  0  0  0  0  0  0  0  0  0  0  0
   21.5016   -5.2057  -14.7137 C   0  0  2  0  0  0  0  0  0  0  0  0
   21.1628   -6.5877  -14.5177 N   0  0  0  0  0  0  0  0  0  0  0  0
   22.2482   -4.6250  -13.5908 C   0  0  0  0  0  0  0  0  0  0  0  0
   22.8707   -3.4037  -13.7196 O   0  0  0  0  0  0  0  0  0  0  0  0
   22.3235   -5.2376  -12.5074 O   0  0  0  0  0  0  0  0  0  0  0  0
  2  3  1  0
  2  1  1  6
  4  6  1  0
  4  2  1  0
  4  5  1  6
  6  7  2  0
  6 12  1  0
  9  8  1  6
  9 10  1  0
  9 11  1  0
 11 13  1  0
 11 12  1  6
 13 14  2  0
 13 19  1  0
 16 15  1  6
 16 17  1  0
 18 16  1  0
 18 20  1  0
 18 19  1  1
 20 21  1  0
 22 20  2  0
M  END
$$$$
