QAY.pdb
     RDKit          3D

 27 27  0  0  1  0  0  0  0  0999 V2000
   11.6559  -13.8999   19.9830 N   0  0  0  0  0  0  0  0  0  0  0  0
   11.0636  -12.9864   19.0597 C   0  0  0  0  0  0  0  0  0  0  0  0
   11.7574  -12.6474   18.0861 O   0  0  0  0  0  0  0  0  0  0  0  0
    9.7067  -12.4542   19.2196 C   0  0  0  0  0  0  0  0  0  0  0  0
    8.8081  -13.2423   20.1035 C   0  0  0  0  0  0  0  0  0  0  0  0
    8.4063  -14.5847   19.6081 C   0  0  2  0  0  0  0  0  0  0  0  0
    7.3084  -14.4320   18.6869 N   0  0  0  0  0  0  0  0  0  0  0  0
    8.0067  -15.4282   20.7725 C   0  0  0  0  0  0  0  0  0  0  0  0
    6.8451  -15.3106   21.2409 O   0  0  0  0  0  0  0  0  0  0  0  0
    8.7555  -18.6062   22.3236 C   0  0  0  0  0  0  0  0  0  0  0  0
    8.4873  -17.1249   22.4756 C   0  0  2  0  0  0  0  0  0  0  0  0
    8.9119  -16.3574   21.3580 N   0  0  0  0  0  0  0  0  0  0  0  0
    9.0972  -16.6950   23.7637 C   0  0  0  0  0  0  0  0  0  0  0  0
   10.2544  -16.1899   23.8398 O   0  0  0  0  0  0  0  0  0  0  0  0
    6.2746  -10.6593   25.6054 O   0  0  0  0  0  0  0  0  0  0  0  0
    6.6579  -11.9570   25.9889 C   0  0  0  0  0  0  0  0  0  0  0  0
    7.9798  -12.2290   26.2683 C   0  0  0  0  0  0  0  0  0  0  0  0
    8.2960  -13.5221   26.6399 C   0  0  0  0  0  0  0  0  0  0  0  0
    7.3443  -14.5151   26.7339 C   0  0  0  0  0  0  0  0  0  0  0  0
    7.7460  -15.8624   27.1332 C   0  0  0  0  0  0  0  0  0  0  0  0
    8.8390  -16.4481   26.2661 C   0  0  2  0  0  0  0  0  0  0  0  0
    8.3718  -16.8462   24.9767 N   0  0  0  0  0  0  0  0  0  0  0  0
    9.6073  -17.4962   26.9702 C   0  0  0  0  0  0  0  0  0  0  0  0
   10.5520  -17.2087   27.9370 O   0  0  0  0  0  0  0  0  0  0  0  0
    6.0241  -14.2448   26.4552 C   0  0  0  0  0  0  0  0  0  0  0  0
    5.7017  -12.9518   26.0826 C   0  0  0  0  0  0  0  0  0  0  0  0
    9.4089  -18.7020   26.6937 O   0  0  0  0  0  0  0  0  0  0  0  0
  2  1  1  0
  3  2  2  0
  4  2  1  0
  5  4  1  0
  6  5  1  0
  6  8  1  0
  6  7  1  6
  8  9  2  0
 11 10  1  6
 12  8  1  0
 12 11  1  0
 13 11  1  0
 13 14  2  0
 15 16  1  0
 16 17  2  0
 17 18  1  0
 19 18  2  0
 19 20  1  0
 21 20  1  1
 21 22  1  0
 22 13  1  0
 23 24  1  0
 23 21  1  0
 25 19  1  0
 26 16  1  0
 26 25  2  0
 27 23  2  0
M  END
$$$$
