QAY.pdb
     RDKit          3D

 27 27  0  0  1  0  0  0  0  0999 V2000
   10.3330  -17.9467   14.7819 N   0  0  0  0  0  0  0  0  0  0  0  0
   10.7511  -18.1719   16.1281 C   0  0  0  0  0  0  0  0  0  0  0  0
   11.8173  -17.6386   16.4787 O   0  0  0  0  0  0  0  0  0  0  0  0
    9.9861  -18.9858   17.0781 C   0  0  0  0  0  0  0  0  0  0  0  0
    8.9980  -18.2463   17.9067 C   0  0  0  0  0  0  0  0  0  0  0  0
    9.3125  -18.1209   19.3538 C   0  0  2  0  0  0  0  0  0  0  0  0
    8.5520  -19.1045   20.0829 N   0  0  0  0  0  0  0  0  0  0  0  0
    8.9640  -16.7417   19.8048 C   0  0  0  0  0  0  0  0  0  0  0  0
    9.7383  -15.7924   19.5189 O   0  0  0  0  0  0  0  0  0  0  0  0
    6.0661  -14.8716   21.2432 C   0  0  0  0  0  0  0  0  0  0  0  0
    7.5336  -15.1685   21.0254 C   0  0  2  0  0  0  0  0  0  0  0  0
    7.7779  -16.4842   20.5482 N   0  0  0  0  0  0  0  0  0  0  0  0
    8.2423  -14.8508   22.2953 C   0  0  0  0  0  0  0  0  0  0  0  0
    7.9824  -13.8244   22.9875 O   0  0  0  0  0  0  0  0  0  0  0  0
    6.2547  -20.5898   25.6951 O   0  0  0  0  0  0  0  0  0  0  0  0
    6.9290  -19.3610   25.5792 C   0  0  0  0  0  0  0  0  0  0  0  0
    8.1908  -19.2163   26.1142 C   0  0  0  0  0  0  0  0  0  0  0  0
    8.8035  -17.9859   25.9690 C   0  0  0  0  0  0  0  0  0  0  0  0
    8.1960  -16.9326   25.3194 C   0  0  0  0  0  0  0  0  0  0  0  0
    8.8998  -15.6573   25.2002 C   0  0  0  0  0  0  0  0  0  0  0  0
    9.8874  -15.6180   24.0544 C   0  0  2  0  0  0  0  0  0  0  0  0
    9.2594  -15.7197   22.7760 N   0  0  0  0  0  0  0  0  0  0  0  0
   11.0023  -16.5692   24.2469 C   0  0  0  0  0  0  0  0  0  0  0  0
   11.3555  -17.5093   23.2976 O   0  0  0  0  0  0  0  0  0  0  0  0
    6.9361  -17.0759   24.7848 C   0  0  0  0  0  0  0  0  0  0  0  0
    6.3178  -18.3056   24.9272 C   0  0  0  0  0  0  0  0  0  0  0  0
   11.6674  -16.5385   25.3082 O   0  0  0  0  0  0  0  0  0  0  0  0
  2  1  1  0
  3  2  2  0
  4  2  1  0
  5  4  1  0
  6  5  1  0
  6  8  1  0
  6  7  1  1
  8  9  2  0
 11 10  1  1
 12  8  1  0
 12 11  1  0
 13 11  1  0
 13 14  2  0
 15 16  1  0
 16 17  2  0
 17 18  1  0
 19 18  2  0
 19 20  1  0
 21 20  1  1
 21 22  1  0
 22 13  1  0
 23 24  1  0
 23 21  1  0
 25 19  1  0
 26 16  1  0
 26 25  2  0
 27 23  2  0
M  END
$$$$
