QAY.pdb
     RDKit          3D

 27 27  0  0  1  0  0  0  0  0999 V2000
    6.6110  -19.1466   27.9791 N   0  0  0  0  0  0  0  0  0  0  0  0
    7.5995  -19.3338   26.9664 C   0  0  0  0  0  0  0  0  0  0  0  0
    8.6587  -18.6967   27.0948 O   0  0  0  0  0  0  0  0  0  0  0  0
    7.4097  -20.2255   25.8180 C   0  0  0  0  0  0  0  0  0  0  0  0
    7.6145  -19.6049   24.4827 C   0  0  0  0  0  0  0  0  0  0  0  0
    6.4082  -19.0349   23.8279 C   0  0  2  0  0  0  0  0  0  0  0  0
    5.5739  -20.1157   23.3662 N   0  0  0  0  0  0  0  0  0  0  0  0
    6.8401  -18.1754   22.6869 C   0  0  0  0  0  0  0  0  0  0  0  0
    7.7211  -18.6054   21.8985 O   0  0  0  0  0  0  0  0  0  0  0  0
    5.9014  -14.9194   21.0606 C   0  0  0  0  0  0  0  0  0  0  0  0
    6.8229  -16.0478   21.4690 C   0  0  2  0  0  0  0  0  0  0  0  0
    6.2758  -16.8857   22.4773 N   0  0  0  0  0  0  0  0  0  0  0  0
    8.1297  -15.4391   21.8402 C   0  0  0  0  0  0  0  0  0  0  0  0
    8.8755  -14.8527   21.0034 O   0  0  0  0  0  0  0  0  0  0  0  0
    5.6093  -13.1503   28.0824 O   0  0  0  0  0  0  0  0  0  0  0  0
    6.6376  -13.2612   27.1294 C   0  0  0  0  0  0  0  0  0  0  0  0
    7.8880  -13.6941   27.5146 C   0  0  0  0  0  0  0  0  0  0  0  0
    8.8579  -13.7829   26.5340 C   0  0  0  0  0  0  0  0  0  0  0  0
    8.6071  -13.4571   25.2181 C   0  0  0  0  0  0  0  0  0  0  0  0
    9.6777  -13.5740   24.2303 C   0  0  0  0  0  0  0  0  0  0  0  0
    9.8213  -14.9676   23.6583 C   0  0  2  0  0  0  0  0  0  0  0  0
    8.5853  -15.5039   23.1850 N   0  0  0  0  0  0  0  0  0  0  0  0
   10.5516  -15.8720   24.5711 C   0  0  0  0  0  0  0  0  0  0  0  0
   10.0155  -17.0581   25.0355 O   0  0  0  0  0  0  0  0  0  0  0  0
    7.3589  -13.0247   24.8322 C   0  0  0  0  0  0  0  0  0  0  0  0
    6.3839  -12.9338   25.8098 C   0  0  0  0  0  0  0  0  0  0  0  0
   11.7061  -15.5691   24.9518 O   0  0  0  0  0  0  0  0  0  0  0  0
  2  1  1  0
  3  2  2  0
  4  2  1  0
  5  4  1  0
  6  5  1  0
  6  8  1  0
  6  7  1  6
  8  9  2  0
 11 10  1  1
 12  8  1  0
 12 11  1  0
 13 11  1  0
 13 14  2  0
 15 16  1  0
 16 17  2  0
 17 18  1  0
 19 18  2  0
 19 20  1  0
 21 20  1  1
 21 22  1  0
 22 13  1  0
 23 24  1  0
 23 21  1  0
 25 19  1  0
 26 16  1  0
 26 25  2  0
 27 23  2  0
M  END
$$$$
