QAY.pdb
     RDKit          3D

 27 27  0  0  1  0  0  0  0  0999 V2000
    5.3207  -18.4363   17.8056 N   0  0  0  0  0  0  0  0  0  0  0  0
    6.4273  -19.2566   18.1803 C   0  0  0  0  0  0  0  0  0  0  0  0
    6.1593  -20.3636   18.6772 O   0  0  0  0  0  0  0  0  0  0  0  0
    7.8238  -18.8466   18.0022 C   0  0  0  0  0  0  0  0  0  0  0  0
    8.0873  -17.3898   18.1372 C   0  0  0  0  0  0  0  0  0  0  0  0
    9.2865  -17.0065   18.9269 C   0  0  2  0  0  0  0  0  0  0  0  0
   10.3544  -17.9275   18.6293 N   0  0  0  0  0  0  0  0  0  0  0  0
    8.9412  -17.0478   20.3781 C   0  0  0  0  0  0  0  0  0  0  0  0
    8.1380  -16.1962   20.8386 O   0  0  0  0  0  0  0  0  0  0  0  0
    9.0834  -19.4165   23.2220 C   0  0  0  0  0  0  0  0  0  0  0  0
    9.1318  -18.0311   22.6158 C   0  0  2  0  0  0  0  0  0  0  0  0
    9.5016  -18.0284   21.2442 N   0  0  0  0  0  0  0  0  0  0  0  0
   10.0193  -17.2024   23.4770 C   0  0  0  0  0  0  0  0  0  0  0  0
   11.2683  -17.1191   23.2951 O   0  0  0  0  0  0  0  0  0  0  0  0
    4.9806  -12.3393   27.0958 O   0  0  0  0  0  0  0  0  0  0  0  0
    6.2266  -12.7803   26.6154 C   0  0  0  0  0  0  0  0  0  0  0  0
    7.3577  -12.6151   27.3852 C   0  0  0  0  0  0  0  0  0  0  0  0
    8.5534  -13.0683   26.8605 C   0  0  0  0  0  0  0  0  0  0  0  0
    8.6346  -13.6641   25.6200 C   0  0  0  0  0  0  0  0  0  0  0  0
    9.9309  -14.1218   25.1241 C   0  0  0  0  0  0  0  0  0  0  0  0
   10.2043  -15.5827   25.4087 C   0  0  2  0  0  0  0  0  0  0  0  0
    9.4679  -16.4617   24.5576 N   0  0  0  0  0  0  0  0  0  0  0  0
   10.0791  -15.9031   26.8462 C   0  0  0  0  0  0  0  0  0  0  0  0
    9.1462  -16.7983   27.3343 O   0  0  0  0  0  0  0  0  0  0  0  0
    7.5059  -13.8297   24.8503 C   0  0  0  0  0  0  0  0  0  0  0  0
    6.3060  -13.3779   25.3706 C   0  0  0  0  0  0  0  0  0  0  0  0
   10.8411  -15.3510   27.6733 O   0  0  0  0  0  0  0  0  0  0  0  0
  2  1  1  0
  3  2  2  0
  4  2  1  0
  5  4  1  0
  6  5  1  0
  6  8  1  0
  6  7  1  1
  8  9  2  0
 11 10  1  1
 12  8  1  0
 12 11  1  0
 13 11  1  0
 13 14  2  0
 15 16  1  0
 16 17  2  0
 17 18  1  0
 19 18  2  0
 19 20  1  0
 21 20  1  1
 21 22  1  0
 22 13  1  0
 23 24  1  0
 23 21  1  0
 25 19  1  0
 26 16  1  0
 26 25  2  0
 27 23  2  0
M  END
$$$$
