QAY.pdb
     RDKit          3D

 27 27  0  0  1  0  0  0  0  0999 V2000
    7.1355  -12.5700   20.1877 N   0  0  0  0  0  0  0  0  0  0  0  0
    7.8754  -13.1709   19.1251 C   0  0  0  0  0  0  0  0  0  0  0  0
    7.8175  -12.6106   18.0174 O   0  0  0  0  0  0  0  0  0  0  0  0
    8.6753  -14.3879   19.2952 C   0  0  0  0  0  0  0  0  0  0  0  0
    8.5375  -15.0680   20.6099 C   0  0  0  0  0  0  0  0  0  0  0  0
    9.2840  -16.3425   20.7751 C   0  0  2  0  0  0  0  0  0  0  0  0
    8.7469  -17.3190   19.8611 N   0  0  0  0  0  0  0  0  0  0  0  0
    9.1417  -16.8047   22.1869 C   0  0  0  0  0  0  0  0  0  0  0  0
    8.0177  -17.2021   22.5884 O   0  0  0  0  0  0  0  0  0  0  0  0
   10.8687  -18.5691   24.6658 C   0  0  0  0  0  0  0  0  0  0  0  0
   10.0753  -17.3092   24.3970 C   0  0  2  0  0  0  0  0  0  0  0  0
   10.2492  -16.8034   23.0809 N   0  0  0  0  0  0  0  0  0  0  0  0
   10.4222  -16.3318   25.4649 C   0  0  0  0  0  0  0  0  0  0  0  0
   11.3215  -15.4533   25.3246 O   0  0  0  0  0  0  0  0  0  0  0  0
    6.4043  -11.6363   24.1717 O   0  0  0  0  0  0  0  0  0  0  0  0
    6.9957  -12.4082   25.1878 C   0  0  0  0  0  0  0  0  0  0  0  0
    8.3378  -12.2650   25.4668 C   0  0  0  0  0  0  0  0  0  0  0  0
    8.8626  -13.0503   26.4758 C   0  0  0  0  0  0  0  0  0  0  0  0
    8.0939  -13.9467   27.1870 C   0  0  0  0  0  0  0  0  0  0  0  0
    8.7115  -14.7468   28.2426 C   0  0  0  0  0  0  0  0  0  0  0  0
    9.9632  -15.4709   27.7967 C   0  0  2  0  0  0  0  0  0  0  0  0
    9.7303  -16.3628   26.7061 N   0  0  0  0  0  0  0  0  0  0  0  0
   10.6814  -16.0913   28.9297 C   0  0  0  0  0  0  0  0  0  0  0  0
   11.0139  -17.4324   28.9601 O   0  0  0  0  0  0  0  0  0  0  0  0
    6.7537  -14.0906   26.9094 C   0  0  0  0  0  0  0  0  0  0  0  0
    6.2228  -13.3069   25.9002 C   0  0  0  0  0  0  0  0  0  0  0  0
   11.0118  -15.3896   29.9136 O   0  0  0  0  0  0  0  0  0  0  0  0
  2  1  1  0
  3  2  2  0
  4  2  1  0
  5  4  1  0
  6  5  1  0
  6  8  1  0
  6  7  1  6
  8  9  2  0
 11 10  1  6
 12  8  1  0
 12 11  1  0
 13 11  1  0
 13 14  2  0
 15 16  1  0
 16 17  2  0
 17 18  1  0
 19 18  2  0
 19 20  1  0
 21 20  1  1
 21 22  1  0
 22 13  1  0
 23 24  1  0
 23 21  1  0
 25 19  1  0
 26 16  1  0
 26 25  2  0
 27 23  2  0
M  END
$$$$
