QAY.pdb
     RDKit          3D

 27 27  0  0  1  0  0  0  0  0999 V2000
    6.1544  -20.7657   24.5282 N   0  0  0  0  0  0  0  0  0  0  0  0
    6.5561  -21.3371   23.2833 C   0  0  0  0  0  0  0  0  0  0  0  0
    6.7754  -22.5602   23.2747 O   0  0  0  0  0  0  0  0  0  0  0  0
    6.7119  -20.5511   22.0553 C   0  0  0  0  0  0  0  0  0  0  0  0
    6.4263  -19.0978   22.1828 C   0  0  0  0  0  0  0  0  0  0  0  0
    6.6167  -18.2778   20.9580 C   0  0  2  0  0  0  0  0  0  0  0  0
    6.8050  -19.1582   19.8325 N   0  0  0  0  0  0  0  0  0  0  0  0
    7.8077  -17.3987   21.1471 C   0  0  0  0  0  0  0  0  0  0  0  0
    8.4873  -17.0674   20.1417 O   0  0  0  0  0  0  0  0  0  0  0  0
    8.7392  -14.6021   21.9091 C   0  0  0  0  0  0  0  0  0  0  0  0
    9.1647  -15.9084   22.5429 C   0  0  2  0  0  0  0  0  0  0  0  0
    8.1849  -16.9317   22.4376 N   0  0  0  0  0  0  0  0  0  0  0  0
    9.5697  -15.6090   23.9437 C   0  0  0  0  0  0  0  0  0  0  0  0
   10.4666  -14.7650   24.2328 O   0  0  0  0  0  0  0  0  0  0  0  0
    5.9457  -11.0040   25.8028 O   0  0  0  0  0  0  0  0  0  0  0  0
    6.5756  -12.1967   26.2014 C   0  0  0  0  0  0  0  0  0  0  0  0
    7.7635  -12.1469   26.8984 C   0  0  0  0  0  0  0  0  0  0  0  0
    8.3352  -13.3512   27.2631 C   0  0  0  0  0  0  0  0  0  0  0  0
    7.7584  -14.5644   26.9531 C   0  0  0  0  0  0  0  0  0  0  0  0
    8.4152  -15.8017   27.3694 C   0  0  0  0  0  0  0  0  0  0  0  0
    9.4249  -16.3159   26.3663 C   0  0  2  0  0  0  0  0  0  0  0  0
    8.9393  -16.2848   25.0237 N   0  0  0  0  0  0  0  0  0  0  0  0
    9.9902  -17.6222   26.7644 C   0  0  0  0  0  0  0  0  0  0  0  0
    9.9739  -18.7279   25.9355 O   0  0  0  0  0  0  0  0  0  0  0  0
    6.5723  -14.6153   26.2573 C   0  0  0  0  0  0  0  0  0  0  0  0
    5.9953  -13.4126   25.8895 C   0  0  0  0  0  0  0  0  0  0  0  0
   10.5105  -17.7537   27.8965 O   0  0  0  0  0  0  0  0  0  0  0  0
  2  1  1  0
  3  2  2  0
  4  2  1  0
  5  4  1  0
  6  5  1  0
  6  8  1  0
  6  7  1  6
  8  9  2  0
 11 10  1  1
 12  8  1  0
 12 11  1  0
 13 11  1  0
 13 14  2  0
 15 16  1  0
 16 17  2  0
 17 18  1  0
 19 18  2  0
 19 20  1  0
 21 20  1  1
 21 22  1  0
 22 13  1  0
 23 24  1  0
 23 21  1  0
 25 19  1  0
 26 16  1  0
 26 25  2  0
 27 23  2  0
M  END
$$$$
