QAY.pdb
     RDKit          3D

 27 27  0  0  1  0  0  0  0  0999 V2000
    7.9571  -19.3601   15.9694 N   0  0  0  0  0  0  0  0  0  0  0  0
    6.7848  -19.6453   16.7324 C   0  0  0  0  0  0  0  0  0  0  0  0
    5.9218  -20.3538   16.1870 O   0  0  0  0  0  0  0  0  0  0  0  0
    6.5753  -19.1449   18.0946 C   0  0  0  0  0  0  0  0  0  0  0  0
    7.5643  -18.1416   18.5691 C   0  0  0  0  0  0  0  0  0  0  0  0
    7.8391  -18.1254   20.0296 C   0  0  2  0  0  0  0  0  0  0  0  0
    6.6101  -18.3808   20.7379 N   0  0  0  0  0  0  0  0  0  0  0  0
    8.3960  -16.7914   20.4003 C   0  0  0  0  0  0  0  0  0  0  0  0
    9.5060  -16.4399   19.9240 O   0  0  0  0  0  0  0  0  0  0  0  0
    7.2700  -13.5311   21.6580 C   0  0  0  0  0  0  0  0  0  0  0  0
    8.2752  -14.6608   21.6071 C   0  0  2  0  0  0  0  0  0  0  0  0
    7.6967  -15.9158   21.2779 N   0  0  0  0  0  0  0  0  0  0  0  0
    9.0070  -14.6603   22.9034 C   0  0  0  0  0  0  0  0  0  0  0  0
    9.7747  -13.7191   23.2571 O   0  0  0  0  0  0  0  0  0  0  0  0
    6.0116  -10.8070   26.7368 O   0  0  0  0  0  0  0  0  0  0  0  0
    6.6591  -12.0496   26.6162 C   0  0  0  0  0  0  0  0  0  0  0  0
    7.9854  -12.1710   26.9709 C   0  0  0  0  0  0  0  0  0  0  0  0
    8.5676  -13.4166   26.8307 C   0  0  0  0  0  0  0  0  0  0  0  0
    7.8693  -14.5070   26.3575 C   0  0  0  0  0  0  0  0  0  0  0  0
    8.5450  -15.7970   26.2341 C   0  0  0  0  0  0  0  0  0  0  0  0
    9.5077  -15.8647   25.0685 C   0  0  2  0  0  0  0  0  0  0  0  0
    8.8565  -15.7505   23.8028 N   0  0  0  0  0  0  0  0  0  0  0  0
   10.4198  -17.0237   25.1659 C   0  0  0  0  0  0  0  0  0  0  0  0
   10.5896  -17.9301   24.1366 O   0  0  0  0  0  0  0  0  0  0  0  0
    6.5450  -14.3872   26.0030 C   0  0  0  0  0  0  0  0  0  0  0  0
    5.9569  -13.1423   26.1413 C   0  0  0  0  0  0  0  0  0  0  0  0
   11.0755  -17.2103   26.2170 O   0  0  0  0  0  0  0  0  0  0  0  0
  2  1  1  0
  3  2  2  0
  4  2  1  0
  5  4  1  0
  6  5  1  0
  6  8  1  0
  6  7  1  1
  8  9  2  0
 11 10  1  1
 12  8  1  0
 12 11  1  0
 13 11  1  0
 13 14  2  0
 15 16  1  0
 16 17  2  0
 17 18  1  0
 19 18  2  0
 19 20  1  0
 21 20  1  1
 21 22  1  0
 22 13  1  0
 23 24  1  0
 23 21  1  0
 25 19  1  0
 26 16  1  0
 26 25  2  0
 27 23  2  0
M  END
$$$$
