QAY.pdb
     RDKit          3D

 27 27  0  0  1  0  0  0  0  0999 V2000
    8.0590  -16.8792   16.6433 N   0  0  0  0  0  0  0  0  0  0  0  0
    7.6231  -18.2379   16.6008 C   0  0  0  0  0  0  0  0  0  0  0  0
    7.5243  -18.7581   15.4766 O   0  0  0  0  0  0  0  0  0  0  0  0
    7.2997  -19.0125   17.8030 C   0  0  0  0  0  0  0  0  0  0  0  0
    8.4649  -19.4660   18.6071 C   0  0  0  0  0  0  0  0  0  0  0  0
    8.5667  -18.9220   19.9865 C   0  0  2  0  0  0  0  0  0  0  0  0
    7.4787  -18.0026   20.2063 N   0  0  0  0  0  0  0  0  0  0  0  0
    9.8813  -18.2316   20.1362 C   0  0  0  0  0  0  0  0  0  0  0  0
   10.9319  -18.8429   19.8119 O   0  0  0  0  0  0  0  0  0  0  0  0
   11.3998  -14.9694   20.1648 C   0  0  0  0  0  0  0  0  0  0  0  0
   11.2456  -16.3177   20.8336 C   0  0  2  0  0  0  0  0  0  0  0  0
    9.9657  -16.9018   20.6364 N   0  0  0  0  0  0  0  0  0  0  0  0
   11.6108  -16.1451   22.2663 C   0  0  0  0  0  0  0  0  0  0  0  0
   12.8077  -16.0343   22.6604 O   0  0  0  0  0  0  0  0  0  0  0  0
   10.4758  -14.9209   30.9413 O   0  0  0  0  0  0  0  0  0  0  0  0
   10.2695  -15.0245   29.5540 C   0  0  0  0  0  0  0  0  0  0  0  0
   10.3550  -13.9008   28.7606 C   0  0  0  0  0  0  0  0  0  0  0  0
   10.1427  -14.0646   27.4047 C   0  0  0  0  0  0  0  0  0  0  0  0
    9.8559  -15.2923   26.8471 C   0  0  0  0  0  0  0  0  0  0  0  0
    9.6427  -15.3964   25.4050 C   0  0  0  0  0  0  0  0  0  0  0  0
   10.8203  -15.9890   24.6622 C   0  0  2  0  0  0  0  0  0  0  0  0
   10.5923  -16.0989   23.2568 N   0  0  0  0  0  0  0  0  0  0  0  0
   11.3007  -17.2396   25.2866 C   0  0  0  0  0  0  0  0  0  0  0  0
   12.3179  -17.2658   26.2217 O   0  0  0  0  0  0  0  0  0  0  0  0
    9.7702  -16.4150   27.6382 C   0  0  0  0  0  0  0  0  0  0  0  0
    9.9819  -16.2570   28.9964 C   0  0  0  0  0  0  0  0  0  0  0  0
   10.7772  -18.3325   24.9684 O   0  0  0  0  0  0  0  0  0  0  0  0
  2  1  1  0
  3  2  2  0
  4  2  1  0
  5  4  1  0
  6  5  1  0
  6  8  1  0
  6  7  1  6
  8  9  2  0
 11 10  1  6
 12  8  1  0
 12 11  1  0
 13 11  1  0
 13 14  2  0
 15 16  1  0
 16 17  2  0
 17 18  1  0
 19 18  2  0
 19 20  1  0
 21 20  1  1
 21 22  1  0
 22 13  1  0
 23 24  1  0
 23 21  1  0
 25 19  1  0
 26 16  1  0
 26 25  2  0
 27 23  2  0
M  END
$$$$
