QAY.pdb
     RDKit          3D

 27 27  0  0  1  0  0  0  0  0999 V2000
    4.1586  -19.8644   21.9081 N   0  0  0  0  0  0  0  0  0  0  0  0
    5.5086  -20.2922   21.7285 C   0  0  0  0  0  0  0  0  0  0  0  0
    5.7488  -21.4913   21.9488 O   0  0  0  0  0  0  0  0  0  0  0  0
    6.5844  -19.3900   21.3054 C   0  0  0  0  0  0  0  0  0  0  0  0
    6.1981  -17.9642   21.1391 C   0  0  0  0  0  0  0  0  0  0  0  0
    6.5013  -17.3478   19.8211 C   0  0  2  0  0  0  0  0  0  0  0  0
    6.8108  -18.3928   18.8781 N   0  0  0  0  0  0  0  0  0  0  0  0
    7.6577  -16.4179   19.9788 C   0  0  0  0  0  0  0  0  0  0  0  0
    8.1832  -15.9179   18.9510 O   0  0  0  0  0  0  0  0  0  0  0  0
    8.0813  -13.6455   21.0824 C   0  0  0  0  0  0  0  0  0  0  0  0
    8.8911  -14.8751   21.4311 C   0  0  2  0  0  0  0  0  0  0  0  0
    8.1728  -16.0893   21.2643 N   0  0  0  0  0  0  0  0  0  0  0  0
    9.4233  -14.6783   22.8074 C   0  0  0  0  0  0  0  0  0  0  0  0
   10.2794  -13.7914   23.0913 O   0  0  0  0  0  0  0  0  0  0  0  0
    5.6595  -10.9064   26.5690 O   0  0  0  0  0  0  0  0  0  0  0  0
    6.4063  -12.0960   26.4978 C   0  0  0  0  0  0  0  0  0  0  0  0
    5.7934  -13.2707   26.1184 C   0  0  0  0  0  0  0  0  0  0  0  0
    6.5783  -14.4071   26.0667 C   0  0  0  0  0  0  0  0  0  0  0  0
    7.9213  -14.3896   26.3774 C   0  0  0  0  0  0  0  0  0  0  0  0
    8.6945  -15.6274   26.3018 C   0  0  0  0  0  0  0  0  0  0  0  0
    9.6367  -15.6789   25.1188 C   0  0  2  0  0  0  0  0  0  0  0  0
    8.9685  -15.5075   23.8685 N   0  0  0  0  0  0  0  0  0  0  0  0
   10.5222  -16.8615   25.1629 C   0  0  0  0  0  0  0  0  0  0  0  0
   10.6267  -17.7569   24.1154 O   0  0  0  0  0  0  0  0  0  0  0  0
    8.5345  -13.2173   26.7563 C   0  0  0  0  0  0  0  0  0  0  0  0
    7.7535  -12.0763   26.8099 C   0  0  0  0  0  0  0  0  0  0  0  0
   11.2155  -17.0795   26.1834 O   0  0  0  0  0  0  0  0  0  0  0  0
  2  1  1  0
  3  2  2  0
  4  2  1  0
  5  4  1  0
  6  5  1  0
  6  8  1  0
  6  7  1  6
  8  9  2  0
 11 10  1  1
 12  8  1  0
 12 11  1  0
 13 11  1  0
 13 14  2  0
 15 16  1  0
 16 17  2  0
 17 18  1  0
 19 18  2  0
 19 20  1  0
 21 20  1  1
 21 22  1  0
 22 13  1  0
 23 24  1  0
 23 21  1  0
 25 19  1  0
 26 16  1  0
 26 25  2  0
 27 23  2  0
M  END
$$$$
