YQL.pdb
     RDKit          3D

 30 30  0  0  1  0  0  0  0  0999 V2000
    7.4388  -13.2923   15.4324 O   0  0  0  0  0  0  0  0  0  0  0  0
    7.3540  -13.7982   16.7183 C   0  0  0  0  0  0  0  0  0  0  0  0
    7.7685  -13.0430   17.7924 C   0  0  0  0  0  0  0  0  0  0  0  0
    7.6844  -13.5467   19.0749 C   0  0  0  0  0  0  0  0  0  0  0  0
    7.1852  -14.8168   19.3259 C   0  0  0  0  0  0  0  0  0  0  0  0
    7.1158  -15.3107   20.7205 C   0  0  0  0  0  0  0  0  0  0  0  0
    8.5263  -15.2224   21.2930 C   0  0  2  0  0  0  0  0  0  0  0  0
    9.4716  -15.9429   20.4900 N   0  0  0  0  0  0  0  0  0  0  0  0
    8.5239  -15.8038   22.6564 C   0  0  0  0  0  0  0  0  0  0  0  0
    7.6122  -15.4761   23.4822 O   0  0  0  0  0  0  0  0  0  0  0  0
    6.7648  -15.5855   18.2480 C   0  0  0  0  0  0  0  0  0  0  0  0
    6.8609  -15.0577   16.9863 C   0  0  0  0  0  0  0  0  0  0  0  0
   10.2874  -20.8484   24.7382 N   0  0  0  0  0  0  0  0  0  0  0  0
   10.6457  -20.1739   25.9296 C   0  0  0  0  0  0  0  0  0  0  0  0
   10.7243  -20.8282   26.9904 O   0  0  0  0  0  0  0  0  0  0  0  0
   10.9228  -18.7254   25.9262 C   0  0  0  0  0  0  0  0  0  0  0  0
   10.7952  -18.2069   24.5353 C   0  0  0  0  0  0  0  0  0  0  0  0
    9.6789  -17.1739   24.4033 C   0  0  2  0  0  0  0  0  0  0  0  0
    9.5331  -16.7241   23.0460 N   0  0  0  0  0  0  0  0  0  0  0  0
   10.0429  -16.0620   25.3251 C   0  0  0  0  0  0  0  0  0  0  0  0
   11.2200  -15.6230   25.2577 O   0  0  0  0  0  0  0  0  0  0  0  0
    8.3163  -12.0575   25.6780 C   0  0  0  0  0  0  0  0  0  0  0  0
    7.5432  -13.1615   26.4179 C   0  0  2  0  0  0  0  0  0  0  0  0
    6.1898  -12.6208   26.7576 C   0  0  0  0  0  0  0  0  0  0  0  0
    8.3237  -13.6456   27.6046 C   0  0  0  0  0  0  0  0  0  0  0  0
    9.5436  -14.3814   27.1653 C   0  0  2  0  0  0  0  0  0  0  0  0
    9.1673  -15.4851   26.2477 N   0  0  0  0  0  0  0  0  0  0  0  0
   10.2048  -15.0208   28.3001 C   0  0  0  0  0  0  0  0  0  0  0  0
   10.2425  -16.3948   28.4148 O   0  0  0  0  0  0  0  0  0  0  0  0
   10.7522  -14.3540   29.1952 O   0  0  0  0  0  0  0  0  0  0  0  0
  2  3  2  0
  2  1  1  0
  4  3  1  0
  5  4  2  0
  6  5  1  0
  7  9  1  0
  7  6  1  0
  7  8  1  6
  9 10  2  0
 11  5  1  0
 11 12  2  0
 12  2  1  0
 14 15  2  0
 14 13  1  0
 16 14  1  0
 17 16  1  0
 18 17  1  6
 19 18  1  0
 19  9  1  0
 20 21  2  0
 20 18  1  0
 23 25  1  0
 23 22  1  1
 24 23  1  0
 26 25  1  1
 26 27  1  0
 27 20  1  0
 28 26  1  0
 28 29  1  0
 30 28  2  0
M  END
$$$$
