YQL.pdb
     RDKit          3D

 30 30  0  0  1  0  0  0  0  0999 V2000
    8.9040  -14.2438   14.6525 O   0  0  0  0  0  0  0  0  0  0  0  0
    8.4738  -14.2725   15.9680 C   0  0  0  0  0  0  0  0  0  0  0  0
    7.6579  -13.2763   16.4557 C   0  0  0  0  0  0  0  0  0  0  0  0
    7.2285  -13.3041   17.7673 C   0  0  0  0  0  0  0  0  0  0  0  0
    7.5985  -14.3242   18.6320 C   0  0  0  0  0  0  0  0  0  0  0  0
    7.1106  -14.3080   20.0304 C   0  0  0  0  0  0  0  0  0  0  0  0
    7.8358  -15.4296   20.7661 C   0  0  2  0  0  0  0  0  0  0  0  0
    7.6250  -16.7011   20.1366 N   0  0  0  0  0  0  0  0  0  0  0  0
    7.3216  -15.4984   22.1546 C   0  0  0  0  0  0  0  0  0  0  0  0
    7.1412  -14.4259   22.8161 O   0  0  0  0  0  0  0  0  0  0  0  0
    8.4215  -15.3333   18.1483 C   0  0  0  0  0  0  0  0  0  0  0  0
    8.8314  -15.2780   16.8411 C   0  0  0  0  0  0  0  0  0  0  0  0
    5.7929  -20.8689   25.2216 N   0  0  0  0  0  0  0  0  0  0  0  0
    7.0775  -20.3660   25.5374 C   0  0  0  0  0  0  0  0  0  0  0  0
    7.8899  -21.1152   26.1193 O   0  0  0  0  0  0  0  0  0  0  0  0
    7.4570  -18.9842   25.1890 C   0  0  0  0  0  0  0  0  0  0  0  0
    6.3169  -18.3256   24.4918 C   0  0  0  0  0  0  0  0  0  0  0  0
    6.6235  -16.8760   24.1237 C   0  0  2  0  0  0  0  0  0  0  0  0
    7.0294  -16.7541   22.7504 N   0  0  0  0  0  0  0  0  0  0  0  0
    7.6914  -16.4351   25.0639 C   0  0  0  0  0  0  0  0  0  0  0  0
    8.8693  -16.7910   24.8019 O   0  0  0  0  0  0  0  0  0  0  0  0
    8.1255  -12.3090   25.3928 C   0  0  0  0  0  0  0  0  0  0  0  0
    7.1941  -12.9206   26.4523 C   0  0  2  0  0  0  0  0  0  0  0  0
    6.3457  -11.8181   27.0041 C   0  0  0  0  0  0  0  0  0  0  0  0
    7.9893  -13.6578   27.4895 C   0  0  0  0  0  0  0  0  0  0  0  0
    8.5336  -14.9273   26.9286 C   0  0  2  0  0  0  0  0  0  0  0  0
    7.4663  -15.6604   26.2041 N   0  0  0  0  0  0  0  0  0  0  0  0
    8.9726  -15.8236   27.9953 C   0  0  0  0  0  0  0  0  0  0  0  0
    8.3457  -17.0342   28.2051 O   0  0  0  0  0  0  0  0  0  0  0  0
    9.9191  -15.5287   28.7454 O   0  0  0  0  0  0  0  0  0  0  0  0
  2  3  2  0
  2  1  1  0
  4  3  1  0
  5  4  2  0
  6  5  1  0
  7  9  1  0
  7  6  1  0
  7  8  1  6
  9 10  2  0
 11  5  1  0
 11 12  2  0
 12  2  1  0
 14 15  2  0
 14 13  1  0
 16 14  1  0
 17 16  1  0
 18 17  1  1
 19 18  1  0
 19  9  1  0
 20 21  2  0
 20 18  1  0
 23 25  1  0
 23 22  1  6
 24 23  1  0
 26 25  1  1
 26 27  1  0
 27 20  1  0
 28 26  1  0
 28 29  1  0
 30 28  2  0
M  END
$$$$
