YQL.pdb
     RDKit          3D

 30 30  0  0  1  0  0  0  0  0999 V2000
    9.9556  -12.1059   19.1694 O   0  0  0  0  0  0  0  0  0  0  0  0
    8.9418  -12.9639   19.5603 C   0  0  0  0  0  0  0  0  0  0  0  0
    8.2437  -13.6903   18.6218 C   0  0  0  0  0  0  0  0  0  0  0  0
    7.2328  -14.5459   19.0107 C   0  0  0  0  0  0  0  0  0  0  0  0
    6.8869  -14.7037   20.3452 C   0  0  0  0  0  0  0  0  0  0  0  0
    5.7944  -15.6347   20.7104 C   0  0  0  0  0  0  0  0  0  0  0  0
    6.3913  -17.0378   20.7176 C   0  0  2  0  0  0  0  0  0  0  0  0
    5.3848  -18.0443   20.5408 N   0  0  0  0  0  0  0  0  0  0  0  0
    7.0616  -17.2632   22.0202 C   0  0  0  0  0  0  0  0  0  0  0  0
    6.3673  -17.3361   23.0847 O   0  0  0  0  0  0  0  0  0  0  0  0
    7.5860  -13.9746   21.2987 C   0  0  0  0  0  0  0  0  0  0  0  0
    8.5847  -13.1330   20.8813 C   0  0  0  0  0  0  0  0  0  0  0  0
   13.0686  -19.1005   22.7650 N   0  0  0  0  0  0  0  0  0  0  0  0
   12.6452  -18.8896   24.0988 C   0  0  0  0  0  0  0  0  0  0  0  0
   13.4326  -19.1610   25.0294 O   0  0  0  0  0  0  0  0  0  0  0  0
   11.3007  -18.3594   24.3921 C   0  0  0  0  0  0  0  0  0  0  0  0
   10.5922  -18.0881   23.1099 C   0  0  0  0  0  0  0  0  0  0  0  0
    9.1696  -17.5804   23.3312 C   0  0  2  0  0  0  0  0  0  0  0  0
    8.4739  -17.3983   22.0868 N   0  0  0  0  0  0  0  0  0  0  0  0
    9.3064  -16.3045   24.0876 C   0  0  0  0  0  0  0  0  0  0  0  0
   10.4681  -15.8418   24.2266 O   0  0  0  0  0  0  0  0  0  0  0  0
    5.7931  -11.9482   26.8662 C   0  0  0  0  0  0  0  0  0  0  0  0
    7.1792  -12.5531   26.5892 C   0  0  2  0  0  0  0  0  0  0  0  0
    8.0726  -11.4487   26.1183 C   0  0  0  0  0  0  0  0  0  0  0  0
    7.0698  -13.7020   25.6301 C   0  0  0  0  0  0  0  0  0  0  0  0
    8.3918  -14.3692   25.4580 C   0  0  2  0  0  0  0  0  0  0  0  0
    8.2365  -15.6004   24.6445 N   0  0  0  0  0  0  0  0  0  0  0  0
    8.9248  -14.8117   26.7440 C   0  0  0  0  0  0  0  0  0  0  0  0
    8.4201  -15.9314   27.3717 O   0  0  0  0  0  0  0  0  0  0  0  0
    9.8446  -14.1991   27.3133 O   0  0  0  0  0  0  0  0  0  0  0  0
  2  3  2  0
  2  1  1  0
  4  3  1  0
  5  4  2  0
  6  5  1  0
  7  9  1  0
  7  6  1  0
  7  8  1  1
  9 10  2  0
 11  5  1  0
 11 12  2  0
 12  2  1  0
 14 15  2  0
 14 13  1  0
 16 14  1  0
 17 16  1  0
 18 17  1  6
 19 18  1  0
 19  9  1  0
 20 21  2  0
 20 18  1  0
 23 25  1  0
 23 22  1  6
 24 23  1  0
 26 25  1  1
 26 27  1  0
 27 20  1  0
 28 26  1  0
 28 29  1  0
 30 28  2  0
M  END
$$$$
