YQL.pdb
     RDKit          3D

 30 30  0  0  1  0  0  0  0  0999 V2000
    8.7484  -11.3674   23.2641 O   0  0  0  0  0  0  0  0  0  0  0  0
    8.4391  -12.4617   22.4744 C   0  0  0  0  0  0  0  0  0  0  0  0
    7.8431  -13.5731   23.0270 C   0  0  0  0  0  0  0  0  0  0  0  0
    7.5345  -14.6646   22.2403 C   0  0  0  0  0  0  0  0  0  0  0  0
    7.8100  -14.6819   20.8805 C   0  0  0  0  0  0  0  0  0  0  0  0
    7.4589  -15.8778   20.0803 C   0  0  0  0  0  0  0  0  0  0  0  0
    6.8043  -16.8723   21.0330 C   0  0  2  0  0  0  0  0  0  0  0  0
    5.4169  -16.5739   21.2416 N   0  0  0  0  0  0  0  0  0  0  0  0
    7.5027  -16.8107   22.3389 C   0  0  0  0  0  0  0  0  0  0  0  0
    6.8265  -16.7763   23.4169 O   0  0  0  0  0  0  0  0  0  0  0  0
    8.4113  -13.5648   20.3147 C   0  0  0  0  0  0  0  0  0  0  0  0
    8.7056  -12.4964   21.1220 C   0  0  0  0  0  0  0  0  0  0  0  0
   12.8884  -19.5608   21.6300 N   0  0  0  0  0  0  0  0  0  0  0  0
   12.4683  -18.3621   21.0059 C   0  0  0  0  0  0  0  0  0  0  0  0
   13.0623  -17.9806   19.9757 O   0  0  0  0  0  0  0  0  0  0  0  0
   11.3506  -17.5728   21.5560 C   0  0  0  0  0  0  0  0  0  0  0  0
   10.8734  -18.2126   22.8141 C   0  0  0  0  0  0  0  0  0  0  0  0
    9.6612  -17.4961   23.4038 C   0  0  2  0  0  0  0  0  0  0  0  0
    8.9218  -16.7900   22.3936 N   0  0  0  0  0  0  0  0  0  0  0  0
   10.1990  -16.5790   24.4471 C   0  0  0  0  0  0  0  0  0  0  0  0
   10.5699  -15.4371   24.0713 O   0  0  0  0  0  0  0  0  0  0  0  0
    9.4373  -13.2810   27.7634 C   0  0  0  0  0  0  0  0  0  0  0  0
    8.5590  -14.0337   26.7505 C   0  0  2  0  0  0  0  0  0  0  0  0
    7.1629  -13.5107   26.8808 C   0  0  0  0  0  0  0  0  0  0  0  0
    8.6777  -15.5161   26.9504 C   0  0  0  0  0  0  0  0  0  0  0  0
   10.1067  -15.9386   26.9050 C   0  0  2  0  0  0  0  0  0  0  0  0
   10.3146  -16.9066   25.7999 N   0  0  0  0  0  0  0  0  0  0  0  0
   10.4804  -16.6485   28.1258 C   0  0  0  0  0  0  0  0  0  0  0  0
   11.1559  -16.0036   29.1408 O   0  0  0  0  0  0  0  0  0  0  0  0
   10.2049  -17.8494   28.2911 O   0  0  0  0  0  0  0  0  0  0  0  0
  2  3  2  0
  2  1  1  0
  4  3  1  0
  5  4  2  0
  6  5  1  0
  7  9  1  0
  7  6  1  0
  7  8  1  1
  9 10  2  0
 11  5  1  0
 11 12  2  0
 12  2  1  0
 14 15  2  0
 14 13  1  0
 16 14  1  0
 17 16  1  0
 18 17  1  6
 19 18  1  0
 19  9  1  0
 20 21  2  0
 20 18  1  0
 23 25  1  0
 23 22  1  1
 24 23  1  0
 26 25  1  1
 26 27  1  0
 27 20  1  0
 28 26  1  0
 28 29  1  0
 30 28  2  0
M  END
$$$$
