YQL.pdb
     RDKit          3D

 30 30  0  0  1  0  0  0  0  0999 V2000
    8.2094  -12.2971   16.2100 O   0  0  0  0  0  0  0  0  0  0  0  0
    7.9253  -12.8978   17.4245 C   0  0  0  0  0  0  0  0  0  0  0  0
    7.0366  -13.9474   17.4913 C   0  0  0  0  0  0  0  0  0  0  0  0
    6.7528  -14.5469   18.7018 C   0  0  0  0  0  0  0  0  0  0  0  0
    7.3450  -14.1194   19.8815 C   0  0  0  0  0  0  0  0  0  0  0  0
    7.0067  -14.7964   21.1547 C   0  0  0  0  0  0  0  0  0  0  0  0
    7.6509  -16.1777   21.1072 C   0  0  2  0  0  0  0  0  0  0  0  0
    6.7959  -17.1412   20.4765 N   0  0  0  0  0  0  0  0  0  0  0  0
    7.9235  -16.6236   22.4942 C   0  0  0  0  0  0  0  0  0  0  0  0
    6.9607  -16.9927   23.2407 O   0  0  0  0  0  0  0  0  0  0  0  0
    8.2429  -13.0610   19.8233 C   0  0  0  0  0  0  0  0  0  0  0  0
    8.5043  -12.4862   18.6063 C   0  0  0  0  0  0  0  0  0  0  0  0
   12.5419  -20.2586   24.9382 N   0  0  0  0  0  0  0  0  0  0  0  0
   12.3784  -19.1283   25.7739 C   0  0  0  0  0  0  0  0  0  0  0  0
   13.3270  -18.7818   26.5087 O   0  0  0  0  0  0  0  0  0  0  0  0
   11.1144  -18.3686   25.7822 C   0  0  0  0  0  0  0  0  0  0  0  0
   10.8426  -17.8575   24.4094 C   0  0  0  0  0  0  0  0  0  0  0  0
    9.5601  -17.0321   24.3429 C   0  0  2  0  0  0  0  0  0  0  0  0
    9.2527  -16.6412   22.9944 N   0  0  0  0  0  0  0  0  0  0  0  0
    9.7873  -15.8560   25.2283 C   0  0  0  0  0  0  0  0  0  0  0  0
   10.6363  -15.0083   24.8495 O   0  0  0  0  0  0  0  0  0  0  0  0
    8.0123  -12.0784   26.0599 C   0  0  0  0  0  0  0  0  0  0  0  0
    7.2364  -13.2889   26.6046 C   0  0  2  0  0  0  0  0  0  0  0  0
    5.8604  -12.8237   26.9650 C   0  0  0  0  0  0  0  0  0  0  0  0
    7.9835  -13.9252   27.7398 C   0  0  0  0  0  0  0  0  0  0  0  0
    9.3074  -14.4317   27.2779 C   0  0  2  0  0  0  0  0  0  0  0  0
    9.1230  -15.6408   26.4378 N   0  0  0  0  0  0  0  0  0  0  0  0
   10.1266  -14.8593   28.4091 C   0  0  0  0  0  0  0  0  0  0  0  0
   10.4814  -16.1830   28.5655 O   0  0  0  0  0  0  0  0  0  0  0  0
   10.5294  -14.0514   29.2639 O   0  0  0  0  0  0  0  0  0  0  0  0
  2  3  2  0
  2  1  1  0
  4  3  1  0
  5  4  2  0
  6  5  1  0
  7  9  1  0
  7  6  1  0
  7  8  1  1
  9 10  2  0
 11  5  1  0
 11 12  2  0
 12  2  1  0
 14 15  2  0
 14 13  1  0
 16 14  1  0
 17 16  1  0
 18 17  1  6
 19 18  1  0
 19  9  1  0
 20 21  2  0
 20 18  1  0
 23 25  1  0
 23 22  1  1
 24 23  1  0
 26 25  1  1
 26 27  1  0
 27 20  1  0
 28 26  1  0
 28 29  1  0
 30 28  2  0
M  END
$$$$
