YQL.pdb
     RDKit          3D

 30 30  0  0  1  0  0  0  0  0999 V2000
    7.5764  -12.2742   17.1280 O   0  0  0  0  0  0  0  0  0  0  0  0
    7.7435  -12.9127   18.3450 C   0  0  0  0  0  0  0  0  0  0  0  0
    8.9935  -13.0112   18.9138 C   0  0  0  0  0  0  0  0  0  0  0  0
    9.1610  -13.6476   20.1272 C   0  0  0  0  0  0  0  0  0  0  0  0
    8.0893  -14.2048   20.8100 C   0  0  0  0  0  0  0  0  0  0  0  0
    8.3221  -14.8770   22.1092 C   0  0  0  0  0  0  0  0  0  0  0  0
    8.8069  -16.2887   21.7974 C   0  0  2  0  0  0  0  0  0  0  0  0
    7.8106  -17.0511   21.1021 N   0  0  0  0  0  0  0  0  0  0  0  0
    9.1236  -16.9756   23.0721 C   0  0  0  0  0  0  0  0  0  0  0  0
    8.2142  -17.6213   23.6856 O   0  0  0  0  0  0  0  0  0  0  0  0
    6.8246  -14.1100   20.2433 C   0  0  0  0  0  0  0  0  0  0  0  0
    6.6903  -13.4719   19.0373 C   0  0  0  0  0  0  0  0  0  0  0  0
   11.6958  -21.2804   24.5295 N   0  0  0  0  0  0  0  0  0  0  0  0
   11.8295  -20.5324   25.7233 C   0  0  0  0  0  0  0  0  0  0  0  0
   11.3430  -20.9915   26.7780 O   0  0  0  0  0  0  0  0  0  0  0  0
   12.5291  -19.2342   25.7297 C   0  0  0  0  0  0  0  0  0  0  0  0
   12.1129  -18.4491   24.5338 C   0  0  0  0  0  0  0  0  0  0  0  0
   10.8220  -17.6703   24.7737 C   0  0  2  0  0  0  0  0  0  0  0  0
   10.4359  -16.9169   23.6122 N   0  0  0  0  0  0  0  0  0  0  0  0
   11.0892  -16.7921   25.9468 C   0  0  0  0  0  0  0  0  0  0  0  0
   11.4606  -17.3525   27.0102 O   0  0  0  0  0  0  0  0  0  0  0  0
    6.5355  -13.5618   27.1314 C   0  0  0  0  0  0  0  0  0  0  0  0
    8.0108  -13.6817   27.5476 C   0  0  2  0  0  0  0  0  0  0  0  0
    8.5346  -12.2981   27.7730 C   0  0  0  0  0  0  0  0  0  0  0  0
    8.7823  -14.4693   26.5296 C   0  0  0  0  0  0  0  0  0  0  0  0
   10.1992  -14.6383   26.9612 C   0  0  2  0  0  0  0  0  0  0  0  0
   10.9538  -15.4020   25.9370 N   0  0  0  0  0  0  0  0  0  0  0  0
   10.2814  -15.4325   28.1845 C   0  0  0  0  0  0  0  0  0  0  0  0
   10.7049  -14.8662   29.3687 O   0  0  0  0  0  0  0  0  0  0  0  0
    9.9750  -16.6372   28.2005 O   0  0  0  0  0  0  0  0  0  0  0  0
  2  3  2  0
  2  1  1  0
  4  3  1  0
  5  4  2  0
  6  5  1  0
  7  9  1  0
  7  6  1  0
  7  8  1  1
  9 10  2  0
 11  5  1  0
 11 12  2  0
 12  2  1  0
 14 15  2  0
 14 13  1  0
 16 14  1  0
 17 16  1  0
 18 17  1  6
 19 18  1  0
 19  9  1  0
 20 21  2  0
 20 18  1  0
 23 25  1  0
 23 22  1  6
 24 23  1  0
 26 25  1  6
 26 27  1  0
 27 20  1  0
 28 26  1  0
 28 29  1  0
 30 28  2  0
M  END
$$$$
