YQL.pdb
     RDKit          3D

 30 30  0  0  1  0  0  0  0  0999 V2000
    6.7645  -11.7211   26.4725 O   0  0  0  0  0  0  0  0  0  0  0  0
    6.6180  -13.0272   26.0374 C   0  0  0  0  0  0  0  0  0  0  0  0
    5.5504  -13.7867   26.4605 C   0  0  0  0  0  0  0  0  0  0  0  0
    5.4037  -15.0890   26.0271 C   0  0  0  0  0  0  0  0  0  0  0  0
    6.3153  -15.6737   25.1598 C   0  0  0  0  0  0  0  0  0  0  0  0
    6.1126  -17.0748   24.7243 C   0  0  0  0  0  0  0  0  0  0  0  0
    6.1753  -17.0790   23.2007 C   0  0  2  0  0  0  0  0  0  0  0  0
    5.3923  -18.1418   22.6397 N   0  0  0  0  0  0  0  0  0  0  0  0
    7.5859  -17.2596   22.7829 C   0  0  0  0  0  0  0  0  0  0  0  0
    7.8562  -17.9579   21.7535 O   0  0  0  0  0  0  0  0  0  0  0  0
    7.3955  -14.9146   24.7278 C   0  0  0  0  0  0  0  0  0  0  0  0
    7.5139  -13.6243   25.1758 C   0  0  0  0  0  0  0  0  0  0  0  0
    8.6833  -12.6138   20.1580 N   0  0  0  0  0  0  0  0  0  0  0  0
    9.2073  -13.9038   19.9053 C   0  0  0  0  0  0  0  0  0  0  0  0
    9.9615  -14.0644   18.9228 O   0  0  0  0  0  0  0  0  0  0  0  0
    8.8736  -15.0422   20.7813 C   0  0  0  0  0  0  0  0  0  0  0  0
    9.3882  -14.7704   22.1528 C   0  0  0  0  0  0  0  0  0  0  0  0
    9.7742  -16.0503   22.8900 C   0  0  2  0  0  0  0  0  0  0  0  0
    8.6368  -16.6579   23.5249 N   0  0  0  0  0  0  0  0  0  0  0  0
   10.8186  -15.6530   23.8749 C   0  0  0  0  0  0  0  0  0  0  0  0
   11.3101  -14.5009   23.7565 O   0  0  0  0  0  0  0  0  0  0  0  0
   10.6641  -14.3355   28.3938 C   0  0  0  0  0  0  0  0  0  0  0  0
    9.7799  -14.2449   27.1392 C   0  0  2  0  0  0  0  0  0  0  0  0
    8.4756  -13.6330   27.5442 C   0  0  0  0  0  0  0  0  0  0  0  0
    9.6482  -15.5913   26.4899 C   0  0  0  0  0  0  0  0  0  0  0  0
   10.9845  -16.2357   26.3433 C   0  0  2  0  0  0  0  0  0  0  0  0
   11.2790  -16.4720   24.9083 N   0  0  0  0  0  0  0  0  0  0  0  0
   10.9998  -17.5548   26.9707 C   0  0  0  0  0  0  0  0  0  0  0  0
   11.7124  -17.7786   28.1303 O   0  0  0  0  0  0  0  0  0  0  0  0
   10.3761  -18.5143   26.4850 O   0  0  0  0  0  0  0  0  0  0  0  0
  2  3  2  0
  2  1  1  0
  4  3  1  0
  5  4  2  0
  6  5  1  0
  7  9  1  0
  7  6  1  0
  7  8  1  6
  9 10  2  0
 11  5  1  0
 11 12  2  0
 12  2  1  0
 14 15  2  0
 14 13  1  0
 16 14  1  0
 17 16  1  0
 18 17  1  1
 19 18  1  0
 19  9  1  0
 20 21  2  0
 20 18  1  0
 23 25  1  0
 23 22  1  1
 24 23  1  0
 26 25  1  6
 26 27  1  0
 27 20  1  0
 28 26  1  0
 28 29  1  0
 30 28  2  0
M  END
$$$$
