YQL.pdb
     RDKit          3D

 30 30  0  0  1  0  0  0  0  0999 V2000
    6.8048  -12.2132   17.4266 O   0  0  0  0  0  0  0  0  0  0  0  0
    7.1084  -12.9296   18.5717 C   0  0  0  0  0  0  0  0  0  0  0  0
    8.3896  -12.9265   19.0759 C   0  0  0  0  0  0  0  0  0  0  0  0
    8.6931  -13.6406   20.2176 C   0  0  0  0  0  0  0  0  0  0  0  0
    7.7303  -14.3787   20.8910 C   0  0  0  0  0  0  0  0  0  0  0  0
    8.1072  -15.1276   22.1120 C   0  0  0  0  0  0  0  0  0  0  0  0
    8.9473  -16.3175   21.6607 C   0  0  2  0  0  0  0  0  0  0  0  0
    8.1315  -17.3792   21.1463 N   0  0  0  0  0  0  0  0  0  0  0  0
    9.7113  -16.8289   22.8233 C   0  0  0  0  0  0  0  0  0  0  0  0
    9.2767  -17.8334   23.4734 O   0  0  0  0  0  0  0  0  0  0  0  0
    6.4350  -14.3874   20.3892 C   0  0  0  0  0  0  0  0  0  0  0  0
    6.1646  -13.6684   19.2535 C   0  0  0  0  0  0  0  0  0  0  0  0
   15.2298  -17.6222   23.2767 N   0  0  0  0  0  0  0  0  0  0  0  0
   15.0142  -17.6049   24.6753 C   0  0  0  0  0  0  0  0  0  0  0  0
   15.6593  -18.3979   25.3927 O   0  0  0  0  0  0  0  0  0  0  0  0
   14.0475  -16.6707   25.2815 C   0  0  0  0  0  0  0  0  0  0  0  0
   13.1619  -16.1241   24.2152 C   0  0  0  0  0  0  0  0  0  0  0  0
   11.7672  -16.7440   24.2476 C   0  0  2  0  0  0  0  0  0  0  0  0
   10.9251  -16.2044   23.2154 N   0  0  0  0  0  0  0  0  0  0  0  0
   11.2307  -16.4668   25.6092 C   0  0  0  0  0  0  0  0  0  0  0  0
   11.8687  -16.9404   26.5846 O   0  0  0  0  0  0  0  0  0  0  0  0
    9.3302  -12.5128   27.0880 C   0  0  0  0  0  0  0  0  0  0  0  0
    8.3892  -13.4825   26.3545 C   0  0  2  0  0  0  0  0  0  0  0  0
    7.1017  -12.7633   26.1002 C   0  0  0  0  0  0  0  0  0  0  0  0
    8.2347  -14.7559   27.1332 C   0  0  0  0  0  0  0  0  0  0  0  0
    9.5369  -15.4759   27.2246 C   0  0  2  0  0  0  0  0  0  0  0  0
   10.0769  -15.7224   25.8647 N   0  0  0  0  0  0  0  0  0  0  0  0
    9.3625  -16.7965   27.8242 C   0  0  0  0  0  0  0  0  0  0  0  0
    9.3642  -17.9338   27.0440 O   0  0  0  0  0  0  0  0  0  0  0  0
    9.2075  -16.9401   29.0494 O   0  0  0  0  0  0  0  0  0  0  0  0
  2  3  2  0
  2  1  1  0
  4  3  1  0
  5  4  2  0
  6  5  1  0
  7  9  1  0
  7  6  1  0
  7  8  1  1
  9 10  2  0
 11  5  1  0
 11 12  2  0
 12  2  1  0
 14 15  2  0
 14 13  1  0
 16 14  1  0
 17 16  1  0
 18 17  1  1
 19 18  1  0
 19  9  1  0
 20 21  2  0
 20 18  1  0
 23 25  1  0
 23 22  1  1
 24 23  1  0
 26 25  1  6
 26 27  1  0
 27 20  1  0
 28 26  1  0
 28 29  1  0
 30 28  2  0
M  END
$$$$
