MTT.pdb
     RDKit          3D

 23 22  0  0  1  0  0  0  0  0999 V2000
   20.2877  -26.8969  -12.3693 C   0  0  0  0  0  0  0  0  0  0  0  0
   20.8446  -25.2140  -12.2658 S   0  0  0  0  0  0  0  0  0  0  0  0
   22.1443  -24.7763  -13.4046 C   0  0  0  0  0  0  0  0  0  0  0  0
   22.5493  -23.3519  -13.3920 C   0  0  0  0  0  0  0  0  0  0  0  0
   23.5784  -23.0209  -14.4312 C   0  0  2  0  0  0  0  0  0  0  0  0
   24.8579  -23.5498  -14.0033 N   0  0  0  0  0  0  0  0  0  0  0  0
   23.6392  -21.5129  -14.4926 C   0  0  0  0  0  0  0  0  0  0  0  0
   24.2202  -20.8716  -13.5815 O   0  0  0  0  0  0  0  0  0  0  0  0
   25.1043  -19.8136  -17.3650 C   0  0  0  0  0  0  0  0  0  0  0  0
   23.7935  -19.1713  -17.0745 C   0  0  1  0  0  0  0  0  0  0  0  0
   22.8618  -19.7716  -17.9584 O   0  0  0  0  0  0  0  0  0  0  0  0
   23.2587  -19.3702  -15.6840 C   0  0  2  0  0  0  0  0  0  0  0  0
   23.0529  -20.8244  -15.5575 N   0  0  0  0  0  0  0  0  0  0  0  0
   21.9833  -18.7323  -15.3939 C   0  0  0  0  0  0  0  0  0  0  0  0
   20.9666  -19.4116  -15.1251 O   0  0  0  0  0  0  0  0  0  0  0  0
   21.4918  -14.6865  -16.4776 C   0  0  0  0  0  0  0  0  0  0  0  0
   20.8525  -15.1273  -15.1944 C   0  0  1  0  0  0  0  0  0  0  0  0
   19.6529  -14.4536  -15.0161 O   0  0  0  0  0  0  0  0  0  0  0  0
   20.6009  -16.6335  -15.1774 C   0  0  2  0  0  0  0  0  0  0  0  0
   21.8587  -17.3235  -15.4068 N   0  0  0  0  0  0  0  0  0  0  0  0
   19.6033  -16.9923  -16.2162 C   0  0  0  0  0  0  0  0  0  0  0  0
   18.2448  -16.9792  -15.9472 O   0  0  0  0  0  0  0  0  0  0  0  0
   19.9725  -17.3187  -17.3723 O   0  0  0  0  0  0  0  0  0  0  0  0
  2  3  1  0
  2  1  1  0
  3  4  1  0
  4  5  1  0
  5  7  1  0
  5  6  1  1
  7  8  2  0
 10  9  1  1
 10 12  1  0
 11 10  1  0
 12 14  1  0
 13  7  1  0
 12 13  1  6
 14 15  2  0
 17 16  1  6
 17 18  1  0
 17 19  1  0
 19 21  1  0
 19 20  1  6
 20 14  1  0
 21 23  2  0
 21 22  1  0
M  END
$$$$
