MTT.pdb
     RDKit          3D

 23 22  0  0  1  0  0  0  0  0999 V2000
   28.5526  -20.7766   -4.2365 C   0  0  0  0  0  0  0  0  0  0  0  0
   28.4980  -19.2768   -5.1856 S   0  0  0  0  0  0  0  0  0  0  0  0
   27.1123  -19.1361   -6.2981 C   0  0  0  0  0  0  0  0  0  0  0  0
   27.1686  -20.0018   -7.4984 C   0  0  0  0  0  0  0  0  0  0  0  0
   25.9407  -19.9068   -8.3536 C   0  0  2  0  0  0  0  0  0  0  0  0
   24.9259  -20.7866   -7.8094 N   0  0  0  0  0  0  0  0  0  0  0  0
   26.3512  -20.3822   -9.7274 C   0  0  0  0  0  0  0  0  0  0  0  0
   27.0244  -21.4360   -9.8505 O   0  0  0  0  0  0  0  0  0  0  0  0
   25.7078  -22.5152  -11.2511 C   0  0  0  0  0  0  0  0  0  0  0  0
   25.3973  -21.4683  -12.2624 C   0  0  1  0  0  0  0  0  0  0  0  0
   24.0616  -21.0668  -12.0091 O   0  0  0  0  0  0  0  0  0  0  0  0
   26.2403  -20.2254  -12.2009 C   0  0  2  0  0  0  0  0  0  0  0  0
   25.9871  -19.6570  -10.8646 N   0  0  0  0  0  0  0  0  0  0  0  0
   25.9214  -19.1898  -13.1722 C   0  0  0  0  0  0  0  0  0  0  0  0
   25.1082  -18.2772  -12.9013 O   0  0  0  0  0  0  0  0  0  0  0  0
   28.6645  -17.2874  -15.3578 C   0  0  0  0  0  0  0  0  0  0  0  0
   27.6017  -17.9125  -16.2117 C   0  0  1  0  0  0  0  0  0  0  0  0
   28.0575  -19.1242  -16.7105 O   0  0  0  0  0  0  0  0  0  0  0  0
   26.3083  -18.1348  -15.4306 C   0  0  2  0  0  0  0  0  0  0  0  0
   26.5246  -19.1862  -14.4515 N   0  0  0  0  0  0  0  0  0  0  0  0
   25.2100  -18.4962  -16.3612 C   0  0  0  0  0  0  0  0  0  0  0  0
   24.6396  -17.5565  -17.2038 O   0  0  0  0  0  0  0  0  0  0  0  0
   24.7697  -19.6724  -16.4056 O   0  0  0  0  0  0  0  0  0  0  0  0
  2  3  1  0
  2  1  1  0
  3  4  1  0
  4  5  1  0
  5  7  1  0
  5  6  1  1
  7  8  2  0
 10  9  1  1
 10 12  1  0
 11 10  1  0
 12 14  1  0
 13  7  1  0
 12 13  1  1
 14 15  2  0
 17 16  1  1
 17 18  1  0
 17 19  1  0
 19 21  1  0
 19 20  1  1
 20 14  1  0
 21 23  2  0
 21 22  1  0
M  END
$$$$
