MTT.pdb
     RDKit          3D

 23 22  0  0  1  0  0  0  0  0999 V2000
   18.7832  -14.6948  -14.3551 C   0  0  0  0  0  0  0  0  0  0  0  0
   19.5435  -15.7215  -15.5883 S   0  0  0  0  0  0  0  0  0  0  0  0
   19.7748  -14.9486  -17.1779 C   0  0  0  0  0  0  0  0  0  0  0  0
   20.0138  -13.4874  -17.1470 C   0  0  0  0  0  0  0  0  0  0  0  0
   20.1828  -12.8873  -18.5106 C   0  0  2  0  0  0  0  0  0  0  0  0
   20.9524  -13.8026  -19.3292 N   0  0  0  0  0  0  0  0  0  0  0  0
   20.9540  -11.6042  -18.3091 C   0  0  0  0  0  0  0  0  0  0  0  0
   22.2104  -11.6216  -18.3089 O   0  0  0  0  0  0  0  0  0  0  0  0
   20.8597   -8.8685  -20.5591 C   0  0  0  0  0  0  0  0  0  0  0  0
   20.5666   -8.3167  -19.2083 C   0  0  1  0  0  0  0  0  0  0  0  0
   19.1536   -8.2582  -19.1102 O   0  0  0  0  0  0  0  0  0  0  0  0
   21.0459   -9.1390  -18.0450 C   0  0  2  0  0  0  0  0  0  0  0  0
   20.2789  -10.3954  -18.1225 N   0  0  0  0  0  0  0  0  0  0  0  0
   20.8085   -8.5753  -16.7246 C   0  0  0  0  0  0  0  0  0  0  0  0
   19.9223   -9.0404  -15.9724 O   0  0  0  0  0  0  0  0  0  0  0  0
   22.3148   -5.1803  -13.3722 C   0  0  0  0  0  0  0  0  0  0  0  0
   22.4363   -5.8057  -14.7300 C   0  0  1  0  0  0  0  0  0  0  0  0
   23.6737   -6.4213  -14.8503 O   0  0  0  0  0  0  0  0  0  0  0  0
   21.3298   -6.8278  -14.9817 C   0  0  2  0  0  0  0  0  0  0  0  0
   21.5759   -7.4843  -16.2542 N   0  0  0  0  0  0  0  0  0  0  0  0
   20.0075   -6.1535  -14.9812 C   0  0  0  0  0  0  0  0  0  0  0  0
   19.2116   -6.1265  -13.8480 O   0  0  0  0  0  0  0  0  0  0  0  0
   19.5773   -5.5875  -16.0176 O   0  0  0  0  0  0  0  0  0  0  0  0
  2  3  1  0
  2  1  1  0
  3  4  1  0
  4  5  1  0
  5  7  1  0
  5  6  1  6
  7  8  2  0
 10  9  1  6
 10 12  1  0
 11 10  1  0
 12 14  1  0
 13  7  1  0
 12 13  1  1
 14 15  2  0
 17 16  1  1
 17 18  1  0
 17 19  1  0
 19 21  1  0
 19 20  1  6
 20 14  1  0
 21 23  2  0
 21 22  1  0
M  END
$$$$
