MTT.pdb
     RDKit          3D

 23 22  0  0  1  0  0  0  0  0999 V2000
   27.5098  -17.9522   -6.7823 C   0  0  0  0  0  0  0  0  0  0  0  0
   28.0534  -19.5998   -7.1608 S   0  0  0  0  0  0  0  0  0  0  0  0
   26.8547  -20.6171   -8.0010 C   0  0  0  0  0  0  0  0  0  0  0  0
   25.9058  -19.8919   -8.8766 C   0  0  0  0  0  0  0  0  0  0  0  0
   24.8989  -20.7910   -9.5294 C   0  0  2  0  0  0  0  0  0  0  0  0
   24.9755  -22.1000   -8.9125 N   0  0  0  0  0  0  0  0  0  0  0  0
   25.3012  -20.8824  -10.9826 C   0  0  0  0  0  0  0  0  0  0  0  0
   26.2716  -21.6060  -11.3197 O   0  0  0  0  0  0  0  0  0  0  0  0
   23.6854  -22.8881  -12.6199 C   0  0  0  0  0  0  0  0  0  0  0  0
   23.4941  -21.6507  -13.4246 C   0  0  1  0  0  0  0  0  0  0  0  0
   22.3378  -21.0204  -12.8999 O   0  0  0  0  0  0  0  0  0  0  0  0
   24.6059  -20.6418  -13.3519 C   0  0  2  0  0  0  0  0  0  0  0  0
   24.6007  -20.1666  -11.9565 N   0  0  0  0  0  0  0  0  0  0  0  0
   24.4601  -19.4698  -14.2020 C   0  0  0  0  0  0  0  0  0  0  0  0
   23.9171  -18.4252  -13.7761 O   0  0  0  0  0  0  0  0  0  0  0  0
   25.7127  -17.3833  -18.5633 C   0  0  0  0  0  0  0  0  0  0  0  0
   25.7290  -18.5594  -17.6327 C   0  0  1  0  0  0  0  0  0  0  0  0
   27.0256  -18.7901  -17.1961 O   0  0  0  0  0  0  0  0  0  0  0  0
   24.8154  -18.3393  -16.4289 C   0  0  2  0  0  0  0  0  0  0  0  0
   24.9306  -19.4795  -15.5358 N   0  0  0  0  0  0  0  0  0  0  0  0
   23.4133  -18.1621  -16.8826 C   0  0  0  0  0  0  0  0  0  0  0  0
   22.9074  -16.9101  -17.1906 O   0  0  0  0  0  0  0  0  0  0  0  0
   22.6481  -19.1522  -16.9981 O   0  0  0  0  0  0  0  0  0  0  0  0
  2  3  1  0
  2  1  1  0
  3  4  1  0
  4  5  1  0
  5  7  1  0
  5  6  1  1
  7  8  2  0
 10  9  1  1
 10 12  1  0
 11 10  1  0
 12 14  1  0
 13  7  1  0
 12 13  1  1
 14 15  2  0
 17 16  1  6
 17 18  1  0
 17 19  1  0
 19 21  1  0
 19 20  1  1
 20 14  1  0
 21 23  2  0
 21 22  1  0
M  END
$$$$
