MTT.pdb
     RDKit          3D

 23 22  0  0  1  0  0  0  0  0999 V2000
   27.4391  -17.8743   -7.1414 C   0  0  0  0  0  0  0  0  0  0  0  0
   27.2785  -19.5224   -6.5003 S   0  0  0  0  0  0  0  0  0  0  0  0
   26.9564  -20.7806   -7.7213 C   0  0  0  0  0  0  0  0  0  0  0  0
   26.7432  -20.2887   -9.1018 C   0  0  0  0  0  0  0  0  0  0  0  0
   26.4817  -21.3883  -10.0871 C   0  0  2  0  0  0  0  0  0  0  0  0
   27.7174  -22.1091  -10.3180 N   0  0  0  0  0  0  0  0  0  0  0  0
   26.0358  -20.7099  -11.3609 C   0  0  0  0  0  0  0  0  0  0  0  0
   26.8139  -19.9246  -11.9581 O   0  0  0  0  0  0  0  0  0  0  0  0
   25.9483  -22.3575  -14.1121 C   0  0  0  0  0  0  0  0  0  0  0  0
   24.5946  -21.7391  -14.1016 C   0  0  1  0  0  0  0  0  0  0  0  0
   23.7237  -22.7188  -13.5617 O   0  0  0  0  0  0  0  0  0  0  0  0
   24.4410  -20.5096  -13.2508 C   0  0  2  0  0  0  0  0  0  0  0  0
   24.7615  -20.9496  -11.8809 N   0  0  0  0  0  0  0  0  0  0  0  0
   23.1092  -19.9245  -13.2101 C   0  0  0  0  0  0  0  0  0  0  0  0
   22.4174  -19.9629  -12.1673 O   0  0  0  0  0  0  0  0  0  0  0  0
   21.7853  -16.5650  -15.4329 C   0  0  0  0  0  0  0  0  0  0  0  0
   21.0649  -17.8672  -15.6196 C   0  0  1  0  0  0  0  0  0  0  0  0
   21.5633  -18.5190  -16.7384 O   0  0  0  0  0  0  0  0  0  0  0  0
   21.2055  -18.7705  -14.3963 C   0  0  2  0  0  0  0  0  0  0  0  0
   22.5600  -19.2939  -14.3508 N   0  0  0  0  0  0  0  0  0  0  0  0
   20.2141  -19.8730  -14.4640 C   0  0  0  0  0  0  0  0  0  0  0  0
   18.8670  -19.6472  -14.2351 O   0  0  0  0  0  0  0  0  0  0  0  0
   20.5782  -21.0455  -14.7327 O   0  0  0  0  0  0  0  0  0  0  0  0
  2  3  1  0
  2  1  1  0
  3  4  1  0
  4  5  1  0
  5  7  1  0
  5  6  1  6
  7  8  2  0
 10  9  1  1
 10 12  1  0
 11 10  1  0
 12 14  1  0
 13  7  1  0
 12 13  1  1
 14 15  2  0
 17 16  1  1
 17 18  1  0
 17 19  1  0
 19 21  1  0
 19 20  1  6
 20 14  1  0
 21 23  2  0
 21 22  1  0
M  END
$$$$
