MTT.pdb
     RDKit          3D

 23 22  0  0  1  0  0  0  0  0999 V2000
   27.1089  -14.9345  -15.3902 C   0  0  0  0  0  0  0  0  0  0  0  0
   26.3204  -16.4422  -14.8821 S   0  0  0  0  0  0  0  0  0  0  0  0
   24.7019  -16.7199  -15.5755 C   0  0  0  0  0  0  0  0  0  0  0  0
   23.7868  -15.5560  -15.5433 C   0  0  0  0  0  0  0  0  0  0  0  0
   22.4777  -15.8143  -16.2273 C   0  0  2  0  0  0  0  0  0  0  0  0
   22.6942  -16.7611  -17.3028 N   0  0  0  0  0  0  0  0  0  0  0  0
   22.0330  -14.4860  -16.7925 C   0  0  0  0  0  0  0  0  0  0  0  0
   22.3415  -14.1708  -17.9691 O   0  0  0  0  0  0  0  0  0  0  0  0
   19.1909  -13.9206  -18.0079 C   0  0  0  0  0  0  0  0  0  0  0  0
   19.2972  -12.8080  -17.0250 C   0  0  1  0  0  0  0  0  0  0  0  0
   18.6664  -13.2715  -15.8431 O   0  0  0  0  0  0  0  0  0  0  0  0
   20.6926  -12.4039  -16.6392 C   0  0  2  0  0  0  0  0  0  0  0  0
   21.2795  -13.6033  -16.0148 N   0  0  0  0  0  0  0  0  0  0  0  0
   20.7987  -11.3235  -15.6702 C   0  0  0  0  0  0  0  0  0  0  0  0
   20.7443  -11.5501  -14.4401 O   0  0  0  0  0  0  0  0  0  0  0  0
   23.6170   -8.8019  -15.4002 C   0  0  0  0  0  0  0  0  0  0  0  0
   22.3365   -8.0459  -15.5951 C   0  0  1  0  0  0  0  0  0  0  0  0
   22.2091   -7.6809  -16.9275 O   0  0  0  0  0  0  0  0  0  0  0  0
   21.1234   -8.8719  -15.1727 C   0  0  2  0  0  0  0  0  0  0  0  0
   20.9678   -9.9847  -16.0938 N   0  0  0  0  0  0  0  0  0  0  0  0
   19.9084   -8.0194  -15.1629 C   0  0  0  0  0  0  0  0  0  0  0  0
   19.7121   -7.0541  -14.1892 O   0  0  0  0  0  0  0  0  0  0  0  0
   19.0237   -8.1557  -16.0450 O   0  0  0  0  0  0  0  0  0  0  0  0
  2  3  1  0
  2  1  1  0
  3  4  1  0
  4  5  1  0
  5  7  1  0
  5  6  1  6
  7  8  2  0
 10  9  1  6
 10 12  1  0
 11 10  1  0
 12 14  1  0
 13  7  1  0
 12 13  1  1
 14 15  2  0
 17 16  1  6
 17 18  1  0
 17 19  1  0
 19 21  1  0
 19 20  1  6
 20 14  1  0
 21 23  2  0
 21 22  1  0
M  END
$$$$
