MTT.pdb
     RDKit          3D

 23 22  0  0  1  0  0  0  0  0999 V2000
   22.6471  -17.3747  -14.1524 C   0  0  0  0  0  0  0  0  0  0  0  0
   22.3610  -18.5730  -15.4312 S   0  0  0  0  0  0  0  0  0  0  0  0
   21.8667  -17.8962  -17.0046 C   0  0  0  0  0  0  0  0  0  0  0  0
   22.2574  -16.4879  -17.2433 C   0  0  0  0  0  0  0  0  0  0  0  0
   21.8552  -15.9844  -18.5972 C   0  0  2  0  0  0  0  0  0  0  0  0
   22.6021  -16.7112  -19.6041 N   0  0  0  0  0  0  0  0  0  0  0  0
   22.2358  -14.5229  -18.6289 C   0  0  0  0  0  0  0  0  0  0  0  0
   23.3726  -14.1803  -19.0401 O   0  0  0  0  0  0  0  0  0  0  0  0
   19.3498  -11.5053  -18.8414 C   0  0  0  0  0  0  0  0  0  0  0  0
   20.7933  -11.4751  -19.2030 C   0  0  1  0  0  0  0  0  0  0  0  0
   21.1522  -10.1047  -19.2565 O   0  0  0  0  0  0  0  0  0  0  0  0
   21.7290  -12.1282  -18.2247 C   0  0  2  0  0  0  0  0  0  0  0  0
   21.3309  -13.5473  -18.2033 N   0  0  0  0  0  0  0  0  0  0  0  0
   21.6579  -11.6446  -16.8540 C   0  0  0  0  0  0  0  0  0  0  0  0
   20.8042  -12.0907  -16.0542 O   0  0  0  0  0  0  0  0  0  0  0  0
   24.4252  -11.5783  -14.2705 C   0  0  0  0  0  0  0  0  0  0  0  0
   23.9420  -10.1709  -14.4582 C   0  0  1  0  0  0  0  0  0  0  0  0
   24.8062   -9.4905  -15.3038 O   0  0  0  0  0  0  0  0  0  0  0  0
   22.5276  -10.1316  -15.0326 C   0  0  2  0  0  0  0  0  0  0  0  0
   22.5550  -10.6558  -16.3874 N   0  0  0  0  0  0  0  0  0  0  0  0
   22.0116   -8.7400  -15.0140 C   0  0  0  0  0  0  0  0  0  0  0  0
   21.8659   -8.0088  -16.1812 O   0  0  0  0  0  0  0  0  0  0  0  0
   21.6928   -8.1901  -13.9299 O   0  0  0  0  0  0  0  0  0  0  0  0
  2  3  1  0
  2  1  1  0
  3  4  1  0
  4  5  1  0
  5  7  1  0
  5  6  1  6
  7  8  2  0
 10  9  1  1
 10 12  1  0
 11 10  1  0
 12 14  1  0
 13  7  1  0
 12 13  1  1
 14 15  2  0
 17 16  1  6
 17 18  1  0
 17 19  1  0
 19 21  1  0
 19 20  1  6
 20 14  1  0
 21 23  2  0
 21 22  1  0
M  END
$$$$
