IMT.pdb
     RDKit          3D

 24 23  0  0  1  0  0  0  0  0999 V2000
   24.2837  -12.9149  -20.1076 C   0  0  0  0  0  0  0  0  0  0  0  0
   23.6193  -13.2748  -18.7936 C   0  0  0  0  0  0  0  0  0  0  0  0
   22.6643  -12.2406  -18.3247 C   0  0  2  0  0  0  0  0  0  0  0  0
   23.2627  -10.8522  -18.2807 C   0  0  0  0  0  0  0  0  0  0  0  0
   21.9106  -12.6020  -17.0694 C   0  0  2  0  0  0  0  0  0  0  0  0
   21.2428  -13.9118  -17.2741 N   0  0  0  0  0  0  0  0  0  0  0  0
   20.8396  -11.6417  -16.7127 C   0  0  0  0  0  0  0  0  0  0  0  0
   19.8754  -11.4624  -17.5070 O   0  0  0  0  0  0  0  0  0  0  0  0
   18.2213   -9.7061  -10.6479 C   0  0  0  0  0  0  0  0  0  0  0  0
   17.1377   -9.7871  -12.0966 S   0  0  0  0  0  0  0  0  0  0  0  0
   18.0466   -9.1414  -13.5634 C   0  0  0  0  0  0  0  0  0  0  0  0
   18.9894  -10.2125  -14.0172 C   0  0  0  0  0  0  0  0  0  0  0  0
   19.8726   -9.8594  -15.1689 C   0  0  2  0  0  0  0  0  0  0  0  0
   20.8121  -10.8825  -15.5022 N   0  0  0  0  0  0  0  0  0  0  0  0
   20.3996   -8.4794  -15.1301 C   0  0  0  0  0  0  0  0  0  0  0  0
   21.3115   -8.2662  -14.2883 O   0  0  0  0  0  0  0  0  0  0  0  0
   22.0999   -6.2577  -17.8763 C   0  0  0  0  0  0  0  0  0  0  0  0
   20.9338   -5.5130  -17.2497 C   0  0  1  0  0  0  0  0  0  0  0  0
   19.8700   -5.3625  -18.0976 O   0  0  0  0  0  0  0  0  0  0  0  0
   20.6229   -6.0991  -15.9270 C   0  0  2  0  0  0  0  0  0  0  0  0
   20.0084   -7.3855  -15.9067 N   0  0  0  0  0  0  0  0  0  0  0  0
   19.7929   -5.1474  -15.1576 C   0  0  0  0  0  0  0  0  0  0  0  0
   20.2716   -3.9009  -14.8174 O   0  0  0  0  0  0  0  0  0  0  0  0
   18.6395   -5.4741  -14.8083 O   0  0  0  0  0  0  0  0  0  0  0  0
  1  2  1  0
  3  4  1  1
  3  2  1  0
  5  3  1  0
  5  7  1  0
  5  6  1  6
  7  8  2  0
 10  9  1  0
 11 10  1  0
 12 11  1  0
 13 12  1  1
 14  7  1  0
 14 13  1  0
 15 21  1  0
 15 13  1  0
 16 15  2  0
 18 17  1  6
 18 19  1  0
 20 21  1  6
 20 18  1  0
 22 20  1  0
 22 23  1  0
 24 22  2  0
M  END
$$$$
