IMT.pdb
     RDKit          3D

 24 23  0  0  1  0  0  0  0  0999 V2000
   28.4621  -18.5917  -17.7543 C   0  0  0  0  0  0  0  0  0  0  0  0
   28.8076  -19.4561  -16.5581 C   0  0  0  0  0  0  0  0  0  0  0  0
   27.6271  -19.7891  -15.7233 C   0  0  2  0  0  0  0  0  0  0  0  0
   26.8395  -18.5721  -15.2915 C   0  0  0  0  0  0  0  0  0  0  0  0
   27.9051  -20.7477  -14.5928 C   0  0  2  0  0  0  0  0  0  0  0  0
   28.4394  -22.0115  -15.1593 N   0  0  0  0  0  0  0  0  0  0  0  0
   26.7032  -21.1198  -13.8096 C   0  0  0  0  0  0  0  0  0  0  0  0
   25.8668  -21.9275  -14.3004 O   0  0  0  0  0  0  0  0  0  0  0  0
   25.1738  -20.7809   -7.1221 C   0  0  0  0  0  0  0  0  0  0  0  0
   26.7599  -20.4716   -7.9393 S   0  0  0  0  0  0  0  0  0  0  0  0
   26.6863  -21.1249   -9.6604 C   0  0  0  0  0  0  0  0  0  0  0  0
   25.4086  -20.6402  -10.2726 C   0  0  0  0  0  0  0  0  0  0  0  0
   25.2417  -20.9079  -11.7325 C   0  0  2  0  0  0  0  0  0  0  0  0
   26.4106  -20.6220  -12.5024 N   0  0  0  0  0  0  0  0  0  0  0  0
   23.9601  -20.4340  -12.2950 C   0  0  0  0  0  0  0  0  0  0  0  0
   23.8593  -19.1887  -12.4519 O   0  0  0  0  0  0  0  0  0  0  0  0
   22.5244  -20.7043  -15.6754 C   0  0  0  0  0  0  0  0  0  0  0  0
   21.4687  -21.2533  -14.7314 C   0  0  1  0  0  0  0  0  0  0  0  0
   21.3121  -22.6097  -14.8254 O   0  0  0  0  0  0  0  0  0  0  0  0
   21.6986  -20.7263  -13.3680 C   0  0  2  0  0  0  0  0  0  0  0  0
   22.8490  -21.1950  -12.6681 N   0  0  0  0  0  0  0  0  0  0  0  0
   20.4934  -20.9658  -12.5455 C   0  0  0  0  0  0  0  0  0  0  0  0
   19.2629  -20.4783  -12.9292 O   0  0  0  0  0  0  0  0  0  0  0  0
   20.5871  -21.6195  -11.4858 O   0  0  0  0  0  0  0  0  0  0  0  0
  1  2  1  0
  3  4  1  1
  3  2  1  0
  5  3  1  0
  5  7  1  0
  5  6  1  6
  7  8  2  0
 10  9  1  0
 11 10  1  0
 12 11  1  0
 13 12  1  1
 14  7  1  0
 14 13  1  0
 15 21  1  0
 15 13  1  0
 16 15  2  0
 18 17  1  6
 18 19  1  0
 20 21  1  1
 20 18  1  0
 22 20  1  0
 22 23  1  0
 24 22  2  0
M  END
$$$$
