IMT.pdb
     RDKit          3D

 24 23  0  0  1  0  0  0  0  0999 V2000
   28.4532  -16.9643  -15.7318 C   0  0  0  0  0  0  0  0  0  0  0  0
   28.0865  -18.2980  -16.3518 C   0  0  0  0  0  0  0  0  0  0  0  0
   27.1060  -19.0632  -15.5427 C   0  0  2  0  0  0  0  0  0  0  0  0
   25.8339  -18.2942  -15.2632 C   0  0  0  0  0  0  0  0  0  0  0  0
   27.6814  -19.7245  -14.3155 C   0  0  2  0  0  0  0  0  0  0  0  0
   28.7512  -20.6635  -14.7366 N   0  0  0  0  0  0  0  0  0  0  0  0
   26.7007  -20.5296  -13.5497 C   0  0  0  0  0  0  0  0  0  0  0  0
   26.2418  -21.5927  -14.0517 O   0  0  0  0  0  0  0  0  0  0  0  0
   26.9054  -19.1354   -7.3224 C   0  0  0  0  0  0  0  0  0  0  0  0
   26.3801  -20.8466   -7.5970 S   0  0  0  0  0  0  0  0  0  0  0  0
   26.4898  -21.2271   -9.3964 C   0  0  0  0  0  0  0  0  0  0  0  0
   25.2640  -20.6694  -10.0509 C   0  0  0  0  0  0  0  0  0  0  0  0
   25.1770  -20.8463  -11.5315 C   0  0  2  0  0  0  0  0  0  0  0  0
   26.2222  -20.1864  -12.2475 N   0  0  0  0  0  0  0  0  0  0  0  0
   23.8144  -20.6950  -12.0829 C   0  0  0  0  0  0  0  0  0  0  0  0
   23.4585  -19.5158  -12.3443 O   0  0  0  0  0  0  0  0  0  0  0  0
   19.9663  -22.3294  -14.6691 C   0  0  0  0  0  0  0  0  0  0  0  0
   21.3276  -22.6111  -14.0574 C   0  0  1  0  0  0  0  0  0  0  0  0
   22.2909  -22.8925  -14.9881 O   0  0  0  0  0  0  0  0  0  0  0  0
   21.6652  -21.5481  -13.0849 C   0  0  2  0  0  0  0  0  0  0  0  0
   22.8745  -21.6957  -12.3442 N   0  0  0  0  0  0  0  0  0  0  0  0
   20.5352  -21.3712  -12.1478 C   0  0  0  0  0  0  0  0  0  0  0  0
   19.3011  -20.9510  -12.5940 O   0  0  0  0  0  0  0  0  0  0  0  0
   20.6970  -21.6049  -10.9319 O   0  0  0  0  0  0  0  0  0  0  0  0
  1  2  1  0
  3  4  1  1
  3  2  1  0
  5  3  1  0
  5  7  1  0
  5  6  1  6
  7  8  2  0
 10  9  1  0
 11 10  1  0
 12 11  1  0
 13 12  1  1
 14  7  1  0
 14 13  1  0
 15 21  1  0
 15 13  1  0
 16 15  2  0
 18 17  1  6
 18 19  1  0
 20 21  1  1
 20 18  1  0
 22 20  1  0
 22 23  1  0
 24 22  2  0
M  END
$$$$
