IMT.pdb
     RDKit          3D

 24 23  0  0  1  0  0  0  0  0999 V2000
   27.9832  -19.8113  -18.6960 C   0  0  0  0  0  0  0  0  0  0  0  0
   28.4231  -20.6213  -17.4927 C   0  0  0  0  0  0  0  0  0  0  0  0
   27.3773  -20.7168  -16.4446 C   0  0  2  0  0  0  0  0  0  0  0  0
   26.7962  -19.3750  -16.0577 C   0  0  0  0  0  0  0  0  0  0  0  0
   27.7522  -21.5659  -15.2559 C   0  0  2  0  0  0  0  0  0  0  0  0
   28.0480  -22.9422  -15.7270 N   0  0  0  0  0  0  0  0  0  0  0  0
   26.6761  -21.6957  -14.2453 C   0  0  0  0  0  0  0  0  0  0  0  0
   25.6572  -22.3927  -14.5080 O   0  0  0  0  0  0  0  0  0  0  0  0
   27.2391  -21.1186   -7.7697 C   0  0  0  0  0  0  0  0  0  0  0  0
   25.7656  -20.0936   -8.0102 S   0  0  0  0  0  0  0  0  0  0  0  0
   24.9778  -20.5415   -9.6144 C   0  0  0  0  0  0  0  0  0  0  0  0
   26.0625  -20.6183  -10.6438 C   0  0  0  0  0  0  0  0  0  0  0  0
   25.6381  -21.0555  -12.0075 C   0  0  2  0  0  0  0  0  0  0  0  0
   26.7046  -21.0765  -12.9576 N   0  0  0  0  0  0  0  0  0  0  0  0
   24.3671  -20.4595  -12.4689 C   0  0  0  0  0  0  0  0  0  0  0  0
   24.3853  -19.2154  -12.6620 O   0  0  0  0  0  0  0  0  0  0  0  0
   22.5363  -20.6828  -15.6472 C   0  0  0  0  0  0  0  0  0  0  0  0
   21.5140  -21.0239  -14.5770 C   0  0  1  0  0  0  0  0  0  0  0  0
   21.1233  -22.3354  -14.6007 O   0  0  0  0  0  0  0  0  0  0  0  0
   21.9773  -20.5154  -13.2669 C   0  0  2  0  0  0  0  0  0  0  0  0
   23.1512  -21.1042  -12.7118 N   0  0  0  0  0  0  0  0  0  0  0  0
   20.8716  -20.6126  -12.2900 C   0  0  0  0  0  0  0  0  0  0  0  0
   20.9793  -21.4109  -11.1720 O   0  0  0  0  0  0  0  0  0  0  0  0
   19.8217  -19.9630  -12.4768 O   0  0  0  0  0  0  0  0  0  0  0  0
  1  2  1  0
  3  4  1  1
  3  2  1  0
  5  3  1  0
  5  7  1  0
  5  6  1  6
  7  8  2  0
 10  9  1  0
 11 10  1  0
 12 11  1  0
 13 12  1  1
 14  7  1  0
 14 13  1  0
 15 21  1  0
 15 13  1  0
 16 15  2  0
 18 17  1  6
 18 19  1  0
 20 21  1  1
 20 18  1  0
 22 20  1  0
 22 23  1  0
 24 22  2  0
M  END
$$$$
