IMT.pdb
     RDKit          3D

 24 23  0  0  1  0  0  0  0  0999 V2000
   28.3158  -17.5507  -17.5007 C   0  0  0  0  0  0  0  0  0  0  0  0
   28.7665  -18.6877  -16.6053 C   0  0  0  0  0  0  0  0  0  0  0  0
   27.7050  -19.1508  -15.6779 C   0  0  2  0  0  0  0  0  0  0  0  0
   27.0651  -18.0263  -14.8944 C   0  0  0  0  0  0  0  0  0  0  0  0
   28.0892  -20.3290  -14.8185 C   0  0  2  0  0  0  0  0  0  0  0  0
   28.3863  -21.4859  -15.6999 N   0  0  0  0  0  0  0  0  0  0  0  0
   27.0193  -20.7751  -13.8951 C   0  0  0  0  0  0  0  0  0  0  0  0
   26.0360  -21.4227  -14.3494 O   0  0  0  0  0  0  0  0  0  0  0  0
   27.6480  -20.5181   -7.5016 C   0  0  0  0  0  0  0  0  0  0  0  0
   25.8451  -20.3472   -7.4963 S   0  0  0  0  0  0  0  0  0  0  0  0
   25.1951  -20.7893   -9.1626 C   0  0  0  0  0  0  0  0  0  0  0  0
   26.2883  -20.5380  -10.1545 C   0  0  0  0  0  0  0  0  0  0  0  0
   25.9435  -20.7954  -11.5849 C   0  0  2  0  0  0  0  0  0  0  0  0
   27.0159  -20.5232  -12.4883 N   0  0  0  0  0  0  0  0  0  0  0  0
   24.6112  -20.2991  -11.9879 C   0  0  0  0  0  0  0  0  0  0  0  0
   24.4848  -19.0471  -12.0317 O   0  0  0  0  0  0  0  0  0  0  0  0
   22.9401  -20.2992  -15.2309 C   0  0  0  0  0  0  0  0  0  0  0  0
   21.9501  -20.9420  -14.2752 C   0  0  1  0  0  0  0  0  0  0  0  0
   21.7890  -22.2848  -14.4858 O   0  0  0  0  0  0  0  0  0  0  0  0
   22.2695  -20.5435  -12.8864 C   0  0  2  0  0  0  0  0  0  0  0  0
   23.4778  -21.0459  -12.3205 N   0  0  0  0  0  0  0  0  0  0  0  0
   21.1336  -20.8950  -12.0073 C   0  0  0  0  0  0  0  0  0  0  0  0
   19.8719  -20.3931  -12.2418 O   0  0  0  0  0  0  0  0  0  0  0  0
   21.3157  -21.6581  -11.0359 O   0  0  0  0  0  0  0  0  0  0  0  0
  1  2  1  0
  3  4  1  1
  3  2  1  0
  5  3  1  0
  5  7  1  0
  5  6  1  6
  7  8  2  0
 10  9  1  0
 11 10  1  0
 12 11  1  0
 13 12  1  1
 14  7  1  0
 14 13  1  0
 15 21  1  0
 15 13  1  0
 16 15  2  0
 18 17  1  6
 18 19  1  0
 20 21  1  1
 20 18  1  0
 22 20  1  0
 22 23  1  0
 24 22  2  0
M  END
$$$$
