RVP.pdb
     RDKit          3D

 26 26  0  0  1  0  0  0  0  0999 V2000
    9.5134  -15.1570   16.3857 N   0  0  0  0  0  0  0  0  0  0  0  0
    8.1328  -14.8367   16.5361 C   0  0  0  0  0  0  0  0  0  0  0  0
    7.6208  -13.9175   15.7966 N   0  0  0  0  0  0  0  0  0  0  0  0
    7.3027  -15.4957   17.4729 N   0  0  0  0  0  0  0  0  0  0  0  0
    7.4767  -15.2263   18.8764 C   0  0  0  0  0  0  0  0  0  0  0  0
    8.9299  -15.0497   19.2442 C   0  0  0  0  0  0  0  0  0  0  0  0
    9.1144  -14.8128   20.7101 C   0  0  0  0  0  0  0  0  0  0  0  0
    8.3339  -13.6336   21.2290 C   0  0  2  0  0  0  0  0  0  0  0  0
    8.6427  -12.4170   20.5307 N   0  0  0  0  0  0  0  0  0  0  0  0
    8.6673  -13.4997   22.6926 C   0  0  0  0  0  0  0  0  0  0  0  0
    9.8236  -13.2620   23.0647 O   0  0  0  0  0  0  0  0  0  0  0  0
    6.6210  -13.7055   15.8125 C   0  0  0  0  0  0  0  0  0  0  0  0
    6.2141  -11.8389   25.5939 C   0  0  1  0  0  0  0  0  0  0  0  0
    6.6067  -13.2794   25.8099 C   0  0  0  0  0  0  0  0  0  0  0  0
    6.7849  -13.4463   27.3251 C   0  0  2  0  0  0  0  0  0  0  0  0
    7.8866  -13.6636   25.0914 N   0  0  0  0  0  0  0  0  0  0  0  0
    7.6452  -13.6461   23.6858 C   0  0  0  0  0  0  0  0  0  0  0  0
    8.5094  -14.8613   25.6478 O   0  0  0  0  0  0  0  0  0  0  0  0
    8.1984  -15.9767   25.0735 N   0  0  0  0  0  0  0  0  0  0  0  0
    9.4065  -14.9154   26.7384 C   0  0  0  0  0  0  0  0  0  0  0  0
    9.5110  -13.8126   27.7158 C   0  0  0  0  0  0  0  0  0  0  0  0
   10.5388  -14.2127   28.7159 C   0  0  0  0  0  0  0  0  0  0  0  0
   11.4292  -15.1162   27.8796 C   0  0  1  0  0  0  0  0  0  0  0  0
   10.3428  -15.9332   27.1565 C   0  0  0  0  0  0  0  0  0  0  0  0
    9.7754  -16.8079   28.2346 O   0  0  0  0  0  0  0  0  0  0  0  0
   10.5371  -17.8688   28.6635 O   0  0  0  0  0  0  0  0  0  0  0  0
  2  3  2  0
  2  1  1  0
  4  2  1  0
  5  4  1  0
  6  5  1  0
  7  8  1  0
  7  6  1  0
  8 10  1  0
  8  9  1  6
 10 11  2  0
 13 12  1  1
 13 14  1  0
 13 15  1  0
 15 16  1  1
 16 10  1  0
 17 15  1  0
 17 18  2  0
 19 23  1  0
 19 17  1  0
 20 19  1  0
 21 22  1  0
 21 20  1  0
 22 23  1  0
 23 24  1  1
 24 26  2  0
 24 25  1  0
M  END
$$$$
