RVP.pdb
     RDKit          3D

 26 26  0  0  1  0  0  0  0  0999 V2000
    9.6342  -14.1165   16.9187 N   0  0  0  0  0  0  0  0  0  0  0  0
    8.2380  -13.9169   16.7140 C   0  0  0  0  0  0  0  0  0  0  0  0
    7.8480  -13.2176   15.7075 N   0  0  0  0  0  0  0  0  0  0  0  0
    7.2624  -14.4620   17.5810 N   0  0  0  0  0  0  0  0  0  0  0  0
    7.6851  -15.1002   18.8004 C   0  0  0  0  0  0  0  0  0  0  0  0
    9.1623  -14.9196   19.0525 C   0  0  0  0  0  0  0  0  0  0  0  0
    9.4444  -14.4859   20.4566 C   0  0  0  0  0  0  0  0  0  0  0  0
    8.5580  -15.1495   21.4778 C   0  0  2  0  0  0  0  0  0  0  0  0
    7.1859  -15.2152   21.0581 N   0  0  0  0  0  0  0  0  0  0  0  0
    8.6820  -14.3494   22.7489 C   0  0  0  0  0  0  0  0  0  0  0  0
    9.5644  -13.4913   22.8794 O   0  0  0  0  0  0  0  0  0  0  0  0
    6.8574  -13.0800   15.4962 C   0  0  0  0  0  0  0  0  0  0  0  0
    6.2456  -12.4995   25.2144 C   0  0  1  0  0  0  0  0  0  0  0  0
    6.7915  -13.7501   25.8575 C   0  0  0  0  0  0  0  0  0  0  0  0
    7.0708  -13.3851   27.3218 C   0  0  2  0  0  0  0  0  0  0  0  0
    8.0608  -14.2556   25.1976 N   0  0  0  0  0  0  0  0  0  0  0  0
    7.7749  -14.5692   23.8359 C   0  0  0  0  0  0  0  0  0  0  0  0
    8.7419  -15.2758   25.9896 O   0  0  0  0  0  0  0  0  0  0  0  0
    8.5264  -16.5004   25.6363 N   0  0  0  0  0  0  0  0  0  0  0  0
    9.6015  -15.0542   27.0891 C   0  0  0  0  0  0  0  0  0  0  0  0
    9.5828  -13.7873   27.8488 C   0  0  0  0  0  0  0  0  0  0  0  0
   10.6035  -13.9100   28.9257 C   0  0  0  0  0  0  0  0  0  0  0  0
   11.5923  -14.8712   28.2880 C   0  0  1  0  0  0  0  0  0  0  0  0
   10.6009  -15.8955   27.7060 C   0  0  0  0  0  0  0  0  0  0  0  0
   10.0678  -16.6049   28.9152 O   0  0  0  0  0  0  0  0  0  0  0  0
   10.8833  -17.5279   29.5257 O   0  0  0  0  0  0  0  0  0  0  0  0
  2  3  2  0
  2  1  1  0
  4  2  1  0
  5  4  1  0
  6  5  1  0
  7  8  1  0
  7  6  1  0
  8 10  1  0
  8  9  1  6
 10 11  2  0
 13 12  1  1
 13 14  1  0
 13 15  1  0
 15 16  1  6
 16 10  1  0
 17 15  1  0
 17 18  2  0
 19 23  1  0
 19 17  1  0
 20 19  1  0
 21 22  1  0
 21 20  1  0
 22 23  1  0
 23 24  1  1
 24 26  2  0
 24 25  1  0
M  END
$$$$
