RVP.pdb
     RDKit          3D

 26 26  0  0  1  0  0  0  0  0999 V2000
    7.3734  -14.0440   15.8411 N   0  0  0  0  0  0  0  0  0  0  0  0
    8.5807  -14.6999   16.2196 C   0  0  0  0  0  0  0  0  0  0  0  0
    9.0118  -15.6769   15.5029 N   0  0  0  0  0  0  0  0  0  0  0  0
    9.3243  -14.3138   17.3593 N   0  0  0  0  0  0  0  0  0  0  0  0
    8.7970  -13.2950   18.2293 C   0  0  0  0  0  0  0  0  0  0  0  0
    7.6908  -13.8199   19.1120 C   0  0  0  0  0  0  0  0  0  0  0  0
    7.9296  -13.5113   20.5566 C   0  0  0  0  0  0  0  0  0  0  0  0
    8.3239  -14.7169   21.3692 C   0  0  2  0  0  0  0  0  0  0  0  0
    7.2945  -15.7180   21.4063 N   0  0  0  0  0  0  0  0  0  0  0  0
    8.6297  -14.2244   22.7602 C   0  0  0  0  0  0  0  0  0  0  0  0
    9.6448  -13.5551   22.9915 O   0  0  0  0  0  0  0  0  0  0  0  0
    9.9201  -16.1134   15.6744 C   0  0  0  0  0  0  0  0  0  0  0  0
    6.0209  -12.7530   25.4548 C   0  0  1  0  0  0  0  0  0  0  0  0
    6.7336  -13.9878   25.9477 C   0  0  0  0  0  0  0  0  0  0  0  0
    7.0074  -13.7510   27.4391 C   0  0  2  0  0  0  0  0  0  0  0  0
    8.0360  -14.2570   25.2173 N   0  0  0  0  0  0  0  0  0  0  0  0
    7.7452  -14.5241   23.8467 C   0  0  0  0  0  0  0  0  0  0  0  0
    8.8899  -15.2121   25.9178 O   0  0  0  0  0  0  0  0  0  0  0  0
    8.9588  -16.3934   25.3977 N   0  0  0  0  0  0  0  0  0  0  0  0
    9.6369  -14.9705   27.0928 C   0  0  0  0  0  0  0  0  0  0  0  0
    9.3812  -13.7946   27.9497 C   0  0  0  0  0  0  0  0  0  0  0  0
   10.3403  -13.8669   29.0862 C   0  0  0  0  0  0  0  0  0  0  0  0
   11.4997  -14.6128   28.4477 C   0  0  1  0  0  0  0  0  0  0  0  0
   10.7114  -15.7117   27.7118 C   0  0  0  0  0  0  0  0  0  0  0  0
   10.2173  -16.5985   28.8159 O   0  0  0  0  0  0  0  0  0  0  0  0
   11.1248  -17.4405   29.4137 O   0  0  0  0  0  0  0  0  0  0  0  0
  2  3  2  0
  2  1  1  0
  4  2  1  0
  5  4  1  0
  6  5  1  0
  7  8  1  0
  7  6  1  0
  8 10  1  0
  8  9  1  1
 10 11  2  0
 13 12  1  1
 13 14  1  0
 13 15  1  0
 15 16  1  6
 16 10  1  0
 17 15  1  0
 17 18  2  0
 19 23  1  0
 19 17  1  0
 20 19  1  0
 21 22  1  0
 21 20  1  0
 22 23  1  0
 23 24  1  1
 24 26  2  0
 24 25  1  0
M  END
$$$$
