RVP.pdb
     RDKit          3D

 26 26  0  0  1  0  0  0  0  0999 V2000
   14.7549  -13.3896   18.7189 N   0  0  0  0  0  0  0  0  0  0  0  0
   14.4265  -14.5037   19.5449 C   0  0  0  0  0  0  0  0  0  0  0  0
   15.2354  -15.5023   19.5973 N   0  0  0  0  0  0  0  0  0  0  0  0
   13.2388  -14.5507   20.3116 N   0  0  0  0  0  0  0  0  0  0  0  0
   12.0446  -15.0987   19.7230 C   0  0  0  0  0  0  0  0  0  0  0  0
   11.2479  -14.0542   18.9797 C   0  0  0  0  0  0  0  0  0  0  0  0
   10.2251  -13.3994   19.8538 C   0  0  0  0  0  0  0  0  0  0  0  0
    8.8354  -13.9492   19.6646 C   0  0  2  0  0  0  0  0  0  0  0  0
    8.0681  -13.1945   18.7134 N   0  0  0  0  0  0  0  0  0  0  0  0
    8.1691  -13.9253   21.0162 C   0  0  0  0  0  0  0  0  0  0  0  0
    7.7164  -12.8736   21.4861 O   0  0  0  0  0  0  0  0  0  0  0  0
   15.0246  -16.3405   20.1431 C   0  0  0  0  0  0  0  0  0  0  0  0
    6.2300  -16.7150   24.6598 C   0  0  1  0  0  0  0  0  0  0  0  0
    6.7573  -16.4984   23.2632 C   0  0  0  0  0  0  0  0  0  0  0  0
    7.7000  -17.6759   22.9799 C   0  0  2  0  0  0  0  0  0  0  0  0
    7.5030  -15.1867   23.1032 N   0  0  0  0  0  0  0  0  0  0  0  0
    8.0471  -15.1273   21.7861 C   0  0  0  0  0  0  0  0  0  0  0  0
    8.4103  -14.9132   24.2141 O   0  0  0  0  0  0  0  0  0  0  0  0
    9.6125  -15.3699   24.0853 N   0  0  0  0  0  0  0  0  0  0  0  0
    8.1027  -14.2068   25.3988 C   0  0  0  0  0  0  0  0  0  0  0  0
    6.7487  -13.6765   25.6596 C   0  0  0  0  0  0  0  0  0  0  0  0
    6.7923  -13.0046   26.9875 C   0  0  0  0  0  0  0  0  0  0  0  0
    8.2462  -12.5682   27.0505 C   0  0  1  0  0  0  0  0  0  0  0  0
    8.9141  -13.8591   26.5425 C   0  0  0  0  0  0  0  0  0  0  0  0
    8.7313  -14.8262   27.6743 O   0  0  0  0  0  0  0  0  0  0  0  0
    9.6303  -14.7715   28.7128 O   0  0  0  0  0  0  0  0  0  0  0  0
  2  3  2  0
  2  1  1  0
  4  2  1  0
  5  4  1  0
  6  5  1  0
  7  8  1  0
  7  6  1  0
  8 10  1  0
  8  9  1  6
 10 11  2  0
 13 12  1  6
 13 14  1  0
 13 15  1  0
 15 16  1  1
 16 10  1  0
 17 15  1  0
 17 18  2  0
 19 23  1  0
 19 17  1  0
 20 19  1  0
 21 22  1  0
 21 20  1  0
 22 23  1  0
 23 24  1  1
 24 26  2  0
 24 25  1  0
M  END
$$$$
