CHP.pdb
     RDKit          3D

 24 25  0  0  1  0  0  0  0  0999 V2000
   19.4475  -14.0336  -16.6963 N   0  0  0  0  0  0  0  0  0  0  0  0
   19.8764  -12.7041  -16.9766 C   0  0  1  0  0  0  0  0  0  0  0  0
   20.6232  -12.5989  -18.2843 C   0  0  0  0  0  0  0  0  0  0  0  0
   22.3304  -13.1398  -18.0113 S   0  0  0  0  0  0  0  0  0  0  0  0
   18.7691  -11.7541  -16.8650 C   0  0  0  0  0  0  0  0  0  0  0  0
   17.8697  -11.8016  -17.7716 O   0  0  0  0  0  0  0  0  0  0  0  0
   18.6067  -10.7995  -15.8563 N   0  0  0  0  0  0  0  0  0  0  0  0
   17.5117   -9.8199  -15.8292 C   0  0  1  0  0  0  0  0  0  0  0  0
   16.7694   -9.9958  -14.5017 C   0  0  0  0  0  0  0  0  0  0  0  0
   15.9295  -11.2368  -14.6005 C   0  0  0  0  0  0  0  0  0  0  0  0
   14.7348  -11.4037  -15.2743 C   0  0  0  0  0  0  0  0  0  0  0  0
   14.3096  -12.6679  -15.1099 N   0  0  0  0  0  0  0  0  0  0  0  0
   15.2034  -13.3018  -14.3513 C   0  0  0  0  0  0  0  0  0  0  0  0
   16.1722  -12.4483  -14.0459 N   0  0  0  0  0  0  0  0  0  0  0  0
   18.0989   -8.4809  -15.8235 C   0  0  0  0  0  0  0  0  0  0  0  0
   19.2286   -8.3054  -15.2494 O   0  0  0  0  0  0  0  0  0  0  0  0
   17.4903   -7.3652  -16.4210 N   0  0  0  0  0  0  0  0  0  0  0  0
   16.1757   -7.3924  -17.1206 C   0  0  0  0  0  0  0  0  0  0  0  0
   16.3621   -6.3215  -18.1782 C   0  0  0  0  0  0  0  0  0  0  0  0
   17.0799   -5.2643  -17.4085 C   0  0  0  0  0  0  0  0  0  0  0  0
   17.9558   -6.0105  -16.4333 C   0  0  1  0  0  0  0  0  0  0  0  0
   17.8349   -5.3898  -15.0685 C   0  0  0  0  0  0  0  0  0  0  0  0
   17.1116   -5.9487  -14.2276 O   0  0  0  0  0  0  0  0  0  0  0  0
   18.5116   -4.2321  -14.7669 O   0  0  0  0  0  0  0  0  0  0  0  0
  2  1  1  6
  3  2  1  0
  4  3  1  0
  5  2  1  0
  5  6  2  0
  7  5  1  0
  8  7  1  0
  9 10  1  0
  8  9  1  1
 10 14  1  0
 11 12  1  0
 11 10  2  0
 12 13  1  0
 13 14  2  0
 15 17  1  0
 15  8  1  0
 16 15  2  0
 17 18  1  0
 19 18  1  0
 20 19  1  0
 20 21  1  0
 21 17  1  0
 21 22  1  1
 22 24  1  0
 23 22  2  0
M  END
$$$$
