CHP.pdb
     RDKit          3D

 24 25  0  0  1  0  0  0  0  0999 V2000
   20.5580  -17.5743  -16.2486 N   0  0  0  0  0  0  0  0  0  0  0  0
   19.8626  -16.3870  -15.8788 C   0  0  1  0  0  0  0  0  0  0  0  0
   19.2275  -16.4880  -14.5130 C   0  0  0  0  0  0  0  0  0  0  0  0
   17.8481  -17.6583  -14.6107 S   0  0  0  0  0  0  0  0  0  0  0  0
   20.7097  -15.2043  -16.0365 C   0  0  0  0  0  0  0  0  0  0  0  0
   21.8557  -15.2314  -15.4717 O   0  0  0  0  0  0  0  0  0  0  0  0
   20.3782  -14.0478  -16.7492 N   0  0  0  0  0  0  0  0  0  0  0  0
   21.2764  -12.8940  -16.8947 C   0  0  1  0  0  0  0  0  0  0  0  0
   20.9636  -12.2338  -18.2402 C   0  0  0  0  0  0  0  0  0  0  0  0
   21.8695  -11.0463  -18.3964 C   0  0  0  0  0  0  0  0  0  0  0  0
   21.5393   -9.7075  -18.3091 C   0  0  0  0  0  0  0  0  0  0  0  0
   22.6426   -8.9678  -18.5132 N   0  0  0  0  0  0  0  0  0  0  0  0
   23.6585   -9.8037  -18.7266 C   0  0  0  0  0  0  0  0  0  0  0  0
   23.1985  -11.0462  -18.6572 N   0  0  0  0  0  0  0  0  0  0  0  0
   20.9468  -11.9259  -15.8496 C   0  0  0  0  0  0  0  0  0  0  0  0
   19.7226  -11.7793  -15.5089 O   0  0  0  0  0  0  0  0  0  0  0  0
   21.9065  -11.1421  -15.1888 N   0  0  0  0  0  0  0  0  0  0  0  0
   23.3682  -11.1767  -15.4730 C   0  0  0  0  0  0  0  0  0  0  0  0
   23.9589  -10.8616  -14.1122 C   0  0  0  0  0  0  0  0  0  0  0  0
   23.0440   -9.7854  -13.6321 C   0  0  0  0  0  0  0  0  0  0  0  0
   21.6873  -10.1433  -14.1854 C   0  0  1  0  0  0  0  0  0  0  0  0
   21.0448   -8.9196  -14.7787 C   0  0  0  0  0  0  0  0  0  0  0  0
   20.9796   -8.8277  -16.0156 O   0  0  0  0  0  0  0  0  0  0  0  0
   20.5444   -7.9312  -13.9651 O   0  0  0  0  0  0  0  0  0  0  0  0
  2  1  1  1
  3  2  1  0
  4  3  1  0
  5  2  1  0
  5  6  2  0
  7  5  1  0
  8  7  1  0
  9 10  1  0
  8  9  1  6
 10 14  1  0
 11 12  1  0
 11 10  2  0
 12 13  1  0
 13 14  2  0
 15 17  1  0
 15  8  1  0
 16 15  2  0
 17 18  1  0
 19 18  1  0
 20 19  1  0
 20 21  1  0
 21 17  1  0
 21 22  1  6
 22 24  1  0
 23 22  2  0
M  END
$$$$
