CHP.pdb
     RDKit          3D

 24 25  0  0  1  0  0  0  0  0999 V2000
   28.3488  -23.1129  -18.3381 N   0  0  0  0  0  0  0  0  0  0  0  0
   27.2189  -23.3374  -17.4995 C   0  0  1  0  0  0  0  0  0  0  0  0
   27.0169  -24.7982  -17.1768 C   0  0  0  0  0  0  0  0  0  0  0  0
   25.6238  -24.9411  -16.0276 S   0  0  0  0  0  0  0  0  0  0  0  0
   27.2606  -22.4833  -16.3121 C   0  0  0  0  0  0  0  0  0  0  0  0
   28.3399  -22.4924  -15.6279 O   0  0  0  0  0  0  0  0  0  0  0  0
   26.2263  -21.6586  -15.8590 N   0  0  0  0  0  0  0  0  0  0  0  0
   26.3597  -20.7302  -14.7278 C   0  0  1  0  0  0  0  0  0  0  0  0
   25.9860  -19.3336  -15.2319 C   0  0  0  0  0  0  0  0  0  0  0  0
   27.0893  -18.8541  -16.1308 C   0  0  0  0  0  0  0  0  0  0  0  0
   28.3939  -18.5530  -15.7897 C   0  0  0  0  0  0  0  0  0  0  0  0
   29.0564  -18.1570  -16.8898 N   0  0  0  0  0  0  0  0  0  0  0  0
   28.2052  -18.2004  -17.9144 C   0  0  0  0  0  0  0  0  0  0  0  0
   27.0292  -18.6167  -17.4628 N   0  0  0  0  0  0  0  0  0  0  0  0
   25.3743  -21.1033  -13.7141 C   0  0  0  0  0  0  0  0  0  0  0  0
   24.3586  -21.7963  -14.0671 O   0  0  0  0  0  0  0  0  0  0  0  0
   25.4809  -20.7445  -12.3606 N   0  0  0  0  0  0  0  0  0  0  0  0
   26.5617  -19.8901  -11.7946 C   0  0  0  0  0  0  0  0  0  0  0  0
   26.6998  -20.4490  -10.3916 C   0  0  0  0  0  0  0  0  0  0  0  0
   25.2724  -20.6620  -10.0138 C   0  0  0  0  0  0  0  0  0  0  0  0
   24.5798  -21.0611  -11.2929 C   0  0  1  0  0  0  0  0  0  0  0  0
   23.2937  -20.2936  -11.4315 C   0  0  0  0  0  0  0  0  0  0  0  0
   23.2751  -19.3027  -12.1801 O   0  0  0  0  0  0  0  0  0  0  0  0
   22.1704  -20.6856  -10.7432 O   0  0  0  0  0  0  0  0  0  0  0  0
  2  1  1  1
  3  2  1  0
  4  3  1  0
  5  2  1  0
  5  6  2  0
  7  5  1  0
  8  7  1  0
  9 10  1  0
  8  9  1  6
 10 14  1  0
 11 12  1  0
 11 10  2  0
 12 13  1  0
 13 14  2  0
 15 17  1  0
 15  8  1  0
 16 15  2  0
 17 18  1  0
 19 18  1  0
 20 19  1  0
 20 21  1  0
 21 17  1  0
 21 22  1  6
 22 24  1  0
 23 22  2  0
M  END
$$$$
