CHP.pdb
     RDKit          3D

 24 25  0  0  1  0  0  0  0  0999 V2000
   23.4261  -13.6362  -17.3700 N   0  0  0  0  0  0  0  0  0  0  0  0
   23.8652  -12.5670  -16.5368 C   0  0  1  0  0  0  0  0  0  0  0  0
   25.3351  -12.2669  -16.7042 C   0  0  0  0  0  0  0  0  0  0  0  0
   25.7834  -10.9480  -15.5461 S   0  0  0  0  0  0  0  0  0  0  0  0
   23.0129  -11.3878  -16.6925 C   0  0  0  0  0  0  0  0  0  0  0  0
   22.8144  -10.9679  -17.8831 O   0  0  0  0  0  0  0  0  0  0  0  0
   22.3964  -10.6796  -15.6564 N   0  0  0  0  0  0  0  0  0  0  0  0
   21.5546   -9.4936  -15.8674 C   0  0  1  0  0  0  0  0  0  0  0  0
   20.2337   -9.7296  -15.1300 C   0  0  0  0  0  0  0  0  0  0  0  0
   19.3538  -10.5692  -16.0111 C   0  0  0  0  0  0  0  0  0  0  0  0
   19.4462  -10.7532  -17.3773 C   0  0  0  0  0  0  0  0  0  0  0  0
   18.4644  -11.5790  -17.7776 N   0  0  0  0  0  0  0  0  0  0  0  0
   17.7563  -11.9201  -16.7012 C   0  0  0  0  0  0  0  0  0  0  0  0
   18.2863  -11.3176  -15.6446 N   0  0  0  0  0  0  0  0  0  0  0  0
   22.2089   -8.3518  -15.2303 C   0  0  0  0  0  0  0  0  0  0  0  0
   22.9253   -8.5533  -14.1898 O   0  0  0  0  0  0  0  0  0  0  0  0
   22.0985   -7.0334  -15.7012 N   0  0  0  0  0  0  0  0  0  0  0  0
   21.3114   -6.6260  -16.8983 C   0  0  0  0  0  0  0  0  0  0  0  0
   22.1098   -5.4422  -17.4094 C   0  0  0  0  0  0  0  0  0  0  0  0
   22.4556   -4.7443  -16.1371 C   0  0  0  0  0  0  0  0  0  0  0  0
   22.6470   -5.8435  -15.1221 C   0  0  1  0  0  0  0  0  0  0  0  0
   21.9290   -5.4865  -13.8496 C   0  0  0  0  0  0  0  0  0  0  0  0
   22.4428   -4.6407  -13.0990 O   0  0  0  0  0  0  0  0  0  0  0  0
   20.7337   -6.0861  -13.5319 O   0  0  0  0  0  0  0  0  0  0  0  0
  2  1  1  6
  3  2  1  0
  4  3  1  0
  5  2  1  0
  5  6  2  0
  7  5  1  0
  8  7  1  0
  9 10  1  0
  8  9  1  1
 10 14  1  0
 11 12  1  0
 11 10  2  0
 12 13  1  0
 13 14  2  0
 15 17  1  0
 15  8  1  0
 16 15  2  0
 17 18  1  0
 19 18  1  0
 20 19  1  0
 20 21  1  0
 21 17  1  0
 21 22  1  1
 22 24  1  0
 23 22  2  0
M  END
$$$$
