CHP.pdb
     RDKit          3D

 24 25  0  0  1  0  0  0  0  0999 V2000
   28.2466  -15.3952  -18.1684 N   0  0  0  0  0  0  0  0  0  0  0  0
   27.2845  -15.2642  -17.1256 C   0  0  1  0  0  0  0  0  0  0  0  0
   26.0839  -14.4497  -17.5427 C   0  0  0  0  0  0  0  0  0  0  0  0
   25.0692  -14.1366  -16.0750 S   0  0  0  0  0  0  0  0  0  0  0  0
   26.9313  -16.5676  -16.5619 C   0  0  0  0  0  0  0  0  0  0  0  0
   26.6637  -17.5046  -17.3887 O   0  0  0  0  0  0  0  0  0  0  0  0
   26.8605  -16.8798  -15.2008 N   0  0  0  0  0  0  0  0  0  0  0  0
   26.4311  -18.1873  -14.6853 C   0  0  1  0  0  0  0  0  0  0  0  0
   26.8254  -18.2515  -13.2073 C   0  0  0  0  0  0  0  0  0  0  0  0
   26.3514  -19.5660  -12.6572 C   0  0  0  0  0  0  0  0  0  0  0  0
   25.7248  -20.5947  -13.3340 C   0  0  0  0  0  0  0  0  0  0  0  0
   25.4648  -21.5937  -12.4734 N   0  0  0  0  0  0  0  0  0  0  0  0
   25.9103  -21.2226  -11.2734 C   0  0  0  0  0  0  0  0  0  0  0  0
   26.4405  -20.0111  -11.3812 N   0  0  0  0  0  0  0  0  0  0  0  0
   24.9714  -18.2440  -14.7476 C   0  0  0  0  0  0  0  0  0  0  0  0
   24.2966  -17.2463  -14.3165 O   0  0  0  0  0  0  0  0  0  0  0  0
   24.2596  -19.3400  -15.2617 N   0  0  0  0  0  0  0  0  0  0  0  0
   24.8877  -20.5573  -15.8466 C   0  0  0  0  0  0  0  0  0  0  0  0
   23.8645  -20.9673  -16.8883 C   0  0  0  0  0  0  0  0  0  0  0  0
   22.5853  -20.7382  -16.1558 C   0  0  0  0  0  0  0  0  0  0  0  0
   22.8409  -19.5379  -15.2788 C   0  0  1  0  0  0  0  0  0  0  0  0
   22.3202  -19.8047  -13.8931 C   0  0  0  0  0  0  0  0  0  0  0  0
   23.0979  -20.2854  -13.0525 O   0  0  0  0  0  0  0  0  0  0  0  0
   21.0141  -19.5208  -13.5727 O   0  0  0  0  0  0  0  0  0  0  0  0
  2  1  1  6
  3  2  1  0
  4  3  1  0
  5  2  1  0
  5  6  2  0
  7  5  1  0
  8  7  1  0
  9 10  1  0
  8  9  1  1
 10 14  1  0
 11 12  1  0
 11 10  2  0
 12 13  1  0
 13 14  2  0
 15 17  1  0
 15  8  1  0
 16 15  2  0
 17 18  1  0
 19 18  1  0
 20 19  1  0
 20 21  1  0
 21 17  1  0
 21 22  1  1
 22 24  1  0
 23 22  2  0
M  END
$$$$
