CHP.pdb
     RDKit          3D

 24 25  0  0  1  0  0  0  0  0999 V2000
   25.7116  -17.7649  -16.2305 N   0  0  0  0  0  0  0  0  0  0  0  0
   25.2261  -16.4705  -15.8855 C   0  0  1  0  0  0  0  0  0  0  0  0
   26.3353  -15.4602  -15.7185 C   0  0  0  0  0  0  0  0  0  0  0  0
   27.1853  -15.7996  -14.1551 S   0  0  0  0  0  0  0  0  0  0  0  0
   24.1790  -16.0323  -16.8090 C   0  0  0  0  0  0  0  0  0  0  0  0
   24.4368  -16.1104  -18.0582 O   0  0  0  0  0  0  0  0  0  0  0  0
   22.9227  -15.5361  -16.4477 N   0  0  0  0  0  0  0  0  0  0  0  0
   21.9301  -15.0472  -17.4148 C   0  0  1  0  0  0  0  0  0  0  0  0
   20.5673  -15.6076  -16.9989 C   0  0  0  0  0  0  0  0  0  0  0  0
   19.5510  -15.1518  -18.0062 C   0  0  0  0  0  0  0  0  0  0  0  0
   18.6266  -14.1328  -17.8802 C   0  0  0  0  0  0  0  0  0  0  0  0
   17.9041  -14.0517  -19.0105 N   0  0  0  0  0  0  0  0  0  0  0  0
   18.3479  -14.9914  -19.8448 C   0  0  0  0  0  0  0  0  0  0  0  0
   19.3321  -15.6499  -19.2465 N   0  0  0  0  0  0  0  0  0  0  0  0
   21.8557  -13.5919  -17.2943 C   0  0  0  0  0  0  0  0  0  0  0  0
   21.9464  -13.0639  -16.1326 O   0  0  0  0  0  0  0  0  0  0  0  0
   21.6922  -12.7309  -18.3915 N   0  0  0  0  0  0  0  0  0  0  0  0
   21.4822  -13.1807  -19.7958 C   0  0  0  0  0  0  0  0  0  0  0  0
   22.1473  -12.0682  -20.5833 C   0  0  0  0  0  0  0  0  0  0  0  0
   21.7028  -10.8612  -19.8275 C   0  0  0  0  0  0  0  0  0  0  0  0
   21.6360  -11.2994  -18.3858 C   0  0  1  0  0  0  0  0  0  0  0  0
   20.3518  -10.8158  -17.7699 C   0  0  0  0  0  0  0  0  0  0  0  0
   20.4162  -10.0788  -16.7722 O   0  0  0  0  0  0  0  0  0  0  0  0
   19.1403  -11.1849  -18.3040 O   0  0  0  0  0  0  0  0  0  0  0  0
  2  1  1  6
  3  2  1  0
  4  3  1  0
  5  2  1  0
  5  6  2  0
  7  5  1  0
  8  7  1  0
  9 10  1  0
  8  9  1  1
 10 14  1  0
 11 12  1  0
 11 10  2  0
 12 13  1  0
 13 14  2  0
 15 17  1  0
 15  8  1  0
 16 15  2  0
 17 18  1  0
 19 18  1  0
 20 19  1  0
 20 21  1  0
 21 17  1  0
 21 22  1  6
 22 24  1  0
 23 22  2  0
M  END
$$$$
