CHP.pdb
     RDKit          3D

 24 25  0  0  1  0  0  0  0  0999 V2000
   17.2843  -12.9297  -16.6140 N   0  0  0  0  0  0  0  0  0  0  0  0
   17.0185  -11.5556  -16.3467 C   0  0  1  0  0  0  0  0  0  0  0  0
   16.1639  -11.3582  -15.1180 C   0  0  0  0  0  0  0  0  0  0  0  0
   14.4594  -11.8130  -15.5297 S   0  0  0  0  0  0  0  0  0  0  0  0
   18.2529  -10.7703  -16.3247 C   0  0  0  0  0  0  0  0  0  0  0  0
   19.2405  -11.2589  -15.6773 O   0  0  0  0  0  0  0  0  0  0  0  0
   18.4490   -9.5341  -16.9480 N   0  0  0  0  0  0  0  0  0  0  0  0
   19.7205   -8.7979  -16.9172 C   0  0  1  0  0  0  0  0  0  0  0  0
   20.0190   -8.3348  -18.3457 C   0  0  0  0  0  0  0  0  0  0  0  0
   20.4986   -9.5234  -19.1282 C   0  0  0  0  0  0  0  0  0  0  0  0
   21.7346  -10.1381  -19.0690 C   0  0  0  0  0  0  0  0  0  0  0  0
   21.7565  -11.1669  -19.9334 N   0  0  0  0  0  0  0  0  0  0  0  0
   20.5685  -11.2170  -20.5355 C   0  0  0  0  0  0  0  0  0  0  0  0
   19.8154  -10.2358  -20.0556 N   0  0  0  0  0  0  0  0  0  0  0  0
   19.5322   -7.5982  -16.1028 C   0  0  0  0  0  0  0  0  0  0  0  0
   18.4130   -6.9816  -16.1629 O   0  0  0  0  0  0  0  0  0  0  0  0
   20.5176   -7.0800  -15.2469 N   0  0  0  0  0  0  0  0  0  0  0  0
   21.8716   -7.6717  -15.0598 C   0  0  0  0  0  0  0  0  0  0  0  0
   22.1701   -7.3191  -13.6153 C   0  0  0  0  0  0  0  0  0  0  0  0
   21.6540   -5.9216  -13.5370 C   0  0  0  0  0  0  0  0  0  0  0  0
   20.4545   -5.8907  -14.4508 C   0  0  1  0  0  0  0  0  0  0  0  0
   20.5107   -4.6623  -15.3169 C   0  0  0  0  0  0  0  0  0  0  0  0
   20.9176   -4.7811  -16.4844 O   0  0  0  0  0  0  0  0  0  0  0  0
   20.1195   -3.4415  -14.8212 O   0  0  0  0  0  0  0  0  0  0  0  0
  2  1  1  1
  3  2  1  0
  4  3  1  0
  5  2  1  0
  5  6  2  0
  7  5  1  0
  8  7  1  0
  9 10  1  0
  8  9  1  6
 10 14  1  0
 11 12  1  0
 11 10  2  0
 12 13  1  0
 13 14  2  0
 15 17  1  0
 15  8  1  0
 16 15  2  0
 17 18  1  0
 19 18  1  0
 20 19  1  0
 20 21  1  0
 21 17  1  0
 21 22  1  6
 22 24  1  0
 23 22  2  0
M  END
$$$$
