CHP.pdb
     RDKit          3D

 24 25  0  0  1  0  0  0  0  0999 V2000
   25.8643  -14.7687  -18.5198 N   0  0  0  0  0  0  0  0  0  0  0  0
   25.7515  -13.3590  -18.3468 C   0  0  1  0  0  0  0  0  0  0  0  0
   26.0170  -12.5948  -19.6213 C   0  0  0  0  0  0  0  0  0  0  0  0
   27.7702  -12.7755  -20.0399 S   0  0  0  0  0  0  0  0  0  0  0  0
   24.4824  -13.0016  -17.7120 C   0  0  0  0  0  0  0  0  0  0  0  0
   23.4191  -13.4941  -18.2220 O   0  0  0  0  0  0  0  0  0  0  0  0
   24.3286  -12.1702  -16.5983 N   0  0  0  0  0  0  0  0  0  0  0  0
   23.0304  -11.8679  -15.9795 C   0  0  1  0  0  0  0  0  0  0  0  0
   23.0429  -12.4636  -14.5691 C   0  0  0  0  0  0  0  0  0  0  0  0
   22.8407  -13.9468  -14.6899 C   0  0  0  0  0  0  0  0  0  0  0  0
   23.7750  -14.9494  -14.5147 C   0  0  0  0  0  0  0  0  0  0  0  0
   23.1857  -16.1403  -14.7160 N   0  0  0  0  0  0  0  0  0  0  0  0
   21.9061  -15.9154  -15.0130 C   0  0  0  0  0  0  0  0  0  0  0  0
   21.6980  -14.6052  -14.9979 N   0  0  0  0  0  0  0  0  0  0  0  0
   22.9214  -10.4169  -15.8364 C   0  0  0  0  0  0  0  0  0  0  0  0
   23.9673   -9.7471  -15.5299 O   0  0  0  0  0  0  0  0  0  0  0  0
   21.7234   -9.7078  -16.0214 N   0  0  0  0  0  0  0  0  0  0  0  0
   20.4184  -10.3306  -16.3788 C   0  0  0  0  0  0  0  0  0  0  0  0
   19.7631   -9.2352  -17.1979 C   0  0  0  0  0  0  0  0  0  0  0  0
   20.1258   -8.0192  -16.4135 C   0  0  0  0  0  0  0  0  0  0  0  0
   21.4979   -8.3029  -15.8552 C   0  0  1  0  0  0  0  0  0  0  0  0
   21.5404   -7.9214  -14.4009 C   0  0  0  0  0  0  0  0  0  0  0  0
   21.6208   -6.7170  -14.1085 O   0  0  0  0  0  0  0  0  0  0  0  0
   21.4910   -8.8880  -13.4251 O   0  0  0  0  0  0  0  0  0  0  0  0
  2  1  1  6
  3  2  1  0
  4  3  1  0
  5  2  1  0
  5  6  2  0
  7  5  1  0
  8  7  1  0
  9 10  1  0
  8  9  1  1
 10 14  1  0
 11 12  1  0
 11 10  2  0
 12 13  1  0
 13 14  2  0
 15 17  1  0
 15  8  1  0
 16 15  2  0
 17 18  1  0
 19 18  1  0
 20 19  1  0
 20 21  1  0
 21 17  1  0
 21 22  1  1
 22 24  1  0
 23 22  2  0
M  END
$$$$
