CHP.pdb
     RDKit          3D

 24 25  0  0  1  0  0  0  0  0999 V2000
   19.4431  -19.9677  -13.5844 N   0  0  0  0  0  0  0  0  0  0  0  0
   20.3383  -20.1480  -14.6781 C   0  0  1  0  0  0  0  0  0  0  0  0
   19.9043  -19.3963  -15.9132 C   0  0  0  0  0  0  0  0  0  0  0  0
   18.1948  -19.8606  -16.2923 S   0  0  0  0  0  0  0  0  0  0  0  0
   21.7197  -19.8671  -14.2859 C   0  0  0  0  0  0  0  0  0  0  0  0
   21.9457  -18.7437  -13.7201 O   0  0  0  0  0  0  0  0  0  0  0  0
   22.8141  -20.7169  -14.4742 N   0  0  0  0  0  0  0  0  0  0  0  0
   24.1842  -20.3864  -14.0583 C   0  0  1  0  0  0  0  0  0  0  0  0
   24.8305  -21.6732  -13.5382 C   0  0  0  0  0  0  0  0  0  0  0  0
   26.2143  -21.3377  -13.0611 C   0  0  0  0  0  0  0  0  0  0  0  0
   26.6224  -21.0454  -11.7738 C   0  0  0  0  0  0  0  0  0  0  0  0
   27.9438  -20.8003  -11.7759 N   0  0  0  0  0  0  0  0  0  0  0  0
   28.3791  -20.9300  -13.0289 C   0  0  0  0  0  0  0  0  0  0  0  0
   27.3471  -21.2511  -13.7983 N   0  0  0  0  0  0  0  0  0  0  0  0
   24.9330  -19.9738  -15.2444 C   0  0  0  0  0  0  0  0  0  0  0  0
   24.7318  -20.5915  -16.3464 O   0  0  0  0  0  0  0  0  0  0  0  0
   25.8674  -18.9255  -15.2451 N   0  0  0  0  0  0  0  0  0  0  0  0
   26.2668  -18.1475  -14.0394 C   0  0  0  0  0  0  0  0  0  0  0  0
   26.5719  -16.7857  -14.6330 C   0  0  0  0  0  0  0  0  0  0  0  0
   27.2940  -17.1605  -15.8834 C   0  0  0  0  0  0  0  0  0  0  0  0
   26.6453  -18.4411  -16.3463 C   0  0  1  0  0  0  0  0  0  0  0  0
   27.7069  -19.4348  -16.7309 C   0  0  0  0  0  0  0  0  0  0  0  0
   27.8526  -20.4462  -16.0248 O   0  0  0  0  0  0  0  0  0  0  0  0
   28.4928  -19.2217  -17.8381 O   0  0  0  0  0  0  0  0  0  0  0  0
  2  1  1  1
  3  2  1  0
  4  3  1  0
  5  2  1  0
  5  6  2  0
  7  5  1  0
  8  7  1  0
  9 10  1  0
  8  9  1  6
 10 14  1  0
 11 12  1  0
 11 10  2  0
 12 13  1  0
 13 14  2  0
 15 17  1  0
 15  8  1  0
 16 15  2  0
 17 18  1  0
 19 18  1  0
 20 19  1  0
 20 21  1  0
 21 17  1  0
 21 22  1  1
 22 24  1  0
 23 22  2  0
M  END
$$$$
