CHP.pdb
     RDKit          3D

 24 25  0  0  1  0  0  0  0  0999 V2000
   26.0158  -20.3265  -16.0419 N   0  0  0  0  0  0  0  0  0  0  0  0
   26.7631  -20.7692  -14.9124 C   0  0  1  0  0  0  0  0  0  0  0  0
   28.2268  -20.4127  -15.0091 C   0  0  0  0  0  0  0  0  0  0  0  0
   29.0183  -21.5611  -16.1651 S   0  0  0  0  0  0  0  0  0  0  0  0
   26.1431  -20.3326  -13.6610 C   0  0  0  0  0  0  0  0  0  0  0  0
   25.7579  -19.1157  -13.5974 O   0  0  0  0  0  0  0  0  0  0  0  0
   25.9343  -21.1266  -12.5291 N   0  0  0  0  0  0  0  0  0  0  0  0
   25.2933  -20.6409  -11.2992 C   0  0  1  0  0  0  0  0  0  0  0  0
   23.9202  -21.3110  -11.2002 C   0  0  0  0  0  0  0  0  0  0  0  0
   23.0288  -20.6990  -12.2424 C   0  0  0  0  0  0  0  0  0  0  0  0
   22.4606  -19.4396  -12.2422 C   0  0  0  0  0  0  0  0  0  0  0  0
   21.7297  -19.2863  -13.3595 N   0  0  0  0  0  0  0  0  0  0  0  0
   21.8218  -20.4143  -14.0633 C   0  0  0  0  0  0  0  0  0  0  0  0
   22.5977  -21.2597  -13.3974 N   0  0  0  0  0  0  0  0  0  0  0  0
   26.0847  -21.1034  -10.1602 C   0  0  0  0  0  0  0  0  0  0  0  0
   26.5478  -22.2959  -10.1746 O   0  0  0  0  0  0  0  0  0  0  0  0
   26.3722  -20.3053   -9.0410 N   0  0  0  0  0  0  0  0  0  0  0  0
   25.9236  -18.8954   -8.8699 C   0  0  0  0  0  0  0  0  0  0  0  0
   27.0552  -18.3043   -8.0513 C   0  0  0  0  0  0  0  0  0  0  0  0
   27.3300  -19.4060   -7.0836 C   0  0  0  0  0  0  0  0  0  0  0  0
   27.0772  -20.6794   -7.8514 C   0  0  1  0  0  0  0  0  0  0  0  0
   26.2544  -21.6194   -7.0138 C   0  0  0  0  0  0  0  0  0  0  0  0
   25.0566  -21.7742   -7.3039 O   0  0  0  0  0  0  0  0  0  0  0  0
   26.8212  -22.2872   -5.9547 O   0  0  0  0  0  0  0  0  0  0  0  0
  2  1  1  6
  3  2  1  0
  4  3  1  0
  5  2  1  0
  5  6  2  0
  7  5  1  0
  8  7  1  0
  9 10  1  0
  8  9  1  1
 10 14  1  0
 11 12  1  0
 11 10  2  0
 12 13  1  0
 13 14  2  0
 15 17  1  0
 15  8  1  0
 16 15  2  0
 17 18  1  0
 19 18  1  0
 20 19  1  0
 20 21  1  0
 21 17  1  0
 21 22  1  1
 22 24  1  0
 23 22  2  0
M  END
$$$$
