DSI.pdb
     RDKit          3D

 23 22  0  0  1  0  0  0  0  0999 V2000
    9.0239  -15.9150   18.6488 N   0  0  0  0  0  0  0  0  0  0  0  0
    8.7034  -14.6004   19.1257 C   0  0  1  0  0  0  0  0  0  0  0  0
    7.8667  -13.8472   18.0996 C   0  0  0  0  0  0  0  0  0  0  0  0
    8.4255  -14.0013   16.7447 C   0  0  0  0  0  0  0  0  0  0  0  0
    7.8642  -13.4019   15.7909 O   0  0  0  0  0  0  0  0  0  0  0  0
    7.9596  -14.6575   20.4293 C   0  0  0  0  0  0  0  0  0  0  0  0
    7.5492  -13.6070   20.9844 O   0  0  0  0  0  0  0  0  0  0  0  0
    9.5348  -14.7704   16.4661 O   0  0  0  0  0  0  0  0  0  0  0  0
    7.7046  -18.2202   22.6985 O   0  0  0  0  0  0  0  0  0  0  0  0
    6.5721  -17.4195   22.5503 C   0  0  0  0  0  0  0  0  0  0  0  0
    7.0178  -16.0025   22.3512 C   0  0  2  0  0  0  0  0  0  0  0  0
    7.6911  -15.8832   21.0824 N   0  0  0  0  0  0  0  0  0  0  0  0
    7.8535  -15.4921   23.4656 C   0  0  0  0  0  0  0  0  0  0  0  0
    9.0677  -15.3819   23.2453 O   0  0  0  0  0  0  0  0  0  0  0  0
    5.5943  -11.6435   26.5510 C   0  0  0  0  0  0  0  0  0  0  0  0
    6.6135  -12.4568   25.7588 C   0  0  0  0  0  0  0  0  0  0  0  0
    7.1979  -13.5497   26.6199 C   0  0  2  0  0  0  0  0  0  0  0  0
    8.1773  -12.8436   27.5612 C   0  0  0  0  0  0  0  0  0  0  0  0
    7.9659  -14.5874   25.8443 C   0  0  2  0  0  0  0  0  0  0  0  0
    7.2947  -15.1482   24.7167 N   0  0  0  0  0  0  0  0  0  0  0  0
    8.6482  -15.5427   26.6899 C   0  0  0  0  0  0  0  0  0  0  0  0
    9.8704  -15.3838   27.3037 O   0  0  0  0  0  0  0  0  0  0  0  0
    8.0869  -16.6725   26.9164 O   0  0  0  0  0  0  0  0  0  0  0  0
  2  1  1  6
  2  3  1  0
  3  4  1  0
  4  8  1  0
  4  5  2  0
  6 12  1  0
  6  2  1  0
  7  6  2  0
  9 10  1  0
 11 13  1  0
 11 10  1  1
 11 12  1  0
 13 20  1  0
 14 13  2  0
 16 15  1  0
 17 18  1  1
 17 16  1  0
 19 17  1  0
 19 20  1  6
 21 22  1  0
 21 19  1  0
 23 21  2  0
M  END
$$$$
