DSI.pdb
     RDKit          3D

 23 22  0  0  1  0  0  0  0  0999 V2000
    9.7923  -18.7625   21.4403 N   0  0  0  0  0  0  0  0  0  0  0  0
   10.6723  -17.6532   21.2091 C   0  0  1  0  0  0  0  0  0  0  0  0
   11.2192  -17.6902   19.7879 C   0  0  0  0  0  0  0  0  0  0  0  0
   12.1304  -18.8332   19.6006 C   0  0  0  0  0  0  0  0  0  0  0  0
   11.7693  -19.9646   20.0168 O   0  0  0  0  0  0  0  0  0  0  0  0
    9.9742  -16.3435   21.4399 C   0  0  0  0  0  0  0  0  0  0  0  0
   10.6183  -15.2643   21.4621 O   0  0  0  0  0  0  0  0  0  0  0  0
   13.3620  -18.7276   18.9910 O   0  0  0  0  0  0  0  0  0  0  0  0
    5.9011  -16.2614   22.3107 O   0  0  0  0  0  0  0  0  0  0  0  0
    6.3962  -15.2775   21.4549 C   0  0  0  0  0  0  0  0  0  0  0  0
    7.8372  -15.0398   21.7913 C   0  0  2  0  0  0  0  0  0  0  0  0
    8.5759  -16.2683   21.6403 N   0  0  0  0  0  0  0  0  0  0  0  0
    8.0315  -14.4450   23.1363 C   0  0  0  0  0  0  0  0  0  0  0  0
    7.6920  -13.2617   23.2759 O   0  0  0  0  0  0  0  0  0  0  0  0
    6.2349  -11.9865   26.1769 C   0  0  0  0  0  0  0  0  0  0  0  0
    7.3572  -12.7097   25.4385 C   0  0  0  0  0  0  0  0  0  0  0  0
    7.7852  -13.9373   26.2048 C   0  0  2  0  0  0  0  0  0  0  0  0
    8.3433  -13.4129   27.5306 C   0  0  0  0  0  0  0  0  0  0  0  0
    8.8712  -14.7286   25.5246 C   0  0  2  0  0  0  0  0  0  0  0  0
    8.5765  -15.1891   24.2064 N   0  0  0  0  0  0  0  0  0  0  0  0
    9.4934  -15.7058   26.3913 C   0  0  0  0  0  0  0  0  0  0  0  0
   10.2926  -15.4566   27.4845 O   0  0  0  0  0  0  0  0  0  0  0  0
    9.3049  -16.9500   26.1482 O   0  0  0  0  0  0  0  0  0  0  0  0
  2  1  1  6
  2  3  1  0
  3  4  1  0
  4  8  1  0
  4  5  2  0
  6 12  1  0
  6  2  1  0
  7  6  2  0
  9 10  1  0
 11 13  1  0
 11 10  1  1
 11 12  1  0
 13 20  1  0
 14 13  2  0
 16 15  1  0
 17 18  1  1
 17 16  1  0
 19 17  1  0
 19 20  1  6
 21 22  1  0
 21 19  1  0
 23 21  2  0
M  END
$$$$
