DSI.pdb
     RDKit          3D

 23 22  0  0  1  0  0  0  0  0999 V2000
   10.7113  -17.7628   18.6773 N   0  0  0  0  0  0  0  0  0  0  0  0
   11.0584  -17.5915   20.0588 C   0  0  1  0  0  0  0  0  0  0  0  0
   12.3078  -16.7308   20.1947 C   0  0  0  0  0  0  0  0  0  0  0  0
   13.4950  -17.4353   19.6788 C   0  0  0  0  0  0  0  0  0  0  0  0
   13.7847  -18.5600   20.1635 O   0  0  0  0  0  0  0  0  0  0  0  0
    9.9344  -16.9627   20.8315 C   0  0  0  0  0  0  0  0  0  0  0  0
    9.3200  -15.9639   20.3789 O   0  0  0  0  0  0  0  0  0  0  0  0
   14.3077  -16.9250   18.6895 O   0  0  0  0  0  0  0  0  0  0  0  0
    8.3652  -18.7535   24.3557 O   0  0  0  0  0  0  0  0  0  0  0  0
    7.6034  -18.1169   23.3759 C   0  0  0  0  0  0  0  0  0  0  0  0
    8.3948  -16.9642   22.8364 C   0  0  2  0  0  0  0  0  0  0  0  0
    9.5224  -17.4620   22.0893 N   0  0  0  0  0  0  0  0  0  0  0  0
    8.8136  -16.0027   23.8856 C   0  0  0  0  0  0  0  0  0  0  0  0
   10.0170  -15.9892   24.1798 O   0  0  0  0  0  0  0  0  0  0  0  0
    6.6299  -10.7983   26.5898 C   0  0  0  0  0  0  0  0  0  0  0  0
    7.5987  -11.9761   26.6317 C   0  0  0  0  0  0  0  0  0  0  0  0
    7.2014  -13.0203   25.6171 C   0  0  2  0  0  0  0  0  0  0  0  0
    5.8419  -13.5448   26.0869 C   0  0  0  0  0  0  0  0  0  0  0  0
    8.1500  -14.1879   25.5455 C   0  0  2  0  0  0  0  0  0  0  0  0
    7.8878  -15.1440   24.5192 N   0  0  0  0  0  0  0  0  0  0  0  0
    8.4629  -14.7492   26.8418 C   0  0  0  0  0  0  0  0  0  0  0  0
    8.1797  -16.0213   27.2861 O   0  0  0  0  0  0  0  0  0  0  0  0
    9.0691  -14.0137   27.6988 O   0  0  0  0  0  0  0  0  0  0  0  0
  2  1  1  6
  2  3  1  0
  3  4  1  0
  4  8  1  0
  4  5  2  0
  6 12  1  0
  6  2  1  0
  7  6  2  0
  9 10  1  0
 11 13  1  0
 11 10  1  1
 11 12  1  0
 13 20  1  0
 14 13  2  0
 16 15  1  0
 17 18  1  1
 17 16  1  0
 19 17  1  0
 19 20  1  6
 21 22  1  0
 21 19  1  0
 23 21  2  0
M  END
$$$$
