VGW.pdb
     RDKit          3D

 26 27  0  0  1  0  0  0  0  0999 V2000
    7.6461  -12.3426   18.7348 C   0  0  0  0  0  0  0  0  0  0  0  0
    7.5978  -13.4188   19.8230 C   0  0  1  0  0  0  0  0  0  0  0  0
    6.5900  -14.4875   19.4563 C   0  0  0  0  0  0  0  0  0  0  0  0
    8.9605  -14.0694   19.8728 C   0  0  2  0  0  0  0  0  0  0  0  0
    9.1961  -14.7375   18.5953 N   0  0  0  0  0  0  0  0  0  0  0  0
    9.0763  -15.0298   20.9839 C   0  0  0  0  0  0  0  0  0  0  0  0
    9.0227  -14.6116   22.1659 O   0  0  0  0  0  0  0  0  0  0  0  0
    9.2466  -16.4119   20.6557 N   0  0  0  0  0  0  0  0  0  0  0  0
    9.3135  -17.4069   21.6919 C   0  0  0  0  0  0  0  0  0  0  0  0
    9.9701  -16.9804   22.9273 C   0  0  0  0  0  0  0  0  0  0  0  0
   11.1663  -16.5311   22.8631 O   0  0  0  0  0  0  0  0  0  0  0  0
    9.4188  -17.0100   24.2307 N   0  0  0  0  0  0  0  0  0  0  0  0
   10.1537  -16.5547   25.4028 C   0  0  1  0  0  0  0  0  0  0  0  0
    9.9809  -15.0638   25.6103 C   0  0  0  0  0  0  0  0  0  0  0  0
    8.5358  -14.7370   25.6356 C   0  0  0  0  0  0  0  0  0  0  0  0
    7.4903  -15.6216   25.3781 C   0  0  0  0  0  0  0  0  0  0  0  0
    6.3237  -14.9774   25.4911 N   0  0  0  0  0  0  0  0  0  0  0  0
    6.5660  -13.6956   25.8152 C   0  0  0  0  0  0  0  0  0  0  0  0
    5.7430  -12.6132   26.0489 C   0  0  0  0  0  0  0  0  0  0  0  0
    6.2209  -11.3605   26.3746 C   0  0  0  0  0  0  0  0  0  0  0  0
    7.5959  -11.1948   26.4685 C   0  0  0  0  0  0  0  0  0  0  0  0
    8.4362  -12.2664   26.2381 C   0  0  0  0  0  0  0  0  0  0  0  0
    7.9503  -13.5147   25.9131 C   0  0  0  0  0  0  0  0  0  0  0  0
    9.6681  -17.3260   26.5687 C   0  0  0  0  0  0  0  0  0  0  0  0
    8.6901  -18.2972   26.4051 O   0  0  0  0  0  0  0  0  0  0  0  0
   10.1094  -17.1405   27.7315 O   0  0  0  0  0  0  0  0  0  0  0  0
  2  3  1  6
  2  1  1  0
  4  6  1  0
  4  2  1  0
  4  5  1  6
  6  8  1  0
  6  7  2  0
  8  9  1  0
 10 11  2  0
 10  9  1  0
 12 10  1  0
 13 14  1  1
 13 12  1  0
 14 15  1  0
 15 16  2  0
 16 17  1  0
 18 17  1  0
 19 18  2  0
 20 19  1  0
 21 22  1  0
 21 20  2  0
 22 23  2  0
 23 15  1  0
 23 18  1  0
 24 13  1  0
 25 24  1  0
 26 24  2  0
M  END
$$$$
