VGW.pdb
     RDKit          3D

 26 27  0  0  1  0  0  0  0  0999 V2000
    7.4120  -12.3445   19.6719 C   0  0  0  0  0  0  0  0  0  0  0  0
    8.3130  -13.1670   20.5974 C   0  0  1  0  0  0  0  0  0  0  0  0
    7.7205  -13.2218   21.9896 C   0  0  0  0  0  0  0  0  0  0  0  0
    8.3462  -14.5771   20.0559 C   0  0  2  0  0  0  0  0  0  0  0  0
    6.9942  -15.1262   20.1247 N   0  0  0  0  0  0  0  0  0  0  0  0
    9.2872  -15.4341   20.7977 C   0  0  0  0  0  0  0  0  0  0  0  0
   10.5191  -15.2100   20.7144 O   0  0  0  0  0  0  0  0  0  0  0  0
    8.7421  -16.4949   21.5879 N   0  0  0  0  0  0  0  0  0  0  0  0
    9.6070  -17.3802   22.3204 C   0  0  0  0  0  0  0  0  0  0  0  0
   10.1666  -16.8288   23.5541 C   0  0  0  0  0  0  0  0  0  0  0  0
   11.3423  -16.3250   23.5233 O   0  0  0  0  0  0  0  0  0  0  0  0
    9.5390  -16.7882   24.8223 N   0  0  0  0  0  0  0  0  0  0  0  0
   10.2917  -16.7162   26.0670 C   0  0  1  0  0  0  0  0  0  0  0  0
    9.6540  -15.7403   27.0349 C   0  0  0  0  0  0  0  0  0  0  0  0
    8.3491  -15.2946   26.4925 C   0  0  0  0  0  0  0  0  0  0  0  0
    7.3217  -16.1222   26.0437 C   0  0  0  0  0  0  0  0  0  0  0  0
    6.2968  -15.3723   25.6240 N   0  0  0  0  0  0  0  0  0  0  0  0
    6.6151  -14.0760   25.7816 C   0  0  0  0  0  0  0  0  0  0  0  0
    5.9391  -12.9029   25.5165 C   0  0  0  0  0  0  0  0  0  0  0  0
    6.4720  -11.6544   25.7636 C   0  0  0  0  0  0  0  0  0  0  0  0
    7.7489  -11.5894   26.3043 C   0  0  0  0  0  0  0  0  0  0  0  0
    8.4417  -12.7528   26.5765 C   0  0  0  0  0  0  0  0  0  0  0  0
    7.9017  -13.9960   26.3266 C   0  0  0  0  0  0  0  0  0  0  0  0
   10.3576  -18.0811   26.6351 C   0  0  0  0  0  0  0  0  0  0  0  0
   11.1786  -18.3457   27.7226 O   0  0  0  0  0  0  0  0  0  0  0  0
    9.6889  -19.0387   26.1695 O   0  0  0  0  0  0  0  0  0  0  0  0
  2  3  1  1
  2  1  1  0
  4  6  1  0
  4  2  1  0
  4  5  1  1
  6  8  1  0
  6  7  2  0
  8  9  1  0
 10 11  2  0
 10  9  1  0
 12 10  1  0
 13 14  1  1
 13 12  1  0
 14 15  1  0
 15 16  2  0
 16 17  1  0
 18 17  1  0
 19 18  2  0
 20 19  1  0
 21 22  1  0
 21 20  2  0
 22 23  2  0
 23 15  1  0
 23 18  1  0
 24 13  1  0
 25 24  1  0
 26 24  2  0
M  END
$$$$
