VGW.pdb
     RDKit          3D

 26 27  0  0  1  0  0  0  0  0999 V2000
    8.1587  -12.4159   19.1190 C   0  0  0  0  0  0  0  0  0  0  0  0
    8.4940  -13.3506   20.2847 C   0  0  1  0  0  0  0  0  0  0  0  0
    7.8898  -12.8219   21.5684 C   0  0  0  0  0  0  0  0  0  0  0  0
    7.8512  -14.6857   19.9897 C   0  0  2  0  0  0  0  0  0  0  0  0
    6.4653  -14.4494   19.5932 N   0  0  0  0  0  0  0  0  0  0  0  0
    7.9065  -15.5957   21.1469 C   0  0  0  0  0  0  0  0  0  0  0  0
    6.9825  -15.5677   21.9955 O   0  0  0  0  0  0  0  0  0  0  0  0
    9.0273  -16.4793   21.2474 N   0  0  0  0  0  0  0  0  0  0  0  0
    9.2080  -17.3019   22.4131 C   0  0  0  0  0  0  0  0  0  0  0  0
    9.7819  -16.6233   23.5747 C   0  0  0  0  0  0  0  0  0  0  0  0
   10.8079  -15.8779   23.4053 O   0  0  0  0  0  0  0  0  0  0  0  0
    9.3205  -16.6994   24.9108 N   0  0  0  0  0  0  0  0  0  0  0  0
   10.1692  -16.3849   26.0518 C   0  0  1  0  0  0  0  0  0  0  0  0
    9.3743  -15.7182   27.1561 C   0  0  0  0  0  0  0  0  0  0  0  0
    8.1094  -15.1867   26.5966 C   0  0  0  0  0  0  0  0  0  0  0  0
    7.0612  -15.9429   26.0757 C   0  0  0  0  0  0  0  0  0  0  0  0
    6.0856  -15.1268   25.6625 N   0  0  0  0  0  0  0  0  0  0  0  0
    6.4563  -13.8558   25.8941 C   0  0  0  0  0  0  0  0  0  0  0  0
    5.8427  -12.6411   25.6670 C   0  0  0  0  0  0  0  0  0  0  0  0
    6.4227  -11.4321   25.9923 C   0  0  0  0  0  0  0  0  0  0  0  0
    7.6826  -11.4528   26.5747 C   0  0  0  0  0  0  0  0  0  0  0  0
    8.3132  -12.6589   26.8099 C   0  0  0  0  0  0  0  0  0  0  0  0
    7.7265  -13.8622   26.4818 C   0  0  0  0  0  0  0  0  0  0  0  0
   10.7906  -17.6459   26.5143 C   0  0  0  0  0  0  0  0  0  0  0  0
   11.8276  -17.6160   27.4364 O   0  0  0  0  0  0  0  0  0  0  0  0
   10.4160  -18.7734   26.1026 O   0  0  0  0  0  0  0  0  0  0  0  0
  2  3  1  1
  2  1  1  0
  4  6  1  0
  4  2  1  0
  4  5  1  1
  6  8  1  0
  6  7  2  0
  8  9  1  0
 10 11  2  0
 10  9  1  0
 12 10  1  0
 13 14  1  1
 13 12  1  0
 14 15  1  0
 15 16  2  0
 16 17  1  0
 18 17  1  0
 19 18  2  0
 20 19  1  0
 21 22  1  0
 21 20  2  0
 22 23  2  0
 23 15  1  0
 23 18  1  0
 24 13  1  0
 25 24  1  0
 26 24  2  0
M  END
$$$$
