VGW.pdb
     RDKit          3D

 26 27  0  0  1  0  0  0  0  0999 V2000
    7.8678  -12.4342   18.3053 C   0  0  0  0  0  0  0  0  0  0  0  0
    8.6515  -13.2438   19.3422 C   0  0  1  0  0  0  0  0  0  0  0  0
    7.7998  -13.4819   20.5712 C   0  0  0  0  0  0  0  0  0  0  0  0
    8.9556  -14.5893   18.7258 C   0  0  2  0  0  0  0  0  0  0  0  0
    7.7075  -15.1529   18.2172 N   0  0  0  0  0  0  0  0  0  0  0  0
    9.5811  -15.5120   19.6889 C   0  0  0  0  0  0  0  0  0  0  0  0
    8.8743  -16.3794   20.2572 O   0  0  0  0  0  0  0  0  0  0  0  0
   10.9840  -15.3716   19.9323 N   0  0  0  0  0  0  0  0  0  0  0  0
   11.6294  -16.1452   20.9585 C   0  0  0  0  0  0  0  0  0  0  0  0
   11.2001  -15.8526   22.3257 C   0  0  0  0  0  0  0  0  0  0  0  0
   11.4723  -14.7054   22.8223 O   0  0  0  0  0  0  0  0  0  0  0  0
   10.4966  -16.7211   23.1944 N   0  0  0  0  0  0  0  0  0  0  0  0
    9.6006  -16.2329   24.2335 C   0  0  1  0  0  0  0  0  0  0  0  0
    8.5587  -15.2945   23.6594 C   0  0  0  0  0  0  0  0  0  0  0  0
    7.6071  -14.9070   24.7271 C   0  0  0  0  0  0  0  0  0  0  0  0
    6.6694  -15.7414   25.3323 C   0  0  0  0  0  0  0  0  0  0  0  0
    5.9850  -15.0502   26.2503 N   0  0  0  0  0  0  0  0  0  0  0  0
    6.4412  -13.7861   26.2703 C   0  0  0  0  0  0  0  0  0  0  0  0
    6.0976  -12.6741   27.0110 C   0  0  0  0  0  0  0  0  0  0  0  0
    6.7143  -11.4490   26.8604 C   0  0  0  0  0  0  0  0  0  0  0  0
    7.7263  -11.3438   25.9160 C   0  0  0  0  0  0  0  0  0  0  0  0
    8.0845  -12.4459   25.1646 C   0  0  0  0  0  0  0  0  0  0  0  0
    7.4631  -13.6661   25.3215 C   0  0  0  0  0  0  0  0  0  0  0  0
    8.9762  -17.4081   24.8810 C   0  0  0  0  0  0  0  0  0  0  0  0
    9.0764  -17.5839   26.2542 O   0  0  0  0  0  0  0  0  0  0  0  0
    8.3423  -18.2786   24.2318 O   0  0  0  0  0  0  0  0  0  0  0  0
  2  3  1  1
  2  1  1  0
  4  6  1  0
  4  2  1  0
  4  5  1  1
  6  8  1  0
  6  7  2  0
  8  9  1  0
 10 11  2  0
 10  9  1  0
 12 10  1  0
 13 14  1  6
 13 12  1  0
 14 15  1  0
 15 16  2  0
 16 17  1  0
 18 17  1  0
 19 18  2  0
 20 19  1  0
 21 22  1  0
 21 20  2  0
 22 23  2  0
 23 15  1  0
 23 18  1  0
 24 13  1  0
 25 24  1  0
 26 24  2  0
M  END
$$$$
