LLL.pdb
     RDKit          3D

 25 24  0  0  1  0  0  0  0  0999 V2000
   20.3444  -20.6298  -12.1639 C   0  0  0  0  0  0  0  0  0  0  0  0
   21.0681  -20.6353  -13.4988 C   0  0  2  0  0  0  0  0  0  0  0  0
   20.2882  -21.5445  -14.4248 C   0  0  0  0  0  0  0  0  0  0  0  0
   22.4702  -21.2001  -13.3651 C   0  0  0  0  0  0  0  0  0  0  0  0
   23.2201  -20.3487  -12.3712 C   0  0  2  0  0  0  0  0  0  0  0  0
   23.2614  -18.9896  -12.7997 N   0  0  0  0  0  0  0  0  0  0  0  0
   24.5513  -20.9034  -12.0339 C   0  0  0  0  0  0  0  0  0  0  0  0
   24.6192  -22.1146  -11.7066 O   0  0  0  0  0  0  0  0  0  0  0  0
   27.9690  -21.2092  -14.5662 C   0  0  0  0  0  0  0  0  0  0  0  0
   28.0079  -19.8459  -13.8708 C   0  0  2  0  0  0  0  0  0  0  0  0
   29.1264  -19.0475  -14.4929 C   0  0  0  0  0  0  0  0  0  0  0  0
   28.1834  -20.1105  -12.4157 C   0  0  0  0  0  0  0  0  0  0  0  0
   27.0190  -20.7590  -11.7270 C   0  0  2  0  0  0  0  0  0  0  0  0
   25.7511  -20.1960  -12.0463 N   0  0  0  0  0  0  0  0  0  0  0  0
   27.2596  -20.9970  -10.2975 C   0  0  0  0  0  0  0  0  0  0  0  0
   28.3540  -21.5001   -9.8616 O   0  0  0  0  0  0  0  0  0  0  0  0
   28.8218  -20.6871   -5.4508 C   0  0  0  0  0  0  0  0  0  0  0  0
   27.6547  -19.8323   -5.8052 C   0  0  1  0  0  0  0  0  0  0  0  0
   27.9448  -18.4450   -5.2357 C   0  0  0  0  0  0  0  0  0  0  0  0
   27.3029  -19.7530   -7.2427 C   0  0  0  0  0  0  0  0  0  0  0  0
   26.6046  -20.9158   -7.8558 C   0  0  2  0  0  0  0  0  0  0  0  0
   26.3188  -20.6933   -9.2743 N   0  0  0  0  0  0  0  0  0  0  0  0
   25.3579  -21.2369   -7.1688 C   0  0  0  0  0  0  0  0  0  0  0  0
   24.1059  -21.3838   -7.7721 O   0  0  0  0  0  0  0  0  0  0  0  0
   25.3428  -21.4130   -5.9025 O   0  0  0  0  0  0  0  0  0  0  0  0
  2  1  1  1
  3  2  1  0
  4  2  1  0
  4  5  1  0
  5  6  1  6
  7  8  2  0
  7  5  1  0
 10  9  1  6
 10 12  1  0
 11 10  1  0
 13 12  1  1
 13 14  1  0
 14  7  1  0
 15 13  1  0
 16 15  2  0
 18 17  1  6
 19 18  1  0
 20 18  1  0
 21 20  1  1
 21 22  1  0
 22 15  1  0
 23 21  1  0
 24 23  1  0
 25 23  2  0
M  END
$$$$
