LLL.pdb
     RDKit          3D

 25 24  0  0  1  0  0  0  0  0999 V2000
   24.7692  -18.2134  -17.3585 C   0  0  0  0  0  0  0  0  0  0  0  0
   26.2518  -18.4420  -17.1223 C   0  0  2  0  0  0  0  0  0  0  0  0
   26.8169  -19.0472  -18.3899 C   0  0  0  0  0  0  0  0  0  0  0  0
   26.4859  -19.4273  -15.9922 C   0  0  0  0  0  0  0  0  0  0  0  0
   25.9247  -18.8252  -14.7283 C   0  0  2  0  0  0  0  0  0  0  0  0
   26.4086  -17.4970  -14.5433 N   0  0  0  0  0  0  0  0  0  0  0  0
   26.1190  -19.6956  -13.5459 C   0  0  0  0  0  0  0  0  0  0  0  0
   25.8273  -20.9127  -13.6560 O   0  0  0  0  0  0  0  0  0  0  0  0
   27.6704  -19.4531   -7.5726 C   0  0  0  0  0  0  0  0  0  0  0  0
   27.5343  -20.3760   -8.7865 C   0  0  2  0  0  0  0  0  0  0  0  0
   28.7574  -21.2577   -8.8294 C   0  0  0  0  0  0  0  0  0  0  0  0
   27.3733  -19.4975   -9.9784 C   0  0  0  0  0  0  0  0  0  0  0  0
   26.6872  -20.1205  -11.1582 C   0  0  2  0  0  0  0  0  0  0  0  0
   26.6020  -19.2832  -12.3062 N   0  0  0  0  0  0  0  0  0  0  0  0
   25.4468  -20.8192  -10.7957 C   0  0  0  0  0  0  0  0  0  0  0  0
   25.4484  -21.9680  -10.2289 O   0  0  0  0  0  0  0  0  0  0  0  0
   21.2886  -22.4401   -8.2616 C   0  0  0  0  0  0  0  0  0  0  0  0
   21.2413  -21.0055   -8.6590 C   0  0  1  0  0  0  0  0  0  0  0  0
   20.8196  -20.2250   -7.4155 C   0  0  0  0  0  0  0  0  0  0  0  0
   22.4781  -20.4390   -9.2470 C   0  0  0  0  0  0  0  0  0  0  0  0
   22.9329  -20.9696  -10.5612 C   0  0  2  0  0  0  0  0  0  0  0  0
   24.1449  -20.2958  -11.0306 N   0  0  0  0  0  0  0  0  0  0  0  0
   21.9032  -20.8570  -11.5890 C   0  0  0  0  0  0  0  0  0  0  0  0
   20.8158  -21.7190  -11.7553 O   0  0  0  0  0  0  0  0  0  0  0  0
   21.9416  -19.9064  -12.4431 O   0  0  0  0  0  0  0  0  0  0  0  0
  2  1  1  6
  3  2  1  0
  4  2  1  0
  4  5  1  0
  5  6  1  1
  7  8  2  0
  7  5  1  0
 10  9  1  1
 10 12  1  0
 11 10  1  0
 13 12  1  1
 13 14  1  0
 14  7  1  0
 15 13  1  0
 16 15  2  0
 18 17  1  1
 19 18  1  0
 20 18  1  0
 21 20  1  1
 21 22  1  0
 22 15  1  0
 23 21  1  0
 24 23  1  0
 25 23  2  0
M  END
$$$$
