LLL.pdb
     RDKit          3D

 25 24  0  0  1  0  0  0  0  0999 V2000
   20.4493  -18.7992  -15.9041 C   0  0  0  0  0  0  0  0  0  0  0  0
   21.5181  -18.8039  -16.9827 C   0  0  2  0  0  0  0  0  0  0  0  0
   20.8956  -19.4065  -18.2244 C   0  0  0  0  0  0  0  0  0  0  0  0
   22.6988  -19.6712  -16.5870 C   0  0  0  0  0  0  0  0  0  0  0  0
   23.2248  -19.1642  -15.2674 C   0  0  2  0  0  0  0  0  0  0  0  0
   23.6557  -17.8100  -15.3819 N   0  0  0  0  0  0  0  0  0  0  0  0
   24.2443  -20.0613  -14.6763 C   0  0  0  0  0  0  0  0  0  0  0  0
   23.9913  -21.2913  -14.6306 O   0  0  0  0  0  0  0  0  0  0  0  0
   30.1301  -20.0718  -12.7494 C   0  0  0  0  0  0  0  0  0  0  0  0
   28.8932  -20.9136  -13.0739 C   0  0  2  0  0  0  0  0  0  0  0  0
   29.2831  -21.9060  -14.1408 C   0  0  0  0  0  0  0  0  0  0  0  0
   27.8229  -19.9636  -13.4863 C   0  0  0  0  0  0  0  0  0  0  0  0
   26.4497  -20.5513  -13.6273 C   0  0  2  0  0  0  0  0  0  0  0  0
   25.4744  -19.6615  -14.1595 N   0  0  0  0  0  0  0  0  0  0  0  0
   26.0282  -21.3114  -12.4429 C   0  0  0  0  0  0  0  0  0  0  0  0
   26.1499  -22.5843  -12.3670 O   0  0  0  0  0  0  0  0  0  0  0  0
   25.1388  -19.1962   -8.0073 C   0  0  0  0  0  0  0  0  0  0  0  0
   26.1569  -20.1644   -8.5016 C   0  0  1  0  0  0  0  0  0  0  0  0
   27.1739  -20.3367   -7.3750 C   0  0  0  0  0  0  0  0  0  0  0  0
   25.6521  -21.4780   -8.9664 C   0  0  0  0  0  0  0  0  0  0  0  0
   24.8450  -21.5132  -10.2165 C   0  0  2  0  0  0  0  0  0  0  0  0
   25.4573  -20.7182  -11.2826 N   0  0  0  0  0  0  0  0  0  0  0  0
   23.4788  -21.0458  -10.0058 C   0  0  0  0  0  0  0  0  0  0  0  0
   22.5648  -21.5763   -9.0913 O   0  0  0  0  0  0  0  0  0  0  0  0
   23.0169  -20.0666  -10.6858 O   0  0  0  0  0  0  0  0  0  0  0  0
  2  1  1  1
  3  2  1  0
  4  2  1  0
  4  5  1  0
  5  6  1  6
  7  8  2  0
  7  5  1  0
 10  9  1  6
 10 12  1  0
 11 10  1  0
 13 12  1  1
 13 14  1  0
 14  7  1  0
 15 13  1  0
 16 15  2  0
 18 17  1  1
 19 18  1  0
 20 18  1  0
 21 20  1  1
 21 22  1  0
 22 15  1  0
 23 21  1  0
 24 23  1  0
 25 23  2  0
M  END
$$$$
