LLL.pdb
     RDKit          3D

 25 24  0  0  1  0  0  0  0  0999 V2000
   19.9295  -19.7469  -14.9515 C   0  0  0  0  0  0  0  0  0  0  0  0
   20.9164  -19.6349  -16.1001 C   0  0  2  0  0  0  0  0  0  0  0  0
   20.2706  -20.2816  -17.3072 C   0  0  0  0  0  0  0  0  0  0  0  0
   22.2002  -20.3867  -15.8012 C   0  0  0  0  0  0  0  0  0  0  0  0
   22.8077  -19.7900  -14.5562 C   0  0  2  0  0  0  0  0  0  0  0  0
   22.8352  -18.3670  -14.6396 N   0  0  0  0  0  0  0  0  0  0  0  0
   24.1198  -20.3881  -14.2179 C   0  0  0  0  0  0  0  0  0  0  0  0
   24.1722  -21.6306  -14.0390 O   0  0  0  0  0  0  0  0  0  0  0  0
   27.4692  -19.8382  -16.7025 C   0  0  0  0  0  0  0  0  0  0  0  0
   27.5405  -18.8125  -15.5683 C   0  0  2  0  0  0  0  0  0  0  0  0
   28.6413  -17.8370  -15.9031 C   0  0  0  0  0  0  0  0  0  0  0  0
   27.7651  -19.5775  -14.3103 C   0  0  0  0  0  0  0  0  0  0  0  0
   26.5667  -20.2940  -13.7615 C   0  0  2  0  0  0  0  0  0  0  0  0
   25.3170  -19.6902  -14.0780 N   0  0  0  0  0  0  0  0  0  0  0  0
   26.7334  -20.6967  -12.3586 C   0  0  0  0  0  0  0  0  0  0  0  0
   27.7203  -21.4116  -11.9640 O   0  0  0  0  0  0  0  0  0  0  0  0
   28.2214  -21.1539   -7.4568 C   0  0  0  0  0  0  0  0  0  0  0  0
   27.1030  -20.2067   -7.7220 C   0  0  1  0  0  0  0  0  0  0  0  0
   27.3955  -18.9507   -6.9034 C   0  0  0  0  0  0  0  0  0  0  0  0
   26.8440  -19.8669   -9.1411 C   0  0  0  0  0  0  0  0  0  0  0  0
   26.0016  -20.7986   -9.9397 C   0  0  2  0  0  0  0  0  0  0  0  0
   25.8331  -20.3349  -11.3181 N   0  0  0  0  0  0  0  0  0  0  0  0
   24.6838  -20.9992   -9.3458 C   0  0  0  0  0  0  0  0  0  0  0  0
   24.4183  -21.6827   -8.1561 O   0  0  0  0  0  0  0  0  0  0  0  0
   23.6388  -20.5314   -9.9147 O   0  0  0  0  0  0  0  0  0  0  0  0
  2  1  1  1
  3  2  1  0
  4  2  1  0
  4  5  1  0
  5  6  1  6
  7  8  2  0
  7  5  1  0
 10  9  1  6
 10 12  1  0
 11 10  1  0
 13 12  1  1
 13 14  1  0
 14  7  1  0
 15 13  1  0
 16 15  2  0
 18 17  1  6
 19 18  1  0
 20 18  1  0
 21 20  1  1
 21 22  1  0
 22 15  1  0
 23 21  1  0
 24 23  1  0
 25 23  2  0
M  END
$$$$
