LLL.pdb
     RDKit          3D

 25 24  0  0  1  0  0  0  0  0999 V2000
   19.9180  -20.0689  -13.0373 C   0  0  0  0  0  0  0  0  0  0  0  0
   20.6941  -20.1750  -14.3381 C   0  0  2  0  0  0  0  0  0  0  0  0
   19.8988  -21.0755  -15.2595 C   0  0  0  0  0  0  0  0  0  0  0  0
   22.0524  -20.8157  -14.1206 C   0  0  0  0  0  0  0  0  0  0  0  0
   22.8138  -19.9649  -13.1350 C   0  0  2  0  0  0  0  0  0  0  0  0
   22.9072  -18.6190  -13.5957 N   0  0  0  0  0  0  0  0  0  0  0  0
   24.1203  -20.5543  -12.7616 C   0  0  0  0  0  0  0  0  0  0  0  0
   24.1603  -21.7838  -12.5055 O   0  0  0  0  0  0  0  0  0  0  0  0
   27.8285  -21.2893  -14.9910 C   0  0  0  0  0  0  0  0  0  0  0  0
   27.7318  -19.8244  -14.5567 C   0  0  2  0  0  0  0  0  0  0  0  0
   28.8788  -19.0819  -15.1958 C   0  0  0  0  0  0  0  0  0  0  0  0
   27.7533  -19.8153  -13.0675 C   0  0  0  0  0  0  0  0  0  0  0  0
   26.5827  -20.4704  -12.3957 C   0  0  2  0  0  0  0  0  0  0  0  0
   25.3249  -19.8615  -12.6669 N   0  0  0  0  0  0  0  0  0  0  0  0
   26.8368  -20.7873  -10.9839 C   0  0  0  0  0  0  0  0  0  0  0  0
   27.8149  -21.5269  -10.6133 O   0  0  0  0  0  0  0  0  0  0  0  0
   28.3090  -21.0448   -6.0213 C   0  0  0  0  0  0  0  0  0  0  0  0
   27.3246  -19.9712   -6.3321 C   0  0  1  0  0  0  0  0  0  0  0  0
   27.8249  -18.7088   -5.6326 C   0  0  0  0  0  0  0  0  0  0  0  0
   27.0563  -19.7123   -7.7664 C   0  0  0  0  0  0  0  0  0  0  0  0
   26.2632  -20.7206   -8.5214 C   0  0  2  0  0  0  0  0  0  0  0  0
   26.0381  -20.3089   -9.9082 N   0  0  0  0  0  0  0  0  0  0  0  0
   24.9734  -20.9912   -7.8950 C   0  0  0  0  0  0  0  0  0  0  0  0
   23.7261  -20.9006   -8.5188 O   0  0  0  0  0  0  0  0  0  0  0  0
   24.9109  -21.3486   -6.6690 O   0  0  0  0  0  0  0  0  0  0  0  0
  2  1  1  1
  3  2  1  0
  4  2  1  0
  4  5  1  0
  5  6  1  6
  7  8  2  0
  7  5  1  0
 10  9  1  6
 10 12  1  0
 11 10  1  0
 13 12  1  1
 13 14  1  0
 14  7  1  0
 15 13  1  0
 16 15  2  0
 18 17  1  6
 19 18  1  0
 20 18  1  0
 21 20  1  1
 21 22  1  0
 22 15  1  0
 23 21  1  0
 24 23  1  0
 25 23  2  0
M  END
$$$$
