LLL.pdb
     RDKit          3D

 25 24  0  0  1  0  0  0  0  0999 V2000
   16.3803  -13.6731  -17.2261 C   0  0  0  0  0  0  0  0  0  0  0  0
   17.5597  -14.4565  -16.6774 C   0  0  2  0  0  0  0  0  0  0  0  0
   16.9988  -15.6833  -15.9899 C   0  0  0  0  0  0  0  0  0  0  0  0
   18.3239  -13.6521  -15.6421 C   0  0  0  0  0  0  0  0  0  0  0  0
   18.9219  -12.4534  -16.3353 C   0  0  2  0  0  0  0  0  0  0  0  0
   19.7287  -12.8582  -17.4387 N   0  0  0  0  0  0  0  0  0  0  0  0
   19.6158  -11.5395  -15.3989 C   0  0  0  0  0  0  0  0  0  0  0  0
   18.9635  -11.0876  -14.4247 O   0  0  0  0  0  0  0  0  0  0  0  0
   23.7053  -11.1541  -16.4398 C   0  0  0  0  0  0  0  0  0  0  0  0
   24.0452  -10.3736  -15.1673 C   0  0  2  0  0  0  0  0  0  0  0  0
   25.4236  -10.7981  -14.7256 C   0  0  0  0  0  0  0  0  0  0  0  0
   22.9699  -10.6707  -14.1806 C   0  0  0  0  0  0  0  0  0  0  0  0
   21.5857  -10.2530  -14.5809 C   0  0  2  0  0  0  0  0  0  0  0  0
   20.9431  -11.1295  -15.5003 N   0  0  0  0  0  0  0  0  0  0  0  0
   21.4902   -8.8230  -14.9036 C   0  0  0  0  0  0  0  0  0  0  0  0
   21.8749   -7.9104  -14.0911 O   0  0  0  0  0  0  0  0  0  0  0  0
   21.8395   -4.3050  -18.0463 C   0  0  0  0  0  0  0  0  0  0  0  0
   20.6260   -5.1500  -18.2239 C   0  0  1  0  0  0  0  0  0  0  0  0
   20.2219   -5.0251  -19.6916 C   0  0  0  0  0  0  0  0  0  0  0  0
   20.7441   -6.5724  -17.8251 C   0  0  0  0  0  0  0  0  0  0  0  0
   20.7802   -6.8892  -16.3712 C   0  0  2  0  0  0  0  0  0  0  0  0
   20.9741   -8.3202  -16.1303 N   0  0  0  0  0  0  0  0  0  0  0  0
   19.5704   -6.4550  -15.6806 C   0  0  0  0  0  0  0  0  0  0  0  0
   18.5075   -7.2774  -15.2972 O   0  0  0  0  0  0  0  0  0  0  0  0
   19.4081   -5.2256  -15.3691 O   0  0  0  0  0  0  0  0  0  0  0  0
  2  1  1  1
  3  2  1  0
  4  2  1  0
  4  5  1  0
  5  6  1  6
  7  8  2  0
  7  5  1  0
 10  9  1  6
 10 12  1  0
 11 10  1  0
 13 12  1  6
 13 14  1  0
 14  7  1  0
 15 13  1  0
 16 15  2  0
 18 17  1  6
 19 18  1  0
 20 18  1  0
 21 20  1  6
 21 22  1  0
 22 15  1  0
 23 21  1  0
 24 23  1  0
 25 23  2  0
M  END
$$$$
