LLL.pdb
     RDKit          3D

 25 24  0  0  1  0  0  0  0  0999 V2000
   19.0684  -21.0774  -13.9170 C   0  0  0  0  0  0  0  0  0  0  0  0
   19.5591  -21.4070  -12.5182 C   0  0  2  0  0  0  0  0  0  0  0  0
   18.4774  -20.9715  -11.5524 C   0  0  0  0  0  0  0  0  0  0  0  0
   20.8220  -20.6369  -12.1797 C   0  0  0  0  0  0  0  0  0  0  0  0
   21.8389  -20.9172  -13.2578 C   0  0  2  0  0  0  0  0  0  0  0  0
   21.9556  -22.3190  -13.4901 N   0  0  0  0  0  0  0  0  0  0  0  0
   23.1367  -20.2493  -13.0064 C   0  0  0  0  0  0  0  0  0  0  0  0
   23.1654  -18.9932  -13.0210 O   0  0  0  0  0  0  0  0  0  0  0  0
   24.6002  -20.0365   -9.7554 C   0  0  0  0  0  0  0  0  0  0  0  0
   25.5338  -21.1404  -10.2590 C   0  0  2  0  0  0  0  0  0  0  0  0
   26.3460  -21.6233   -9.0833 C   0  0  0  0  0  0  0  0  0  0  0  0
   26.3449  -20.5487  -11.3590 C   0  0  0  0  0  0  0  0  0  0  0  0
   25.5975  -20.2313  -12.6206 C   0  0  2  0  0  0  0  0  0  0  0  0
   24.3446  -20.8943  -12.7517 N   0  0  0  0  0  0  0  0  0  0  0  0
   26.4523  -20.2599  -13.8149 C   0  0  0  0  0  0  0  0  0  0  0  0
   27.5961  -19.6843  -13.8524 O   0  0  0  0  0  0  0  0  0  0  0  0
   28.4493  -24.1861  -16.8097 C   0  0  0  0  0  0  0  0  0  0  0  0
   28.1337  -22.8771  -16.1731 C   0  0  1  0  0  0  0  0  0  0  0  0
   29.4725  -22.1964  -15.8952 C   0  0  0  0  0  0  0  0  0  0  0  0
   27.2260  -21.9769  -16.9226 C   0  0  0  0  0  0  0  0  0  0  0  0
   26.8235  -20.6968  -16.2784 C   0  0  2  0  0  0  0  0  0  0  0  0
   26.1018  -20.9216  -15.0246 N   0  0  0  0  0  0  0  0  0  0  0  0
   25.9989  -19.8719  -17.1552 C   0  0  0  0  0  0  0  0  0  0  0  0
   24.6568  -19.5435  -16.9454 O   0  0  0  0  0  0  0  0  0  0  0  0
   26.4891  -19.3742  -18.2260 O   0  0  0  0  0  0  0  0  0  0  0  0
  2  1  1  6
  3  2  1  0
  4  2  1  0
  4  5  1  0
  5  6  1  1
  7  8  2  0
  7  5  1  0
 10  9  1  1
 10 12  1  0
 11 10  1  0
 13 12  1  1
 13 14  1  0
 14  7  1  0
 15 13  1  0
 16 15  2  0
 18 17  1  6
 19 18  1  0
 20 18  1  0
 21 20  1  6
 21 22  1  0
 22 15  1  0
 23 21  1  0
 24 23  1  0
 25 23  2  0
M  END
$$$$
