LLL.pdb
     RDKit          3D

 25 24  0  0  1  0  0  0  0  0999 V2000
   19.1630  -24.2149  -20.7971 C   0  0  0  0  0  0  0  0  0  0  0  0
   20.6659  -24.4273  -20.8410 C   0  0  2  0  0  0  0  0  0  0  0  0
   20.9503  -25.3611  -21.9984 C   0  0  0  0  0  0  0  0  0  0  0  0
   21.1674  -25.0929  -19.5728 C   0  0  0  0  0  0  0  0  0  0  0  0
   20.7610  -24.2298  -18.4045 C   0  0  2  0  0  0  0  0  0  0  0  0
   21.3123  -22.9208  -18.5275 N   0  0  0  0  0  0  0  0  0  0  0  0
   21.0403  -24.8689  -17.0979 C   0  0  0  0  0  0  0  0  0  0  0  0
   20.7435  -26.0820  -16.9601 O   0  0  0  0  0  0  0  0  0  0  0  0
   24.7823  -25.4586  -15.7012 C   0  0  0  0  0  0  0  0  0  0  0  0
   24.3329  -24.1286  -15.0906 C   0  0  2  0  0  0  0  0  0  0  0  0
   25.5373  -23.4940  -14.4411 C   0  0  0  0  0  0  0  0  0  0  0  0
   23.2246  -24.4418  -14.1462 C   0  0  0  0  0  0  0  0  0  0  0  0
   21.9425  -24.8999  -14.7764 C   0  0  2  0  0  0  0  0  0  0  0  0
   21.6096  -24.2402  -15.9931 N   0  0  0  0  0  0  0  0  0  0  0  0
   20.8439  -25.0291  -13.8098 C   0  0  0  0  0  0  0  0  0  0  0  0
   20.8891  -25.8495  -12.8270 O   0  0  0  0  0  0  0  0  0  0  0  0
   19.0698  -24.6827   -9.0637 C   0  0  0  0  0  0  0  0  0  0  0  0
   19.0239  -25.1285  -10.4841 C   0  0  1  0  0  0  0  0  0  0  0  0
   17.7985  -26.0308  -10.6157 C   0  0  0  0  0  0  0  0  0  0  0  0
   19.0111  -24.0625  -11.5136 C   0  0  0  0  0  0  0  0  0  0  0  0
   18.5676  -24.4242  -12.8877 C   0  0  2  0  0  0  0  0  0  0  0  0
   19.6445  -24.2659  -13.8668 N   0  0  0  0  0  0  0  0  0  0  0  0
   17.4170  -23.6388  -13.3218 C   0  0  0  0  0  0  0  0  0  0  0  0
   16.0753  -23.9920  -13.1540 O   0  0  0  0  0  0  0  0  0  0  0  0
   17.5839  -22.5175  -13.9131 O   0  0  0  0  0  0  0  0  0  0  0  0
  2  1  1  1
  3  2  1  0
  4  2  1  0
  4  5  1  0
  5  6  1  1
  7  8  2  0
  7  5  1  0
 10  9  1  1
 10 12  1  0
 11 10  1  0
 13 12  1  1
 13 14  1  0
 14  7  1  0
 15 13  1  0
 16 15  2  0
 18 17  1  1
 19 18  1  0
 20 18  1  0
 21 20  1  1
 21 22  1  0
 22 15  1  0
 23 21  1  0
 24 23  1  0
 25 23  2  0
M  END
$$$$
