LLL.pdb
     RDKit          3D

 25 24  0  0  1  0  0  0  0  0999 V2000
   22.4642  -18.2162  -16.6778 C   0  0  0  0  0  0  0  0  0  0  0  0
   23.8363  -18.4675  -17.2779 C   0  0  2  0  0  0  0  0  0  0  0  0
   23.6277  -18.8166  -18.7364 C   0  0  0  0  0  0  0  0  0  0  0  0
   24.5237  -19.6450  -16.6119 C   0  0  0  0  0  0  0  0  0  0  0  0
   24.5873  -19.3674  -15.1307 C   0  0  2  0  0  0  0  0  0  0  0  0
   25.2220  -18.1160  -14.8780 N   0  0  0  0  0  0  0  0  0  0  0  0
   25.1706  -20.4920  -14.3634 C   0  0  0  0  0  0  0  0  0  0  0  0
   24.6711  -21.6342  -14.5207 O   0  0  0  0  0  0  0  0  0  0  0  0
   28.7312  -19.7703  -14.3763 C   0  0  0  0  0  0  0  0  0  0  0  0
   29.0468  -20.3709  -13.0039 C   0  0  2  0  0  0  0  0  0  0  0  0
   30.5429  -20.5394  -12.9121 C   0  0  0  0  0  0  0  0  0  0  0  0
   28.2822  -21.6454  -12.9064 C   0  0  0  0  0  0  0  0  0  0  0  0
   26.7951  -21.5033  -12.7688 C   0  0  2  0  0  0  0  0  0  0  0  0
   26.2363  -20.3986  -13.4715 N   0  0  0  0  0  0  0  0  0  0  0  0
   26.3299  -21.6691  -11.3853 C   0  0  0  0  0  0  0  0  0  0  0  0
   26.5113  -22.7529  -10.7269 O   0  0  0  0  0  0  0  0  0  0  0  0
   27.0301  -18.8363   -6.9472 C   0  0  0  0  0  0  0  0  0  0  0  0
   26.6588  -19.9605   -7.8508 C   0  0  1  0  0  0  0  0  0  0  0  0
   27.0078  -21.2480   -7.1067 C   0  0  0  0  0  0  0  0  0  0  0  0
   25.2576  -19.9891   -8.3327 C   0  0  0  0  0  0  0  0  0  0  0  0
   24.9123  -20.9459   -9.4193 C   0  0  2  0  0  0  0  0  0  0  0  0
   25.6479  -20.6585  -10.6521 N   0  0  0  0  0  0  0  0  0  0  0  0
   23.4833  -20.9548   -9.7146 C   0  0  0  0  0  0  0  0  0  0  0  0
   22.9026  -20.6767  -10.9550 O   0  0  0  0  0  0  0  0  0  0  0  0
   22.6346  -21.2354   -8.8004 O   0  0  0  0  0  0  0  0  0  0  0  0
  2  1  1  1
  3  2  1  0
  4  2  1  0
  4  5  1  0
  5  6  1  6
  7  8  2  0
  7  5  1  0
 10  9  1  6
 10 12  1  0
 11 10  1  0
 13 12  1  1
 13 14  1  0
 14  7  1  0
 15 13  1  0
 16 15  2  0
 18 17  1  1
 19 18  1  0
 20 18  1  0
 21 20  1  1
 21 22  1  0
 22 15  1  0
 23 21  1  0
 24 23  1  0
 25 23  2  0
M  END
$$$$
