VPN.pdb
     RDKit          3D

 23 23  0  0  1  0  0  0  0  0999 V2000
   23.0034  -36.8748   -7.5455 C   0  0  0  0  0  0  0  0  0  0  0  0
   22.8480  -36.2653   -8.9134 C   0  0  2  0  0  0  0  0  0  0  0  0
   21.7782  -36.9382   -9.6948 C   0  0  0  0  0  0  0  0  0  0  0  0
   24.1978  -36.1890   -9.6535 C   0  0  2  0  0  0  0  0  0  0  0  0
   24.4922  -37.5993   -9.9521 N   0  0  0  0  0  0  0  0  0  0  0  0
   25.2187  -35.7278   -8.6780 C   0  0  0  0  0  0  0  0  0  0  0  0
   25.9607  -36.6549   -8.1874 O   0  0  0  0  0  0  0  0  0  0  0  0
   25.4055  -34.3921   -8.2853 N   0  0  0  0  0  0  0  0  0  0  0  0
   24.6158  -33.2859   -8.7137 C   0  0  0  0  0  0  0  0  0  0  0  0
   25.6060  -32.1443   -8.7432 C   0  0  0  0  0  0  0  0  0  0  0  0
   26.8948  -32.6760   -8.1609 C   0  0  0  0  0  0  0  0  0  0  0  0
   26.3951  -33.8890   -7.4074 C   0  0  1  0  0  0  0  0  0  0  0  0
   25.8240  -33.3721   -6.1172 C   0  0  0  0  0  0  0  0  0  0  0  0
   24.6910  -32.8324   -6.0365 O   0  0  0  0  0  0  0  0  0  0  0  0
   23.7478  -36.4129   -2.7966 N   0  0  0  0  0  0  0  0  0  0  0  0
   25.1278  -36.3968   -3.1074 C   0  0  0  0  0  0  0  0  0  0  0  0
   25.8890  -37.1601   -2.4872 O   0  0  0  0  0  0  0  0  0  0  0  0
   25.6171  -35.4978   -4.1333 C   0  0  0  0  0  0  0  0  0  0  0  0
   25.9231  -34.0897   -3.7143 C   0  0  2  0  0  0  0  0  0  0  0  0
   26.5500  -33.4691   -4.8968 N   0  0  0  0  0  0  0  0  0  0  0  0
   26.8750  -34.0034   -2.5945 C   0  0  0  0  0  0  0  0  0  0  0  0
   28.2407  -33.8499   -2.7052 O   0  0  0  0  0  0  0  0  0  0  0  0
   26.4447  -34.0733   -1.3880 O   0  0  0  0  0  0  0  0  0  0  0  0
  2  1  1  1
  2  3  1  0
  4  2  1  0
  4  6  1  0
  4  5  1  1
  6  7  2  0
  8  6  1  0
  8 12  1  0
  9  8  1  0
 10  9  1  0
 10 11  1  0
 11 12  1  0
 12 13  1  1
 13 20  1  0
 13 14  2  0
 16 18  1  0
 16 15  1  0
 17 16  2  0
 19 21  1  0
 19 18  1  6
 20 19  1  0
 21 22  1  0
 23 21  2  0
M  END
$$$$
