VPN.pdb
     RDKit          3D

 23 23  0  0  1  0  0  0  0  0999 V2000
   24.0018  -16.0475  -15.6569 C   0  0  0  0  0  0  0  0  0  0  0  0
   25.3362  -15.7196  -16.2721 C   0  0  2  0  0  0  0  0  0  0  0  0
   25.3380  -14.3678  -16.8888 C   0  0  0  0  0  0  0  0  0  0  0  0
   25.8062  -16.8343  -17.2272 C   0  0  2  0  0  0  0  0  0  0  0  0
   24.7864  -16.8140  -18.2875 N   0  0  0  0  0  0  0  0  0  0  0  0
   25.6645  -18.1279  -16.5109 C   0  0  0  0  0  0  0  0  0  0  0  0
   24.5883  -18.7793  -16.7717 O   0  0  0  0  0  0  0  0  0  0  0  0
   26.6045  -18.6502  -15.6072 N   0  0  0  0  0  0  0  0  0  0  0  0
   27.7838  -17.9846  -15.1635 C   0  0  0  0  0  0  0  0  0  0  0  0
   28.7641  -19.1166  -14.9584 C   0  0  0  0  0  0  0  0  0  0  0  0
   27.9912  -20.3988  -15.1620 C   0  0  0  0  0  0  0  0  0  0  0  0
   26.5703  -19.9151  -14.9730 C   0  0  1  0  0  0  0  0  0  0  0  0
   26.3565  -19.8193  -13.4887 C   0  0  0  0  0  0  0  0  0  0  0  0
   26.8373  -18.8946  -12.7851 O   0  0  0  0  0  0  0  0  0  0  0  0
   23.9050  -20.3901   -8.8776 N   0  0  0  0  0  0  0  0  0  0  0  0
   23.1162  -20.6782  -10.0160 C   0  0  0  0  0  0  0  0  0  0  0  0
   21.9045  -20.9114   -9.8600 O   0  0  0  0  0  0  0  0  0  0  0  0
   23.7346  -20.6946  -11.3265 C   0  0  0  0  0  0  0  0  0  0  0  0
   25.2290  -20.5675  -11.3750 C   0  0  2  0  0  0  0  0  0  0  0  0
   25.5835  -20.7889  -12.7899 N   0  0  0  0  0  0  0  0  0  0  0  0
   25.9314  -21.5765  -10.5649 C   0  0  0  0  0  0  0  0  0  0  0  0
   26.1562  -22.8881  -10.9254 O   0  0  0  0  0  0  0  0  0  0  0  0
   26.3935  -21.2561   -9.4119 O   0  0  0  0  0  0  0  0  0  0  0  0
  2  1  1  6
  2  3  1  0
  4  2  1  0
  4  6  1  0
  4  5  1  6
  6  7  2  0
  8  6  1  0
  8 12  1  0
  9  8  1  0
 10  9  1  0
 10 11  1  0
 11 12  1  0
 12 13  1  1
 13 20  1  0
 13 14  2  0
 16 18  1  0
 16 15  1  0
 17 16  2  0
 19 21  1  0
 19 18  1  6
 20 19  1  0
 21 22  1  0
 23 21  2  0
M  END
$$$$
