VPN.pdb
     RDKit          3D

 23 23  0  0  1  0  0  0  0  0999 V2000
   25.7547  -19.5768  -15.7601 C   0  0  0  0  0  0  0  0  0  0  0  0
   26.8606  -19.4017  -14.7536 C   0  0  2  0  0  0  0  0  0  0  0  0
   28.0305  -18.6993  -15.3414 C   0  0  0  0  0  0  0  0  0  0  0  0
   27.2205  -20.7369  -14.0730 C   0  0  2  0  0  0  0  0  0  0  0  0
   27.6620  -21.5744  -15.1991 N   0  0  0  0  0  0  0  0  0  0  0  0
   25.9608  -21.3306  -13.5560 C   0  0  0  0  0  0  0  0  0  0  0  0
   25.5172  -22.3338  -14.2250 O   0  0  0  0  0  0  0  0  0  0  0  0
   25.2645  -20.8727  -12.4252 N   0  0  0  0  0  0  0  0  0  0  0  0
   25.6142  -19.7335  -11.6438 C   0  0  0  0  0  0  0  0  0  0  0  0
   25.1834  -20.1249  -10.2488 C   0  0  0  0  0  0  0  0  0  0  0  0
   24.4560  -21.4431  -10.3759 C   0  0  0  0  0  0  0  0  0  0  0  0
   24.1040  -21.4406  -11.8471 C   0  0  1  0  0  0  0  0  0  0  0  0
   22.8927  -20.5620  -11.9844 C   0  0  0  0  0  0  0  0  0  0  0  0
   22.9631  -19.3312  -12.2327 O   0  0  0  0  0  0  0  0  0  0  0  0
   18.7684  -24.2143  -14.0815 N   0  0  0  0  0  0  0  0  0  0  0  0
   18.8581  -22.8789  -13.6233 C   0  0  0  0  0  0  0  0  0  0  0  0
   18.0337  -22.0469  -14.0415 O   0  0  0  0  0  0  0  0  0  0  0  0
   19.9008  -22.5157  -12.6846 C   0  0  0  0  0  0  0  0  0  0  0  0
   20.7416  -21.3220  -13.0304 C   0  0  2  0  0  0  0  0  0  0  0  0
   21.5783  -21.0882  -11.8380 N   0  0  0  0  0  0  0  0  0  0  0  0
   19.9559  -20.1028  -13.2831 C   0  0  0  0  0  0  0  0  0  0  0  0
   19.7874  -19.0538  -12.4045 O   0  0  0  0  0  0  0  0  0  0  0  0
   19.3537  -19.9565  -14.4064 O   0  0  0  0  0  0  0  0  0  0  0  0
  2  1  1  6
  2  3  1  0
  4  2  1  0
  4  6  1  0
  4  5  1  6
  6  7  2  0
  8  6  1  0
  8 12  1  0
  9  8  1  0
 10  9  1  0
 10 11  1  0
 11 12  1  0
 12 13  1  1
 13 20  1  0
 13 14  2  0
 16 18  1  0
 16 15  1  0
 17 16  2  0
 19 21  1  0
 19 18  1  1
 20 19  1  0
 21 22  1  0
 23 21  2  0
M  END
$$$$
