VPN.pdb
     RDKit          3D

 23 23  0  0  1  0  0  0  0  0999 V2000
   19.9021  -10.8447  -18.6857 C   0  0  0  0  0  0  0  0  0  0  0  0
   18.8204  -11.5012  -17.8699 C   0  0  2  0  0  0  0  0  0  0  0  0
   17.7417  -10.5423  -17.5171 C   0  0  0  0  0  0  0  0  0  0  0  0
   19.4048  -12.2473  -16.6544 C   0  0  2  0  0  0  0  0  0  0  0  0
   18.2237  -12.8972  -16.0652 N   0  0  0  0  0  0  0  0  0  0  0  0
   19.8702  -11.2252  -15.6822 C   0  0  0  0  0  0  0  0  0  0  0  0
   18.9651  -10.7780  -14.8875 O   0  0  0  0  0  0  0  0  0  0  0  0
   21.1880  -10.7473  -15.5916 N   0  0  0  0  0  0  0  0  0  0  0  0
   22.2700  -11.1405  -16.4315 C   0  0  0  0  0  0  0  0  0  0  0  0
   23.4675  -11.0634  -15.5125 C   0  0  0  0  0  0  0  0  0  0  0  0
   22.9779  -10.4631  -14.2153 C   0  0  0  0  0  0  0  0  0  0  0  0
   21.6938   -9.8028  -14.6667 C   0  0  1  0  0  0  0  0  0  0  0  0
   22.0962   -8.5079  -15.3143 C   0  0  0  0  0  0  0  0  0  0  0  0
   22.2967   -8.3929  -16.5504 O   0  0  0  0  0  0  0  0  0  0  0  0
   19.5331   -4.6182  -17.2025 N   0  0  0  0  0  0  0  0  0  0  0  0
   19.9170   -4.7648  -15.8489 C   0  0  0  0  0  0  0  0  0  0  0  0
   19.7332   -3.8135  -15.0691 O   0  0  0  0  0  0  0  0  0  0  0  0
   20.5108   -6.0108  -15.4070 C   0  0  0  0  0  0  0  0  0  0  0  0
   21.9890   -6.0059  -15.1489 C   0  0  2  0  0  0  0  0  0  0  0  0
   22.2740   -7.3224  -14.5470 N   0  0  0  0  0  0  0  0  0  0  0  0
   22.4161   -4.9666  -14.1976 C   0  0  0  0  0  0  0  0  0  0  0  0
   23.0003   -3.7618  -14.5260 O   0  0  0  0  0  0  0  0  0  0  0  0
   22.2526   -5.1518  -12.9387 O   0  0  0  0  0  0  0  0  0  0  0  0
  2  1  1  1
  2  3  1  0
  4  2  1  0
  4  6  1  0
  4  5  1  1
  6  7  2  0
  8  6  1  0
  8 12  1  0
  9  8  1  0
 10  9  1  0
 10 11  1  0
 11 12  1  0
 12 13  1  6
 13 20  1  0
 13 14  2  0
 16 18  1  0
 16 15  1  0
 17 16  2  0
 19 21  1  0
 19 18  1  1
 20 19  1  0
 21 22  1  0
 23 21  2  0
M  END
$$$$
