VPN.pdb
     RDKit          3D

 23 23  0  0  1  0  0  0  0  0999 V2000
   20.3589  -15.8178  -17.6884 C   0  0  0  0  0  0  0  0  0  0  0  0
   21.7002  -16.4582  -17.9281 C   0  0  2  0  0  0  0  0  0  0  0  0
   21.5982  -17.6116  -18.8591 C   0  0  0  0  0  0  0  0  0  0  0  0
   22.4088  -16.7965  -16.6018 C   0  0  2  0  0  0  0  0  0  0  0  0
   21.5413  -17.8310  -16.0171 N   0  0  0  0  0  0  0  0  0  0  0  0
   22.3136  -15.6012  -15.7249 C   0  0  0  0  0  0  0  0  0  0  0  0
   21.3309  -15.6102  -14.8973 O   0  0  0  0  0  0  0  0  0  0  0  0
   23.2030  -14.5143  -15.7530 N   0  0  0  0  0  0  0  0  0  0  0  0
   24.3037  -14.3692  -16.6463 C   0  0  0  0  0  0  0  0  0  0  0  0
   25.3240  -13.6203  -15.8200 C   0  0  0  0  0  0  0  0  0  0  0  0
   24.6414  -13.2498  -14.5239 C   0  0  0  0  0  0  0  0  0  0  0  0
   23.1856  -13.3729  -14.9163 C   0  0  1  0  0  0  0  0  0  0  0  0
   22.8453  -12.1103  -15.6568 C   0  0  0  0  0  0  0  0  0  0  0  0
   23.0619  -11.9569  -16.8860 O   0  0  0  0  0  0  0  0  0  0  0  0
   19.7662   -7.0351  -14.5775 N   0  0  0  0  0  0  0  0  0  0  0  0
   19.8629   -8.1820  -15.3999 C   0  0  0  0  0  0  0  0  0  0  0  0
   19.3410   -8.1538  -16.5285 O   0  0  0  0  0  0  0  0  0  0  0  0
   20.5627   -9.3530  -14.9109 C   0  0  0  0  0  0  0  0  0  0  0  0
   21.6565   -9.9034  -15.7784 C   0  0  2  0  0  0  0  0  0  0  0  0
   22.2486  -11.0023  -14.9920 N   0  0  0  0  0  0  0  0  0  0  0  0
   22.7196   -8.9284  -16.0732 C   0  0  0  0  0  0  0  0  0  0  0  0
   22.6994   -7.9927  -17.0855 O   0  0  0  0  0  0  0  0  0  0  0  0
   23.7808   -8.9083  -15.3526 O   0  0  0  0  0  0  0  0  0  0  0  0
  2  1  1  1
  2  3  1  0
  4  2  1  0
  4  6  1  0
  4  5  1  1
  6  7  2  0
  8  6  1  0
  8 12  1  0
  9  8  1  0
 10  9  1  0
 10 11  1  0
 11 12  1  0
 12 13  1  6
 13 20  1  0
 13 14  2  0
 16 18  1  0
 16 15  1  0
 17 16  2  0
 19 21  1  0
 19 18  1  1
 20 19  1  0
 21 22  1  0
 23 21  2  0
M  END
$$$$
