VPN.pdb
     RDKit          3D

 23 23  0  0  1  0  0  0  0  0999 V2000
   17.7688   -9.9803  -17.5715 C   0  0  0  0  0  0  0  0  0  0  0  0
   18.5959  -11.1683  -17.9852 C   0  0  2  0  0  0  0  0  0  0  0  0
   18.0015  -11.8702  -19.1521 C   0  0  0  0  0  0  0  0  0  0  0  0
   18.8876  -12.0964  -16.7897 C   0  0  2  0  0  0  0  0  0  0  0  0
   17.5478  -12.5575  -16.3936 N   0  0  0  0  0  0  0  0  0  0  0  0
   19.4031  -11.2519  -15.6817 C   0  0  0  0  0  0  0  0  0  0  0  0
   18.5297  -10.9171  -14.8009 O   0  0  0  0  0  0  0  0  0  0  0  0
   20.7346  -10.8230  -15.5542 N   0  0  0  0  0  0  0  0  0  0  0  0
   21.7942  -11.1363  -16.4541 C   0  0  0  0  0  0  0  0  0  0  0  0
   23.0054  -11.2051  -15.5525 C   0  0  0  0  0  0  0  0  0  0  0  0
   22.5496  -10.7585  -14.1829 C   0  0  0  0  0  0  0  0  0  0  0  0
   21.2783  -10.0144  -14.5277 C   0  0  1  0  0  0  0  0  0  0  0  0
   21.7077   -8.6597  -15.0162 C   0  0  0  0  0  0  0  0  0  0  0  0
   21.8656   -8.3884  -16.2340 O   0  0  0  0  0  0  0  0  0  0  0  0
   21.1067   -3.6248  -15.4319 N   0  0  0  0  0  0  0  0  0  0  0  0
   20.1360   -4.6534  -15.4610 C   0  0  0  0  0  0  0  0  0  0  0  0
   18.9884   -4.3812  -15.8556 O   0  0  0  0  0  0  0  0  0  0  0  0
   20.4998   -5.9894  -15.0333 C   0  0  0  0  0  0  0  0  0  0  0  0
   21.9153   -6.1968  -14.5804 C   0  0  2  0  0  0  0  0  0  0  0  0
   21.9623   -7.5937  -14.1080 N   0  0  0  0  0  0  0  0  0  0  0  0
   22.3086   -5.3232  -13.4625 C   0  0  0  0  0  0  0  0  0  0  0  0
   23.1226   -4.2140  -13.5519 O   0  0  0  0  0  0  0  0  0  0  0  0
   21.8828   -5.5753  -12.2790 O   0  0  0  0  0  0  0  0  0  0  0  0
  2  1  1  1
  2  3  1  0
  4  2  1  0
  4  6  1  0
  4  5  1  1
  6  7  2  0
  8  6  1  0
  8 12  1  0
  9  8  1  0
 10  9  1  0
 10 11  1  0
 11 12  1  0
 12 13  1  6
 13 20  1  0
 13 14  2  0
 16 18  1  0
 16 15  1  0
 17 16  2  0
 19 21  1  0
 19 18  1  1
 20 19  1  0
 21 22  1  0
 23 21  2  0
M  END
$$$$
