VPN.pdb
     RDKit          3D

 23 23  0  0  1  0  0  0  0  0999 V2000
   16.7116  -11.9690  -15.4763 C   0  0  0  0  0  0  0  0  0  0  0  0
   17.5260  -11.9782  -16.7425 C   0  0  2  0  0  0  0  0  0  0  0  0
   16.9026  -12.8292  -17.7888 C   0  0  0  0  0  0  0  0  0  0  0  0
   19.0011  -12.3261  -16.4620 C   0  0  2  0  0  0  0  0  0  0  0  0
   18.9264  -13.7082  -15.9631 N   0  0  0  0  0  0  0  0  0  0  0  0
   19.4544  -11.4780  -15.3298 C   0  0  0  0  0  0  0  0  0  0  0  0
   19.4250  -12.0465  -14.1781 O   0  0  0  0  0  0  0  0  0  0  0  0
   19.8942  -10.1494  -15.4503 N   0  0  0  0  0  0  0  0  0  0  0  0
   19.9443   -9.4014  -16.6622 C   0  0  0  0  0  0  0  0  0  0  0  0
   21.1431   -8.5022  -16.4649 C   0  0  0  0  0  0  0  0  0  0  0  0
   21.6072   -8.7081  -15.0419 C   0  0  0  0  0  0  0  0  0  0  0  0
   20.3677   -9.3079  -14.4154 C   0  0  1  0  0  0  0  0  0  0  0  0
   19.4456   -8.1561  -14.1305 C   0  0  0  0  0  0  0  0  0  0  0  0
   18.5498   -7.7812  -14.9295 O   0  0  0  0  0  0  0  0  0  0  0  0
   16.3761   -5.6454  -10.6551 N   0  0  0  0  0  0  0  0  0  0  0  0
   17.3873   -6.4330  -10.0567 C   0  0  0  0  0  0  0  0  0  0  0  0
   17.4058   -6.5412   -8.8177 O   0  0  0  0  0  0  0  0  0  0  0  0
   18.3697   -7.0898  -10.8955 C   0  0  0  0  0  0  0  0  0  0  0  0
   18.3426   -6.7612  -12.3594 C   0  0  2  0  0  0  0  0  0  0  0  0
   19.5406   -7.4165  -12.9181 N   0  0  0  0  0  0  0  0  0  0  0  0
   18.4381   -5.3191  -12.6400 C   0  0  0  0  0  0  0  0  0  0  0  0
   19.5469   -4.6634  -13.1313 O   0  0  0  0  0  0  0  0  0  0  0  0
   17.4258   -4.5614  -12.4235 O   0  0  0  0  0  0  0  0  0  0  0  0
  2  1  1  1
  2  3  1  0
  4  2  1  0
  4  6  1  0
  4  5  1  1
  6  7  2  0
  8  6  1  0
  8 12  1  0
  9  8  1  0
 10  9  1  0
 10 11  1  0
 11 12  1  0
 12 13  1  6
 13 20  1  0
 13 14  2  0
 16 18  1  0
 16 15  1  0
 17 16  2  0
 19 21  1  0
 19 18  1  1
 20 19  1  0
 21 22  1  0
 23 21  2  0
M  END
$$$$
