VPN.pdb
     RDKit          3D

 23 23  0  0  1  0  0  0  0  0999 V2000
   17.9188  -23.2288  -13.0169 C   0  0  0  0  0  0  0  0  0  0  0  0
   19.0818  -23.6312  -13.8841 C   0  0  2  0  0  0  0  0  0  0  0  0
   19.3635  -22.6139  -14.9297 C   0  0  0  0  0  0  0  0  0  0  0  0
   18.9026  -25.0566  -14.4423 C   0  0  2  0  0  0  0  0  0  0  0  0
   17.6973  -24.9363  -15.2775 N   0  0  0  0  0  0  0  0  0  0  0  0
   18.5562  -25.9443  -13.3027 C   0  0  0  0  0  0  0  0  0  0  0  0
   17.2976  -26.0999  -13.0970 O   0  0  0  0  0  0  0  0  0  0  0  0
   19.4916  -26.5924  -12.4792 N   0  0  0  0  0  0  0  0  0  0  0  0
   20.9081  -26.4899  -12.5967 C   0  0  0  0  0  0  0  0  0  0  0  0
   21.3917  -27.8526  -12.1562 C   0  0  0  0  0  0  0  0  0  0  0  0
   20.1772  -28.6010  -11.6582 C   0  0  0  0  0  0  0  0  0  0  0  0
   19.2201  -27.4597  -11.3941 C   0  0  1  0  0  0  0  0  0  0  0  0
   19.6200  -26.8788  -10.0672 C   0  0  0  0  0  0  0  0  0  0  0  0
   20.5338  -26.0242   -9.9403 O   0  0  0  0  0  0  0  0  0  0  0  0
   17.9084  -24.2071   -6.0899 N   0  0  0  0  0  0  0  0  0  0  0  0
   17.5555  -24.1392   -7.4581 C   0  0  0  0  0  0  0  0  0  0  0  0
   16.8817  -23.1718   -7.8542 O   0  0  0  0  0  0  0  0  0  0  0  0
   17.9846  -25.1908   -8.3582 C   0  0  0  0  0  0  0  0  0  0  0  0
   18.8010  -26.3019   -7.7661 C   0  0  2  0  0  0  0  0  0  0  0  0
   18.9724  -27.2737   -8.8628 N   0  0  0  0  0  0  0  0  0  0  0  0
   18.1349  -26.9888   -6.6472 C   0  0  0  0  0  0  0  0  0  0  0  0
   18.5032  -26.9164   -5.3205 O   0  0  0  0  0  0  0  0  0  0  0  0
   17.1162  -27.7344   -6.8754 O   0  0  0  0  0  0  0  0  0  0  0  0
  2  1  1  6
  2  3  1  0
  4  2  1  0
  4  6  1  0
  4  5  1  6
  6  7  2  0
  8  6  1  0
  8 12  1  0
  9  8  1  0
 10  9  1  0
 10 11  1  0
 11 12  1  0
 12 13  1  1
 13 20  1  0
 13 14  2  0
 16 18  1  0
 16 15  1  0
 17 16  2  0
 19 21  1  0
 19 18  1  6
 20 19  1  0
 21 22  1  0
 23 21  2  0
M  END
$$$$
