VPN.pdb
     RDKit          3D

 23 23  0  0  1  0  0  0  0  0999 V2000
   26.0665  -19.6280  -16.3344 C   0  0  0  0  0  0  0  0  0  0  0  0
   27.4899  -19.1445  -16.4172 C   0  0  2  0  0  0  0  0  0  0  0  0
   27.7299  -18.3566  -17.6538 C   0  0  0  0  0  0  0  0  0  0  0  0
   28.4904  -20.2998  -16.2176 C   0  0  2  0  0  0  0  0  0  0  0  0
   28.1900  -21.1968  -17.3444 N   0  0  0  0  0  0  0  0  0  0  0  0
   28.1054  -21.0168  -14.9750 C   0  0  0  0  0  0  0  0  0  0  0  0
   27.3860  -22.0663  -15.1529 O   0  0  0  0  0  0  0  0  0  0  0  0
   28.4726  -20.6243  -13.6772 N   0  0  0  0  0  0  0  0  0  0  0  0
   29.3523  -19.5504  -13.3557 C   0  0  0  0  0  0  0  0  0  0  0  0
   30.0374  -20.0290  -12.0963 C   0  0  0  0  0  0  0  0  0  0  0  0
   29.3584  -21.3192  -11.6995 C   0  0  0  0  0  0  0  0  0  0  0  0
   28.0537  -21.2061  -12.4568 C   0  0  1  0  0  0  0  0  0  0  0  0
   27.1780  -20.2942  -11.6446 C   0  0  0  0  0  0  0  0  0  0  0  0
   27.1841  -19.0433  -11.7741 O   0  0  0  0  0  0  0  0  0  0  0  0
   21.9853  -21.3336  -11.9957 N   0  0  0  0  0  0  0  0  0  0  0  0
   22.9629  -20.3529  -12.2848 C   0  0  0  0  0  0  0  0  0  0  0  0
   22.5940  -19.2607  -12.7516 O   0  0  0  0  0  0  0  0  0  0  0  0
   24.3601  -20.6427  -12.0318 C   0  0  0  0  0  0  0  0  0  0  0  0
   24.8743  -20.3594  -10.6509 C   0  0  2  0  0  0  0  0  0  0  0  0
   26.2792  -20.8096  -10.6687 N   0  0  0  0  0  0  0  0  0  0  0  0
   24.1688  -21.1062   -9.5963 C   0  0  0  0  0  0  0  0  0  0  0  0
   24.5465  -22.3279   -9.0810 O   0  0  0  0  0  0  0  0  0  0  0  0
   23.1008  -20.6190   -9.0789 O   0  0  0  0  0  0  0  0  0  0  0  0
  2  1  1  6
  2  3  1  0
  4  2  1  0
  4  6  1  0
  4  5  1  6
  6  7  2  0
  8  6  1  0
  8 12  1  0
  9  8  1  0
 10  9  1  0
 10 11  1  0
 11 12  1  0
 12 13  1  1
 13 20  1  0
 13 14  2  0
 16 18  1  0
 16 15  1  0
 17 16  2  0
 19 21  1  0
 19 18  1  6
 20 19  1  0
 21 22  1  0
 23 21  2  0
M  END
$$$$
