VPN.pdb
     RDKit          3D

 23 23  0  0  1  0  0  0  0  0999 V2000
   25.6776  -18.8073  -18.0122 C   0  0  0  0  0  0  0  0  0  0  0  0
   24.9387  -19.4562  -16.8722 C   0  0  2  0  0  0  0  0  0  0  0  0
   24.2904  -18.4476  -15.9947 C   0  0  0  0  0  0  0  0  0  0  0  0
   25.8373  -20.4503  -16.1107 C   0  0  2  0  0  0  0  0  0  0  0  0
   26.3155  -21.3468  -17.1747 N   0  0  0  0  0  0  0  0  0  0  0  0
   24.9615  -21.2567  -15.2223 C   0  0  0  0  0  0  0  0  0  0  0  0
   24.2358  -22.1312  -15.8215 O   0  0  0  0  0  0  0  0  0  0  0  0
   24.8919  -21.1184  -13.8261 N   0  0  0  0  0  0  0  0  0  0  0  0
   25.6776  -20.2236  -13.0434 C   0  0  0  0  0  0  0  0  0  0  0  0
   25.8637  -20.9723  -11.7436 C   0  0  0  0  0  0  0  0  0  0  0  0
   25.0095  -22.2151  -11.8356 C   0  0  0  0  0  0  0  0  0  0  0  0
   24.0483  -21.8266  -12.9373 C   0  0  1  0  0  0  0  0  0  0  0  0
   23.0095  -20.9513  -12.2948 C   0  0  0  0  0  0  0  0  0  0  0  0
   23.1793  -19.7219  -12.0919 O   0  0  0  0  0  0  0  0  0  0  0  0
   18.6369  -20.3963  -15.1846 N   0  0  0  0  0  0  0  0  0  0  0  0
   19.4407  -19.7517  -14.2154 C   0  0  0  0  0  0  0  0  0  0  0  0
   19.1564  -18.5878  -13.8815 O   0  0  0  0  0  0  0  0  0  0  0  0
   20.5676  -20.4578  -13.6396 C   0  0  0  0  0  0  0  0  0  0  0  0
   20.5118  -20.7421  -12.1672 C   0  0  2  0  0  0  0  0  0  0  0  0
   21.7561  -21.4790  -11.8751 N   0  0  0  0  0  0  0  0  0  0  0  0
   19.3751  -21.5917  -11.7753 C   0  0  0  0  0  0  0  0  0  0  0  0
   18.2616  -21.1787  -11.0749 O   0  0  0  0  0  0  0  0  0  0  0  0
   19.3736  -22.8355  -12.0894 O   0  0  0  0  0  0  0  0  0  0  0  0
  2  1  1  6
  2  3  1  0
  4  2  1  0
  4  6  1  0
  4  5  1  6
  6  7  2  0
  8  6  1  0
  8 12  1  0
  9  8  1  0
 10  9  1  0
 10 11  1  0
 11 12  1  0
 12 13  1  1
 13 20  1  0
 13 14  2  0
 16 18  1  0
 16 15  1  0
 17 16  2  0
 19 21  1  0
 19 18  1  6
 20 19  1  0
 21 22  1  0
 23 21  2  0
M  END
$$$$
