VPN.pdb
     RDKit          3D

 23 23  0  0  1  0  0  0  0  0999 V2000
   13.7496  -23.8301    3.9872 C   0  0  0  0  0  0  0  0  0  0  0  0
   13.3821  -22.8382    2.9159 C   0  0  2  0  0  0  0  0  0  0  0  0
   12.0404  -23.1213    2.3439 C   0  0  0  0  0  0  0  0  0  0  0  0
   14.4927  -22.7175    1.8540 C   0  0  2  0  0  0  0  0  0  0  0  0
   14.6944  -24.1106    1.4257 N   0  0  0  0  0  0  0  0  0  0  0  0
   15.7340  -22.2915    2.5497 C   0  0  0  0  0  0  0  0  0  0  0  0
   16.6560  -23.1840    2.6134 O   0  0  0  0  0  0  0  0  0  0  0  0
   15.9409  -21.0214    3.1131 N   0  0  0  0  0  0  0  0  0  0  0  0
   15.0106  -19.9423    3.0842 C   0  0  0  0  0  0  0  0  0  0  0  0
   15.8987  -18.7210    3.0192 C   0  0  0  0  0  0  0  0  0  0  0  0
   17.3191  -19.2117    3.1764 C   0  0  0  0  0  0  0  0  0  0  0  0
   17.0902  -20.5690    3.8041 C   0  0  1  0  0  0  0  0  0  0  0  0
   16.8335  -20.3156    5.2629 C   0  0  0  0  0  0  0  0  0  0  0  0
   16.1469  -19.3482    5.6802 O   0  0  0  0  0  0  0  0  0  0  0  0
   14.5587  -21.0062    9.4173 N   0  0  0  0  0  0  0  0  0  0  0  0
   14.2542  -21.6370    8.1883 C   0  0  0  0  0  0  0  0  0  0  0  0
   13.0853  -22.0078    7.9804 O   0  0  0  0  0  0  0  0  0  0  0  0
   15.3038  -21.8343    7.2087 C   0  0  0  0  0  0  0  0  0  0  0  0
   16.6674  -21.3151    7.5590 C   0  0  2  0  0  0  0  0  0  0  0  0
   17.3641  -21.1745    6.2661 N   0  0  0  0  0  0  0  0  0  0  0  0
   17.4486  -22.2362    8.4010 C   0  0  0  0  0  0  0  0  0  0  0  0
   17.5221  -22.2068    9.7774 O   0  0  0  0  0  0  0  0  0  0  0  0
   18.1409  -23.1663    7.8521 O   0  0  0  0  0  0  0  0  0  0  0  0
  2  1  1  1
  2  3  1  0
  4  2  1  0
  4  6  1  0
  4  5  1  1
  6  7  2  0
  8  6  1  0
  8 12  1  0
  9  8  1  0
 10  9  1  0
 10 11  1  0
 11 12  1  0
 12 13  1  1
 13 20  1  0
 13 14  2  0
 16 18  1  0
 16 15  1  0
 17 16  2  0
 19 21  1  0
 19 18  1  6
 20 19  1  0
 21 22  1  0
 23 21  2  0
M  END
$$$$
