KTF.pdb
     RDKit          3D

 28 28  0  0  1  0  0  0  0  0999 V2000
    8.4166  -16.6048   18.0900 N   0  0  0  0  0  0  0  0  0  0  0  0
    7.2909  -17.3589   18.5211 C   0  0  1  0  0  0  0  0  0  0  0  0
    6.9504  -18.5066   17.6725 C   0  0  0  0  0  0  0  0  0  0  0  0
    7.9177  -19.5469   17.3765 C   0  0  0  0  0  0  0  0  0  0  0  0
    7.7827  -20.7092   16.5304 C   0  0  0  0  0  0  0  0  0  0  0  0
    8.8516  -21.7035   16.3030 C   0  0  0  0  0  0  0  0  0  0  0  0
    8.2199  -22.7342   15.3900 N   0  0  0  0  0  0  0  0  0  0  0  0
    7.5613  -17.7843   19.9498 C   0  0  0  0  0  0  0  0  0  0  0  0
    6.6566  -18.4059   20.5419 O   0  0  0  0  0  0  0  0  0  0  0  0
    9.8454  -20.1242   21.3551 C   0  0  0  0  0  0  0  0  0  0  0  0
   10.2323  -18.8129   21.9781 C   0  0  1  0  0  0  0  0  0  0  0  0
   11.2795  -18.2134   21.2645 O   0  0  0  0  0  0  0  0  0  0  0  0
    9.0152  -17.8785   22.0057 C   0  0  2  0  0  0  0  0  0  0  0  0
    8.7623  -17.5155   20.6256 N   0  0  0  0  0  0  0  0  0  0  0  0
    9.3868  -16.6624   22.8049 C   0  0  0  0  0  0  0  0  0  0  0  0
    9.8131  -15.6062   22.2597 O   0  0  0  0  0  0  0  0  0  0  0  0
    9.2795  -16.6312   24.2165 N   0  0  0  0  0  0  0  0  0  0  0  0
    9.1891  -15.3916   24.9859 C   0  0  1  0  0  0  0  0  0  0  0  0
    7.8604  -14.7794   24.5291 C   0  0  0  0  0  0  0  0  0  0  0  0
    7.4554  -13.6022   25.2633 C   0  0  0  0  0  0  0  0  0  0  0  0
    8.1572  -12.4271   25.1671 C   0  0  0  0  0  0  0  0  0  0  0  0
    7.7588  -11.2914   25.8809 C   0  0  0  0  0  0  0  0  0  0  0  0
    6.6516  -11.3343   26.6947 C   0  0  0  0  0  0  0  0  0  0  0  0
    5.9458  -12.5103   26.7936 C   0  0  0  0  0  0  0  0  0  0  0  0
    6.3505  -13.6242   26.0830 C   0  0  0  0  0  0  0  0  0  0  0  0
    9.1835  -15.6247   26.4247 C   0  0  0  0  0  0  0  0  0  0  0  0
    8.5727  -16.6017   26.9077 O   0  0  0  0  0  0  0  0  0  0  0  0
    9.8511  -14.7730   27.2770 O   0  0  0  0  0  0  0  0  0  0  0  0
  2  1  1  6
  2  3  1  0
  4  3  1  0
  5  6  1  0
  5  4  1  0
  7  6  1  0
  8  9  2  0
  8  2  1  0
 11 10  1  6
 11 13  1  0
 12 11  1  0
 13 14  1  6
 14  8  1  0
 15 16  2  0
 15 13  1  0
 17 15  1  0
 18 19  1  6
 18 17  1  0
 20 19  1  0
 20 21  2  0
 22 21  1  0
 23 22  2  0
 24 25  2  0
 24 23  1  0
 25 20  1  0
 26 18  1  0
 27 26  2  0
 28 26  1  0
M  END
$$$$
