KTF.pdb
     RDKit          3D

 28 28  0  0  1  0  0  0  0  0999 V2000
    6.3234  -16.4240   20.2595 N   0  0  0  0  0  0  0  0  0  0  0  0
    7.2287  -15.6115   20.9956 C   0  0  1  0  0  0  0  0  0  0  0  0
    6.8080  -14.2171   21.1735 C   0  0  0  0  0  0  0  0  0  0  0  0
    7.2518  -13.1683   20.2743 C   0  0  0  0  0  0  0  0  0  0  0  0
    8.5543  -12.9543   19.6889 C   0  0  0  0  0  0  0  0  0  0  0  0
    8.8746  -11.8647   18.7438 C   0  0  0  0  0  0  0  0  0  0  0  0
   10.3669  -11.9906   18.5150 N   0  0  0  0  0  0  0  0  0  0  0  0
    7.4599  -16.2969   22.3269 C   0  0  0  0  0  0  0  0  0  0  0  0
    6.4572  -16.7315   22.9276 O   0  0  0  0  0  0  0  0  0  0  0  0
    9.2530  -19.2874   22.8468 C   0  0  0  0  0  0  0  0  0  0  0  0
    9.9373  -18.3221   23.7727 C   0  0  1  0  0  0  0  0  0  0  0  0
   11.0919  -17.7954   23.1768 O   0  0  0  0  0  0  0  0  0  0  0  0
    8.9712  -17.1866   24.1363 C   0  0  2  0  0  0  0  0  0  0  0  0
    8.7288  -16.4621   22.9047 N   0  0  0  0  0  0  0  0  0  0  0  0
    9.6579  -16.3005   25.1359 C   0  0  0  0  0  0  0  0  0  0  0  0
   10.4895  -15.4162   24.7882 O   0  0  0  0  0  0  0  0  0  0  0  0
    9.4109  -16.4064   26.5262 N   0  0  0  0  0  0  0  0  0  0  0  0
   10.1751  -15.6735   27.5338 C   0  0  1  0  0  0  0  0  0  0  0  0
    9.0972  -14.9525   28.3506 C   0  0  0  0  0  0  0  0  0  0  0  0
    8.3196  -13.9893   27.6048 C   0  0  0  0  0  0  0  0  0  0  0  0
    8.7655  -12.7048   27.4198 C   0  0  0  0  0  0  0  0  0  0  0  0
    8.0071  -11.7778   26.6963 C   0  0  0  0  0  0  0  0  0  0  0  0
    6.7961  -12.1405   26.1558 C   0  0  0  0  0  0  0  0  0  0  0  0
    6.3460  -13.4268   26.3392 C   0  0  0  0  0  0  0  0  0  0  0  0
    7.1053  -14.3320   27.0558 C   0  0  0  0  0  0  0  0  0  0  0  0
   10.9673  -16.5525   28.3848 C   0  0  0  0  0  0  0  0  0  0  0  0
   10.8160  -17.7916   28.3339 O   0  0  0  0  0  0  0  0  0  0  0  0
   11.8964  -16.0335   29.2594 O   0  0  0  0  0  0  0  0  0  0  0  0
  2  1  1  1
  2  3  1  0
  4  3  1  0
  5  6  1  0
  5  4  1  0
  7  6  1  0
  8  9  2  0
  8  2  1  0
 11 10  1  6
 11 13  1  0
 12 11  1  0
 13 14  1  6
 14  8  1  0
 15 16  2  0
 15 13  1  0
 17 15  1  0
 18 19  1  1
 18 17  1  0
 20 19  1  0
 20 21  2  0
 22 21  1  0
 23 22  2  0
 24 25  2  0
 24 23  1  0
 25 20  1  0
 26 18  1  0
 27 26  2  0
 28 26  1  0
M  END
$$$$
