KTF.pdb
     RDKit          3D

 28 28  0  0  1  0  0  0  0  0999 V2000
    6.5608  -16.0877   20.3043 N   0  0  0  0  0  0  0  0  0  0  0  0
    7.6782  -15.4765   20.9363 C   0  0  1  0  0  0  0  0  0  0  0  0
    7.6361  -14.0107   20.9902 C   0  0  0  0  0  0  0  0  0  0  0  0
    7.7580  -13.2020   19.7916 C   0  0  0  0  0  0  0  0  0  0  0  0
    8.3365  -13.5412   18.5127 C   0  0  0  0  0  0  0  0  0  0  0  0
    8.4762  -12.5976   17.3844 C   0  0  0  0  0  0  0  0  0  0  0  0
    8.9160  -13.4630   16.2215 N   0  0  0  0  0  0  0  0  0  0  0  0
    7.7915  -16.0810   22.3210 C   0  0  0  0  0  0  0  0  0  0  0  0
    6.7343  -16.2419   22.9625 O   0  0  0  0  0  0  0  0  0  0  0  0
    9.3398  -19.3534   23.0626 C   0  0  0  0  0  0  0  0  0  0  0  0
   10.0454  -18.3473   23.9270 C   0  0  1  0  0  0  0  0  0  0  0  0
   11.2346  -17.9184   23.3209 O   0  0  0  0  0  0  0  0  0  0  0  0
    9.1222  -17.1471   24.1763 C   0  0  2  0  0  0  0  0  0  0  0  0
    9.0107  -16.4614   22.9043 N   0  0  0  0  0  0  0  0  0  0  0  0
    9.7851  -16.2596   25.1906 C   0  0  0  0  0  0  0  0  0  0  0  0
   10.6202  -15.3717   24.8609 O   0  0  0  0  0  0  0  0  0  0  0  0
    9.5102  -16.3680   26.5754 N   0  0  0  0  0  0  0  0  0  0  0  0
   10.1777  -15.5555   27.5907 C   0  0  1  0  0  0  0  0  0  0  0  0
    9.0218  -14.8366   28.2950 C   0  0  0  0  0  0  0  0  0  0  0  0
    8.3078  -13.8902   27.4684 C   0  0  0  0  0  0  0  0  0  0  0  0
    8.7728  -12.6121   27.2860 C   0  0  0  0  0  0  0  0  0  0  0  0
    8.0760  -11.7014   26.4840 C   0  0  0  0  0  0  0  0  0  0  0  0
    6.9079  -12.0740   25.8622 C   0  0  0  0  0  0  0  0  0  0  0  0
    6.4389  -13.3540   26.0427 C   0  0  0  0  0  0  0  0  0  0  0  0
    7.1371  -14.2430   26.8374 C   0  0  0  0  0  0  0  0  0  0  0  0
   10.9410  -16.3585   28.5378 C   0  0  0  0  0  0  0  0  0  0  0  0
   10.8820  -17.6060   28.5054 O   0  0  0  0  0  0  0  0  0  0  0  0
   11.7408  -15.7570   29.4845 O   0  0  0  0  0  0  0  0  0  0  0  0
  2  1  1  1
  2  3  1  0
  4  3  1  0
  5  6  1  0
  5  4  1  0
  7  6  1  0
  8  9  2  0
  8  2  1  0
 11 10  1  6
 11 13  1  0
 12 11  1  0
 13 14  1  6
 14  8  1  0
 15 16  2  0
 15 13  1  0
 17 15  1  0
 18 19  1  1
 18 17  1  0
 20 19  1  0
 20 21  2  0
 22 21  1  0
 23 22  2  0
 24 25  2  0
 24 23  1  0
 25 20  1  0
 26 18  1  0
 27 26  2  0
 28 26  1  0
M  END
$$$$
