KTF.pdb
     RDKit          3D

 28 28  0  0  1  0  0  0  0  0999 V2000
    9.9769  -17.4592   17.5564 N   0  0  0  0  0  0  0  0  0  0  0  0
   10.1243  -17.9477   18.8836 C   0  0  1  0  0  0  0  0  0  0  0  0
   11.3604  -18.6972   19.1357 C   0  0  0  0  0  0  0  0  0  0  0  0
   12.4452  -18.7208   18.1725 C   0  0  0  0  0  0  0  0  0  0  0  0
   13.6633  -19.4962   18.1836 C   0  0  0  0  0  0  0  0  0  0  0  0
   14.7199  -19.4036   17.1551 C   0  0  0  0  0  0  0  0  0  0  0  0
   15.8434  -20.2679   17.6897 N   0  0  0  0  0  0  0  0  0  0  0  0
    9.9959  -16.7577   19.8124 C   0  0  0  0  0  0  0  0  0  0  0  0
   10.8368  -15.8447   19.6910 O   0  0  0  0  0  0  0  0  0  0  0  0
    6.9160  -14.5375   20.3447 C   0  0  0  0  0  0  0  0  0  0  0  0
    7.3110  -15.1835   21.6424 C   0  0  1  0  0  0  0  0  0  0  0  0
    6.5950  -16.3719   21.8441 O   0  0  0  0  0  0  0  0  0  0  0  0
    8.8176  -15.4750   21.6333 C   0  0  2  0  0  0  0  0  0  0  0  0
    8.9916  -16.6381   20.7862 N   0  0  0  0  0  0  0  0  0  0  0  0
    9.2340  -15.7889   23.0418 C   0  0  0  0  0  0  0  0  0  0  0  0
   10.4459  -15.9315   23.3668 O   0  0  0  0  0  0  0  0  0  0  0  0
    8.2903  -15.9424   24.0863 N   0  0  0  0  0  0  0  0  0  0  0  0
    8.6626  -16.0192   25.4977 C   0  0  1  0  0  0  0  0  0  0  0  0
    9.2327  -14.6284   25.7968 C   0  0  0  0  0  0  0  0  0  0  0  0
    9.5887  -14.4079   27.1801 C   0  0  0  0  0  0  0  0  0  0  0  0
   10.6036  -15.1143   27.7749 C   0  0  0  0  0  0  0  0  0  0  0  0
   10.9428  -14.8951   29.1147 C   0  0  0  0  0  0  0  0  0  0  0  0
   10.2612  -13.9634   29.8612 C   0  0  0  0  0  0  0  0  0  0  0  0
    9.2435  -13.2536   29.2685 C   0  0  0  0  0  0  0  0  0  0  0  0
    8.9192  -13.4802   27.9445 C   0  0  0  0  0  0  0  0  0  0  0  0
    7.5252  -16.3088   26.3619 C   0  0  0  0  0  0  0  0  0  0  0  0
    6.3962  -15.8399   26.1047 O   0  0  0  0  0  0  0  0  0  0  0  0
    7.6745  -17.1043   27.4767 O   0  0  0  0  0  0  0  0  0  0  0  0
  2  1  1  6
  2  3  1  0
  4  3  1  0
  5  6  1  0
  5  4  1  0
  7  6  1  0
  8  9  2  0
  8  2  1  0
 11 10  1  6
 11 13  1  0
 12 11  1  0
 13 14  1  6
 14  8  1  0
 15 16  2  0
 15 13  1  0
 17 15  1  0
 18 19  1  1
 18 17  1  0
 20 19  1  0
 20 21  2  0
 22 21  1  0
 23 22  2  0
 24 25  2  0
 24 23  1  0
 25 20  1  0
 26 18  1  0
 27 26  2  0
 28 26  1  0
M  END
$$$$
