KTF.pdb
     RDKit          3D

 28 28  0  0  1  0  0  0  0  0999 V2000
    9.3799  -18.5748   18.8456 N   0  0  0  0  0  0  0  0  0  0  0  0
    9.1664  -18.6123   20.2508 C   0  0  1  0  0  0  0  0  0  0  0  0
    9.9974  -19.5774   20.9797 C   0  0  0  0  0  0  0  0  0  0  0  0
    9.8189  -21.0084   20.8191 C   0  0  0  0  0  0  0  0  0  0  0  0
    9.9046  -21.8136   19.6235 C   0  0  0  0  0  0  0  0  0  0  0  0
    9.7658  -23.2843   19.5973 C   0  0  0  0  0  0  0  0  0  0  0  0
    8.2696  -23.5219   19.5967 N   0  0  0  0  0  0  0  0  0  0  0  0
    9.3669  -17.2027   20.7689 C   0  0  0  0  0  0  0  0  0  0  0  0
   10.4199  -16.6188   20.4440 O   0  0  0  0  0  0  0  0  0  0  0  0
    7.1206  -14.2299   20.1363 C   0  0  0  0  0  0  0  0  0  0  0  0
    7.1845  -14.5105   21.6110 C   0  0  1  0  0  0  0  0  0  0  0  0
    6.1469  -15.3698   21.9988 O   0  0  0  0  0  0  0  0  0  0  0  0
    8.5414  -15.1389   21.9559 C   0  0  2  0  0  0  0  0  0  0  0  0
    8.4379  -16.5358   21.5834 N   0  0  0  0  0  0  0  0  0  0  0  0
    8.7454  -15.0084   23.4382 C   0  0  0  0  0  0  0  0  0  0  0  0
    8.7452  -13.8871   24.0189 O   0  0  0  0  0  0  0  0  0  0  0  0
    8.9492  -16.1366   24.2692 N   0  0  0  0  0  0  0  0  0  0  0  0
    8.9791  -16.0617   25.7287 C   0  0  1  0  0  0  0  0  0  0  0  0
    7.5518  -15.6431   26.0979 C   0  0  0  0  0  0  0  0  0  0  0  0
    7.3640  -14.2191   26.2589 C   0  0  0  0  0  0  0  0  0  0  0  0
    8.2968  -13.4468   26.9041 C   0  0  0  0  0  0  0  0  0  0  0  0
    8.1081  -12.0687   27.0559 C   0  0  0  0  0  0  0  0  0  0  0  0
    6.9790  -11.4622   26.5583 C   0  0  0  0  0  0  0  0  0  0  0  0
    6.0420  -12.2330   25.9112 C   0  0  0  0  0  0  0  0  0  0  0  0
    6.2412  -13.5929   25.7684 C   0  0  0  0  0  0  0  0  0  0  0  0
    9.3209  -17.3361   26.3481 C   0  0  0  0  0  0  0  0  0  0  0  0
    9.3945  -18.3769   25.6610 O   0  0  0  0  0  0  0  0  0  0  0  0
    9.5689  -17.4157   27.7008 O   0  0  0  0  0  0  0  0  0  0  0  0
  2  1  1  6
  2  3  1  0
  4  3  1  0
  5  6  1  0
  5  4  1  0
  7  6  1  0
  8  9  2  0
  8  2  1  0
 11 10  1  6
 11 13  1  0
 12 11  1  0
 13 14  1  1
 14  8  1  0
 15 16  2  0
 15 13  1  0
 17 15  1  0
 18 19  1  1
 18 17  1  0
 20 19  1  0
 20 21  2  0
 22 21  1  0
 23 22  2  0
 24 25  2  0
 24 23  1  0
 25 20  1  0
 26 18  1  0
 27 26  2  0
 28 26  1  0
M  END
$$$$
