KTF.pdb
     RDKit          3D

 28 28  0  0  1  0  0  0  0  0999 V2000
    9.6777  -17.8516   17.2592 N   0  0  0  0  0  0  0  0  0  0  0  0
    9.9862  -16.8165   18.1839 C   0  0  1  0  0  0  0  0  0  0  0  0
    9.4384  -15.4979   17.8455 C   0  0  0  0  0  0  0  0  0  0  0  0
    8.7453  -15.2611   16.5929 C   0  0  0  0  0  0  0  0  0  0  0  0
    8.1272  -14.0517   16.1024 C   0  0  0  0  0  0  0  0  0  0  0  0
    7.3670  -13.9572   14.8391 C   0  0  0  0  0  0  0  0  0  0  0  0
    6.8853  -12.5216   14.7954 N   0  0  0  0  0  0  0  0  0  0  0  0
    9.5143  -17.2819   19.5463 C   0  0  0  0  0  0  0  0  0  0  0  0
    8.3569  -17.7396   19.6245 O   0  0  0  0  0  0  0  0  0  0  0  0
   11.0419  -19.8075   21.6857 C   0  0  0  0  0  0  0  0  0  0  0  0
   10.9582  -18.5806   22.5490 C   0  0  1  0  0  0  0  0  0  0  0  0
   12.1867  -17.9056   22.5738 O   0  0  0  0  0  0  0  0  0  0  0  0
    9.8605  -17.6507   22.0148 C   0  0  2  0  0  0  0  0  0  0  0  0
   10.3065  -17.2225   20.7040 N   0  0  0  0  0  0  0  0  0  0  0  0
    9.7629  -16.4736   22.9426 C   0  0  0  0  0  0  0  0  0  0  0  0
   10.1759  -15.3260   22.6155 O   0  0  0  0  0  0  0  0  0  0  0  0
    9.2012  -16.5842   24.2377 N   0  0  0  0  0  0  0  0  0  0  0  0
    9.0942  -15.4580   25.1634 C   0  0  1  0  0  0  0  0  0  0  0  0
    7.9220  -14.6429   24.6062 C   0  0  0  0  0  0  0  0  0  0  0  0
    7.5160  -13.5289   25.4326 C   0  0  0  0  0  0  0  0  0  0  0  0
    8.2683  -12.3835   25.5027 C   0  0  0  0  0  0  0  0  0  0  0  0
    7.8686  -11.3089   26.3049 C   0  0  0  0  0  0  0  0  0  0  0  0
    6.7093  -11.3833   27.0401 C   0  0  0  0  0  0  0  0  0  0  0  0
    5.9528  -12.5296   26.9724 C   0  0  0  0  0  0  0  0  0  0  0  0
    6.3594  -13.5831   26.1760 C   0  0  0  0  0  0  0  0  0  0  0  0
    8.8253  -15.8815   26.5319 C   0  0  0  0  0  0  0  0  0  0  0  0
    9.0370  -15.1078   27.4896 O   0  0  0  0  0  0  0  0  0  0  0  0
    8.3329  -17.1412   26.7936 O   0  0  0  0  0  0  0  0  0  0  0  0
  2  1  1  6
  2  3  1  0
  4  3  1  0
  5  6  1  0
  5  4  1  0
  7  6  1  0
  8  9  2  0
  8  2  1  0
 11 10  1  6
 11 13  1  0
 12 11  1  0
 13 14  1  6
 14  8  1  0
 15 16  2  0
 15 13  1  0
 17 15  1  0
 18 19  1  6
 18 17  1  0
 20 19  1  0
 20 21  2  0
 22 21  1  0
 23 22  2  0
 24 25  2  0
 24 23  1  0
 25 20  1  0
 26 18  1  0
 27 26  2  0
 28 26  1  0
M  END
$$$$
