KTF.pdb
     RDKit          3D

 28 28  0  0  1  0  0  0  0  0999 V2000
    9.7001  -14.1618   19.7845 N   0  0  0  0  0  0  0  0  0  0  0  0
    8.4698  -13.8690   20.4343 C   0  0  1  0  0  0  0  0  0  0  0  0
    7.3092  -13.7535   19.5439 C   0  0  0  0  0  0  0  0  0  0  0  0
    7.4564  -13.3956   18.1455 C   0  0  0  0  0  0  0  0  0  0  0  0
    7.7949  -14.2305   17.0170 C   0  0  0  0  0  0  0  0  0  0  0  0
    7.8440  -13.7604   15.6172 C   0  0  0  0  0  0  0  0  0  0  0  0
    8.1653  -15.0034   14.8130 N   0  0  0  0  0  0  0  0  0  0  0  0
    8.2584  -14.9368   21.4882 C   0  0  0  0  0  0  0  0  0  0  0  0
    7.1015  -15.0814   21.9310 O   0  0  0  0  0  0  0  0  0  0  0  0
    9.6608  -18.5278   21.5082 C   0  0  0  0  0  0  0  0  0  0  0  0
   10.0763  -17.8542   22.7854 C   0  0  1  0  0  0  0  0  0  0  0  0
   11.3957  -17.3888   22.6954 O   0  0  0  0  0  0  0  0  0  0  0  0
    9.1276  -16.6848   23.0814 C   0  0  2  0  0  0  0  0  0  0  0  0
    9.2869  -15.7561   21.9802 N   0  0  0  0  0  0  0  0  0  0  0  0
    9.5693  -16.0484   24.3681 C   0  0  0  0  0  0  0  0  0  0  0  0
    9.8750  -14.8253   24.4410 O   0  0  0  0  0  0  0  0  0  0  0  0
    9.6675  -16.7845   25.5738 N   0  0  0  0  0  0  0  0  0  0  0  0
    9.4114  -16.2035   26.8903 C   0  0  1  0  0  0  0  0  0  0  0  0
    7.9382  -15.7868   26.8206 C   0  0  0  0  0  0  0  0  0  0  0  0
    7.7196  -14.3630   26.7038 C   0  0  0  0  0  0  0  0  0  0  0  0
    8.5835  -13.4614   27.2727 C   0  0  0  0  0  0  0  0  0  0  0  0
    8.3653  -12.0842   27.1552 C   0  0  0  0  0  0  0  0  0  0  0  0
    7.2760  -11.6091   26.4641 C   0  0  0  0  0  0  0  0  0  0  0  0
    6.4080  -12.5096   25.8927 C   0  0  0  0  0  0  0  0  0  0  0  0
    6.6357  -13.8669   26.0166 C   0  0  0  0  0  0  0  0  0  0  0  0
    9.6294  -17.1538   27.9739 C   0  0  0  0  0  0  0  0  0  0  0  0
    9.7233  -16.7594   29.1555 O   0  0  0  0  0  0  0  0  0  0  0  0
    9.7354  -18.5025   27.7147 O   0  0  0  0  0  0  0  0  0  0  0  0
  2  1  1  6
  2  3  1  0
  4  3  1  0
  5  6  1  0
  5  4  1  0
  7  6  1  0
  8  9  2  0
  8  2  1  0
 11 10  1  6
 11 13  1  0
 12 11  1  0
 13 14  1  6
 14  8  1  0
 15 16  2  0
 15 13  1  0
 17 15  1  0
 18 19  1  6
 18 17  1  0
 20 19  1  0
 20 21  2  0
 22 21  1  0
 23 22  2  0
 24 25  2  0
 24 23  1  0
 25 20  1  0
 26 18  1  0
 27 26  2  0
 28 26  1  0
M  END
$$$$
