KTF.pdb
     RDKit          3D

 28 28  0  0  1  0  0  0  0  0999 V2000
    7.9331  -17.4350   18.8727 N   0  0  0  0  0  0  0  0  0  0  0  0
    8.5717  -16.5183   19.7522 C   0  0  1  0  0  0  0  0  0  0  0  0
    8.1655  -15.1175   19.5910 C   0  0  0  0  0  0  0  0  0  0  0  0
    8.3987  -14.3958   18.3541 C   0  0  0  0  0  0  0  0  0  0  0  0
    8.0736  -13.0303   18.0151 C   0  0  0  0  0  0  0  0  0  0  0  0
    8.3970  -12.3926   16.7222 C   0  0  0  0  0  0  0  0  0  0  0  0
    7.9066  -13.3790   15.6822 N   0  0  0  0  0  0  0  0  0  0  0  0
    8.3243  -17.0103   21.1637 C   0  0  0  0  0  0  0  0  0  0  0  0
    7.1471  -17.2761   21.4781 O   0  0  0  0  0  0  0  0  0  0  0  0
    8.5582  -19.8499   22.7650 C   0  0  0  0  0  0  0  0  0  0  0  0
    9.4869  -19.0263   23.6117 C   0  0  1  0  0  0  0  0  0  0  0  0
   10.8181  -19.2098   23.2121 O   0  0  0  0  0  0  0  0  0  0  0  0
    9.1059  -17.5440   23.4990 C   0  0  2  0  0  0  0  0  0  0  0  0
    9.3416  -17.1777   22.1167 N   0  0  0  0  0  0  0  0  0  0  0  0
   10.0142  -16.7652   24.4069 C   0  0  0  0  0  0  0  0  0  0  0  0
   11.0583  -16.1953   23.9829 O   0  0  0  0  0  0  0  0  0  0  0  0
    9.7506  -16.6252   25.7911 N   0  0  0  0  0  0  0  0  0  0  0  0
   10.5882  -15.8337   26.6902 C   0  0  1  0  0  0  0  0  0  0  0  0
   10.4606  -14.4085   26.1412 C   0  0  0  0  0  0  0  0  0  0  0  0
    9.1388  -13.8351   26.2548 C   0  0  0  0  0  0  0  0  0  0  0  0
    8.8333  -12.9434   27.2519 C   0  0  0  0  0  0  0  0  0  0  0  0
    7.5513  -12.3922   27.3553 C   0  0  0  0  0  0  0  0  0  0  0  0
    6.5713  -12.7369   26.4548 C   0  0  0  0  0  0  0  0  0  0  0  0
    6.8738  -13.6303   25.4542 C   0  0  0  0  0  0  0  0  0  0  0  0
    8.1441  -14.1668   25.3639 C   0  0  0  0  0  0  0  0  0  0  0  0
   10.1383  -15.8966   28.0752 C   0  0  0  0  0  0  0  0  0  0  0  0
    9.1207  -16.5523   28.3835 O   0  0  0  0  0  0  0  0  0  0  0  0
   10.8267  -15.2350   29.0682 O   0  0  0  0  0  0  0  0  0  0  0  0
  2  1  1  6
  2  3  1  0
  4  3  1  0
  5  6  1  0
  5  4  1  0
  7  6  1  0
  8  9  2  0
  8  2  1  0
 11 10  1  6
 11 13  1  0
 12 11  1  0
 13 14  1  6
 14  8  1  0
 15 16  2  0
 15 13  1  0
 17 15  1  0
 18 19  1  6
 18 17  1  0
 20 19  1  0
 20 21  2  0
 22 21  1  0
 23 22  2  0
 24 25  2  0
 24 23  1  0
 25 20  1  0
 26 18  1  0
 27 26  2  0
 28 26  1  0
M  END
$$$$
