EGR.pdb
     RDKit          3D

 25 24  0  0  1  0  0  0  0  0999 V2000
   28.6750  -18.4714  -18.2478 N   0  0  0  0  0  0  0  0  0  0  0  0
   27.5586  -18.2553  -17.3069 C   0  0  1  0  0  0  0  0  0  0  0  0
   26.2838  -18.0633  -18.0454 C   0  0  0  0  0  0  0  0  0  0  0  0
   25.5470  -16.8474  -17.5714 C   0  0  0  0  0  0  0  0  0  0  0  0
   24.0887  -17.0455  -17.7522 C   0  0  0  0  0  0  0  0  0  0  0  0
   23.5852  -18.0435  -18.3128 O   0  0  0  0  0  0  0  0  0  0  0  0
   27.4906  -19.4610  -16.4424 C   0  0  0  0  0  0  0  0  0  0  0  0
   27.7603  -20.6279  -16.7992 O   0  0  0  0  0  0  0  0  0  0  0  0
   23.2211  -16.0692  -17.2735 O   0  0  0  0  0  0  0  0  0  0  0  0
   27.0855  -19.3528  -15.0578 N   0  0  0  0  0  0  0  0  0  0  0  0
   26.9132  -20.5129  -14.2269 C   0  0  0  0  0  0  0  0  0  0  0  0
   26.5655  -20.0576  -12.8540 C   0  0  0  0  0  0  0  0  0  0  0  0
   26.7438  -18.8401  -12.5025 O   0  0  0  0  0  0  0  0  0  0  0  0
   19.4813  -19.5374  -12.4005 N   0  0  0  0  0  0  0  0  0  0  0  0
   20.2252  -20.3682  -13.2748 C   0  0  0  0  0  0  0  0  0  0  0  0
   19.7367  -20.6308  -14.4444 N   0  0  0  0  0  0  0  0  0  0  0  0
   21.4641  -20.8743  -12.8379 N   0  0  0  0  0  0  0  0  0  0  0  0
   22.0501  -20.4609  -11.5712 C   0  0  0  0  0  0  0  0  0  0  0  0
   23.3501  -21.1927  -11.4297 C   0  0  0  0  0  0  0  0  0  0  0  0
   24.1883  -20.8103  -10.2611 C   0  0  0  0  0  0  0  0  0  0  0  0
   25.6067  -20.4802  -10.5599 C   0  0  2  0  0  0  0  0  0  0  0  0
   26.0276  -20.9251  -11.8743 N   0  0  0  0  0  0  0  0  0  0  0  0
   26.5600  -20.8919   -9.5127 C   0  0  0  0  0  0  0  0  0  0  0  0
   27.3948  -21.7916   -9.7178 O   0  0  0  0  0  0  0  0  0  0  0  0
   26.5243  -20.2709   -8.2840 O   0  0  0  0  0  0  0  0  0  0  0  0
  2  1  1  6
  3  2  1  0
  4  3  1  0
  5  4  1  0
  6  5  2  0
  7 10  1  0
  7  2  1  0
  8  7  2  0
  9  5  1  0
 11 12  1  0
 11 10  1  0
 12 22  1  0
 13 12  2  0
 15 14  1  0
 16 15  2  0
 17 15  1  0
 18 19  1  0
 18 17  1  0
 20 19  1  0
 21 20  1  1
 22 21  1  0
 23 25  1  0
 23 21  1  0
 24 23  2  0
M  END
$$$$
