EGR.pdb
     RDKit          3D

 25 24  0  0  1  0  0  0  0  0999 V2000
   25.2964  -19.6595  -18.5187 N   0  0  0  0  0  0  0  0  0  0  0  0
   25.4243  -18.5083  -17.6040 C   0  0  1  0  0  0  0  0  0  0  0  0
   25.9227  -17.3144  -18.3346 C   0  0  0  0  0  0  0  0  0  0  0  0
   25.6762  -17.4247  -19.8087 C   0  0  0  0  0  0  0  0  0  0  0  0
   26.9688  -17.3929  -20.5345 C   0  0  0  0  0  0  0  0  0  0  0  0
   27.1162  -17.7849  -21.7128 O   0  0  0  0  0  0  0  0  0  0  0  0
   24.0721  -18.2570  -17.0436 C   0  0  0  0  0  0  0  0  0  0  0  0
   23.7837  -17.3736  -16.2081 O   0  0  0  0  0  0  0  0  0  0  0  0
   28.0896  -16.8997  -19.8744 O   0  0  0  0  0  0  0  0  0  0  0  0
   22.9434  -19.0642  -17.4528 N   0  0  0  0  0  0  0  0  0  0  0  0
   21.6198  -18.8268  -16.9453 C   0  0  0  0  0  0  0  0  0  0  0  0
   21.2691  -19.9348  -16.0166 C   0  0  0  0  0  0  0  0  0  0  0  0
   21.7972  -21.0929  -16.1492 O   0  0  0  0  0  0  0  0  0  0  0  0
   25.2368  -20.9078  -10.0730 N   0  0  0  0  0  0  0  0  0  0  0  0
   25.4359  -21.3451  -11.4062 C   0  0  0  0  0  0  0  0  0  0  0  0
   26.6433  -21.5891  -11.8039 N   0  0  0  0  0  0  0  0  0  0  0  0
   24.3148  -21.4969  -12.2440 N   0  0  0  0  0  0  0  0  0  0  0  0
   23.0755  -20.7754  -11.9938 C   0  0  0  0  0  0  0  0  0  0  0  0
   21.9880  -21.5062  -12.7210 C   0  0  0  0  0  0  0  0  0  0  0  0
   20.6638  -20.8287  -12.7626 C   0  0  0  0  0  0  0  0  0  0  0  0
   19.9587  -20.8612  -14.0709 C   0  0  2  0  0  0  0  0  0  0  0  0
   20.3497  -19.7784  -14.9527 N   0  0  0  0  0  0  0  0  0  0  0  0
   18.4924  -20.9795  -13.9683 C   0  0  0  0  0  0  0  0  0  0  0  0
   17.7404  -20.1003  -14.4266 O   0  0  0  0  0  0  0  0  0  0  0  0
   17.9446  -22.0823  -13.3515 O   0  0  0  0  0  0  0  0  0  0  0  0
  2  1  1  6
  3  2  1  0
  4  3  1  0
  5  4  1  0
  6  5  2  0
  7 10  1  0
  7  2  1  0
  8  7  2  0
  9  5  1  0
 11 12  1  0
 11 10  1  0
 12 22  1  0
 13 12  2  0
 15 14  1  0
 16 15  2  0
 17 15  1  0
 18 19  1  0
 18 17  1  0
 20 19  1  0
 21 20  1  1
 22 21  1  0
 23 25  1  0
 23 21  1  0
 24 23  2  0
M  END
$$$$
