EGR.pdb
     RDKit          3D

 25 24  0  0  1  0  0  0  0  0999 V2000
   25.5301  -20.3061  -19.0682 N   0  0  0  0  0  0  0  0  0  0  0  0
   26.2672  -19.0557  -18.8007 C   0  0  1  0  0  0  0  0  0  0  0  0
   25.6760  -17.9277  -19.5659 C   0  0  0  0  0  0  0  0  0  0  0  0
   24.2025  -18.1094  -19.7701 C   0  0  0  0  0  0  0  0  0  0  0  0
   23.6663  -16.9802  -20.5677 C   0  0  0  0  0  0  0  0  0  0  0  0
   22.6667  -16.3057  -20.2364 O   0  0  0  0  0  0  0  0  0  0  0  0
   26.1715  -18.8089  -17.3393 C   0  0  0  0  0  0  0  0  0  0  0  0
   26.6297  -17.8138  -16.7382 O   0  0  0  0  0  0  0  0  0  0  0  0
   24.3058  -16.6434  -21.7562 O   0  0  0  0  0  0  0  0  0  0  0  0
   25.5053  -19.7579  -16.4740 N   0  0  0  0  0  0  0  0  0  0  0  0
   25.3652  -19.5260  -15.0625 C   0  0  0  0  0  0  0  0  0  0  0  0
   24.2960  -20.4218  -14.5451 C   0  0  0  0  0  0  0  0  0  0  0  0
   23.1784  -20.5307  -15.1590 O   0  0  0  0  0  0  0  0  0  0  0  0
   28.0860  -21.7802   -9.6069 N   0  0  0  0  0  0  0  0  0  0  0  0
   27.9524  -21.1172  -10.8522 C   0  0  0  0  0  0  0  0  0  0  0  0
   28.9448  -21.1533  -11.6824 N   0  0  0  0  0  0  0  0  0  0  0  0
   26.7477  -20.4468  -11.1369 N   0  0  0  0  0  0  0  0  0  0  0  0
   25.5271  -20.7288  -10.3958 C   0  0  0  0  0  0  0  0  0  0  0  0
   24.4673  -19.8148  -10.9316 C   0  0  0  0  0  0  0  0  0  0  0  0
   23.2093  -20.4702  -11.3814 C   0  0  0  0  0  0  0  0  0  0  0  0
   23.3546  -21.4830  -12.4598 C   0  0  2  0  0  0  0  0  0  0  0  0
   24.4471  -21.1916  -13.3678 N   0  0  0  0  0  0  0  0  0  0  0  0
   22.1061  -21.7814  -13.1856 C   0  0  0  0  0  0  0  0  0  0  0  0
   21.1263  -21.0164  -13.1256 O   0  0  0  0  0  0  0  0  0  0  0  0
   22.0215  -22.9291  -13.9420 O   0  0  0  0  0  0  0  0  0  0  0  0
  2  1  1  1
  3  2  1  0
  4  3  1  0
  5  4  1  0
  6  5  2  0
  7 10  1  0
  7  2  1  0
  8  7  2  0
  9  5  1  0
 11 12  1  0
 11 10  1  0
 12 22  1  0
 13 12  2  0
 15 14  1  0
 16 15  2  0
 17 15  1  0
 18 19  1  0
 18 17  1  0
 20 19  1  0
 21 20  1  1
 22 21  1  0
 23 25  1  0
 23 21  1  0
 24 23  2  0
M  END
$$$$
