EGR.pdb
     RDKit          3D

 25 24  0  0  1  0  0  0  0  0999 V2000
   28.2720  -20.4676  -20.3751 N   0  0  0  0  0  0  0  0  0  0  0  0
   27.6699  -19.1297  -20.5358 C   0  0  1  0  0  0  0  0  0  0  0  0
   26.2435  -19.2441  -20.9353 C   0  0  0  0  0  0  0  0  0  0  0  0
   25.4454  -20.0115  -19.9253 C   0  0  0  0  0  0  0  0  0  0  0  0
   24.0281  -20.0789  -20.3560 C   0  0  0  0  0  0  0  0  0  0  0  0
   23.5212  -19.3153  -21.2067 O   0  0  0  0  0  0  0  0  0  0  0  0
   27.7966  -18.4451  -19.2239 C   0  0  0  0  0  0  0  0  0  0  0  0
   27.4439  -17.2716  -18.9788 O   0  0  0  0  0  0  0  0  0  0  0  0
   23.2057  -21.0451  -19.7859 O   0  0  0  0  0  0  0  0  0  0  0  0
   28.3680  -19.1325  -18.0864 N   0  0  0  0  0  0  0  0  0  0  0  0
   28.4248  -18.5246  -16.7852 C   0  0  0  0  0  0  0  0  0  0  0  0
   27.4581  -19.2261  -15.8984 C   0  0  0  0  0  0  0  0  0  0  0  0
   26.5531  -19.9872  -16.3878 O   0  0  0  0  0  0  0  0  0  0  0  0
   25.7406  -20.1758   -7.5830 N   0  0  0  0  0  0  0  0  0  0  0  0
   24.9720  -21.1267   -8.2992 C   0  0  0  0  0  0  0  0  0  0  0  0
   23.7655  -21.3742   -7.9007 N   0  0  0  0  0  0  0  0  0  0  0  0
   25.5495  -21.7637   -9.4139 N   0  0  0  0  0  0  0  0  0  0  0  0
   26.6130  -21.1340  -10.1828 C   0  0  0  0  0  0  0  0  0  0  0  0
   25.9553  -20.2599  -11.2070 C   0  0  0  0  0  0  0  0  0  0  0  0
   26.8680  -19.5846  -12.1690 C   0  0  0  0  0  0  0  0  0  0  0  0
   26.5774  -19.8125  -13.6090 C   0  0  2  0  0  0  0  0  0  0  0  0
   27.4805  -19.0972  -14.4897 N   0  0  0  0  0  0  0  0  0  0  0  0
   25.1670  -19.6021  -13.9850 C   0  0  0  0  0  0  0  0  0  0  0  0
   24.7483  -18.4781  -14.3163 O   0  0  0  0  0  0  0  0  0  0  0  0
   24.2962  -20.6688  -13.9669 O   0  0  0  0  0  0  0  0  0  0  0  0
  2  1  1  1
  3  2  1  0
  4  3  1  0
  5  4  1  0
  6  5  2  0
  7 10  1  0
  7  2  1  0
  8  7  2  0
  9  5  1  0
 11 12  1  0
 11 10  1  0
 12 22  1  0
 13 12  2  0
 15 14  1  0
 16 15  2  0
 17 15  1  0
 18 19  1  0
 18 17  1  0
 20 19  1  0
 21 20  1  1
 22 21  1  0
 23 25  1  0
 23 21  1  0
 24 23  2  0
M  END
$$$$
