EGR.pdb
     RDKit          3D

 25 24  0  0  1  0  0  0  0  0999 V2000
   23.0329  -20.7756  -15.9826 N   0  0  0  0  0  0  0  0  0  0  0  0
   23.2352  -19.5719  -15.1529 C   0  0  1  0  0  0  0  0  0  0  0  0
   23.1308  -18.3433  -15.9819 C   0  0  0  0  0  0  0  0  0  0  0  0
   23.8660  -18.4871  -17.2798 C   0  0  0  0  0  0  0  0  0  0  0  0
   23.0940  -17.8358  -18.3655 C   0  0  0  0  0  0  0  0  0  0  0  0
   22.4915  -18.4622  -19.2646 O   0  0  0  0  0  0  0  0  0  0  0  0
   22.1811  -19.5933  -14.1069 C   0  0  0  0  0  0  0  0  0  0  0  0
   21.9986  -18.7117  -13.2402 O   0  0  0  0  0  0  0  0  0  0  0  0
   23.0303  -16.4466  -18.3943 O   0  0  0  0  0  0  0  0  0  0  0  0
   21.2496  -20.6969  -14.0222 N   0  0  0  0  0  0  0  0  0  0  0  0
   20.2202  -20.7431  -13.0201 C   0  0  0  0  0  0  0  0  0  0  0  0
   19.3799  -21.9454  -13.2677 C   0  0  0  0  0  0  0  0  0  0  0  0
   19.4210  -22.5532  -14.3931 O   0  0  0  0  0  0  0  0  0  0  0  0
   18.9380  -25.4841   -6.4750 N   0  0  0  0  0  0  0  0  0  0  0  0
   18.1080  -24.4291   -6.9291 C   0  0  0  0  0  0  0  0  0  0  0  0
   16.9692  -24.2412   -6.3431 N   0  0  0  0  0  0  0  0  0  0  0  0
   18.5539  -23.6281   -7.9975 N   0  0  0  0  0  0  0  0  0  0  0  0
   17.6558  -23.2193   -9.0676 C   0  0  0  0  0  0  0  0  0  0  0  0
   17.7198  -24.2806  -10.1236 C   0  0  0  0  0  0  0  0  0  0  0  0
   16.8851  -24.0464  -11.3330 C   0  0  0  0  0  0  0  0  0  0  0  0
   17.6142  -23.5962  -12.5478 C   0  0  2  0  0  0  0  0  0  0  0  0
   18.5027  -22.4787  -12.2941 N   0  0  0  0  0  0  0  0  0  0  0  0
   16.7517  -23.3532  -13.7190 C   0  0  0  0  0  0  0  0  0  0  0  0
   16.4002  -22.2017  -14.0338 O   0  0  0  0  0  0  0  0  0  0  0  0
   16.3250  -24.4206  -14.4775 O   0  0  0  0  0  0  0  0  0  0  0  0
  2  1  1  6
  3  2  1  0
  4  3  1  0
  5  4  1  0
  6  5  2  0
  7 10  1  0
  7  2  1  0
  8  7  2  0
  9  5  1  0
 11 12  1  0
 11 10  1  0
 12 22  1  0
 13 12  2  0
 15 14  1  0
 16 15  2  0
 17 15  1  0
 18 19  1  0
 18 17  1  0
 20 19  1  0
 21 20  1  1
 22 21  1  0
 23 25  1  0
 23 21  1  0
 24 23  2  0
M  END
$$$$
