EGR.pdb
     RDKit          3D

 25 24  0  0  1  0  0  0  0  0999 V2000
   18.0427  -19.0329  -14.2689 N   0  0  0  0  0  0  0  0  0  0  0  0
   16.8972  -19.6578  -13.5791 C   0  0  1  0  0  0  0  0  0  0  0  0
   16.4093  -20.8362  -14.3411 C   0  0  0  0  0  0  0  0  0  0  0  0
   15.2896  -20.4713  -15.2680 C   0  0  0  0  0  0  0  0  0  0  0  0
   14.0513  -20.2370  -14.4867 C   0  0  0  0  0  0  0  0  0  0  0  0
   13.6632  -20.9779  -13.5571 O   0  0  0  0  0  0  0  0  0  0  0  0
   17.3790  -20.0623  -12.2338 C   0  0  0  0  0  0  0  0  0  0  0  0
   18.5700  -20.2768  -11.9219 O   0  0  0  0  0  0  0  0  0  0  0  0
   13.2682  -19.1305  -14.7987 O   0  0  0  0  0  0  0  0  0  0  0  0
   16.4478  -20.2434  -11.1415 N   0  0  0  0  0  0  0  0  0  0  0  0
   16.8861  -20.6405   -9.8315 C   0  0  0  0  0  0  0  0  0  0  0  0
   15.9617  -21.6915   -9.3275 C   0  0  0  0  0  0  0  0  0  0  0  0
   15.0748  -22.2061  -10.0931 O   0  0  0  0  0  0  0  0  0  0  0  0
   14.3388  -22.2523   -0.9575 N   0  0  0  0  0  0  0  0  0  0  0  0
   13.4500  -23.2198   -1.4888 C   0  0  0  0  0  0  0  0  0  0  0  0
   12.7518  -23.9362   -0.6673 N   0  0  0  0  0  0  0  0  0  0  0  0
   13.3615  -23.3634   -2.8864 N   0  0  0  0  0  0  0  0  0  0  0  0
   14.5137  -23.7557   -3.6849 C   0  0  0  0  0  0  0  0  0  0  0  0
   14.2472  -23.3069   -5.0896 C   0  0  0  0  0  0  0  0  0  0  0  0
   15.3513  -23.5253   -6.0630 C   0  0  0  0  0  0  0  0  0  0  0  0
   15.0623  -23.1406   -7.4696 C   0  0  2  0  0  0  0  0  0  0  0  0
   16.0064  -22.1757   -7.9989 N   0  0  0  0  0  0  0  0  0  0  0  0
   13.6670  -22.7296   -7.7127 C   0  0  0  0  0  0  0  0  0  0  0  0
   13.2951  -21.5590   -7.5129 O   0  0  0  0  0  0  0  0  0  0  0  0
   12.7578  -23.6589   -8.1670 O   0  0  0  0  0  0  0  0  0  0  0  0
  2  1  1  6
  3  2  1  0
  4  3  1  0
  5  4  1  0
  6  5  2  0
  7 10  1  0
  7  2  1  0
  8  7  2  0
  9  5  1  0
 11 12  1  0
 11 10  1  0
 12 22  1  0
 13 12  2  0
 15 14  1  0
 16 15  2  0
 17 15  1  0
 18 19  1  0
 18 17  1  0
 20 19  1  0
 21 20  1  1
 22 21  1  0
 23 25  1  0
 23 21  1  0
 24 23  2  0
M  END
$$$$
