EGR.pdb
     RDKit          3D

 25 24  0  0  1  0  0  0  0  0999 V2000
   17.3972  -26.5157   -7.2650 N   0  0  0  0  0  0  0  0  0  0  0  0
   18.2915  -25.3492   -7.1316 C   0  0  1  0  0  0  0  0  0  0  0  0
   18.6794  -24.8335   -8.4699 C   0  0  0  0  0  0  0  0  0  0  0  0
   17.4806  -24.5594   -9.3264 C   0  0  0  0  0  0  0  0  0  0  0  0
   17.9177  -24.0442  -10.6463 C   0  0  0  0  0  0  0  0  0  0  0  0
   17.6174  -22.9131  -11.0871 O   0  0  0  0  0  0  0  0  0  0  0  0
   17.5395  -24.3210   -6.3681 C   0  0  0  0  0  0  0  0  0  0  0  0
   17.9648  -23.1863   -6.0625 O   0  0  0  0  0  0  0  0  0  0  0  0
   18.7086  -24.8596  -11.4492 O   0  0  0  0  0  0  0  0  0  0  0  0
   16.1943  -24.5843   -5.9053 N   0  0  0  0  0  0  0  0  0  0  0  0
   15.4428  -23.6060   -5.1678 C   0  0  0  0  0  0  0  0  0  0  0  0
   15.5390  -23.9359   -3.7204 C   0  0  0  0  0  0  0  0  0  0  0  0
   16.2016  -24.9562   -3.3234 O   0  0  0  0  0  0  0  0  0  0  0  0
   12.0617  -18.2499    1.5486 N   0  0  0  0  0  0  0  0  0  0  0  0
   11.8052  -18.6195    0.2048 C   0  0  0  0  0  0  0  0  0  0  0  0
   11.1753  -17.7843   -0.5576 N   0  0  0  0  0  0  0  0  0  0  0  0
   12.2449  -19.8781   -0.2474 N   0  0  0  0  0  0  0  0  0  0  0  0
   12.9725  -20.7878    0.6254 C   0  0  0  0  0  0  0  0  0  0  0  0
   13.3141  -21.9982   -0.1894 C   0  0  0  0  0  0  0  0  0  0  0  0
   14.7613  -22.2119   -0.4621 C   0  0  0  0  0  0  0  0  0  0  0  0
   15.0967  -23.3954   -1.2969 C   0  0  2  0  0  0  0  0  0  0  0  0
   14.9169  -23.1575   -2.7160 N   0  0  0  0  0  0  0  0  0  0  0  0
   14.4464  -24.6469   -0.8661 C   0  0  0  0  0  0  0  0  0  0  0  0
   13.4857  -25.1249   -1.4963 O   0  0  0  0  0  0  0  0  0  0  0  0
   14.9092  -25.2979    0.2558 O   0  0  0  0  0  0  0  0  0  0  0  0
  2  1  1  6
  3  2  1  0
  4  3  1  0
  5  4  1  0
  6  5  2  0
  7 10  1  0
  7  2  1  0
  8  7  2  0
  9  5  1  0
 11 12  1  0
 11 10  1  0
 12 22  1  0
 13 12  2  0
 15 14  1  0
 16 15  2  0
 17 15  1  0
 18 19  1  0
 18 17  1  0
 20 19  1  0
 21 20  1  1
 22 21  1  0
 23 25  1  0
 23 21  1  0
 24 23  2  0
M  END
$$$$
