AVD.pdb
     RDKit          3D

 21 20  0  0  1  0  0  0  0  0999 V2000
   17.5842  -12.1673  -17.1118 C   0  0  0  0  0  0  0  0  0  0  0  0
   18.4110  -10.9318  -17.3896 C   0  0  2  0  0  0  0  0  0  0  0  0
   19.4074  -11.1471  -18.3895 N   0  0  0  0  0  0  0  0  0  0  0  0
   19.0527  -10.4147  -16.1609 C   0  0  0  0  0  0  0  0  0  0  0  0
   18.3772  -10.2195  -15.1230 O   0  0  0  0  0  0  0  0  0  0  0  0
   23.1980  -10.2020  -16.2902 C   0  0  0  0  0  0  0  0  0  0  0  0
   22.4675  -10.1725  -14.9798 C   0  0  1  0  0  0  0  0  0  0  0  0
   23.3288   -9.7041  -13.8330 C   0  0  0  0  0  0  0  0  0  0  0  0
   21.1243   -9.4986  -15.0574 C   0  0  2  0  0  0  0  0  0  0  0  0
   20.4227  -10.1438  -16.1642 N   0  0  0  0  0  0  0  0  0  0  0  0
   21.1687   -8.0499  -15.3215 C   0  0  0  0  0  0  0  0  0  0  0  0
   21.4489   -7.6398  -16.4833 O   0  0  0  0  0  0  0  0  0  0  0  0
   20.9122   -7.0475  -14.3472 N   0  0  0  0  0  0  0  0  0  0  0  0
   20.9764   -5.6179  -14.5859 C   0  0  1  0  0  0  0  0  0  0  0  0
   19.6782   -4.9323  -14.3967 C   0  0  0  0  0  0  0  0  0  0  0  0
   19.8043   -3.4939  -14.7011 C   0  0  0  0  0  0  0  0  0  0  0  0
   19.7479   -2.9940  -15.8629 O   0  0  0  0  0  0  0  0  0  0  0  0
   22.0499   -4.9702  -13.8133 C   0  0  0  0  0  0  0  0  0  0  0  0
   22.4472   -5.5013  -12.7512 O   0  0  0  0  0  0  0  0  0  0  0  0
   20.0043   -2.5481  -13.6777 O   0  0  0  0  0  0  0  0  0  0  0  0
   22.6440   -3.7945  -14.2124 O   0  0  0  0  0  0  0  0  0  0  0  0
  2  1  1  1
  2  3  1  0
  4  2  1  0
  5  4  2  0
  7  6  1  6
  7  9  1  0
  8  7  1  0
  9 11  1  0
  9 10  1  6
 10  4  1  0
 11 13  1  0
 12 11  2  0
 13 14  1  0
 14 15  1  1
 14 18  1  0
 16 20  1  0
 16 15  1  0
 17 16  2  0
 18 19  2  0
 18 21  1  0
M  END
$$$$
