AVD.pdb
     RDKit          3D

 21 20  0  0  1  0  0  0  0  0999 V2000
   18.4044   -8.4711  -19.2992 C   0  0  0  0  0  0  0  0  0  0  0  0
   18.8623   -9.7096  -18.5617 C   0  0  2  0  0  0  0  0  0  0  0  0
   17.9732  -10.8139  -18.7313 N   0  0  0  0  0  0  0  0  0  0  0  0
   19.0504   -9.4486  -17.1176 C   0  0  0  0  0  0  0  0  0  0  0  0
   18.0683   -9.4395  -16.3384 O   0  0  0  0  0  0  0  0  0  0  0  0
   21.8723  -10.9319  -15.6638 C   0  0  0  0  0  0  0  0  0  0  0  0
   21.5897   -9.8062  -14.7127 C   0  0  1  0  0  0  0  0  0  0  0  0
   22.8403   -9.2032  -14.1221 C   0  0  0  0  0  0  0  0  0  0  0  0
   20.6137   -8.7961  -15.2524 C   0  0  2  0  0  0  0  0  0  0  0  0
   20.3354   -9.2109  -16.6250 N   0  0  0  0  0  0  0  0  0  0  0  0
   21.1062   -7.4079  -15.2811 C   0  0  0  0  0  0  0  0  0  0  0  0
   22.0927   -7.1150  -16.0142 O   0  0  0  0  0  0  0  0  0  0  0  0
   20.5434   -6.3403  -14.5305 N   0  0  0  0  0  0  0  0  0  0  0  0
   21.0508   -4.9813  -14.5058 C   0  0  1  0  0  0  0  0  0  0  0  0
   20.0157   -3.9740  -14.1816 C   0  0  0  0  0  0  0  0  0  0  0  0
   19.0209   -3.8873  -15.2681 C   0  0  0  0  0  0  0  0  0  0  0  0
   19.2469   -4.1795  -16.4790 O   0  0  0  0  0  0  0  0  0  0  0  0
   22.2336   -4.8423  -13.6393 C   0  0  0  0  0  0  0  0  0  0  0  0
   22.3325   -5.5588  -12.6172 O   0  0  0  0  0  0  0  0  0  0  0  0
   17.7045   -3.4561  -15.0171 O   0  0  0  0  0  0  0  0  0  0  0  0
   23.2475   -3.9508  -13.9073 O   0  0  0  0  0  0  0  0  0  0  0  0
  2  1  1  6
  2  3  1  0
  4  2  1  0
  5  4  2  0
  7  6  1  6
  7  9  1  0
  8  7  1  0
  9 11  1  0
  9 10  1  6
 10  4  1  0
 11 13  1  0
 12 11  2  0
 13 14  1  0
 14 15  1  1
 14 18  1  0
 16 20  1  0
 16 15  1  0
 17 16  2  0
 18 19  2  0
 18 21  1  0
M  END
$$$$
