AVD.pdb
     RDKit          3D

 21 20  0  0  1  0  0  0  0  0999 V2000
   16.9220  -11.8787  -13.1477 C   0  0  0  0  0  0  0  0  0  0  0  0
   15.8566  -11.2963  -12.2460 C   0  0  2  0  0  0  0  0  0  0  0  0
   14.5565  -11.8210  -12.5166 N   0  0  0  0  0  0  0  0  0  0  0  0
   15.8167   -9.8196  -12.3289 C   0  0  0  0  0  0  0  0  0  0  0  0
   15.3280   -9.2507  -13.3336 O   0  0  0  0  0  0  0  0  0  0  0  0
   14.2620   -7.5165   -9.8196 C   0  0  0  0  0  0  0  0  0  0  0  0
   15.7282   -7.2153   -9.9255 C   0  0  1  0  0  0  0  0  0  0  0  0
   16.5177   -7.6931   -8.7319 C   0  0  0  0  0  0  0  0  0  0  0  0
   16.3246   -7.5987  -11.2528 C   0  0  2  0  0  0  0  0  0  0  0  0
   16.3295   -9.0592  -11.2758 N   0  0  0  0  0  0  0  0  0  0  0  0
   17.7034   -7.1294  -11.4748 C   0  0  0  0  0  0  0  0  0  0  0  0
   18.5912   -7.3831  -10.6124 O   0  0  0  0  0  0  0  0  0  0  0  0
   18.1280   -6.3949  -12.6150 N   0  0  0  0  0  0  0  0  0  0  0  0
   19.4813   -5.9263  -12.8475 C   0  0  1  0  0  0  0  0  0  0  0  0
   20.2672   -6.8168  -13.7309 C   0  0  0  0  0  0  0  0  0  0  0  0
   21.6551   -6.3304  -13.8523 C   0  0  0  0  0  0  0  0  0  0  0  0
   22.2313   -5.5752  -13.0154 O   0  0  0  0  0  0  0  0  0  0  0  0
   19.5164   -4.5300  -13.3144 C   0  0  0  0  0  0  0  0  0  0  0  0
   20.6127   -3.9270  -13.3630 O   0  0  0  0  0  0  0  0  0  0  0  0
   22.4588   -6.6890  -14.9510 O   0  0  0  0  0  0  0  0  0  0  0  0
   18.3848   -3.8512  -13.7060 O   0  0  0  0  0  0  0  0  0  0  0  0
  2  1  1  6
  2  3  1  0
  4  2  1  0
  5  4  2  0
  7  6  1  1
  7  9  1  0
  8  7  1  0
  9 11  1  0
  9 10  1  1
 10  4  1  0
 11 13  1  0
 12 11  2  0
 13 14  1  0
 14 15  1  6
 14 18  1  0
 16 20  1  0
 16 15  1  0
 17 16  2  0
 18 19  2  0
 18 21  1  0
M  END
$$$$
