AVD.pdb
     RDKit          3D

 21 20  0  0  1  0  0  0  0  0999 V2000
   18.5992  -12.0752  -18.9610 C   0  0  0  0  0  0  0  0  0  0  0  0
   19.6518  -12.6135  -18.0177 C   0  0  2  0  0  0  0  0  0  0  0  0
   19.3834  -13.9510  -17.5957 N   0  0  0  0  0  0  0  0  0  0  0  0
   19.8161  -11.7477  -16.8293 C   0  0  0  0  0  0  0  0  0  0  0  0
   18.9484  -11.7361  -15.9245 O   0  0  0  0  0  0  0  0  0  0  0  0
   22.6956  -11.7100  -14.4737 C   0  0  0  0  0  0  0  0  0  0  0  0
   22.5854  -10.3589  -15.1172 C   0  0  1  0  0  0  0  0  0  0  0  0
   23.6695  -10.0980  -16.1337 C   0  0  0  0  0  0  0  0  0  0  0  0
   21.1972  -10.0361  -15.5998 C   0  0  2  0  0  0  0  0  0  0  0  0
   20.9495  -10.9392  -16.7210 N   0  0  0  0  0  0  0  0  0  0  0  0
   21.0075   -8.6532  -16.0710 C   0  0  0  0  0  0  0  0  0  0  0  0
   21.6019   -8.2676  -17.1172 O   0  0  0  0  0  0  0  0  0  0  0  0
   20.1843   -7.6907  -15.4261 N   0  0  0  0  0  0  0  0  0  0  0  0
   20.0027   -6.3205  -15.8671 C   0  0  1  0  0  0  0  0  0  0  0  0
   18.5889   -5.8822  -15.8542 C   0  0  0  0  0  0  0  0  0  0  0  0
   18.4728   -4.4970  -16.3497 C   0  0  0  0  0  0  0  0  0  0  0  0
   18.8485   -4.1054  -17.4935 O   0  0  0  0  0  0  0  0  0  0  0  0
   20.8694   -5.3794  -15.1376 C   0  0  0  0  0  0  0  0  0  0  0  0
   21.3409   -5.7148  -14.0272 O   0  0  0  0  0  0  0  0  0  0  0  0
   17.9153   -3.4819  -15.5494 O   0  0  0  0  0  0  0  0  0  0  0  0
   21.1893   -4.1340  -15.6289 O   0  0  0  0  0  0  0  0  0  0  0  0
  2  1  1  6
  2  3  1  0
  4  2  1  0
  5  4  2  0
  7  6  1  6
  7  9  1  0
  8  7  1  0
  9 11  1  0
  9 10  1  6
 10  4  1  0
 11 13  1  0
 12 11  2  0
 13 14  1  0
 14 15  1  1
 14 18  1  0
 16 20  1  0
 16 15  1  0
 17 16  2  0
 18 19  2  0
 18 21  1  0
M  END
$$$$
