AVD.pdb
     RDKit          3D

 21 20  0  0  1  0  0  0  0  0999 V2000
   27.5622  -19.3516  -15.9027 C   0  0  0  0  0  0  0  0  0  0  0  0
   27.9600  -20.4872  -14.9865 C   0  0  2  0  0  0  0  0  0  0  0  0
   28.7117  -21.4999  -15.6560 N   0  0  0  0  0  0  0  0  0  0  0  0
   26.7833  -21.1011  -14.3328 C   0  0  0  0  0  0  0  0  0  0  0  0
   26.1509  -22.0252  -14.8967 O   0  0  0  0  0  0  0  0  0  0  0  0
   26.3185  -19.5908  -10.7152 C   0  0  0  0  0  0  0  0  0  0  0  0
   25.5563  -20.8736  -10.8739 C   0  0  1  0  0  0  0  0  0  0  0  0
   24.3446  -20.9561   -9.9787 C   0  0  0  0  0  0  0  0  0  0  0  0
   25.2885  -21.2381  -12.3091 C   0  0  2  0  0  0  0  0  0  0  0  0
   26.3788  -20.6425  -13.0773 N   0  0  0  0  0  0  0  0  0  0  0  0
   24.0142  -20.7361  -12.8518 C   0  0  0  0  0  0  0  0  0  0  0  0
   23.9189  -19.5220  -13.1883 O   0  0  0  0  0  0  0  0  0  0  0  0
   22.8503  -21.5310  -13.0346 N   0  0  0  0  0  0  0  0  0  0  0  0
   21.6038  -21.0628  -13.6109 C   0  0  1  0  0  0  0  0  0  0  0  0
   21.0299  -21.9965  -14.6058 C   0  0  0  0  0  0  0  0  0  0  0  0
   19.8056  -21.4278  -15.2020 C   0  0  0  0  0  0  0  0  0  0  0  0
   19.7857  -20.5009  -16.0642 O   0  0  0  0  0  0  0  0  0  0  0  0
   20.6173  -20.6921  -12.5822 C   0  0  0  0  0  0  0  0  0  0  0  0
   20.6116  -21.3035  -11.4894 O   0  0  0  0  0  0  0  0  0  0  0  0
   18.5307  -21.8981  -14.8346 O   0  0  0  0  0  0  0  0  0  0  0  0
   19.6918  -19.6907  -12.7701 O   0  0  0  0  0  0  0  0  0  0  0  0
  2  1  1  6
  2  3  1  0
  4  2  1  0
  5  4  2  0
  7  6  1  6
  7  9  1  0
  8  7  1  0
  9 11  1  0
  9 10  1  6
 10  4  1  0
 11 13  1  0
 12 11  2  0
 13 14  1  0
 14 15  1  1
 14 18  1  0
 16 20  1  0
 16 15  1  0
 17 16  2  0
 18 19  2  0
 18 21  1  0
M  END
$$$$
