AVD.pdb
     RDKit          3D

 21 20  0  0  1  0  0  0  0  0999 V2000
   17.2047   -9.8523  -17.8042 C   0  0  0  0  0  0  0  0  0  0  0  0
   17.9092  -10.9115  -16.9863 C   0  0  2  0  0  0  0  0  0  0  0  0
   17.0163  -11.9055  -16.4829 N   0  0  0  0  0  0  0  0  0  0  0  0
   18.6689  -10.3203  -15.8628 C   0  0  0  0  0  0  0  0  0  0  0  0
   18.1115  -10.1027  -14.7612 O   0  0  0  0  0  0  0  0  0  0  0  0
   22.6865  -10.5190  -16.3420 C   0  0  0  0  0  0  0  0  0  0  0  0
   22.1097  -10.2897  -14.9759 C   0  0  1  0  0  0  0  0  0  0  0  0
   23.1413   -9.8568  -13.9636 C   0  0  0  0  0  0  0  0  0  0  0  0
   20.8633   -9.4467  -14.9851 C   0  0  2  0  0  0  0  0  0  0  0  0
   20.0179  -10.0042  -16.0378 N   0  0  0  0  0  0  0  0  0  0  0  0
   21.0795   -8.0185  -15.2753 C   0  0  0  0  0  0  0  0  0  0  0  0
   21.4336   -7.6684  -16.4364 O   0  0  0  0  0  0  0  0  0  0  0  0
   20.9150   -6.9725  -14.3273 N   0  0  0  0  0  0  0  0  0  0  0  0
   21.1621   -5.5666  -14.5869 C   0  0  1  0  0  0  0  0  0  0  0  0
   19.9248   -4.7579  -14.6655 C   0  0  0  0  0  0  0  0  0  0  0  0
   20.2480   -3.3441  -14.9387 C   0  0  0  0  0  0  0  0  0  0  0  0
   20.9849   -2.9420  -15.8865 O   0  0  0  0  0  0  0  0  0  0  0  0
   22.1310   -4.9859  -13.6419 C   0  0  0  0  0  0  0  0  0  0  0  0
   22.3082   -5.5350  -12.5306 O   0  0  0  0  0  0  0  0  0  0  0  0
   19.7377   -2.3112  -14.1298 O   0  0  0  0  0  0  0  0  0  0  0  0
   22.8599   -3.8545  -13.9302 O   0  0  0  0  0  0  0  0  0  0  0  0
  2  1  1  1
  2  3  1  0
  4  2  1  0
  5  4  2  0
  7  6  1  6
  7  9  1  0
  8  7  1  0
  9 11  1  0
  9 10  1  6
 10  4  1  0
 11 13  1  0
 12 11  2  0
 13 14  1  0
 14 15  1  1
 14 18  1  0
 16 20  1  0
 16 15  1  0
 17 16  2  0
 18 19  2  0
 18 21  1  0
M  END
$$$$
