AVD.pdb
     RDKit          3D

 21 20  0  0  1  0  0  0  0  0999 V2000
   18.7631  -12.8853  -18.7461 C   0  0  0  0  0  0  0  0  0  0  0  0
   19.4935  -13.6173  -17.6424 C   0  0  2  0  0  0  0  0  0  0  0  0
   18.8253  -14.8117  -17.2353 N   0  0  0  0  0  0  0  0  0  0  0  0
   19.7127  -12.7514  -16.4630 C   0  0  0  0  0  0  0  0  0  0  0  0
   18.7722  -12.5007  -15.6729 O   0  0  0  0  0  0  0  0  0  0  0  0
   22.9790  -13.1241  -14.7493 C   0  0  0  0  0  0  0  0  0  0  0  0
   22.6860  -11.6534  -14.6965 C   0  0  1  0  0  0  0  0  0  0  0  0
   23.7614  -10.8128  -15.3395 C   0  0  0  0  0  0  0  0  0  0  0  0
   21.2883  -11.3046  -15.1315 C   0  0  2  0  0  0  0  0  0  0  0  0
   20.9804  -12.2121  -16.2339 N   0  0  0  0  0  0  0  0  0  0  0  0
   21.1114   -9.9222  -15.6091 C   0  0  0  0  0  0  0  0  0  0  0  0
   21.7029   -9.5493  -16.6614 O   0  0  0  0  0  0  0  0  0  0  0  0
   20.3040   -8.9466  -14.9638 N   0  0  0  0  0  0  0  0  0  0  0  0
   20.0897   -7.5939  -15.4424 C   0  0  1  0  0  0  0  0  0  0  0  0
   18.7714   -7.0385  -15.0618 C   0  0  0  0  0  0  0  0  0  0  0  0
   18.5864   -5.6976  -15.6495 C   0  0  0  0  0  0  0  0  0  0  0  0
   19.4367   -4.7612  -15.5939 O   0  0  0  0  0  0  0  0  0  0  0  0
   21.1889   -6.6881  -15.0679 C   0  0  0  0  0  0  0  0  0  0  0  0
   21.3049   -5.5887  -15.6559 O   0  0  0  0  0  0  0  0  0  0  0  0
   17.4048   -5.3605  -16.3364 O   0  0  0  0  0  0  0  0  0  0  0  0
   22.1037   -6.9993  -14.0876 O   0  0  0  0  0  0  0  0  0  0  0  0
  2  1  1  6
  2  3  1  0
  4  2  1  0
  5  4  2  0
  7  6  1  6
  7  9  1  0
  8  7  1  0
  9 11  1  0
  9 10  1  6
 10  4  1  0
 11 13  1  0
 12 11  2  0
 13 14  1  0
 14 15  1  1
 14 18  1  0
 16 20  1  0
 16 15  1  0
 17 16  2  0
 18 19  2  0
 18 21  1  0
M  END
$$$$
