NCT.pdb
     RDKit          3D

 22 21  0  0  1  0  0  0  0  0999 V2000
    8.4978  -18.4577   14.9438 N   0  0  0  0  0  0  0  0  0  0  0  0
    8.3071  -17.0605   15.0952 C   0  0  0  0  0  0  0  0  0  0  0  0
    8.0425  -16.4079   14.0377 O   0  0  0  0  0  0  0  0  0  0  0  0
    8.4058  -16.3885   16.4070 C   0  0  0  0  0  0  0  0  0  0  0  0
    8.7670  -17.3043   17.5475 C   0  0  2  0  0  0  0  0  0  0  0  0
    7.5078  -18.0198   17.8635 N   0  0  0  0  0  0  0  0  0  0  0  0
    9.1210  -16.4493   18.7314 C   0  0  0  0  0  0  0  0  0  0  0  0
   10.1246  -15.7080   18.7914 O   0  0  0  0  0  0  0  0  0  0  0  0
    8.2957  -16.4372   19.9001 N   0  0  0  0  0  0  0  0  0  0  0  0
    8.6799  -15.6866   21.0973 C   0  0  1  0  0  0  0  0  0  0  0  0
    7.3667  -15.3154   21.7601 C   0  0  0  0  0  0  0  0  0  0  0  0
    7.5047  -14.8468   23.4741 S   0  0  0  0  0  0  0  0  0  0  0  0
    9.5342  -16.5135   21.9790 C   0  0  0  0  0  0  0  0  0  0  0  0
    9.2678  -17.7479   22.0474 O   0  0  0  0  0  0  0  0  0  0  0  0
   13.7667  -17.5414   24.1979 C   0  0  0  0  0  0  0  0  0  0  0  0
   12.9239  -16.5991   23.3704 C   0  0  1  0  0  0  0  0  0  0  0  0
   13.3070  -16.6778   22.0302 O   0  0  0  0  0  0  0  0  0  0  0  0
   11.4723  -16.8727   23.5524 C   0  0  2  0  0  0  0  0  0  0  0  0
   10.6236  -16.0350   22.7485 N   0  0  0  0  0  0  0  0  0  0  0  0
   11.0628  -16.8671   24.9846 C   0  0  0  0  0  0  0  0  0  0  0  0
   11.1024  -17.9998   25.7557 O   0  0  0  0  0  0  0  0  0  0  0  0
   10.6716  -15.7739   25.4781 O   0  0  0  0  0  0  0  0  0  0  0  0
  2  1  1  0
  3  2  2  0
  4  2  1  0
  5  4  1  0
  5  6  1  1
  7  5  1  0
  7  9  1  0
  8  7  2  0
 10 11  1  1
 10  9  1  0
 10 13  1  0
 12 11  1  0
 13 19  1  0
 14 13  2  0
 16 15  1  1
 16 17  1  0
 18 16  1  0
 18 19  1  6
 20 18  1  0
 20 21  1  0
 22 20  2  0
M  END
$$$$
