NCT.pdb
     RDKit          3D

 22 21  0  0  1  0  0  0  0  0999 V2000
    8.7868  -12.4344   18.1320 N   0  0  0  0  0  0  0  0  0  0  0  0
    8.0601  -13.6450   17.9977 C   0  0  0  0  0  0  0  0  0  0  0  0
    7.9918  -14.1368   16.8282 O   0  0  0  0  0  0  0  0  0  0  0  0
    7.4149  -14.3094   19.1484 C   0  0  0  0  0  0  0  0  0  0  0  0
    8.2257  -15.4248   19.7553 C   0  0  2  0  0  0  0  0  0  0  0  0
    8.0239  -16.5728   18.8395 N   0  0  0  0  0  0  0  0  0  0  0  0
    7.6079  -15.7769   21.0791 C   0  0  0  0  0  0  0  0  0  0  0  0
    6.6887  -16.6092   21.2295 O   0  0  0  0  0  0  0  0  0  0  0  0
    8.0562  -15.1537   22.2865 N   0  0  0  0  0  0  0  0  0  0  0  0
    7.7531  -15.7276   23.5990 C   0  0  1  0  0  0  0  0  0  0  0  0
    8.5179  -17.0373   23.6354 C   0  0  0  0  0  0  0  0  0  0  0  0
    8.6219  -17.7937   25.2458 S   0  0  0  0  0  0  0  0  0  0  0  0
    8.1733  -14.8075   24.6797 C   0  0  0  0  0  0  0  0  0  0  0  0
    9.3533  -14.3557   24.6261 O   0  0  0  0  0  0  0  0  0  0  0  0
    6.3956  -11.5469   25.6893 C   0  0  0  0  0  0  0  0  0  0  0  0
    6.6635  -12.3582   26.9354 C   0  0  1  0  0  0  0  0  0  0  0  0
    5.4774  -12.9458   27.3794 O   0  0  0  0  0  0  0  0  0  0  0  0
    7.7325  -13.3672   26.7027 C   0  0  2  0  0  0  0  0  0  0  0  0
    7.3619  -14.3925   25.7648 N   0  0  0  0  0  0  0  0  0  0  0  0
    8.2661  -13.9401   27.9699 C   0  0  0  0  0  0  0  0  0  0  0  0
    8.8505  -13.1570   28.9315 O   0  0  0  0  0  0  0  0  0  0  0  0
    8.1646  -15.1863   28.1383 O   0  0  0  0  0  0  0  0  0  0  0  0
  2  1  1  0
  3  2  2  0
  4  2  1  0
  5  4  1  0
  5  6  1  6
  7  5  1  0
  7  9  1  0
  8  7  2  0
 10 11  1  1
 10  9  1  0
 10 13  1  0
 12 11  1  0
 13 19  1  0
 14 13  2  0
 16 15  1  6
 16 17  1  0
 18 16  1  0
 18 19  1  6
 20 18  1  0
 20 21  1  0
 22 20  2  0
M  END
$$$$
