NCT.pdb
     RDKit          3D

 22 21  0  0  1  0  0  0  0  0999 V2000
    6.7017  -17.7155   18.8520 N   0  0  0  0  0  0  0  0  0  0  0  0
    6.1921  -16.9685   19.9446 C   0  0  0  0  0  0  0  0  0  0  0  0
    4.9530  -16.6897   19.9102 O   0  0  0  0  0  0  0  0  0  0  0  0
    7.0454  -16.5340   21.0693 C   0  0  0  0  0  0  0  0  0  0  0  0
    7.2803  -15.0471   21.1314 C   0  0  2  0  0  0  0  0  0  0  0  0
    8.0905  -14.7475   19.9267 N   0  0  0  0  0  0  0  0  0  0  0  0
    8.1281  -14.7639   22.3393 C   0  0  0  0  0  0  0  0  0  0  0  0
    9.3772  -14.7790   22.3438 O   0  0  0  0  0  0  0  0  0  0  0  0
    7.5276  -14.4494   23.5993 N   0  0  0  0  0  0  0  0  0  0  0  0
    8.3305  -14.3288   24.8179 C   0  0  1  0  0  0  0  0  0  0  0  0
    7.5683  -13.3478   25.6887 C   0  0  0  0  0  0  0  0  0  0  0  0
    5.8515  -13.7545   25.9406 S   0  0  0  0  0  0  0  0  0  0  0  0
    8.4872  -15.6478   25.4713 C   0  0  0  0  0  0  0  0  0  0  0  0
    7.5202  -16.4572   25.3758 O   0  0  0  0  0  0  0  0  0  0  0  0
   10.8298  -19.6491   26.3691 C   0  0  0  0  0  0  0  0  0  0  0  0
   10.5801  -18.2903   25.7575 C   0  0  1  0  0  0  0  0  0  0  0  0
    9.9338  -18.4380   24.5289 O   0  0  0  0  0  0  0  0  0  0  0  0
    9.8176  -17.4124   26.6866 C   0  0  2  0  0  0  0  0  0  0  0  0
    9.6303  -16.0753   26.1914 N   0  0  0  0  0  0  0  0  0  0  0  0
   10.3733  -17.4202   28.0686 C   0  0  0  0  0  0  0  0  0  0  0  0
   10.3512  -18.5438   28.8538 O   0  0  0  0  0  0  0  0  0  0  0  0
   10.8733  -16.3475   28.5055 O   0  0  0  0  0  0  0  0  0  0  0  0
  2  1  1  0
  3  2  2  0
  4  2  1  0
  5  4  1  0
  5  6  1  6
  7  5  1  0
  7  9  1  0
  8  7  2  0
 10 11  1  1
 10  9  1  0
 10 13  1  0
 12 11  1  0
 13 19  1  0
 14 13  2  0
 16 15  1  1
 16 17  1  0
 18 16  1  0
 18 19  1  6
 20 18  1  0
 20 21  1  0
 22 20  2  0
M  END
$$$$
