NCT.pdb
     RDKit          3D

 22 21  0  0  1  0  0  0  0  0999 V2000
    7.0976  -13.0840   17.2426 N   0  0  0  0  0  0  0  0  0  0  0  0
    8.0476  -14.0557   17.6484 C   0  0  0  0  0  0  0  0  0  0  0  0
    8.2965  -14.9846   16.8182 O   0  0  0  0  0  0  0  0  0  0  0  0
    8.7204  -14.0004   18.9623 C   0  0  0  0  0  0  0  0  0  0  0  0
    8.6775  -15.2924   19.7361 C   0  0  2  0  0  0  0  0  0  0  0  0
    7.2360  -15.5260   19.9910 N   0  0  0  0  0  0  0  0  0  0  0  0
    9.3481  -15.0594   21.0605 C   0  0  0  0  0  0  0  0  0  0  0  0
   10.5598  -14.7894   21.2000 O   0  0  0  0  0  0  0  0  0  0  0  0
    8.6065  -15.1372   22.2817 N   0  0  0  0  0  0  0  0  0  0  0  0
    9.2740  -15.0847   23.5839 C   0  0  1  0  0  0  0  0  0  0  0  0
    8.3689  -14.2281   24.4491 C   0  0  0  0  0  0  0  0  0  0  0  0
    6.7290  -14.8840   24.6876 S   0  0  0  0  0  0  0  0  0  0  0  0
    9.4459  -16.4470   24.1367 C   0  0  0  0  0  0  0  0  0  0  0  0
    8.5299  -17.2858   23.8986 O   0  0  0  0  0  0  0  0  0  0  0  0
   10.9089  -19.3028   23.2400 C   0  0  0  0  0  0  0  0  0  0  0  0
   11.5116  -19.1190   24.6132 C   0  0  1  0  0  0  0  0  0  0  0  0
   12.8259  -18.6633   24.4939 O   0  0  0  0  0  0  0  0  0  0  0  0
   10.6805  -18.2111   25.4499 C   0  0  2  0  0  0  0  0  0  0  0  0
   10.5513  -16.8856   24.9071 N   0  0  0  0  0  0  0  0  0  0  0  0
   11.1134  -18.1881   26.8750 C   0  0  0  0  0  0  0  0  0  0  0  0
   11.0405  -19.2996   27.6741 O   0  0  0  0  0  0  0  0  0  0  0  0
   11.5565  -17.1004   27.3356 O   0  0  0  0  0  0  0  0  0  0  0  0
  2  1  1  0
  3  2  2  0
  4  2  1  0
  5  4  1  0
  5  6  1  1
  7  5  1  0
  7  9  1  0
  8  7  2  0
 10 11  1  1
 10  9  1  0
 10 13  1  0
 12 11  1  0
 13 19  1  0
 14 13  2  0
 16 15  1  6
 16 17  1  0
 18 16  1  0
 18 19  1  6
 20 18  1  0
 20 21  1  0
 22 20  2  0
M  END
$$$$
