NCT.pdb
     RDKit          3D

 22 21  0  0  1  0  0  0  0  0999 V2000
   15.2298  -15.1641   15.9708 N   0  0  0  0  0  0  0  0  0  0  0  0
   15.4131  -14.1273   16.9211 C   0  0  0  0  0  0  0  0  0  0  0  0
   16.1880  -13.1794   16.5815 O   0  0  0  0  0  0  0  0  0  0  0  0
   14.7429  -14.1364   18.2374 C   0  0  0  0  0  0  0  0  0  0  0  0
   13.9573  -15.3894   18.5250 C   0  0  2  0  0  0  0  0  0  0  0  0
   12.7576  -15.2832   17.6607 N   0  0  0  0  0  0  0  0  0  0  0  0
   13.5017  -15.3301   19.9556 C   0  0  0  0  0  0  0  0  0  0  0  0
   14.2633  -15.1688   20.9325 O   0  0  0  0  0  0  0  0  0  0  0  0
   12.1166  -15.4603   20.2901 N   0  0  0  0  0  0  0  0  0  0  0  0
   11.6649  -15.4581   21.6830 C   0  0  1  0  0  0  0  0  0  0  0  0
   10.2482  -14.9178   21.6301 C   0  0  0  0  0  0  0  0  0  0  0  0
    9.3344  -15.0759   23.1521 S   0  0  0  0  0  0  0  0  0  0  0  0
   11.7188  -16.8241   22.2504 C   0  0  0  0  0  0  0  0  0  0  0  0
   11.0535  -17.7215   21.6576 O   0  0  0  0  0  0  0  0  0  0  0  0
   14.0218  -19.4910   22.3963 C   0  0  0  0  0  0  0  0  0  0  0  0
   13.6665  -19.2857   23.8504 C   0  0  1  0  0  0  0  0  0  0  0  0
   14.7306  -18.6714   24.5133 O   0  0  0  0  0  0  0  0  0  0  0  0
   12.4013  -18.5149   23.9929 C   0  0  2  0  0  0  0  0  0  0  0  0
   12.4548  -17.2060   23.3995 N   0  0  0  0  0  0  0  0  0  0  0  0
   11.9139  -18.4677   25.3997 C   0  0  0  0  0  0  0  0  0  0  0  0
   11.5354  -19.5988   26.0755 O   0  0  0  0  0  0  0  0  0  0  0  0
   11.8574  -17.3402   25.9630 O   0  0  0  0  0  0  0  0  0  0  0  0
  2  1  1  0
  3  2  2  0
  4  2  1  0
  5  4  1  0
  5  6  1  6
  7  5  1  0
  7  9  1  0
  8  7  2  0
 10 11  1  6
 10  9  1  0
 10 13  1  0
 12 11  1  0
 13 19  1  0
 14 13  2  0
 16 15  1  6
 16 17  1  0
 18 16  1  0
 18 19  1  1
 20 18  1  0
 20 21  1  0
 22 20  2  0
M  END
$$$$
