NCT.pdb
     RDKit          3D

 22 21  0  0  1  0  0  0  0  0999 V2000
    7.8873  -16.7830   14.0975 N   0  0  0  0  0  0  0  0  0  0  0  0
    8.7480  -17.4195   15.0278 C   0  0  0  0  0  0  0  0  0  0  0  0
    9.1535  -18.5832   14.7186 O   0  0  0  0  0  0  0  0  0  0  0  0
    9.1602  -16.7737   16.2908 C   0  0  0  0  0  0  0  0  0  0  0  0
    8.8469  -17.5744   17.5280 C   0  0  2  0  0  0  0  0  0  0  0  0
    7.3669  -17.6530   17.5557 N   0  0  0  0  0  0  0  0  0  0  0  0
    9.2885  -16.7733   18.7201 C   0  0  0  0  0  0  0  0  0  0  0  0
   10.4770  -16.4865   18.9765 O   0  0  0  0  0  0  0  0  0  0  0  0
    8.3346  -16.2757   19.6634 N   0  0  0  0  0  0  0  0  0  0  0  0
    8.7579  -15.6159   20.9002 C   0  0  1  0  0  0  0  0  0  0  0  0
    7.5370  -14.8449   21.3655 C   0  0  0  0  0  0  0  0  0  0  0  0
    7.5793  -14.3464   23.0761 S   0  0  0  0  0  0  0  0  0  0  0  0
    9.1992  -16.6151   21.8991 C   0  0  0  0  0  0  0  0  0  0  0  0
    8.3718  -17.5172   22.2168 O   0  0  0  0  0  0  0  0  0  0  0  0
   11.2405  -19.3822   21.7956 C   0  0  0  0  0  0  0  0  0  0  0  0
   11.8269  -18.6325   22.9690 C   0  0  1  0  0  0  0  0  0  0  0  0
   13.0430  -18.0552   22.5992 O   0  0  0  0  0  0  0  0  0  0  0  0
   10.8688  -17.6237   23.4979 C   0  0  2  0  0  0  0  0  0  0  0  0
   10.4704  -16.6427   22.5246 N   0  0  0  0  0  0  0  0  0  0  0  0
   11.3404  -16.9925   24.7620 C   0  0  0  0  0  0  0  0  0  0  0  0
   11.5902  -15.6476   24.8529 O   0  0  0  0  0  0  0  0  0  0  0  0
   11.5069  -17.7405   25.7642 O   0  0  0  0  0  0  0  0  0  0  0  0
  2  1  1  0
  3  2  2  0
  4  2  1  0
  5  4  1  0
  5  6  1  1
  7  5  1  0
  7  9  1  0
  8  7  2  0
 10 11  1  1
 10  9  1  0
 10 13  1  0
 12 11  1  0
 13 19  1  0
 14 13  2  0
 16 15  1  6
 16 17  1  0
 18 16  1  0
 18 19  1  6
 20 18  1  0
 20 21  1  0
 22 20  2  0
M  END
$$$$
