NCT.pdb
     RDKit          3D

 22 21  0  0  1  0  0  0  0  0999 V2000
    8.9686  -17.4401   19.0350 N   0  0  0  0  0  0  0  0  0  0  0  0
    9.8636  -16.3575   19.2309 C   0  0  0  0  0  0  0  0  0  0  0  0
   10.6199  -16.0648   18.2528 O   0  0  0  0  0  0  0  0  0  0  0  0
    9.9213  -15.6012   20.4985 C   0  0  0  0  0  0  0  0  0  0  0  0
    9.0882  -16.1869   21.6088 C   0  0  2  0  0  0  0  0  0  0  0  0
    7.6875  -15.9177   21.2050 N   0  0  0  0  0  0  0  0  0  0  0  0
    9.3669  -15.4008   22.8587 C   0  0  0  0  0  0  0  0  0  0  0  0
   10.5003  -15.2575   23.3639 O   0  0  0  0  0  0  0  0  0  0  0  0
    8.3081  -14.7481   23.5659 N   0  0  0  0  0  0  0  0  0  0  0  0
    8.5386  -14.1063   24.8617 C   0  0  1  0  0  0  0  0  0  0  0  0
    7.3405  -13.1977   25.0627 C   0  0  0  0  0  0  0  0  0  0  0  0
    7.1635  -12.5545   26.7154 S   0  0  0  0  0  0  0  0  0  0  0  0
    8.6533  -15.1214   25.9329 C   0  0  0  0  0  0  0  0  0  0  0  0
    7.6605  -15.8835   26.1139 O   0  0  0  0  0  0  0  0  0  0  0  0
   10.1757  -18.0967   26.0100 C   0  0  0  0  0  0  0  0  0  0  0  0
   10.7194  -17.5092   27.2914 C   0  0  1  0  0  0  0  0  0  0  0  0
   12.0601  -17.1606   27.1184 O   0  0  0  0  0  0  0  0  0  0  0  0
    9.8975  -16.3551   27.7470 C   0  0  2  0  0  0  0  0  0  0  0  0
    9.7829  -15.3080   26.7678 N   0  0  0  0  0  0  0  0  0  0  0  0
   10.3296  -15.8311   29.0727 C   0  0  0  0  0  0  0  0  0  0  0  0
   10.3643  -16.6238   30.1906 O   0  0  0  0  0  0  0  0  0  0  0  0
   10.6686  -14.6178   29.1413 O   0  0  0  0  0  0  0  0  0  0  0  0
  2  1  1  0
  3  2  2  0
  4  2  1  0
  5  4  1  0
  5  6  1  6
  7  5  1  0
  7  9  1  0
  8  7  2  0
 10 11  1  1
 10  9  1  0
 10 13  1  0
 12 11  1  0
 13 19  1  0
 14 13  2  0
 16 15  1  6
 16 17  1  0
 18 16  1  0
 18 19  1  6
 20 18  1  0
 20 21  1  0
 22 20  2  0
M  END
$$$$
