NCT.pdb
     RDKit          3D

 22 21  0  0  1  0  0  0  0  0999 V2000
    7.4017  -12.9521   16.1052 N   0  0  0  0  0  0  0  0  0  0  0  0
    8.2087  -13.9609   16.6905 C   0  0  0  0  0  0  0  0  0  0  0  0
    8.5045  -14.9495   15.9494 O   0  0  0  0  0  0  0  0  0  0  0  0
    8.6879  -13.8771   18.0853 C   0  0  0  0  0  0  0  0  0  0  0  0
    8.6362  -15.1810   18.8383 C   0  0  2  0  0  0  0  0  0  0  0  0
    7.1976  -15.5373   18.8677 N   0  0  0  0  0  0  0  0  0  0  0  0
    9.0744  -14.9156   20.2510 C   0  0  0  0  0  0  0  0  0  0  0  0
   10.2616  -14.7486   20.6019 O   0  0  0  0  0  0  0  0  0  0  0  0
    8.1184  -14.8364   21.3126 N   0  0  0  0  0  0  0  0  0  0  0  0
    8.5382  -14.6827   22.7070 C   0  0  1  0  0  0  0  0  0  0  0  0
    7.3517  -14.0401   23.4004 C   0  0  0  0  0  0  0  0  0  0  0  0
    7.3525  -14.1975   25.1757 S   0  0  0  0  0  0  0  0  0  0  0  0
    8.8821  -15.9967   23.2955 C   0  0  0  0  0  0  0  0  0  0  0  0
    7.9863  -16.8892   23.2767 O   0  0  0  0  0  0  0  0  0  0  0  0
   11.0481  -18.5570   22.1430 C   0  0  0  0  0  0  0  0  0  0  0  0
   11.5080  -18.3348   23.5649 C   0  0  1  0  0  0  0  0  0  0  0  0
   12.7161  -17.6352   23.5657 O   0  0  0  0  0  0  0  0  0  0  0  0
   10.4629  -17.6434   24.3680 C   0  0  2  0  0  0  0  0  0  0  0  0
   10.1305  -16.3340   23.8748 N   0  0  0  0  0  0  0  0  0  0  0  0
   10.7769  -17.6255   25.8240 C   0  0  0  0  0  0  0  0  0  0  0  0
   10.8581  -18.7769   26.5636 O   0  0  0  0  0  0  0  0  0  0  0  0
   10.9693  -16.5037   26.3684 O   0  0  0  0  0  0  0  0  0  0  0  0
  2  1  1  0
  3  2  2  0
  4  2  1  0
  5  4  1  0
  5  6  1  1
  7  5  1  0
  7  9  1  0
  8  7  2  0
 10 11  1  1
 10  9  1  0
 10 13  1  0
 12 11  1  0
 13 19  1  0
 14 13  2  0
 16 15  1  6
 16 17  1  0
 18 16  1  0
 18 19  1  6
 20 18  1  0
 20 21  1  0
 22 20  2  0
M  END
$$$$
