NCT.pdb
     RDKit          3D

 22 21  0  0  1  0  0  0  0  0999 V2000
    8.7291  -18.3805   16.4412 N   0  0  0  0  0  0  0  0  0  0  0  0
    9.4911  -17.1847   16.4708 C   0  0  0  0  0  0  0  0  0  0  0  0
    9.8214  -16.6966   15.3453 O   0  0  0  0  0  0  0  0  0  0  0  0
    9.8838  -16.5308   17.7358 C   0  0  0  0  0  0  0  0  0  0  0  0
    9.3914  -17.2315   18.9753 C   0  0  2  0  0  0  0  0  0  0  0  0
    7.9312  -16.9764   18.9919 N   0  0  0  0  0  0  0  0  0  0  0  0
    9.9937  -16.5405   20.1660 C   0  0  0  0  0  0  0  0  0  0  0  0
   11.2186  -16.3611   20.3326 O   0  0  0  0  0  0  0  0  0  0  0  0
    9.1647  -16.0304   21.2147 N   0  0  0  0  0  0  0  0  0  0  0  0
    9.7361  -15.5617   22.4789 C   0  0  1  0  0  0  0  0  0  0  0  0
    8.7894  -14.4751   22.9528 C   0  0  0  0  0  0  0  0  0  0  0  0
    7.1643  -15.0497   23.4058 S   0  0  0  0  0  0  0  0  0  0  0  0
    9.8366  -16.6746   23.4496 C   0  0  0  0  0  0  0  0  0  0  0  0
    8.9223  -17.5479   23.4224 O   0  0  0  0  0  0  0  0  0  0  0  0
   11.6873  -19.5345   23.5476 C   0  0  0  0  0  0  0  0  0  0  0  0
   11.9842  -18.9613   24.9136 C   0  0  1  0  0  0  0  0  0  0  0  0
   13.2761  -18.4325   24.9322 O   0  0  0  0  0  0  0  0  0  0  0  0
   10.9633  -17.9530   25.3090 C   0  0  2  0  0  0  0  0  0  0  0  0
   10.8722  -16.8402   24.4025 N   0  0  0  0  0  0  0  0  0  0  0  0
   11.1147  -17.5074   26.7222 C   0  0  0  0  0  0  0  0  0  0  0  0
   10.9709  -18.3726   27.7758 O   0  0  0  0  0  0  0  0  0  0  0  0
   11.3831  -16.2920   26.9281 O   0  0  0  0  0  0  0  0  0  0  0  0
  2  1  1  0
  3  2  2  0
  4  2  1  0
  5  4  1  0
  5  6  1  1
  7  5  1  0
  7  9  1  0
  8  7  2  0
 10 11  1  1
 10  9  1  0
 10 13  1  0
 12 11  1  0
 13 19  1  0
 14 13  2  0
 16 15  1  6
 16 17  1  0
 18 16  1  0
 18 19  1  6
 20 18  1  0
 20 21  1  0
 22 20  2  0
M  END
$$$$
