HNE.pdb
     RDKit          3D

 28 28  0  0  1  0  0  0  0  0999 V2000
   13.9113  -12.4173  -12.4862 N   0  0  0  0  0  0  0  0  0  0  0  0
   15.1871  -11.9621  -11.9587 C   0  0  1  0  0  0  0  0  0  0  0  0
   16.3361  -12.4750  -12.7605 C   0  0  0  0  0  0  0  0  0  0  0  0
   16.3932  -13.9527  -12.8668 C   0  0  0  0  0  0  0  0  0  0  0  0
   16.9796  -14.8616  -12.0010 C   0  0  0  0  0  0  0  0  0  0  0  0
   16.8113  -16.1103  -12.4565 N   0  0  0  0  0  0  0  0  0  0  0  0
   16.1223  -16.0023  -13.6053 C   0  0  0  0  0  0  0  0  0  0  0  0
   15.8663  -14.6909  -13.8579 N   0  0  0  0  0  0  0  0  0  0  0  0
   15.1627  -10.5168  -11.7222 C   0  0  0  0  0  0  0  0  0  0  0  0
   14.9846   -9.7087  -12.6876 O   0  0  0  0  0  0  0  0  0  0  0  0
   15.2142   -6.3782   -7.3139 N   0  0  0  0  0  0  0  0  0  0  0  0
   14.6042   -6.7731   -8.5504 C   0  0  0  0  0  0  0  0  0  0  0  0
   14.0869   -5.8634   -9.2396 O   0  0  0  0  0  0  0  0  0  0  0  0
   14.6323   -8.2039   -8.9123 C   0  0  0  0  0  0  0  0  0  0  0  0
   15.3004   -8.4755  -10.2409 C   0  0  2  0  0  0  0  0  0  0  0  0
   15.3290   -9.9225  -10.4368 N   0  0  0  0  0  0  0  0  0  0  0  0
   16.6214   -7.8420  -10.3729 C   0  0  0  0  0  0  0  0  0  0  0  0
   17.6012   -8.2155   -9.6821 O   0  0  0  0  0  0  0  0  0  0  0  0
   16.8959   -6.7650  -11.2831 N   0  0  0  0  0  0  0  0  0  0  0  0
   18.2048   -6.1639  -11.3617 C   0  0  1  0  0  0  0  0  0  0  0  0
   19.1361   -6.7332  -12.3573 C   0  0  0  0  0  0  0  0  0  0  0  0
   20.4777   -6.1006  -12.4748 C   0  0  0  0  0  0  0  0  0  0  0  0
   21.3564   -6.6218  -13.5168 C   0  0  0  0  0  0  0  0  0  0  0  0
   21.3635   -7.8215  -13.8571 O   0  0  0  0  0  0  0  0  0  0  0  0
   18.0121   -4.7042  -11.7155 C   0  0  0  0  0  0  0  0  0  0  0  0
   19.0151   -3.7763  -11.5097 O   0  0  0  0  0  0  0  0  0  0  0  0
   22.2271   -5.7474  -14.1625 O   0  0  0  0  0  0  0  0  0  0  0  0
   16.9086   -4.3777  -12.2006 O   0  0  0  0  0  0  0  0  0  0  0  0
  2  1  1  6
  2  9  1  0
  3  2  1  0
  3  4  1  0
  4  5  2  0
  5  6  1  0
  7  6  1  0
  8  4  1  0
  8  7  2  0
  9 16  1  0
  9 10  2  0
 11 12  1  0
 12 13  2  0
 15 14  1  1
 14 12  1  0
 15 17  1  0
 16 15  1  0
 17 19  1  0
 18 17  2  0
 19 20  1  0
 20 21  1  6
 20 25  1  0
 21 22  1  0
 22 23  1  0
 23 24  2  0
 25 28  2  0
 25 26  1  0
 27 23  1  0
M  END
$$$$
