HNE.pdb
     RDKit          3D

 28 28  0  0  1  0  0  0  0  0999 V2000
   19.9866  -10.1860  -17.8439 N   0  0  0  0  0  0  0  0  0  0  0  0
   20.9907   -9.1785  -17.5446 C   0  0  1  0  0  0  0  0  0  0  0  0
   21.6795   -8.6956  -18.7769 C   0  0  0  0  0  0  0  0  0  0  0  0
   22.3315   -9.7656  -19.5693 C   0  0  0  0  0  0  0  0  0  0  0  0
   23.4685  -10.4973  -19.2668 C   0  0  0  0  0  0  0  0  0  0  0  0
   23.7303  -11.3729  -20.2465 N   0  0  0  0  0  0  0  0  0  0  0  0
   22.7684  -11.2035  -21.1698 C   0  0  0  0  0  0  0  0  0  0  0  0
   21.9157  -10.2265  -20.7609 N   0  0  0  0  0  0  0  0  0  0  0  0
   20.4385   -8.1422  -16.6690 C   0  0  0  0  0  0  0  0  0  0  0  0
   19.3388   -7.5733  -16.9578 O   0  0  0  0  0  0  0  0  0  0  0  0
   18.8225   -8.5226  -13.4247 N   0  0  0  0  0  0  0  0  0  0  0  0
   19.8306   -7.9555  -12.5766 C   0  0  0  0  0  0  0  0  0  0  0  0
   19.8132   -8.3003  -11.3721 O   0  0  0  0  0  0  0  0  0  0  0  0
   20.8000   -7.0202  -13.1805 C   0  0  0  0  0  0  0  0  0  0  0  0
   20.4837   -6.6703  -14.6169 C   0  0  2  0  0  0  0  0  0  0  0  0
   21.0668   -7.7060  -15.4656 N   0  0  0  0  0  0  0  0  0  0  0  0
   20.8937   -5.3083  -14.9920 C   0  0  0  0  0  0  0  0  0  0  0  0
   22.0960   -5.0216  -15.2137 O   0  0  0  0  0  0  0  0  0  0  0  0
   19.9731   -4.2145  -15.1325 N   0  0  0  0  0  0  0  0  0  0  0  0
   20.3788   -2.9633  -15.7248 C   0  0  1  0  0  0  0  0  0  0  0  0
   19.3591   -2.2433  -16.5149 C   0  0  0  0  0  0  0  0  0  0  0  0
   19.7781   -0.9782  -17.1764 C   0  0  0  0  0  0  0  0  0  0  0  0
   18.7434   -0.2450  -17.8984 C   0  0  0  0  0  0  0  0  0  0  0  0
   17.5752   -0.6651  -18.0166 O   0  0  0  0  0  0  0  0  0  0  0  0
   20.7997   -2.0442  -14.5974 C   0  0  0  0  0  0  0  0  0  0  0  0
   21.8876   -1.2019  -14.7248 O   0  0  0  0  0  0  0  0  0  0  0  0
   19.0678    0.9767  -18.4831 O   0  0  0  0  0  0  0  0  0  0  0  0
   20.1208   -2.0816  -13.5499 O   0  0  0  0  0  0  0  0  0  0  0  0
  2  1  1  6
  2  9  1  0
  3  2  1  0
  3  4  1  0
  4  5  2  0
  5  6  1  0
  7  6  1  0
  8  4  1  0
  8  7  2  0
  9 16  1  0
  9 10  2  0
 11 12  1  0
 12 13  2  0
 15 14  1  1
 14 12  1  0
 15 17  1  0
 16 15  1  0
 17 19  1  0
 18 17  2  0
 19 20  1  0
 20 21  1  1
 20 25  1  0
 21 22  1  0
 22 23  1  0
 23 24  2  0
 25 28  2  0
 25 26  1  0
 27 23  1  0
M  END
$$$$
