HNE.pdb
     RDKit          3D

 28 28  0  0  1  0  0  0  0  0999 V2000
   24.6662  -20.4013  -17.3726 N   0  0  0  0  0  0  0  0  0  0  0  0
   23.5605  -19.4839  -17.5938 C   0  0  1  0  0  0  0  0  0  0  0  0
   23.0674  -19.5352  -19.0010 C   0  0  0  0  0  0  0  0  0  0  0  0
   24.1005  -19.2314  -20.0200 C   0  0  0  0  0  0  0  0  0  0  0  0
   25.4637  -19.0553  -19.8460 C   0  0  0  0  0  0  0  0  0  0  0  0
   26.0511  -18.7945  -21.0216 N   0  0  0  0  0  0  0  0  0  0  0  0
   25.0717  -18.8035  -21.9419 C   0  0  0  0  0  0  0  0  0  0  0  0
   23.8837  -19.0690  -21.3359 N   0  0  0  0  0  0  0  0  0  0  0  0
   22.5441  -19.6381  -16.5505 C   0  0  0  0  0  0  0  0  0  0  0  0
   22.3833  -20.7567  -15.9678 O   0  0  0  0  0  0  0  0  0  0  0  0
   18.7341  -18.8081  -13.1269 N   0  0  0  0  0  0  0  0  0  0  0  0
   19.6064  -17.6698  -13.1460 C   0  0  0  0  0  0  0  0  0  0  0  0
   19.4702  -16.8396  -12.2173 O   0  0  0  0  0  0  0  0  0  0  0  0
   20.5861  -17.5647  -14.2451 C   0  0  0  0  0  0  0  0  0  0  0  0
   20.6383  -18.7934  -15.1243 C   0  0  2  0  0  0  0  0  0  0  0  0
   21.6862  -18.5838  -16.1197 N   0  0  0  0  0  0  0  0  0  0  0  0
   19.3375  -19.1493  -15.7116 C   0  0  0  0  0  0  0  0  0  0  0  0
   18.8880  -18.5547  -16.7222 O   0  0  0  0  0  0  0  0  0  0  0  0
   18.4892  -20.1844  -15.1893 N   0  0  0  0  0  0  0  0  0  0  0  0
   17.2220  -20.4974  -15.8033 C   0  0  1  0  0  0  0  0  0  0  0  0
   16.7303  -21.8808  -15.6387 C   0  0  0  0  0  0  0  0  0  0  0  0
   17.2036  -22.8933  -16.6208 C   0  0  0  0  0  0  0  0  0  0  0  0
   16.7134  -24.2560  -16.4415 C   0  0  0  0  0  0  0  0  0  0  0  0
   16.8511  -25.1431  -17.3071 O   0  0  0  0  0  0  0  0  0  0  0  0
   16.1839  -19.5800  -15.1921 C   0  0  0  0  0  0  0  0  0  0  0  0
   14.8752  -19.5789  -15.6356 O   0  0  0  0  0  0  0  0  0  0  0  0
   16.0626  -24.5865  -15.2553 O   0  0  0  0  0  0  0  0  0  0  0  0
   16.5629  -18.8262  -14.2713 O   0  0  0  0  0  0  0  0  0  0  0  0
  2  1  1  6
  2  9  1  0
  3  2  1  0
  3  4  1  0
  4  5  2  0
  5  6  1  0
  7  6  1  0
  8  4  1  0
  8  7  2  0
  9 16  1  0
  9 10  2  0
 11 12  1  0
 12 13  2  0
 15 14  1  6
 14 12  1  0
 15 17  1  0
 16 15  1  0
 17 19  1  0
 18 17  2  0
 19 20  1  0
 20 21  1  1
 20 25  1  0
 21 22  1  0
 22 23  1  0
 23 24  2  0
 25 28  2  0
 25 26  1  0
 27 23  1  0
M  END
$$$$
