HNE.pdb
     RDKit          3D

 28 28  0  0  1  0  0  0  0  0999 V2000
   14.7958  -11.5412  -12.3737 N   0  0  0  0  0  0  0  0  0  0  0  0
   15.8297  -11.0486  -11.4785 C   0  0  1  0  0  0  0  0  0  0  0  0
   17.1916  -11.4779  -11.9109 C   0  0  0  0  0  0  0  0  0  0  0  0
   17.3248  -12.9356  -12.1461 C   0  0  0  0  0  0  0  0  0  0  0  0
   17.6033  -13.6004  -13.3293 C   0  0  0  0  0  0  0  0  0  0  0  0
   17.6389  -14.9233  -13.1203 N   0  0  0  0  0  0  0  0  0  0  0  0
   17.3851  -15.1048  -11.8130 C   0  0  0  0  0  0  0  0  0  0  0  0
   17.1935  -13.8975  -11.2174 N   0  0  0  0  0  0  0  0  0  0  0  0
   15.6568   -9.6159  -11.2276 C   0  0  0  0  0  0  0  0  0  0  0  0
   15.4782   -8.8094  -12.1941 O   0  0  0  0  0  0  0  0  0  0  0  0
   15.2259   -4.9771   -8.8999 N   0  0  0  0  0  0  0  0  0  0  0  0
   14.6600   -5.9684   -8.0315 C   0  0  0  0  0  0  0  0  0  0  0  0
   14.0278   -5.5493   -7.0340 O   0  0  0  0  0  0  0  0  0  0  0  0
   14.8630   -7.3895   -8.3752 C   0  0  0  0  0  0  0  0  0  0  0  0
   15.5261   -7.5949   -9.7182 C   0  0  2  0  0  0  0  0  0  0  0  0
   15.6728   -9.0330   -9.9264 N   0  0  0  0  0  0  0  0  0  0  0  0
   16.7862   -6.8513   -9.8693 C   0  0  0  0  0  0  0  0  0  0  0  0
   17.7977   -7.1248   -9.1773 O   0  0  0  0  0  0  0  0  0  0  0  0
   16.9620   -5.7718  -10.8008 N   0  0  0  0  0  0  0  0  0  0  0  0
   18.2671   -5.2219  -11.0748 C   0  0  1  0  0  0  0  0  0  0  0  0
   19.1210   -5.9792  -12.0128 C   0  0  0  0  0  0  0  0  0  0  0  0
   20.3728   -5.3220  -12.4766 C   0  0  0  0  0  0  0  0  0  0  0  0
   21.1834   -6.0647  -13.4363 C   0  0  0  0  0  0  0  0  0  0  0  0
   20.9406   -7.2456  -13.7550 O   0  0  0  0  0  0  0  0  0  0  0  0
   18.0623   -3.8452  -11.6710 C   0  0  0  0  0  0  0  0  0  0  0  0
   19.0412   -2.8735  -11.5893 O   0  0  0  0  0  0  0  0  0  0  0  0
   22.2766   -5.4336  -14.0248 O   0  0  0  0  0  0  0  0  0  0  0  0
   16.9713   -3.6282  -12.2388 O   0  0  0  0  0  0  0  0  0  0  0  0
  2  1  1  6
  2  9  1  0
  3  2  1  0
  3  4  1  0
  4  5  2  0
  5  6  1  0
  7  6  1  0
  8  4  1  0
  8  7  2  0
  9 16  1  0
  9 10  2  0
 11 12  1  0
 12 13  2  0
 15 14  1  1
 14 12  1  0
 15 17  1  0
 16 15  1  0
 17 19  1  0
 18 17  2  0
 19 20  1  0
 20 21  1  6
 20 25  1  0
 21 22  1  0
 22 23  1  0
 23 24  2  0
 25 28  2  0
 25 26  1  0
 27 23  1  0
M  END
$$$$
