HNE.pdb
     RDKit          3D

 28 28  0  0  1  0  0  0  0  0999 V2000
   18.3399  -14.0192  -16.9126 N   0  0  0  0  0  0  0  0  0  0  0  0
   18.4334  -13.3204  -15.6414 C   0  0  1  0  0  0  0  0  0  0  0  0
   19.5466  -13.8453  -14.7980 C   0  0  0  0  0  0  0  0  0  0  0  0
   19.4053  -15.2724  -14.4220 C   0  0  0  0  0  0  0  0  0  0  0  0
   18.4430  -16.1835  -14.8259 C   0  0  0  0  0  0  0  0  0  0  0  0
   18.6673  -17.3765  -14.2588 N   0  0  0  0  0  0  0  0  0  0  0  0
   19.7651  -17.2308  -13.4973 C   0  0  0  0  0  0  0  0  0  0  0  0
   20.2166  -15.9518  -13.5943 N   0  0  0  0  0  0  0  0  0  0  0  0
   18.4105  -11.8702  -15.8458 C   0  0  0  0  0  0  0  0  0  0  0  0
   19.1773  -11.3279  -16.7028 O   0  0  0  0  0  0  0  0  0  0  0  0
   17.2708   -6.8128  -15.5747 N   0  0  0  0  0  0  0  0  0  0  0  0
   16.3093   -7.4764  -14.7427 C   0  0  0  0  0  0  0  0  0  0  0  0
   15.4208   -6.7596  -14.2261 O   0  0  0  0  0  0  0  0  0  0  0  0
   16.4384   -8.9356  -14.5608 C   0  0  0  0  0  0  0  0  0  0  0  0
   17.5977   -9.5366  -15.3226 C   0  0  2  0  0  0  0  0  0  0  0  0
   17.5562  -10.9833  -15.1269 N   0  0  0  0  0  0  0  0  0  0  0  0
   18.8970   -8.9379  -14.9805 C   0  0  0  0  0  0  0  0  0  0  0  0
   19.5341   -9.2906  -13.9574 O   0  0  0  0  0  0  0  0  0  0  0  0
   19.5328   -7.9203  -15.7704 N   0  0  0  0  0  0  0  0  0  0  0  0
   20.8958   -7.5191  -15.5215 C   0  0  1  0  0  0  0  0  0  0  0  0
   21.9054   -7.9571  -16.5072 C   0  0  0  0  0  0  0  0  0  0  0  0
   23.3225   -7.5913  -16.2392 C   0  0  0  0  0  0  0  0  0  0  0  0
   24.2916   -7.9297  -17.2765 C   0  0  0  0  0  0  0  0  0  0  0  0
   23.9924   -8.5893  -18.2916 O   0  0  0  0  0  0  0  0  0  0  0  0
   20.9249   -6.0054  -15.4967 C   0  0  0  0  0  0  0  0  0  0  0  0
   21.8980   -5.3165  -14.7983 O   0  0  0  0  0  0  0  0  0  0  0  0
   25.6088   -7.5009  -17.1325 O   0  0  0  0  0  0  0  0  0  0  0  0
   20.0320   -5.4091  -16.1346 O   0  0  0  0  0  0  0  0  0  0  0  0
  2  1  1  6
  2  9  1  0
  3  2  1  0
  3  4  1  0
  4  5  2  0
  5  6  1  0
  7  6  1  0
  8  4  1  0
  8  7  2  0
  9 16  1  0
  9 10  2  0
 11 12  1  0
 12 13  2  0
 15 14  1  1
 14 12  1  0
 15 17  1  0
 16 15  1  0
 17 19  1  0
 18 17  2  0
 19 20  1  0
 20 21  1  6
 20 25  1  0
 21 22  1  0
 22 23  1  0
 23 24  2  0
 25 28  2  0
 25 26  1  0
 27 23  1  0
M  END
$$$$
