HNE.pdb
     RDKit          3D

 28 28  0  0  1  0  0  0  0  0999 V2000
   18.6541  -10.9591  -16.9946 N   0  0  0  0  0  0  0  0  0  0  0  0
   19.9291  -10.2823  -17.1661 C   0  0  1  0  0  0  0  0  0  0  0  0
   20.3579  -10.2562  -18.5949 C   0  0  0  0  0  0  0  0  0  0  0  0
   20.4791  -11.5956  -19.2190 C   0  0  0  0  0  0  0  0  0  0  0  0
   20.2417  -12.8387  -18.6554 C   0  0  0  0  0  0  0  0  0  0  0  0
   20.4664  -13.8059  -19.5549 N   0  0  0  0  0  0  0  0  0  0  0  0
   20.8450  -13.1871  -20.6864 C   0  0  0  0  0  0  0  0  0  0  0  0
   20.8538  -11.8423  -20.4855 N   0  0  0  0  0  0  0  0  0  0  0  0
   19.9272   -8.9924  -16.4720 C   0  0  0  0  0  0  0  0  0  0  0  0
   18.8472   -8.3356  -16.3356 O   0  0  0  0  0  0  0  0  0  0  0  0
   23.0682   -4.8762  -13.8080 N   0  0  0  0  0  0  0  0  0  0  0  0
   22.0381   -5.7863  -13.3987 C   0  0  0  0  0  0  0  0  0  0  0  0
   21.2817   -5.4035  -12.4759 O   0  0  0  0  0  0  0  0  0  0  0  0
   21.9486   -7.0887  -14.0877 C   0  0  0  0  0  0  0  0  0  0  0  0
   21.0731   -7.0587  -15.3198 C   0  0  2  0  0  0  0  0  0  0  0  0
   21.0940   -8.3933  -15.9127 N   0  0  0  0  0  0  0  0  0  0  0  0
   21.4319   -5.9927  -16.2678 C   0  0  0  0  0  0  0  0  0  0  0  0
   22.4701   -6.0606  -16.9708 O   0  0  0  0  0  0  0  0  0  0  0  0
   20.6422   -4.8089  -16.4643 N   0  0  0  0  0  0  0  0  0  0  0  0
   21.0352   -3.7929  -17.4099 C   0  0  1  0  0  0  0  0  0  0  0  0
   20.0351   -3.4151  -18.4296 C   0  0  0  0  0  0  0  0  0  0  0  0
   18.7430   -2.8601  -17.9436 C   0  0  0  0  0  0  0  0  0  0  0  0
   17.6824   -2.7107  -18.9348 C   0  0  0  0  0  0  0  0  0  0  0  0
   17.5058   -1.6597  -19.5823 O   0  0  0  0  0  0  0  0  0  0  0  0
   21.3616   -2.5422  -16.6212 C   0  0  0  0  0  0  0  0  0  0  0  0
   22.1504   -1.5412  -17.1550 O   0  0  0  0  0  0  0  0  0  0  0  0
   16.8271   -3.7839  -19.1722 O   0  0  0  0  0  0  0  0  0  0  0  0
   20.8867   -2.4564  -15.4694 O   0  0  0  0  0  0  0  0  0  0  0  0
  2  1  1  6
  2  9  1  0
  3  2  1  0
  3  4  1  0
  4  5  2  0
  5  6  1  0
  7  6  1  0
  8  4  1  0
  8  7  2  0
  9 16  1  0
  9 10  2  0
 11 12  1  0
 12 13  2  0
 15 14  1  1
 14 12  1  0
 15 17  1  0
 16 15  1  0
 17 19  1  0
 18 17  2  0
 19 20  1  0
 20 21  1  6
 20 25  1  0
 21 22  1  0
 22 23  1  0
 23 24  2  0
 25 28  2  0
 25 26  1  0
 27 23  1  0
M  END
$$$$
