HRP.pdb
     RDKit          3D

 29 30  0  0  1  0  0  0  0  0999 V2000
   23.1234  -17.6581  -16.5009 N   0  0  0  0  0  0  0  0  0  0  0  0
   22.9421  -16.3248  -17.0408 C   0  0  1  0  0  0  0  0  0  0  0  0
   21.6576  -15.7727  -16.4564 C   0  0  0  0  0  0  0  0  0  0  0  0
   20.4665  -16.5069  -16.8908 C   0  0  0  0  0  0  0  0  0  0  0  0
   20.1527  -16.8417  -18.1755 C   0  0  0  0  0  0  0  0  0  0  0  0
   18.9876  -17.5031  -18.1291 N   0  0  0  0  0  0  0  0  0  0  0  0
   18.5821  -17.5818  -16.8596 C   0  0  0  0  0  0  0  0  0  0  0  0
   19.5002  -16.9645  -16.1006 N   0  0  0  0  0  0  0  0  0  0  0  0
   24.0326  -15.4098  -16.6115 C   0  0  0  0  0  0  0  0  0  0  0  0
   24.4177  -15.3882  -15.4147 O   0  0  0  0  0  0  0  0  0  0  0  0
   31.9397  -13.9848  -19.2011 N   0  0  0  0  0  0  0  0  0  0  0  0
   31.7987  -12.9110  -18.3105 C   0  0  0  0  0  0  0  0  0  0  0  0
   32.8701  -12.2380  -18.0120 N   0  0  0  0  0  0  0  0  0  0  0  0
   30.5294  -12.5810  -17.7623 N   0  0  0  0  0  0  0  0  0  0  0  0
   29.4182  -13.4480  -18.0799 C   0  0  0  0  0  0  0  0  0  0  0  0
   28.1550  -13.0232  -17.3630 C   0  0  0  0  0  0  0  0  0  0  0  0
   27.0661  -13.9761  -17.7528 C   0  0  0  0  0  0  0  0  0  0  0  0
   25.7344  -13.6239  -17.1196 C   0  0  2  0  0  0  0  0  0  0  0  0
   24.6975  -14.5178  -17.5072 N   0  0  0  0  0  0  0  0  0  0  0  0
   25.4482  -12.1806  -17.2208 C   0  0  0  0  0  0  0  0  0  0  0  0
   24.8305  -11.8945  -18.3374 O   0  0  0  0  0  0  0  0  0  0  0  0
   32.8025  -11.4468  -17.3422 N   0  0  0  0  0  0  0  0  0  0  0  0
   25.7498  -11.1715  -16.3150 C   0  0  0  0  0  0  0  0  0  0  0  0
   26.5078  -11.1841  -15.1154 C   0  0  0  0  0  0  0  0  0  0  0  0
   25.7404  -10.2053  -14.2167 C   0  0  0  0  0  0  0  0  0  0  0  0
   24.7742   -9.4851  -15.1012 C   0  0  2  0  0  0  0  0  0  0  0  0
   25.2890   -9.7850  -16.4746 C   0  0  0  0  0  0  0  0  0  0  0  0
   26.3936   -8.9004  -16.9004 O   0  0  0  0  0  0  0  0  0  0  0  0
   27.5710   -9.2574  -17.0546 O   0  0  0  0  0  0  0  0  0  0  0  0
  2  1  1  1
  2  3  1  0
  4  3  1  0
  4  8  1  0
  5  6  1  0
  5  4  2  0
  6  7  1  0
  7  8  2  0
  9  2  1  0
 10  9  2  0
 12 11  1  0
 12 14  1  0
 13 12  2  0
 15 14  1  0
 16 15  1  0
 17 16  1  0
 18 17  1  6
 18 19  1  0
 19  9  1  0
 20 21  2  0
 20 18  1  0
 22 20  1  0
 23 22  1  0
 24 23  1  0
 25 24  1  0
 25 26  1  0
 26 22  1  0
 26 27  1  1
 28 27  2  0
 29 27  1  0
M  END
$$$$
