HRP.pdb
     RDKit          3D

 29 30  0  0  1  0  0  0  0  0999 V2000
   15.9213  -20.6594    1.4691 N   0  0  0  0  0  0  0  0  0  0  0  0
   15.5553  -20.2829    2.8205 C   0  0  1  0  0  0  0  0  0  0  0  0
   15.1688  -21.5519    3.5529 C   0  0  0  0  0  0  0  0  0  0  0  0
   13.9056  -22.1253    3.0817 C   0  0  0  0  0  0  0  0  0  0  0  0
   13.7231  -23.3944    2.6158 C   0  0  0  0  0  0  0  0  0  0  0  0
   12.4267  -23.5050    2.2927 N   0  0  0  0  0  0  0  0  0  0  0  0
   11.8146  -22.3460    2.5463 C   0  0  0  0  0  0  0  0  0  0  0  0
   12.7339  -21.4989    3.0333 N   0  0  0  0  0  0  0  0  0  0  0  0
   16.7094  -19.7019    3.5561 C   0  0  0  0  0  0  0  0  0  0  0  0
   17.8593  -20.1970    3.4394 O   0  0  0  0  0  0  0  0  0  0  0  0
   18.6808  -11.5459    5.5852 N   0  0  0  0  0  0  0  0  0  0  0  0
   19.7215  -12.2349    6.2240 C   0  0  0  0  0  0  0  0  0  0  0  0
   20.7066  -11.5278    6.6927 N   0  0  0  0  0  0  0  0  0  0  0  0
   19.6896  -13.6506    6.3481 N   0  0  0  0  0  0  0  0  0  0  0  0
   18.5869  -14.3511    5.7312 C   0  0  0  0  0  0  0  0  0  0  0  0
   18.6424  -15.8373    6.0104 C   0  0  0  0  0  0  0  0  0  0  0  0
   17.4862  -16.4783    5.3045 C   0  0  0  0  0  0  0  0  0  0  0  0
   17.6869  -17.9667    5.0980 C   0  0  2  0  0  0  0  0  0  0  0  0
   16.5912  -18.5719    4.4217 N   0  0  0  0  0  0  0  0  0  0  0  0
   18.1639  -18.6274    6.3273 C   0  0  0  0  0  0  0  0  0  0  0  0
   17.1716  -19.1365    7.0103 O   0  0  0  0  0  0  0  0  0  0  0  0
   21.4985  -12.0091    7.1622 N   0  0  0  0  0  0  0  0  0  0  0  0
   19.4658  -18.7507    6.7959 C   0  0  0  0  0  0  0  0  0  0  0  0
   20.7044  -18.3325    6.2441 C   0  0  0  0  0  0  0  0  0  0  0  0
   21.6578  -19.4648    6.6486 C   0  0  0  0  0  0  0  0  0  0  0  0
   20.9331  -20.2872    7.6651 C   0  0  2  0  0  0  0  0  0  0  0  0
   19.8019  -19.3955    8.0732 C   0  0  0  0  0  0  0  0  0  0  0  0
   20.1740  -18.3952    9.0952 O   0  0  0  0  0  0  0  0  0  0  0  0
   20.2887  -17.1778    8.8896 O   0  0  0  0  0  0  0  0  0  0  0  0
  2  1  1  6
  2  3  1  0
  4  3  1  0
  4  8  1  0
  5  6  1  0
  5  4  2  0
  6  7  1  0
  7  8  2  0
  9  2  1  0
 10  9  2  0
 12 11  1  0
 12 14  1  0
 13 12  2  0
 15 14  1  0
 16 15  1  0
 17 16  1  0
 18 17  1  1
 18 19  1  0
 19  9  1  0
 20 21  2  0
 20 18  1  0
 22 20  1  0
 23 22  1  0
 24 23  1  0
 25 24  1  0
 25 26  1  0
 26 22  1  0
 26 27  1  1
 28 27  2  0
 29 27  1  0
M  END
$$$$
