HRP.pdb
     RDKit          3D

 29 30  0  0  1  0  0  0  0  0999 V2000
   19.8705  -16.2988  -17.2162 N   0  0  0  0  0  0  0  0  0  0  0  0
   19.4186  -14.9322  -17.3899 C   0  0  1  0  0  0  0  0  0  0  0  0
   18.2088  -14.7407  -16.4976 C   0  0  0  0  0  0  0  0  0  0  0  0
   17.6372  -13.3946  -16.5856 C   0  0  0  0  0  0  0  0  0  0  0  0
   17.7229  -12.4210  -15.6338 C   0  0  0  0  0  0  0  0  0  0  0  0
   17.0687  -11.3534  -16.1127 N   0  0  0  0  0  0  0  0  0  0  0  0
   16.5879  -11.6447  -17.3236 C   0  0  0  0  0  0  0  0  0  0  0  0
   16.9428  -12.9066  -17.6090 N   0  0  0  0  0  0  0  0  0  0  0  0
   20.4432  -13.9568  -16.9323 C   0  0  0  0  0  0  0  0  0  0  0  0
   21.0196  -14.1044  -15.8246 O   0  0  0  0  0  0  0  0  0  0  0  0
   23.4938   -6.7251  -19.7344 N   0  0  0  0  0  0  0  0  0  0  0  0
   24.6741   -7.0604  -19.0560 C   0  0  0  0  0  0  0  0  0  0  0  0
   25.4566   -6.0849  -18.7008 N   0  0  0  0  0  0  0  0  0  0  0  0
   24.9918   -8.4168  -18.7735 N   0  0  0  0  0  0  0  0  0  0  0  0
   24.0186   -9.4210  -19.1364 C   0  0  0  0  0  0  0  0  0  0  0  0
   23.4156  -10.0820  -17.9160 C   0  0  0  0  0  0  0  0  0  0  0  0
   22.4548  -11.1292  -18.3914 C   0  0  0  0  0  0  0  0  0  0  0  0
   21.7385  -11.8198  -17.2476 C   0  0  2  0  0  0  0  0  0  0  0  0
   20.8305  -12.8171  -17.7010 N   0  0  0  0  0  0  0  0  0  0  0  0
   21.2309  -10.8506  -16.2587 C   0  0  0  0  0  0  0  0  0  0  0  0
   19.9712  -10.5698  -16.4698 O   0  0  0  0  0  0  0  0  0  0  0  0
   26.3384   -6.2998  -18.1955 N   0  0  0  0  0  0  0  0  0  0  0  0
   21.9098  -10.2506  -15.2056 C   0  0  0  0  0  0  0  0  0  0  0  0
   23.2721  -10.3100  -14.8131 C   0  0  0  0  0  0  0  0  0  0  0  0
   23.1872  -10.2855  -13.2812 C   0  0  0  0  0  0  0  0  0  0  0  0
   21.7825   -9.9049  -12.9399 C   0  0  2  0  0  0  0  0  0  0  0  0
   21.2586   -9.3618  -14.2328 C   0  0  0  0  0  0  0  0  0  0  0  0
   21.6209   -7.9495  -14.4732 O   0  0  0  0  0  0  0  0  0  0  0  0
   22.3894   -7.5543  -15.3625 O   0  0  0  0  0  0  0  0  0  0  0  0
  2  1  1  1
  2  3  1  0
  4  3  1  0
  4  8  1  0
  5  6  1  0
  5  4  2  0
  6  7  1  0
  7  8  2  0
  9  2  1  0
 10  9  2  0
 12 11  1  0
 12 14  1  0
 13 12  2  0
 15 14  1  0
 16 15  1  0
 17 16  1  0
 18 17  1  6
 18 19  1  0
 19  9  1  0
 20 21  2  0
 20 18  1  0
 22 20  1  0
 23 22  1  0
 24 23  1  0
 25 24  1  0
 25 26  1  0
 26 22  1  0
 26 27  1  1
 28 27  2  0
 29 27  1  0
M  END
$$$$
