HRP.pdb
     RDKit          3D

 29 30  0  0  1  0  0  0  0  0999 V2000
   29.2680  -20.8196  -18.1803 N   0  0  0  0  0  0  0  0  0  0  0  0
   28.7934  -20.0882  -17.0220 C   0  0  1  0  0  0  0  0  0  0  0  0
   28.3781  -18.7107  -17.4978 C   0  0  0  0  0  0  0  0  0  0  0  0
   29.5122  -17.8779  -17.9065 C   0  0  0  0  0  0  0  0  0  0  0  0
   30.2268  -17.0410  -17.1003 C   0  0  0  0  0  0  0  0  0  0  0  0
   31.1687  -16.4752  -17.8682 N   0  0  0  0  0  0  0  0  0  0  0  0
   31.0512  -16.9396  -19.1143 C   0  0  0  0  0  0  0  0  0  0  0  0
   30.0263  -17.8052  -19.1305 N   0  0  0  0  0  0  0  0  0  0  0  0
   27.5809  -20.7198  -16.4376 C   0  0  0  0  0  0  0  0  0  0  0  0
   26.6969  -21.2190  -17.1795 O   0  0  0  0  0  0  0  0  0  0  0  0
   24.1098  -19.7559   -8.9238 N   0  0  0  0  0  0  0  0  0  0  0  0
   23.4726  -20.8492   -9.5277 C   0  0  0  0  0  0  0  0  0  0  0  0
   22.2035  -21.0052   -9.2930 N   0  0  0  0  0  0  0  0  0  0  0  0
   24.1961  -21.7446  -10.3616 N   0  0  0  0  0  0  0  0  0  0  0  0
   25.5527  -21.3878  -10.7074 C   0  0  0  0  0  0  0  0  0  0  0  0
   25.6302  -20.7442  -12.0748 C   0  0  0  0  0  0  0  0  0  0  0  0
   26.3553  -21.6892  -12.9841 C   0  0  0  0  0  0  0  0  0  0  0  0
   26.1676  -21.3428  -14.4480 C   0  0  2  0  0  0  0  0  0  0  0  0
   27.3461  -20.7990  -15.0309 N   0  0  0  0  0  0  0  0  0  0  0  0
   24.9073  -20.6119  -14.6773 C   0  0  0  0  0  0  0  0  0  0  0  0
   25.0875  -19.3184  -14.6085 O   0  0  0  0  0  0  0  0  0  0  0  0
   21.7161  -21.8406   -9.6719 N   0  0  0  0  0  0  0  0  0  0  0  0
   23.6428  -21.1247  -14.9375 C   0  0  0  0  0  0  0  0  0  0  0  0
   23.1547  -22.4571  -14.9449 C   0  0  0  0  0  0  0  0  0  0  0  0
   22.1456  -22.4444  -16.1008 C   0  0  0  0  0  0  0  0  0  0  0  0
   21.9261  -21.0093  -16.4570 C   0  0  2  0  0  0  0  0  0  0  0  0
   22.4880  -20.2809  -15.2759 C   0  0  0  0  0  0  0  0  0  0  0  0
   21.5487  -20.1797  -14.1396 O   0  0  0  0  0  0  0  0  0  0  0  0
   20.5933  -19.3920  -14.0750 O   0  0  0  0  0  0  0  0  0  0  0  0
  2  1  1  6
  2  3  1  0
  4  3  1  0
  4  8  1  0
  5  6  1  0
  5  4  2  0
  6  7  1  0
  7  8  2  0
  9  2  1  0
 10  9  2  0
 12 11  1  0
 12 14  1  0
 13 12  2  0
 15 14  1  0
 16 15  1  0
 17 16  1  0
 18 17  1  1
 18 19  1  0
 19  9  1  0
 20 21  2  0
 20 18  1  0
 22 20  1  0
 23 22  1  0
 24 23  1  0
 25 24  1  0
 25 26  1  0
 26 22  1  0
 26 27  1  6
 28 27  2  0
 29 27  1  0
M  END
$$$$
