HRP.pdb
     RDKit          3D

 29 30  0  0  1  0  0  0  0  0999 V2000
   19.4295  -18.9631  -15.0251 N   0  0  0  0  0  0  0  0  0  0  0  0
   20.4388  -19.1640  -16.0465 C   0  0  1  0  0  0  0  0  0  0  0  0
   19.9683  -18.4424  -17.2932 C   0  0  0  0  0  0  0  0  0  0  0  0
   18.8010  -19.0722  -17.9157 C   0  0  0  0  0  0  0  0  0  0  0  0
   17.5108  -18.6377  -17.8280 C   0  0  0  0  0  0  0  0  0  0  0  0
   16.7649  -19.4956  -18.5384 N   0  0  0  0  0  0  0  0  0  0  0  0
   17.5577  -20.4372  -19.0553 C   0  0  0  0  0  0  0  0  0  0  0  0
   18.8135  -20.1693  -18.6665 N   0  0  0  0  0  0  0  0  0  0  0  0
   21.7350  -18.5462  -15.6610 C   0  0  0  0  0  0  0  0  0  0  0  0
   21.7731  -17.3900  -15.1683 O   0  0  0  0  0  0  0  0  0  0  0  0
   27.7039  -21.5704  -10.9194 N   0  0  0  0  0  0  0  0  0  0  0  0
   26.4180  -21.0116  -10.9051 C   0  0  0  0  0  0  0  0  0  0  0  0
   25.6685  -21.2638   -9.8733 N   0  0  0  0  0  0  0  0  0  0  0  0
   25.9631  -20.2029  -11.9821 N   0  0  0  0  0  0  0  0  0  0  0  0
   26.9168  -19.8641  -13.0130 C   0  0  0  0  0  0  0  0  0  0  0  0
   26.3102  -18.9535  -14.0584 C   0  0  0  0  0  0  0  0  0  0  0  0
   24.9343  -19.4624  -14.3645 C   0  0  0  0  0  0  0  0  0  0  0  0
   24.2420  -18.6486  -15.4400 C   0  0  2  0  0  0  0  0  0  0  0  0
   22.9905  -19.2083  -15.8208 N   0  0  0  0  0  0  0  0  0  0  0  0
   25.1697  -18.2797  -16.5255 C   0  0  0  0  0  0  0  0  0  0  0  0
   24.9940  -19.0339  -17.5794 O   0  0  0  0  0  0  0  0  0  0  0  0
   24.7038  -20.8800   -9.8407 N   0  0  0  0  0  0  0  0  0  0  0  0
   26.1401  -17.2856  -16.5360 C   0  0  0  0  0  0  0  0  0  0  0  0
   26.6435  -16.4557  -15.5009 C   0  0  0  0  0  0  0  0  0  0  0  0
   26.8887  -15.1231  -16.2210 C   0  0  0  0  0  0  0  0  0  0  0  0
   26.7860  -15.4064  -17.6851 C   0  0  1  0  0  0  0  0  0  0  0  0
   26.8808  -16.8992  -17.7453 C   0  0  0  0  0  0  0  0  0  0  0  0
   28.2678  -17.4076  -17.7077 O   0  0  0  0  0  0  0  0  0  0  0  0
   28.7484  -18.0950  -16.7945 O   0  0  0  0  0  0  0  0  0  0  0  0
  2  1  1  1
  2  3  1  0
  4  3  1  0
  4  8  1  0
  5  6  1  0
  5  4  2  0
  6  7  1  0
  7  8  2  0
  9  2  1  0
 10  9  2  0
 12 11  1  0
 12 14  1  0
 13 12  2  0
 15 14  1  0
 16 15  1  0
 17 16  1  0
 18 17  1  1
 18 19  1  0
 19  9  1  0
 20 21  2  0
 20 18  1  0
 22 20  1  0
 23 22  1  0
 24 23  1  0
 25 24  1  0
 25 26  1  0
 26 22  1  0
 26 27  1  1
 28 27  2  0
 29 27  1  0
M  END
$$$$
