HRP.pdb
     RDKit          3D

 29 30  0  0  1  0  0  0  0  0999 V2000
   19.5861  -22.2828  -14.8428 N   0  0  0  0  0  0  0  0  0  0  0  0
   20.2947  -21.0306  -14.6644 C   0  0  1  0  0  0  0  0  0  0  0  0
   19.6311  -20.2968  -13.5165 C   0  0  0  0  0  0  0  0  0  0  0  0
   18.4011  -19.6053  -13.9109 C   0  0  0  0  0  0  0  0  0  0  0  0
   17.1278  -20.0091  -13.6340 C   0  0  0  0  0  0  0  0  0  0  0  0
   16.3070  -19.0965  -14.1731 N   0  0  0  0  0  0  0  0  0  0  0  0
   17.0380  -18.1514  -14.7686 C   0  0  0  0  0  0  0  0  0  0  0  0
   18.3301  -18.4722  -14.6026 N   0  0  0  0  0  0  0  0  0  0  0  0
   21.7087  -21.2565  -14.2642 C   0  0  0  0  0  0  0  0  0  0  0  0
   21.9864  -21.9603  -13.2600 O   0  0  0  0  0  0  0  0  0  0  0  0
   27.8714  -16.4038  -17.6902 N   0  0  0  0  0  0  0  0  0  0  0  0
   27.9945  -17.7811  -17.4581 C   0  0  0  0  0  0  0  0  0  0  0  0
   28.8753  -18.4290  -18.1612 N   0  0  0  0  0  0  0  0  0  0  0  0
   27.1827  -18.4321  -16.4896 N   0  0  0  0  0  0  0  0  0  0  0  0
   27.4458  -19.8280  -16.2261 C   0  0  0  0  0  0  0  0  0  0  0  0
   26.5680  -20.3623  -15.1152 C   0  0  0  0  0  0  0  0  0  0  0  0
   25.1464  -20.2969  -15.5847 C   0  0  0  0  0  0  0  0  0  0  0  0
   24.1661  -20.7729  -14.5307 C   0  0  2  0  0  0  0  0  0  0  0  0
   22.8165  -20.7031  -14.9759 N   0  0  0  0  0  0  0  0  0  0  0  0
   24.4665  -20.1953  -13.2074 C   0  0  0  0  0  0  0  0  0  0  0  0
   23.7705  -19.1092  -12.9924 O   0  0  0  0  0  0  0  0  0  0  0  0
   28.9600  -19.4578  -18.0456 N   0  0  0  0  0  0  0  0  0  0  0  0
   25.3514  -20.6566  -12.2409 C   0  0  0  0  0  0  0  0  0  0  0  0
   26.2407  -21.7623  -12.2351 C   0  0  0  0  0  0  0  0  0  0  0  0
   26.1743  -22.2459  -10.7804 C   0  0  0  0  0  0  0  0  0  0  0  0
   25.4761  -21.1735  -10.0078 C   0  0  2  0  0  0  0  0  0  0  0  0
   25.5300  -20.0013  -10.9374 C   0  0  0  0  0  0  0  0  0  0  0  0
   26.8067  -19.2592  -10.8829 O   0  0  0  0  0  0  0  0  0  0  0  0
   27.6680  -19.2600  -11.7749 O   0  0  0  0  0  0  0  0  0  0  0  0
  2  1  1  1
  2  3  1  0
  4  3  1  0
  4  8  1  0
  5  6  1  0
  5  4  2  0
  6  7  1  0
  7  8  2  0
  9  2  1  0
 10  9  2  0
 12 11  1  0
 12 14  1  0
 13 12  2  0
 15 14  1  0
 16 15  1  0
 17 16  1  0
 18 17  1  6
 18 19  1  0
 19  9  1  0
 20 21  2  0
 20 18  1  0
 22 20  1  0
 23 22  1  0
 24 23  1  0
 25 24  1  0
 25 26  1  0
 26 22  1  0
 26 27  1  1
 28 27  2  0
 29 27  1  0
M  END
$$$$
