HRP.pdb
     RDKit          3D

 29 30  0  0  1  0  0  0  0  0999 V2000
   23.8395  -20.8527   -9.6673 N   0  0  0  0  0  0  0  0  0  0  0  0
   23.8612  -21.0223  -11.1070 C   0  0  1  0  0  0  0  0  0  0  0  0
   22.6150  -20.3591  -11.6578 C   0  0  0  0  0  0  0  0  0  0  0  0
   21.3884  -21.1028  -11.3591 C   0  0  0  0  0  0  0  0  0  0  0  0
   20.5740  -20.9105  -10.2816 C   0  0  0  0  0  0  0  0  0  0  0  0
   19.5720  -21.7943  -10.3919 N   0  0  0  0  0  0  0  0  0  0  0  0
   19.7494  -22.5174  -11.4999 C   0  0  0  0  0  0  0  0  0  0  0  0
   20.8729  -22.0849  -12.0920 N   0  0  0  0  0  0  0  0  0  0  0  0
   25.0214  -20.3240  -11.7208 C   0  0  0  0  0  0  0  0  0  0  0  0
   25.1332  -19.0741  -11.6411 O   0  0  0  0  0  0  0  0  0  0  0  0
   31.6614  -22.1791   -9.1973 N   0  0  0  0  0  0  0  0  0  0  0  0
   31.6637  -22.6037  -10.5336 C   0  0  0  0  0  0  0  0  0  0  0  0
   32.4582  -23.5836  -10.8476 N   0  0  0  0  0  0  0  0  0  0  0  0
   30.8261  -21.9796  -11.4978 N   0  0  0  0  0  0  0  0  0  0  0  0
   30.3173  -20.6631  -11.1892 C   0  0  0  0  0  0  0  0  0  0  0  0
   28.8118  -20.5988  -11.3288 C   0  0  0  0  0  0  0  0  0  0  0  0
   28.4737  -20.8745  -12.7625 C   0  0  0  0  0  0  0  0  0  0  0  0
   27.1000  -20.3584  -13.1429 C   0  0  2  0  0  0  0  0  0  0  0  0
   26.0590  -21.0092  -12.4236 N   0  0  0  0  0  0  0  0  0  0  0  0
   26.9423  -20.2570  -14.6058 C   0  0  0  0  0  0  0  0  0  0  0  0
   26.2052  -21.2305  -15.0742 O   0  0  0  0  0  0  0  0  0  0  0  0
   32.4951  -23.9114  -11.8326 N   0  0  0  0  0  0  0  0  0  0  0  0
   27.4629  -19.3017  -15.4696 C   0  0  0  0  0  0  0  0  0  0  0  0
   28.3690  -18.2323  -15.2486 C   0  0  0  0  0  0  0  0  0  0  0  0
   27.8316  -17.1330  -16.1745 C   0  0  0  0  0  0  0  0  0  0  0  0
   26.8339  -17.7868  -17.0754 C   0  0  1  0  0  0  0  0  0  0  0  0
   27.1276  -19.2441  -16.8995 C   0  0  0  0  0  0  0  0  0  0  0  0
   28.2492  -19.7278  -17.7312 O   0  0  0  0  0  0  0  0  0  0  0  0
   29.3293  -20.1499  -17.2921 O   0  0  0  0  0  0  0  0  0  0  0  0
  2  1  1  1
  2  3  1  0
  4  3  1  0
  4  8  1  0
  5  6  1  0
  5  4  2  0
  6  7  1  0
  7  8  2  0
  9  2  1  0
 10  9  2  0
 12 11  1  0
 12 14  1  0
 13 12  2  0
 15 14  1  0
 16 15  1  0
 17 16  1  0
 18 17  1  6
 18 19  1  0
 19  9  1  0
 20 21  2  0
 20 18  1  0
 22 20  1  0
 23 22  1  0
 24 23  1  0
 25 24  1  0
 25 26  1  0
 26 22  1  0
 26 27  1  6
 28 27  2  0
 29 27  1  0
M  END
$$$$
