TSY.pdb
     RDKit          3D

 26 26  0  0  1  0  0  0  0  0999 V2000
    7.8240  -12.1528   18.1817 C   0  0  0  0  0  0  0  0  0  0  0  0
    7.5567  -13.2886   19.1333 C   0  0  1  0  0  0  0  0  0  0  0  0
    7.1646  -14.4550   18.4924 O   0  0  0  0  0  0  0  0  0  0  0  0
    8.7465  -13.6107   19.9970 C   0  0  2  0  0  0  0  0  0  0  0  0
    9.8104  -14.1003   19.1654 N   0  0  0  0  0  0  0  0  0  0  0  0
    8.3661  -14.5975   21.0539 C   0  0  0  0  0  0  0  0  0  0  0  0
    7.5568  -14.2191   21.9340 O   0  0  0  0  0  0  0  0  0  0  0  0
   10.0954  -18.4643   21.4013 O   0  0  0  0  0  0  0  0  0  0  0  0
    8.7579  -18.2917   21.6975 C   0  0  0  0  0  0  0  0  0  0  0  0
    8.4442  -16.8573   22.1069 C   0  0  2  0  0  0  0  0  0  0  0  0
    8.8568  -15.9079   21.1170 N   0  0  0  0  0  0  0  0  0  0  0  0
    9.0098  -16.5339   23.4305 C   0  0  0  0  0  0  0  0  0  0  0  0
   10.1675  -16.0045   23.4787 O   0  0  0  0  0  0  0  0  0  0  0  0
    6.0671  -10.6952   25.9458 O   0  0  0  0  0  0  0  0  0  0  0  0
    6.4563  -12.0139   26.1481 C   0  0  0  0  0  0  0  0  0  0  0  0
    7.7190  -12.2776   26.6324 C   0  0  0  0  0  0  0  0  0  0  0  0
    8.1135  -13.5880   26.8363 C   0  0  0  0  0  0  0  0  0  0  0  0
    7.2831  -14.6626   26.5711 C   0  0  0  0  0  0  0  0  0  0  0  0
    7.7860  -15.9942   26.8164 C   0  0  0  0  0  0  0  0  0  0  0  0
    8.9315  -16.4362   25.9594 C   0  0  2  0  0  0  0  0  0  0  0  0
    8.3707  -16.7638   24.6581 N   0  0  0  0  0  0  0  0  0  0  0  0
    9.6327  -17.6217   26.4543 C   0  0  0  0  0  0  0  0  0  0  0  0
   10.5165  -17.5907   27.5067 O   0  0  0  0  0  0  0  0  0  0  0  0
    6.0193  -14.3938   26.0861 C   0  0  0  0  0  0  0  0  0  0  0  0
    5.6365  -13.0925   25.8870 C   0  0  0  0  0  0  0  0  0  0  0  0
    9.4435  -18.7630   25.9105 O   0  0  0  0  0  0  0  0  0  0  0  0
  2  1  1  6
  3  2  1  0
  4  2  1  0
  4  6  1  0
  4  5  1  6
  6  7  2  0
  9  8  1  0
 10  9  1  6
 11  6  1  0
 11 10  1  0
 12 10  1  0
 12 21  1  0
 13 12  2  0
 15 14  1  0
 16 15  2  0
 17 16  1  0
 18 24  1  0
 18 17  2  0
 19 18  1  0
 20 22  1  0
 20 21  1  0
 20 19  1  1
 22 23  1  0
 24 25  2  0
 25 15  1  0
 26 22  2  0
M  END
$$$$
