TSY.pdb
     RDKit          3D

 26 26  0  0  1  0  0  0  0  0999 V2000
   10.5860  -13.3884   20.2317 C   0  0  0  0  0  0  0  0  0  0  0  0
    9.3544  -12.8817   19.5292 C   0  0  1  0  0  0  0  0  0  0  0  0
    9.6423  -12.1440   18.3900 O   0  0  0  0  0  0  0  0  0  0  0  0
    8.4145  -13.9906   19.1393 C   0  0  2  0  0  0  0  0  0  0  0  0
    7.2590  -13.4232   18.5018 N   0  0  0  0  0  0  0  0  0  0  0  0
    8.0464  -14.8023   20.3398 C   0  0  0  0  0  0  0  0  0  0  0  0
    7.1531  -14.3477   21.0935 O   0  0  0  0  0  0  0  0  0  0  0  0
    9.7008  -18.6293   21.1698 O   0  0  0  0  0  0  0  0  0  0  0  0
    8.4096  -18.3128   21.5427 C   0  0  0  0  0  0  0  0  0  0  0  0
    8.2378  -16.8193   21.7947 C   0  0  2  0  0  0  0  0  0  0  0  0
    8.6362  -16.0296   20.6681 N   0  0  0  0  0  0  0  0  0  0  0  0
    8.9335  -16.3920   23.0234 C   0  0  0  0  0  0  0  0  0  0  0  0
   10.0865  -15.8623   22.9106 O   0  0  0  0  0  0  0  0  0  0  0  0
    5.8373  -10.6308   26.2377 O   0  0  0  0  0  0  0  0  0  0  0  0
    6.4288  -11.8857   26.3205 C   0  0  0  0  0  0  0  0  0  0  0  0
    5.6484  -13.0105   26.1654 C   0  0  0  0  0  0  0  0  0  0  0  0
    6.2304  -14.2632   26.2466 C   0  0  0  0  0  0  0  0  0  0  0  0
    7.5827  -14.4393   26.4804 C   0  0  0  0  0  0  0  0  0  0  0  0
    8.0966  -15.7874   26.5482 C   0  0  0  0  0  0  0  0  0  0  0  0
    9.1384  -16.1492   25.5354 C   0  0  2  0  0  0  0  0  0  0  0  0
    8.4245  -16.5219   24.3244 N   0  0  0  0  0  0  0  0  0  0  0  0
    9.9861  -17.2789   25.9193 C   0  0  0  0  0  0  0  0  0  0  0  0
   11.0202  -17.1744   26.8189 O   0  0  0  0  0  0  0  0  0  0  0  0
    8.3605  -13.3098   26.6352 C   0  0  0  0  0  0  0  0  0  0  0  0
    7.7759  -12.0725   26.5532 C   0  0  0  0  0  0  0  0  0  0  0  0
    9.7904  -18.4382   25.4175 O   0  0  0  0  0  0  0  0  0  0  0  0
  2  1  1  6
  3  2  1  0
  4  2  1  0
  4  6  1  0
  4  5  1  1
  6  7  2  0
  9  8  1  0
 10  9  1  6
 11  6  1  0
 11 10  1  0
 12 10  1  0
 12 21  1  0
 13 12  2  0
 15 14  1  0
 16 15  2  0
 17 16  1  0
 18 24  1  0
 18 17  2  0
 19 18  1  0
 20 22  1  0
 20 21  1  0
 20 19  1  1
 22 23  1  0
 24 25  2  0
 25 15  1  0
 26 22  2  0
M  END
$$$$
