TSY.pdb
     RDKit          3D

 26 26  0  0  1  0  0  0  0  0999 V2000
   10.6742  -13.6221   19.8396 C   0  0  0  0  0  0  0  0  0  0  0  0
    9.3928  -12.9850   19.3714 C   0  0  1  0  0  0  0  0  0  0  0  0
    9.5362  -12.2833   18.1832 O   0  0  0  0  0  0  0  0  0  0  0  0
    8.2834  -13.9856   19.1889 C   0  0  2  0  0  0  0  0  0  0  0  0
    7.1188  -13.3084   18.6902 N   0  0  0  0  0  0  0  0  0  0  0  0
    8.0079  -14.6926   20.4772 C   0  0  0  0  0  0  0  0  0  0  0  0
    7.4806  -14.0277   21.4006 O   0  0  0  0  0  0  0  0  0  0  0  0
    9.1432  -18.7227   21.2965 O   0  0  0  0  0  0  0  0  0  0  0  0
    7.9120  -18.2518   21.7075 C   0  0  0  0  0  0  0  0  0  0  0  0
    7.9141  -16.7396   21.8995 C   0  0  2  0  0  0  0  0  0  0  0  0
    8.3021  -16.0421   20.7101 N   0  0  0  0  0  0  0  0  0  0  0  0
    8.7436  -16.3393   23.0519 C   0  0  0  0  0  0  0  0  0  0  0  0
    9.8968  -15.8487   22.8236 O   0  0  0  0  0  0  0  0  0  0  0  0
    5.6737  -10.7391   26.0575 O   0  0  0  0  0  0  0  0  0  0  0  0
    6.3551  -11.9420   26.1996 C   0  0  0  0  0  0  0  0  0  0  0  0
    5.6395  -13.1164   26.2837 C   0  0  0  0  0  0  0  0  0  0  0  0
    6.3110  -14.3178   26.4252 C   0  0  0  0  0  0  0  0  0  0  0  0
    7.6912  -14.3935   26.4871 C   0  0  0  0  0  0  0  0  0  0  0  0
    8.3003  -15.6947   26.6357 C   0  0  0  0  0  0  0  0  0  0  0  0
    9.2137  -16.1270   25.5308 C   0  0  2  0  0  0  0  0  0  0  0  0
    8.3635  -16.4554   24.3975 N   0  0  0  0  0  0  0  0  0  0  0  0
   10.0191  -17.3088   25.8417 C   0  0  0  0  0  0  0  0  0  0  0  0
   11.0846  -17.2882   26.7100 O   0  0  0  0  0  0  0  0  0  0  0  0
    8.4038  -13.2147   26.4024 C   0  0  0  0  0  0  0  0  0  0  0  0
    7.7306  -12.0287   26.2623 C   0  0  0  0  0  0  0  0  0  0  0  0
    9.7537  -18.4366   25.3016 O   0  0  0  0  0  0  0  0  0  0  0  0
  2  1  1  6
  3  2  1  0
  4  2  1  0
  4  6  1  0
  4  5  1  1
  6  7  2  0
  9  8  1  0
 10  9  1  6
 11  6  1  0
 11 10  1  0
 12 10  1  0
 12 21  1  0
 13 12  2  0
 15 14  1  0
 16 15  2  0
 17 16  1  0
 18 24  1  0
 18 17  2  0
 19 18  1  0
 20 22  1  0
 20 21  1  0
 20 19  1  1
 22 23  1  0
 24 25  2  0
 25 15  1  0
 26 22  2  0
M  END
$$$$
