TSY.pdb
     RDKit          3D

 26 26  0  0  1  0  0  0  0  0999 V2000
    9.4886  -12.6556   20.5318 C   0  0  0  0  0  0  0  0  0  0  0  0
    8.3856  -12.8424   19.5241 C   0  0  1  0  0  0  0  0  0  0  0  0
    8.5734  -12.0996   18.3675 O   0  0  0  0  0  0  0  0  0  0  0  0
    8.2041  -14.2827   19.1268 C   0  0  2  0  0  0  0  0  0  0  0  0
    7.1010  -14.3812   18.2120 N   0  0  0  0  0  0  0  0  0  0  0  0
    7.9991  -15.1318   20.3404 C   0  0  0  0  0  0  0  0  0  0  0  0
    6.8840  -15.0664   20.9103 O   0  0  0  0  0  0  0  0  0  0  0  0
   10.6208  -18.2542   21.4311 O   0  0  0  0  0  0  0  0  0  0  0  0
    9.2739  -18.2672   21.7345 C   0  0  0  0  0  0  0  0  0  0  0  0
    8.7301  -16.8644   21.9792 C   0  0  2  0  0  0  0  0  0  0  0  0
    8.9717  -15.9880   20.8723 N   0  0  0  0  0  0  0  0  0  0  0  0
    9.2449  -16.2941   23.2386 C   0  0  0  0  0  0  0  0  0  0  0  0
   10.3210  -15.6136   23.1971 O   0  0  0  0  0  0  0  0  0  0  0  0
    5.7948  -10.5386   25.9752 O   0  0  0  0  0  0  0  0  0  0  0  0
    6.3969  -11.7793   26.1472 C   0  0  0  0  0  0  0  0  0  0  0  0
    5.6232  -12.9180   26.0895 C   0  0  0  0  0  0  0  0  0  0  0  0
    6.2157  -14.1567   26.2598 C   0  0  0  0  0  0  0  0  0  0  0  0
    7.5721  -14.3051   26.4891 C   0  0  0  0  0  0  0  0  0  0  0  0
    8.0972  -15.6405   26.6543 C   0  0  0  0  0  0  0  0  0  0  0  0
    9.2332  -16.0197   25.7556 C   0  0  2  0  0  0  0  0  0  0  0  0
    8.6402  -16.4403   24.4961 N   0  0  0  0  0  0  0  0  0  0  0  0
   10.0533  -17.1250   26.2538 C   0  0  0  0  0  0  0  0  0  0  0  0
   10.0932  -18.3628   25.6575 O   0  0  0  0  0  0  0  0  0  0  0  0
    8.3431  -13.1619   26.5461 C   0  0  0  0  0  0  0  0  0  0  0  0
    7.7481  -11.9385   26.3763 C   0  0  0  0  0  0  0  0  0  0  0  0
   10.7838  -16.9755   27.2921 O   0  0  0  0  0  0  0  0  0  0  0  0
  2  1  1  1
  3  2  1  0
  4  2  1  0
  4  6  1  0
  4  5  1  6
  6  7  2  0
  9  8  1  0
 10  9  1  6
 11  6  1  0
 11 10  1  0
 12 10  1  0
 12 21  1  0
 13 12  2  0
 15 14  1  0
 16 15  2  0
 17 16  1  0
 18 24  1  0
 18 17  2  0
 19 18  1  0
 20 22  1  0
 20 21  1  0
 20 19  1  1
 22 23  1  0
 24 25  2  0
 25 15  1  0
 26 22  2  0
M  END
$$$$
