TSY.pdb
     RDKit          3D

 26 26  0  0  1  0  0  0  0  0999 V2000
    9.6367  -12.6485   20.5505 C   0  0  0  0  0  0  0  0  0  0  0  0
    8.4717  -12.7986   19.6084 C   0  0  1  0  0  0  0  0  0  0  0  0
    8.5979  -12.0305   18.4600 O   0  0  0  0  0  0  0  0  0  0  0  0
    8.2478  -14.2268   19.1898 C   0  0  2  0  0  0  0  0  0  0  0  0
    7.1000  -14.2882   18.3284 N   0  0  0  0  0  0  0  0  0  0  0  0
    8.0886  -15.0994   20.3935 C   0  0  0  0  0  0  0  0  0  0  0  0
    7.0193  -15.0016   21.0414 O   0  0  0  0  0  0  0  0  0  0  0  0
   10.7482  -18.2527   21.3278 O   0  0  0  0  0  0  0  0  0  0  0  0
    9.4157  -18.2854   21.6882 C   0  0  0  0  0  0  0  0  0  0  0  0
    8.8603  -16.8901   21.9490 C   0  0  2  0  0  0  0  0  0  0  0  0
    9.0559  -16.0112   20.8351 N   0  0  0  0  0  0  0  0  0  0  0  0
    9.4054  -16.3118   23.1919 C   0  0  0  0  0  0  0  0  0  0  0  0
   10.4072  -15.5299   23.1047 O   0  0  0  0  0  0  0  0  0  0  0  0
    5.6282  -10.9543   25.7936 O   0  0  0  0  0  0  0  0  0  0  0  0
    6.3461  -12.1225   26.0201 C   0  0  0  0  0  0  0  0  0  0  0  0
    5.7651  -13.3378   25.7306 C   0  0  0  0  0  0  0  0  0  0  0  0
    6.4738  -14.5051   25.9535 C   0  0  0  0  0  0  0  0  0  0  0  0
    7.7606  -14.5061   26.4622 C   0  0  0  0  0  0  0  0  0  0  0  0
    8.4183  -15.7767   26.6599 C   0  0  0  0  0  0  0  0  0  0  0  0
    9.5315  -16.0992   25.7118 C   0  0  2  0  0  0  0  0  0  0  0  0
    8.9058  -16.5543   24.4804 N   0  0  0  0  0  0  0  0  0  0  0  0
   10.4295  -17.1585   26.1740 C   0  0  0  0  0  0  0  0  0  0  0  0
   10.4958  -18.4001   25.5879 O   0  0  0  0  0  0  0  0  0  0  0  0
    8.3385  -13.2866   26.7507 C   0  0  0  0  0  0  0  0  0  0  0  0
    7.6293  -12.1348   26.5269 C   0  0  0  0  0  0  0  0  0  0  0  0
   11.2080  -16.9624   27.1688 O   0  0  0  0  0  0  0  0  0  0  0  0
  2  1  1  1
  3  2  1  0
  4  2  1  0
  4  6  1  0
  4  5  1  6
  6  7  2  0
  9  8  1  0
 10  9  1  6
 11  6  1  0
 11 10  1  0
 12 10  1  0
 12 21  1  0
 13 12  2  0
 15 14  1  0
 16 15  2  0
 17 16  1  0
 18 24  1  0
 18 17  2  0
 19 18  1  0
 20 22  1  0
 20 21  1  0
 20 19  1  1
 22 23  1  0
 24 25  2  0
 25 15  1  0
 26 22  2  0
M  END
$$$$
