TSY.pdb
     RDKit          3D

 26 26  0  0  1  0  0  0  0  0999 V2000
    9.1672  -12.8135   19.5570 C   0  0  0  0  0  0  0  0  0  0  0  0
    8.4199  -13.3811   18.3795 C   0  0  1  0  0  0  0  0  0  0  0  0
    8.8944  -12.9200   17.1601 O   0  0  0  0  0  0  0  0  0  0  0  0
    8.4464  -14.8857   18.3495 C   0  0  2  0  0  0  0  0  0  0  0  0
    7.7458  -15.3435   17.1821 N   0  0  0  0  0  0  0  0  0  0  0  0
    7.8552  -15.4383   19.6067 C   0  0  0  0  0  0  0  0  0  0  0  0
    6.6386  -15.7422   19.5888 O   0  0  0  0  0  0  0  0  0  0  0  0
    8.5482  -18.5714   21.4101 O   0  0  0  0  0  0  0  0  0  0  0  0
    7.5168  -17.6822   21.6381 C   0  0  0  0  0  0  0  0  0  0  0  0
    8.0293  -16.2805   21.9481 C   0  0  2  0  0  0  0  0  0  0  0  0
    8.5750  -15.6343   20.7922 N   0  0  0  0  0  0  0  0  0  0  0  0
    8.9937  -16.2891   23.0645 C   0  0  0  0  0  0  0  0  0  0  0  0
   10.1785  -16.6968   22.8349 O   0  0  0  0  0  0  0  0  0  0  0  0
    4.9266  -11.7488   26.9114 O   0  0  0  0  0  0  0  0  0  0  0  0
    6.1408  -12.3813   26.6724 C   0  0  0  0  0  0  0  0  0  0  0  0
    6.4123  -12.8654   25.4113 C   0  0  0  0  0  0  0  0  0  0  0  0
    7.6191  -13.4962   25.1660 C   0  0  0  0  0  0  0  0  0  0  0  0
    8.5807  -13.6651   26.1464 C   0  0  0  0  0  0  0  0  0  0  0  0
    9.8094  -14.3370   25.7927 C   0  0  0  0  0  0  0  0  0  0  0  0
    9.6925  -15.7890   25.4462 C   0  0  2  0  0  0  0  0  0  0  0  0
    8.7114  -15.8801   24.3765 N   0  0  0  0  0  0  0  0  0  0  0  0
    9.2324  -16.6366   26.5471 C   0  0  0  0  0  0  0  0  0  0  0  0
    8.0919  -17.4014   26.4842 O   0  0  0  0  0  0  0  0  0  0  0  0
    8.3045  -13.1787   27.4080 C   0  0  0  0  0  0  0  0  0  0  0  0
    7.1064  -12.5550   27.6426 C   0  0  0  0  0  0  0  0  0  0  0  0
    9.8934  -16.6987   27.6395 O   0  0  0  0  0  0  0  0  0  0  0  0
  2  1  1  1
  3  2  1  0
  4  2  1  0
  4  6  1  0
  4  5  1  6
  6  7  2  0
  9  8  1  0
 10  9  1  6
 11  6  1  0
 11 10  1  0
 12 10  1  0
 12 21  1  0
 13 12  2  0
 15 14  1  0
 16 15  2  0
 17 16  1  0
 18 24  1  0
 18 17  2  0
 19 18  1  0
 20 22  1  0
 20 21  1  0
 20 19  1  1
 22 23  1  0
 24 25  2  0
 25 15  1  0
 26 22  2  0
M  END
$$$$
