TSY.pdb
     RDKit          3D

 26 26  0  0  1  0  0  0  0  0999 V2000
   10.1857  -13.8051   17.1938 C   0  0  0  0  0  0  0  0  0  0  0  0
    9.6560  -14.1959   18.5479 C   0  0  1  0  0  0  0  0  0  0  0  0
   10.2441  -13.4894   19.5871 O   0  0  0  0  0  0  0  0  0  0  0  0
    8.1645  -14.0253   18.6559 C   0  0  2  0  0  0  0  0  0  0  0  0
    7.8374  -12.6380   18.4779 N   0  0  0  0  0  0  0  0  0  0  0  0
    7.6781  -14.5485   19.9694 C   0  0  0  0  0  0  0  0  0  0  0  0
    7.4704  -13.7148   20.8828 O   0  0  0  0  0  0  0  0  0  0  0  0
    7.6740  -18.6869   21.0990 O   0  0  0  0  0  0  0  0  0  0  0  0
    6.6324  -17.8622   21.4750 C   0  0  0  0  0  0  0  0  0  0  0  0
    7.0522  -16.3976   21.5221 C   0  0  2  0  0  0  0  0  0  0  0  0
    7.4434  -15.9034   20.2359 N   0  0  0  0  0  0  0  0  0  0  0  0
    8.1049  -16.1662   22.5295 C   0  0  0  0  0  0  0  0  0  0  0  0
    9.2971  -15.9754   22.1232 O   0  0  0  0  0  0  0  0  0  0  0  0
    6.1032  -10.2596   26.2062 O   0  0  0  0  0  0  0  0  0  0  0  0
    6.6686  -11.5287   26.1762 C   0  0  0  0  0  0  0  0  0  0  0  0
    5.9643  -12.5932   26.6952 C   0  0  0  0  0  0  0  0  0  0  0  0
    6.5208  -13.8597   26.6688 C   0  0  0  0  0  0  0  0  0  0  0  0
    7.7732  -14.1087   26.1358 C   0  0  0  0  0  0  0  0  0  0  0  0
    8.2684  -15.4654   26.1542 C   0  0  0  0  0  0  0  0  0  0  0  0
    8.9475  -15.9380   24.9062 C   0  0  2  0  0  0  0  0  0  0  0  0
    7.9002  -16.1382   23.9172 N   0  0  0  0  0  0  0  0  0  0  0  0
    9.6691  -17.2028   25.0542 C   0  0  0  0  0  0  0  0  0  0  0  0
   10.9176  -17.2968   25.6216 O   0  0  0  0  0  0  0  0  0  0  0  0
    8.4750  -13.0396   25.6171 C   0  0  0  0  0  0  0  0  0  0  0  0
    7.9162  -11.7881   25.6473 C   0  0  0  0  0  0  0  0  0  0  0  0
    9.1498  -18.2985   24.6496 O   0  0  0  0  0  0  0  0  0  0  0  0
  2  1  1  6
  3  2  1  0
  4  2  1  0
  4  6  1  0
  4  5  1  1
  6  7  2  0
  9  8  1  0
 10  9  1  6
 11  6  1  0
 11 10  1  0
 12 10  1  0
 12 21  1  0
 13 12  2  0
 15 14  1  0
 16 15  2  0
 17 16  1  0
 18 24  1  0
 18 17  2  0
 19 18  1  0
 20 22  1  0
 20 21  1  0
 20 19  1  1
 22 23  1  0
 24 25  2  0
 25 15  1  0
 26 22  2  0
M  END
$$$$
