TSY.pdb
     RDKit          3D

 26 26  0  0  1  0  0  0  0  0999 V2000
   10.9404  -14.5281   19.3852 C   0  0  0  0  0  0  0  0  0  0  0  0
    9.9814  -13.5348   18.7845 C   0  0  1  0  0  0  0  0  0  0  0  0
   10.3223  -13.1620   17.4924 O   0  0  0  0  0  0  0  0  0  0  0  0
    8.5640  -14.0405   18.7633 C   0  0  2  0  0  0  0  0  0  0  0  0
    7.7103  -13.0199   18.2222 N   0  0  0  0  0  0  0  0  0  0  0  0
    8.1408  -14.4503   20.1376 C   0  0  0  0  0  0  0  0  0  0  0  0
    8.0159  -13.5463   20.9978 O   0  0  0  0  0  0  0  0  0  0  0  0
    7.5012  -18.4132   20.9880 O   0  0  0  0  0  0  0  0  0  0  0  0
    7.0534  -17.5636   21.9800 C   0  0  0  0  0  0  0  0  0  0  0  0
    7.6858  -16.1806   21.8756 C   0  0  2  0  0  0  0  0  0  0  0  0
    7.8783  -15.7731   20.5160 N   0  0  0  0  0  0  0  0  0  0  0  0
    8.9423  -16.0982   22.6443 C   0  0  0  0  0  0  0  0  0  0  0  0
    9.9006  -16.8716   22.3184 O   0  0  0  0  0  0  0  0  0  0  0  0
    5.8370  -10.6944   27.0029 O   0  0  0  0  0  0  0  0  0  0  0  0
    6.4618  -11.9073   26.7388 C   0  0  0  0  0  0  0  0  0  0  0  0
    5.8016  -12.8570   25.9901 C   0  0  0  0  0  0  0  0  0  0  0  0
    6.4174  -14.0669   25.7231 C   0  0  0  0  0  0  0  0  0  0  0  0
    7.6870  -14.3704   26.1819 C   0  0  0  0  0  0  0  0  0  0  0  0
    8.2451  -15.6607   25.8507 C   0  0  0  0  0  0  0  0  0  0  0  0
    9.5213  -15.6475   25.0676 C   0  0  2  0  0  0  0  0  0  0  0  0
    9.1737  -15.2271   23.7195 N   0  0  0  0  0  0  0  0  0  0  0  0
   10.1840  -16.9490   24.9723 C   0  0  0  0  0  0  0  0  0  0  0  0
   11.5178  -17.0962   24.6743 O   0  0  0  0  0  0  0  0  0  0  0  0
    8.3446  -13.4163   26.9314 C   0  0  0  0  0  0  0  0  0  0  0  0
    7.7272  -12.2201   27.1913 C   0  0  0  0  0  0  0  0  0  0  0  0
    9.5277  -18.0283   25.1683 O   0  0  0  0  0  0  0  0  0  0  0  0
  2  1  1  6
  3  2  1  0
  4  2  1  0
  4  6  1  0
  4  5  1  1
  6  7  2  0
  9  8  1  0
 10  9  1  6
 11  6  1  0
 11 10  1  0
 12 10  1  0
 12 21  1  0
 13 12  2  0
 15 14  1  0
 16 15  2  0
 17 16  1  0
 18 24  1  0
 18 17  2  0
 19 18  1  0
 20 22  1  0
 20 21  1  0
 20 19  1  1
 22 23  1  0
 24 25  2  0
 25 15  1  0
 26 22  2  0
M  END
$$$$
