ENN.pdb
     RDKit          3D

 26 25  0  0  1  0  0  0  0  0999 V2000
   12.8319   -9.8370  -10.0356 N   0  0  0  0  0  0  0  0  0  0  0  0
   14.3012   -9.7715   -9.9685 C   0  0  1  0  0  0  0  0  0  0  0  0
   14.8999  -10.7205  -10.9529 C   0  0  0  0  0  0  0  0  0  0  0  0
   14.6330  -12.1435  -10.5678 C   0  0  0  0  0  0  0  0  0  0  0  0
   15.2277  -13.1021  -11.5369 C   0  0  0  0  0  0  0  0  0  0  0  0
   15.2029  -14.3452  -11.4208 O   0  0  0  0  0  0  0  0  0  0  0  0
   14.6767   -8.3508  -10.1638 C   0  0  0  0  0  0  0  0  0  0  0  0
   14.1528   -7.6322  -11.0829 O   0  0  0  0  0  0  0  0  0  0  0  0
   15.8782  -12.6230  -12.6867 O   0  0  0  0  0  0  0  0  0  0  0  0
   13.5425   -5.2519   -9.1596 N   0  0  0  0  0  0  0  0  0  0  0  0
   14.5060   -5.1323   -8.1279 C   0  0  0  0  0  0  0  0  0  0  0  0
   14.1072   -4.5569   -7.0751 O   0  0  0  0  0  0  0  0  0  0  0  0
   15.8923   -5.6429   -8.2610 C   0  0  0  0  0  0  0  0  0  0  0  0
   16.0487   -6.4016   -9.5563 C   0  0  2  0  0  0  0  0  0  0  0  0
   15.6400   -7.7635   -9.3158 N   0  0  0  0  0  0  0  0  0  0  0  0
   17.4824   -6.4477   -9.9843 C   0  0  0  0  0  0  0  0  0  0  0  0
   18.3119   -7.1729   -9.3587 O   0  0  0  0  0  0  0  0  0  0  0  0
   21.8310   -7.9209  -12.2143 N   0  0  0  0  0  0  0  0  0  0  0  0
   20.6747   -7.5339  -12.9361 C   0  0  0  0  0  0  0  0  0  0  0  0
   20.7569   -7.3167  -14.1854 O   0  0  0  0  0  0  0  0  0  0  0  0
   19.3958   -7.3935  -12.2067 C   0  0  0  0  0  0  0  0  0  0  0  0
   19.2994   -6.0003  -11.6410 C   0  0  2  0  0  0  0  0  0  0  0  0
   18.0101   -5.7179  -11.0747 N   0  0  0  0  0  0  0  0  0  0  0  0
   19.5638   -5.0694  -12.7967 C   0  0  0  0  0  0  0  0  0  0  0  0
   18.6699   -4.7455  -13.6046 O   0  0  0  0  0  0  0  0  0  0  0  0
   20.8369   -4.5630  -12.9610 O   0  0  0  0  0  0  0  0  0  0  0  0
  2  1  1  6
  3  2  1  0
  4  3  1  0
  5  4  1  0
  5  6  2  0
  7  2  1  0
  7  8  2  0
  9  5  1  0
 10 11  1  0
 11 13  1  0
 12 11  2  0
 14 13  1  1
 14 15  1  0
 15  7  1  0
 16 14  1  0
 17 16  2  0
 19 21  1  0
 19 18  1  0
 20 19  2  0
 22 23  1  0
 22 21  1  6
 23 16  1  0
 24 22  1  0
 25 24  2  0
 26 24  1  0
M  END
$$$$
