ENN.pdb
     RDKit          3D

 26 25  0  0  1  0  0  0  0  0999 V2000
   21.6321  -14.1984  -18.2425 N   0  0  0  0  0  0  0  0  0  0  0  0
   21.0742  -14.0996  -16.8835 C   0  0  1  0  0  0  0  0  0  0  0  0
   21.0767  -15.4425  -16.2319 C   0  0  0  0  0  0  0  0  0  0  0  0
   20.0917  -16.3647  -16.8830 C   0  0  0  0  0  0  0  0  0  0  0  0
   18.7971  -16.4005  -16.1520 C   0  0  0  0  0  0  0  0  0  0  0  0
   17.8262  -15.6487  -16.3787 O   0  0  0  0  0  0  0  0  0  0  0  0
   21.8565  -13.0600  -16.1731 C   0  0  0  0  0  0  0  0  0  0  0  0
   21.6243  -12.7532  -14.9535 O   0  0  0  0  0  0  0  0  0  0  0  0
   18.6014  -17.3328  -15.1190 O   0  0  0  0  0  0  0  0  0  0  0  0
   26.8973  -10.6075  -14.9003 N   0  0  0  0  0  0  0  0  0  0  0  0
   25.8505  -10.4098  -15.8340 C   0  0  0  0  0  0  0  0  0  0  0  0
   25.6180   -9.2063  -16.1441 O   0  0  0  0  0  0  0  0  0  0  0  0
   25.0716  -11.5301  -16.4160 C   0  0  0  0  0  0  0  0  0  0  0  0
   23.5959  -11.3206  -16.1786 C   0  0  2  0  0  0  0  0  0  0  0  0
   22.8909  -12.3823  -16.8534 N   0  0  0  0  0  0  0  0  0  0  0  0
   23.1293  -10.0347  -16.7865 C   0  0  0  0  0  0  0  0  0  0  0  0
   22.9856   -9.9375  -18.0416 O   0  0  0  0  0  0  0  0  0  0  0  0
   20.4882   -5.8239  -17.4855 N   0  0  0  0  0  0  0  0  0  0  0  0
   19.8393   -7.0793  -17.3823 C   0  0  0  0  0  0  0  0  0  0  0  0
   18.6373   -7.2000  -17.7766 O   0  0  0  0  0  0  0  0  0  0  0  0
   20.5877   -8.2213  -16.8137 C   0  0  0  0  0  0  0  0  0  0  0  0
   22.0166   -7.8068  -16.5755 C   0  0  2  0  0  0  0  0  0  0  0  0
   22.8231   -8.8701  -16.0448 N   0  0  0  0  0  0  0  0  0  0  0  0
   21.9545   -6.6712  -15.5861 C   0  0  0  0  0  0  0  0  0  0  0  0
   22.0421   -6.8589  -14.3557 O   0  0  0  0  0  0  0  0  0  0  0  0
   21.7954   -5.3860  -16.0626 O   0  0  0  0  0  0  0  0  0  0  0  0
  2  1  1  6
  3  2  1  0
  4  3  1  0
  5  4  1  0
  5  6  2  0
  7  2  1  0
  7  8  2  0
  9  5  1  0
 10 11  1  0
 11 13  1  0
 12 11  2  0
 14 13  1  6
 14 15  1  0
 15  7  1  0
 16 14  1  0
 17 16  2  0
 19 21  1  0
 19 18  1  0
 20 19  2  0
 22 23  1  0
 22 21  1  1
 23 16  1  0
 24 22  1  0
 25 24  2  0
 26 24  1  0
M  END
$$$$
