ENN.pdb
     RDKit          3D

 26 25  0  0  1  0  0  0  0  0999 V2000
   19.0086  -10.9374  -16.9764 N   0  0  0  0  0  0  0  0  0  0  0  0
   18.0858  -10.2066  -16.0920 C   0  0  1  0  0  0  0  0  0  0  0  0
   17.4916  -11.1405  -15.0907 C   0  0  0  0  0  0  0  0  0  0  0  0
   16.6173  -12.1620  -15.7517 C   0  0  0  0  0  0  0  0  0  0  0  0
   16.0436  -13.1208  -14.7702 C   0  0  0  0  0  0  0  0  0  0  0  0
   15.2958  -12.8105  -13.8196 O   0  0  0  0  0  0  0  0  0  0  0  0
   18.8509   -9.0762  -15.5136 C   0  0  0  0  0  0  0  0  0  0  0  0
   18.7326   -8.7361  -14.2865 O   0  0  0  0  0  0  0  0  0  0  0  0
   16.3351  -14.4914  -14.8773 O   0  0  0  0  0  0  0  0  0  0  0  0
   21.9621   -9.3067  -14.6003 N   0  0  0  0  0  0  0  0  0  0  0  0
   22.6151   -8.4426  -15.5134 C   0  0  0  0  0  0  0  0  0  0  0  0
   23.8527   -8.6498  -15.6686 O   0  0  0  0  0  0  0  0  0  0  0  0
   21.9068   -7.3635  -16.2443 C   0  0  0  0  0  0  0  0  0  0  0  0
   20.4817   -7.2512  -15.7600 C   0  0  2  0  0  0  0  0  0  0  0  0
   19.7392   -8.3468  -16.3327 N   0  0  0  0  0  0  0  0  0  0  0  0
   19.8431   -5.9898  -16.2518 C   0  0  0  0  0  0  0  0  0  0  0  0
   19.5783   -5.8466  -17.4825 O   0  0  0  0  0  0  0  0  0  0  0  0
   16.5600   -1.0081  -14.7039 N   0  0  0  0  0  0  0  0  0  0  0  0
   17.2248   -1.9490  -15.5287 C   0  0  0  0  0  0  0  0  0  0  0  0
   17.1543   -1.8376  -16.7926 O   0  0  0  0  0  0  0  0  0  0  0  0
   17.9876   -3.0419  -14.8876 C   0  0  0  0  0  0  0  0  0  0  0  0
   18.8423   -3.7232  -15.9247 C   0  0  2  0  0  0  0  0  0  0  0  0
   19.4966   -4.8986  -15.4216 N   0  0  0  0  0  0  0  0  0  0  0  0
   19.8727   -2.7044  -16.3404 C   0  0  0  0  0  0  0  0  0  0  0  0
   20.9685   -2.5932  -15.7543 O   0  0  0  0  0  0  0  0  0  0  0  0
   19.5888   -1.8713  -17.4031 O   0  0  0  0  0  0  0  0  0  0  0  0
  2  1  1  6
  3  2  1  0
  4  3  1  0
  5  4  1  0
  5  6  2  0
  7  2  1  0
  7  8  2  0
  9  5  1  0
 10 11  1  0
 11 13  1  0
 12 11  2  0
 14 13  1  6
 14 15  1  0
 15  7  1  0
 16 14  1  0
 17 16  2  0
 19 21  1  0
 19 18  1  0
 20 19  2  0
 22 23  1  0
 22 21  1  1
 23 16  1  0
 24 22  1  0
 25 24  2  0
 26 24  1  0
M  END
$$$$
