ENN.pdb
     RDKit          3D

 26 25  0  0  1  0  0  0  0  0999 V2000
   28.0334  -21.2625  -15.5841 N   0  0  0  0  0  0  0  0  0  0  0  0
   27.4613  -20.2997  -14.6283 C   0  0  1  0  0  0  0  0  0  0  0  0
   27.2829  -18.9719  -15.2862 C   0  0  0  0  0  0  0  0  0  0  0  0
   26.7503  -19.1221  -16.6785 C   0  0  0  0  0  0  0  0  0  0  0  0
   25.9152  -17.9597  -17.0822 C   0  0  0  0  0  0  0  0  0  0  0  0
   25.2160  -17.2765  -16.3053 O   0  0  0  0  0  0  0  0  0  0  0  0
   26.2160  -20.9071  -14.1011 C   0  0  0  0  0  0  0  0  0  0  0  0
   25.6092  -21.8497  -14.7165 O   0  0  0  0  0  0  0  0  0  0  0  0
   25.8757  -17.5596  -18.4288 O   0  0  0  0  0  0  0  0  0  0  0  0
   26.2251  -20.7936   -9.0696 N   0  0  0  0  0  0  0  0  0  0  0  0
   25.5918  -21.3886  -10.1884 C   0  0  0  0  0  0  0  0  0  0  0  0
   26.0797  -22.4920  -10.5668 O   0  0  0  0  0  0  0  0  0  0  0  0
   24.4339  -20.7696  -10.8788 C   0  0  0  0  0  0  0  0  0  0  0  0
   24.4875  -21.0647  -12.3580 C   0  0  2  0  0  0  0  0  0  0  0  0
   25.6751  -20.4386  -12.8845 N   0  0  0  0  0  0  0  0  0  0  0  0
   23.3220  -20.4542  -13.0719 C   0  0  0  0  0  0  0  0  0  0  0  0
   23.4349  -19.3190  -13.6232 O   0  0  0  0  0  0  0  0  0  0  0  0
   21.9938  -19.4196  -17.5187 N   0  0  0  0  0  0  0  0  0  0  0  0
   21.5280  -19.4627  -16.1812 C   0  0  0  0  0  0  0  0  0  0  0  0
   21.2540  -18.3797  -15.5756 O   0  0  0  0  0  0  0  0  0  0  0  0
   21.3734  -20.7791  -15.5249 C   0  0  0  0  0  0  0  0  0  0  0  0
   21.0344  -20.5705  -14.0717 C   0  0  2  0  0  0  0  0  0  0  0  0
   22.0517  -21.0651  -13.1866 N   0  0  0  0  0  0  0  0  0  0  0  0
   19.7476  -21.3205  -13.8392 C   0  0  0  0  0  0  0  0  0  0  0  0
   19.7297  -22.4759  -13.3688 O   0  0  0  0  0  0  0  0  0  0  0  0
   18.5552  -20.7041  -14.1590 O   0  0  0  0  0  0  0  0  0  0  0  0
  2  1  1  6
  3  2  1  0
  4  3  1  0
  5  4  1  0
  5  6  2  0
  7  2  1  0
  7  8  2  0
  9  5  1  0
 10 11  1  0
 11 13  1  0
 12 11  2  0
 14 13  1  1
 14 15  1  0
 15  7  1  0
 16 14  1  0
 17 16  2  0
 19 21  1  0
 19 18  1  0
 20 19  2  0
 22 23  1  0
 22 21  1  6
 23 16  1  0
 24 22  1  0
 25 24  2  0
 26 24  1  0
M  END
$$$$
