ENN.pdb
     RDKit          3D

 26 25  0  0  1  0  0  0  0  0999 V2000
   27.9496  -22.5981  -16.7657 N   0  0  0  0  0  0  0  0  0  0  0  0
   28.1048  -21.4995  -15.7977 C   0  0  1  0  0  0  0  0  0  0  0  0
   28.1957  -20.1947  -16.5168 C   0  0  0  0  0  0  0  0  0  0  0  0
   27.0529  -20.0181  -17.4694 C   0  0  0  0  0  0  0  0  0  0  0  0
   27.1366  -18.7279  -18.2043 C   0  0  0  0  0  0  0  0  0  0  0  0
   27.6323  -18.5827  -19.3412 O   0  0  0  0  0  0  0  0  0  0  0  0
   26.9769  -21.6077  -14.8417 C   0  0  0  0  0  0  0  0  0  0  0  0
   25.9424  -22.3164  -15.0924 O   0  0  0  0  0  0  0  0  0  0  0  0
   26.6341  -17.5538  -17.6180 O   0  0  0  0  0  0  0  0  0  0  0  0
   24.2024  -21.3816  -10.5279 N   0  0  0  0  0  0  0  0  0  0  0  0
   25.5527  -21.0755  -10.2282 C   0  0  0  0  0  0  0  0  0  0  0  0
   25.8207  -20.9421   -8.9998 O   0  0  0  0  0  0  0  0  0  0  0  0
   26.5919  -20.9190  -11.2751 C   0  0  0  0  0  0  0  0  0  0  0  0
   25.9879  -21.1104  -12.6450 C   0  0  2  0  0  0  0  0  0  0  0  0
   27.0363  -20.9119  -13.6151 N   0  0  0  0  0  0  0  0  0  0  0  0
   24.9398  -20.0779  -12.9211 C   0  0  0  0  0  0  0  0  0  0  0  0
   25.2669  -18.9447  -13.3841 O   0  0  0  0  0  0  0  0  0  0  0  0
   20.7779  -18.8078  -15.3275 N   0  0  0  0  0  0  0  0  0  0  0  0
   21.7103  -19.7155  -15.8884 C   0  0  0  0  0  0  0  0  0  0  0  0
   21.6498  -19.9938  -17.1268 O   0  0  0  0  0  0  0  0  0  0  0  0
   22.7350  -20.3164  -15.0073 C   0  0  0  0  0  0  0  0  0  0  0  0
   22.5540  -19.7896  -13.6073 C   0  0  2  0  0  0  0  0  0  0  0  0
   23.5566  -20.2703  -12.6982 N   0  0  0  0  0  0  0  0  0  0  0  0
   21.1936  -20.2638  -13.1635 C   0  0  0  0  0  0  0  0  0  0  0  0
   21.0440  -21.2853  -12.4630 O   0  0  0  0  0  0  0  0  0  0  0  0
   20.0828  -19.5409  -13.5477 O   0  0  0  0  0  0  0  0  0  0  0  0
  2  1  1  6
  3  2  1  0
  4  3  1  0
  5  4  1  0
  5  6  2  0
  7  2  1  0
  7  8  2  0
  9  5  1  0
 10 11  1  0
 11 13  1  0
 12 11  2  0
 14 13  1  1
 14 15  1  0
 15  7  1  0
 16 14  1  0
 17 16  2  0
 19 21  1  0
 19 18  1  0
 20 19  2  0
 22 23  1  0
 22 21  1  6
 23 16  1  0
 24 22  1  0
 25 24  2  0
 26 24  1  0
M  END
$$$$
