ENN.pdb
     RDKit          3D

 26 25  0  0  1  0  0  0  0  0999 V2000
   15.8122  -11.8534  -10.2095 N   0  0  0  0  0  0  0  0  0  0  0  0
   15.4165  -11.3896  -11.5496 C   0  0  1  0  0  0  0  0  0  0  0  0
   14.0262  -11.8386  -11.8553 C   0  0  0  0  0  0  0  0  0  0  0  0
   13.1204  -11.6428  -10.6781 C   0  0  0  0  0  0  0  0  0  0  0  0
   12.3357  -12.8683  -10.3710 C   0  0  0  0  0  0  0  0  0  0  0  0
   12.7626  -14.0369  -10.4777 O   0  0  0  0  0  0  0  0  0  0  0  0
   15.6167   -9.9208  -11.5717 C   0  0  0  0  0  0  0  0  0  0  0  0
   15.3241   -9.2129  -12.5957 O   0  0  0  0  0  0  0  0  0  0  0  0
   11.0083  -12.7563   -9.9236 O   0  0  0  0  0  0  0  0  0  0  0  0
   16.3149   -5.0782  -10.0316 N   0  0  0  0  0  0  0  0  0  0  0  0
   16.1391   -5.9077   -8.8967 C   0  0  0  0  0  0  0  0  0  0  0  0
   15.9891   -5.3013   -7.7975 O   0  0  0  0  0  0  0  0  0  0  0  0
   16.1300   -7.3888   -8.9785 C   0  0  0  0  0  0  0  0  0  0  0  0
   16.2212   -7.8342  -10.4177 C   0  0  2  0  0  0  0  0  0  0  0  0
   16.1454   -9.2742  -10.4339 N   0  0  0  0  0  0  0  0  0  0  0  0
   17.5428   -7.4624  -11.0144 C   0  0  0  0  0  0  0  0  0  0  0  0
   18.6147   -7.6746  -10.3730 O   0  0  0  0  0  0  0  0  0  0  0  0
   20.9755   -8.1655  -12.0905 N   0  0  0  0  0  0  0  0  0  0  0  0
   20.4816   -8.4005  -13.3977 C   0  0  0  0  0  0  0  0  0  0  0  0
   20.9656   -9.3487  -14.0916 O   0  0  0  0  0  0  0  0  0  0  0  0
   19.4080   -7.5271  -13.9192 C   0  0  0  0  0  0  0  0  0  0  0  0
   18.9896   -6.5604  -12.8417 C   0  0  2  0  0  0  0  0  0  0  0  0
   17.7007   -6.8684  -12.2881 N   0  0  0  0  0  0  0  0  0  0  0  0
   18.9513   -5.2047  -13.4996 C   0  0  0  0  0  0  0  0  0  0  0  0
   17.8782   -4.6180  -13.7464 O   0  0  0  0  0  0  0  0  0  0  0  0
   20.1442   -4.5989  -13.8374 O   0  0  0  0  0  0  0  0  0  0  0  0
  2  1  1  1
  3  2  1  0
  4  3  1  0
  5  4  1  0
  5  6  2  0
  7  2  1  0
  7  8  2  0
  9  5  1  0
 10 11  1  0
 11 13  1  0
 12 11  2  0
 14 13  1  1
 14 15  1  0
 15  7  1  0
 16 14  1  0
 17 16  2  0
 19 21  1  0
 19 18  1  0
 20 19  2  0
 22 23  1  0
 22 21  1  6
 23 16  1  0
 24 22  1  0
 25 24  2  0
 26 24  1  0
M  END
$$$$
