ENN.pdb
     RDKit          3D

 26 25  0  0  1  0  0  0  0  0999 V2000
   20.8800  -20.6105  -10.9489 N   0  0  0  0  0  0  0  0  0  0  0  0
   21.6186  -21.2571  -12.0462 C   0  0  1  0  0  0  0  0  0  0  0  0
   20.7597  -21.3328  -13.2646 C   0  0  0  0  0  0  0  0  0  0  0  0
   19.5245  -20.4988  -13.1118 C   0  0  0  0  0  0  0  0  0  0  0  0
   18.6977  -20.4988  -14.3480 C   0  0  0  0  0  0  0  0  0  0  0  0
   18.9258  -19.8061  -15.3616 O   0  0  0  0  0  0  0  0  0  0  0  0
   22.8809  -20.4991  -12.2188 C   0  0  0  0  0  0  0  0  0  0  0  0
   22.8889  -19.2627  -12.5452 O   0  0  0  0  0  0  0  0  0  0  0  0
   17.5630  -21.3234  -14.4317 O   0  0  0  0  0  0  0  0  0  0  0  0
   24.9305  -20.3975   -9.5248 N   0  0  0  0  0  0  0  0  0  0  0  0
   26.1083  -21.0112  -10.0178 C   0  0  0  0  0  0  0  0  0  0  0  0
   26.8759  -21.4995   -9.1398 O   0  0  0  0  0  0  0  0  0  0  0  0
   26.4314  -21.0826  -11.4638 C   0  0  0  0  0  0  0  0  0  0  0  0
   25.3391  -20.4319  -12.2771 C   0  0  2  0  0  0  0  0  0  0  0  0
   24.1164  -21.1517  -12.0195 N   0  0  0  0  0  0  0  0  0  0  0  0
   25.6137  -20.5536  -13.7436 C   0  0  0  0  0  0  0  0  0  0  0  0
   25.0729  -21.4789  -14.4193 O   0  0  0  0  0  0  0  0  0  0  0  0
   25.6921  -18.5993  -18.3427 N   0  0  0  0  0  0  0  0  0  0  0  0
   24.9627  -17.8796  -17.3641 C   0  0  0  0  0  0  0  0  0  0  0  0
   24.1211  -16.9998  -17.7279 O   0  0  0  0  0  0  0  0  0  0  0  0
   25.2053  -18.1774  -15.9358 C   0  0  0  0  0  0  0  0  0  0  0  0
   26.1995  -19.3043  -15.8274 C   0  0  2  0  0  0  0  0  0  0  0  0
   26.4629  -19.6850  -14.4678 N   0  0  0  0  0  0  0  0  0  0  0  0
   27.4657  -18.7972  -16.4694 C   0  0  0  0  0  0  0  0  0  0  0  0
   28.3177  -18.1468  -15.8310 O   0  0  0  0  0  0  0  0  0  0  0  0
   27.6830  -19.0639  -17.8057 O   0  0  0  0  0  0  0  0  0  0  0  0
  2  1  1  1
  3  2  1  0
  4  3  1  0
  5  4  1  0
  5  6  2  0
  7  2  1  0
  7  8  2  0
  9  5  1  0
 10 11  1  0
 11 13  1  0
 12 11  2  0
 14 13  1  1
 14 15  1  0
 15  7  1  0
 16 14  1  0
 17 16  2  0
 19 21  1  0
 19 18  1  0
 20 19  2  0
 22 23  1  0
 22 21  1  1
 23 16  1  0
 24 22  1  0
 25 24  2  0
 26 24  1  0
M  END
$$$$
