AWP.pdb
     RDKit          3D

 27 29  0  0  1  0  0  0  0  0999 V2000
    7.3673  -20.6605   20.9574 C   0  0  0  0  0  0  0  0  0  0  0  0
    6.6290  -20.2305   22.2198 C   0  0  2  0  0  0  0  0  0  0  0  0
    5.2948  -20.7548   22.2116 N   0  0  0  0  0  0  0  0  0  0  0  0
    6.6218  -18.7427   22.2121 C   0  0  0  0  0  0  0  0  0  0  0  0
    5.7668  -18.1135   21.5386 O   0  0  0  0  0  0  0  0  0  0  0  0
    7.5645  -17.9635   22.9527 N   0  0  0  0  0  0  0  0  0  0  0  0
    7.6126  -16.5263   22.9011 C   0  0  1  0  0  0  0  0  0  0  0  0
    8.1330  -16.0858   24.2146 C   0  0  0  0  0  0  0  0  0  0  0  0
    7.3550  -15.2198   25.0400 C   0  0  0  0  0  0  0  0  0  0  0  0
    6.0887  -15.5230   25.4992 C   0  0  0  0  0  0  0  0  0  0  0  0
    5.6245  -14.5140   26.2489 N   0  0  0  0  0  0  0  0  0  0  0  0
    6.5474  -13.5380   26.3062 C   0  0  0  0  0  0  0  0  0  0  0  0
    6.5862  -12.3076   26.9257 C   0  0  0  0  0  0  0  0  0  0  0  0
    7.7125  -11.5271   26.7823 C   0  0  0  0  0  0  0  0  0  0  0  0
    8.7890  -11.9733   26.0267 C   0  0  0  0  0  0  0  0  0  0  0  0
    8.7643  -13.2047   25.3997 C   0  0  0  0  0  0  0  0  0  0  0  0
    7.6304  -13.9734   25.5528 C   0  0  0  0  0  0  0  0  0  0  0  0
    8.4434  -16.1303   21.7537 C   0  0  0  0  0  0  0  0  0  0  0  0
    9.1303  -17.1401   21.2611 O   0  0  0  0  0  0  0  0  0  0  0  0
    8.6322  -14.9343   21.1156 N   0  0  0  0  0  0  0  0  0  0  0  0
    8.0665  -13.6554   21.6070 C   0  0  0  0  0  0  0  0  0  0  0  0
    8.0175  -12.7231   20.4509 C   0  0  0  0  0  0  0  0  0  0  0  0
    8.5888  -13.4211   19.2716 C   0  0  0  0  0  0  0  0  0  0  0  0
    9.3428  -14.5947   19.9181 C   0  0  1  0  0  0  0  0  0  0  0  0
   10.7006  -14.0380   20.2191 C   0  0  0  0  0  0  0  0  0  0  0  0
   11.0854  -13.8376   21.5358 O   0  0  0  0  0  0  0  0  0  0  0  0
   11.5213  -13.7392   19.3171 O   0  0  0  0  0  0  0  0  0  0  0  0
  2  1  1  6
  2  3  1  0
  4  2  1  0
  5  4  2  0
  6  4  1  0
  7  6  1  0
  8  9  1  0
  7  8  1  1
  9 17  1  0
 10  9  2  0
 10 11  1  0
 11 12  1  0
 12 13  1  0
 13 14  2  0
 15 14  1  0
 16 15  2  0
 17 12  2  0
 17 16  1  0
 18 20  1  0
 18  7  1  0
 19 18  2  0
 20 21  1  0
 21 22  1  0
 23 22  1  0
 24 23  1  0
 24 20  1  0
 25 26  1  0
 24 25  1  1
 27 25  2  0
M  END
$$$$
