AWP.pdb
     RDKit          3D

 27 29  0  0  1  0  0  0  0  0999 V2000
    8.6117  -15.2810   17.5152 C   0  0  0  0  0  0  0  0  0  0  0  0
    7.8054  -14.2301   18.2696 C   0  0  2  0  0  0  0  0  0  0  0  0
    8.0158  -12.9373   17.6869 N   0  0  0  0  0  0  0  0  0  0  0  0
    8.2840  -14.2692   19.6778 C   0  0  0  0  0  0  0  0  0  0  0  0
    9.3160  -13.6367   20.0174 O   0  0  0  0  0  0  0  0  0  0  0  0
    7.6130  -15.0108   20.6997 N   0  0  0  0  0  0  0  0  0  0  0  0
    7.9722  -14.9381   22.0911 C   0  0  1  0  0  0  0  0  0  0  0  0
    6.6979  -14.9244   22.8436 C   0  0  0  0  0  0  0  0  0  0  0  0
    6.7065  -14.8052   24.2657 C   0  0  0  0  0  0  0  0  0  0  0  0
    6.4264  -15.8453   25.1293 C   0  0  0  0  0  0  0  0  0  0  0  0
    6.5186  -15.4198   26.3966 N   0  0  0  0  0  0  0  0  0  0  0  0
    6.8542  -14.1180   26.4081 C   0  0  0  0  0  0  0  0  0  0  0  0
    7.0751  -13.2066   27.4179 C   0  0  0  0  0  0  0  0  0  0  0  0
    7.4130  -11.9135   27.0832 C   0  0  0  0  0  0  0  0  0  0  0  0
    7.5288  -11.5363   25.7516 C   0  0  0  0  0  0  0  0  0  0  0  0
    7.3102  -12.4393   24.7284 C   0  0  0  0  0  0  0  0  0  0  0  0
    6.9729  -13.7287   25.0797 C   0  0  0  0  0  0  0  0  0  0  0  0
    8.8511  -16.0753   22.4040 C   0  0  0  0  0  0  0  0  0  0  0  0
    8.6624  -17.0925   21.5892 O   0  0  0  0  0  0  0  0  0  0  0  0
    9.8082  -16.2701   23.3627 N   0  0  0  0  0  0  0  0  0  0  0  0
   10.0863  -15.2915   24.4408 C   0  0  0  0  0  0  0  0  0  0  0  0
   11.4608  -15.5622   24.9365 C   0  0  0  0  0  0  0  0  0  0  0  0
   11.9992  -16.7266   24.1891 C   0  0  0  0  0  0  0  0  0  0  0  0
   10.7278  -17.3464   23.5865 C   0  0  1  0  0  0  0  0  0  0  0  0
   10.2367  -18.2824   24.6480 C   0  0  0  0  0  0  0  0  0  0  0  0
   10.9639  -19.4238   24.9487 O   0  0  0  0  0  0  0  0  0  0  0  0
    9.1774  -18.0769   25.2900 O   0  0  0  0  0  0  0  0  0  0  0  0
  2  1  1  6
  2  3  1  0
  4  2  1  0
  5  4  2  0
  6  4  1  0
  7  6  1  0
  8  9  1  0
  7  8  1  1
  9 17  1  0
 10  9  2  0
 10 11  1  0
 11 12  1  0
 12 13  1  0
 13 14  2  0
 15 14  1  0
 16 15  2  0
 17 12  2  0
 17 16  1  0
 18 20  1  0
 18  7  1  0
 19 18  2  0
 20 21  1  0
 21 22  1  0
 23 22  1  0
 24 23  1  0
 24 20  1  0
 25 26  1  0
 24 25  1  1
 27 25  2  0
M  END
$$$$
