AWP.pdb
     RDKit          3D

 27 29  0  0  1  0  0  0  0  0999 V2000
    6.8137  -20.8376   21.6097 C   0  0  0  0  0  0  0  0  0  0  0  0
    6.1573  -20.3265   22.8870 C   0  0  2  0  0  0  0  0  0  0  0  0
    4.8091  -20.8061   22.9727 N   0  0  0  0  0  0  0  0  0  0  0  0
    6.1953  -18.8411   22.8095 C   0  0  0  0  0  0  0  0  0  0  0  0
    5.2730  -18.2096   22.2342 O   0  0  0  0  0  0  0  0  0  0  0  0
    7.2579  -18.0669   23.3718 N   0  0  0  0  0  0  0  0  0  0  0  0
    7.3149  -16.6313   23.2915 C   0  0  1  0  0  0  0  0  0  0  0  0
    7.8278  -16.1674   24.5999 C   0  0  0  0  0  0  0  0  0  0  0  0
    7.1304  -15.1553   25.3251 C   0  0  0  0  0  0  0  0  0  0  0  0
    5.8287  -15.2809   25.7677 C   0  0  0  0  0  0  0  0  0  0  0  0
    5.4605  -14.1671   26.4155 N   0  0  0  0  0  0  0  0  0  0  0  0
    6.4826  -13.2937   26.4201 C   0  0  0  0  0  0  0  0  0  0  0  0
    6.6413  -12.0255   26.9355 C   0  0  0  0  0  0  0  0  0  0  0  0
    7.8489  -11.3849   26.7630 C   0  0  0  0  0  0  0  0  0  0  0  0
    8.8870  -12.0070   26.0817 C   0  0  0  0  0  0  0  0  0  0  0  0
    8.7424  -13.2784   25.5594 C   0  0  0  0  0  0  0  0  0  0  0  0
    7.5284  -13.9057   25.7404 C   0  0  0  0  0  0  0  0  0  0  0  0
    8.1571  -16.2635   22.1430 C   0  0  0  0  0  0  0  0  0  0  0  0
    8.9042  -17.2658   21.7289 O   0  0  0  0  0  0  0  0  0  0  0  0
    8.3063  -15.0994   21.4388 N   0  0  0  0  0  0  0  0  0  0  0  0
    7.6578  -13.8258   21.8317 C   0  0  0  0  0  0  0  0  0  0  0  0
    7.6021  -12.9684   20.6193 C   0  0  0  0  0  0  0  0  0  0  0  0
    8.2507  -13.7039   19.5046 C   0  0  0  0  0  0  0  0  0  0  0  0
    9.0409  -14.7944   20.2465 C   0  0  1  0  0  0  0  0  0  0  0  0
   10.3563  -14.1482   20.5567 C   0  0  0  0  0  0  0  0  0  0  0  0
   10.6831  -13.8496   21.8705 O   0  0  0  0  0  0  0  0  0  0  0  0
   11.1919  -13.8594   19.6651 O   0  0  0  0  0  0  0  0  0  0  0  0
  2  1  1  6
  2  3  1  0
  4  2  1  0
  5  4  2  0
  6  4  1  0
  7  6  1  0
  8  9  1  0
  7  8  1  1
  9 17  1  0
 10  9  2  0
 10 11  1  0
 11 12  1  0
 12 13  1  0
 13 14  2  0
 15 14  1  0
 16 15  2  0
 17 12  2  0
 17 16  1  0
 18 20  1  0
 18  7  1  0
 19 18  2  0
 20 21  1  0
 21 22  1  0
 23 22  1  0
 24 23  1  0
 24 20  1  0
 25 26  1  0
 24 25  1  1
 27 25  2  0
M  END
$$$$
