AWP.pdb
     RDKit          3D

 27 29  0  0  1  0  0  0  0  0999 V2000
   12.8058  -18.2526   21.7144 C   0  0  0  0  0  0  0  0  0  0  0  0
   11.8922  -17.2369   21.0381 C   0  0  2  0  0  0  0  0  0  0  0  0
   12.6203  -16.5079   20.0413 N   0  0  0  0  0  0  0  0  0  0  0  0
   11.4040  -16.3336   22.1148 C   0  0  0  0  0  0  0  0  0  0  0  0
   12.0908  -15.3448   22.4767 O   0  0  0  0  0  0  0  0  0  0  0  0
   10.1557  -16.5346   22.7826 N   0  0  0  0  0  0  0  0  0  0  0  0
    9.6676  -15.6648   23.8197 C   0  0  1  0  0  0  0  0  0  0  0  0
    8.2071  -15.5535   23.6081 C   0  0  0  0  0  0  0  0  0  0  0  0
    7.3773  -14.9859   24.6209 C   0  0  0  0  0  0  0  0  0  0  0  0
    6.5684  -15.7254   25.4604 C   0  0  0  0  0  0  0  0  0  0  0  0
    5.9186  -14.9080   26.3002 N   0  0  0  0  0  0  0  0  0  0  0  0
    6.2700  -13.6353   26.0471 C   0  0  0  0  0  0  0  0  0  0  0  0
    5.9097  -12.4260   26.6011 C   0  0  0  0  0  0  0  0  0  0  0  0
    6.4681  -11.2718   26.0969 C   0  0  0  0  0  0  0  0  0  0  0  0
    7.3779  -11.3271   25.0490 C   0  0  0  0  0  0  0  0  0  0  0  0
    7.7486  -12.5324   24.4834 C   0  0  0  0  0  0  0  0  0  0  0  0
    7.1811  -13.6778   24.9990 C   0  0  0  0  0  0  0  0  0  0  0  0
   10.0521  -16.2323   25.1211 C   0  0  0  0  0  0  0  0  0  0  0  0
   10.5573  -17.4433   25.0093 O   0  0  0  0  0  0  0  0  0  0  0  0
    9.9849  -15.7477   26.3993 N   0  0  0  0  0  0  0  0  0  0  0  0
    9.1206  -14.6085   26.7897 C   0  0  0  0  0  0  0  0  0  0  0  0
    9.6761  -14.0459   28.0479 C   0  0  0  0  0  0  0  0  0  0  0  0
   10.8497  -14.8663   28.4406 C   0  0  0  0  0  0  0  0  0  0  0  0
   10.6537  -16.1414   27.6042 C   0  0  1  0  0  0  0  0  0  0  0  0
    9.7859  -17.0124   28.4599 C   0  0  0  0  0  0  0  0  0  0  0  0
   10.2854  -17.5277   29.6460 O   0  0  0  0  0  0  0  0  0  0  0  0
    8.6050  -17.3023   28.1467 O   0  0  0  0  0  0  0  0  0  0  0  0
  2  1  1  1
  2  3  1  0
  4  2  1  0
  5  4  2  0
  6  4  1  0
  7  6  1  0
  8  9  1  0
  7  8  1  1
  9 17  1  0
 10  9  2  0
 10 11  1  0
 11 12  1  0
 12 13  1  0
 13 14  2  0
 15 14  1  0
 16 15  2  0
 17 12  2  0
 17 16  1  0
 18 20  1  0
 18  7  1  0
 19 18  2  0
 20 21  1  0
 21 22  1  0
 23 22  1  0
 24 23  1  0
 24 20  1  0
 25 26  1  0
 24 25  1  1
 27 25  2  0
M  END
$$$$
