AWP.pdb
     RDKit          3D

 27 29  0  0  1  0  0  0  0  0999 V2000
   12.5967  -17.5015   21.3622 C   0  0  0  0  0  0  0  0  0  0  0  0
   11.2142  -16.9987   20.9627 C   0  0  2  0  0  0  0  0  0  0  0  0
   11.2982  -16.2429   19.7474 N   0  0  0  0  0  0  0  0  0  0  0  0
   10.7367  -16.1526   22.0896 C   0  0  0  0  0  0  0  0  0  0  0  0
   11.1744  -14.9836   22.2383 O   0  0  0  0  0  0  0  0  0  0  0  0
    9.7758  -16.6110   23.0443 N   0  0  0  0  0  0  0  0  0  0  0  0
    9.3185  -15.8103   24.1488 C   0  0  1  0  0  0  0  0  0  0  0  0
    7.9016  -16.1796   24.3642 C   0  0  0  0  0  0  0  0  0  0  0  0
    7.0309  -15.2981   25.0724 C   0  0  0  0  0  0  0  0  0  0  0  0
    5.9221  -15.7138   25.7822 C   0  0  0  0  0  0  0  0  0  0  0  0
    5.3143  -14.6551   26.3349 N   0  0  0  0  0  0  0  0  0  0  0  0
    5.9867  -13.5358   26.0147 C   0  0  0  0  0  0  0  0  0  0  0  0
    5.8012  -12.2029   26.3116 C   0  0  0  0  0  0  0  0  0  0  0  0
    6.6957  -11.2809   25.8134 C   0  0  0  0  0  0  0  0  0  0  0  0
    7.7649  -11.6885   25.0263 C   0  0  0  0  0  0  0  0  0  0  0  0
    7.9635  -13.0216   24.7203 C   0  0  0  0  0  0  0  0  0  0  0  0
    7.0600  -13.9314   25.2262 C   0  0  0  0  0  0  0  0  0  0  0  0
   10.1955  -16.0652   25.3018 C   0  0  0  0  0  0  0  0  0  0  0  0
   11.1221  -16.9627   25.0370 O   0  0  0  0  0  0  0  0  0  0  0  0
   10.2285  -15.5549   26.5714 N   0  0  0  0  0  0  0  0  0  0  0  0
    9.2935  -14.5086   27.0488 C   0  0  0  0  0  0  0  0  0  0  0  0
    9.9292  -13.8520   28.2205 C   0  0  0  0  0  0  0  0  0  0  0  0
   11.2276  -14.5249   28.4774 C   0  0  0  0  0  0  0  0  0  0  0  0
   11.0787  -15.8372   27.6902 C   0  0  1  0  0  0  0  0  0  0  0  0
   10.4258  -16.7748   28.6590 C   0  0  0  0  0  0  0  0  0  0  0  0
   11.1573  -17.2876   29.7192 O   0  0  0  0  0  0  0  0  0  0  0  0
    9.2243  -17.1239   28.5533 O   0  0  0  0  0  0  0  0  0  0  0  0
  2  1  1  1
  2  3  1  0
  4  2  1  0
  5  4  2  0
  6  4  1  0
  7  6  1  0
  8  9  1  0
  7  8  1  1
  9 17  1  0
 10  9  2  0
 10 11  1  0
 11 12  1  0
 12 13  1  0
 13 14  2  0
 15 14  1  0
 16 15  2  0
 17 12  2  0
 17 16  1  0
 18 20  1  0
 18  7  1  0
 19 18  2  0
 20 21  1  0
 21 22  1  0
 23 22  1  0
 24 23  1  0
 24 20  1  0
 25 26  1  0
 24 25  1  1
 27 25  2  0
M  END
$$$$
