AWP.pdb
     RDKit          3D

 27 29  0  0  1  0  0  0  0  0999 V2000
    6.6517  -20.4375   21.8737 C   0  0  0  0  0  0  0  0  0  0  0  0
    6.3434  -19.6636   23.1503 C   0  0  2  0  0  0  0  0  0  0  0  0
    5.0292  -19.9922   23.6191 N   0  0  0  0  0  0  0  0  0  0  0  0
    6.4432  -18.2215   22.7979 C   0  0  0  0  0  0  0  0  0  0  0  0
    5.4785  -17.6320   22.2482 O   0  0  0  0  0  0  0  0  0  0  0  0
    7.6143  -17.4436   23.0586 N   0  0  0  0  0  0  0  0  0  0  0  0
    7.6957  -16.0306   22.7994 C   0  0  1  0  0  0  0  0  0  0  0  0
    8.3061  -15.4269   24.0049 C   0  0  0  0  0  0  0  0  0  0  0  0
    7.4797  -14.8380   25.0084 C   0  0  0  0  0  0  0  0  0  0  0  0
    6.4991  -15.5210   25.6996 C   0  0  0  0  0  0  0  0  0  0  0  0
    5.9020  -14.6976   26.5720 N   0  0  0  0  0  0  0  0  0  0  0  0
    6.4565  -13.4759   26.4855 C   0  0  0  0  0  0  0  0  0  0  0  0
    6.2275  -12.2843   27.1389 C   0  0  0  0  0  0  0  0  0  0  0  0
    6.9915  -11.1870   26.8062 C   0  0  0  0  0  0  0  0  0  0  0  0
    7.9745  -11.2812   25.8297 C   0  0  0  0  0  0  0  0  0  0  0  0
    8.2153  -12.4694   25.1661 C   0  0  0  0  0  0  0  0  0  0  0  0
    7.4427  -13.5577   25.5103 C   0  0  0  0  0  0  0  0  0  0  0  0
    8.4650  -15.8288   21.5621 C   0  0  0  0  0  0  0  0  0  0  0  0
    9.0639  -16.9305   21.1599 O   0  0  0  0  0  0  0  0  0  0  0  0
    8.6705  -14.7338   20.7672 N   0  0  0  0  0  0  0  0  0  0  0  0
    8.2146  -13.3711   21.1311 C   0  0  0  0  0  0  0  0  0  0  0  0
    8.1298  -12.5851   19.8729 C   0  0  0  0  0  0  0  0  0  0  0  0
    8.5714  -13.4563   18.7547 C   0  0  0  0  0  0  0  0  0  0  0  0
    9.3064  -14.5884   19.4910 C   0  0  1  0  0  0  0  0  0  0  0  0
   10.7115  -14.0870   19.6264 C   0  0  0  0  0  0  0  0  0  0  0  0
   11.5594  -14.1118   18.5299 O   0  0  0  0  0  0  0  0  0  0  0  0
   11.1649  -13.6368   20.7073 O   0  0  0  0  0  0  0  0  0  0  0  0
  2  1  1  6
  2  3  1  0
  4  2  1  0
  5  4  2  0
  6  4  1  0
  7  6  1  0
  8  9  1  0
  7  8  1  1
  9 17  1  0
 10  9  2  0
 10 11  1  0
 11 12  1  0
 12 13  1  0
 13 14  2  0
 15 14  1  0
 16 15  2  0
 17 12  2  0
 17 16  1  0
 18 20  1  0
 18  7  1  0
 19 18  2  0
 20 21  1  0
 21 22  1  0
 23 22  1  0
 24 23  1  0
 24 20  1  0
 25 26  1  0
 24 25  1  1
 27 25  2  0
M  END
$$$$
