AWP.pdb
     RDKit          3D

 27 29  0  0  1  0  0  0  0  0999 V2000
    6.7751  -21.1823   21.9959 C   0  0  0  0  0  0  0  0  0  0  0  0
    6.0519  -20.6477   23.2267 C   0  0  2  0  0  0  0  0  0  0  0  0
    4.6962  -21.1134   23.2412 N   0  0  0  0  0  0  0  0  0  0  0  0
    6.1093  -19.1639   23.1321 C   0  0  0  0  0  0  0  0  0  0  0  0
    5.2300  -18.5320   22.4935 O   0  0  0  0  0  0  0  0  0  0  0  0
    7.1434  -18.3917   23.7477 N   0  0  0  0  0  0  0  0  0  0  0  0
    7.2057  -16.9561   23.6728 C   0  0  1  0  0  0  0  0  0  0  0  0
    7.6281  -16.4935   25.0137 C   0  0  0  0  0  0  0  0  0  0  0  0
    7.0198  -15.3430   25.5993 C   0  0  0  0  0  0  0  0  0  0  0  0
    5.6861  -15.2681   25.9481 C   0  0  0  0  0  0  0  0  0  0  0  0
    5.4218  -14.0644   26.4743 N   0  0  0  0  0  0  0  0  0  0  0  0
    6.5453  -13.3261   26.4887 C   0  0  0  0  0  0  0  0  0  0  0  0
    6.8311  -12.0461   26.9121 C   0  0  0  0  0  0  0  0  0  0  0  0
    8.1199  -11.5764   26.7835 C   0  0  0  0  0  0  0  0  0  0  0  0
    9.1126  -12.3793   26.2368 C   0  0  0  0  0  0  0  0  0  0  0  0
    8.8408  -13.6647   25.8078 C   0  0  0  0  0  0  0  0  0  0  0  0
    7.5467  -14.1197   25.9433 C   0  0  0  0  0  0  0  0  0  0  0  0
    8.1243  -16.5872   22.5848 C   0  0  0  0  0  0  0  0  0  0  0  0
    8.9232  -17.5780   22.2468 O   0  0  0  0  0  0  0  0  0  0  0  0
    8.3002  -15.4316   21.8729 N   0  0  0  0  0  0  0  0  0  0  0  0
    7.6619  -14.1463   22.2434 C   0  0  0  0  0  0  0  0  0  0  0  0
    7.6373  -13.2993   21.0226 C   0  0  0  0  0  0  0  0  0  0  0  0
    8.2949  -14.0533   19.9255 C   0  0  0  0  0  0  0  0  0  0  0  0
    9.0584  -15.1469   20.6903 C   0  0  1  0  0  0  0  0  0  0  0  0
   10.3767  -14.5148   21.0167 C   0  0  0  0  0  0  0  0  0  0  0  0
   11.3202  -14.3361   20.0168 O   0  0  0  0  0  0  0  0  0  0  0  0
   10.6718  -14.1320   22.1756 O   0  0  0  0  0  0  0  0  0  0  0  0
  2  1  1  6
  2  3  1  0
  4  2  1  0
  5  4  2  0
  6  4  1  0
  7  6  1  0
  8  9  1  0
  7  8  1  1
  9 17  1  0
 10  9  2  0
 10 11  1  0
 11 12  1  0
 12 13  1  0
 13 14  2  0
 15 14  1  0
 16 15  2  0
 17 12  2  0
 17 16  1  0
 18 20  1  0
 18  7  1  0
 19 18  2  0
 20 21  1  0
 21 22  1  0
 23 22  1  0
 24 23  1  0
 24 20  1  0
 25 26  1  0
 24 25  1  1
 27 25  2  0
M  END
$$$$
