AWP.pdb
     RDKit          3D

 27 29  0  0  1  0  0  0  0  0999 V2000
   12.2505  -17.8054   21.4365 C   0  0  0  0  0  0  0  0  0  0  0  0
   10.9802  -17.0649   21.0344 C   0  0  2  0  0  0  0  0  0  0  0  0
   11.2249  -16.2655   19.8698 N   0  0  0  0  0  0  0  0  0  0  0  0
   10.6054  -16.2177   22.1987 C   0  0  0  0  0  0  0  0  0  0  0  0
   11.1078  -15.0742   22.3421 O   0  0  0  0  0  0  0  0  0  0  0  0
    9.6748  -16.6463   23.1961 N   0  0  0  0  0  0  0  0  0  0  0  0
    9.2940  -15.8328   24.3202 C   0  0  1  0  0  0  0  0  0  0  0  0
    7.8948  -16.1977   24.6353 C   0  0  0  0  0  0  0  0  0  0  0  0
    6.9960  -15.2149   25.1481 C   0  0  0  0  0  0  0  0  0  0  0  0
    5.7202  -15.4943   25.5958 C   0  0  0  0  0  0  0  0  0  0  0  0
    5.1300  -14.3670   26.0159 N   0  0  0  0  0  0  0  0  0  0  0  0
    5.9772  -13.3345   25.8623 C   0  0  0  0  0  0  0  0  0  0  0  0
    5.8828  -11.9854   26.1274 C   0  0  0  0  0  0  0  0  0  0  0  0
    6.9618  -11.1761   25.8459 C   0  0  0  0  0  0  0  0  0  0  0  0
    8.1234  -11.7114   25.3046 C   0  0  0  0  0  0  0  0  0  0  0  0
    8.2325  -13.0622   25.0333 C   0  0  0  0  0  0  0  0  0  0  0  0
    7.1444  -13.8582   25.3206 C   0  0  0  0  0  0  0  0  0  0  0  0
   10.2472  -16.0764   25.4138 C   0  0  0  0  0  0  0  0  0  0  0  0
   11.2169  -16.8939   25.0596 O   0  0  0  0  0  0  0  0  0  0  0  0
   10.3136  -15.6219   26.7031 N   0  0  0  0  0  0  0  0  0  0  0  0
    9.2780  -14.7526   27.3104 C   0  0  0  0  0  0  0  0  0  0  0  0
    9.9079  -14.0572   28.4627 C   0  0  0  0  0  0  0  0  0  0  0  0
   11.3094  -14.5336   28.5781 C   0  0  0  0  0  0  0  0  0  0  0  0
   11.2902  -15.8183   27.7336 C   0  0  1  0  0  0  0  0  0  0  0  0
   10.8709  -16.8855   28.6976 C   0  0  0  0  0  0  0  0  0  0  0  0
    9.6435  -17.5105   28.5407 O   0  0  0  0  0  0  0  0  0  0  0  0
   11.5935  -17.2467   29.6589 O   0  0  0  0  0  0  0  0  0  0  0  0
  2  1  1  1
  2  3  1  0
  4  2  1  0
  5  4  2  0
  6  4  1  0
  7  6  1  0
  8  9  1  0
  7  8  1  1
  9 17  1  0
 10  9  2  0
 10 11  1  0
 11 12  1  0
 12 13  1  0
 13 14  2  0
 15 14  1  0
 16 15  2  0
 17 12  2  0
 17 16  1  0
 18 20  1  0
 18  7  1  0
 19 18  2  0
 20 21  1  0
 21 22  1  0
 23 22  1  0
 24 23  1  0
 24 20  1  0
 25 26  1  0
 24 25  1  1
 27 25  2  0
M  END
$$$$
