TYM.pdb
     RDKit          3D

 28 28  0  0  1  0  0  0  0  0999 V2000
   22.1528   -6.5926  -19.4174 C   0  0  0  0  0  0  0  0  0  0  0  0
   21.2832   -7.7618  -19.7539 C   0  0  1  0  0  0  0  0  0  0  0  0
   21.7691   -8.4621  -20.8502 O   0  0  0  0  0  0  0  0  0  0  0  0
   21.1842   -8.7267  -18.5910 C   0  0  2  0  0  0  0  0  0  0  0  0
   20.3880   -9.8902  -18.9646 N   0  0  0  0  0  0  0  0  0  0  0  0
   20.6692   -8.0978  -17.3580 C   0  0  0  0  0  0  0  0  0  0  0  0
   19.4181   -7.9462  -17.2655 O   0  0  0  0  0  0  0  0  0  0  0  0
   19.2408   -5.8908   -8.9191 O   0  0  0  0  0  0  0  0  0  0  0  0
   19.7688   -6.3236  -10.1295 C   0  0  0  0  0  0  0  0  0  0  0  0
   20.7423   -5.5938  -10.7792 C   0  0  0  0  0  0  0  0  0  0  0  0
   21.2750   -6.0122  -11.9810 C   0  0  0  0  0  0  0  0  0  0  0  0
   20.8654   -7.1786  -12.5972 C   0  0  0  0  0  0  0  0  0  0  0  0
   21.4189   -7.6306  -13.8778 C   0  0  0  0  0  0  0  0  0  0  0  0
   20.8319   -6.9964  -15.0997 C   0  0  2  0  0  0  0  0  0  0  0  0
   21.4446   -7.6496  -16.2698 N   0  0  0  0  0  0  0  0  0  0  0  0
   21.0557   -5.5467  -15.1164 C   0  0  0  0  0  0  0  0  0  0  0  0
   22.1469   -5.1055  -15.5546 O   0  0  0  0  0  0  0  0  0  0  0  0
   19.8852   -7.9081  -11.9377 C   0  0  0  0  0  0  0  0  0  0  0  0
   19.3517   -7.4906  -10.7355 C   0  0  0  0  0  0  0  0  0  0  0  0
   20.9221    0.7489  -18.7673 C   0  0  0  0  0  0  0  0  0  0  0  0
   20.8765   -1.0134  -18.4016 S   0  0  0  0  0  0  0  0  0  0  0  0
   20.6213   -1.4001  -16.6797 C   0  0  0  0  0  0  0  0  0  0  0  0
   20.4766   -2.8391  -16.3427 C   0  0  0  0  0  0  0  0  0  0  0  0
   20.2439   -3.1596  -14.9071 C   0  0  2  0  0  0  0  0  0  0  0  0
   20.1099   -4.5866  -14.6646 N   0  0  0  0  0  0  0  0  0  0  0  0
   19.0837   -2.4479  -14.3644 C   0  0  0  0  0  0  0  0  0  0  0  0
   19.2015   -1.1373  -13.9249 O   0  0  0  0  0  0  0  0  0  0  0  0
   17.9288   -2.9750  -14.2643 O   0  0  0  0  0  0  0  0  0  0  0  0
  2  4  1  0
  2  1  1  1
  3  2  1  0
  4  6  1  0
  4  5  1  6
  6  7  2  0
  9  8  1  0
  9 10  2  0
 11 10  1  0
 12 11  2  0
 13 12  1  0
 14 13  1  1
 15 14  1  0
 15  6  1  0
 16 14  1  0
 16 17  2  0
 18 19  2  0
 18 12  1  0
 19  9  1  0
 21 20  1  0
 21 22  1  0
 22 23  1  0
 24 23  1  6
 24 25  1  0
 24 26  1  0
 25 16  1  0
 26 28  2  0
 26 27  1  0
M  END
$$$$
