TYM.pdb
     RDKit          3D

 28 28  0  0  1  0  0  0  0  0999 V2000
   22.4677  -30.9072   -8.1963 C   0  0  0  0  0  0  0  0  0  0  0  0
   22.2118  -31.8301   -9.3449 C   0  0  1  0  0  0  0  0  0  0  0  0
   21.5244  -31.1933  -10.3697 O   0  0  0  0  0  0  0  0  0  0  0  0
   23.5063  -32.3693   -9.9167 C   0  0  2  0  0  0  0  0  0  0  0  0
   23.2409  -33.1607  -11.1126 N   0  0  0  0  0  0  0  0  0  0  0  0
   24.3007  -33.1329   -8.9334 C   0  0  0  0  0  0  0  0  0  0  0  0
   23.8749  -34.2779   -8.6103 O   0  0  0  0  0  0  0  0  0  0  0  0
   30.5177  -35.3985   -2.8875 O   0  0  0  0  0  0  0  0  0  0  0  0
   29.7773  -34.7911   -3.8945 C   0  0  0  0  0  0  0  0  0  0  0  0
   29.0397  -33.6531   -3.6433 C   0  0  0  0  0  0  0  0  0  0  0  0
   28.3005  -33.0401   -4.6339 C   0  0  0  0  0  0  0  0  0  0  0  0
   28.2582  -33.5291   -5.9249 C   0  0  0  0  0  0  0  0  0  0  0  0
   27.4710  -32.8907   -6.9849 C   0  0  0  0  0  0  0  0  0  0  0  0
   26.0959  -33.4425   -7.1954 C   0  0  2  0  0  0  0  0  0  0  0  0
   25.4945  -32.7037   -8.3195 N   0  0  0  0  0  0  0  0  0  0  0  0
   25.2781  -33.3323   -5.9825 C   0  0  0  0  0  0  0  0  0  0  0  0
   24.8595  -32.2009   -5.6328 O   0  0  0  0  0  0  0  0  0  0  0  0
   29.0029  -34.6750   -6.1705 C   0  0  0  0  0  0  0  0  0  0  0  0
   29.7426  -35.2889   -5.1806 C   0  0  0  0  0  0  0  0  0  0  0  0
   19.2409  -35.2613   -1.5428 C   0  0  0  0  0  0  0  0  0  0  0  0
   20.2499  -35.4218   -3.0253 S   0  0  0  0  0  0  0  0  0  0  0  0
   21.8979  -34.7596   -2.8675 C   0  0  0  0  0  0  0  0  0  0  0  0
   22.7544  -34.8305   -4.0786 C   0  0  0  0  0  0  0  0  0  0  0  0
   24.1374  -34.2955   -3.9398 C   0  0  2  0  0  0  0  0  0  0  0  0
   24.9178  -34.4331   -5.1586 N   0  0  0  0  0  0  0  0  0  0  0  0
   24.8533  -34.9031   -2.8151 C   0  0  0  0  0  0  0  0  0  0  0  0
   24.5401  -34.5565   -1.5086 O   0  0  0  0  0  0  0  0  0  0  0  0
   25.7821  -35.7615   -2.9638 O   0  0  0  0  0  0  0  0  0  0  0  0
  2  4  1  0
  2  1  1  1
  3  2  1  0
  4  6  1  0
  4  5  1  6
  6  7  2  0
  9  8  1  0
  9 10  2  0
 11 10  1  0
 12 11  2  0
 13 12  1  0
 14 13  1  1
 15 14  1  0
 15  6  1  0
 16 14  1  0
 16 17  2  0
 18 19  2  0
 18 12  1  0
 19  9  1  0
 21 20  1  0
 21 22  1  0
 22 23  1  0
 24 23  1  6
 24 25  1  0
 24 26  1  0
 25 16  1  0
 26 28  2  0
 26 27  1  0
M  END
$$$$
