TYM.pdb
     RDKit          3D

 28 28  0  0  1  0  0  0  0  0999 V2000
   23.3245  -17.8792  -20.0791 C   0  0  0  0  0  0  0  0  0  0  0  0
   22.8985  -18.8683  -19.0413 C   0  0  1  0  0  0  0  0  0  0  0  0
   22.3642  -20.0143  -19.6155 O   0  0  0  0  0  0  0  0  0  0  0  0
   24.0628  -19.2845  -18.1670 C   0  0  2  0  0  0  0  0  0  0  0  0
   25.0610  -19.9959  -18.9574 N   0  0  0  0  0  0  0  0  0  0  0  0
   23.6500  -20.0731  -16.9886 C   0  0  0  0  0  0  0  0  0  0  0  0
   23.8386  -21.3218  -17.0338 O   0  0  0  0  0  0  0  0  0  0  0  0
   28.9942  -21.7888  -13.7140 O   0  0  0  0  0  0  0  0  0  0  0  0
   27.6717  -21.3649  -13.6656 C   0  0  0  0  0  0  0  0  0  0  0  0
   27.3081  -20.1223  -14.1409 C   0  0  0  0  0  0  0  0  0  0  0  0
   25.9989  -19.6894  -14.0989 C   0  0  0  0  0  0  0  0  0  0  0  0
   24.9851  -20.4717  -13.5815 C   0  0  0  0  0  0  0  0  0  0  0  0
   23.5908  -20.0203  -13.5249 C   0  0  0  0  0  0  0  0  0  0  0  0
   22.7264  -20.4344  -14.6743 C   0  0  2  0  0  0  0  0  0  0  0  0
   23.0639  -19.5623  -15.8130 N   0  0  0  0  0  0  0  0  0  0  0  0
   21.3014  -20.3484  -14.3369 C   0  0  0  0  0  0  0  0  0  0  0  0
   20.7850  -19.2165  -14.1651 O   0  0  0  0  0  0  0  0  0  0  0  0
   25.3582  -21.7212  -13.1047 C   0  0  0  0  0  0  0  0  0  0  0  0
   26.6673  -22.1554  -13.1462 C   0  0  0  0  0  0  0  0  0  0  0  0
   13.9628  -22.8895  -14.1664 C   0  0  0  0  0  0  0  0  0  0  0  0
   15.6615  -22.9617  -14.7586 S   0  0  0  0  0  0  0  0  0  0  0  0
   16.8903  -22.6425  -13.5065 C   0  0  0  0  0  0  0  0  0  0  0  0
   18.3051  -22.6436  -13.9575 C   0  0  0  0  0  0  0  0  0  0  0  0
   19.0553  -21.3698  -13.7768 C   0  0  2  0  0  0  0  0  0  0  0  0
   20.4459  -21.4737  -14.1876 N   0  0  0  0  0  0  0  0  0  0  0  0
   18.9751  -20.8731  -12.4007 C   0  0  0  0  0  0  0  0  0  0  0  0
   17.9445  -20.0287  -12.0138 O   0  0  0  0  0  0  0  0  0  0  0  0
   19.8238  -21.1765  -11.5011 O   0  0  0  0  0  0  0  0  0  0  0  0
  2  4  1  0
  2  1  1  6
  3  2  1  0
  4  6  1  0
  4  5  1  6
  6  7  2  0
  9  8  1  0
  9 10  2  0
 11 10  1  0
 12 11  2  0
 13 12  1  0
 14 13  1  1
 15 14  1  0
 15  6  1  0
 16 14  1  0
 16 17  2  0
 18 19  2  0
 18 12  1  0
 19  9  1  0
 21 20  1  0
 21 22  1  0
 22 23  1  0
 24 23  1  1
 24 25  1  0
 24 26  1  0
 25 16  1  0
 26 28  2  0
 26 27  1  0
M  END
$$$$
