TYM.pdb
     RDKit          3D

 28 28  0  0  1  0  0  0  0  0999 V2000
   28.6748  -18.0801  -15.2659 C   0  0  0  0  0  0  0  0  0  0  0  0
   27.5924  -18.8982  -14.6369 C   0  0  1  0  0  0  0  0  0  0  0  0
   26.8570  -19.5923  -15.5886 O   0  0  0  0  0  0  0  0  0  0  0  0
   28.1615  -19.9067  -13.6610 C   0  0  2  0  0  0  0  0  0  0  0  0
   28.9447  -20.9118  -14.3704 N   0  0  0  0  0  0  0  0  0  0  0  0
   27.1314  -20.5331  -12.8080 C   0  0  0  0  0  0  0  0  0  0  0  0
   26.7959  -21.7198  -13.0837 O   0  0  0  0  0  0  0  0  0  0  0  0
   28.7590  -20.4018   -5.4983 O   0  0  0  0  0  0  0  0  0  0  0  0
   27.8565  -20.2433   -6.5430 C   0  0  0  0  0  0  0  0  0  0  0  0
   27.4588  -21.3215   -7.3055 C   0  0  0  0  0  0  0  0  0  0  0  0
   26.5635  -21.1780   -8.3453 C   0  0  0  0  0  0  0  0  0  0  0  0
   26.0187  -19.9534   -8.6788 C   0  0  0  0  0  0  0  0  0  0  0  0
   25.0714  -19.7865   -9.7858 C   0  0  0  0  0  0  0  0  0  0  0  0
   25.3628  -20.5863  -11.0168 C   0  0  2  0  0  0  0  0  0  0  0  0
   26.4850  -19.9301  -11.7104 N   0  0  0  0  0  0  0  0  0  0  0  0
   24.1842  -20.6916  -11.8840 C   0  0  0  0  0  0  0  0  0  0  0  0
   23.9671  -19.7860  -12.7266 O   0  0  0  0  0  0  0  0  0  0  0  0
   26.4235  -18.8723   -7.9072 C   0  0  0  0  0  0  0  0  0  0  0  0
   27.3188  -19.0147   -6.8669 C   0  0  0  0  0  0  0  0  0  0  0  0
   19.9296  -25.0118  -16.7301 C   0  0  0  0  0  0  0  0  0  0  0  0
   21.0496  -24.9316  -15.3228 S   0  0  0  0  0  0  0  0  0  0  0  0
   21.2097  -23.3083  -14.6028 C   0  0  0  0  0  0  0  0  0  0  0  0
   21.9657  -23.2256  -13.3273 C   0  0  0  0  0  0  0  0  0  0  0  0
   22.1115  -21.8672  -12.7345 C   0  0  2  0  0  0  0  0  0  0  0  0
   23.2525  -21.7643  -11.8397 N   0  0  0  0  0  0  0  0  0  0  0  0
   20.8936  -21.4326  -12.0455 C   0  0  0  0  0  0  0  0  0  0  0  0
   19.7799  -21.0284  -12.7675 O   0  0  0  0  0  0  0  0  0  0  0  0
   20.7864  -21.3989  -10.7771 O   0  0  0  0  0  0  0  0  0  0  0  0
  2  4  1  0
  2  1  1  6
  3  2  1  0
  4  6  1  0
  4  5  1  6
  6  7  2  0
  9  8  1  0
  9 10  2  0
 11 10  1  0
 12 11  2  0
 13 12  1  0
 14 13  1  1
 15 14  1  0
 15  6  1  0
 16 14  1  0
 16 17  2  0
 18 19  2  0
 18 12  1  0
 19  9  1  0
 21 20  1  0
 21 22  1  0
 22 23  1  0
 24 23  1  1
 24 25  1  0
 24 26  1  0
 25 16  1  0
 26 28  2  0
 26 27  1  0
M  END
$$$$
