TYM.pdb
     RDKit          3D

 28 28  0  0  1  0  0  0  0  0999 V2000
   26.7723  -17.1646  -18.0932 C   0  0  0  0  0  0  0  0  0  0  0  0
   27.2257  -18.2794  -18.9810 C   0  0  1  0  0  0  0  0  0  0  0  0
   27.9778  -17.8092  -20.0494 O   0  0  0  0  0  0  0  0  0  0  0  0
   28.0709  -19.2796  -18.2204 C   0  0  2  0  0  0  0  0  0  0  0  0
   28.4845  -20.3664  -19.1007 N   0  0  0  0  0  0  0  0  0  0  0  0
   27.4065  -19.7958  -17.0066 C   0  0  0  0  0  0  0  0  0  0  0  0
   26.5280  -20.6901  -17.1645 O   0  0  0  0  0  0  0  0  0  0  0  0
   25.1342  -20.9570   -8.3900 O   0  0  0  0  0  0  0  0  0  0  0  0
   25.7514  -20.6257   -9.5901 C   0  0  0  0  0  0  0  0  0  0  0  0
   26.3858  -21.5866  -10.3494 C   0  0  0  0  0  0  0  0  0  0  0  0
   27.0023  -21.2712  -11.5427 C   0  0  0  0  0  0  0  0  0  0  0  0
   27.0184  -19.9830  -12.0406 C   0  0  0  0  0  0  0  0  0  0  0  0
   27.6760  -19.6338  -13.3040 C   0  0  0  0  0  0  0  0  0  0  0  0
   26.8877  -19.9112  -14.5455 C   0  0  2  0  0  0  0  0  0  0  0  0
   27.6616  -19.3839  -15.6831 N   0  0  0  0  0  0  0  0  0  0  0  0
   25.5508  -19.3105  -14.4820 C   0  0  0  0  0  0  0  0  0  0  0  0
   25.3741  -18.1680  -14.9729 O   0  0  0  0  0  0  0  0  0  0  0  0
   26.3781  -19.0208  -11.2711 C   0  0  0  0  0  0  0  0  0  0  0  0
   25.7611  -19.3351  -10.0775 C   0  0  0  0  0  0  0  0  0  0  0  0
   20.6354  -16.8984  -14.7258 C   0  0  0  0  0  0  0  0  0  0  0  0
   21.0016  -17.6361  -16.3267 S   0  0  0  0  0  0  0  0  0  0  0  0
   21.4914  -19.3489  -16.2516 C   0  0  0  0  0  0  0  0  0  0  0  0
   22.8679  -19.6191  -15.7642 C   0  0  0  0  0  0  0  0  0  0  0  0
   23.0505  -19.6450  -14.2864 C   0  0  2  0  0  0  0  0  0  0  0  0
   24.4192  -19.9389  -13.8946 N   0  0  0  0  0  0  0  0  0  0  0  0
   22.1305  -20.5798  -13.6334 C   0  0  0  0  0  0  0  0  0  0  0  0
   20.9671  -20.1215  -13.0322 O   0  0  0  0  0  0  0  0  0  0  0  0
   22.3376  -21.8351  -13.5781 O   0  0  0  0  0  0  0  0  0  0  0  0
  2  4  1  0
  2  1  1  1
  3  2  1  0
  4  6  1  0
  4  5  1  6
  6  7  2  0
  9  8  1  0
  9 10  2  0
 11 10  1  0
 12 11  2  0
 13 12  1  0
 14 13  1  1
 15 14  1  0
 15  6  1  0
 16 14  1  0
 16 17  2  0
 18 19  2  0
 18 12  1  0
 19  9  1  0
 21 20  1  0
 21 22  1  0
 22 23  1  0
 24 23  1  6
 24 25  1  0
 24 26  1  0
 25 16  1  0
 26 28  2  0
 26 27  1  0
M  END
$$$$
