TYM.pdb
     RDKit          3D

 28 28  0  0  1  0  0  0  0  0999 V2000
   29.7707  -32.6760  -19.1030 C   0  0  0  0  0  0  0  0  0  0  0  0
   30.9808  -31.9542  -18.6021 C   0  0  1  0  0  0  0  0  0  0  0  0
   32.0789  -32.1632  -19.4260 O   0  0  0  0  0  0  0  0  0  0  0  0
   30.7368  -30.4618  -18.5204 C   0  0  2  0  0  0  0  0  0  0  0  0
   31.8905  -29.7914  -17.9316 N   0  0  0  0  0  0  0  0  0  0  0  0
   29.4924  -30.1162  -17.8044 C   0  0  0  0  0  0  0  0  0  0  0  0
   29.5950  -29.8048  -16.5840 O   0  0  0  0  0  0  0  0  0  0  0  0
   28.0396  -23.3910  -16.8600 O   0  0  0  0  0  0  0  0  0  0  0  0
   27.6127  -24.6718  -17.1891 C   0  0  0  0  0  0  0  0  0  0  0  0
   28.1522  -25.3434  -18.2662 C   0  0  0  0  0  0  0  0  0  0  0  0
   27.7375  -26.6152  -18.6037 C   0  0  0  0  0  0  0  0  0  0  0  0
   26.7645  -27.2829  -17.8860 C   0  0  0  0  0  0  0  0  0  0  0  0
   26.3103  -28.6320  -18.2386 C   0  0  0  0  0  0  0  0  0  0  0  0
   27.0138  -29.7566  -17.5457 C   0  0  2  0  0  0  0  0  0  0  0  0
   28.1956  -30.0998  -18.3561 N   0  0  0  0  0  0  0  0  0  0  0  0
   26.1325  -30.9154  -17.3650 C   0  0  0  0  0  0  0  0  0  0  0  0
   26.0380  -31.7572  -18.2923 O   0  0  0  0  0  0  0  0  0  0  0  0
   26.2257  -26.6008  -16.8033 C   0  0  0  0  0  0  0  0  0  0  0  0
   26.6397  -25.3288  -16.4647 C   0  0  0  0  0  0  0  0  0  0  0  0
   20.3568  -35.1858  -18.3632 C   0  0  0  0  0  0  0  0  0  0  0  0
   21.4376  -33.7501  -18.4727 S   0  0  0  0  0  0  0  0  0  0  0  0
   22.5778  -33.5834  -17.1120 C   0  0  0  0  0  0  0  0  0  0  0  0
   23.4907  -32.4130  -17.1579 C   0  0  0  0  0  0  0  0  0  0  0  0
   24.4769  -32.3025  -16.0474 C   0  0  2  0  0  0  0  0  0  0  0  0
   25.3634  -31.1599  -16.1949 N   0  0  0  0  0  0  0  0  0  0  0  0
   25.2625  -33.5285  -15.8836 C   0  0  0  0  0  0  0  0  0  0  0  0
   26.6492  -33.4836  -15.8826 O   0  0  0  0  0  0  0  0  0  0  0  0
   24.7350  -34.6783  -15.7379 O   0  0  0  0  0  0  0  0  0  0  0  0
  2  4  1  0
  2  1  1  6
  3  2  1  0
  4  6  1  0
  4  5  1  1
  6  7  2  0
  9  8  1  0
  9 10  2  0
 11 10  1  0
 12 11  2  0
 13 12  1  0
 14 13  1  6
 15 14  1  0
 15  6  1  0
 16 14  1  0
 16 17  2  0
 18 19  2  0
 18 12  1  0
 19  9  1  0
 21 20  1  0
 21 22  1  0
 22 23  1  0
 24 23  1  6
 24 25  1  0
 24 26  1  0
 25 16  1  0
 26 28  2  0
 26 27  1  0
M  END
$$$$
