TYM.pdb
     RDKit          3D

 28 28  0  0  1  0  0  0  0  0999 V2000
   28.9982  -20.1726  -18.8893 C   0  0  0  0  0  0  0  0  0  0  0  0
   27.9534  -20.4082  -17.8457 C   0  0  1  0  0  0  0  0  0  0  0  0
   26.7110  -20.6596  -18.4130 O   0  0  0  0  0  0  0  0  0  0  0  0
   28.3109  -21.5874  -16.9654 C   0  0  2  0  0  0  0  0  0  0  0  0
   28.3934  -22.8069  -17.7612 N   0  0  0  0  0  0  0  0  0  0  0  0
   27.3937  -21.7552  -15.8202 C   0  0  0  0  0  0  0  0  0  0  0  0
   26.5123  -22.6559  -15.9126 O   0  0  0  0  0  0  0  0  0  0  0  0
   23.4401  -20.7267   -7.8271 O   0  0  0  0  0  0  0  0  0  0  0  0
   24.2648  -20.6486   -8.9428 C   0  0  0  0  0  0  0  0  0  0  0  0
   25.4029  -21.4218   -9.0380 C   0  0  0  0  0  0  0  0  0  0  0  0
   26.2302  -21.3541  -10.1401 C   0  0  0  0  0  0  0  0  0  0  0  0
   25.9662  -20.5130  -11.2034 C   0  0  0  0  0  0  0  0  0  0  0  0
   26.8410  -20.4269  -12.3772 C   0  0  0  0  0  0  0  0  0  0  0  0
   26.3859  -21.1858  -13.5842 C   0  0  2  0  0  0  0  0  0  0  0  0
   27.4093  -21.0029  -14.6285 N   0  0  0  0  0  0  0  0  0  0  0  0
   25.0671  -20.7338  -14.0408 C   0  0  0  0  0  0  0  0  0  0  0  0
   24.9766  -19.6367  -14.6455 O   0  0  0  0  0  0  0  0  0  0  0  0
   24.8190  -19.7376  -11.1008 C   0  0  0  0  0  0  0  0  0  0  0  0
   23.9909  -19.8045   -9.9991 C   0  0  0  0  0  0  0  0  0  0  0  0
   21.4510  -20.9192  -18.9271 C   0  0  0  0  0  0  0  0  0  0  0  0
   20.2717  -21.3710  -17.6439 S   0  0  0  0  0  0  0  0  0  0  0  0
   20.7697  -20.9133  -15.9942 C   0  0  0  0  0  0  0  0  0  0  0  0
   22.1195  -21.3606  -15.5662 C   0  0  0  0  0  0  0  0  0  0  0  0
   22.5509  -20.9429  -14.2033 C   0  0  2  0  0  0  0  0  0  0  0  0
   23.8613  -21.4607  -13.8455 N   0  0  0  0  0  0  0  0  0  0  0  0
   21.5702  -21.3093  -13.1782 C   0  0  0  0  0  0  0  0  0  0  0  0
   20.3346  -20.6804  -13.1262 O   0  0  0  0  0  0  0  0  0  0  0  0
   21.7868  -22.2015  -12.2957 O   0  0  0  0  0  0  0  0  0  0  0  0
  2  4  1  0
  2  1  1  6
  3  2  1  0
  4  6  1  0
  4  5  1  6
  6  7  2  0
  9  8  1  0
  9 10  2  0
 11 10  1  0
 12 11  2  0
 13 12  1  0
 14 13  1  1
 15 14  1  0
 15  6  1  0
 16 14  1  0
 16 17  2  0
 18 19  2  0
 18 12  1  0
 19  9  1  0
 21 20  1  0
 21 22  1  0
 22 23  1  0
 24 23  1  6
 24 25  1  0
 24 26  1  0
 25 16  1  0
 26 28  2  0
 26 27  1  0
M  END
$$$$
