TYM.pdb
     RDKit          3D

 28 28  0  0  1  0  0  0  0  0999 V2000
   18.7228  -13.3248  -21.7811 C   0  0  0  0  0  0  0  0  0  0  0  0
   19.3537  -12.1859  -21.0453 C   0  0  1  0  0  0  0  0  0  0  0  0
   20.6026  -12.5291  -20.5448 O   0  0  0  0  0  0  0  0  0  0  0  0
   19.5272  -10.9791  -21.9437 C   0  0  2  0  0  0  0  0  0  0  0  0
   20.4173  -11.2981  -23.0541 N   0  0  0  0  0  0  0  0  0  0  0  0
   19.9845   -9.7770  -21.2179 C   0  0  0  0  0  0  0  0  0  0  0  0
   21.2212   -9.5193  -21.2478 O   0  0  0  0  0  0  0  0  0  0  0  0
   20.0965   -1.9645  -16.8556 O   0  0  0  0  0  0  0  0  0  0  0  0
   19.7535   -3.1141  -17.5568 C   0  0  0  0  0  0  0  0  0  0  0  0
   18.9121   -4.0567  -17.0039 C   0  0  0  0  0  0  0  0  0  0  0  0
   18.5635   -5.2021  -17.6892 C   0  0  0  0  0  0  0  0  0  0  0  0
   19.0350   -5.4673  -18.9601 C   0  0  0  0  0  0  0  0  0  0  0  0
   18.6773   -6.6842  -19.6963 C   0  0  0  0  0  0  0  0  0  0  0  0
   19.7346   -7.7416  -19.7571 C   0  0  2  0  0  0  0  0  0  0  0  0
   19.1683   -8.8859  -20.4926 N   0  0  0  0  0  0  0  0  0  0  0  0
   20.1832   -8.1346  -18.4168 C   0  0  0  0  0  0  0  0  0  0  0  0
   19.4501   -8.8854  -17.7266 O   0  0  0  0  0  0  0  0  0  0  0  0
   19.8815   -4.5143  -19.5105 C   0  0  0  0  0  0  0  0  0  0  0  0
   20.2308   -3.3682  -18.8260 C   0  0  0  0  0  0  0  0  0  0  0  0
   25.7539  -10.8733  -13.6975 C   0  0  0  0  0  0  0  0  0  0  0  0
   25.2304  -10.2297  -15.2953 S   0  0  0  0  0  0  0  0  0  0  0  0
   23.7312   -9.2658  -15.2437 C   0  0  0  0  0  0  0  0  0  0  0  0
   23.1664   -8.8564  -16.5547 C   0  0  0  0  0  0  0  0  0  0  0  0
   21.8535   -8.1545  -16.5164 C   0  0  2  0  0  0  0  0  0  0  0  0
   21.4102   -7.7201  -17.8310 N   0  0  0  0  0  0  0  0  0  0  0  0
   21.8620   -7.0194  -15.5900 C   0  0  0  0  0  0  0  0  0  0  0  0
   21.5090   -7.1914  -14.2593 O   0  0  0  0  0  0  0  0  0  0  0  0
   22.1835   -5.8380  -15.9403 O   0  0  0  0  0  0  0  0  0  0  0  0
  2  4  1  0
  2  1  1  6
  3  2  1  0
  4  6  1  0
  4  5  1  6
  6  7  2  0
  9  8  1  0
  9 10  2  0
 11 10  1  0
 12 11  2  0
 13 12  1  0
 14 13  1  1
 15 14  1  0
 15  6  1  0
 16 14  1  0
 16 17  2  0
 18 19  2  0
 18 12  1  0
 19  9  1  0
 21 20  1  0
 21 22  1  0
 22 23  1  0
 24 23  1  6
 24 25  1  0
 24 26  1  0
 25 16  1  0
 26 28  2  0
 26 27  1  0
M  END
$$$$
