TYM.pdb
     RDKit          3D

 28 28  0  0  1  0  0  0  0  0999 V2000
   25.4028  -10.4886  -19.6731 C   0  0  0  0  0  0  0  0  0  0  0  0
   25.3721  -11.9411  -20.0280 C   0  0  1  0  0  0  0  0  0  0  0  0
   26.4269  -12.2864  -20.8625 O   0  0  0  0  0  0  0  0  0  0  0  0
   25.4519  -12.8115  -18.7913 C   0  0  2  0  0  0  0  0  0  0  0  0
   25.5306  -14.2187  -19.1666 N   0  0  0  0  0  0  0  0  0  0  0  0
   24.3477  -12.5708  -17.8407 C   0  0  0  0  0  0  0  0  0  0  0  0
   23.1861  -12.9082  -18.2064 O   0  0  0  0  0  0  0  0  0  0  0  0
   22.8214  -18.1313  -14.8513 O   0  0  0  0  0  0  0  0  0  0  0  0
   22.9872  -16.7553  -14.7501 C   0  0  0  0  0  0  0  0  0  0  0  0
   21.8971  -15.9114  -14.7105 C   0  0  0  0  0  0  0  0  0  0  0  0
   22.0477  -14.5437  -14.6100 C   0  0  0  0  0  0  0  0  0  0  0  0
   23.2915  -13.9468  -14.5438 C   0  0  0  0  0  0  0  0  0  0  0  0
   23.4649  -12.4940  -14.4436 C   0  0  0  0  0  0  0  0  0  0  0  0
   23.2880  -11.7288  -15.7176 C   0  0  2  0  0  0  0  0  0  0  0  0
   24.4676  -11.9986  -16.5583 N   0  0  0  0  0  0  0  0  0  0  0  0
   23.1252  -10.2926  -15.4669 C   0  0  0  0  0  0  0  0  0  0  0  0
   24.1429   -9.6004  -15.2165 O   0  0  0  0  0  0  0  0  0  0  0  0
   24.3844  -14.8023  -14.5843 C   0  0  0  0  0  0  0  0  0  0  0  0
   24.2349  -16.1703  -14.6847 C   0  0  0  0  0  0  0  0  0  0  0  0
   21.1925   -6.0757  -20.4459 C   0  0  0  0  0  0  0  0  0  0  0  0
   20.3693   -6.5886  -18.9291 S   0  0  0  0  0  0  0  0  0  0  0  0
   21.4687   -7.2106  -17.6707 C   0  0  0  0  0  0  0  0  0  0  0  0
   20.8449   -7.5757  -16.3735 C   0  0  0  0  0  0  0  0  0  0  0  0
   21.7495   -8.1723  -15.3519 C   0  0  2  0  0  0  0  0  0  0  0  0
   21.8763   -9.6141  -15.4874 N   0  0  0  0  0  0  0  0  0  0  0  0
   21.3406   -7.8312  -13.9869 C   0  0  0  0  0  0  0  0  0  0  0  0
   21.4646   -6.5319  -13.5165 O   0  0  0  0  0  0  0  0  0  0  0  0
   20.8612   -8.6833  -13.1709 O   0  0  0  0  0  0  0  0  0  0  0  0
  2  4  1  0
  2  1  1  1
  3  2  1  0
  4  6  1  0
  4  5  1  6
  6  7  2  0
  9  8  1  0
  9 10  2  0
 11 10  1  0
 12 11  2  0
 13 12  1  0
 14 13  1  1
 15 14  1  0
 15  6  1  0
 16 14  1  0
 16 17  2  0
 18 19  2  0
 18 12  1  0
 19  9  1  0
 21 20  1  0
 21 22  1  0
 22 23  1  0
 24 23  1  6
 24 25  1  0
 24 26  1  0
 25 16  1  0
 26 28  2  0
 26 27  1  0
M  END
$$$$
