STP.pdb
     RDKit          3D

 21 21  0  0  1  0  0  0  0  0999 V2000
   23.3085  -19.8674  -16.5286 O   0  0  0  0  0  0  0  0  0  0  0  0
   24.2015  -19.6917  -17.5655 C   0  0  0  0  0  0  0  0  0  0  0  0
   25.5403  -19.2064  -17.0530 C   0  0  2  0  0  0  0  0  0  0  0  0
   26.1297  -20.2784  -16.2736 N   0  0  0  0  0  0  0  0  0  0  0  0
   25.4473  -17.9465  -16.3184 C   0  0  0  0  0  0  0  0  0  0  0  0
   25.6037  -17.9153  -15.0725 O   0  0  0  0  0  0  0  0  0  0  0  0
   27.5428  -15.0282  -16.4596 C   0  0  0  0  0  0  0  0  0  0  0  0
   26.1848  -14.6310  -17.0564 C   0  0  1  0  0  0  0  0  0  0  0  0
   26.2127  -15.0920  -18.3696 O   0  0  0  0  0  0  0  0  0  0  0  0
   25.0872  -15.4350  -16.3315 C   0  0  2  0  0  0  0  0  0  0  0  0
   25.1820  -16.7504  -16.9892 N   0  0  0  0  0  0  0  0  0  0  0  0
   23.7567  -14.8409  -16.6085 C   0  0  0  0  0  0  0  0  0  0  0  0
   23.3743  -14.8239  -17.8151 O   0  0  0  0  0  0  0  0  0  0  0  0
   22.9073  -14.2991  -15.5826 N   0  0  0  0  0  0  0  0  0  0  0  0
   23.1287  -14.2993  -14.1608 C   0  0  0  0  0  0  0  0  0  0  0  0
   22.5823  -12.9279  -13.7498 C   0  0  0  0  0  0  0  0  0  0  0  0
   21.2485  -12.9823  -14.5196 C   0  0  0  0  0  0  0  0  0  0  0  0
   21.6486  -13.6459  -15.8434 C   0  0  1  0  0  0  0  0  0  0  0  0
   21.7331  -12.6074  -16.9068 C   0  0  0  0  0  0  0  0  0  0  0  0
   20.6012  -12.1363  -17.5368 O   0  0  0  0  0  0  0  0  0  0  0  0
   22.8544  -12.1635  -17.2245 O   0  0  0  0  0  0  0  0  0  0  0  0
  1  2  1  0
  2  3  1  0
  3  4  1  1
  5  3  1  0
  6  5  2  0
  8  7  1  1
  8 10  1  0
  9  8  1  0
 10 12  1  0
 10 11  1  6
 11  5  1  0
 12 14  1  0
 13 12  2  0
 14 15  1  0
 14 18  1  0
 15 16  1  0
 16 17  1  0
 18 19  1  6
 18 17  1  0
 19 20  1  0
 21 19  2  0
M  END
$$$$
