STP.pdb
     RDKit          3D

 21 21  0  0  1  0  0  0  0  0999 V2000
   14.0940   -7.6148  -13.3900 O   0  0  0  0  0  0  0  0  0  0  0  0
   13.9135   -7.8170  -14.7427 C   0  0  0  0  0  0  0  0  0  0  0  0
   14.1434   -9.2670  -15.1106 C   0  0  2  0  0  0  0  0  0  0  0  0
   13.1758  -10.0659  -14.3830 N   0  0  0  0  0  0  0  0  0  0  0  0
   15.5229   -9.6984  -14.8948 C   0  0  0  0  0  0  0  0  0  0  0  0
   15.8086  -10.5023  -13.9730 O   0  0  0  0  0  0  0  0  0  0  0  0
   17.4899  -11.5622  -17.2237 C   0  0  0  0  0  0  0  0  0  0  0  0
   18.1898  -10.2036  -17.0753 C   0  0  1  0  0  0  0  0  0  0  0  0
   17.5020   -9.3421  -17.9252 O   0  0  0  0  0  0  0  0  0  0  0  0
   17.9478   -9.6921  -15.6412 C   0  0  2  0  0  0  0  0  0  0  0  0
   16.5522   -9.2240  -15.7113 N   0  0  0  0  0  0  0  0  0  0  0  0
   18.8391   -8.5414  -15.3559 C   0  0  0  0  0  0  0  0  0  0  0  0
   18.5110   -7.4233  -15.8505 O   0  0  0  0  0  0  0  0  0  0  0  0
   20.0304   -8.6471  -14.5577 N   0  0  0  0  0  0  0  0  0  0  0  0
   20.5402   -9.8102  -13.8810 C   0  0  0  0  0  0  0  0  0  0  0  0
   22.0525   -9.6599  -14.0774 C   0  0  0  0  0  0  0  0  0  0  0  0
   22.1802   -8.1770  -13.6787 C   0  0  0  0  0  0  0  0  0  0  0  0
   20.9299   -7.5485  -14.3071 C   0  0  1  0  0  0  0  0  0  0  0  0
   21.3186   -6.8122  -15.5412 C   0  0  0  0  0  0  0  0  0  0  0  0
   21.9141   -5.5708  -15.4747 O   0  0  0  0  0  0  0  0  0  0  0  0
   21.0961   -7.3388  -16.6495 O   0  0  0  0  0  0  0  0  0  0  0  0
  1  2  1  0
  2  3  1  0
  3  4  1  1
  5  3  1  0
  6  5  2  0
  8  7  1  1
  8 10  1  0
  9  8  1  0
 10 12  1  0
 10 11  1  6
 11  5  1  0
 12 14  1  0
 13 12  2  0
 14 15  1  0
 14 18  1  0
 15 16  1  0
 16 17  1  0
 18 19  1  6
 18 17  1  0
 19 20  1  0
 21 19  2  0
M  END
$$$$
