STP.pdb
     RDKit          3D

 21 21  0  0  1  0  0  0  0  0999 V2000
   15.7522  -14.2877  -15.7451 O   0  0  0  0  0  0  0  0  0  0  0  0
   16.9677  -13.6485  -15.6139 C   0  0  0  0  0  0  0  0  0  0  0  0
   17.9862  -14.2148  -16.5796 C   0  0  2  0  0  0  0  0  0  0  0  0
   18.1441  -15.6248  -16.2782 N   0  0  0  0  0  0  0  0  0  0  0  0
   19.2499  -13.4808  -16.5713 C   0  0  0  0  0  0  0  0  0  0  0  0
   20.2855  -13.9887  -16.0743 O   0  0  0  0  0  0  0  0  0  0  0  0
   21.7715   -9.8190  -18.6043 C   0  0  0  0  0  0  0  0  0  0  0  0
   20.5969  -10.8040  -18.5157 C   0  0  1  0  0  0  0  0  0  0  0  0
   20.9517  -11.8722  -19.3346 O   0  0  0  0  0  0  0  0  0  0  0  0
   20.5380  -11.3540  -17.0767 C   0  0  2  0  0  0  0  0  0  0  0  0
   19.3302  -12.1975  -17.1172 N   0  0  0  0  0  0  0  0  0  0  0  0
   20.3301  -10.2425  -16.1168 C   0  0  0  0  0  0  0  0  0  0  0  0
   19.3935   -9.4300  -16.3719 O   0  0  0  0  0  0  0  0  0  0  0  0
   21.1321  -10.0603  -14.9374 N   0  0  0  0  0  0  0  0  0  0  0  0
   22.1257  -10.9507  -14.3983 C   0  0  0  0  0  0  0  0  0  0  0  0
   23.1936   -9.9741  -13.8944 C   0  0  0  0  0  0  0  0  0  0  0  0
   22.2646   -8.9977  -13.1475 C   0  0  0  0  0  0  0  0  0  0  0  0
   21.0519   -8.9023  -14.0822 C   0  0  1  0  0  0  0  0  0  0  0  0
   21.1072   -7.6147  -14.8273 C   0  0  0  0  0  0  0  0  0  0  0  0
   20.7966   -6.4202  -14.2135 O   0  0  0  0  0  0  0  0  0  0  0  0
   21.4419   -7.6303  -16.0285 O   0  0  0  0  0  0  0  0  0  0  0  0
  1  2  1  0
  2  3  1  0
  3  4  1  1
  5  3  1  0
  6  5  2  0
  8  7  1  1
  8 10  1  0
  9  8  1  0
 10 12  1  0
 10 11  1  6
 11  5  1  0
 12 14  1  0
 13 12  2  0
 14 15  1  0
 14 18  1  0
 15 16  1  0
 16 17  1  0
 18 19  1  6
 18 17  1  0
 19 20  1  0
 21 19  2  0
M  END
$$$$
