STP.pdb
     RDKit          3D

 21 21  0  0  1  0  0  0  0  0999 V2000
   29.2346  -19.7863  -17.0980 O   0  0  0  0  0  0  0  0  0  0  0  0
   28.3114  -19.0363  -16.3989 C   0  0  0  0  0  0  0  0  0  0  0  0
   26.9563  -19.0781  -17.0716 C   0  0  2  0  0  0  0  0  0  0  0  0
   27.0016  -18.1827  -18.2119 N   0  0  0  0  0  0  0  0  0  0  0  0
   25.8555  -18.7864  -16.1558 C   0  0  0  0  0  0  0  0  0  0  0  0
   25.6371  -17.6125  -15.7659 O   0  0  0  0  0  0  0  0  0  0  0  0
   21.4293  -19.8208  -14.7516 C   0  0  0  0  0  0  0  0  0  0  0  0
   22.6786  -19.8317  -15.6445 C   0  0  1  0  0  0  0  0  0  0  0  0
   22.5647  -18.7007  -16.4481 O   0  0  0  0  0  0  0  0  0  0  0  0
   23.9128  -19.6111  -14.7475 C   0  0  2  0  0  0  0  0  0  0  0  0
   25.0236  -19.8097  -15.6955 N   0  0  0  0  0  0  0  0  0  0  0  0
   23.9696  -20.6564  -13.6968 C   0  0  0  0  0  0  0  0  0  0  0  0
   23.4639  -21.7823  -13.9777 O   0  0  0  0  0  0  0  0  0  0  0  0
   24.5642  -20.4429  -12.4051 N   0  0  0  0  0  0  0  0  0  0  0  0
   25.3182  -19.3021  -11.9571 C   0  0  0  0  0  0  0  0  0  0  0  0
   24.8508  -19.1575  -10.5049 C   0  0  0  0  0  0  0  0  0  0  0  0
   24.9879  -20.6328  -10.0813 C   0  0  0  0  0  0  0  0  0  0  0  0
   24.4876  -21.3882  -11.3191 C   0  0  1  0  0  0  0  0  0  0  0  0
   23.1069  -21.8842  -11.0661 C   0  0  0  0  0  0  0  0  0  0  0  0
   22.0159  -21.3016  -11.6746 O   0  0  0  0  0  0  0  0  0  0  0  0
   22.9476  -22.8450  -10.2872 O   0  0  0  0  0  0  0  0  0  0  0  0
  1  2  1  0
  2  3  1  0
  3  4  1  6
  5  3  1  0
  6  5  2  0
  8  7  1  1
  8 10  1  0
  9  8  1  0
 10 12  1  0
 10 11  1  6
 11  5  1  0
 12 14  1  0
 13 12  2  0
 14 15  1  0
 14 18  1  0
 15 16  1  0
 16 17  1  0
 18 19  1  1
 18 17  1  0
 19 20  1  0
 21 19  2  0
M  END
$$$$
