STP.pdb
     RDKit          3D

 21 21  0  0  1  0  0  0  0  0999 V2000
   31.2423  -21.2363  -22.0910 O   0  0  0  0  0  0  0  0  0  0  0  0
   31.9569  -22.1804  -21.3827 C   0  0  0  0  0  0  0  0  0  0  0  0
   32.3104  -21.6708  -20.0022 C   0  0  2  0  0  0  0  0  0  0  0  0
   33.4561  -20.7913  -20.1361 N   0  0  0  0  0  0  0  0  0  0  0  0
   32.5213  -22.7452  -19.0343 C   0  0  0  0  0  0  0  0  0  0  0  0
   33.6785  -23.0467  -18.6500 O   0  0  0  0  0  0  0  0  0  0  0  0
   30.1324  -25.7052  -15.8553 C   0  0  0  0  0  0  0  0  0  0  0  0
   30.1456  -24.6168  -16.9384 C   0  0  1  0  0  0  0  0  0  0  0  0
   29.9652  -23.4175  -16.2551 O   0  0  0  0  0  0  0  0  0  0  0  0
   31.5595  -24.5652  -17.5510 C   0  0  2  0  0  0  0  0  0  0  0  0
   31.4377  -23.4589  -18.5170 N   0  0  0  0  0  0  0  0  0  0  0  0
   31.8430  -25.8257  -18.2795 C   0  0  0  0  0  0  0  0  0  0  0  0
   30.9493  -26.2457  -19.0715 O   0  0  0  0  0  0  0  0  0  0  0  0
   33.0649  -26.5674  -18.1236 N   0  0  0  0  0  0  0  0  0  0  0  0
   34.2164  -26.2175  -17.3349 C   0  0  0  0  0  0  0  0  0  0  0  0
   34.6529  -27.5780  -16.7812 C   0  0  0  0  0  0  0  0  0  0  0  0
   34.5897  -28.3811  -18.0948 C   0  0  0  0  0  0  0  0  0  0  0  0
   33.3257  -27.8308  -18.7676 C   0  0  1  0  0  0  0  0  0  0  0  0
   32.2182  -28.8129  -18.6084 C   0  0  0  0  0  0  0  0  0  0  0  0
   32.1633  -29.9579  -19.3738 O   0  0  0  0  0  0  0  0  0  0  0  0
   31.3299  -28.5839  -17.7636 O   0  0  0  0  0  0  0  0  0  0  0  0
  1  2  1  0
  2  3  1  0
  3  4  1  6
  5  3  1  0
  6  5  2  0
  8  7  1  1
  8 10  1  0
  9  8  1  0
 10 12  1  0
 10 11  1  6
 11  5  1  0
 12 14  1  0
 13 12  2  0
 14 15  1  0
 14 18  1  0
 15 16  1  0
 16 17  1  0
 18 19  1  1
 18 17  1  0
 19 20  1  0
 21 19  2  0
M  END
$$$$
