HPH.pdb
     RDKit          3D

 28 30  0  0  1  0  0  0  0  0999 V2000
   23.5506  -14.6086  -17.9095 N   0  0  0  0  0  0  0  0  0  0  0  0
   23.9065  -13.2423  -18.2903 C   0  0  1  0  0  0  0  0  0  0  0  0
   22.9268  -12.8768  -19.3924 C   0  0  0  0  0  0  0  0  0  0  0  0
   23.0926  -13.7340  -20.5793 C   0  0  0  0  0  0  0  0  0  0  0  0
   24.0694  -13.5951  -21.5329 C   0  0  0  0  0  0  0  0  0  0  0  0
   23.8948  -14.5519  -22.4473 N   0  0  0  0  0  0  0  0  0  0  0  0
   22.8315  -15.3026  -22.1069 C   0  0  0  0  0  0  0  0  0  0  0  0
   22.3442  -14.7801  -20.9422 N   0  0  0  0  0  0  0  0  0  0  0  0
   23.8382  -12.3838  -17.1141 C   0  0  0  0  0  0  0  0  0  0  0  0
   22.7547  -12.4036  -16.4380 O   0  0  0  0  0  0  0  0  0  0  0  0
   24.8698  -11.5156  -16.6348 N   0  0  0  0  0  0  0  0  0  0  0  0
   26.1814  -11.4885  -17.2337 C   0  0  0  0  0  0  0  0  0  0  0  0
   26.9154  -10.3332  -16.6296 C   0  0  0  0  0  0  0  0  0  0  0  0
   26.2543  -10.2007  -15.2465 C   0  0  0  0  0  0  0  0  0  0  0  0
   24.8254  -10.5645  -15.5720 C   0  0  1  0  0  0  0  0  0  0  0  0
   23.9923   -9.3823  -15.8687 C   0  0  0  0  0  0  0  0  0  0  0  0
   24.1285   -8.8387  -16.9959 O   0  0  0  0  0  0  0  0  0  0  0  0
   23.0454   -8.8087  -14.9793 N   0  0  0  0  0  0  0  0  0  0  0  0
   22.2124   -7.6694  -15.3938 C   0  0  1  0  0  0  0  0  0  0  0  0
   21.3320   -8.1604  -16.5048 C   0  0  0  0  0  0  0  0  0  0  0  0
   20.3867   -9.2243  -16.0919 C   0  0  0  0  0  0  0  0  0  0  0  0
   20.6866  -10.2519  -15.2353 C   0  0  0  0  0  0  0  0  0  0  0  0
   19.6002  -11.0181  -15.0910 N   0  0  0  0  0  0  0  0  0  0  0  0
   18.6238  -10.4818  -15.8476 C   0  0  0  0  0  0  0  0  0  0  0  0
   19.1115   -9.3855  -16.4566 N   0  0  0  0  0  0  0  0  0  0  0  0
   21.3494   -7.2295  -14.2717 C   0  0  0  0  0  0  0  0  0  0  0  0
   20.4952   -6.1399  -14.3628 O   0  0  0  0  0  0  0  0  0  0  0  0
   21.3816   -7.8594  -13.1866 O   0  0  0  0  0  0  0  0  0  0  0  0
  2  9  1  0
  2  1  1  1
  3  2  1  0
  4  3  1  0
  4  5  2  0
  6  5  1  0
  7  6  1  0
  8  7  2  0
  8  4  1  0
  9 10  2  0
 11  9  1  0
 12 11  1  0
 13 12  1  0
 13 14  1  0
 14 15  1  0
 15 11  1  0
 15 16  1  6
 17 16  2  0
 18 16  1  0
 19 18  1  0
 19 26  1  0
 19 20  1  6
 21 20  1  0
 21 22  2  0
 23 22  1  0
 24 23  1  0
 25 24  2  0
 25 21  1  0
 26 27  1  0
 28 26  2  0
M  END
$$$$
