HPH.pdb
     RDKit          3D

 28 30  0  0  1  0  0  0  0  0999 V2000
   23.7788  -21.6049  -14.6008 N   0  0  0  0  0  0  0  0  0  0  0  0
   22.4931  -21.0530  -14.1752 C   0  0  1  0  0  0  0  0  0  0  0  0
   21.5074  -21.4906  -15.2451 C   0  0  0  0  0  0  0  0  0  0  0  0
   21.8279  -20.9040  -16.5582 C   0  0  0  0  0  0  0  0  0  0  0  0
   22.4042  -21.5706  -17.6100 C   0  0  0  0  0  0  0  0  0  0  0  0
   22.5368  -20.7110  -18.6227 N   0  0  0  0  0  0  0  0  0  0  0  0
   22.0610  -19.5090  -18.2500 C   0  0  0  0  0  0  0  0  0  0  0  0
   21.6238  -19.6467  -16.9628 N   0  0  0  0  0  0  0  0  0  0  0  0
   22.1834  -21.5379  -12.8358 C   0  0  0  0  0  0  0  0  0  0  0  0
   22.4975  -22.7459  -12.5642 O   0  0  0  0  0  0  0  0  0  0  0  0
   21.5601  -20.7925  -11.7853 N   0  0  0  0  0  0  0  0  0  0  0  0
   21.1538  -19.4203  -11.9629 C   0  0  0  0  0  0  0  0  0  0  0  0
   20.3591  -19.0385  -10.7542 C   0  0  0  0  0  0  0  0  0  0  0  0
   20.9388  -19.9587   -9.6659 C   0  0  0  0  0  0  0  0  0  0  0  0
   21.2205  -21.2095  -10.4636 C   0  0  1  0  0  0  0  0  0  0  0  0
   20.1062  -22.1767  -10.4149 C   0  0  0  0  0  0  0  0  0  0  0  0
   19.3461  -22.2442  -11.4161 O   0  0  0  0  0  0  0  0  0  0  0  0
   19.8238  -23.0404   -9.3236 N   0  0  0  0  0  0  0  0  0  0  0  0
   18.7430  -24.0348   -9.4064 C   0  0  1  0  0  0  0  0  0  0  0  0
   18.7832  -24.8226   -8.1303 C   0  0  0  0  0  0  0  0  0  0  0  0
   17.7031  -25.8309   -8.0169 C   0  0  0  0  0  0  0  0  0  0  0  0
   16.5500  -25.8330   -8.7584 C   0  0  0  0  0  0  0  0  0  0  0  0
   15.8089  -26.8841   -8.3920 N   0  0  0  0  0  0  0  0  0  0  0  0
   16.4851  -27.5399   -7.4296 C   0  0  0  0  0  0  0  0  0  0  0  0
   17.6421  -26.8905   -7.2053 N   0  0  0  0  0  0  0  0  0  0  0  0
   17.4278  -23.3572   -9.4975 C   0  0  0  0  0  0  0  0  0  0  0  0
   16.3636  -23.8758  -10.2211 O   0  0  0  0  0  0  0  0  0  0  0  0
   17.2542  -22.2671   -8.9002 O   0  0  0  0  0  0  0  0  0  0  0  0
  2  9  1  0
  2  1  1  6
  3  2  1  0
  4  3  1  0
  4  5  2  0
  6  5  1  0
  7  6  1  0
  8  7  2  0
  8  4  1  0
  9 10  2  0
 11  9  1  0
 12 11  1  0
 13 12  1  0
 13 14  1  0
 14 15  1  0
 15 11  1  0
 15 16  1  6
 17 16  2  0
 18 16  1  0
 19 18  1  0
 19 26  1  0
 19 20  1  1
 21 20  1  0
 21 22  2  0
 23 22  1  0
 24 23  1  0
 25 24  2  0
 25 21  1  0
 26 27  1  0
 28 26  2  0
M  END
$$$$
