HPH.pdb
     RDKit          3D

 28 30  0  0  1  0  0  0  0  0999 V2000
   20.1164  -14.0736  -18.3397 N   0  0  0  0  0  0  0  0  0  0  0  0
   21.0865  -13.0048  -18.5742 C   0  0  1  0  0  0  0  0  0  0  0  0
   20.5637  -12.2641  -19.7931 C   0  0  0  0  0  0  0  0  0  0  0  0
   20.5830  -13.1109  -20.9988 C   0  0  0  0  0  0  0  0  0  0  0  0
   21.6942  -13.7142  -21.5317 C   0  0  0  0  0  0  0  0  0  0  0  0
   21.3164  -14.3941  -22.6166 N   0  0  0  0  0  0  0  0  0  0  0  0
   19.9915  -14.2441  -22.7956 C   0  0  0  0  0  0  0  0  0  0  0  0
   19.5508  -13.4428  -21.7802 N   0  0  0  0  0  0  0  0  0  0  0  0
   21.1971  -12.1861  -17.3730 C   0  0  0  0  0  0  0  0  0  0  0  0
   20.1136  -11.7258  -16.8774 O   0  0  0  0  0  0  0  0  0  0  0  0
   22.4050  -11.8442  -16.6861 N   0  0  0  0  0  0  0  0  0  0  0  0
   23.6785  -12.4092  -17.0581 C   0  0  0  0  0  0  0  0  0  0  0  0
   24.7268  -11.6757  -16.2826 C   0  0  0  0  0  0  0  0  0  0  0  0
   23.9638  -11.2311  -15.0226 C   0  0  0  0  0  0  0  0  0  0  0  0
   22.5979  -10.9418  -15.5977 C   0  0  1  0  0  0  0  0  0  0  0  0
   22.4265   -9.5226  -15.9666 C   0  0  0  0  0  0  0  0  0  0  0  0
   22.8107   -9.1651  -17.1108 O   0  0  0  0  0  0  0  0  0  0  0  0
   21.8594   -8.5257  -15.1292 N   0  0  0  0  0  0  0  0  0  0  0  0
   21.6661   -7.1507  -15.6147 C   0  0  1  0  0  0  0  0  0  0  0  0
   20.6028   -7.2119  -16.6713 C   0  0  0  0  0  0  0  0  0  0  0  0
   19.3410   -7.8396  -16.2129 C   0  0  0  0  0  0  0  0  0  0  0  0
   19.1379   -8.3753  -14.9674 C   0  0  0  0  0  0  0  0  0  0  0  0
   17.8896   -8.8509  -14.9058 N   0  0  0  0  0  0  0  0  0  0  0  0
   17.3093   -8.6191  -16.0987 C   0  0  0  0  0  0  0  0  0  0  0  0
   18.2023   -8.0006  -16.8929 N   0  0  0  0  0  0  0  0  0  0  0  0
   21.1846   -6.2810  -14.5152 C   0  0  0  0  0  0  0  0  0  0  0  0
   21.0003   -4.9138  -14.6640 O   0  0  0  0  0  0  0  0  0  0  0  0
   20.9284   -6.7882  -13.3961 O   0  0  0  0  0  0  0  0  0  0  0  0
  2  9  1  0
  2  1  1  1
  3  2  1  0
  4  3  1  0
  4  5  2  0
  6  5  1  0
  7  6  1  0
  8  7  2  0
  8  4  1  0
  9 10  2  0
 11  9  1  0
 12 11  1  0
 13 12  1  0
 13 14  1  0
 14 15  1  0
 15 11  1  0
 15 16  1  6
 17 16  2  0
 18 16  1  0
 19 18  1  0
 19 26  1  0
 19 20  1  6
 21 20  1  0
 21 22  2  0
 23 22  1  0
 24 23  1  0
 25 24  2  0
 25 21  1  0
 26 27  1  0
 28 26  2  0
M  END
$$$$
