HPH.pdb
     RDKit          3D

 28 30  0  0  1  0  0  0  0  0999 V2000
   20.5166  -13.0474  -17.8118 N   0  0  0  0  0  0  0  0  0  0  0  0
   21.2791  -11.8007  -17.7565 C   0  0  1  0  0  0  0  0  0  0  0  0
   21.1450  -11.1996  -19.1452 C   0  0  0  0  0  0  0  0  0  0  0  0
   21.8399  -12.0087  -20.1619 C   0  0  0  0  0  0  0  0  0  0  0  0
   21.3234  -12.3745  -21.3793 C   0  0  0  0  0  0  0  0  0  0  0  0
   22.2437  -13.0996  -22.0190 N   0  0  0  0  0  0  0  0  0  0  0  0
   23.3387  -13.2098  -21.2451 C   0  0  0  0  0  0  0  0  0  0  0  0
   23.0706  -12.5253  -20.0933 N   0  0  0  0  0  0  0  0  0  0  0  0
   20.7532  -10.9645  -16.6845 C   0  0  0  0  0  0  0  0  0  0  0  0
   19.4916  -10.7653  -16.6637 O   0  0  0  0  0  0  0  0  0  0  0  0
   21.5117  -10.3404  -15.6438 N   0  0  0  0  0  0  0  0  0  0  0  0
   22.9107  -10.6276  -15.4443 C   0  0  0  0  0  0  0  0  0  0  0  0
   23.4177   -9.6531  -14.4285 C   0  0  0  0  0  0  0  0  0  0  0  0
   22.1561   -9.3372  -13.6064 C   0  0  0  0  0  0  0  0  0  0  0  0
   21.0938   -9.3759  -14.6788 C   0  0  1  0  0  0  0  0  0  0  0  0
   20.8179   -8.0440  -15.2527 C   0  0  0  0  0  0  0  0  0  0  0  0
   21.4817   -7.6936  -16.2633 O   0  0  0  0  0  0  0  0  0  0  0  0
   19.8586   -7.1240  -14.7528 N   0  0  0  0  0  0  0  0  0  0  0  0
   19.6394   -5.8273  -15.4119 C   0  0  1  0  0  0  0  0  0  0  0  0
   19.0943   -6.1244  -16.7776 C   0  0  0  0  0  0  0  0  0  0  0  0
   17.6845   -6.5810  -16.7715 C   0  0  0  0  0  0  0  0  0  0  0  0
   17.2198   -7.6854  -16.1052 C   0  0  0  0  0  0  0  0  0  0  0  0
   15.9046   -7.7924  -16.3217 N   0  0  0  0  0  0  0  0  0  0  0  0
   15.5408   -6.7676  -17.1160 C   0  0  0  0  0  0  0  0  0  0  0  0
   16.6339   -6.0311  -17.3870 N   0  0  0  0  0  0  0  0  0  0  0  0
   18.6309   -5.0367  -14.6667 C   0  0  0  0  0  0  0  0  0  0  0  0
   18.3077   -3.7284  -14.9969 O   0  0  0  0  0  0  0  0  0  0  0  0
   18.0357   -5.5593  -13.6931 O   0  0  0  0  0  0  0  0  0  0  0  0
  2  9  1  0
  2  1  1  6
  3  2  1  0
  4  3  1  0
  4  5  2  0
  6  5  1  0
  7  6  1  0
  8  7  2  0
  8  4  1  0
  9 10  2  0
 11  9  1  0
 12 11  1  0
 13 12  1  0
 13 14  1  0
 14 15  1  0
 15 11  1  0
 15 16  1  6
 17 16  2  0
 18 16  1  0
 19 18  1  0
 19 26  1  0
 19 20  1  6
 21 20  1  0
 21 22  2  0
 23 22  1  0
 24 23  1  0
 25 24  2  0
 25 21  1  0
 26 27  1  0
 28 26  2  0
M  END
$$$$
