HPH.pdb
     RDKit          3D

 28 30  0  0  1  0  0  0  0  0999 V2000
   20.9253  -12.7740  -17.6670 N   0  0  0  0  0  0  0  0  0  0  0  0
   20.6539  -11.3795  -18.0139 C   0  0  1  0  0  0  0  0  0  0  0  0
   19.1426  -11.2457  -17.9378 C   0  0  0  0  0  0  0  0  0  0  0  0
   18.4705  -12.0109  -19.0026 C   0  0  0  0  0  0  0  0  0  0  0  0
   18.2812  -11.5844  -20.2929 C   0  0  0  0  0  0  0  0  0  0  0  0
   17.6377  -12.5470  -20.9573 N   0  0  0  0  0  0  0  0  0  0  0  0
   17.4081  -13.5814  -20.1283 C   0  0  0  0  0  0  0  0  0  0  0  0
   17.9326  -13.2313  -18.9161 N   0  0  0  0  0  0  0  0  0  0  0  0
   21.3829  -10.5079  -17.1006 C   0  0  0  0  0  0  0  0  0  0  0  0
   21.1914  -10.6808  -15.8496 O   0  0  0  0  0  0  0  0  0  0  0  0
   22.2997   -9.4715  -17.4653 N   0  0  0  0  0  0  0  0  0  0  0  0
   22.6920   -9.2492  -18.8350 C   0  0  0  0  0  0  0  0  0  0  0  0
   23.4742   -7.9742  -18.8656 C   0  0  0  0  0  0  0  0  0  0  0  0
   24.0722   -7.9123  -17.4493 C   0  0  0  0  0  0  0  0  0  0  0  0
   22.9507   -8.5112  -16.6345 C   0  0  1  0  0  0  0  0  0  0  0  0
   22.0396   -7.4879  -16.0848 C   0  0  0  0  0  0  0  0  0  0  0  0
   21.0619   -7.1335  -16.7942 O   0  0  0  0  0  0  0  0  0  0  0  0
   22.1796   -6.8704  -14.8137 N   0  0  0  0  0  0  0  0  0  0  0  0
   21.1474   -5.9576  -14.2987 C   0  0  1  0  0  0  0  0  0  0  0  0
   20.8680   -6.3759  -12.8854 C   0  0  0  0  0  0  0  0  0  0  0  0
   20.1172   -7.6490  -12.7769 C   0  0  0  0  0  0  0  0  0  0  0  0
   19.6816   -8.3967  -13.8403 C   0  0  0  0  0  0  0  0  0  0  0  0
   19.0440   -9.4746  -13.3714 N   0  0  0  0  0  0  0  0  0  0  0  0
   19.0758   -9.4101  -12.0266 C   0  0  0  0  0  0  0  0  0  0  0  0
   19.7333   -8.2915  -11.6702 N   0  0  0  0  0  0  0  0  0  0  0  0
   21.6550   -4.5650  -14.2835 C   0  0  0  0  0  0  0  0  0  0  0  0
   20.8228   -3.4630  -14.1482 O   0  0  0  0  0  0  0  0  0  0  0  0
   22.8877   -4.3577  -14.3968 O   0  0  0  0  0  0  0  0  0  0  0  0
  2  9  1  0
  2  1  1  1
  3  2  1  0
  4  3  1  0
  4  5  2  0
  6  5  1  0
  7  6  1  0
  8  7  2  0
  8  4  1  0
  9 10  2  0
 11  9  1  0
 12 11  1  0
 13 12  1  0
 13 14  1  0
 14 15  1  0
 15 11  1  0
 15 16  1  6
 17 16  2  0
 18 16  1  0
 19 18  1  0
 19 26  1  0
 19 20  1  1
 21 20  1  0
 21 22  2  0
 23 22  1  0
 24 23  1  0
 25 24  2  0
 25 21  1  0
 26 27  1  0
 28 26  2  0
M  END
$$$$
