HPH.pdb
     RDKit          3D

 28 30  0  0  1  0  0  0  0  0999 V2000
   24.2969  -14.8861  -18.6033 N   0  0  0  0  0  0  0  0  0  0  0  0
   24.7496  -13.5102  -18.8049 C   0  0  1  0  0  0  0  0  0  0  0  0
   24.1940  -13.1116  -20.1614 C   0  0  0  0  0  0  0  0  0  0  0  0
   24.7673  -13.9243  -21.2486 C   0  0  0  0  0  0  0  0  0  0  0  0
   24.0637  -14.7717  -22.0668 C   0  0  0  0  0  0  0  0  0  0  0  0
   24.9225  -15.3280  -22.9241 N   0  0  0  0  0  0  0  0  0  0  0  0
   26.1600  -14.8607  -22.6789 C   0  0  0  0  0  0  0  0  0  0  0  0
   26.0456  -13.9884  -21.6334 N   0  0  0  0  0  0  0  0  0  0  0  0
   24.2838  -12.6853  -17.6968 C   0  0  0  0  0  0  0  0  0  0  0  0
   23.0502  -12.7767  -17.3782 O   0  0  0  0  0  0  0  0  0  0  0  0
   25.0741  -11.7779  -16.9224 N   0  0  0  0  0  0  0  0  0  0  0  0
   26.4835  -11.5959  -17.1670 C   0  0  0  0  0  0  0  0  0  0  0  0
   26.9276  -10.4375  -16.3307 C   0  0  0  0  0  0  0  0  0  0  0  0
   25.9359  -10.4717  -15.1548 C   0  0  0  0  0  0  0  0  0  0  0  0
   24.6747  -10.9229  -15.8521 C   0  0  1  0  0  0  0  0  0  0  0  0
   23.8278   -9.7922  -16.2808 C   0  0  0  0  0  0  0  0  0  0  0  0
   24.1615   -9.1748  -17.3258 O   0  0  0  0  0  0  0  0  0  0  0  0
   22.6617   -9.3452  -15.6047 N   0  0  0  0  0  0  0  0  0  0  0  0
   21.8027   -8.3028  -16.1872 C   0  0  1  0  0  0  0  0  0  0  0  0
   20.3945   -8.8155  -16.1172 C   0  0  0  0  0  0  0  0  0  0  0  0
   20.1495  -10.0055  -16.9658 C   0  0  0  0  0  0  0  0  0  0  0  0
   20.3948  -10.0731  -18.3130 C   0  0  0  0  0  0  0  0  0  0  0  0
   20.0571  -11.2918  -18.7476 N   0  0  0  0  0  0  0  0  0  0  0  0
   19.6032  -11.9877  -17.6878 C   0  0  0  0  0  0  0  0  0  0  0  0
   19.6625  -11.1952  -16.6019 N   0  0  0  0  0  0  0  0  0  0  0  0
   21.8889   -7.0592  -15.3852 C   0  0  0  0  0  0  0  0  0  0  0  0
   21.2859   -5.8713  -15.7730 O   0  0  0  0  0  0  0  0  0  0  0  0
   22.5313   -7.0653  -14.3070 O   0  0  0  0  0  0  0  0  0  0  0  0
  2  9  1  0
  2  1  1  1
  3  2  1  0
  4  3  1  0
  4  5  2  0
  6  5  1  0
  7  6  1  0
  8  7  2  0
  8  4  1  0
  9 10  2  0
 11  9  1  0
 12 11  1  0
 13 12  1  0
 13 14  1  0
 14 15  1  0
 15 11  1  0
 15 16  1  6
 17 16  2  0
 18 16  1  0
 19 18  1  0
 19 26  1  0
 19 20  1  1
 21 20  1  0
 21 22  2  0
 23 22  1  0
 24 23  1  0
 25 24  2  0
 25 21  1  0
 26 27  1  0
 28 26  2  0
M  END
$$$$
