RDW.pdb
     RDKit          3D

 34 35  0  0  1  0  0  0  0  0999 V2000
    9.0231  -13.7590   17.6630 N   0  0  0  0  0  0  0  0  0  0  0  0
    8.0507  -12.9598   18.3313 C   0  0  0  0  0  0  0  0  0  0  0  0
    8.3321  -11.7467   18.6286 N   0  0  0  0  0  0  0  0  0  0  0  0
    6.7718  -13.4857   18.6768 N   0  0  0  0  0  0  0  0  0  0  0  0
    6.6207  -14.7624   19.3295 C   0  0  0  0  0  0  0  0  0  0  0  0
    7.4579  -14.7773   20.5912 C   0  0  0  0  0  0  0  0  0  0  0  0
    7.3059  -16.0579   21.3637 C   0  0  0  0  0  0  0  0  0  0  0  0
    8.3975  -17.0628   21.0436 C   0  0  2  0  0  0  0  0  0  0  0  0
    7.7005  -18.2281   20.5186 N   0  0  0  0  0  0  0  0  0  0  0  0
    9.1201  -17.4877   22.2638 C   0  0  0  0  0  0  0  0  0  0  0  0
    8.6277  -18.2344   23.1568 O   0  0  0  0  0  0  0  0  0  0  0  0
    7.6815  -11.1412   19.1535 N   0  0  0  0  0  0  0  0  0  0  0  0
   10.4787  -17.0658   22.5222 C   0  0  2  0  0  0  0  0  0  0  0  0
   11.1558  -17.3720   23.7581 C   0  0  0  0  0  0  0  0  0  0  0  0
   12.6504  -17.1226   23.4950 C   0  0  0  0  0  0  0  0  0  0  0  0
   13.1404  -18.1238   22.5471 O   0  0  0  0  0  0  0  0  0  0  0  0
   12.7320  -19.2985   22.4016 C   0  0  0  0  0  0  0  0  0  0  0  0
   10.7880  -16.5001   24.8760 O   0  0  0  0  0  0  0  0  0  0  0  0
   11.0004  -15.2715   24.9026 O   0  0  0  0  0  0  0  0  0  0  0  0
   14.1924  -17.7635   21.6812 N   0  0  0  0  0  0  0  0  0  0  0  0
   10.1525  -17.0960   25.9937 C   0  0  1  0  0  0  0  0  0  0  0  0
    9.9215  -16.4092   27.2482 C   0  0  0  0  0  0  0  0  0  0  0  0
    8.4250  -16.4507   27.5723 C   0  0  0  0  0  0  0  0  0  0  0  0
    7.7021  -15.6306   26.5696 C   0  0  0  0  0  0  0  0  0  0  0  0
    6.8770  -16.0159   25.5397 N   0  0  0  0  0  0  0  0  0  0  0  0
    6.4227  -14.9748   24.8494 C   0  0  0  0  0  0  0  0  0  0  0  0
    6.9626  -13.8762   25.4405 C   0  0  0  0  0  0  0  0  0  0  0  0
    6.8291  -12.5387   25.1365 C   0  0  0  0  0  0  0  0  0  0  0  0
    7.4800  -11.6086   25.8891 C   0  0  0  0  0  0  0  0  0  0  0  0
    8.2760  -11.9517   26.9540 C   0  0  0  0  0  0  0  0  0  0  0  0
    8.4063  -13.2897   27.2530 C   0  0  0  0  0  0  0  0  0  0  0  0
    7.7551  -14.2471   26.5033 C   0  0  0  0  0  0  0  0  0  0  0  0
   10.6396  -17.0986   28.3367 O   0  0  0  0  0  0  0  0  0  0  0  0
   10.6411  -16.5048   29.6029 O   0  0  0  0  0  0  0  0  0  0  0  0
  2  4  1  0
  2  1  1  0
  3  2  2  0
  5  4  1  0
  6  5  1  0
  7  8  1  0
  7  6  1  0
  8 10  1  0
  8  9  1  1
 10 11  2  0
 12 13  1  0
 12 10  1  0
 14 15  1  0
 13 14  1  6
 15 19  1  0
 16 15  2  0
 17 18  2  0
 17 13  1  0
 20 17  1  0
 21 20  1  0
 21 22  1  1
 22 23  1  0
 23 24  2  0
 23 31  1  0
 24 25  1  0
 25 26  1  0
 26 27  2  0
 27 28  1  0
 29 28  2  0
 30 29  1  0
 31 30  2  0
 31 26  1  0
 32 21  1  0
 33 32  1  0
 34 32  2  0
M  END
$$$$
