RDW.pdb
     RDKit          3D

 34 35  0  0  1  0  0  0  0  0999 V2000
    8.9226  -14.1173   13.9831 N   0  0  0  0  0  0  0  0  0  0  0  0
    8.8268  -15.3156   14.7484 C   0  0  0  0  0  0  0  0  0  0  0  0
    9.3854  -16.3832   14.3157 N   0  0  0  0  0  0  0  0  0  0  0  0
    8.1192  -15.3487   15.9853 N   0  0  0  0  0  0  0  0  0  0  0  0
    7.5727  -14.1573   16.5859 C   0  0  0  0  0  0  0  0  0  0  0  0
    8.2984  -13.8785   17.8854 C   0  0  0  0  0  0  0  0  0  0  0  0
    7.5845  -14.4571   19.0750 C   0  0  0  0  0  0  0  0  0  0  0  0
    8.1939  -14.0116   20.3919 C   0  0  2  0  0  0  0  0  0  0  0  0
    9.4112  -13.3011   20.0274 N   0  0  0  0  0  0  0  0  0  0  0  0
    8.5862  -15.1684   21.2283 C   0  0  0  0  0  0  0  0  0  0  0  0
    7.7686  -15.9045   21.8504 O   0  0  0  0  0  0  0  0  0  0  0  0
    9.3803  -17.2657   14.8512 N   0  0  0  0  0  0  0  0  0  0  0  0
    9.9723  -15.5457   21.3925 C   0  0  1  0  0  0  0  0  0  0  0  0
   10.3843  -16.5707   22.3195 C   0  0  0  0  0  0  0  0  0  0  0  0
   11.8090  -16.9717   21.9015 C   0  0  0  0  0  0  0  0  0  0  0  0
   11.8034  -17.3415   20.4858 O   0  0  0  0  0  0  0  0  0  0  0  0
   12.4748  -16.8278   19.5621 C   0  0  0  0  0  0  0  0  0  0  0  0
   10.4794  -16.1197   23.7097 O   0  0  0  0  0  0  0  0  0  0  0  0
   11.1860  -15.1637   24.0869 O   0  0  0  0  0  0  0  0  0  0  0  0
   10.9584  -18.3918   20.0745 N   0  0  0  0  0  0  0  0  0  0  0  0
    9.7197  -16.8174   24.6812 C   0  0  1  0  0  0  0  0  0  0  0  0
    9.7177  -16.4853   26.0913 C   0  0  0  0  0  0  0  0  0  0  0  0
    8.2968  -16.6457   26.6405 C   0  0  0  0  0  0  0  0  0  0  0  0
    7.4079  -15.6893   25.9363 C   0  0  0  0  0  0  0  0  0  0  0  0
    6.4459  -15.9141   24.9803 N   0  0  0  0  0  0  0  0  0  0  0  0
    5.8643  -14.7864   24.5844 C   0  0  0  0  0  0  0  0  0  0  0  0
    6.4586  -13.7942   25.2984 C   0  0  0  0  0  0  0  0  0  0  0  0
    6.2450  -12.4327   25.2896 C   0  0  0  0  0  0  0  0  0  0  0  0
    6.9781  -11.6305   26.1106 C   0  0  0  0  0  0  0  0  0  0  0  0
    7.9360  -12.1276   26.9596 C   0  0  0  0  0  0  0  0  0  0  0  0
    8.1458  -13.4887   26.9638 C   0  0  0  0  0  0  0  0  0  0  0  0
    7.4135  -14.3182   26.1402 C   0  0  0  0  0  0  0  0  0  0  0  0
   10.5949  -17.4156   26.8268 O   0  0  0  0  0  0  0  0  0  0  0  0
   10.8796  -17.1310   28.1661 O   0  0  0  0  0  0  0  0  0  0  0  0
  2  4  1  0
  2  1  1  0
  3  2  2  0
  5  4  1  0
  6  5  1  0
  7  8  1  0
  7  6  1  0
  8 10  1  0
  8  9  1  6
 10 11  2  0
 12 13  1  0
 12 10  1  0
 14 15  1  0
 13 14  1  1
 15 19  1  0
 16 15  2  0
 17 18  2  0
 17 13  1  0
 20 17  1  0
 21 20  1  0
 21 22  1  6
 22 23  1  0
 23 24  2  0
 23 31  1  0
 24 25  1  0
 25 26  1  0
 26 27  2  0
 27 28  1  0
 29 28  2  0
 30 29  1  0
 31 30  2  0
 31 26  1  0
 32 21  1  0
 33 32  1  0
 34 32  2  0
M  END
$$$$
