RDW.pdb
     RDKit          3D

 34 35  0  0  1  0  0  0  0  0999 V2000
    7.5625  -12.1778   16.5141 N   0  0  0  0  0  0  0  0  0  0  0  0
    7.4045  -13.4855   15.9701 C   0  0  0  0  0  0  0  0  0  0  0  0
    7.6252  -13.6778   14.7237 N   0  0  0  0  0  0  0  0  0  0  0  0
    7.0034  -14.5828   16.7865 N   0  0  0  0  0  0  0  0  0  0  0  0
    7.9515  -15.3526   17.5530 C   0  0  0  0  0  0  0  0  0  0  0  0
    8.2520  -14.6249   18.8465 C   0  0  0  0  0  0  0  0  0  0  0  0
    8.2948  -15.5527   20.0284 C   0  0  0  0  0  0  0  0  0  0  0  0
    9.6468  -16.2226   20.1928 C   0  0  2  0  0  0  0  0  0  0  0  0
    9.6463  -17.3212   19.2376 N   0  0  0  0  0  0  0  0  0  0  0  0
    9.8034  -16.8068   21.5441 C   0  0  0  0  0  0  0  0  0  0  0  0
    8.8981  -17.4482   22.1495 O   0  0  0  0  0  0  0  0  0  0  0  0
    7.6070  -14.6179   14.2978 N   0  0  0  0  0  0  0  0  0  0  0  0
   11.0400  -16.6804   22.2825 C   0  0  1  0  0  0  0  0  0  0  0  0
   11.1352  -17.0113   23.6830 C   0  0  0  0  0  0  0  0  0  0  0  0
   12.5214  -16.5263   24.1393 C   0  0  0  0  0  0  0  0  0  0  0  0
   13.5484  -17.3437   23.4924 O   0  0  0  0  0  0  0  0  0  0  0  0
   13.4519  -18.5367   23.1246 C   0  0  0  0  0  0  0  0  0  0  0  0
   10.1620  -16.3190   24.5308 O   0  0  0  0  0  0  0  0  0  0  0  0
    9.0007  -16.0371   24.1740 O   0  0  0  0  0  0  0  0  0  0  0  0
   14.8042  -16.7571   23.2371 N   0  0  0  0  0  0  0  0  0  0  0  0
   10.5719  -15.9489   25.8358 C   0  0  1  0  0  0  0  0  0  0  0  0
    9.7769  -16.1803   27.0245 C   0  0  0  0  0  0  0  0  0  0  0  0
    8.3914  -16.6842   26.6088 C   0  0  0  0  0  0  0  0  0  0  0  0
    7.7312  -15.6331   25.7963 C   0  0  0  0  0  0  0  0  0  0  0  0
    7.1684  -15.7051   24.5442 N   0  0  0  0  0  0  0  0  0  0  0  0
    6.6802  -14.5335   24.1495 C   0  0  0  0  0  0  0  0  0  0  0  0
    6.9279  -13.6685   25.1683 C   0  0  0  0  0  0  0  0  0  0  0  0
    6.6376  -12.3272   25.2952 C   0  0  0  0  0  0  0  0  0  0  0  0
    6.9923  -11.6659   26.4319 C   0  0  0  0  0  0  0  0  0  0  0  0
    7.6368  -12.2876   27.4728 C   0  0  0  0  0  0  0  0  0  0  0  0
    7.9250  -13.6278   27.3404 C   0  0  0  0  0  0  0  0  0  0  0  0
    7.5738  -14.3157   26.1974 C   0  0  0  0  0  0  0  0  0  0  0  0
   10.4079  -17.2239   27.8543 O   0  0  0  0  0  0  0  0  0  0  0  0
    9.8454  -17.4992   29.1047 O   0  0  0  0  0  0  0  0  0  0  0  0
  2  4  1  0
  2  1  1  0
  3  2  2  0
  5  4  1  0
  6  5  1  0
  7  8  1  0
  7  6  1  0
  8 10  1  0
  8  9  1  6
 10 11  2  0
 12 13  1  0
 12 10  1  0
 14 15  1  0
 13 14  1  1
 15 19  1  0
 16 15  2  0
 17 18  2  0
 17 13  1  0
 20 17  1  0
 21 20  1  0
 21 22  1  1
 22 23  1  0
 23 24  2  0
 23 31  1  0
 24 25  1  0
 25 26  1  0
 26 27  2  0
 27 28  1  0
 29 28  2  0
 30 29  1  0
 31 30  2  0
 31 26  1  0
 32 21  1  0
 33 32  1  0
 34 32  2  0
M  END
$$$$
