RDW.pdb
     RDKit          3D

 34 35  0  0  1  0  0  0  0  0999 V2000
    7.9829  -13.4004   16.9142 N   0  0  0  0  0  0  0  0  0  0  0  0
    7.5639  -12.9097   18.1849 C   0  0  0  0  0  0  0  0  0  0  0  0
    7.7956  -11.6892   18.4942 N   0  0  0  0  0  0  0  0  0  0  0  0
    6.8936  -13.7525   19.1188 N   0  0  0  0  0  0  0  0  0  0  0  0
    7.0494  -15.1858   19.1046 C   0  0  0  0  0  0  0  0  0  0  0  0
    8.4087  -15.5432   19.6680 C   0  0  0  0  0  0  0  0  0  0  0  0
    8.3142  -16.4817   20.8384 C   0  0  0  0  0  0  0  0  0  0  0  0
    9.1084  -17.7577   20.6259 C   0  0  2  0  0  0  0  0  0  0  0  0
    8.1309  -18.8333   20.7102 N   0  0  0  0  0  0  0  0  0  0  0  0
   10.0978  -17.9686   21.7067 C   0  0  0  0  0  0  0  0  0  0  0  0
   10.1496  -19.0040   22.4298 O   0  0  0  0  0  0  0  0  0  0  0  0
    7.4964  -11.2806   19.3936 N   0  0  0  0  0  0  0  0  0  0  0  0
   11.1021  -16.9754   22.0152 C   0  0  2  0  0  0  0  0  0  0  0  0
   12.1394  -17.2092   22.9894 C   0  0  0  0  0  0  0  0  0  0  0  0
   13.0058  -15.9386   22.9986 C   0  0  0  0  0  0  0  0  0  0  0  0
   13.8687  -15.9424   21.8169 O   0  0  0  0  0  0  0  0  0  0  0  0
   14.8943  -16.6348   21.6253 C   0  0  0  0  0  0  0  0  0  0  0  0
   11.6493  -17.3778   24.3593 O   0  0  0  0  0  0  0  0  0  0  0  0
   11.2764  -18.4673   24.8383 O   0  0  0  0  0  0  0  0  0  0  0  0
   13.5417  -15.0816   20.7499 N   0  0  0  0  0  0  0  0  0  0  0  0
   11.5974  -16.2280   25.1858 C   0  0  2  0  0  0  0  0  0  0  0  0
   10.3698  -15.6807   25.7263 C   0  0  0  0  0  0  0  0  0  0  0  0
    9.4313  -15.3213   24.5703 C   0  0  0  0  0  0  0  0  0  0  0  0
    8.1407  -14.8586   25.1366 C   0  0  0  0  0  0  0  0  0  0  0  0
    7.0038  -15.5677   25.4441 N   0  0  0  0  0  0  0  0  0  0  0  0
    6.0453  -14.7857   25.9302 C   0  0  0  0  0  0  0  0  0  0  0  0
    6.5649  -13.5297   25.9432 C   0  0  0  0  0  0  0  0  0  0  0  0
    6.0097  -12.3347   26.3470 C   0  0  0  0  0  0  0  0  0  0  0  0
    6.7420  -11.1893   26.2633 C   0  0  0  0  0  0  0  0  0  0  0  0
    8.0295  -11.1738   25.7864 C   0  0  0  0  0  0  0  0  0  0  0  0
    8.5792  -12.3707   25.3837 C   0  0  0  0  0  0  0  0  0  0  0  0
    7.8542  -13.5417   25.4608 C   0  0  0  0  0  0  0  0  0  0  0  0
    9.6940  -16.6928   26.5599 O   0  0  0  0  0  0  0  0  0  0  0  0
   10.4717  -17.4313   27.4574 O   0  0  0  0  0  0  0  0  0  0  0  0
  2  4  1  0
  2  1  1  0
  3  2  2  0
  5  4  1  0
  6  5  1  0
  7  8  1  0
  7  6  1  0
  8 10  1  0
  8  9  1  1
 10 11  2  0
 12 13  1  0
 12 10  1  0
 14 15  1  0
 13 14  1  6
 15 19  1  0
 16 15  2  0
 17 18  2  0
 17 13  1  0
 20 17  1  0
 21 20  1  0
 21 22  1  1
 22 23  1  0
 23 24  2  0
 23 31  1  0
 24 25  1  0
 25 26  1  0
 26 27  2  0
 27 28  1  0
 29 28  2  0
 30 29  1  0
 31 30  2  0
 31 26  1  0
 32 21  1  0
 33 32  1  0
 34 32  2  0
M  END
$$$$
