RDW.pdb
     RDKit          3D

 34 35  0  0  1  0  0  0  0  0999 V2000
    9.0452  -14.4120   17.9201 N   0  0  0  0  0  0  0  0  0  0  0  0
    8.2218  -13.3544   17.4359 C   0  0  0  0  0  0  0  0  0  0  0  0
    8.2746  -13.0343   16.1974 N   0  0  0  0  0  0  0  0  0  0  0  0
    7.3422  -12.6449   18.3045 N   0  0  0  0  0  0  0  0  0  0  0  0
    6.9828  -13.1484   19.6070 C   0  0  0  0  0  0  0  0  0  0  0  0
    7.1515  -14.6531   19.6217 C   0  0  0  0  0  0  0  0  0  0  0  0
    7.9413  -15.1287   20.8090 C   0  0  0  0  0  0  0  0  0  0  0  0
    8.0137  -16.6427   20.8903 C   0  0  2  0  0  0  0  0  0  0  0  0
    6.6305  -17.0853   20.9917 N   0  0  0  0  0  0  0  0  0  0  0  0
    8.7154  -17.0884   22.1152 C   0  0  0  0  0  0  0  0  0  0  0  0
    8.1447  -17.6359   23.1011 O   0  0  0  0  0  0  0  0  0  0  0  0
    7.7969  -12.2002   15.8214 N   0  0  0  0  0  0  0  0  0  0  0  0
   10.1436  -16.9240   22.2693 C   0  0  2  0  0  0  0  0  0  0  0  0
   10.8386  -17.3303   23.4658 C   0  0  0  0  0  0  0  0  0  0  0  0
   12.3361  -17.2985   23.1172 C   0  0  0  0  0  0  0  0  0  0  0  0
   12.5711  -18.1486   21.9496 O   0  0  0  0  0  0  0  0  0  0  0  0
   12.3944  -19.3849   21.8601 C   0  0  0  0  0  0  0  0  0  0  0  0
   10.6649  -16.4194   24.5995 O   0  0  0  0  0  0  0  0  0  0  0  0
   11.0574  -15.2357   24.6107 O   0  0  0  0  0  0  0  0  0  0  0  0
   13.0519  -17.5440   20.7708 N   0  0  0  0  0  0  0  0  0  0  0  0
   10.0103  -16.9206   25.7520 C   0  0  1  0  0  0  0  0  0  0  0  0
   10.0322  -16.2595   27.0409 C   0  0  0  0  0  0  0  0  0  0  0  0
    8.6070  -16.2067   27.5998 C   0  0  0  0  0  0  0  0  0  0  0  0
    7.7500  -15.4709   26.6382 C   0  0  0  0  0  0  0  0  0  0  0  0
    6.8504  -15.9437   25.7125 N   0  0  0  0  0  0  0  0  0  0  0  0
    6.2792  -14.9596   25.0254 C   0  0  0  0  0  0  0  0  0  0  0  0
    6.8166  -13.8097   25.5117 C   0  0  0  0  0  0  0  0  0  0  0  0
    6.5864  -12.4961   25.1641 C   0  0  0  0  0  0  0  0  0  0  0  0
    7.2584  -11.5013   25.8075 C   0  0  0  0  0  0  0  0  0  0  0  0
    8.1697  -11.7549   26.8028 C   0  0  0  0  0  0  0  0  0  0  0  0
    8.3963  -13.0693   27.1457 C   0  0  0  0  0  0  0  0  0  0  0  0
    7.7257  -14.0912   26.5065 C   0  0  0  0  0  0  0  0  0  0  0  0
   10.8608  -17.0313   27.9862 O   0  0  0  0  0  0  0  0  0  0  0  0
   11.0893  -16.4890   29.2549 O   0  0  0  0  0  0  0  0  0  0  0  0
  2  4  1  0
  2  1  1  0
  3  2  2  0
  5  4  1  0
  6  5  1  0
  7  8  1  0
  7  6  1  0
  8 10  1  0
  8  9  1  1
 10 11  2  0
 12 13  1  0
 12 10  1  0
 14 15  1  0
 13 14  1  6
 15 19  1  0
 16 15  2  0
 17 18  2  0
 17 13  1  0
 20 17  1  0
 21 20  1  0
 21 22  1  1
 22 23  1  0
 23 24  2  0
 23 31  1  0
 24 25  1  0
 25 26  1  0
 26 27  2  0
 27 28  1  0
 29 28  2  0
 30 29  1  0
 31 30  2  0
 31 26  1  0
 32 21  1  0
 33 32  1  0
 34 32  2  0
M  END
$$$$
