RDW.pdb
     RDKit          3D

 34 35  0  0  1  0  0  0  0  0999 V2000
    7.3827  -13.6382   16.9296 N   0  0  0  0  0  0  0  0  0  0  0  0
    8.2593  -13.2195   17.9723 C   0  0  0  0  0  0  0  0  0  0  0  0
    8.5179  -11.9735   18.1126 N   0  0  0  0  0  0  0  0  0  0  0  0
    8.8553  -14.1616   18.8605 N   0  0  0  0  0  0  0  0  0  0  0  0
    8.6291  -14.1199   20.2839 C   0  0  0  0  0  0  0  0  0  0  0  0
    7.2287  -14.6144   20.5790 C   0  0  0  0  0  0  0  0  0  0  0  0
    7.1883  -15.5515   21.7536 C   0  0  0  0  0  0  0  0  0  0  0  0
    8.0254  -16.7981   21.5317 C   0  0  2  0  0  0  0  0  0  0  0  0
    7.0669  -17.8526   21.2337 N   0  0  0  0  0  0  0  0  0  0  0  0
    8.7524  -17.1906   22.7601 C   0  0  0  0  0  0  0  0  0  0  0  0
    8.2111  -17.7433   23.7596 O   0  0  0  0  0  0  0  0  0  0  0  0
    9.0816  -11.6111   18.8977 N   0  0  0  0  0  0  0  0  0  0  0  0
   10.1731  -16.9627   22.9019 C   0  0  2  0  0  0  0  0  0  0  0  0
   10.9043  -17.3786   24.0733 C   0  0  0  0  0  0  0  0  0  0  0  0
   12.3851  -17.4095   23.6593 C   0  0  0  0  0  0  0  0  0  0  0  0
   12.6083  -18.5536   22.7749 O   0  0  0  0  0  0  0  0  0  0  0  0
   11.9720  -19.6317   22.7494 C   0  0  0  0  0  0  0  0  0  0  0  0
   10.8154  -16.4459   25.1990 O   0  0  0  0  0  0  0  0  0  0  0  0
   11.1306  -15.2410   25.1340 O   0  0  0  0  0  0  0  0  0  0  0  0
   13.6500  -18.4719   21.8291 N   0  0  0  0  0  0  0  0  0  0  0  0
   10.3420  -16.9503   26.4357 C   0  0  1  0  0  0  0  0  0  0  0  0
   10.3873  -16.2064   27.6780 C   0  0  0  0  0  0  0  0  0  0  0  0
    8.9887  -16.1910   28.3025 C   0  0  0  0  0  0  0  0  0  0  0  0
    8.0563  -15.5317   27.3557 C   0  0  0  0  0  0  0  0  0  0  0  0
    7.1749  -16.0804   26.4546 N   0  0  0  0  0  0  0  0  0  0  0  0
    6.5146  -15.1492   25.7737 C   0  0  0  0  0  0  0  0  0  0  0  0
    6.9732  -13.9572   26.2389 C   0  0  0  0  0  0  0  0  0  0  0  0
    6.6351  -12.6683   25.8869 C   0  0  0  0  0  0  0  0  0  0  0  0
    7.2432  -11.6192   26.5071 C   0  0  0  0  0  0  0  0  0  0  0  0
    8.1935  -11.7931   27.4829 C   0  0  0  0  0  0  0  0  0  0  0  0
    8.5279  -13.0832   27.8302 C   0  0  0  0  0  0  0  0  0  0  0  0
    7.9233  -14.1592   27.2143 C   0  0  0  0  0  0  0  0  0  0  0  0
   11.2996  -16.8713   28.6274 O   0  0  0  0  0  0  0  0  0  0  0  0
   11.5452  -16.2436   29.8528 O   0  0  0  0  0  0  0  0  0  0  0  0
  2  4  1  0
  2  1  1  0
  3  2  2  0
  5  4  1  0
  6  5  1  0
  7  8  1  0
  7  6  1  0
  8 10  1  0
  8  9  1  1
 10 11  2  0
 12 13  1  0
 12 10  1  0
 14 15  1  0
 13 14  1  6
 15 19  1  0
 16 15  2  0
 17 18  2  0
 17 13  1  0
 20 17  1  0
 21 20  1  0
 21 22  1  1
 22 23  1  0
 23 24  2  0
 23 31  1  0
 24 25  1  0
 25 26  1  0
 26 27  2  0
 27 28  1  0
 29 28  2  0
 30 29  1  0
 31 30  2  0
 31 26  1  0
 32 21  1  0
 33 32  1  0
 34 32  2  0
M  END
$$$$
