RDW.pdb
     RDKit          3D

 34 35  0  0  1  0  0  0  0  0999 V2000
    7.3792  -13.9878   15.6174 N   0  0  0  0  0  0  0  0  0  0  0  0
    8.4188  -13.9807   16.5921 C   0  0  0  0  0  0  0  0  0  0  0  0
    9.2227  -12.9857   16.6454 N   0  0  0  0  0  0  0  0  0  0  0  0
    8.5819  -15.0611   17.5074 N   0  0  0  0  0  0  0  0  0  0  0  0
    7.5922  -16.1000   17.6486 C   0  0  0  0  0  0  0  0  0  0  0  0
    7.3255  -16.3353   19.1205 C   0  0  0  0  0  0  0  0  0  0  0  0
    8.5441  -16.8251   19.8517 C   0  0  0  0  0  0  0  0  0  0  0  0
    8.2476  -17.1938   21.2939 C   0  0  2  0  0  0  0  0  0  0  0  0
    7.7266  -15.9766   21.8990 N   0  0  0  0  0  0  0  0  0  0  0  0
    9.4807  -17.5628   22.0252 C   0  0  0  0  0  0  0  0  0  0  0  0
    9.7453  -18.7317   22.4268 O   0  0  0  0  0  0  0  0  0  0  0  0
   10.0052  -12.9428   17.3171 N   0  0  0  0  0  0  0  0  0  0  0  0
   10.4961  -16.5816   22.3364 C   0  0  1  0  0  0  0  0  0  0  0  0
   11.7465  -16.9414   22.9582 C   0  0  0  0  0  0  0  0  0  0  0  0
   12.6895  -15.7472   22.7349 C   0  0  0  0  0  0  0  0  0  0  0  0
   13.6478  -16.0876   21.6829 O   0  0  0  0  0  0  0  0  0  0  0  0
   14.7531  -15.5451   21.4554 C   0  0  0  0  0  0  0  0  0  0  0  0
   11.6636  -17.1294   24.4083 O   0  0  0  0  0  0  0  0  0  0  0  0
   11.8103  -18.2282   24.9796 O   0  0  0  0  0  0  0  0  0  0  0  0
   13.3265  -17.1415   20.8040 N   0  0  0  0  0  0  0  0  0  0  0  0
   11.3992  -15.9882   25.2057 C   0  0  2  0  0  0  0  0  0  0  0  0
   10.1067  -15.6990   25.7926 C   0  0  0  0  0  0  0  0  0  0  0  0
    9.1100  -15.3800   24.6740 C   0  0  0  0  0  0  0  0  0  0  0  0
    7.8415  -14.9190   25.2896 C   0  0  0  0  0  0  0  0  0  0  0  0
    6.6748  -15.6044   25.5321 N   0  0  0  0  0  0  0  0  0  0  0  0
    5.7520  -14.8325   26.0973 C   0  0  0  0  0  0  0  0  0  0  0  0
    6.3265  -13.6078   26.2304 C   0  0  0  0  0  0  0  0  0  0  0  0
    5.8247  -12.4350   26.7520 C   0  0  0  0  0  0  0  0  0  0  0  0
    6.6067  -11.3200   26.7769 C   0  0  0  0  0  0  0  0  0  0  0  0
    7.8932  -11.3142   26.2971 C   0  0  0  0  0  0  0  0  0  0  0  0
    8.3893  -12.4888   25.7765 C   0  0  0  0  0  0  0  0  0  0  0  0
    7.6135  -13.6289   25.7425 C   0  0  0  0  0  0  0  0  0  0  0  0
    9.6092  -16.8831   26.5180 O   0  0  0  0  0  0  0  0  0  0  0  0
    9.2765  -16.7354   27.8683 O   0  0  0  0  0  0  0  0  0  0  0  0
  2  4  1  0
  2  1  1  0
  3  2  2  0
  5  4  1  0
  6  5  1  0
  7  8  1  0
  7  6  1  0
  8 10  1  0
  8  9  1  1
 10 11  2  0
 12 13  1  0
 12 10  1  0
 14 15  1  0
 13 14  1  6
 15 19  1  0
 16 15  2  0
 17 18  2  0
 17 13  1  0
 20 17  1  0
 21 20  1  0
 21 22  1  1
 22 23  1  0
 23 24  2  0
 23 31  1  0
 24 25  1  0
 25 26  1  0
 26 27  2  0
 27 28  1  0
 29 28  2  0
 30 29  1  0
 31 30  2  0
 31 26  1  0
 32 21  1  0
 33 32  1  0
 34 32  2  0
M  END
$$$$
