RDW.pdb
     RDKit          3D

 34 35  0  0  1  0  0  0  0  0999 V2000
    7.8710  -11.8194   19.2284 N   0  0  0  0  0  0  0  0  0  0  0  0
    8.3077  -12.9618   18.4969 C   0  0  0  0  0  0  0  0  0  0  0  0
    9.4013  -12.9024   17.8340 N   0  0  0  0  0  0  0  0  0  0  0  0
    7.5491  -14.1685   18.4877 N   0  0  0  0  0  0  0  0  0  0  0  0
    6.5795  -14.4703   19.5112 C   0  0  0  0  0  0  0  0  0  0  0  0
    7.2408  -14.3625   20.8691 C   0  0  0  0  0  0  0  0  0  0  0  0
    7.1182  -15.6301   21.6676 C   0  0  0  0  0  0  0  0  0  0  0  0
    8.2043  -16.6359   21.3320 C   0  0  2  0  0  0  0  0  0  0  0  0
    7.5159  -17.7313   20.6644 N   0  0  0  0  0  0  0  0  0  0  0  0
    8.8340  -17.1842   22.5545 C   0  0  0  0  0  0  0  0  0  0  0  0
    8.1963  -17.7394   23.4939 O   0  0  0  0  0  0  0  0  0  0  0  0
    9.7299  -13.6794   17.2392 N   0  0  0  0  0  0  0  0  0  0  0  0
   10.2637  -17.1210   22.7606 C   0  0  2  0  0  0  0  0  0  0  0  0
   10.8849  -17.5797   23.9785 C   0  0  0  0  0  0  0  0  0  0  0  0
   12.3825  -17.7260   23.6609 C   0  0  0  0  0  0  0  0  0  0  0  0
   12.5493  -18.7207   22.6008 O   0  0  0  0  0  0  0  0  0  0  0  0
   12.1295  -19.9003   22.5907 C   0  0  0  0  0  0  0  0  0  0  0  0
   10.7953  -16.6323   25.0918 O   0  0  0  0  0  0  0  0  0  0  0  0
   11.1863  -15.4494   25.0352 O   0  0  0  0  0  0  0  0  0  0  0  0
   13.2582  -18.3469   21.4415 N   0  0  0  0  0  0  0  0  0  0  0  0
   10.2290  -17.0949   26.3056 C   0  0  1  0  0  0  0  0  0  0  0  0
   10.1580  -16.2999   27.5145 C   0  0  0  0  0  0  0  0  0  0  0  0
    8.7074  -16.2651   28.0053 C   0  0  0  0  0  0  0  0  0  0  0  0
    7.8749  -15.6037   26.9708 C   0  0  0  0  0  0  0  0  0  0  0  0
    6.9512  -16.1372   26.1036 N   0  0  0  0  0  0  0  0  0  0  0  0
    6.4161  -15.2111   25.3145 C   0  0  0  0  0  0  0  0  0  0  0  0
    7.0026  -14.0380   25.6718 C   0  0  0  0  0  0  0  0  0  0  0  0
    6.8236  -12.7618   25.1836 C   0  0  0  0  0  0  0  0  0  0  0  0
    7.5392  -11.7312   25.7137 C   0  0  0  0  0  0  0  0  0  0  0  0
    8.4456  -11.9121   26.7292 C   0  0  0  0  0  0  0  0  0  0  0  0
    8.6210  -13.1896   27.2128 C   0  0  0  0  0  0  0  0  0  0  0  0
    7.9056  -14.2467   26.6897 C   0  0  0  0  0  0  0  0  0  0  0  0
   10.9786  -16.9204   28.5716 O   0  0  0  0  0  0  0  0  0  0  0  0
   11.1236  -16.2324   29.7805 O   0  0  0  0  0  0  0  0  0  0  0  0
  2  4  1  0
  2  1  1  0
  3  2  2  0
  5  4  1  0
  6  5  1  0
  7  8  1  0
  7  6  1  0
  8 10  1  0
  8  9  1  1
 10 11  2  0
 12 13  1  0
 12 10  1  0
 14 15  1  0
 13 14  1  6
 15 19  1  0
 16 15  2  0
 17 18  2  0
 17 13  1  0
 20 17  1  0
 21 20  1  0
 21 22  1  1
 22 23  1  0
 23 24  2  0
 23 31  1  0
 24 25  1  0
 25 26  1  0
 26 27  2  0
 27 28  1  0
 29 28  2  0
 30 29  1  0
 31 30  2  0
 31 26  1  0
 32 21  1  0
 33 32  1  0
 34 32  2  0
M  END
$$$$
