RDW.pdb
     RDKit          3D

 34 35  0  0  1  0  0  0  0  0999 V2000
    9.5202  -14.1742   18.1375 N   0  0  0  0  0  0  0  0  0  0  0  0
    8.4019  -13.4362   18.6230 C   0  0  0  0  0  0  0  0  0  0  0  0
    7.9429  -12.4631   17.9292 N   0  0  0  0  0  0  0  0  0  0  0  0
    7.7861  -13.7595   19.8671 N   0  0  0  0  0  0  0  0  0  0  0  0
    6.7425  -14.7491   19.9697 C   0  0  0  0  0  0  0  0  0  0  0  0
    6.2740  -14.8296   21.4074 C   0  0  0  0  0  0  0  0  0  0  0  0
    6.4262  -16.2101   21.9824 C   0  0  0  0  0  0  0  0  0  0  0  0
    7.5262  -17.0050   21.3025 C   0  0  2  0  0  0  0  0  0  0  0  0
    6.8795  -18.2187   20.8248 N   0  0  0  0  0  0  0  0  0  0  0  0
    8.5782  -17.4085   22.2626 C   0  0  0  0  0  0  0  0  0  0  0  0
    8.5281  -18.4523   22.9736 O   0  0  0  0  0  0  0  0  0  0  0  0
    7.1927  -11.8438   18.2743 N   0  0  0  0  0  0  0  0  0  0  0  0
    9.7699  -16.6128   22.4553 C   0  0  2  0  0  0  0  0  0  0  0  0
   10.7787  -16.9632   23.4245 C   0  0  0  0  0  0  0  0  0  0  0  0
   12.1256  -16.5716   22.7941 C   0  0  0  0  0  0  0  0  0  0  0  0
   13.2092  -17.0215   23.6685 O   0  0  0  0  0  0  0  0  0  0  0  0
   13.3705  -18.1641   24.1546 C   0  0  0  0  0  0  0  0  0  0  0  0
   10.6863  -16.2194   24.6828 O   0  0  0  0  0  0  0  0  0  0  0  0
   10.8904  -14.9934   24.7859 O   0  0  0  0  0  0  0  0  0  0  0  0
   14.2054  -16.0917   24.0280 N   0  0  0  0  0  0  0  0  0  0  0  0
   10.3441  -16.9437   25.8517 C   0  0  1  0  0  0  0  0  0  0  0  0
   10.4277  -16.3963   27.1904 C   0  0  0  0  0  0  0  0  0  0  0  0
    9.0535  -16.4998   27.8593 C   0  0  0  0  0  0  0  0  0  0  0  0
    8.0735  -15.7411   27.0440 C   0  0  0  0  0  0  0  0  0  0  0  0
    7.1768  -16.1826   26.1002 N   0  0  0  0  0  0  0  0  0  0  0  0
    6.4706  -15.1845   25.5790 C   0  0  0  0  0  0  0  0  0  0  0  0
    6.9139  -14.0572   26.1958 C   0  0  0  0  0  0  0  0  0  0  0  0
    6.5315  -12.7422   26.0415 C   0  0  0  0  0  0  0  0  0  0  0  0
    7.1331  -11.7739   26.7870 C   0  0  0  0  0  0  0  0  0  0  0  0
    8.1195  -12.0560   27.6995 C   0  0  0  0  0  0  0  0  0  0  0  0
    8.4982  -13.3717   27.8491 C   0  0  0  0  0  0  0  0  0  0  0  0
    7.9010  -14.3671   27.1040 C   0  0  0  0  0  0  0  0  0  0  0  0
   11.3828  -17.1818   27.9945 O   0  0  0  0  0  0  0  0  0  0  0  0
   11.9551  -18.3171   27.4120 O   0  0  0  0  0  0  0  0  0  0  0  0
  2  4  1  0
  2  1  1  0
  3  2  2  0
  5  4  1  0
  6  5  1  0
  7  8  1  0
  7  6  1  0
  8 10  1  0
  8  9  1  1
 10 11  2  0
 12 13  1  0
 12 10  1  0
 14 15  1  0
 13 14  1  6
 15 19  1  0
 16 15  2  0
 17 18  2  0
 17 13  1  0
 20 17  1  0
 21 20  1  0
 21 22  1  1
 22 23  1  0
 23 24  2  0
 23 31  1  0
 24 25  1  0
 25 26  1  0
 26 27  2  0
 27 28  1  0
 29 28  2  0
 30 29  1  0
 31 30  2  0
 31 26  1  0
 32 21  1  0
 33 32  1  0
 34 32  2  0
M  END
$$$$
