WCG.pdb
     RDKit          3D

 25 26  0  0  1  0  0  0  0  0999 V2000
   24.2220  -20.5705  -13.7054 N   0  0  0  0  0  0  0  0  0  0  0  0
   25.2626  -21.0792  -12.8768 C   0  0  1  0  0  0  0  0  0  0  0  0
   26.6494  -20.9335  -13.4656 C   0  0  0  0  0  0  0  0  0  0  0  0
   26.7548  -21.6269  -14.7572 C   0  0  0  0  0  0  0  0  0  0  0  0
   27.2412  -21.0860  -15.9362 C   0  0  0  0  0  0  0  0  0  0  0  0
   27.1503  -21.9987  -16.9050 N   0  0  0  0  0  0  0  0  0  0  0  0
   26.6180  -23.1114  -16.3741 C   0  0  0  0  0  0  0  0  0  0  0  0
   26.3303  -24.3157  -16.9451 C   0  0  0  0  0  0  0  0  0  0  0  0
   25.7876  -25.3231  -16.1852 C   0  0  0  0  0  0  0  0  0  0  0  0
   25.5295  -25.1291  -14.8452 C   0  0  0  0  0  0  0  0  0  0  0  0
   25.8109  -23.9261  -14.2519 C   0  0  0  0  0  0  0  0  0  0  0  0
   26.3558  -22.9154  -15.0214 C   0  0  0  0  0  0  0  0  0  0  0  0
   25.2910  -20.4445  -11.5288 C   0  0  0  0  0  0  0  0  0  0  0  0
   24.9869  -19.2067  -11.4156 O   0  0  0  0  0  0  0  0  0  0  0  0
   25.6347  -21.1145  -10.3312 N   0  0  0  0  0  0  0  0  0  0  0  0
   25.5248  -20.4585   -9.0271 C   0  0  1  0  0  0  0  0  0  0  0  0
   24.6486  -21.3370   -8.1564 C   0  0  0  0  0  0  0  0  0  0  0  0
   23.0543  -20.6133   -7.8241 S   0  0  0  0  0  0  0  0  0  0  0  0
   26.8463  -20.1706   -8.4621 C   0  0  0  0  0  0  0  0  0  0  0  0
   27.8278  -20.9003   -8.8404 O   0  0  0  0  0  0  0  0  0  0  0  0
   27.1607  -19.1646   -7.5363 N   0  0  0  0  0  0  0  0  0  0  0  0
   28.4658  -19.0213   -6.9155 C   0  0  0  0  0  0  0  0  0  0  0  0
   28.3257  -19.0155   -5.4216 C   0  0  0  0  0  0  0  0  0  0  0  0
   29.4458  -18.8143   -4.6287 O   0  0  0  0  0  0  0  0  0  0  0  0
   27.1779  -19.1962   -4.9365 O   0  0  0  0  0  0  0  0  0  0  0  0
  2  1  1  6
  2 13  1  0
  3  2  1  0
  4  3  1  0
  5  4  2  0
  6  7  1  0
  6  5  1  0
  7 12  2  0
  8  9  2  0
  8  7  1  0
  9 10  1  0
 10 11  2  0
 12  4  1  0
 12 11  1  0
 13 14  2  0
 15 16  1  0
 15 13  1  0
 16 17  1  1
 17 18  1  0
 19 16  1  0
 19 20  2  0
 21 19  1  0
 22 21  1  0
 23 22  1  0
 24 23  1  0
 25 23  2  0
M  END
$$$$
