WCG.pdb
     RDKit          3D

 25 26  0  0  1  0  0  0  0  0999 V2000
   25.6489  -22.7030  -13.6495 N   0  0  0  0  0  0  0  0  0  0  0  0
   25.2912  -21.6784  -12.7272 C   0  0  1  0  0  0  0  0  0  0  0  0
   26.0794  -20.3965  -12.8902 C   0  0  0  0  0  0  0  0  0  0  0  0
   27.4223  -20.5193  -12.3058 C   0  0  0  0  0  0  0  0  0  0  0  0
   28.6183  -20.5318  -13.0049 C   0  0  0  0  0  0  0  0  0  0  0  0
   29.6248  -20.6939  -12.1445 N   0  0  0  0  0  0  0  0  0  0  0  0
   29.1018  -20.7849  -10.9110 C   0  0  0  0  0  0  0  0  0  0  0  0
   29.7086  -20.9487   -9.7010 C   0  0  0  0  0  0  0  0  0  0  0  0
   28.9518  -21.0062   -8.5561 C   0  0  0  0  0  0  0  0  0  0  0  0
   27.5791  -20.8994   -8.6172 C   0  0  0  0  0  0  0  0  0  0  0  0
   26.9493  -20.7345   -9.8233 C   0  0  0  0  0  0  0  0  0  0  0  0
   27.7155  -20.6785  -10.9724 C   0  0  0  0  0  0  0  0  0  0  0  0
   23.8475  -21.3159  -12.7967 C   0  0  0  0  0  0  0  0  0  0  0  0
   23.1815  -21.6061  -13.8500 O   0  0  0  0  0  0  0  0  0  0  0  0
   23.1320  -20.6607  -11.7671 N   0  0  0  0  0  0  0  0  0  0  0  0
   21.6804  -20.4837  -11.8349 C   0  0  1  0  0  0  0  0  0  0  0  0
   21.1868  -20.2849  -10.4157 C   0  0  0  0  0  0  0  0  0  0  0  0
   19.9574  -21.4824   -9.9353 S   0  0  0  0  0  0  0  0  0  0  0  0
   21.3173  -19.4060  -12.7597 C   0  0  0  0  0  0  0  0  0  0  0  0
   21.3618  -18.2043  -12.3208 O   0  0  0  0  0  0  0  0  0  0  0  0
   20.9202  -19.5482  -14.0975 N   0  0  0  0  0  0  0  0  0  0  0  0
   19.5925  -19.2153  -14.5829 C   0  0  0  0  0  0  0  0  0  0  0  0
   18.9349  -20.4357  -15.1570 C   0  0  0  0  0  0  0  0  0  0  0  0
   18.8892  -20.6069  -16.5326 O   0  0  0  0  0  0  0  0  0  0  0  0
   18.4418  -21.2720  -14.3552 O   0  0  0  0  0  0  0  0  0  0  0  0
  2  1  1  6
  2 13  1  0
  3  2  1  0
  4  3  1  0
  5  4  2  0
  6  7  1  0
  6  5  1  0
  7 12  2  0
  8  9  2  0
  8  7  1  0
  9 10  1  0
 10 11  2  0
 12  4  1  0
 12 11  1  0
 13 14  2  0
 15 16  1  0
 15 13  1  0
 16 17  1  1
 17 18  1  0
 19 16  1  0
 19 20  2  0
 21 19  1  0
 22 21  1  0
 23 22  1  0
 24 23  1  0
 25 23  2  0
M  END
$$$$
