WCG.pdb
     RDKit          3D

 25 26  0  0  1  0  0  0  0  0999 V2000
   19.7871  -21.8436  -13.0541 N   0  0  0  0  0  0  0  0  0  0  0  0
   19.3620  -23.1387  -13.4667 C   0  0  1  0  0  0  0  0  0  0  0  0
   20.0109  -23.6249  -14.7448 C   0  0  0  0  0  0  0  0  0  0  0  0
   19.6550  -22.7656  -15.8827 C   0  0  0  0  0  0  0  0  0  0  0  0
   20.1089  -21.4755  -16.1042 C   0  0  0  0  0  0  0  0  0  0  0  0
   19.5452  -20.9995  -17.2157 N   0  0  0  0  0  0  0  0  0  0  0  0
   18.7416  -21.9544  -17.7116 C   0  0  0  0  0  0  0  0  0  0  0  0
   17.9556  -21.9607  -18.8257 C   0  0  0  0  0  0  0  0  0  0  0  0
   17.2165  -23.0758  -19.1377 C   0  0  0  0  0  0  0  0  0  0  0  0
   17.2610  -24.1939  -18.3330 C   0  0  0  0  0  0  0  0  0  0  0  0
   18.0443  -24.2082  -17.2084 C   0  0  0  0  0  0  0  0  0  0  0  0
   18.7851  -23.0831  -16.8985 C   0  0  0  0  0  0  0  0  0  0  0  0
   19.6003  -24.1829  -12.4306 C   0  0  0  0  0  0  0  0  0  0  0  0
   20.7516  -24.7364  -12.3561 O   0  0  0  0  0  0  0  0  0  0  0  0
   18.6341  -24.6249  -11.4966 N   0  0  0  0  0  0  0  0  0  0  0  0
   18.9439  -25.6526  -10.5012 C   0  0  1  0  0  0  0  0  0  0  0  0
   19.1344  -24.9469   -9.1734 C   0  0  0  0  0  0  0  0  0  0  0  0
   17.7413  -23.9312   -8.7221 S   0  0  0  0  0  0  0  0  0  0  0  0
   17.9245  -26.7058  -10.4872 C   0  0  0  0  0  0  0  0  0  0  0  0
   16.7663  -26.4200  -10.9517 O   0  0  0  0  0  0  0  0  0  0  0  0
   18.0808  -28.0169  -10.0135 N   0  0  0  0  0  0  0  0  0  0  0  0
   17.0446  -29.0312  -10.0951 C   0  0  0  0  0  0  0  0  0  0  0  0
   16.0220  -28.8079   -9.0200 C   0  0  0  0  0  0  0  0  0  0  0  0
   14.9724  -29.7030   -8.8755 O   0  0  0  0  0  0  0  0  0  0  0  0
   16.1578  -27.8000   -8.2775 O   0  0  0  0  0  0  0  0  0  0  0  0
  2  1  1  1
  2 13  1  0
  3  2  1  0
  4  3  1  0
  5  4  2  0
  6  7  1  0
  6  5  1  0
  7 12  2  0
  8  9  2  0
  8  7  1  0
  9 10  1  0
 10 11  2  0
 12  4  1  0
 12 11  1  0
 13 14  2  0
 15 16  1  0
 15 13  1  0
 16 17  1  1
 17 18  1  0
 19 16  1  0
 19 20  2  0
 21 19  1  0
 22 21  1  0
 23 22  1  0
 24 23  1  0
 25 23  2  0
M  END
$$$$
