WCG.pdb
     RDKit          3D

 25 26  0  0  1  0  0  0  0  0999 V2000
   36.1058  -35.3534   -3.2464 N   0  0  0  0  0  0  0  0  0  0  0  0
   34.7900  -35.2054   -2.7216 C   0  0  1  0  0  0  0  0  0  0  0  0
   33.7848  -36.1860   -3.2865 C   0  0  0  0  0  0  0  0  0  0  0  0
   33.1723  -35.6699   -4.5188 C   0  0  0  0  0  0  0  0  0  0  0  0
   33.6747  -35.8139   -5.8018 C   0  0  0  0  0  0  0  0  0  0  0  0
   32.8686  -35.1852   -6.6590 N   0  0  0  0  0  0  0  0  0  0  0  0
   31.8616  -34.6427   -5.9554 C   0  0  0  0  0  0  0  0  0  0  0  0
   30.7865  -33.9116   -6.3663 C   0  0  0  0  0  0  0  0  0  0  0  0
   29.8692  -33.4643   -5.4469 C   0  0  0  0  0  0  0  0  0  0  0  0
   30.0241  -33.7479   -4.1070 C   0  0  0  0  0  0  0  0  0  0  0  0
   31.0977  -34.4810   -3.6730 C   0  0  0  0  0  0  0  0  0  0  0  0
   32.0184  -34.9277   -4.6022 C   0  0  0  0  0  0  0  0  0  0  0  0
   34.7412  -35.3350   -1.2379 C   0  0  0  0  0  0  0  0  0  0  0  0
   35.3689  -36.2975   -0.6748 O   0  0  0  0  0  0  0  0  0  0  0  0
   34.0405  -34.4586   -0.3764 N   0  0  0  0  0  0  0  0  0  0  0  0
   34.0990  -34.6050    1.0790 C   0  0  1  0  0  0  0  0  0  0  0  0
   34.1906  -33.2105    1.6659 C   0  0  0  0  0  0  0  0  0  0  0  0
   35.5174  -32.2492    0.9648 S   0  0  0  0  0  0  0  0  0  0  0  0
   32.9750  -35.4011    1.5803 C   0  0  0  0  0  0  0  0  0  0  0  0
   31.8603  -35.3170    0.9564 O   0  0  0  0  0  0  0  0  0  0  0  0
   32.9861  -36.2618    2.6880 N   0  0  0  0  0  0  0  0  0  0  0  0
   31.8314  -37.0269    3.1244 C   0  0  0  0  0  0  0  0  0  0  0  0
   30.7875  -36.1062    3.6846 C   0  0  0  0  0  0  0  0  0  0  0  0
   29.6302  -36.6362    4.2356 O   0  0  0  0  0  0  0  0  0  0  0  0
   31.0053  -34.8671    3.6328 O   0  0  0  0  0  0  0  0  0  0  0  0
  2  1  1  6
  2 13  1  0
  3  2  1  0
  4  3  1  0
  5  4  2  0
  6  7  1  0
  6  5  1  0
  7 12  2  0
  8  9  2  0
  8  7  1  0
  9 10  1  0
 10 11  2  0
 12  4  1  0
 12 11  1  0
 13 14  2  0
 15 16  1  0
 15 13  1  0
 16 17  1  1
 17 18  1  0
 19 16  1  0
 19 20  2  0
 21 19  1  0
 22 21  1  0
 23 22  1  0
 24 23  1  0
 25 23  2  0
M  END
$$$$
