WCG.pdb
     RDKit          3D

 25 26  0  0  1  0  0  0  0  0999 V2000
   24.3403  -19.6641  -11.4843 N   0  0  0  0  0  0  0  0  0  0  0  0
   25.7146  -20.0180  -11.6052 C   0  0  1  0  0  0  0  0  0  0  0  0
   26.1233  -21.2079  -10.7637 C   0  0  0  0  0  0  0  0  0  0  0  0
   26.1240  -20.8729   -9.3327 C   0  0  0  0  0  0  0  0  0  0  0  0
   25.0048  -20.6769   -8.5402 C   0  0  0  0  0  0  0  0  0  0  0  0
   25.3953  -20.3542   -7.3060 N   0  0  0  0  0  0  0  0  0  0  0  0
   26.7380  -20.3396   -7.2893 C   0  0  0  0  0  0  0  0  0  0  0  0
   27.6088  -20.0760   -6.2738 C   0  0  0  0  0  0  0  0  0  0  0  0
   28.9627  -20.1316   -6.4991 C   0  0  0  0  0  0  0  0  0  0  0  0
   29.4530  -20.4527   -7.7466 C   0  0  0  0  0  0  0  0  0  0  0  0
   28.5950  -20.7208   -8.7811 C   0  0  0  0  0  0  0  0  0  0  0  0
   27.2335  -20.6624   -8.5492 C   0  0  0  0  0  0  0  0  0  0  0  0
   26.1132  -20.3178  -13.0094 C   0  0  0  0  0  0  0  0  0  0  0  0
   25.3005  -20.9534  -13.7663 O   0  0  0  0  0  0  0  0  0  0  0  0
   27.3482  -19.9476  -13.5916 N   0  0  0  0  0  0  0  0  0  0  0  0
   27.6574  -20.2491  -14.9904 C   0  0  1  0  0  0  0  0  0  0  0  0
   28.6409  -19.1992  -15.4679 C   0  0  0  0  0  0  0  0  0  0  0  0
   27.9347  -17.5641  -15.5273 S   0  0  0  0  0  0  0  0  0  0  0  0
   28.1212  -21.6306  -15.1481 C   0  0  0  0  0  0  0  0  0  0  0  0
   28.7408  -22.1669  -14.1646 O   0  0  0  0  0  0  0  0  0  0  0  0
   27.9572  -22.4456  -16.2780 N   0  0  0  0  0  0  0  0  0  0  0  0
   26.7575  -22.4552  -17.0964 C   0  0  0  0  0  0  0  0  0  0  0  0
   26.1092  -23.8072  -17.0412 C   0  0  0  0  0  0  0  0  0  0  0  0
   26.1365  -24.6268  -18.1598 O   0  0  0  0  0  0  0  0  0  0  0  0
   25.5563  -24.1523  -15.9639 O   0  0  0  0  0  0  0  0  0  0  0  0
  2  1  1  6
  2 13  1  0
  3  2  1  0
  4  3  1  0
  5  4  2  0
  6  7  1  0
  6  5  1  0
  7 12  2  0
  8  9  2  0
  8  7  1  0
  9 10  1  0
 10 11  2  0
 12  4  1  0
 12 11  1  0
 13 14  2  0
 15 16  1  0
 15 13  1  0
 16 17  1  1
 17 18  1  0
 19 16  1  0
 19 20  2  0
 21 19  1  0
 22 21  1  0
 23 22  1  0
 24 23  1  0
 25 23  2  0
M  END
$$$$
