WCG.pdb
     RDKit          3D

 25 26  0  0  1  0  0  0  0  0999 V2000
   27.1587  -20.7618  -11.6948 N   0  0  0  0  0  0  0  0  0  0  0  0
   25.9943  -21.2511  -11.0367 C   0  0  1  0  0  0  0  0  0  0  0  0
   25.9751  -20.9991   -9.5443 C   0  0  0  0  0  0  0  0  0  0  0  0
   27.3382  -20.9138   -9.0013 C   0  0  0  0  0  0  0  0  0  0  0  0
   28.4778  -21.4614   -9.5677 C   0  0  0  0  0  0  0  0  0  0  0  0
   29.5219  -21.2111   -8.7760 N   0  0  0  0  0  0  0  0  0  0  0  0
   29.0781  -20.5156   -7.7164 C   0  0  0  0  0  0  0  0  0  0  0  0
   29.7487  -20.0203   -6.6375 C   0  0  0  0  0  0  0  0  0  0  0  0
   29.0696  -19.3223   -5.6687 C   0  0  0  0  0  0  0  0  0  0  0  0
   27.7110  -19.1159   -5.7759 C   0  0  0  0  0  0  0  0  0  0  0  0
   27.0180  -19.6056   -6.8522 C   0  0  0  0  0  0  0  0  0  0  0  0
   27.7061  -20.3082   -7.8236 C   0  0  0  0  0  0  0  0  0  0  0  0
   24.7339  -20.6826  -11.5924 C   0  0  0  0  0  0  0  0  0  0  0  0
   24.5290  -19.4222  -11.5108 O   0  0  0  0  0  0  0  0  0  0  0  0
   23.7178  -21.4404  -12.2204 N   0  0  0  0  0  0  0  0  0  0  0  0
   22.5239  -20.8058  -12.7816 C   0  0  1  0  0  0  0  0  0  0  0  0
   22.9839  -19.9086  -13.9134 C   0  0  0  0  0  0  0  0  0  0  0  0
   24.4942  -20.4712  -14.6739 S   0  0  0  0  0  0  0  0  0  0  0  0
   21.5215  -21.8030  -13.1676 C   0  0  0  0  0  0  0  0  0  0  0  0
   21.9342  -22.9766  -13.4698 O   0  0  0  0  0  0  0  0  0  0  0  0
   20.1340  -21.6106  -13.2429 N   0  0  0  0  0  0  0  0  0  0  0  0
   19.2793  -21.4502  -12.0797 C   0  0  0  0  0  0  0  0  0  0  0  0
   18.7316  -22.7818  -11.6576 C   0  0  0  0  0  0  0  0  0  0  0  0
   17.7375  -23.3851  -12.4135 O   0  0  0  0  0  0  0  0  0  0  0  0
   19.2031  -23.3098  -10.6163 O   0  0  0  0  0  0  0  0  0  0  0  0
  2  1  1  6
  2 13  1  0
  3  2  1  0
  4  3  1  0
  5  4  2  0
  6  7  1  0
  6  5  1  0
  7 12  2  0
  8  9  2  0
  8  7  1  0
  9 10  1  0
 10 11  2  0
 12  4  1  0
 12 11  1  0
 13 14  2  0
 15 16  1  0
 15 13  1  0
 16 17  1  6
 17 18  1  0
 19 16  1  0
 19 20  2  0
 21 19  1  0
 22 21  1  0
 23 22  1  0
 24 23  1  0
 25 23  2  0
M  END
$$$$
