WCG.pdb
     RDKit          3D

 25 26  0  0  1  0  0  0  0  0999 V2000
   24.1668  -19.9117   -9.6553 N   0  0  0  0  0  0  0  0  0  0  0  0
   25.5574  -19.9713   -9.9571 C   0  0  1  0  0  0  0  0  0  0  0  0
   26.3017  -21.0705   -9.2299 C   0  0  0  0  0  0  0  0  0  0  0  0
   26.3234  -20.8298   -7.7802 C   0  0  0  0  0  0  0  0  0  0  0  0
   25.2328  -20.8848   -6.9277 C   0  0  0  0  0  0  0  0  0  0  0  0
   25.6290  -20.5750   -5.6920 N   0  0  0  0  0  0  0  0  0  0  0  0
   26.9475  -20.3236   -5.7330 C   0  0  0  0  0  0  0  0  0  0  0  0
   27.8141  -19.9730   -4.7404 C   0  0  0  0  0  0  0  0  0  0  0  0
   29.1424  -19.7736   -5.0281 C   0  0  0  0  0  0  0  0  0  0  0  0
   29.6112  -19.9249   -6.3153 C   0  0  0  0  0  0  0  0  0  0  0  0
   28.7569  -20.2765   -7.3277 C   0  0  0  0  0  0  0  0  0  0  0  0
   27.4210  -20.4748   -7.0330 C   0  0  0  0  0  0  0  0  0  0  0  0
   25.8263  -20.1494  -11.4119 C   0  0  0  0  0  0  0  0  0  0  0  0
   24.9407  -20.7099  -12.1460 O   0  0  0  0  0  0  0  0  0  0  0  0
   27.0109  -19.7387  -12.0673 N   0  0  0  0  0  0  0  0  0  0  0  0
   27.1357  -19.7841  -13.5251 C   0  0  1  0  0  0  0  0  0  0  0  0
   28.2048  -18.7826  -13.9144 C   0  0  0  0  0  0  0  0  0  0  0  0
   27.6109  -17.1024  -13.9216 S   0  0  0  0  0  0  0  0  0  0  0  0
   27.3836  -21.1496  -13.9968 C   0  0  0  0  0  0  0  0  0  0  0  0
   28.1470  -21.8948  -13.2892 O   0  0  0  0  0  0  0  0  0  0  0  0
   26.8664  -21.7416  -15.1586 N   0  0  0  0  0  0  0  0  0  0  0  0
   27.1423  -23.1111  -15.5556 C   0  0  0  0  0  0  0  0  0  0  0  0
   26.2972  -23.4829  -16.7383 C   0  0  0  0  0  0  0  0  0  0  0  0
   26.4298  -24.7408  -17.3074 O   0  0  0  0  0  0  0  0  0  0  0  0
   25.4861  -22.6250  -17.1762 O   0  0  0  0  0  0  0  0  0  0  0  0
  2  1  1  6
  2 13  1  0
  3  2  1  0
  4  3  1  0
  5  4  2  0
  6  7  1  0
  6  5  1  0
  7 12  2  0
  8  9  2  0
  8  7  1  0
  9 10  1  0
 10 11  2  0
 12  4  1  0
 12 11  1  0
 13 14  2  0
 15 16  1  0
 15 13  1  0
 16 17  1  1
 17 18  1  0
 19 16  1  0
 19 20  2  0
 21 19  1  0
 22 21  1  0
 23 22  1  0
 24 23  1  0
 25 23  2  0
M  END
$$$$
