PGY.pdb
     RDKit          3D

 24 25  0  0  1  0  0  0  0  0999 V2000
   21.3008  -19.2024  -15.8766 N   0  0  0  0  0  0  0  0  0  0  0  0
   21.1242  -18.0324  -16.6806 C   0  0  0  0  0  0  0  0  0  0  0  0
   22.3874  -17.8819  -17.5285 C   0  0  0  0  0  0  0  0  0  0  0  0
   23.3904  -18.6270  -16.6371 C   0  0  0  0  0  0  0  0  0  0  0  0
   22.5442  -19.8333  -16.2591 C   0  0  1  0  0  0  0  0  0  0  0  0
   23.1393  -20.6303  -15.1926 C   0  0  0  0  0  0  0  0  0  0  0  0
   24.2220  -21.2292  -15.3910 O   0  0  0  0  0  0  0  0  0  0  0  0
   22.5165  -20.7408  -13.9357 N   0  0  0  0  0  0  0  0  0  0  0  0
   23.0664  -21.5439  -12.8605 C   0  0  0  0  0  0  0  0  0  0  0  0
   24.1531  -20.7760  -12.2139 C   0  0  0  0  0  0  0  0  0  0  0  0
   24.1841  -19.5211  -12.2585 O   0  0  0  0  0  0  0  0  0  0  0  0
   28.9366  -18.5081   -5.6854 O   0  0  0  0  0  0  0  0  0  0  0  0
   28.4658  -19.2999   -6.7282 C   0  0  0  0  0  0  0  0  0  0  0  0
   27.1061  -19.3077   -6.9899 C   0  0  0  0  0  0  0  0  0  0  0  0
   26.6135  -20.0816   -8.0150 C   0  0  0  0  0  0  0  0  0  0  0  0
   27.4646  -20.8459   -8.7791 C   0  0  0  0  0  0  0  0  0  0  0  0
   26.8964  -21.6690   -9.8791 C   0  0  0  0  0  0  0  0  0  0  0  0
   26.2971  -20.7763  -10.9565 C   0  0  2  0  0  0  0  0  0  0  0  0
   25.1743  -21.4902  -11.5326 N   0  0  0  0  0  0  0  0  0  0  0  0
   27.3066  -20.4571  -11.9986 C   0  0  0  0  0  0  0  0  0  0  0  0
   27.7690  -19.2899  -12.0660 O   0  0  0  0  0  0  0  0  0  0  0  0
   28.8159  -20.8337   -8.5136 C   0  0  0  0  0  0  0  0  0  0  0  0
   29.3129  -20.0615   -7.4897 C   0  0  0  0  0  0  0  0  0  0  0  0
   27.7768  -21.3852  -12.9165 O   0  0  0  0  0  0  0  0  0  0  0  0
  1  5  1  0
  2  1  1  0
  3  4  1  0
  3  2  1  0
  4  5  1  0
  5  6  1  1
  6  7  2  0
  8  6  1  0
  8  9  1  0
  9 10  1  0
 10 19  1  0
 10 11  2  0
 12 13  1  0
 13 14  2  0
 14 15  1  0
 16 17  1  0
 16 15  2  0
 18 17  1  1
 18 20  1  0
 19 18  1  0
 20 24  1  0
 21 20  2  0
 22 16  1  0
 23 22  2  0
 23 13  1  0
M  END
$$$$
