PGY.pdb
     RDKit          3D

 24 25  0  0  1  0  0  0  0  0999 V2000
   27.9737  -21.3573  -17.7168 N   0  0  0  0  0  0  0  0  0  0  0  0
   29.3420  -21.6910  -17.4657 C   0  0  0  0  0  0  0  0  0  0  0  0
   29.3574  -23.1188  -16.9194 C   0  0  0  0  0  0  0  0  0  0  0  0
   27.9421  -23.1879  -16.3298 C   0  0  0  0  0  0  0  0  0  0  0  0
   27.1658  -22.5283  -17.4595 C   0  0  1  0  0  0  0  0  0  0  0  0
   25.7905  -22.2115  -17.0919 C   0  0  0  0  0  0  0  0  0  0  0  0
   25.0161  -23.1260  -16.7254 O   0  0  0  0  0  0  0  0  0  0  0  0
   25.3127  -20.8889  -17.1410 N   0  0  0  0  0  0  0  0  0  0  0  0
   23.9531  -20.5368  -16.7793 C   0  0  0  0  0  0  0  0  0  0  0  0
   23.7273  -20.9338  -15.3723 C   0  0  0  0  0  0  0  0  0  0  0  0
   24.6343  -21.4726  -14.6905 O   0  0  0  0  0  0  0  0  0  0  0  0
   25.7974  -21.0410   -8.1181 O   0  0  0  0  0  0  0  0  0  0  0  0
   25.0424  -20.6857   -9.2314 C   0  0  0  0  0  0  0  0  0  0  0  0
   25.6932  -20.5014  -10.4397 C   0  0  0  0  0  0  0  0  0  0  0  0
   24.9711  -20.1498  -11.5565 C   0  0  0  0  0  0  0  0  0  0  0  0
   23.6082  -19.9810  -11.4776 C   0  0  0  0  0  0  0  0  0  0  0  0
   22.8605  -19.6018  -12.7055 C   0  0  0  0  0  0  0  0  0  0  0  0
   22.2626  -20.8355  -13.3665 C   0  0  2  0  0  0  0  0  0  0  0  0
   22.4514  -20.6926  -14.7970 N   0  0  0  0  0  0  0  0  0  0  0  0
   20.8194  -20.9629  -13.0378 C   0  0  0  0  0  0  0  0  0  0  0  0
   19.9766  -20.3347  -13.7276 O   0  0  0  0  0  0  0  0  0  0  0  0
   22.9669  -20.1659  -10.2729 C   0  0  0  0  0  0  0  0  0  0  0  0
   23.6848  -20.5174   -9.1537 C   0  0  0  0  0  0  0  0  0  0  0  0
   20.3389  -21.7462  -11.9984 O   0  0  0  0  0  0  0  0  0  0  0  0
  1  5  1  0
  2  1  1  0
  3  4  1  0
  3  2  1  0
  4  5  1  0
  5  6  1  1
  6  7  2  0
  8  6  1  0
  8  9  1  0
  9 10  1  0
 10 19  1  0
 10 11  2  0
 12 13  1  0
 13 14  2  0
 14 15  1  0
 16 17  1  0
 16 15  2  0
 18 17  1  1
 18 20  1  0
 19 18  1  0
 20 24  1  0
 21 20  2  0
 22 16  1  0
 23 22  2  0
 23 13  1  0
M  END
$$$$
