PGY.pdb
     RDKit          3D

 24 25  0  0  1  0  0  0  0  0999 V2000
   28.2719  -20.3203  -17.6134 N   0  0  0  0  0  0  0  0  0  0  0  0
   27.9370  -20.9909  -18.8318 C   0  0  0  0  0  0  0  0  0  0  0  0
   26.5535  -20.4908  -19.2478 C   0  0  0  0  0  0  0  0  0  0  0  0
   26.0034  -20.0745  -17.8767 C   0  0  0  0  0  0  0  0  0  0  0  0
   27.2277  -19.3647  -17.3187 C   0  0  1  0  0  0  0  0  0  0  0  0
   27.1073  -19.0610  -15.8974 C   0  0  0  0  0  0  0  0  0  0  0  0
   26.2155  -18.2749  -15.5007 O   0  0  0  0  0  0  0  0  0  0  0  0
   27.9795  -19.6377  -14.9559 N   0  0  0  0  0  0  0  0  0  0  0  0
   27.8321  -19.4322  -13.5278 C   0  0  0  0  0  0  0  0  0  0  0  0
   26.8408  -20.4041  -13.0168 C   0  0  0  0  0  0  0  0  0  0  0  0
   26.8113  -21.5890  -13.4325 O   0  0  0  0  0  0  0  0  0  0  0  0
   29.0534  -20.4835   -6.6037 O   0  0  0  0  0  0  0  0  0  0  0  0
   27.9682  -20.4925   -7.4743 C   0  0  0  0  0  0  0  0  0  0  0  0
   27.0448  -19.4641   -7.3897 C   0  0  0  0  0  0  0  0  0  0  0  0
   25.9622  -19.4482   -8.2383 C   0  0  0  0  0  0  0  0  0  0  0  0
   25.7940  -20.4477   -9.1684 C   0  0  0  0  0  0  0  0  0  0  0  0
   24.6126  -20.3970  -10.0695 C   0  0  0  0  0  0  0  0  0  0  0  0
   24.9767  -20.9145  -11.4538 C   0  0  2  0  0  0  0  0  0  0  0  0
   25.9105  -19.9699  -12.0354 N   0  0  0  0  0  0  0  0  0  0  0  0
   23.7652  -21.0455  -12.3035 C   0  0  0  0  0  0  0  0  0  0  0  0
   23.6020  -20.2508  -13.2639 O   0  0  0  0  0  0  0  0  0  0  0  0
   26.7161  -21.4676   -9.2475 C   0  0  0  0  0  0  0  0  0  0  0  0
   27.8000  -21.4877   -8.4010 C   0  0  0  0  0  0  0  0  0  0  0  0
   22.7876  -22.0081  -12.0967 O   0  0  0  0  0  0  0  0  0  0  0  0
  1  5  1  0
  2  1  1  0
  3  4  1  0
  3  2  1  0
  4  5  1  0
  5  6  1  1
  6  7  2  0
  8  6  1  0
  8  9  1  0
  9 10  1  0
 10 19  1  0
 10 11  2  0
 12 13  1  0
 13 14  2  0
 14 15  1  0
 16 17  1  0
 16 15  2  0
 18 17  1  1
 18 20  1  0
 19 18  1  0
 20 24  1  0
 21 20  2  0
 22 16  1  0
 23 22  2  0
 23 13  1  0
M  END
$$$$
