PGY.pdb
     RDKit          3D

 24 25  0  0  1  0  0  0  0  0999 V2000
   24.0179  -20.8342  -13.4743 N   0  0  0  0  0  0  0  0  0  0  0  0
   22.8849  -19.9897  -13.6969 C   0  0  0  0  0  0  0  0  0  0  0  0
   23.2377  -19.0736  -14.8688 C   0  0  0  0  0  0  0  0  0  0  0  0
   24.7682  -19.0804  -14.7539 C   0  0  0  0  0  0  0  0  0  0  0  0
   24.9957  -20.5637  -14.5044 C   0  0  1  0  0  0  0  0  0  0  0  0
   26.3628  -20.8660  -14.0964 C   0  0  0  0  0  0  0  0  0  0  0  0
   27.3183  -20.5786  -14.8546 O   0  0  0  0  0  0  0  0  0  0  0  0
   26.6318  -21.4789  -12.8587 N   0  0  0  0  0  0  0  0  0  0  0  0
   27.9426  -21.4431  -12.2391 C   0  0  0  0  0  0  0  0  0  0  0  0
   27.7661  -21.2210  -10.7872 C   0  0  0  0  0  0  0  0  0  0  0  0
   28.7110  -21.3969   -9.9785 O   0  0  0  0  0  0  0  0  0  0  0  0
   29.5504  -19.9949   -3.5604 O   0  0  0  0  0  0  0  0  0  0  0  0
   28.8783  -19.8496   -4.7700 C   0  0  0  0  0  0  0  0  0  0  0  0
   27.4992  -19.7265   -4.7489 C   0  0  0  0  0  0  0  0  0  0  0  0
   26.8095  -19.5816   -5.9303 C   0  0  0  0  0  0  0  0  0  0  0  0
   27.4830  -19.5587   -7.1295 C   0  0  0  0  0  0  0  0  0  0  0  0
   26.7043  -19.3995   -8.3860 C   0  0  0  0  0  0  0  0  0  0  0  0
   26.2278  -20.7537   -8.8917 C   0  0  2  0  0  0  0  0  0  0  0  0
   26.4941  -20.8002  -10.3162 N   0  0  0  0  0  0  0  0  0  0  0  0
   24.7783  -20.9369   -8.6226 C   0  0  0  0  0  0  0  0  0  0  0  0
   23.9479  -20.6548   -9.5233 O   0  0  0  0  0  0  0  0  0  0  0  0
   28.8546  -19.6815   -7.1435 C   0  0  0  0  0  0  0  0  0  0  0  0
   29.5485  -19.8266   -5.9649 C   0  0  0  0  0  0  0  0  0  0  0  0
   24.2788  -21.4084   -7.4171 O   0  0  0  0  0  0  0  0  0  0  0  0
  1  5  1  0
  2  1  1  0
  3  4  1  0
  3  2  1  0
  4  5  1  0
  5  6  1  1
  6  7  2  0
  8  6  1  0
  8  9  1  0
  9 10  1  0
 10 19  1  0
 10 11  2  0
 12 13  1  0
 13 14  2  0
 14 15  1  0
 16 17  1  0
 16 15  2  0
 18 17  1  6
 18 20  1  0
 19 18  1  0
 20 24  1  0
 21 20  2  0
 22 16  1  0
 23 22  2  0
 23 13  1  0
M  END
$$$$
