PGY.pdb
     RDKit          3D

 24 25  0  0  1  0  0  0  0  0999 V2000
   26.7952  -14.1228  -16.4989 N   0  0  0  0  0  0  0  0  0  0  0  0
   26.6241  -14.6219  -15.1693 C   0  0  0  0  0  0  0  0  0  0  0  0
   26.0058  -16.0145  -15.2942 C   0  0  0  0  0  0  0  0  0  0  0  0
   25.3151  -15.8720  -16.6574 C   0  0  0  0  0  0  0  0  0  0  0  0
   26.4205  -15.1656  -17.4276 C   0  0  1  0  0  0  0  0  0  0  0  0
   25.9739  -14.6557  -18.7189 C   0  0  0  0  0  0  0  0  0  0  0  0
   25.6808  -15.4554  -19.6381 O   0  0  0  0  0  0  0  0  0  0  0  0
   25.8651  -13.2728  -18.9545 N   0  0  0  0  0  0  0  0  0  0  0  0
   25.3851  -12.7310  -20.2112 C   0  0  0  0  0  0  0  0  0  0  0  0
   23.9229  -12.5330  -20.1054 C   0  0  0  0  0  0  0  0  0  0  0  0
   23.2968  -11.8238  -20.9318 O   0  0  0  0  0  0  0  0  0  0  0  0
   21.8336  -18.2331  -15.3612 O   0  0  0  0  0  0  0  0  0  0  0  0
   21.6912  -17.2675  -16.3528 C   0  0  0  0  0  0  0  0  0  0  0  0
   20.5518  -16.4807  -16.3501 C   0  0  0  0  0  0  0  0  0  0  0  0
   20.3853  -15.5184  -17.3189 C   0  0  0  0  0  0  0  0  0  0  0  0
   21.3443  -15.3352  -18.2880 C   0  0  0  0  0  0  0  0  0  0  0  0
   21.1307  -14.2849  -19.3183 C   0  0  0  0  0  0  0  0  0  0  0  0
   21.7978  -12.9832  -18.8973 C   0  0  2  0  0  0  0  0  0  0  0  0
   23.2290  -13.1662  -19.0402 N   0  0  0  0  0  0  0  0  0  0  0  0
   21.4500  -12.6421  -17.4939 C   0  0  0  0  0  0  0  0  0  0  0  0
   20.2600  -12.3507  -17.2116 O   0  0  0  0  0  0  0  0  0  0  0  0
   22.4753  -16.1210  -18.2850 C   0  0  0  0  0  0  0  0  0  0  0  0
   22.6460  -17.0844  -17.3183 C   0  0  0  0  0  0  0  0  0  0  0  0
   22.3749  -12.6259  -16.4599 O   0  0  0  0  0  0  0  0  0  0  0  0
  1  5  1  0
  2  1  1  0
  3  4  1  0
  3  2  1  0
  4  5  1  0
  5  6  1  6
  6  7  2  0
  8  6  1  0
  8  9  1  0
  9 10  1  0
 10 19  1  0
 10 11  2  0
 12 13  1  0
 13 14  2  0
 14 15  1  0
 16 17  1  0
 16 15  2  0
 18 17  1  1
 18 20  1  0
 19 18  1  0
 20 24  1  0
 21 20  2  0
 22 16  1  0
 23 22  2  0
 23 13  1  0
M  END
$$$$
