PGY.pdb
     RDKit          3D

 24 25  0  0  1  0  0  0  0  0999 V2000
   21.4935  -12.4932  -19.0005 N   0  0  0  0  0  0  0  0  0  0  0  0
   22.0089  -13.7961  -19.2891 C   0  0  0  0  0  0  0  0  0  0  0  0
   23.2959  -13.5968  -20.0899 C   0  0  0  0  0  0  0  0  0  0  0  0
   23.0112  -12.2186  -20.7025 C   0  0  0  0  0  0  0  0  0  0  0  0
   22.4409  -11.5128  -19.4815 C   0  0  1  0  0  0  0  0  0  0  0  0
   21.8295  -10.2287  -19.8040 C   0  0  0  0  0  0  0  0  0  0  0  0
   21.8160   -9.8243  -20.9901 O   0  0  0  0  0  0  0  0  0  0  0  0
   21.2501   -9.4290  -18.8018 N   0  0  0  0  0  0  0  0  0  0  0  0
   19.9700   -8.7692  -18.9732 C   0  0  0  0  0  0  0  0  0  0  0  0
   19.5506   -8.2185  -17.6657 C   0  0  0  0  0  0  0  0  0  0  0  0
   18.4681   -7.5949  -17.5350 O   0  0  0  0  0  0  0  0  0  0  0  0
   16.3030  -13.0740  -15.8285 O   0  0  0  0  0  0  0  0  0  0  0  0
   17.2572  -12.1280  -15.4672 C   0  0  0  0  0  0  0  0  0  0  0  0
   16.8478  -11.0183  -14.7472 C   0  0  0  0  0  0  0  0  0  0  0  0
   17.7703  -10.0674  -14.3770 C   0  0  0  0  0  0  0  0  0  0  0  0
   19.0947  -10.2143  -14.7186 C   0  0  0  0  0  0  0  0  0  0  0  0
   20.0633   -9.1668  -14.3004 C   0  0  0  0  0  0  0  0  0  0  0  0
   19.9822   -7.9652  -15.2311 C   0  0  2  0  0  0  0  0  0  0  0  0
   20.4029   -8.4088  -16.5458 N   0  0  0  0  0  0  0  0  0  0  0  0
   20.8519   -6.8627  -14.7460 C   0  0  0  0  0  0  0  0  0  0  0  0
   21.7956   -6.4620  -15.4736 O   0  0  0  0  0  0  0  0  0  0  0  0
   19.4954  -11.3203  -15.4348 C   0  0  0  0  0  0  0  0  0  0  0  0
   18.5766  -12.2737  -15.8071 C   0  0  0  0  0  0  0  0  0  0  0  0
   20.6816   -6.2392  -13.5184 O   0  0  0  0  0  0  0  0  0  0  0  0
  1  5  1  0
  2  1  1  0
  3  4  1  0
  3  2  1  0
  4  5  1  0
  5  6  1  6
  6  7  2  0
  8  6  1  0
  8  9  1  0
  9 10  1  0
 10 19  1  0
 10 11  2  0
 12 13  1  0
 13 14  2  0
 14 15  1  0
 16 17  1  0
 16 15  2  0
 18 17  1  1
 18 20  1  0
 19 18  1  0
 20 24  1  0
 21 20  2  0
 22 16  1  0
 23 22  2  0
 23 13  1  0
M  END
$$$$
