PGY.pdb
     RDKit          3D

 24 25  0  0  1  0  0  0  0  0999 V2000
   27.5207  -18.9021  -14.0532 N   0  0  0  0  0  0  0  0  0  0  0  0
   28.8843  -18.6601  -14.4118 C   0  0  0  0  0  0  0  0  0  0  0  0
   29.5869  -20.0179  -14.4265 C   0  0  0  0  0  0  0  0  0  0  0  0
   28.6849  -20.7890  -13.4530 C   0  0  0  0  0  0  0  0  0  0  0  0
   27.3236  -20.3310  -13.9540 C   0  0  1  0  0  0  0  0  0  0  0  0
   26.2357  -20.7028  -13.0568 C   0  0  0  0  0  0  0  0  0  0  0  0
   26.0054  -21.9122  -12.8228 O   0  0  0  0  0  0  0  0  0  0  0  0
   25.4335  -19.7225  -12.4441 N   0  0  0  0  0  0  0  0  0  0  0  0
   24.3865  -20.0521  -11.4962 C   0  0  0  0  0  0  0  0  0  0  0  0
   25.0068  -20.7148  -10.3281 C   0  0  0  0  0  0  0  0  0  0  0  0
   25.7106  -21.7470  -10.4584 O   0  0  0  0  0  0  0  0  0  0  0  0
   30.4060  -19.5372   -5.2013 O   0  0  0  0  0  0  0  0  0  0  0  0
   29.0703  -19.6415   -5.5767 C   0  0  0  0  0  0  0  0  0  0  0  0
   28.3663  -20.7746   -5.2056 C   0  0  0  0  0  0  0  0  0  0  0  0
   27.0444  -20.9037   -5.5635 C   0  0  0  0  0  0  0  0  0  0  0  0
   26.4208  -19.9137   -6.2869 C   0  0  0  0  0  0  0  0  0  0  0  0
   24.9908  -20.0873   -6.6549 C   0  0  0  0  0  0  0  0  0  0  0  0
   24.8600  -21.0030   -7.8636 C   0  0  2  0  0  0  0  0  0  0  0  0
   24.7909  -20.1577   -9.0396 N   0  0  0  0  0  0  0  0  0  0  0  0
   23.6446  -21.8504   -7.7543 C   0  0  0  0  0  0  0  0  0  0  0  0
   23.6263  -22.7898   -6.9190 O   0  0  0  0  0  0  0  0  0  0  0  0
   27.1266  -18.7891   -6.6527 C   0  0  0  0  0  0  0  0  0  0  0  0
   28.4485  -18.6557   -6.2971 C   0  0  0  0  0  0  0  0  0  0  0  0
   22.5107  -21.6635   -8.5316 O   0  0  0  0  0  0  0  0  0  0  0  0
  1  5  1  0
  2  1  1  0
  3  4  1  0
  3  2  1  0
  4  5  1  0
  5  6  1  1
  6  7  2  0
  8  6  1  0
  8  9  1  0
  9 10  1  0
 10 19  1  0
 10 11  2  0
 12 13  1  0
 13 14  2  0
 14 15  1  0
 16 17  1  0
 16 15  2  0
 18 17  1  1
 18 20  1  0
 19 18  1  0
 20 24  1  0
 21 20  2  0
 22 16  1  0
 23 22  2  0
 23 13  1  0
M  END
$$$$
