PGY.pdb
     RDKit          3D

 24 25  0  0  1  0  0  0  0  0999 V2000
   25.1122  -21.6664  -16.2385 N   0  0  0  0  0  0  0  0  0  0  0  0
   23.6975  -21.8789  -16.2494 C   0  0  0  0  0  0  0  0  0  0  0  0
   23.1076  -20.8874  -17.2524 C   0  0  0  0  0  0  0  0  0  0  0  0
   24.1923  -19.8021  -17.2153 C   0  0  0  0  0  0  0  0  0  0  0  0
   25.4319  -20.6833  -17.2492 C   0  0  1  0  0  0  0  0  0  0  0  0
   26.6586  -19.9458  -16.9697 C   0  0  0  0  0  0  0  0  0  0  0  0
   27.0164  -19.0180  -17.7323 O   0  0  0  0  0  0  0  0  0  0  0  0
   27.4541  -20.2581  -15.8519 N   0  0  0  0  0  0  0  0  0  0  0  0
   28.1631  -19.2466  -15.0919 C   0  0  0  0  0  0  0  0  0  0  0  0
   27.8795  -19.4586  -13.6556 C   0  0  0  0  0  0  0  0  0  0  0  0
   28.3331  -18.6834  -12.7774 O   0  0  0  0  0  0  0  0  0  0  0  0
   21.0454  -20.0331  -14.5374 O   0  0  0  0  0  0  0  0  0  0  0  0
   22.2241  -19.9238  -13.8062 C   0  0  0  0  0  0  0  0  0  0  0  0
   22.3507  -20.6636  -12.6426 C   0  0  0  0  0  0  0  0  0  0  0  0
   23.5054  -20.5745  -11.9002 C   0  0  0  0  0  0  0  0  0  0  0  0
   24.5321  -19.7551  -12.3084 C   0  0  0  0  0  0  0  0  0  0  0  0
   25.7655  -19.6850  -11.4812 C   0  0  0  0  0  0  0  0  0  0  0  0
   26.7406  -20.7813  -11.8860 C   0  0  2  0  0  0  0  0  0  0  0  0
   27.0753  -20.5674  -13.2804 N   0  0  0  0  0  0  0  0  0  0  0  0
   26.1351  -22.1239  -11.6916 C   0  0  0  0  0  0  0  0  0  0  0  0
   25.8384  -22.4992  -10.5289 O   0  0  0  0  0  0  0  0  0  0  0  0
   24.3999  -19.0219  -13.4667 C   0  0  0  0  0  0  0  0  0  0  0  0
   23.2472  -19.1079  -14.2122 C   0  0  0  0  0  0  0  0  0  0  0  0
   25.8736  -23.0020  -12.7334 O   0  0  0  0  0  0  0  0  0  0  0  0
  1  5  1  0
  2  1  1  0
  3  4  1  0
  3  2  1  0
  4  5  1  0
  5  6  1  1
  6  7  2  0
  8  6  1  0
  8  9  1  0
  9 10  1  0
 10 19  1  0
 10 11  2  0
 12 13  1  0
 13 14  2  0
 14 15  1  0
 16 17  1  0
 16 15  2  0
 18 17  1  6
 18 20  1  0
 19 18  1  0
 20 24  1  0
 21 20  2  0
 22 16  1  0
 23 22  2  0
 23 13  1  0
M  END
$$$$
