PGY.pdb
     RDKit          3D

 24 25  0  0  1  0  0  0  0  0999 V2000
   25.8156  -17.1899  -16.4374 N   0  0  0  0  0  0  0  0  0  0  0  0
   25.7909  -16.0228  -15.6104 C   0  0  0  0  0  0  0  0  0  0  0  0
   27.1642  -15.3626  -15.7336 C   0  0  0  0  0  0  0  0  0  0  0  0
   28.0084  -16.5857  -16.1172 C   0  0  0  0  0  0  0  0  0  0  0  0
   27.0791  -17.2229  -17.1392 C   0  0  1  0  0  0  0  0  0  0  0  0
   27.4934  -18.5685  -17.5195 C   0  0  0  0  0  0  0  0  0  0  0  0
   28.6201  -18.7518  -18.0366 O   0  0  0  0  0  0  0  0  0  0  0  0
   26.6462  -19.6732  -17.3156 N   0  0  0  0  0  0  0  0  0  0  0  0
   27.1467  -21.0296  -17.2018 C   0  0  0  0  0  0  0  0  0  0  0  0
   26.9114  -21.4990  -15.8187 C   0  0  0  0  0  0  0  0  0  0  0  0
   27.1803  -22.6760  -15.4723 O   0  0  0  0  0  0  0  0  0  0  0  0
   23.9694  -21.6328   -7.6079 O   0  0  0  0  0  0  0  0  0  0  0  0
   24.5850  -21.3003   -8.8106 C   0  0  0  0  0  0  0  0  0  0  0  0
   23.9100  -20.4723   -9.6916 C   0  0  0  0  0  0  0  0  0  0  0  0
   24.4953  -20.1277  -10.8878 C   0  0  0  0  0  0  0  0  0  0  0  0
   25.7455  -20.6014  -11.2113 C   0  0  0  0  0  0  0  0  0  0  0  0
   26.3470  -20.2070  -12.5125 C   0  0  0  0  0  0  0  0  0  0  0  0
   25.7995  -21.0752  -13.6365 C   0  0  2  0  0  0  0  0  0  0  0  0
   26.3693  -20.5851  -14.8764 N   0  0  0  0  0  0  0  0  0  0  0  0
   24.3160  -21.0098  -13.6787 C   0  0  0  0  0  0  0  0  0  0  0  0
   23.7621  -20.0530  -14.2774 O   0  0  0  0  0  0  0  0  0  0  0  0
   26.4116  -21.4245  -10.3306 C   0  0  0  0  0  0  0  0  0  0  0  0
   25.8303  -21.7718   -9.1335 C   0  0  0  0  0  0  0  0  0  0  0  0
   23.4925  -21.9568  -13.0872 O   0  0  0  0  0  0  0  0  0  0  0  0
  1  5  1  0
  2  1  1  0
  3  4  1  0
  3  2  1  0
  4  5  1  0
  5  6  1  1
  6  7  2  0
  8  6  1  0
  8  9  1  0
  9 10  1  0
 10 19  1  0
 10 11  2  0
 12 13  1  0
 13 14  2  0
 14 15  1  0
 16 17  1  0
 16 15  2  0
 18 17  1  1
 18 20  1  0
 19 18  1  0
 20 24  1  0
 21 20  2  0
 22 16  1  0
 23 22  2  0
 23 13  1  0
M  END
$$$$
