PGY.pdb
     RDKit          3D

 24 25  0  0  1  0  0  0  0  0999 V2000
   24.1715  -19.0668  -15.1537 N   0  0  0  0  0  0  0  0  0  0  0  0
   24.5790  -19.6379  -16.4005 C   0  0  0  0  0  0  0  0  0  0  0  0
   23.6701  -20.8403  -16.6558 C   0  0  0  0  0  0  0  0  0  0  0  0
   23.2768  -21.1814  -15.2120 C   0  0  0  0  0  0  0  0  0  0  0  0
   23.0037  -19.7800  -14.6872 C   0  0  1  0  0  0  0  0  0  0  0  0
   22.8429  -19.7394  -13.2383 C   0  0  0  0  0  0  0  0  0  0  0  0
   21.8914  -20.3508  -12.6986 O   0  0  0  0  0  0  0  0  0  0  0  0
   23.7422  -19.0215  -12.4284 N   0  0  0  0  0  0  0  0  0  0  0  0
   23.6081  -18.9518  -10.9861 C   0  0  0  0  0  0  0  0  0  0  0  0
   24.2794  -20.1315  -10.3978 C   0  0  0  0  0  0  0  0  0  0  0  0
   23.8645  -21.2970  -10.6154 O   0  0  0  0  0  0  0  0  0  0  0  0
   28.6413  -18.5198   -3.7718 O   0  0  0  0  0  0  0  0  0  0  0  0
   28.3863  -19.0856   -5.0171 C   0  0  0  0  0  0  0  0  0  0  0  0
   27.9602  -18.2595   -6.0434 C   0  0  0  0  0  0  0  0  0  0  0  0
   27.7008  -18.7925   -7.2847 C   0  0  0  0  0  0  0  0  0  0  0  0
   27.8625  -20.1399   -7.5096 C   0  0  0  0  0  0  0  0  0  0  0  0
   27.5736  -20.6803   -8.8642 C   0  0  0  0  0  0  0  0  0  0  0  0
   26.1034  -21.0557   -8.9847 C   0  0  2  0  0  0  0  0  0  0  0  0
   25.4157  -19.9224   -9.5719 N   0  0  0  0  0  0  0  0  0  0  0  0
   25.5321  -21.3840   -7.6533 C   0  0  0  0  0  0  0  0  0  0  0  0
   25.9596  -22.3919   -7.0352 O   0  0  0  0  0  0  0  0  0  0  0  0
   28.2867  -20.9562   -6.4847 C   0  0  0  0  0  0  0  0  0  0  0  0
   28.5473  -20.4276   -5.2419 C   0  0  0  0  0  0  0  0  0  0  0  0
   24.5390  -20.6325   -7.0418 O   0  0  0  0  0  0  0  0  0  0  0  0
  1  5  1  0
  2  1  1  0
  3  4  1  0
  3  2  1  0
  4  5  1  0
  5  6  1  1
  6  7  2  0
  8  6  1  0
  8  9  1  0
  9 10  1  0
 10 19  1  0
 10 11  2  0
 12 13  1  0
 13 14  2  0
 14 15  1  0
 16 17  1  0
 16 15  2  0
 18 17  1  1
 18 20  1  0
 19 18  1  0
 20 24  1  0
 21 20  2  0
 22 16  1  0
 23 22  2  0
 23 13  1  0
M  END
$$$$
