PGY.pdb
     RDKit          3D

 24 25  0  0  1  0  0  0  0  0999 V2000
   28.8951  -20.2432  -16.5487 N   0  0  0  0  0  0  0  0  0  0  0  0
   29.5622  -21.2247  -17.3476 C   0  0  0  0  0  0  0  0  0  0  0  0
   28.4796  -21.9773  -18.1214 C   0  0  0  0  0  0  0  0  0  0  0  0
   27.2852  -21.7533  -17.1838 C   0  0  0  0  0  0  0  0  0  0  0  0
   27.4855  -20.2787  -16.8680 C   0  0  1  0  0  0  0  0  0  0  0  0
   26.6349  -19.8123  -15.7792 C   0  0  0  0  0  0  0  0  0  0  0  0
   25.3897  -19.8032  -15.9200 O   0  0  0  0  0  0  0  0  0  0  0  0
   27.1893  -19.3689  -14.5643 N   0  0  0  0  0  0  0  0  0  0  0  0
   26.3777  -18.8534  -13.4786 C   0  0  0  0  0  0  0  0  0  0  0  0
   25.7098  -19.9936  -12.8136 C   0  0  0  0  0  0  0  0  0  0  0  0
   25.4335  -21.0466  -13.4402 O   0  0  0  0  0  0  0  0  0  0  0  0
   29.8833  -19.8284   -7.4725 O   0  0  0  0  0  0  0  0  0  0  0  0
   28.5707  -19.9919   -7.9041 C   0  0  0  0  0  0  0  0  0  0  0  0
   28.2748  -21.0654   -8.7271 C   0  0  0  0  0  0  0  0  0  0  0  0
   26.9852  -21.2509   -9.1686 C   0  0  0  0  0  0  0  0  0  0  0  0
   25.9910  -20.3760   -8.7965 C   0  0  0  0  0  0  0  0  0  0  0  0
   24.6088  -20.6087   -9.2922 C   0  0  0  0  0  0  0  0  0  0  0  0
   24.6238  -20.9248  -10.7810 C   0  0  2  0  0  0  0  0  0  0  0  0
   25.3817  -19.8770  -11.4367 N   0  0  0  0  0  0  0  0  0  0  0  0
   23.2411  -20.9884  -11.3206 C   0  0  0  0  0  0  0  0  0  0  0  0
   22.8061  -20.0277  -12.0050 O   0  0  0  0  0  0  0  0  0  0  0  0
   26.2920  -19.3103   -7.9776 C   0  0  0  0  0  0  0  0  0  0  0  0
   27.5800  -19.1209   -7.5338 C   0  0  0  0  0  0  0  0  0  0  0  0
   22.3878  -22.0621  -11.1107 O   0  0  0  0  0  0  0  0  0  0  0  0
  1  5  1  0
  2  1  1  0
  3  4  1  0
  3  2  1  0
  4  5  1  0
  5  6  1  1
  6  7  2  0
  8  6  1  0
  8  9  1  0
  9 10  1  0
 10 19  1  0
 10 11  2  0
 12 13  1  0
 13 14  2  0
 14 15  1  0
 16 17  1  0
 16 15  2  0
 18 17  1  1
 18 20  1  0
 19 18  1  0
 20 24  1  0
 21 20  2  0
 22 16  1  0
 23 22  2  0
 23 13  1  0
M  END
$$$$
