PGY.pdb
     RDKit          3D

 24 25  0  0  1  0  0  0  0  0999 V2000
   26.3029  -17.5794  -16.7435 N   0  0  0  0  0  0  0  0  0  0  0  0
   26.0488  -16.4625  -15.8865 C   0  0  0  0  0  0  0  0  0  0  0  0
   27.3360  -15.6391  -15.8374 C   0  0  0  0  0  0  0  0  0  0  0  0
   28.3593  -16.7347  -16.1662 C   0  0  0  0  0  0  0  0  0  0  0  0
   27.6272  -17.4303  -17.3039 C   0  0  1  0  0  0  0  0  0  0  0  0
   28.2410  -18.6985  -17.6804 C   0  0  0  0  0  0  0  0  0  0  0  0
   29.4303  -18.7235  -18.0748 O   0  0  0  0  0  0  0  0  0  0  0  0
   27.5183  -19.9037  -17.6090 N   0  0  0  0  0  0  0  0  0  0  0  0
   28.1428  -21.1690  -17.2738 C   0  0  0  0  0  0  0  0  0  0  0  0
   27.7441  -21.5354  -15.8971 C   0  0  0  0  0  0  0  0  0  0  0  0
   28.1051  -22.6208  -15.3780 O   0  0  0  0  0  0  0  0  0  0  0  0
   23.3961  -21.2047   -8.3137 O   0  0  0  0  0  0  0  0  0  0  0  0
   24.1027  -20.8868   -9.4694 C   0  0  0  0  0  0  0  0  0  0  0  0
   25.4664  -21.1252   -9.4966 C   0  0  0  0  0  0  0  0  0  0  0  0
   26.1895  -20.8203  -10.6264 C   0  0  0  0  0  0  0  0  0  0  0  0
   25.5644  -20.2808  -11.7265 C   0  0  0  0  0  0  0  0  0  0  0  0
   26.3779  -19.9649  -12.9302 C   0  0  0  0  0  0  0  0  0  0  0  0
   26.2506  -21.0743  -13.9645 C   0  0  2  0  0  0  0  0  0  0  0  0
   26.9357  -20.6282  -15.1620 N   0  0  0  0  0  0  0  0  0  0  0  0
   24.8226  -21.3641  -14.2540 C   0  0  0  0  0  0  0  0  0  0  0  0
   24.1949  -20.6175  -15.0473 O   0  0  0  0  0  0  0  0  0  0  0  0
   24.2077  -20.0462  -11.6931 C   0  0  0  0  0  0  0  0  0  0  0  0
   23.4807  -20.3495  -10.5656 C   0  0  0  0  0  0  0  0  0  0  0  0
   24.1296  -22.4266  -13.6921 O   0  0  0  0  0  0  0  0  0  0  0  0
  1  5  1  0
  2  1  1  0
  3  4  1  0
  3  2  1  0
  4  5  1  0
  5  6  1  1
  6  7  2  0
  8  6  1  0
  8  9  1  0
  9 10  1  0
 10 19  1  0
 10 11  2  0
 12 13  1  0
 13 14  2  0
 14 15  1  0
 16 17  1  0
 16 15  2  0
 18 17  1  1
 18 20  1  0
 19 18  1  0
 20 24  1  0
 21 20  2  0
 22 16  1  0
 23 22  2  0
 23 13  1  0
M  END
$$$$
