PGY.pdb
     RDKit          3D

 24 25  0  0  1  0  0  0  0  0999 V2000
   19.3786  -10.8567  -16.9763 N   0  0  0  0  0  0  0  0  0  0  0  0
   18.9772  -12.1657  -17.3909 C   0  0  0  0  0  0  0  0  0  0  0  0
   17.9761  -12.6724  -16.3525 C   0  0  0  0  0  0  0  0  0  0  0  0
   18.4172  -11.8435  -15.1384 C   0  0  0  0  0  0  0  0  0  0  0  0
   18.6049  -10.4919  -15.8107 C   0  0  1  0  0  0  0  0  0  0  0  0
   19.2753   -9.5213  -14.9532 C   0  0  0  0  0  0  0  0  0  0  0  0
   18.7093   -9.1118  -13.9128 O   0  0  0  0  0  0  0  0  0  0  0  0
   20.5551   -9.0321  -15.2738 N   0  0  0  0  0  0  0  0  0  0  0  0
   21.2611   -8.0846  -14.4329 C   0  0  0  0  0  0  0  0  0  0  0  0
   21.2179   -6.7583  -15.0870 C   0  0  0  0  0  0  0  0  0  0  0  0
   21.7898   -5.7605  -14.5819 O   0  0  0  0  0  0  0  0  0  0  0  0
   19.4446   -0.7115  -21.1758 O   0  0  0  0  0  0  0  0  0  0  0  0
   19.5993   -1.9146  -20.4942 C   0  0  0  0  0  0  0  0  0  0  0  0
   18.4896   -2.4769  -19.8862 C   0  0  0  0  0  0  0  0  0  0  0  0
   18.6141   -3.6658  -19.2056 C   0  0  0  0  0  0  0  0  0  0  0  0
   19.8340   -4.2967  -19.1271 C   0  0  0  0  0  0  0  0  0  0  0  0
   19.9304   -5.5808  -18.3840 C   0  0  0  0  0  0  0  0  0  0  0  0
   20.4162   -5.3375  -16.9622 C   0  0  2  0  0  0  0  0  0  0  0  0
   20.5101   -6.6298  -16.3115 N   0  0  0  0  0  0  0  0  0  0  0  0
   19.4789   -4.4479  -16.2295 C   0  0  0  0  0  0  0  0  0  0  0  0
   19.7521   -3.2253  -16.1229 O   0  0  0  0  0  0  0  0  0  0  0  0
   20.9338   -3.7323  -19.7342 C   0  0  0  0  0  0  0  0  0  0  0  0
   20.8141   -2.5436  -20.4157 C   0  0  0  0  0  0  0  0  0  0  0  0
   18.3012   -4.8931  -15.6467 O   0  0  0  0  0  0  0  0  0  0  0  0
  1  5  1  0
  2  1  1  0
  3  4  1  0
  3  2  1  0
  4  5  1  0
  5  6  1  1
  6  7  2  0
  8  6  1  0
  8  9  1  0
  9 10  1  0
 10 19  1  0
 10 11  2  0
 12 13  1  0
 13 14  2  0
 14 15  1  0
 16 17  1  0
 16 15  2  0
 18 17  1  6
 18 20  1  0
 19 18  1  0
 20 24  1  0
 21 20  2  0
 22 16  1  0
 23 22  2  0
 23 13  1  0
M  END
$$$$
