INI.pdb
     RDKit          3D

 25 24  0  0  1  0  0  0  0  0999 V2000
   23.0298  -20.7089   -8.6209 C   0  0  0  0  0  0  0  0  0  0  0  0
   24.1094  -21.3787   -9.3916 C   0  0  0  0  0  0  0  0  0  0  0  0
   24.6707  -20.6363  -10.5495 C   0  0  2  0  0  0  0  0  0  0  0  0
   23.5451  -20.4278  -11.5710 C   0  0  0  0  0  0  0  0  0  0  0  0
   25.7863  -21.3158  -11.2629 C   0  0  2  0  0  0  0  0  0  0  0  0
   26.7928  -21.7406  -10.3605 N   0  0  0  0  0  0  0  0  0  0  0  0
   26.2737  -20.5769  -12.4689 C   0  0  0  0  0  0  0  0  0  0  0  0
   27.1459  -19.6910  -12.2692 O   0  0  0  0  0  0  0  0  0  0  0  0
   26.7397  -21.0429  -18.5726 N   0  0  0  0  0  0  0  0  0  0  0  0
   27.2314  -20.7172  -17.2875 C   0  0  0  0  0  0  0  0  0  0  0  0
   28.1771  -19.9032  -17.1784 O   0  0  0  0  0  0  0  0  0  0  0  0
   26.6395  -21.3279  -16.0793 C   0  0  0  0  0  0  0  0  0  0  0  0
   26.2965  -20.3076  -15.0261 C   0  0  2  0  0  0  0  0  0  0  0  0
   25.8183  -20.8160  -13.7749 N   0  0  0  0  0  0  0  0  0  0  0  0
   25.5655  -19.1378  -15.4552 C   0  0  0  0  0  0  0  0  0  0  0  0
   24.2893  -19.1756  -15.2976 O   0  0  0  0  0  0  0  0  0  0  0  0
   25.3433  -13.1800  -15.1518 C   0  0  0  0  0  0  0  0  0  0  0  0
   24.8322  -14.4000  -15.9041 C   0  0  0  0  0  0  0  0  0  0  0  0
   25.7082  -15.5980  -15.6605 C   0  0  2  0  0  0  0  0  0  0  0  0
   27.1266  -15.2158  -16.0185 C   0  0  0  0  0  0  0  0  0  0  0  0
   25.2329  -16.8407  -16.3447 C   0  0  2  0  0  0  0  0  0  0  0  0
   26.0933  -17.9757  -16.0203 N   0  0  0  0  0  0  0  0  0  0  0  0
   25.0555  -16.7243  -17.8093 C   0  0  0  0  0  0  0  0  0  0  0  0
   23.8184  -16.4807  -18.4093 O   0  0  0  0  0  0  0  0  0  0  0  0
   26.0320  -16.8431  -18.5734 O   0  0  0  0  0  0  0  0  0  0  0  0
  2  1  1  0
  2  3  1  0
  3  5  1  0
  3  4  1  6
  5  6  1  1
  7  5  1  0
  7  8  2  0
 10 12  1  0
 10  9  1  0
 11 10  2  0
 13 12  1  6
 13 14  1  0
 14  7  1  0
 15 13  1  0
 16 15  2  0
 18 17  1  0
 18 19  1  0
 19 21  1  0
 19 20  1  6
 21 22  1  6
 21 23  1  0
 22 15  1  0
 23 25  2  0
 23 24  1  0
M  END
$$$$
