INI.pdb
     RDKit          3D

 25 24  0  0  1  0  0  0  0  0999 V2000
   17.4328  -17.8237  -15.1568 C   0  0  0  0  0  0  0  0  0  0  0  0
   17.9951  -19.0491  -15.7814 C   0  0  0  0  0  0  0  0  0  0  0  0
   18.9188  -19.8650  -14.9520 C   0  0  2  0  0  0  0  0  0  0  0  0
   20.1370  -18.9988  -14.6059 C   0  0  0  0  0  0  0  0  0  0  0  0
   19.4336  -21.1022  -15.5995 C   0  0  2  0  0  0  0  0  0  0  0  0
   18.3797  -21.9939  -15.9191 N   0  0  0  0  0  0  0  0  0  0  0  0
   20.6025  -21.7141  -14.8944 C   0  0  0  0  0  0  0  0  0  0  0  0
   20.3445  -22.3911  -13.8645 O   0  0  0  0  0  0  0  0  0  0  0  0
   25.3637  -23.4465  -13.7418 N   0  0  0  0  0  0  0  0  0  0  0  0
   25.0898  -23.6592  -15.1127 C   0  0  0  0  0  0  0  0  0  0  0  0
   25.8284  -24.4224  -15.7767 O   0  0  0  0  0  0  0  0  0  0  0  0
   23.9438  -22.9906  -15.7627 C   0  0  0  0  0  0  0  0  0  0  0  0
   23.1314  -22.1689  -14.7969 C   0  0  2  0  0  0  0  0  0  0  0  0
   21.9349  -21.5734  -15.3127 N   0  0  0  0  0  0  0  0  0  0  0  0
   23.8541  -21.2736  -13.9235 C   0  0  0  0  0  0  0  0  0  0  0  0
   23.8757  -20.0351  -14.2709 O   0  0  0  0  0  0  0  0  0  0  0  0
   25.8820  -20.0093   -8.2926 C   0  0  0  0  0  0  0  0  0  0  0  0
   26.0285  -19.7758   -9.7890 C   0  0  0  0  0  0  0  0  0  0  0  0
   25.3492  -20.8600  -10.5798 C   0  0  2  0  0  0  0  0  0  0  0  0
   25.9573  -22.1825  -10.1707 C   0  0  0  0  0  0  0  0  0  0  0  0
   25.3636  -20.6268  -12.0575 C   0  0  2  0  0  0  0  0  0  0  0  0
   24.5288  -21.6068  -12.7478 N   0  0  0  0  0  0  0  0  0  0  0  0
   26.7085  -20.5641  -12.6718 C   0  0  0  0  0  0  0  0  0  0  0  0
   27.4805  -19.4010  -12.6967 O   0  0  0  0  0  0  0  0  0  0  0  0
   27.2072  -21.5759  -13.2001 O   0  0  0  0  0  0  0  0  0  0  0  0
  2  1  1  0
  2  3  1  0
  3  5  1  0
  3  4  1  6
  5  6  1  1
  7  5  1  0
  7  8  2  0
 10 12  1  0
 10  9  1  0
 11 10  2  0
 13 12  1  6
 13 14  1  0
 14  7  1  0
 15 13  1  0
 16 15  2  0
 18 17  1  0
 18 19  1  0
 19 21  1  0
 19 20  1  6
 21 22  1  6
 21 23  1  0
 22 15  1  0
 23 25  2  0
 23 24  1  0
M  END
$$$$
