INI.pdb
     RDKit          3D

 25 24  0  0  1  0  0  0  0  0999 V2000
   29.2634  -21.9015  -15.1136 C   0  0  0  0  0  0  0  0  0  0  0  0
   29.0493  -20.4373  -14.9769 C   0  0  0  0  0  0  0  0  0  0  0  0
   28.3822  -19.9669  -13.7357 C   0  0  2  0  0  0  0  0  0  0  0  0
   29.2379  -20.4069  -12.5405 C   0  0  0  0  0  0  0  0  0  0  0  0
   27.0104  -20.4974  -13.5083 C   0  0  2  0  0  0  0  0  0  0  0  0
   26.1964  -20.3314  -14.6562 N   0  0  0  0  0  0  0  0  0  0  0  0
   26.3974  -20.0588  -12.2161 C   0  0  0  0  0  0  0  0  0  0  0  0
   26.0626  -18.8476  -12.1369 O   0  0  0  0  0  0  0  0  0  0  0  0
   23.1423  -21.6708   -7.5551 N   0  0  0  0  0  0  0  0  0  0  0  0
   23.3952  -20.7126   -8.5638 C   0  0  0  0  0  0  0  0  0  0  0  0
   23.0554  -19.5211   -8.3800 O   0  0  0  0  0  0  0  0  0  0  0  0
   24.0544  -21.1063   -9.8261 C   0  0  0  0  0  0  0  0  0  0  0  0
   25.4936  -20.6670   -9.8869 C   0  0  2  0  0  0  0  0  0  0  0  0
   26.1843  -20.9076  -11.1188 N   0  0  0  0  0  0  0  0  0  0  0  0
   26.3179  -20.9494   -8.7347 C   0  0  0  0  0  0  0  0  0  0  0  0
   27.0315  -22.0181   -8.7947 O   0  0  0  0  0  0  0  0  0  0  0  0
   29.7555  -17.8547   -6.0668 C   0  0  0  0  0  0  0  0  0  0  0  0
   29.1169  -19.1080   -6.6472 C   0  0  0  0  0  0  0  0  0  0  0  0
   27.9754  -19.5852   -5.7921 C   0  0  2  0  0  0  0  0  0  0  0  0
   28.5321  -19.9412   -4.4321 C   0  0  0  0  0  0  0  0  0  0  0  0
   27.1735  -20.6833   -6.4161 C   0  0  2  0  0  0  0  0  0  0  0  0
   26.4226  -20.1903   -7.5680 N   0  0  0  0  0  0  0  0  0  0  0  0
   26.2826  -21.4168   -5.4895 C   0  0  0  0  0  0  0  0  0  0  0  0
   24.8918  -21.2963   -5.5155 O   0  0  0  0  0  0  0  0  0  0  0  0
   26.7599  -22.1863   -4.6341 O   0  0  0  0  0  0  0  0  0  0  0  0
  2  1  1  0
  2  3  1  0
  3  5  1  0
  3  4  1  1
  5  6  1  6
  7  5  1  0
  7  8  2  0
 10 12  1  0
 10  9  1  0
 11 10  2  0
 13 12  1  1
 13 14  1  0
 14  7  1  0
 15 13  1  0
 16 15  2  0
 18 17  1  0
 18 19  1  0
 19 21  1  0
 19 20  1  1
 21 22  1  6
 21 23  1  0
 22 15  1  0
 23 25  2  0
 23 24  1  0
M  END
$$$$
