INI.pdb
     RDKit          3D

 25 24  0  0  1  0  0  0  0  0999 V2000
   42.2907  -14.0901   -9.2726 C   0  0  0  0  0  0  0  0  0  0  0  0
   43.3146  -13.0927   -8.8663 C   0  0  0  0  0  0  0  0  0  0  0  0
   42.9062  -12.0797   -7.8593 C   0  0  2  0  0  0  0  0  0  0  0  0
   41.8047  -11.2103   -8.4798 C   0  0  0  0  0  0  0  0  0  0  0  0
   43.9845  -11.1595   -7.4064 C   0  0  2  0  0  0  0  0  0  0  0  0
   45.0627  -11.8736   -6.8273 N   0  0  0  0  0  0  0  0  0  0  0  0
   43.4905   -9.9887   -6.6169 C   0  0  0  0  0  0  0  0  0  0  0  0
   44.0252   -9.8053   -5.4919 O   0  0  0  0  0  0  0  0  0  0  0  0
   43.0827   -4.4369   -5.8235 N   0  0  0  0  0  0  0  0  0  0  0  0
   42.6362   -5.7091   -5.3972 C   0  0  0  0  0  0  0  0  0  0  0  0
   41.7840   -5.7877   -4.4826 O   0  0  0  0  0  0  0  0  0  0  0  0
   43.1657   -6.9393   -6.0210 C   0  0  0  0  0  0  0  0  0  0  0  0
   42.0746   -7.8441   -6.5296 C   0  0  2  0  0  0  0  0  0  0  0  0
   42.4876   -9.1106   -7.0566 N   0  0  0  0  0  0  0  0  0  0  0  0
   41.0314   -7.2366   -7.3231 C   0  0  0  0  0  0  0  0  0  0  0  0
   41.1475   -7.3524   -8.5990 O   0  0  0  0  0  0  0  0  0  0  0  0
   37.3153   -8.8334   -7.8397 C   0  0  0  0  0  0  0  0  0  0  0  0
   37.2946   -7.8859   -6.6494 C   0  0  0  0  0  0  0  0  0  0  0  0
   37.4922   -6.4595   -7.0835 C   0  0  2  0  0  0  0  0  0  0  0  0
   36.3026   -6.0630   -7.9284 C   0  0  0  0  0  0  0  0  0  0  0  0
   38.8084   -6.2093   -7.7493 C   0  0  2  0  0  0  0  0  0  0  0  0
   39.9156   -6.5402   -6.8557 N   0  0  0  0  0  0  0  0  0  0  0  0
   38.9815   -4.8513   -8.3113 C   0  0  0  0  0  0  0  0  0  0  0  0
   38.7180   -4.5409   -9.6469 O   0  0  0  0  0  0  0  0  0  0  0  0
   39.3784   -3.9170   -7.5895 O   0  0  0  0  0  0  0  0  0  0  0  0
  2  1  1  0
  2  3  1  0
  3  5  1  0
  3  4  1  6
  5  6  1  1
  7  5  1  0
  7  8  2  0
 10 12  1  0
 10  9  1  0
 11 10  2  0
 13 12  1  6
 13 14  1  0
 14  7  1  0
 15 13  1  0
 16 15  2  0
 18 17  1  0
 18 19  1  0
 19 21  1  0
 19 20  1  6
 21 22  1  1
 21 23  1  0
 22 15  1  0
 23 25  2  0
 23 24  1  0
M  END
$$$$
