INI.pdb
     RDKit          3D

 25 24  0  0  1  0  0  0  0  0999 V2000
   20.2417  -14.6272  -19.1349 C   0  0  0  0  0  0  0  0  0  0  0  0
   19.4515  -14.2915  -17.9220 C   0  0  0  0  0  0  0  0  0  0  0  0
   19.2488  -12.8495  -17.6277 C   0  0  2  0  0  0  0  0  0  0  0  0
   20.6236  -12.2201  -17.3670 C   0  0  0  0  0  0  0  0  0  0  0  0
   18.4018  -12.5536  -16.4403 C   0  0  2  0  0  0  0  0  0  0  0  0
   17.1909  -13.2887  -16.4743 N   0  0  0  0  0  0  0  0  0  0  0  0
   18.2602  -11.0938  -16.1454 C   0  0  0  0  0  0  0  0  0  0  0  0
   17.5663  -10.4231  -16.9541 O   0  0  0  0  0  0  0  0  0  0  0  0
   16.0525   -9.4521  -14.0749 N   0  0  0  0  0  0  0  0  0  0  0  0
   16.9017   -9.1773  -12.9781 C   0  0  0  0  0  0  0  0  0  0  0  0
   16.4360   -9.2096  -11.8158 O   0  0  0  0  0  0  0  0  0  0  0  0
   18.3272   -8.8544  -13.1939 C   0  0  0  0  0  0  0  0  0  0  0  0
   18.7631   -9.0887  -14.6161 C   0  0  2  0  0  0  0  0  0  0  0  0
   18.8472  -10.4538  -15.0427 N   0  0  0  0  0  0  0  0  0  0  0  0
   19.8658   -8.2946  -15.1066 C   0  0  0  0  0  0  0  0  0  0  0  0
   21.0449   -8.7475  -14.8630 O   0  0  0  0  0  0  0  0  0  0  0  0
   22.3611   -5.9040  -19.8484 C   0  0  0  0  0  0  0  0  0  0  0  0
   22.2403   -5.6917  -18.3465 C   0  0  0  0  0  0  0  0  0  0  0  0
   21.0548   -6.4272  -17.7848 C   0  0  2  0  0  0  0  0  0  0  0  0
   19.8108   -5.8696  -18.4388 C   0  0  0  0  0  0  0  0  0  0  0  0
   20.9970   -6.4241  -16.2898 C   0  0  2  0  0  0  0  0  0  0  0  0
   19.7892   -7.0935  -15.8136 N   0  0  0  0  0  0  0  0  0  0  0  0
   21.1383   -5.0937  -15.6572 C   0  0  0  0  0  0  0  0  0  0  0  0
   20.1128   -4.4822  -14.9333 O   0  0  0  0  0  0  0  0  0  0  0  0
   22.2069   -4.4609  -15.7536 O   0  0  0  0  0  0  0  0  0  0  0  0
  2  1  1  0
  2  3  1  0
  3  5  1  0
  3  4  1  1
  5  6  1  6
  7  5  1  0
  7  8  2  0
 10 12  1  0
 10  9  1  0
 11 10  2  0
 13 12  1  1
 13 14  1  0
 14  7  1  0
 15 13  1  0
 16 15  2  0
 18 17  1  0
 18 19  1  0
 19 21  1  0
 19 20  1  6
 21 22  1  6
 21 23  1  0
 22 15  1  0
 23 25  2  0
 23 24  1  0
M  END
$$$$
