INI.pdb
     RDKit          3D

 25 24  0  0  1  0  0  0  0  0999 V2000
   29.2519  -16.3255  -17.2797 C   0  0  0  0  0  0  0  0  0  0  0  0
   28.2179  -17.3803  -17.4419 C   0  0  0  0  0  0  0  0  0  0  0  0
   27.2818  -17.5863  -16.3068 C   0  0  2  0  0  0  0  0  0  0  0  0
   28.0914  -18.1068  -15.1119 C   0  0  0  0  0  0  0  0  0  0  0  0
   26.1879  -18.5652  -16.5516 C   0  0  2  0  0  0  0  0  0  0  0  0
   25.5155  -18.2936  -17.7690 N   0  0  0  0  0  0  0  0  0  0  0  0
   25.3046  -18.7961  -15.3665 C   0  0  0  0  0  0  0  0  0  0  0  0
   24.5010  -17.8708  -15.0774 O   0  0  0  0  0  0  0  0  0  0  0  0
   22.7325  -21.2248  -11.5141 N   0  0  0  0  0  0  0  0  0  0  0  0
   22.4018  -21.6126  -12.8331 C   0  0  0  0  0  0  0  0  0  0  0  0
   21.3500  -22.2609  -13.0387 O   0  0  0  0  0  0  0  0  0  0  0  0
   23.2847  -21.2595  -13.9639 C   0  0  0  0  0  0  0  0  0  0  0  0
   24.4411  -20.3912  -13.5439 C   0  0  2  0  0  0  0  0  0  0  0  0
   25.3282  -19.9605  -14.5832 N   0  0  0  0  0  0  0  0  0  0  0  0
   25.1501  -20.7730  -12.3445 C   0  0  0  0  0  0  0  0  0  0  0  0
   26.3639  -21.1682  -12.5033 O   0  0  0  0  0  0  0  0  0  0  0  0
   28.8576  -19.8464   -8.6177 C   0  0  0  0  0  0  0  0  0  0  0  0
   27.7214  -20.8422   -8.7981 C   0  0  0  0  0  0  0  0  0  0  0  0
   26.7691  -20.3951   -9.8729 C   0  0  2  0  0  0  0  0  0  0  0  0
   26.5522  -18.9076   -9.7107 C   0  0  0  0  0  0  0  0  0  0  0  0
   25.4983  -21.1833   -9.9177 C   0  0  2  0  0  0  0  0  0  0  0  0
   24.6612  -20.7591  -11.0371 N   0  0  0  0  0  0  0  0  0  0  0  0
   24.7190  -21.1932   -8.6597 C   0  0  0  0  0  0  0  0  0  0  0  0
   25.0606  -21.9811   -7.5588 O   0  0  0  0  0  0  0  0  0  0  0  0
   23.7059  -20.4783   -8.5410 O   0  0  0  0  0  0  0  0  0  0  0  0
  2  1  1  0
  2  3  1  0
  3  5  1  0
  3  4  1  1
  5  6  1  6
  7  5  1  0
  7  8  2  0
 10 12  1  0
 10  9  1  0
 11 10  2  0
 13 12  1  6
 13 14  1  0
 14  7  1  0
 15 13  1  0
 16 15  2  0
 18 17  1  0
 18 19  1  0
 19 21  1  0
 19 20  1  1
 21 22  1  6
 21 23  1  0
 22 15  1  0
 23 25  2  0
 23 24  1  0
M  END
$$$$
