INI.pdb
     RDKit          3D

 25 24  0  0  1  0  0  0  0  0999 V2000
   19.3294  -15.8757  -15.6968 C   0  0  0  0  0  0  0  0  0  0  0  0
   19.7078  -17.2520  -16.1100 C   0  0  0  0  0  0  0  0  0  0  0  0
   20.3173  -18.1234  -15.0727 C   0  0  2  0  0  0  0  0  0  0  0  0
   21.6607  -17.5057  -14.6629 C   0  0  0  0  0  0  0  0  0  0  0  0
   20.5925  -19.5232  -15.4965 C   0  0  2  0  0  0  0  0  0  0  0  0
   19.4126  -20.1683  -15.9434 N   0  0  0  0  0  0  0  0  0  0  0  0
   21.4208  -20.2998  -14.5224 C   0  0  0  0  0  0  0  0  0  0  0  0
   20.8136  -20.7850  -13.5318 O   0  0  0  0  0  0  0  0  0  0  0  0
   24.6892  -24.4946  -13.2211 N   0  0  0  0  0  0  0  0  0  0  0  0
   25.1565  -23.3984  -13.9823 C   0  0  0  0  0  0  0  0  0  0  0  0
   26.3809  -23.1347  -13.9943 O   0  0  0  0  0  0  0  0  0  0  0  0
   24.2143  -22.5670  -14.7595 C   0  0  0  0  0  0  0  0  0  0  0  0
   23.6704  -21.4116  -13.9613 C   0  0  2  0  0  0  0  0  0  0  0  0
   22.8026  -20.5072  -14.6551 N   0  0  0  0  0  0  0  0  0  0  0  0
   24.5920  -20.7223  -13.0881 C   0  0  0  0  0  0  0  0  0  0  0  0
   25.1666  -19.6804  -13.5770 O   0  0  0  0  0  0  0  0  0  0  0  0
   26.5714  -19.4374   -7.4373 C   0  0  0  0  0  0  0  0  0  0  0  0
   26.7259  -19.2992   -8.9447 C   0  0  0  0  0  0  0  0  0  0  0  0
   25.6713  -20.0837   -9.6758 C   0  0  2  0  0  0  0  0  0  0  0  0
   25.3346  -21.2983   -8.8407 C   0  0  0  0  0  0  0  0  0  0  0  0
   26.0363  -20.4122  -11.0890 C   0  0  2  0  0  0  0  0  0  0  0  0
   24.9244  -21.0643  -11.7763 N   0  0  0  0  0  0  0  0  0  0  0  0
   27.2805  -21.1968  -11.2516 C   0  0  0  0  0  0  0  0  0  0  0  0
   28.5370  -20.6080  -11.4072 O   0  0  0  0  0  0  0  0  0  0  0  0
   27.2440  -22.4419  -11.2544 O   0  0  0  0  0  0  0  0  0  0  0  0
  2  1  1  0
  2  3  1  0
  3  5  1  0
  3  4  1  6
  5  6  1  1
  7  5  1  0
  7  8  2  0
 10 12  1  0
 10  9  1  0
 11 10  2  0
 13 12  1  6
 13 14  1  0
 14  7  1  0
 15 13  1  0
 16 15  2  0
 18 17  1  0
 18 19  1  0
 19 21  1  0
 19 20  1  1
 21 22  1  1
 21 23  1  0
 22 15  1  0
 23 25  2  0
 23 24  1  0
M  END
$$$$
