INI.pdb
     RDKit          3D

 25 24  0  0  1  0  0  0  0  0999 V2000
   25.8006  -18.0018  -19.1535 C   0  0  0  0  0  0  0  0  0  0  0  0
   26.8265  -18.9425  -18.6331 C   0  0  0  0  0  0  0  0  0  0  0  0
   26.5058  -19.6588  -17.3717 C   0  0  2  0  0  0  0  0  0  0  0  0
   26.2619  -18.6100  -16.2787 C   0  0  0  0  0  0  0  0  0  0  0  0
   27.5674  -20.5728  -16.8695 C   0  0  2  0  0  0  0  0  0  0  0  0
   27.9538  -21.5087  -17.8608 N   0  0  0  0  0  0  0  0  0  0  0  0
   27.2827  -21.1479  -15.5181 C   0  0  0  0  0  0  0  0  0  0  0  0
   26.3247  -21.9617  -15.4455 O   0  0  0  0  0  0  0  0  0  0  0  0
   29.5890  -19.1571  -12.5908 N   0  0  0  0  0  0  0  0  0  0  0  0
   29.9302  -20.4042  -12.0181 C   0  0  0  0  0  0  0  0  0  0  0  0
   30.9720  -20.5010  -11.3296 O   0  0  0  0  0  0  0  0  0  0  0  0
   29.0696  -21.5871  -12.2257 C   0  0  0  0  0  0  0  0  0  0  0  0
   27.8233  -21.2640  -13.0068 C   0  0  2  0  0  0  0  0  0  0  0  0
   28.0105  -20.8325  -14.3601 N   0  0  0  0  0  0  0  0  0  0  0  0
   26.7988  -20.5044  -12.3284 C   0  0  0  0  0  0  0  0  0  0  0  0
   26.6249  -19.2961  -12.7339 O   0  0  0  0  0  0  0  0  0  0  0  0
   21.7686  -19.5590  -13.4376 C   0  0  0  0  0  0  0  0  0  0  0  0
   22.5159  -19.6377  -12.1145 C   0  0  0  0  0  0  0  0  0  0  0  0
   23.8435  -20.3254  -12.2774 C   0  0  2  0  0  0  0  0  0  0  0  0
   23.5838  -21.7118  -12.8222 C   0  0  0  0  0  0  0  0  0  0  0  0
   24.6822  -20.3172  -11.0386 C   0  0  2  0  0  0  0  0  0  0  0  0
   25.9808  -20.9393  -11.2842 N   0  0  0  0  0  0  0  0  0  0  0  0
   24.0418  -20.9053   -9.8410 C   0  0  0  0  0  0  0  0  0  0  0  0
   24.5217  -22.0533   -9.2075 O   0  0  0  0  0  0  0  0  0  0  0  0
   23.0266  -20.3789   -9.3473 O   0  0  0  0  0  0  0  0  0  0  0  0
  2  1  1  0
  2  3  1  0
  3  5  1  0
  3  4  1  1
  5  6  1  6
  7  5  1  0
  7  8  2  0
 10 12  1  0
 10  9  1  0
 11 10  2  0
 13 12  1  1
 13 14  1  0
 14  7  1  0
 15 13  1  0
 16 15  2  0
 18 17  1  0
 18 19  1  0
 19 21  1  0
 19 20  1  1
 21 22  1  6
 21 23  1  0
 22 15  1  0
 23 25  2  0
 23 24  1  0
M  END
$$$$
