INI.pdb
     RDKit          3D

 25 24  0  0  1  0  0  0  0  0999 V2000
   24.7698  -31.9261   -5.2333 C   0  0  0  0  0  0  0  0  0  0  0  0
   25.5467  -33.1254   -4.8255 C   0  0  0  0  0  0  0  0  0  0  0  0
   25.4038  -33.5737   -3.4164 C   0  0  2  0  0  0  0  0  0  0  0  0
   25.8101  -32.4092   -2.5038 C   0  0  0  0  0  0  0  0  0  0  0  0
   26.2408  -34.7423   -3.0306 C   0  0  2  0  0  0  0  0  0  0  0  0
   26.0907  -35.8102   -3.9499 N   0  0  0  0  0  0  0  0  0  0  0  0
   26.1307  -35.1164   -1.5864 C   0  0  0  0  0  0  0  0  0  0  0  0
   25.0428  -35.6361   -1.2231 O   0  0  0  0  0  0  0  0  0  0  0  0
   26.4012  -38.3747    1.8317 N   0  0  0  0  0  0  0  0  0  0  0  0
   27.1482  -37.7325    0.8172 C   0  0  0  0  0  0  0  0  0  0  0  0
   27.1425  -38.2037   -0.3433 O   0  0  0  0  0  0  0  0  0  0  0  0
   27.9308  -36.5156    1.1164 C   0  0  0  0  0  0  0  0  0  0  0  0
   27.1969  -35.2528    0.7496 C   0  0  2  0  0  0  0  0  0  0  0  0
   27.1518  -34.9209   -0.6434 N   0  0  0  0  0  0  0  0  0  0  0  0
   27.4255  -34.0930    1.5800 C   0  0  0  0  0  0  0  0  0  0  0  0
   28.4439  -33.3682    1.2760 O   0  0  0  0  0  0  0  0  0  0  0  0
   23.9090  -30.3929    3.2152 C   0  0  0  0  0  0  0  0  0  0  0  0
   25.1075  -31.2016    2.7411 C   0  0  0  0  0  0  0  0  0  0  0  0
   25.9160  -31.7115    3.9023 C   0  0  2  0  0  0  0  0  0  0  0  0
   26.2885  -30.5262    4.7640 C   0  0  0  0  0  0  0  0  0  0  0  0
   27.0879  -32.5492    3.4986 C   0  0  2  0  0  0  0  0  0  0  0  0
   26.6629  -33.6763    2.6724 N   0  0  0  0  0  0  0  0  0  0  0  0
   27.9428  -33.0146    4.6134 C   0  0  0  0  0  0  0  0  0  0  0  0
   29.0406  -32.2914    5.0840 O   0  0  0  0  0  0  0  0  0  0  0  0
   27.7021  -34.0961    5.1824 O   0  0  0  0  0  0  0  0  0  0  0  0
  2  1  1  0
  2  3  1  0
  3  5  1  0
  3  4  1  1
  5  6  1  6
  7  5  1  0
  7  8  2  0
 10 12  1  0
 10  9  1  0
 11 10  2  0
 13 12  1  6
 13 14  1  0
 14  7  1  0
 15 13  1  0
 16 15  2  0
 18 17  1  0
 18 19  1  0
 19 21  1  0
 19 20  1  6
 21 22  1  1
 21 23  1  0
 22 15  1  0
 23 25  2  0
 23 24  1  0
M  END
$$$$
