INI.pdb
     RDKit          3D

 25 24  0  0  1  0  0  0  0  0999 V2000
   33.8980  -22.9159   -9.5121 C   0  0  0  0  0  0  0  0  0  0  0  0
   32.9037  -23.1072  -10.5997 C   0  0  0  0  0  0  0  0  0  0  0  0
   31.9048  -22.0255  -10.7974 C   0  0  2  0  0  0  0  0  0  0  0  0
   31.0383  -21.9423   -9.5340 C   0  0  0  0  0  0  0  0  0  0  0  0
   30.9803  -22.2134  -11.9484 C   0  0  2  0  0  0  0  0  0  0  0  0
   31.6899  -22.5265  -13.1343 N   0  0  0  0  0  0  0  0  0  0  0  0
   29.9501  -21.1367  -12.0804 C   0  0  0  0  0  0  0  0  0  0  0  0
   30.1128  -20.3175  -13.0227 O   0  0  0  0  0  0  0  0  0  0  0  0
   25.1649  -19.5806  -13.1075 N   0  0  0  0  0  0  0  0  0  0  0  0
   25.5383  -20.9442  -13.0800 C   0  0  0  0  0  0  0  0  0  0  0  0
   24.6712  -21.8241  -13.2869 O   0  0  0  0  0  0  0  0  0  0  0  0
   26.9374  -21.3350  -12.8103 C   0  0  0  0  0  0  0  0  0  0  0  0
   27.4695  -20.7328  -11.5367 C   0  0  2  0  0  0  0  0  0  0  0  0
   28.8431  -20.9988  -11.2285 N   0  0  0  0  0  0  0  0  0  0  0  0
   26.6233  -20.8087  -10.3683 C   0  0  0  0  0  0  0  0  0  0  0  0
   25.3883  -20.4921  -10.5395 O   0  0  0  0  0  0  0  0  0  0  0  0
   27.5879  -18.2719   -5.7154 C   0  0  0  0  0  0  0  0  0  0  0  0
   26.8188  -18.8723   -6.8830 C   0  0  0  0  0  0  0  0  0  0  0  0
   26.7760  -20.3731   -6.7944 C   0  0  2  0  0  0  0  0  0  0  0  0
   28.1891  -20.8653   -6.5775 C   0  0  0  0  0  0  0  0  0  0  0  0
   26.0866  -21.0253   -7.9509 C   0  0  2  0  0  0  0  0  0  0  0  0
   27.0007  -21.1871   -9.0787 N   0  0  0  0  0  0  0  0  0  0  0  0
   24.8330  -20.3708   -8.3870 C   0  0  0  0  0  0  0  0  0  0  0  0
   23.5915  -20.6418   -7.8084 O   0  0  0  0  0  0  0  0  0  0  0  0
   24.8475  -19.5340   -9.3096 O   0  0  0  0  0  0  0  0  0  0  0  0
  2  1  1  0
  2  3  1  0
  3  5  1  0
  3  4  1  1
  5  6  1  6
  7  5  1  0
  7  8  2  0
 10 12  1  0
 10  9  1  0
 11 10  2  0
 13 12  1  6
 13 14  1  0
 14  7  1  0
 15 13  1  0
 16 15  2  0
 18 17  1  0
 18 19  1  0
 19 21  1  0
 19 20  1  6
 21 22  1  6
 21 23  1  0
 22 15  1  0
 23 25  2  0
 23 24  1  0
M  END
$$$$
