REF.pdb
     RDKit          3D

 32 32  0  0  1  0  0  0  0  0999 V2000
    7.8576  -13.2436   17.5203 N   0  0  0  0  0  0  0  0  0  0  0  0
    8.1694  -14.0575   16.3969 C   0  0  0  0  0  0  0  0  0  0  0  0
    9.1791  -13.7403   15.6807 N   0  0  0  0  0  0  0  0  0  0  0  0
    7.3767  -15.1889   16.0845 N   0  0  0  0  0  0  0  0  0  0  0  0
    6.7023  -15.9100   17.1210 C   0  0  0  0  0  0  0  0  0  0  0  0
    7.6547  -16.6411   18.0485 C   0  0  0  0  0  0  0  0  0  0  0  0
    7.2939  -16.3599   19.4927 C   0  0  0  0  0  0  0  0  0  0  0  0
    8.4185  -15.5553   20.1131 C   0  0  2  0  0  0  0  0  0  0  0  0
    9.4578  -15.4354   19.1129 N   0  0  0  0  0  0  0  0  0  0  0  0
    8.8918  -16.3248   21.3073 C   0  0  0  0  0  0  0  0  0  0  0  0
    8.1140  -16.6185   22.2510 O   0  0  0  0  0  0  0  0  0  0  0  0
    9.4591  -14.1576   14.7821 N   0  0  0  0  0  0  0  0  0  0  0  0
   10.2465  -16.7719   21.4537 C   0  0  1  0  0  0  0  0  0  0  0  0
   10.6896  -17.3866   22.6788 C   0  0  0  0  0  0  0  0  0  0  0  0
   11.9866  -18.1114   22.4202 C   0  0  0  0  0  0  0  0  0  0  0  0
   12.6653  -17.4976   21.2277 C   0  0  0  0  0  0  0  0  0  0  0  0
   13.9552  -18.2099   20.9387 O   0  0  0  0  0  0  0  0  0  0  0  0
   14.9057  -17.5514   20.4536 C   0  0  0  0  0  0  0  0  0  0  0  0
   10.9149  -16.4161   23.7843 O   0  0  0  0  0  0  0  0  0  0  0  0
   11.6230  -15.3930   23.6874 O   0  0  0  0  0  0  0  0  0  0  0  0
   14.0883  -19.5583   21.2054 N   0  0  0  0  0  0  0  0  0  0  0  0
   10.2614  -16.7145   25.0106 C   0  0  1  0  0  0  0  0  0  0  0  0
    9.6923  -15.6446   25.8406 C   0  0  0  0  0  0  0  0  0  0  0  0
    8.7456  -14.8729   24.9471 C   0  0  0  0  0  0  0  0  0  0  0  0
    8.0426  -13.7695   25.6283 C   0  0  0  0  0  0  0  0  0  0  0  0
    8.7174  -12.7522   26.2634 C   0  0  0  0  0  0  0  0  0  0  0  0
    8.0417  -11.7304   26.8919 C   0  0  0  0  0  0  0  0  0  0  0  0
    6.6544  -11.6880   26.9094 C   0  0  0  0  0  0  0  0  0  0  0  0
    5.9880  -12.7065   26.2734 C   0  0  0  0  0  0  0  0  0  0  0  0
    6.6576  -13.7292   25.6439 C   0  0  0  0  0  0  0  0  0  0  0  0
    8.9438  -16.1832   26.9784 O   0  0  0  0  0  0  0  0  0  0  0  0
    9.1004  -15.7049   28.1174 O   0  0  0  0  0  0  0  0  0  0  0  0
  1  2  1  0
  2  3  2  0
  4  2  1  0
  5  4  1  0
  6  5  1  0
  7  6  1  0
  8  7  1  0
  8  9  1  6
 10  8  1  0
 11 10  2  0
 12 10  1  0
 13 12  1  0
 14 15  1  0
 13 14  1  6
 15 16  1  0
 16 17  2  0
 18 13  1  0
 18 21  1  0
 19 18  2  0
 20 16  1  0
 22 21  1  0
 22 30  1  0
 22 23  1  1
 23 24  1  0
 24 29  2  0
 24 25  1  0
 25 26  2  0
 27 26  1  0
 28 27  2  0
 29 28  1  0
 30 32  1  0
 31 30  2  0
M  END
$$$$
