REF.pdb
     RDKit          3D

 32 32  0  0  1  0  0  0  0  0999 V2000
    7.3043  -12.8671   17.5766 N   0  0  0  0  0  0  0  0  0  0  0  0
    8.2982  -12.8572   18.5934 C   0  0  0  0  0  0  0  0  0  0  0  0
    8.7480  -11.7286   18.9897 N   0  0  0  0  0  0  0  0  0  0  0  0
    8.7737  -14.0705   19.1482 N   0  0  0  0  0  0  0  0  0  0  0  0
    8.1331  -15.3114   18.8339 C   0  0  0  0  0  0  0  0  0  0  0  0
    8.7678  -16.4984   19.5339 C   0  0  0  0  0  0  0  0  0  0  0  0
    8.4811  -16.4409   21.0203 C   0  0  0  0  0  0  0  0  0  0  0  0
    7.8555  -17.7583   21.4326 C   0  0  2  0  0  0  0  0  0  0  0  0
    6.5619  -17.8351   20.7881 N   0  0  0  0  0  0  0  0  0  0  0  0
    7.7249  -17.7260   22.9240 C   0  0  0  0  0  0  0  0  0  0  0  0
    6.7274  -17.2052   23.4858 O   0  0  0  0  0  0  0  0  0  0  0  0
    9.4789  -11.5645   19.6961 N   0  0  0  0  0  0  0  0  0  0  0  0
    8.7161  -18.2788   23.8006 C   0  0  1  0  0  0  0  0  0  0  0  0
    8.5971  -18.1348   25.2290 C   0  0  0  0  0  0  0  0  0  0  0  0
    8.8720  -19.4676   25.8787 C   0  0  0  0  0  0  0  0  0  0  0  0
    7.7864  -20.4352   25.4979 C   0  0  0  0  0  0  0  0  0  0  0  0
    6.7411  -20.4953   26.5741 O   0  0  0  0  0  0  0  0  0  0  0  0
    5.5485  -20.6892   26.2386 C   0  0  0  0  0  0  0  0  0  0  0  0
    9.5369  -17.1362   25.8070 O   0  0  0  0  0  0  0  0  0  0  0  0
   10.6534  -16.8597   25.3227 O   0  0  0  0  0  0  0  0  0  0  0  0
    7.0898  -20.3429   27.9017 N   0  0  0  0  0  0  0  0  0  0  0  0
    9.0918  -16.4798   26.9864 C   0  0  2  0  0  0  0  0  0  0  0  0
    9.9313  -15.4747   27.6516 C   0  0  0  0  0  0  0  0  0  0  0  0
    8.9852  -14.4321   28.2066 C   0  0  0  0  0  0  0  0  0  0  0  0
    8.1171  -13.8077   27.1906 C   0  0  0  0  0  0  0  0  0  0  0  0
    8.5821  -13.4609   25.9427 C   0  0  0  0  0  0  0  0  0  0  0  0
    7.7544  -12.8806   25.0080 C   0  0  0  0  0  0  0  0  0  0  0  0
    6.4198  -12.6225   25.2892 C   0  0  0  0  0  0  0  0  0  0  0  0
    5.9631  -12.9714   26.5365 C   0  0  0  0  0  0  0  0  0  0  0  0
    6.7851  -13.5515   27.4736 C   0  0  0  0  0  0  0  0  0  0  0  0
   10.7010  -16.0567   28.7532 O   0  0  0  0  0  0  0  0  0  0  0  0
   10.4964  -17.2316   29.1117 O   0  0  0  0  0  0  0  0  0  0  0  0
  1  2  1  0
  2  3  2  0
  4  2  1  0
  5  4  1  0
  6  5  1  0
  7  6  1  0
  8  7  1  0
  8  9  1  6
 10  8  1  0
 11 10  2  0
 12 10  1  0
 13 12  1  0
 14 15  1  0
 13 14  1  1
 15 16  1  0
 16 17  2  0
 18 13  1  0
 18 21  1  0
 19 18  2  0
 20 16  1  0
 22 21  1  0
 22 30  1  0
 22 23  1  6
 23 24  1  0
 24 29  2  0
 24 25  1  0
 25 26  2  0
 27 26  1  0
 28 27  2  0
 29 28  1  0
 30 32  1  0
 31 30  2  0
M  END
$$$$
