REF.pdb
     RDKit          3D

 32 32  0  0  1  0  0  0  0  0999 V2000
    8.1182  -12.0909   18.6172 N   0  0  0  0  0  0  0  0  0  0  0  0
    8.4991  -13.4280   18.3190 C   0  0  0  0  0  0  0  0  0  0  0  0
    9.4187  -13.6168   17.4519 N   0  0  0  0  0  0  0  0  0  0  0  0
    7.8710  -14.5182   18.9693 N   0  0  0  0  0  0  0  0  0  0  0  0
    6.8535  -14.2890   19.9497 C   0  0  0  0  0  0  0  0  0  0  0  0
    7.4027  -14.1940   21.3607 C   0  0  0  0  0  0  0  0  0  0  0  0
    6.8113  -15.2888   22.2247 C   0  0  0  0  0  0  0  0  0  0  0  0
    7.5147  -16.5885   21.8886 C   0  0  2  0  0  0  0  0  0  0  0  0
    6.4878  -17.5885   21.6883 N   0  0  0  0  0  0  0  0  0  0  0  0
    8.3860  -16.9230   23.0596 C   0  0  0  0  0  0  0  0  0  0  0  0
    7.9214  -17.4792   24.0875 O   0  0  0  0  0  0  0  0  0  0  0  0
    9.7626  -14.5204   17.0979 N   0  0  0  0  0  0  0  0  0  0  0  0
    9.7904  -16.6344   23.0877 C   0  0  2  0  0  0  0  0  0  0  0  0
   10.6162  -17.1047   24.1703 C   0  0  0  0  0  0  0  0  0  0  0  0
   12.0350  -17.2423   23.6780 C   0  0  0  0  0  0  0  0  0  0  0  0
   12.8972  -17.7581   24.7962 C   0  0  0  0  0  0  0  0  0  0  0  0
   14.3146  -17.9211   24.3283 O   0  0  0  0  0  0  0  0  0  0  0  0
   14.5758  -18.8477   23.5247 C   0  0  0  0  0  0  0  0  0  0  0  0
   10.6225  -16.1991   25.3512 O   0  0  0  0  0  0  0  0  0  0  0  0
   11.0872  -15.0409   25.3457 O   0  0  0  0  0  0  0  0  0  0  0  0
   15.3040  -17.0662   24.7727 N   0  0  0  0  0  0  0  0  0  0  0  0
   10.0517  -16.7301   26.5395 C   0  0  1  0  0  0  0  0  0  0  0  0
   10.2190  -16.0439   27.8274 C   0  0  0  0  0  0  0  0  0  0  0  0
    8.8267  -15.6930   28.3050 C   0  0  0  0  0  0  0  0  0  0  0  0
    8.2057  -14.5726   27.5736 C   0  0  0  0  0  0  0  0  0  0  0  0
    8.6134  -13.2697   27.7455 C   0  0  0  0  0  0  0  0  0  0  0  0
    8.0215  -12.2386   27.0513 C   0  0  0  0  0  0  0  0  0  0  0  0
    6.9904  -12.4741   26.1523 C   0  0  0  0  0  0  0  0  0  0  0  0
    6.5891  -13.7769   25.9859 C   0  0  0  0  0  0  0  0  0  0  0  0
    7.1769  -14.8105   26.6763 C   0  0  0  0  0  0  0  0  0  0  0  0
   10.8618  -16.9073   28.8205 O   0  0  0  0  0  0  0  0  0  0  0  0
   11.0697  -18.1089   28.5687 O   0  0  0  0  0  0  0  0  0  0  0  0
  1  2  1  0
  2  3  2  0
  4  2  1  0
  5  4  1  0
  6  5  1  0
  7  6  1  0
  8  7  1  0
  8  9  1  1
 10  8  1  0
 11 10  2  0
 12 10  1  0
 13 12  1  0
 14 15  1  0
 13 14  1  6
 15 16  1  0
 16 17  2  0
 18 13  1  0
 18 21  1  0
 19 18  2  0
 20 16  1  0
 22 21  1  0
 22 30  1  0
 22 23  1  1
 23 24  1  0
 24 29  2  0
 24 25  1  0
 25 26  2  0
 27 26  1  0
 28 27  2  0
 29 28  1  0
 30 32  1  0
 31 30  2  0
M  END
$$$$
