REF.pdb
     RDKit          3D

 32 32  0  0  1  0  0  0  0  0999 V2000
    7.5781  -19.6748   20.9640 N   0  0  0  0  0  0  0  0  0  0  0  0
    8.6379  -20.2980   20.2497 C   0  0  0  0  0  0  0  0  0  0  0  0
    8.5176  -20.4350   18.9848 N   0  0  0  0  0  0  0  0  0  0  0  0
    9.7944  -20.7536   20.9286 N   0  0  0  0  0  0  0  0  0  0  0  0
   10.5453  -19.8624   21.7599 C   0  0  0  0  0  0  0  0  0  0  0  0
   10.0219  -19.7985   23.1824 C   0  0  0  0  0  0  0  0  0  0  0  0
   10.8146  -18.7868   23.9842 C   0  0  0  0  0  0  0  0  0  0  0  0
   11.3951  -17.7704   23.0215 C   0  0  2  0  0  0  0  0  0  0  0  0
   12.7927  -17.6113   23.3625 N   0  0  0  0  0  0  0  0  0  0  0  0
   10.6319  -16.4982   23.2251 C   0  0  0  0  0  0  0  0  0  0  0  0
   11.0505  -15.5962   23.9952 O   0  0  0  0  0  0  0  0  0  0  0  0
    9.1629  -20.9238   18.3487 N   0  0  0  0  0  0  0  0  0  0  0  0
    9.3881  -16.2269   22.5650 C   0  0  2  0  0  0  0  0  0  0  0  0
    8.6609  -15.0134   22.8366 C   0  0  0  0  0  0  0  0  0  0  0  0
    7.7160  -14.7439   21.6925 C   0  0  0  0  0  0  0  0  0  0  0  0
    8.3567  -13.7709   20.7425 C   0  0  0  0  0  0  0  0  0  0  0  0
    7.6238  -13.7632   19.4320 O   0  0  0  0  0  0  0  0  0  0  0  0
    6.4799  -14.2749   19.3841 C   0  0  0  0  0  0  0  0  0  0  0  0
    7.8636  -15.0654   24.0921 O   0  0  0  0  0  0  0  0  0  0  0  0
    7.2640  -16.0803   24.5019 O   0  0  0  0  0  0  0  0  0  0  0  0
    8.1984  -13.2018   18.3088 N   0  0  0  0  0  0  0  0  0  0  0  0
    7.8102  -13.8581   24.8400 C   0  0  2  0  0  0  0  0  0  0  0  0
    6.9610  -13.7483   26.0335 C   0  0  0  0  0  0  0  0  0  0  0  0
    7.7715  -12.9904   27.0624 C   0  0  0  0  0  0  0  0  0  0  0  0
    8.7956  -13.8073   27.7404 C   0  0  0  0  0  0  0  0  0  0  0  0
   10.0584  -13.9783   27.2209 C   0  0  0  0  0  0  0  0  0  0  0  0
   11.0004  -14.7437   27.8709 C   0  0  0  0  0  0  0  0  0  0  0  0
   10.7118  -15.3724   29.0743 C   0  0  0  0  0  0  0  0  0  0  0  0
    9.4497  -15.1970   29.5865 C   0  0  0  0  0  0  0  0  0  0  0  0
    8.5053  -14.4335   28.9418 C   0  0  0  0  0  0  0  0  0  0  0  0
    5.7293  -13.0070   25.7543 O   0  0  0  0  0  0  0  0  0  0  0  0
    5.5780  -12.4269   24.6629 O   0  0  0  0  0  0  0  0  0  0  0  0
  1  2  1  0
  2  3  2  0
  4  2  1  0
  5  4  1  0
  6  5  1  0
  7  6  1  0
  8  7  1  0
  8  9  1  1
 10  8  1  0
 11 10  2  0
 12 10  1  0
 13 12  1  0
 14 15  1  0
 13 14  1  6
 15 16  1  0
 16 17  2  0
 18 13  1  0
 18 21  1  0
 19 18  2  0
 20 16  1  0
 22 21  1  0
 22 30  1  0
 22 23  1  6
 23 24  1  0
 24 29  2  0
 24 25  1  0
 25 26  2  0
 27 26  1  0
 28 27  2  0
 29 28  1  0
 30 32  1  0
 31 30  2  0
M  END
$$$$
