REF.pdb
     RDKit          3D

 32 32  0  0  1  0  0  0  0  0999 V2000
    8.5411  -12.1500   20.1976 N   0  0  0  0  0  0  0  0  0  0  0  0
    8.3599  -13.2495   19.3144 C   0  0  0  0  0  0  0  0  0  0  0  0
    8.3120  -13.0164   18.0588 N   0  0  0  0  0  0  0  0  0  0  0  0
    8.2358  -14.5668   19.8197 N   0  0  0  0  0  0  0  0  0  0  0  0
    8.3969  -14.8248   21.2185 C   0  0  0  0  0  0  0  0  0  0  0  0
    7.1063  -14.6698   22.0008 C   0  0  0  0  0  0  0  0  0  0  0  0
    6.4787  -16.0269   22.2445 C   0  0  0  0  0  0  0  0  0  0  0  0
    7.5115  -17.0895   21.9268 C   0  0  2  0  0  0  0  0  0  0  0  0
    6.8023  -18.3433   21.7859 N   0  0  0  0  0  0  0  0  0  0  0  0
    8.4643  -17.1243   23.0814 C   0  0  0  0  0  0  0  0  0  0  0  0
    8.1077  -17.5323   24.2164 O   0  0  0  0  0  0  0  0  0  0  0  0
    8.1578  -13.7009   17.3054 N   0  0  0  0  0  0  0  0  0  0  0  0
    9.8295  -16.6992   22.9722 C   0  0  2  0  0  0  0  0  0  0  0  0
   10.7828  -17.0149   24.0051 C   0  0  0  0  0  0  0  0  0  0  0  0
   12.1736  -16.9323   23.4278 C   0  0  0  0  0  0  0  0  0  0  0  0
   12.2439  -17.7789   22.1876 C   0  0  0  0  0  0  0  0  0  0  0  0
   13.6170  -17.7061   21.5845 O   0  0  0  0  0  0  0  0  0  0  0  0
   13.7309  -17.2936   20.4058 C   0  0  0  0  0  0  0  0  0  0  0  0
   10.7142  -16.1016   25.1779 O   0  0  0  0  0  0  0  0  0  0  0  0
   11.2808  -14.9912   25.2377 O   0  0  0  0  0  0  0  0  0  0  0  0
   14.7264  -18.0829   22.3155 N   0  0  0  0  0  0  0  0  0  0  0  0
    9.9422  -16.5654   26.2774 C   0  0  1  0  0  0  0  0  0  0  0  0
    9.9878  -15.8764   27.5739 C   0  0  0  0  0  0  0  0  0  0  0  0
    8.5679  -15.4506   27.8780 C   0  0  0  0  0  0  0  0  0  0  0  0
    8.0700  -14.3620   27.0160 C   0  0  0  0  0  0  0  0  0  0  0  0
    8.4595  -13.0537   27.1895 C   0  0  0  0  0  0  0  0  0  0  0  0
    7.9841  -12.0527   26.3725 C   0  0  0  0  0  0  0  0  0  0  0  0
    7.0933  -12.3251   25.3434 C   0  0  0  0  0  0  0  0  0  0  0  0
    6.7094  -13.6330   25.1764 C   0  0  0  0  0  0  0  0  0  0  0  0
    7.1812  -14.6366   25.9891 C   0  0  0  0  0  0  0  0  0  0  0  0
   10.4604  -16.7619   28.6403 O   0  0  0  0  0  0  0  0  0  0  0  0
   10.6169  -16.3263   29.7964 O   0  0  0  0  0  0  0  0  0  0  0  0
  1  2  1  0
  2  3  2  0
  4  2  1  0
  5  4  1  0
  6  5  1  0
  7  6  1  0
  8  7  1  0
  8  9  1  1
 10  8  1  0
 11 10  2  0
 12 10  1  0
 13 12  1  0
 14 15  1  0
 13 14  1  6
 15 16  1  0
 16 17  2  0
 18 13  1  0
 18 21  1  0
 19 18  2  0
 20 16  1  0
 22 21  1  0
 22 30  1  0
 22 23  1  1
 23 24  1  0
 24 29  2  0
 24 25  1  0
 25 26  2  0
 27 26  1  0
 28 27  2  0
 29 28  1  0
 30 32  1  0
 31 30  2  0
M  END
$$$$
