REF.pdb
     RDKit          3D

 32 32  0  0  1  0  0  0  0  0999 V2000
   10.8931  -14.0627   17.1114 N   0  0  0  0  0  0  0  0  0  0  0  0
   10.8632  -13.5553   18.4393 C   0  0  0  0  0  0  0  0  0  0  0  0
   11.9245  -13.6438   19.1457 N   0  0  0  0  0  0  0  0  0  0  0  0
    9.6840  -12.9687   18.9602 N   0  0  0  0  0  0  0  0  0  0  0  0
    8.4605  -13.0196   18.2188 C   0  0  0  0  0  0  0  0  0  0  0  0
    7.8230  -14.3963   18.2238 C   0  0  0  0  0  0  0  0  0  0  0  0
    7.8317  -14.9693   19.6261 C   0  0  0  0  0  0  0  0  0  0  0  0
    8.0354  -16.4676   19.5235 C   0  0  2  0  0  0  0  0  0  0  0  0
    6.7309  -17.0615   19.3230 N   0  0  0  0  0  0  0  0  0  0  0  0
    8.6471  -16.9095   20.8169 C   0  0  0  0  0  0  0  0  0  0  0  0
    7.9376  -17.2171   21.8088 O   0  0  0  0  0  0  0  0  0  0  0  0
   12.0266  -13.4168   20.1447 N   0  0  0  0  0  0  0  0  0  0  0  0
   10.0646  -17.0095   21.0092 C   0  0  2  0  0  0  0  0  0  0  0  0
   10.6113  -17.3063   22.3085 C   0  0  0  0  0  0  0  0  0  0  0  0
   12.0939  -17.5463   22.1713 C   0  0  0  0  0  0  0  0  0  0  0  0
   12.6415  -18.0161   23.4900 C   0  0  0  0  0  0  0  0  0  0  0  0
   14.1342  -18.1590   23.4128 O   0  0  0  0  0  0  0  0  0  0  0  0
   14.8362  -17.5650   24.2654 C   0  0  0  0  0  0  0  0  0  0  0  0
   10.4094  -16.2172   23.3023 O   0  0  0  0  0  0  0  0  0  0  0  0
   10.7024  -15.0207   23.1025 O   0  0  0  0  0  0  0  0  0  0  0  0
   14.7162  -18.9302   22.4260 N   0  0  0  0  0  0  0  0  0  0  0  0
    9.8434  -16.6122   24.5447 C   0  0  1  0  0  0  0  0  0  0  0  0
    9.4293  -15.6107   25.5362 C   0  0  0  0  0  0  0  0  0  0  0  0
    8.2392  -14.8907   24.9402 C   0  0  0  0  0  0  0  0  0  0  0  0
    7.6335  -13.8880   25.8365 C   0  0  0  0  0  0  0  0  0  0  0  0
    8.2968  -12.7407   26.2069 C   0  0  0  0  0  0  0  0  0  0  0  0
    7.7125  -11.8163   27.0434 C   0  0  0  0  0  0  0  0  0  0  0  0
    6.4325  -12.0071   27.5455 C   0  0  0  0  0  0  0  0  0  0  0  0
    5.7768  -13.1543   27.1713 C   0  0  0  0  0  0  0  0  0  0  0  0
    6.3554  -14.0805   26.3359 C   0  0  0  0  0  0  0  0  0  0  0  0
    9.0278  -16.2340   26.7991 O   0  0  0  0  0  0  0  0  0  0  0  0
    8.4334  -17.3282   26.7994 O   0  0  0  0  0  0  0  0  0  0  0  0
  1  2  1  0
  2  3  2  0
  4  2  1  0
  5  4  1  0
  6  5  1  0
  7  6  1  0
  8  7  1  0
  8  9  1  1
 10  8  1  0
 11 10  2  0
 12 10  1  0
 13 12  1  0
 14 15  1  0
 13 14  1  6
 15 16  1  0
 16 17  2  0
 18 13  1  0
 18 21  1  0
 19 18  2  0
 20 16  1  0
 22 21  1  0
 22 30  1  0
 22 23  1  1
 23 24  1  0
 24 29  2  0
 24 25  1  0
 25 26  2  0
 27 26  1  0
 28 27  2  0
 29 28  1  0
 30 32  1  0
 31 30  2  0
M  END
$$$$
