REF.pdb
     RDKit          3D

 32 32  0  0  1  0  0  0  0  0999 V2000
    9.8172  -14.1208   17.6562 N   0  0  0  0  0  0  0  0  0  0  0  0
    8.4849  -13.6571   17.4777 C   0  0  0  0  0  0  0  0  0  0  0  0
    8.0392  -13.5391   16.2858 N   0  0  0  0  0  0  0  0  0  0  0  0
    7.6780  -13.3353   18.5962 N   0  0  0  0  0  0  0  0  0  0  0  0
    7.6814  -14.1724   19.7574 C   0  0  0  0  0  0  0  0  0  0  0  0
    6.9332  -15.4757   19.5489 C   0  0  0  0  0  0  0  0  0  0  0  0
    7.0393  -16.3412   20.7876 C   0  0  0  0  0  0  0  0  0  0  0  0
    7.8690  -17.5616   20.4422 C   0  0  2  0  0  0  0  0  0  0  0  0
    6.9529  -18.6736   20.3044 N   0  0  0  0  0  0  0  0  0  0  0  0
    8.8211  -17.7720   21.5787 C   0  0  0  0  0  0  0  0  0  0  0  0
    8.4550  -18.3180   22.6509 O   0  0  0  0  0  0  0  0  0  0  0  0
    7.1059  -13.2106   16.0013 N   0  0  0  0  0  0  0  0  0  0  0  0
   10.1962  -17.3692   21.5220 C   0  0  2  0  0  0  0  0  0  0  0  0
   11.0143  -17.3772   22.7077 C   0  0  0  0  0  0  0  0  0  0  0  0
   12.4638  -17.2872   22.3015 C   0  0  0  0  0  0  0  0  0  0  0  0
   12.8018  -18.4554   21.4179 C   0  0  0  0  0  0  0  0  0  0  0  0
   14.1446  -18.2526   20.7774 O   0  0  0  0  0  0  0  0  0  0  0  0
   14.2791  -18.5462   19.5656 C   0  0  0  0  0  0  0  0  0  0  0  0
   10.7244  -16.2528   23.6385 O   0  0  0  0  0  0  0  0  0  0  0  0
   10.8896  -15.0481   23.3577 O   0  0  0  0  0  0  0  0  0  0  0  0
   15.2034  -17.7513   21.5086 N   0  0  0  0  0  0  0  0  0  0  0  0
   10.2291  -16.6227   24.9183 C   0  0  1  0  0  0  0  0  0  0  0  0
    9.7438  -15.6061   25.8608 C   0  0  0  0  0  0  0  0  0  0  0  0
    8.6507  -14.8472   25.1403 C   0  0  0  0  0  0  0  0  0  0  0  0
    7.9933  -13.8151   25.9639 C   0  0  0  0  0  0  0  0  0  0  0  0
    8.6171  -12.6336   26.2934 C   0  0  0  0  0  0  0  0  0  0  0  0
    7.9847  -11.6823   27.0620 C   0  0  0  0  0  0  0  0  0  0  0  0
    6.6944  -11.8792   27.5343 C   0  0  0  0  0  0  0  0  0  0  0  0
    6.0784  -13.0605   27.2012 C   0  0  0  0  0  0  0  0  0  0  0  0
    6.7050  -14.0138   26.4337 C   0  0  0  0  0  0  0  0  0  0  0  0
    9.1863  -16.2134   27.0713 O   0  0  0  0  0  0  0  0  0  0  0  0
    8.5861  -17.3027   27.0093 O   0  0  0  0  0  0  0  0  0  0  0  0
  1  2  1  0
  2  3  2  0
  4  2  1  0
  5  4  1  0
  6  5  1  0
  7  6  1  0
  8  7  1  0
  8  9  1  1
 10  8  1  0
 11 10  2  0
 12 10  1  0
 13 12  1  0
 14 15  1  0
 13 14  1  6
 15 16  1  0
 16 17  2  0
 18 13  1  0
 18 21  1  0
 19 18  2  0
 20 16  1  0
 22 21  1  0
 22 30  1  0
 22 23  1  1
 23 24  1  0
 24 29  2  0
 24 25  1  0
 25 26  2  0
 27 26  1  0
 28 27  2  0
 29 28  1  0
 30 32  1  0
 31 30  2  0
M  END
$$$$
