YHA.pdb
     RDKit          3D

 28 29  0  0  1  0  0  0  0  0999 V2000
    5.2830  -11.0498   27.9907 O   0  0  0  0  0  0  0  0  0  0  0  0
    6.0133  -11.9937   27.2631 C   0  0  0  0  0  0  0  0  0  0  0  0
    6.1190  -13.2933   27.6923 C   0  0  0  0  0  0  0  0  0  0  0  0
    6.8460  -14.2392   26.9709 C   0  0  0  0  0  0  0  0  0  0  0  0
    7.4867  -13.8995   25.7961 C   0  0  0  0  0  0  0  0  0  0  0  0
    8.2748  -14.8987   25.0088 C   0  0  0  0  0  0  0  0  0  0  0  0
    7.4943  -15.2931   23.7477 C   0  0  2  0  0  0  0  0  0  0  0  0
    6.5078  -16.2899   24.1897 N   0  0  0  0  0  0  0  0  0  0  0  0
    8.4250  -15.9552   22.8316 C   0  0  0  0  0  0  0  0  0  0  0  0
    8.5758  -17.2128   22.8513 O   0  0  0  0  0  0  0  0  0  0  0  0
    7.3708  -12.5908   25.3792 C   0  0  0  0  0  0  0  0  0  0  0  0
    6.6525  -11.6488   26.0885 C   0  0  0  0  0  0  0  0  0  0  0  0
    9.1834  -15.1671   21.8898 N   0  0  0  0  0  0  0  0  0  0  0  0
   10.1106  -15.7919   20.9735 C   0  0  1  0  0  0  0  0  0  0  0  0
   10.5101  -14.8352   19.8587 C   0  0  0  0  0  0  0  0  0  0  0  0
    9.3830  -14.5761   18.9262 C   0  0  0  0  0  0  0  0  0  0  0  0
    8.1444  -15.1823   18.8884 C   0  0  0  0  0  0  0  0  0  0  0  0
    7.4051  -14.6600   17.8858 N   0  0  0  0  0  0  0  0  0  0  0  0
    8.1826  -13.7274   17.2976 C   0  0  0  0  0  0  0  0  0  0  0  0
    9.3631  -13.6776   17.9189 N   0  0  0  0  0  0  0  0  0  0  0  0
   11.3446  -16.2746   21.6471 C   0  0  0  0  0  0  0  0  0  0  0  0
   11.8511  -15.6583   22.6263 O   0  0  0  0  0  0  0  0  0  0  0  0
   12.3051  -18.4712   23.4690 C   0  0  0  0  0  0  0  0  0  0  0  0
   12.9532  -18.1568   22.1357 C   0  0  2  0  0  0  0  0  0  0  0  0
   12.0498  -17.4580   21.2508 N   0  0  0  0  0  0  0  0  0  0  0  0
   13.5813  -19.3447   21.5355 C   0  0  0  0  0  0  0  0  0  0  0  0
   14.6774  -19.9366   22.1379 O   0  0  0  0  0  0  0  0  0  0  0  0
   13.1485  -19.8498   20.4743 O   0  0  0  0  0  0  0  0  0  0  0  0
  2  3  2  0
  2  1  1  0
  4  3  1  0
  5  4  2  0
  6  5  1  0
  7  9  1  0
  7  6  1  0
  7  8  1  1
  9 10  2  0
 11  5  1  0
 11 12  2  0
 12  2  1  0
 13 14  1  0
 13  9  1  0
 14 15  1  6
 15 16  1  0
 16 17  2  0
 18 17  1  0
 19 18  1  0
 20 19  2  0
 20 16  1  0
 21 14  1  0
 22 21  2  0
 24 23  1  1
 24 25  1  0
 25 21  1  0
 26 24  1  0
 26 27  1  0
 28 26  2  0
M  END
$$$$
