YHA.pdb
     RDKit          3D

 28 29  0  0  1  0  0  0  0  0999 V2000
   -2.1572  -20.5763   23.3452 O   0  0  0  0  0  0  0  0  0  0  0  0
   -0.7735  -20.6873   23.1824 C   0  0  0  0  0  0  0  0  0  0  0  0
   -0.1664  -21.9150   23.0895 C   0  0  0  0  0  0  0  0  0  0  0  0
    1.2133  -22.0321   22.9270 C   0  0  0  0  0  0  0  0  0  0  0  0
    2.0187  -20.9131   22.8539 C   0  0  0  0  0  0  0  0  0  0  0  0
    3.5017  -21.0172   22.6833 C   0  0  0  0  0  0  0  0  0  0  0  0
    3.9096  -20.4085   21.3349 C   0  0  2  0  0  0  0  0  0  0  0  0
    3.3013  -21.2721   20.3119 N   0  0  0  0  0  0  0  0  0  0  0  0
    5.3645  -20.5206   21.2127 C   0  0  0  0  0  0  0  0  0  0  0  0
    5.9204  -21.6472   21.0496 O   0  0  0  0  0  0  0  0  0  0  0  0
    1.3935  -19.6883   22.9490 C   0  0  0  0  0  0  0  0  0  0  0  0
    0.0278  -19.5649   23.1099 C   0  0  0  0  0  0  0  0  0  0  0  0
    6.1811  -19.3324   21.2776 N   0  0  0  0  0  0  0  0  0  0  0  0
    7.6228  -19.4158   21.2107 C   0  0  1  0  0  0  0  0  0  0  0  0
    8.2037  -18.2567   20.4129 C   0  0  0  0  0  0  0  0  0  0  0  0
    7.9037  -18.3820   18.9632 C   0  0  0  0  0  0  0  0  0  0  0  0
    8.1810  -19.4363   18.1180 C   0  0  0  0  0  0  0  0  0  0  0  0
    7.7443  -19.1557   16.8710 N   0  0  0  0  0  0  0  0  0  0  0  0
    7.1942  -17.9255   16.9380 C   0  0  0  0  0  0  0  0  0  0  0  0
    7.2896  -17.4641   18.1870 N   0  0  0  0  0  0  0  0  0  0  0  0
    8.2588  -19.4309   22.5541 C   0  0  0  0  0  0  0  0  0  0  0  0
    8.2666  -18.4093   23.2968 O   0  0  0  0  0  0  0  0  0  0  0  0
    9.0065  -21.7951   25.2396 C   0  0  0  0  0  0  0  0  0  0  0  0
    9.4674  -20.5930   24.4403 C   0  0  2  0  0  0  0  0  0  0  0  0
    8.9037  -20.5841   23.1100 N   0  0  0  0  0  0  0  0  0  0  0  0
   10.9306  -20.4389   24.4726 C   0  0  0  0  0  0  0  0  0  0  0  0
   11.5829  -20.1990   25.6691 O   0  0  0  0  0  0  0  0  0  0  0  0
   11.6216  -20.5190   23.4311 O   0  0  0  0  0  0  0  0  0  0  0  0
  2  3  2  0
  2  1  1  0
  4  3  1  0
  5  4  2  0
  6  5  1  0
  7  9  1  0
  7  6  1  0
  7  8  1  6
  9 10  2  0
 11  5  1  0
 11 12  2  0
 12  2  1  0
 13 14  1  0
 13  9  1  0
 14 15  1  6
 15 16  1  0
 16 17  2  0
 18 17  1  0
 19 18  1  0
 20 19  2  0
 20 16  1  0
 21 14  1  0
 22 21  2  0
 24 23  1  6
 24 25  1  0
 25 21  1  0
 26 24  1  0
 26 27  1  0
 28 26  2  0
M  END
$$$$
