YHA.pdb
     RDKit          3D

 28 29  0  0  1  0  0  0  0  0999 V2000
    7.5248  -12.6959   27.7682 O   0  0  0  0  0  0  0  0  0  0  0  0
    7.2513  -13.0875   26.4546 C   0  0  0  0  0  0  0  0  0  0  0  0
    6.7889  -14.3488   26.1721 C   0  0  0  0  0  0  0  0  0  0  0  0
    6.5144  -14.7452   24.8640 C   0  0  0  0  0  0  0  0  0  0  0  0
    6.6990  -13.8794   23.8045 C   0  0  0  0  0  0  0  0  0  0  0  0
    6.4137  -14.2864   22.3931 C   0  0  0  0  0  0  0  0  0  0  0  0
    7.7227  -14.6794   21.6951 C   0  0  2  0  0  0  0  0  0  0  0  0
    7.3328  -15.1356   20.3527 N   0  0  0  0  0  0  0  0  0  0  0  0
    8.2894  -15.8228   22.4131 C   0  0  0  0  0  0  0  0  0  0  0  0
    7.7932  -16.9818   22.2889 O   0  0  0  0  0  0  0  0  0  0  0  0
    7.1638  -12.6171   24.1053 C   0  0  0  0  0  0  0  0  0  0  0  0
    7.4377  -12.2177   25.3983 C   0  0  0  0  0  0  0  0  0  0  0  0
    9.4306  -15.6313   23.2757 N   0  0  0  0  0  0  0  0  0  0  0  0
   10.0721  -16.7545   23.9212 C   0  0  1  0  0  0  0  0  0  0  0  0
   11.5824  -16.7053   23.7360 C   0  0  0  0  0  0  0  0  0  0  0  0
   11.9867  -17.1783   22.3869 C   0  0  0  0  0  0  0  0  0  0  0  0
   11.1990  -17.7386   21.4028 C   0  0  0  0  0  0  0  0  0  0  0  0
   11.9519  -18.0331   20.3207 N   0  0  0  0  0  0  0  0  0  0  0  0
   13.2100  -17.6565   20.6296 C   0  0  0  0  0  0  0  0  0  0  0  0
   13.2304  -17.1463   21.8630 N   0  0  0  0  0  0  0  0  0  0  0  0
    9.7762  -16.8249   25.3761 C   0  0  0  0  0  0  0  0  0  0  0  0
   10.1024  -15.8948   26.1659 O   0  0  0  0  0  0  0  0  0  0  0  0
    7.7550  -18.8968   27.7971 C   0  0  0  0  0  0  0  0  0  0  0  0
    8.9521  -18.0451   27.4257 C   0  0  2  0  0  0  0  0  0  0  0  0
    9.1076  -17.9323   25.9937 N   0  0  0  0  0  0  0  0  0  0  0  0
   10.1716  -18.4733   28.1295 C   0  0  0  0  0  0  0  0  0  0  0  0
   11.3012  -18.8340   27.4164 O   0  0  0  0  0  0  0  0  0  0  0  0
   10.2236  -18.5239   29.3798 O   0  0  0  0  0  0  0  0  0  0  0  0
  2  3  2  0
  2  1  1  0
  4  3  1  0
  5  4  2  0
  6  5  1  0
  7  9  1  0
  7  6  1  0
  7  8  1  6
  9 10  2  0
 11  5  1  0
 11 12  2  0
 12  2  1  0
 13 14  1  0
 13  9  1  0
 14 15  1  1
 15 16  1  0
 16 17  2  0
 18 17  1  0
 19 18  1  0
 20 19  2  0
 20 16  1  0
 21 14  1  0
 22 21  2  0
 24 23  1  6
 24 25  1  0
 25 21  1  0
 26 24  1  0
 26 27  1  0
 28 26  2  0
M  END
$$$$
