YHA.pdb
     RDKit          3D

 28 29  0  0  1  0  0  0  0  0999 V2000
    7.9632  -11.4315   18.2779 O   0  0  0  0  0  0  0  0  0  0  0  0
    8.2231  -12.3952   19.2563 C   0  0  0  0  0  0  0  0  0  0  0  0
    9.5073  -12.7859   19.5437 C   0  0  0  0  0  0  0  0  0  0  0  0
    9.7728  -13.7466   20.5185 C   0  0  0  0  0  0  0  0  0  0  0  0
    8.7493  -14.3398   21.2304 C   0  0  0  0  0  0  0  0  0  0  0  0
    9.0128  -15.3753   22.2780 C   0  0  0  0  0  0  0  0  0  0  0  0
    9.7396  -16.5717   21.6492 C   0  0  2  0  0  0  0  0  0  0  0  0
    8.7915  -17.1462   20.6831 N   0  0  0  0  0  0  0  0  0  0  0  0
    9.9671  -17.5635   22.7021 C   0  0  0  0  0  0  0  0  0  0  0  0
    9.0229  -18.2952   23.1239 O   0  0  0  0  0  0  0  0  0  0  0  0
    7.4660  -13.9364   20.9296 C   0  0  0  0  0  0  0  0  0  0  0  0
    7.1958  -12.9856   19.9656 C   0  0  0  0  0  0  0  0  0  0  0  0
   11.2854  -17.7138   23.2701 N   0  0  0  0  0  0  0  0  0  0  0  0
   11.5649  -18.7512   24.2373 C   0  0  1  0  0  0  0  0  0  0  0  0
   12.6870  -19.6614   23.7577 C   0  0  0  0  0  0  0  0  0  0  0  0
   12.3831  -20.2566   22.4308 C   0  0  0  0  0  0  0  0  0  0  0  0
   11.3526  -21.1072   22.0881 C   0  0  0  0  0  0  0  0  0  0  0  0
   11.4291  -21.4201   20.7763 N   0  0  0  0  0  0  0  0  0  0  0  0
   12.5079  -20.7644   20.3001 C   0  0  0  0  0  0  0  0  0  0  0  0
   13.0770  -20.0701   21.2881 N   0  0  0  0  0  0  0  0  0  0  0  0
   11.9344  -18.2073   25.5703 C   0  0  0  0  0  0  0  0  0  0  0  0
   13.1257  -17.8986   25.8548 O   0  0  0  0  0  0  0  0  0  0  0  0
    9.9844  -19.8953   27.7976 C   0  0  0  0  0  0  0  0  0  0  0  0
   10.9929  -18.7652   27.8444 C   0  0  2  0  0  0  0  0  0  0  0  0
   10.9882  -17.9902   26.6250 N   0  0  0  0  0  0  0  0  0  0  0  0
   12.3270  -19.2348   28.2513 C   0  0  0  0  0  0  0  0  0  0  0  0
   13.4184  -19.0465   27.4219 O   0  0  0  0  0  0  0  0  0  0  0  0
   12.5129  -19.8121   29.3471 O   0  0  0  0  0  0  0  0  0  0  0  0
  2  3  2  0
  2  1  1  0
  4  3  1  0
  5  4  2  0
  6  5  1  0
  7  9  1  0
  7  6  1  0
  7  8  1  6
  9 10  2  0
 11  5  1  0
 11 12  2  0
 12  2  1  0
 13 14  1  0
 13  9  1  0
 14 15  1  6
 15 16  1  0
 16 17  2  0
 18 17  1  0
 19 18  1  0
 20 19  2  0
 20 16  1  0
 21 14  1  0
 22 21  2  0
 24 23  1  6
 24 25  1  0
 25 21  1  0
 26 24  1  0
 26 27  1  0
 28 26  2  0
M  END
$$$$
