YHA.pdb
     RDKit          3D

 28 29  0  0  1  0  0  0  0  0999 V2000
    5.6734  -11.0477   28.7349 O   0  0  0  0  0  0  0  0  0  0  0  0
    6.2092  -11.9707   27.8324 C   0  0  0  0  0  0  0  0  0  0  0  0
    5.8658  -11.9450   26.5036 C   0  0  0  0  0  0  0  0  0  0  0  0
    6.3969  -12.8630   25.5987 C   0  0  0  0  0  0  0  0  0  0  0  0
    7.2896  -13.8325   26.0099 C   0  0  0  0  0  0  0  0  0  0  0  0
    7.8684  -14.8291   25.0554 C   0  0  0  0  0  0  0  0  0  0  0  0
    6.7449  -15.4513   24.2154 C   0  0  2  0  0  0  0  0  0  0  0  0
    6.4170  -16.7238   24.8754 N   0  0  0  0  0  0  0  0  0  0  0  0
    7.2902  -15.7575   22.8914 C   0  0  0  0  0  0  0  0  0  0  0  0
    7.8485  -16.8703   22.6574 O   0  0  0  0  0  0  0  0  0  0  0  0
    7.6239  -13.8446   27.3471 C   0  0  0  0  0  0  0  0  0  0  0  0
    7.1019  -12.9386   28.2488 C   0  0  0  0  0  0  0  0  0  0  0  0
    7.1916  -14.7800   21.8340 N   0  0  0  0  0  0  0  0  0  0  0  0
    7.7721  -15.0294   20.5338 C   0  0  1  0  0  0  0  0  0  0  0  0
    7.5417  -13.8536   19.5947 C   0  0  0  0  0  0  0  0  0  0  0  0
    8.0787  -14.1219   18.2357 C   0  0  0  0  0  0  0  0  0  0  0  0
    8.7654  -15.2315   17.7884 C   0  0  0  0  0  0  0  0  0  0  0  0
    9.0796  -15.0849   16.4830 N   0  0  0  0  0  0  0  0  0  0  0  0
    8.5887  -13.8832   16.1152 C   0  0  0  0  0  0  0  0  0  0  0  0
    7.9913  -13.3087   17.1618 N   0  0  0  0  0  0  0  0  0  0  0  0
    9.2317  -15.3022   20.6007 C   0  0  0  0  0  0  0  0  0  0  0  0
   10.0004  -14.6268   21.3412 O   0  0  0  0  0  0  0  0  0  0  0  0
   11.3832  -17.2931   21.5278 C   0  0  0  0  0  0  0  0  0  0  0  0
   11.2309  -16.7642   20.1159 C   0  0  2  0  0  0  0  0  0  0  0  0
    9.8778  -16.3355   19.8459 N   0  0  0  0  0  0  0  0  0  0  0  0
   11.7747  -17.6980   19.1169 C   0  0  0  0  0  0  0  0  0  0  0  0
   10.9473  -18.2605   18.1612 O   0  0  0  0  0  0  0  0  0  0  0  0
   12.9880  -18.0083   19.1015 O   0  0  0  0  0  0  0  0  0  0  0  0
  2  3  2  0
  2  1  1  0
  4  3  1  0
  5  4  2  0
  6  5  1  0
  7  9  1  0
  7  6  1  0
  7  8  1  1
  9 10  2  0
 11  5  1  0
 11 12  2  0
 12  2  1  0
 13 14  1  0
 13  9  1  0
 14 15  1  6
 15 16  1  0
 16 17  2  0
 18 17  1  0
 19 18  1  0
 20 19  2  0
 20 16  1  0
 21 14  1  0
 22 21  2  0
 24 23  1  1
 24 25  1  0
 25 21  1  0
 26 24  1  0
 26 27  1  0
 28 26  2  0
M  END
$$$$
