YHA.pdb
     RDKit          3D

 28 29  0  0  1  0  0  0  0  0999 V2000
    7.6225  -13.0913   26.2834 O   0  0  0  0  0  0  0  0  0  0  0  0
    7.4716  -13.4007   24.9287 C   0  0  0  0  0  0  0  0  0  0  0  0
    7.8549  -12.5157   23.9519 C   0  0  0  0  0  0  0  0  0  0  0  0
    7.7068  -12.8186   22.5992 C   0  0  0  0  0  0  0  0  0  0  0  0
    7.1676  -14.0235   22.1947 C   0  0  0  0  0  0  0  0  0  0  0  0
    6.9968  -14.3664   20.7482 C   0  0  0  0  0  0  0  0  0  0  0  0
    8.3273  -14.8772   20.1788 C   0  0  2  0  0  0  0  0  0  0  0  0
    8.0291  -15.3084   18.8050 N   0  0  0  0  0  0  0  0  0  0  0  0
    8.7207  -16.0599   20.9473 C   0  0  0  0  0  0  0  0  0  0  0  0
    8.0928  -17.1537   20.8281 O   0  0  0  0  0  0  0  0  0  0  0  0
    6.7878  -14.9007   23.1878 C   0  0  0  0  0  0  0  0  0  0  0  0
    6.9315  -14.6073   24.5293 C   0  0  0  0  0  0  0  0  0  0  0  0
    9.8405  -15.9831   21.8547 N   0  0  0  0  0  0  0  0  0  0  0  0
   10.2589  -17.1363   22.6194 C   0  0  1  0  0  0  0  0  0  0  0  0
   11.7583  -17.3664   22.4903 C   0  0  0  0  0  0  0  0  0  0  0  0
   12.0936  -18.1296   21.2605 C   0  0  0  0  0  0  0  0  0  0  0  0
   11.8794  -17.7737   19.9451 C   0  0  0  0  0  0  0  0  0  0  0  0
   12.3297  -18.7472   19.1241 N   0  0  0  0  0  0  0  0  0  0  0  0
   12.8252  -19.7112   19.9276 C   0  0  0  0  0  0  0  0  0  0  0  0
   12.6840  -19.3421   21.2027 N   0  0  0  0  0  0  0  0  0  0  0  0
    9.9208  -17.0207   24.0622 C   0  0  0  0  0  0  0  0  0  0  0  0
   10.2261  -15.9968   24.7359 O   0  0  0  0  0  0  0  0  0  0  0  0
    7.6144  -18.5478   26.5680 C   0  0  0  0  0  0  0  0  0  0  0  0
    8.9479  -17.9243   26.2083 C   0  0  2  0  0  0  0  0  0  0  0  0
    9.2322  -18.0411   24.7966 N   0  0  0  0  0  0  0  0  0  0  0  0
   10.0324  -18.4035   27.0801 C   0  0  0  0  0  0  0  0  0  0  0  0
    9.9777  -18.1914   28.4463 O   0  0  0  0  0  0  0  0  0  0  0  0
   11.0257  -19.0103   26.6178 O   0  0  0  0  0  0  0  0  0  0  0  0
  2  3  2  0
  2  1  1  0
  4  3  1  0
  5  4  2  0
  6  5  1  0
  7  9  1  0
  7  6  1  0
  7  8  1  6
  9 10  2  0
 11  5  1  0
 11 12  2  0
 12  2  1  0
 13 14  1  0
 13  9  1  0
 14 15  1  1
 15 16  1  0
 16 17  2  0
 18 17  1  0
 19 18  1  0
 20 19  2  0
 20 16  1  0
 21 14  1  0
 22 21  2  0
 24 23  1  6
 24 25  1  0
 25 21  1  0
 26 24  1  0
 26 27  1  0
 28 26  2  0
M  END
$$$$
