YHA.pdb
     RDKit          3D

 28 29  0  0  1  0  0  0  0  0999 V2000
    7.7934  -12.2855   16.7424 O   0  0  0  0  0  0  0  0  0  0  0  0
    7.8942  -12.8405   18.0212 C   0  0  0  0  0  0  0  0  0  0  0  0
    6.7908  -12.9695   18.8276 C   0  0  0  0  0  0  0  0  0  0  0  0
    6.8851  -13.5223   20.1040 C   0  0  0  0  0  0  0  0  0  0  0  0
    8.0960  -13.9604   20.6020 C   0  0  0  0  0  0  0  0  0  0  0  0
    8.2192  -14.5534   21.9704 C   0  0  0  0  0  0  0  0  0  0  0  0
    8.8562  -15.9462   21.8734 C   0  0  2  0  0  0  0  0  0  0  0  0
    7.8754  -16.7802   21.1629 N   0  0  0  0  0  0  0  0  0  0  0  0
    8.9954  -16.4726   23.2326 C   0  0  0  0  0  0  0  0  0  0  0  0
    7.9762  -16.7489   23.9325 O   0  0  0  0  0  0  0  0  0  0  0  0
    9.1939  -13.8238   19.7798 C   0  0  0  0  0  0  0  0  0  0  0  0
    9.1078  -13.2773   18.5148 C   0  0  0  0  0  0  0  0  0  0  0  0
   10.3113  -16.6822   23.7871 N   0  0  0  0  0  0  0  0  0  0  0  0
   10.4808  -17.1796   25.1337 C   0  0  1  0  0  0  0  0  0  0  0  0
   11.6330  -18.1715   25.2120 C   0  0  0  0  0  0  0  0  0  0  0  0
   11.3359  -19.4198   24.4632 C   0  0  0  0  0  0  0  0  0  0  0  0
   10.1819  -20.1754   24.4790 C   0  0  0  0  0  0  0  0  0  0  0  0
   10.3146  -21.2382   23.6561 N   0  0  0  0  0  0  0  0  0  0  0  0
   11.5520  -21.1459   23.1263 C   0  0  0  0  0  0  0  0  0  0  0  0
   12.1613  -20.0603   23.6084 N   0  0  0  0  0  0  0  0  0  0  0  0
   10.7237  -16.0939   26.1194 C   0  0  0  0  0  0  0  0  0  0  0  0
   11.7001  -15.3006   26.0064 O   0  0  0  0  0  0  0  0  0  0  0  0
    9.1077  -13.8944   28.5020 C   0  0  0  0  0  0  0  0  0  0  0  0
   10.2216  -14.8985   28.2845 C   0  0  2  0  0  0  0  0  0  0  0  0
    9.8862  -15.8592   27.2588 N   0  0  0  0  0  0  0  0  0  0  0  0
   10.6716  -15.5033   29.5485 C   0  0  0  0  0  0  0  0  0  0  0  0
   11.2125  -14.7145   30.5483 O   0  0  0  0  0  0  0  0  0  0  0  0
   10.5801  -16.7352   29.7551 O   0  0  0  0  0  0  0  0  0  0  0  0
  2  3  2  0
  2  1  1  0
  4  3  1  0
  5  4  2  0
  6  5  1  0
  7  9  1  0
  7  6  1  0
  7  8  1  6
  9 10  2  0
 11  5  1  0
 11 12  2  0
 12  2  1  0
 13 14  1  0
 13  9  1  0
 14 15  1  6
 15 16  1  0
 16 17  2  0
 18 17  1  0
 19 18  1  0
 20 19  2  0
 20 16  1  0
 21 14  1  0
 22 21  2  0
 24 23  1  1
 24 25  1  0
 25 21  1  0
 26 24  1  0
 26 27  1  0
 28 26  2  0
M  END
$$$$
