YHA.pdb
     RDKit          3D

 28 29  0  0  1  0  0  0  0  0999 V2000
    5.4996  -10.7656   27.6223 O   0  0  0  0  0  0  0  0  0  0  0  0
    6.2526  -11.7389   26.9594 C   0  0  0  0  0  0  0  0  0  0  0  0
    6.7881  -11.4982   25.7185 C   0  0  0  0  0  0  0  0  0  0  0  0
    7.5400  -12.4650   25.0525 C   0  0  0  0  0  0  0  0  0  0  0  0
    7.7723  -13.7017   25.6204 C   0  0  0  0  0  0  0  0  0  0  0  0
    8.5736  -14.7542   24.9207 C   0  0  0  0  0  0  0  0  0  0  0  0
    7.7762  -15.3026   23.7297 C   0  0  2  0  0  0  0  0  0  0  0  0
    6.8092  -16.2495   24.3046 N   0  0  0  0  0  0  0  0  0  0  0  0
    8.6987  -16.0595   22.8812 C   0  0  0  0  0  0  0  0  0  0  0  0
    8.8631  -17.3048   23.0454 O   0  0  0  0  0  0  0  0  0  0  0  0
    7.2277  -13.9273   26.8664 C   0  0  0  0  0  0  0  0  0  0  0  0
    6.4821  -12.9745   27.5318 C   0  0  0  0  0  0  0  0  0  0  0  0
    9.4333  -15.3809   21.8405 N   0  0  0  0  0  0  0  0  0  0  0  0
   10.2725  -16.1163   20.9215 C   0  0  1  0  0  0  0  0  0  0  0  0
   10.6455  -15.2642   19.7163 C   0  0  0  0  0  0  0  0  0  0  0  0
    9.4458  -14.8447   18.9469 C   0  0  0  0  0  0  0  0  0  0  0  0
    8.4997  -15.6390   18.3329 C   0  0  0  0  0  0  0  0  0  0  0  0
    7.5655  -14.8670   17.7363 N   0  0  0  0  0  0  0  0  0  0  0  0
    7.9287  -13.5903   17.9781 C   0  0  0  0  0  0  0  0  0  0  0  0
    9.0511  -13.5775   18.7008 N   0  0  0  0  0  0  0  0  0  0  0  0
   11.5224  -16.6100   21.5565 C   0  0  0  0  0  0  0  0  0  0  0  0
   12.2609  -15.8524   22.2464 O   0  0  0  0  0  0  0  0  0  0  0  0
   12.9859  -19.9290   22.5112 C   0  0  0  0  0  0  0  0  0  0  0  0
   13.1253  -18.4568   22.1803 C   0  0  2  0  0  0  0  0  0  0  0  0
   11.9858  -17.9617   21.4428 N   0  0  0  0  0  0  0  0  0  0  0  0
   14.4223  -18.1539   21.5545 C   0  0  0  0  0  0  0  0  0  0  0  0
   15.5969  -18.3034   22.2705 O   0  0  0  0  0  0  0  0  0  0  0  0
   14.5017  -17.7563   20.3695 O   0  0  0  0  0  0  0  0  0  0  0  0
  2  3  2  0
  2  1  1  0
  4  3  1  0
  5  4  2  0
  6  5  1  0
  7  9  1  0
  7  6  1  0
  7  8  1  1
  9 10  2  0
 11  5  1  0
 11 12  2  0
 12  2  1  0
 13 14  1  0
 13  9  1  0
 14 15  1  6
 15 16  1  0
 16 17  2  0
 18 17  1  0
 19 18  1  0
 20 19  2  0
 20 16  1  0
 21 14  1  0
 22 21  2  0
 24 23  1  6
 24 25  1  0
 25 21  1  0
 26 24  1  0
 26 27  1  0
 28 26  2  0
M  END
$$$$
