YHA.pdb
     RDKit          3D

 28 29  0  0  1  0  0  0  0  0999 V2000
    8.5565  -13.5324   18.1468 O   0  0  0  0  0  0  0  0  0  0  0  0
    8.3773  -13.4392   19.5298 C   0  0  0  0  0  0  0  0  0  0  0  0
    7.7008  -12.3831   20.0880 C   0  0  0  0  0  0  0  0  0  0  0  0
    7.5189  -12.2848   21.4667 C   0  0  0  0  0  0  0  0  0  0  0  0
    8.0147  -13.2498   22.3205 C   0  0  0  0  0  0  0  0  0  0  0  0
    7.8334  -13.1611   23.8032 C   0  0  0  0  0  0  0  0  0  0  0  0
    6.5823  -13.9473   24.2176 C   0  0  2  0  0  0  0  0  0  0  0  0
    5.7981  -13.0282   25.0559 N   0  0  0  0  0  0  0  0  0  0  0  0
    7.0126  -15.0673   25.0571 C   0  0  0  0  0  0  0  0  0  0  0  0
    7.1360  -14.9329   26.3107 O   0  0  0  0  0  0  0  0  0  0  0  0
    8.6914  -14.3034   21.7441 C   0  0  0  0  0  0  0  0  0  0  0  0
    8.8752  -14.4072   20.3796 C   0  0  0  0  0  0  0  0  0  0  0  0
    7.3009  -16.3453   24.4516 N   0  0  0  0  0  0  0  0  0  0  0  0
    7.7669  -17.4579   25.2483 C   0  0  1  0  0  0  0  0  0  0  0  0
    7.8956  -18.7201   24.4070 C   0  0  0  0  0  0  0  0  0  0  0  0
    8.3498  -19.8783   25.2191 C   0  0  0  0  0  0  0  0  0  0  0  0
    8.7000  -19.9058   26.5531 C   0  0  0  0  0  0  0  0  0  0  0  0
    9.0572  -21.1583   26.9110 N   0  0  0  0  0  0  0  0  0  0  0  0
    8.9297  -21.9129   25.7999 C   0  0  0  0  0  0  0  0  0  0  0  0
    8.5075  -21.1485   24.7902 N   0  0  0  0  0  0  0  0  0  0  0  0
    9.0756  -17.1881   25.8993 C   0  0  0  0  0  0  0  0  0  0  0  0
   10.1052  -16.9002   25.2266 O   0  0  0  0  0  0  0  0  0  0  0  0
   10.4107  -15.7655   28.9241 C   0  0  0  0  0  0  0  0  0  0  0  0
   10.5419  -16.9049   27.9337 C   0  0  2  0  0  0  0  0  0  0  0  0
    9.2759  -17.2300   27.3181 N   0  0  0  0  0  0  0  0  0  0  0  0
   11.2405  -18.0620   28.5156 C   0  0  0  0  0  0  0  0  0  0  0  0
   12.5555  -18.3284   28.1773 O   0  0  0  0  0  0  0  0  0  0  0  0
   10.6732  -18.8317   29.3246 O   0  0  0  0  0  0  0  0  0  0  0  0
  2  3  2  0
  2  1  1  0
  4  3  1  0
  5  4  2  0
  6  5  1  0
  7  9  1  0
  7  6  1  0
  7  8  1  1
  9 10  2  0
 11  5  1  0
 11 12  2  0
 12  2  1  0
 13 14  1  0
 13  9  1  0
 14 15  1  6
 15 16  1  0
 16 17  2  0
 18 17  1  0
 19 18  1  0
 20 19  2  0
 20 16  1  0
 21 14  1  0
 22 21  2  0
 24 23  1  1
 24 25  1  0
 25 21  1  0
 26 24  1  0
 26 27  1  0
 28 26  2  0
M  END
$$$$
