RTQ.pdb
     RDKit          3D

 28 27  0  0  1  0  0  0  0  0999 V2000
   25.8533  -20.2893   -8.1043 N   0  0  0  0  0  0  0  0  0  0  0  0
   24.8606  -21.1356   -8.6898 C   0  0  0  0  0  0  0  0  0  0  0  0
   23.7911  -21.3380   -7.9727 N   0  0  0  0  0  0  0  0  0  0  0  0
   25.0103  -21.7251   -9.9642 N   0  0  0  0  0  0  0  0  0  0  0  0
   25.2646  -20.8698  -11.0992 C   0  0  0  0  0  0  0  0  0  0  0  0
   24.0243  -20.2628  -11.6585 C   0  0  0  0  0  0  0  0  0  0  0  0
   24.3420  -19.4739  -12.8842 C   0  0  0  0  0  0  0  0  0  0  0  0
   24.2728  -20.2851  -14.1550 C   0  0  2  0  0  0  0  0  0  0  0  0
   25.2109  -21.3769  -14.0181 N   0  0  0  0  0  0  0  0  0  0  0  0
   24.6808  -19.3497  -15.2469 C   0  0  0  0  0  0  0  0  0  0  0  0
   23.9872  -18.3130  -15.3977 O   0  0  0  0  0  0  0  0  0  0  0  0
   23.0257  -21.9501   -8.3223 C   0  0  0  0  0  0  0  0  0  0  0  0
   28.2559  -18.0791  -15.8324 C   0  0  2  0  0  0  0  0  0  0  0  0
   27.6982  -18.5335  -17.1594 O   0  0  0  0  0  0  0  0  0  0  0  0
   28.2986  -19.7371  -17.5043 C   0  0  2  0  0  0  0  0  0  0  0  0
   26.1929  -18.6391  -17.1433 N   0  0  0  0  0  0  0  0  0  0  0  0
   25.7961  -19.5912  -16.0936 C   0  0  0  0  0  0  0  0  0  0  0  0
   25.6019  -19.0104  -18.4403 O   0  0  0  0  0  0  0  0  0  0  0  0
   25.4897  -20.2309  -18.7863 N   0  0  0  0  0  0  0  0  0  0  0  0
   20.5016  -19.4774  -18.4726 C   0  0  0  0  0  0  0  0  0  0  0  0
   20.4636  -19.4805  -19.8902 O   0  0  0  0  0  0  0  0  0  0  0  0
   19.4062  -19.8438  -20.4655 C   0  0  0  0  0  0  0  0  0  0  0  0
   21.6827  -19.0516  -20.6147 C   0  0  0  0  0  0  0  0  0  0  0  0
   22.8035  -18.7706  -19.6376 C   0  0  1  0  0  0  0  0  0  0  0  0
   24.0755  -18.3657  -20.3508 N   0  0  0  0  0  0  0  0  0  0  0  0
   25.1221  -18.0706  -19.3840 C   0  0  0  0  0  0  0  0  0  0  0  0
   23.7339  -17.1166  -21.1216 O   0  0  0  0  0  0  0  0  0  0  0  0
   23.0927  -17.1599  -22.3274 O   0  0  0  0  0  0  0  0  0  0  0  0
  2  4  1  0
  2  1  1  0
  3  2  2  0
  5  4  1  0
  6  5  1  0
  7  8  1  0
  7  6  1  0
  8  9  1  1
  8 10  1  0
 10 11  2  0
 13 12  1  6
 13 15  1  0
 14 13  1  0
 16 10  1  0
 15 16  1  6
 17 15  1  0
 17 18  2  0
 19 20  1  0
 20 22  1  0
 20 21  2  0
 22 23  1  0
 24 23  1  6
 24 26  1  0
 24 25  1  0
 25 17  1  0
 26 27  1  0
 28 26  2  0
M  END
$$$$
