RTQ.pdb
     RDKit          3D

 28 27  0  0  1  0  0  0  0  0999 V2000
   17.7638  -26.8524   -6.6613 N   0  0  0  0  0  0  0  0  0  0  0  0
   17.5759  -25.6272   -5.9485 C   0  0  0  0  0  0  0  0  0  0  0  0
   16.6656  -25.6458   -5.0158 N   0  0  0  0  0  0  0  0  0  0  0  0
   18.3198  -24.4587   -6.2228 N   0  0  0  0  0  0  0  0  0  0  0  0
   18.8367  -24.2618   -7.5563 C   0  0  0  0  0  0  0  0  0  0  0  0
   18.0882  -25.0317   -8.5891 C   0  0  0  0  0  0  0  0  0  0  0  0
   18.5913  -24.6931   -9.9521 C   0  0  0  0  0  0  0  0  0  0  0  0
   18.6945  -23.2083  -10.2022 C   0  0  2  0  0  0  0  0  0  0  0  0
   17.3519  -22.7152  -10.4153 N   0  0  0  0  0  0  0  0  0  0  0  0
   19.5281  -23.0694  -11.4349 C   0  0  0  0  0  0  0  0  0  0  0  0
   20.6502  -23.6347  -11.4305 O   0  0  0  0  0  0  0  0  0  0  0  0
   16.5008  -24.8100   -4.4183 C   0  0  0  0  0  0  0  0  0  0  0  0
   18.9607  -24.2857  -14.8462 C   0  0  2  0  0  0  0  0  0  0  0  0
   19.1666  -22.7944  -14.9562 O   0  0  0  0  0  0  0  0  0  0  0  0
   17.9276  -22.1850  -15.1027 C   0  0  2  0  0  0  0  0  0  0  0  0
   19.9354  -22.2334  -13.7850 N   0  0  0  0  0  0  0  0  0  0  0  0
   19.1017  -22.3391  -12.5769 C   0  0  0  0  0  0  0  0  0  0  0  0
   20.4051  -20.8512  -13.9801 O   0  0  0  0  0  0  0  0  0  0  0  0
   19.7398  -19.8615  -13.5329 N   0  0  0  0  0  0  0  0  0  0  0  0
   25.7603  -19.0176  -16.8096 C   0  0  0  0  0  0  0  0  0  0  0  0
   25.2239  -17.7554  -16.4487 O   0  0  0  0  0  0  0  0  0  0  0  0
   25.8468  -16.7160  -16.7844 C   0  0  0  0  0  0  0  0  0  0  0  0
   23.9507  -17.7370  -15.6914 C   0  0  0  0  0  0  0  0  0  0  0  0
   23.4039  -19.1406  -15.5479 C   0  0  2  0  0  0  0  0  0  0  0  0
   22.0787  -19.1499  -14.8171 N   0  0  0  0  0  0  0  0  0  0  0  0
   21.6002  -20.5151  -14.6604 C   0  0  0  0  0  0  0  0  0  0  0  0
   21.1233  -18.3776  -15.6900 O   0  0  0  0  0  0  0  0  0  0  0  0
   20.8728  -17.0487  -15.4938 O   0  0  0  0  0  0  0  0  0  0  0  0
  2  4  1  0
  2  1  1  0
  3  2  2  0
  5  4  1  0
  6  5  1  0
  7  8  1  0
  7  6  1  0
  8  9  1  6
  8 10  1  0
 10 11  2  0
 13 12  1  6
 13 15  1  0
 14 13  1  0
 16 10  1  0
 15 16  1  6
 17 15  1  0
 17 18  2  0
 19 20  1  0
 20 22  1  0
 20 21  2  0
 22 23  1  0
 24 23  1  1
 24 26  1  0
 24 25  1  0
 25 17  1  0
 26 27  1  0
 28 26  2  0
M  END
$$$$
