RTQ.pdb
     RDKit          3D

 28 27  0  0  1  0  0  0  0  0999 V2000
   30.6071  -31.4787  -17.1653 N   0  0  0  0  0  0  0  0  0  0  0  0
   29.2370  -31.1134  -17.3494 C   0  0  0  0  0  0  0  0  0  0  0  0
   28.3696  -32.0783  -17.2248 N   0  0  0  0  0  0  0  0  0  0  0  0
   28.8285  -29.7952  -17.6481 N   0  0  0  0  0  0  0  0  0  0  0  0
   29.8352  -28.7681  -17.7744 C   0  0  0  0  0  0  0  0  0  0  0  0
   29.2873  -27.4760  -18.2743 C   0  0  0  0  0  0  0  0  0  0  0  0
   28.4006  -26.8579  -17.2460 C   0  0  0  0  0  0  0  0  0  0  0  0
   27.7779  -25.5579  -17.6934 C   0  0  2  0  0  0  0  0  0  0  0  0
   28.8139  -24.5500  -17.6523 N   0  0  0  0  0  0  0  0  0  0  0  0
   26.6988  -25.2710  -16.7000 C   0  0  0  0  0  0  0  0  0  0  0  0
   27.0598  -24.8505  -15.5723 O   0  0  0  0  0  0  0  0  0  0  0  0
   27.3537  -31.8996  -17.3620 C   0  0  0  0  0  0  0  0  0  0  0  0
   24.2810  -22.6936  -16.6745 C   0  0  2  0  0  0  0  0  0  0  0  0
   23.4644  -23.9567  -16.5468 O   0  0  0  0  0  0  0  0  0  0  0  0
   22.9039  -24.2495  -17.7828 C   0  0  2  0  0  0  0  0  0  0  0  0
   24.2735  -25.1108  -16.0073 N   0  0  0  0  0  0  0  0  0  0  0  0
   25.3188  -25.4541  -16.9847 C   0  0  0  0  0  0  0  0  0  0  0  0
   23.4719  -26.2958  -15.6571 O   0  0  0  0  0  0  0  0  0  0  0  0
   23.3253  -27.2568  -16.4798 N   0  0  0  0  0  0  0  0  0  0  0  0
   20.3805  -27.3259  -10.2351 C   0  0  0  0  0  0  0  0  0  0  0  0
   19.8650  -28.3891  -11.0193 O   0  0  0  0  0  0  0  0  0  0  0  0
   19.0142  -29.1602  -10.5069 C   0  0  0  0  0  0  0  0  0  0  0  0
   20.3643  -28.5287  -12.4071 C   0  0  0  0  0  0  0  0  0  0  0  0
   21.3282  -27.4090  -12.7343 C   0  0  2  0  0  0  0  0  0  0  0  0
   21.8806  -27.5419  -14.1371 N   0  0  0  0  0  0  0  0  0  0  0  0
   22.8163  -26.4624  -14.4135 C   0  0  0  0  0  0  0  0  0  0  0  0
   20.6931  -27.4284  -15.0580 O   0  0  0  0  0  0  0  0  0  0  0  0
   20.0737  -26.2348  -15.3006 O   0  0  0  0  0  0  0  0  0  0  0  0
  2  4  1  0
  2  1  1  0
  3  2  2  0
  5  4  1  0
  6  5  1  0
  7  8  1  0
  7  6  1  0
  8  9  1  1
  8 10  1  0
 10 11  2  0
 13 12  1  1
 13 15  1  0
 14 13  1  0
 16 10  1  0
 15 16  1  1
 17 15  1  0
 17 18  2  0
 19 20  1  0
 20 22  1  0
 20 21  2  0
 22 23  1  0
 24 23  1  1
 24 26  1  0
 24 25  1  0
 25 17  1  0
 26 27  1  0
 28 26  2  0
M  END
$$$$
