RTQ.pdb
     RDKit          3D

 28 27  0  0  1  0  0  0  0  0999 V2000
   23.9310  -18.3474  -16.7589 N   0  0  0  0  0  0  0  0  0  0  0  0
   23.3144  -18.7876  -17.9715 C   0  0  0  0  0  0  0  0  0  0  0  0
   22.8160  -19.9918  -17.9516 N   0  0  0  0  0  0  0  0  0  0  0  0
   23.2397  -17.9830  -19.1296 N   0  0  0  0  0  0  0  0  0  0  0  0
   23.9084  -16.7035  -19.1304 C   0  0  0  0  0  0  0  0  0  0  0  0
   23.1915  -15.6729  -18.3282 C   0  0  0  0  0  0  0  0  0  0  0  0
   23.8234  -14.3354  -18.5215 C   0  0  0  0  0  0  0  0  0  0  0  0
   25.2991  -14.3173  -18.2054 C   0  0  2  0  0  0  0  0  0  0  0  0
   25.6477  -15.6308  -17.7111 N   0  0  0  0  0  0  0  0  0  0  0  0
   25.4667  -13.2749  -17.1475 C   0  0  0  0  0  0  0  0  0  0  0  0
   25.9731  -13.6446  -16.0587 O   0  0  0  0  0  0  0  0  0  0  0  0
   22.3603  -20.3917  -18.7973 C   0  0  0  0  0  0  0  0  0  0  0  0
   27.3429  -12.3320  -15.6339 C   0  0  2  0  0  0  0  0  0  0  0  0
   26.9156  -10.9535  -16.0759 O   0  0  0  0  0  0  0  0  0  0  0  0
   27.6735  -10.5867  -17.1800 C   0  0  2  0  0  0  0  0  0  0  0  0
   25.4351  -10.8744  -16.3574 N   0  0  0  0  0  0  0  0  0  0  0  0
   25.0818  -11.9195  -17.3315 C   0  0  0  0  0  0  0  0  0  0  0  0
   24.9799   -9.5515  -16.8177 O   0  0  0  0  0  0  0  0  0  0  0  0
   24.9667   -9.2551  -18.0562 N   0  0  0  0  0  0  0  0  0  0  0  0
   22.1749   -5.0854  -13.3431 C   0  0  0  0  0  0  0  0  0  0  0  0
   22.0668   -4.5107  -14.6350 O   0  0  0  0  0  0  0  0  0  0  0  0
   21.4014   -3.4526  -14.7718 C   0  0  0  0  0  0  0  0  0  0  0  0
   22.7505   -5.1974  -15.7558 C   0  0  0  0  0  0  0  0  0  0  0  0
   23.3451   -6.5071  -15.2857 C   0  0  2  0  0  0  0  0  0  0  0  0
   24.0440   -7.2374  -16.4121 N   0  0  0  0  0  0  0  0  0  0  0  0
   24.5315   -8.5278  -15.9489 C   0  0  0  0  0  0  0  0  0  0  0  0
   25.2113   -6.3679  -16.8028 O   0  0  0  0  0  0  0  0  0  0  0  0
   25.1393   -5.4771  -17.8365 O   0  0  0  0  0  0  0  0  0  0  0  0
  2  4  1  0
  2  1  1  0
  3  2  2  0
  5  4  1  0
  6  5  1  0
  7  8  1  0
  7  6  1  0
  8  9  1  1
  8 10  1  0
 10 11  2  0
 13 12  1  1
 13 15  1  0
 14 13  1  0
 16 10  1  0
 15 16  1  1
 17 15  1  0
 17 18  2  0
 19 20  1  0
 20 22  1  0
 20 21  2  0
 22 23  1  0
 24 23  1  6
 24 26  1  0
 24 25  1  0
 25 17  1  0
 26 27  1  0
 28 26  2  0
M  END
$$$$
