RTQ.pdb
     RDKit          3D

 28 27  0  0  1  0  0  0  0  0999 V2000
   19.9193  -23.2460   -8.0299 N   0  0  0  0  0  0  0  0  0  0  0  0
   19.4009  -22.5732   -9.1802 C   0  0  0  0  0  0  0  0  0  0  0  0
   18.1060  -22.6096   -9.3248 N   0  0  0  0  0  0  0  0  0  0  0  0
   20.2236  -21.9052  -10.1133 N   0  0  0  0  0  0  0  0  0  0  0  0
   21.6551  -22.0653  -10.0165 C   0  0  0  0  0  0  0  0  0  0  0  0
   22.3099  -20.9779   -9.2365 C   0  0  0  0  0  0  0  0  0  0  0  0
   23.3905  -20.3409  -10.0440 C   0  0  0  0  0  0  0  0  0  0  0  0
   24.6633  -21.1507  -10.0888 C   0  0  2  0  0  0  0  0  0  0  0  0
   25.1944  -21.1890   -8.7444 N   0  0  0  0  0  0  0  0  0  0  0  0
   25.5740  -20.4098  -11.0136 C   0  0  0  0  0  0  0  0  0  0  0  0
   26.1961  -19.4284  -10.5353 O   0  0  0  0  0  0  0  0  0  0  0  0
   17.6493  -22.1446  -10.1359 C   0  0  0  0  0  0  0  0  0  0  0  0
   28.3288  -21.6644  -13.4660 C   0  0  2  0  0  0  0  0  0  0  0  0
   27.3233  -20.8283  -14.2199 O   0  0  0  0  0  0  0  0  0  0  0  0
   26.5087  -21.6745  -14.9603 C   0  0  2  0  0  0  0  0  0  0  0  0
   26.5227  -19.9321  -13.3069 N   0  0  0  0  0  0  0  0  0  0  0  0
   25.7516  -20.7716  -12.3762 C   0  0  0  0  0  0  0  0  0  0  0  0
   25.6427  -18.9855  -14.0132 O   0  0  0  0  0  0  0  0  0  0  0  0
   24.4280  -19.2770  -14.2611 N   0  0  0  0  0  0  0  0  0  0  0  0
   27.1576  -13.2069  -16.0973 C   0  0  0  0  0  0  0  0  0  0  0  0
   25.8308  -13.3076  -16.5877 O   0  0  0  0  0  0  0  0  0  0  0  0
   25.3406  -12.3305  -17.2091 C   0  0  0  0  0  0  0  0  0  0  0  0
   25.0954  -14.5689  -16.3363 C   0  0  0  0  0  0  0  0  0  0  0  0
   25.9389  -15.5132  -15.5077 C   0  0  1  0  0  0  0  0  0  0  0  0
   25.2004  -16.7989  -15.2043 N   0  0  0  0  0  0  0  0  0  0  0  0
   26.0595  -17.7095  -14.4626 C   0  0  0  0  0  0  0  0  0  0  0  0
   24.8614  -17.4029  -16.5427 O   0  0  0  0  0  0  0  0  0  0  0  0
   23.6363  -17.2373  -17.1248 O   0  0  0  0  0  0  0  0  0  0  0  0
  2  4  1  0
  2  1  1  0
  3  2  2  0
  5  4  1  0
  6  5  1  0
  7  8  1  0
  7  6  1  0
  8  9  1  1
  8 10  1  0
 10 11  2  0
 13 12  1  6
 13 15  1  0
 14 13  1  0
 16 10  1  0
 15 16  1  6
 17 15  1  0
 17 18  2  0
 19 20  1  0
 20 22  1  0
 20 21  2  0
 22 23  1  0
 24 23  1  1
 24 26  1  0
 24 25  1  0
 25 17  1  0
 26 27  1  0
 28 26  2  0
M  END
$$$$
