RTQ.pdb
     RDKit          3D

 28 27  0  0  1  0  0  0  0  0999 V2000
   19.3319  -22.8422   -9.8001 N   0  0  0  0  0  0  0  0  0  0  0  0
   19.6370  -23.3668   -8.5054 C   0  0  0  0  0  0  0  0  0  0  0  0
   18.7238  -24.1275   -7.9704 N   0  0  0  0  0  0  0  0  0  0  0  0
   20.8465  -23.0898   -7.8314 N   0  0  0  0  0  0  0  0  0  0  0  0
   21.8513  -22.3010   -8.5041 C   0  0  0  0  0  0  0  0  0  0  0  0
   21.6480  -20.8348   -8.3353 C   0  0  0  0  0  0  0  0  0  0  0  0
   22.6712  -20.0779   -9.1136 C   0  0  0  0  0  0  0  0  0  0  0  0
   23.9099  -20.8839   -9.4198 C   0  0  2  0  0  0  0  0  0  0  0  0
   24.8586  -20.6317   -8.3580 N   0  0  0  0  0  0  0  0  0  0  0  0
   24.4081  -20.3657  -10.7301 C   0  0  0  0  0  0  0  0  0  0  0  0
   24.7678  -19.1623  -10.7671 O   0  0  0  0  0  0  0  0  0  0  0  0
   18.8390  -24.4956   -7.0039 C   0  0  0  0  0  0  0  0  0  0  0  0
   25.9195  -22.9328  -13.7076 C   0  0  2  0  0  0  0  0  0  0  0  0
   26.2466  -21.4692  -13.5359 O   0  0  0  0  0  0  0  0  0  0  0  0
   26.8438  -21.0083  -14.7016 C   0  0  1  0  0  0  0  0  0  0  0  0
   25.0352  -20.6506  -13.1618 N   0  0  0  0  0  0  0  0  0  0  0  0
   24.4846  -21.1693  -11.8995 C   0  0  0  0  0  0  0  0  0  0  0  0
   23.9978  -20.5995  -14.2060 O   0  0  0  0  0  0  0  0  0  0  0  0
   23.0485  -21.4481  -14.2317 N   0  0  0  0  0  0  0  0  0  0  0  0
   20.0309  -16.1774  -16.9001 C   0  0  0  0  0  0  0  0  0  0  0  0
   20.2506  -16.9571  -15.7361 O   0  0  0  0  0  0  0  0  0  0  0  0
   19.9567  -16.4667  -14.6162 C   0  0  0  0  0  0  0  0  0  0  0  0
   20.8181  -18.3144  -15.9110 C   0  0  0  0  0  0  0  0  0  0  0  0
   22.2800  -18.2280  -16.2924 C   0  0  2  0  0  0  0  0  0  0  0  0
   22.9426  -19.5885  -16.2700 N   0  0  0  0  0  0  0  0  0  0  0  0
   23.9681  -19.6315  -15.2386 C   0  0  0  0  0  0  0  0  0  0  0  0
   23.5819  -19.7558  -17.6244 O   0  0  0  0  0  0  0  0  0  0  0  0
   24.9354  -19.8596  -17.7807 O   0  0  0  0  0  0  0  0  0  0  0  0
  2  4  1  0
  2  1  1  0
  3  2  2  0
  5  4  1  0
  6  5  1  0
  7  8  1  0
  7  6  1  0
  8  9  1  1
  8 10  1  0
 10 11  2  0
 13 12  1  1
 13 15  1  0
 14 13  1  0
 16 10  1  0
 15 16  1  1
 17 15  1  0
 17 18  2  0
 19 20  1  0
 20 22  1  0
 20 21  2  0
 22 23  1  0
 24 23  1  1
 24 26  1  0
 24 25  1  0
 25 17  1  0
 26 27  1  0
 28 26  2  0
M  END
$$$$
