EHI.pdb
     RDKit          3D

 28 28  0  0  1  0  0  0  0  0999 V2000
   10.3818  -16.8410   18.2675 N   0  0  0  0  0  0  0  0  0  0  0  0
   10.8556  -16.7032   19.6223 C   0  0  1  0  0  0  0  0  0  0  0  0
   11.9169  -15.6407   19.6527 C   0  0  0  0  0  0  0  0  0  0  0  0
   13.2176  -16.0562   19.0229 C   0  0  0  0  0  0  0  0  0  0  0  0
   14.2167  -14.9570   19.2683 C   0  0  0  0  0  0  0  0  0  0  0  0
   13.9801  -13.9509   19.9660 O   0  0  0  0  0  0  0  0  0  0  0  0
    9.7110  -16.3536   20.5143 C   0  0  0  0  0  0  0  0  0  0  0  0
    8.7430  -15.6439   20.1663 O   0  0  0  0  0  0  0  0  0  0  0  0
   15.4927  -15.0154   18.7046 O   0  0  0  0  0  0  0  0  0  0  0  0
    9.7487  -16.8807   21.8640 N   0  0  0  0  0  0  0  0  0  0  0  0
    8.6291  -16.6546   22.7429 C   0  0  1  0  0  0  0  0  0  0  0  0
    7.9053  -17.8903   23.1125 C   0  0  0  0  0  0  0  0  0  0  0  0
    7.1254  -18.5184   22.0297 C   0  0  0  0  0  0  0  0  0  0  0  0
    6.9165  -18.0862   20.7571 C   0  0  0  0  0  0  0  0  0  0  0  0
    6.1620  -19.0023   20.0795 N   0  0  0  0  0  0  0  0  0  0  0  0
    5.9069  -20.0058   20.9455 C   0  0  0  0  0  0  0  0  0  0  0  0
    6.4804  -19.7234   22.1142 N   0  0  0  0  0  0  0  0  0  0  0  0
    9.1201  -15.8509   23.9167 C   0  0  0  0  0  0  0  0  0  0  0  0
   10.3651  -15.8745   24.2336 O   0  0  0  0  0  0  0  0  0  0  0  0
    5.6867  -12.1396   27.0047 C   0  0  0  0  0  0  0  0  0  0  0  0
    6.4029  -13.2928   26.4120 C   0  0  0  0  0  0  0  0  0  0  0  0
    7.8654  -13.0777   26.1209 C   0  0  2  0  0  0  0  0  0  0  0  0
    8.0024  -12.1405   24.9232 C   0  0  0  0  0  0  0  0  0  0  0  0
    8.6346  -14.3118   25.8659 C   0  0  2  0  0  0  0  0  0  0  0  0
    8.2507  -15.0526   24.7025 N   0  0  0  0  0  0  0  0  0  0  0  0
    8.6957  -15.1579   27.0916 C   0  0  0  0  0  0  0  0  0  0  0  0
    9.1965  -14.6652   28.1596 O   0  0  0  0  0  0  0  0  0  0  0  0
    8.2436  -16.4550   27.1653 O   0  0  0  0  0  0  0  0  0  0  0  0
  2  1  1  6
  2  3  1  0
  2  7  1  0
  3  4  1  0
  4  5  1  0
  5  6  2  0
  5  9  1  0
  7  8  2  0
 10  7  1  0
 10 11  1  0
 11 12  1  1
 12 13  1  0
 13 17  1  0
 13 14  2  0
 14 15  1  0
 16 15  1  0
 17 16  2  0
 18 25  1  0
 18 11  1  0
 19 18  2  0
 21 22  1  0
 21 20  1  0
 22 23  1  6
 24 26  1  0
 24 22  1  0
 24 25  1  6
 26 28  1  0
 27 26  2  0
M  END
$$$$
