EHI.pdb
     RDKit          3D

 28 28  0  0  1  0  0  0  0  0999 V2000
   11.3547  -16.1204   17.9422 N   0  0  0  0  0  0  0  0  0  0  0  0
   11.5900  -16.0416   19.3626 C   0  0  1  0  0  0  0  0  0  0  0  0
   12.6781  -15.0367   19.6126 C   0  0  0  0  0  0  0  0  0  0  0  0
   13.9636  -15.3336   18.8911 C   0  0  0  0  0  0  0  0  0  0  0  0
   14.9672  -14.2865   19.2944 C   0  0  0  0  0  0  0  0  0  0  0  0
   15.0688  -13.1754   18.7372 O   0  0  0  0  0  0  0  0  0  0  0  0
   10.3246  -15.6556   20.0537 C   0  0  0  0  0  0  0  0  0  0  0  0
    9.4233  -14.9654   19.5311 O   0  0  0  0  0  0  0  0  0  0  0  0
   15.8601  -14.5216   20.3417 O   0  0  0  0  0  0  0  0  0  0  0  0
   10.1550  -16.1210   21.4159 N   0  0  0  0  0  0  0  0  0  0  0  0
    8.9158  -15.8589   22.1035 C   0  0  1  0  0  0  0  0  0  0  0  0
    7.9155  -16.9384   21.9568 C   0  0  0  0  0  0  0  0  0  0  0  0
    8.3715  -18.2852   22.3482 C   0  0  0  0  0  0  0  0  0  0  0  0
    9.5498  -18.6652   22.9115 C   0  0  0  0  0  0  0  0  0  0  0  0
    9.5340  -20.0118   23.1439 N   0  0  0  0  0  0  0  0  0  0  0  0
    8.3339  -20.4609   22.7195 C   0  0  0  0  0  0  0  0  0  0  0  0
    7.6329  -19.4336   22.2424 N   0  0  0  0  0  0  0  0  0  0  0  0
    9.2454  -15.5109   23.5301 C   0  0  0  0  0  0  0  0  0  0  0  0
   10.4118  -15.7737   24.0007 O   0  0  0  0  0  0  0  0  0  0  0  0
    6.1276  -11.6127   25.8731 C   0  0  0  0  0  0  0  0  0  0  0  0
    7.3790  -12.3531   25.5903 C   0  0  0  0  0  0  0  0  0  0  0  0
    7.5812  -13.6235   26.3747 C   0  0  2  0  0  0  0  0  0  0  0  0
    8.0471  -13.2694   27.7851 C   0  0  0  0  0  0  0  0  0  0  0  0
    8.5316  -14.5792   25.7720 C   0  0  2  0  0  0  0  0  0  0  0  0
    8.3058  -14.8924   24.3935 N   0  0  0  0  0  0  0  0  0  0  0  0
    8.6670  -15.7956   26.6230 C   0  0  0  0  0  0  0  0  0  0  0  0
    9.4492  -15.7603   27.6335 O   0  0  0  0  0  0  0  0  0  0  0  0
    8.0001  -16.9783   26.4020 O   0  0  0  0  0  0  0  0  0  0  0  0
  2  1  1  6
  2  3  1  0
  2  7  1  0
  3  4  1  0
  4  5  1  0
  5  6  2  0
  5  9  1  0
  7  8  2  0
 10  7  1  0
 10 11  1  0
 11 12  1  1
 12 13  1  0
 13 17  1  0
 13 14  2  0
 14 15  1  0
 16 15  1  0
 17 16  2  0
 18 25  1  0
 18 11  1  0
 19 18  2  0
 21 22  1  0
 21 20  1  0
 22 23  1  1
 24 26  1  0
 24 22  1  0
 24 25  1  6
 26 28  1  0
 27 26  2  0
M  END
$$$$
