EHI.pdb
     RDKit          3D

 28 28  0  0  1  0  0  0  0  0999 V2000
    8.3661  -18.0064   18.6782 N   0  0  0  0  0  0  0  0  0  0  0  0
    8.7581  -16.8231   19.4029 C   0  0  1  0  0  0  0  0  0  0  0  0
    8.3270  -15.6167   18.6188 C   0  0  0  0  0  0  0  0  0  0  0  0
    8.9751  -15.5014   17.2668 C   0  0  0  0  0  0  0  0  0  0  0  0
    8.4751  -14.2342   16.6261 C   0  0  0  0  0  0  0  0  0  0  0  0
    7.7434  -13.4079   17.2069 O   0  0  0  0  0  0  0  0  0  0  0  0
    8.1327  -16.8423   20.7581 C   0  0  0  0  0  0  0  0  0  0  0  0
    6.9049  -16.7344   20.9647 O   0  0  0  0  0  0  0  0  0  0  0  0
    8.8164  -13.9190   15.3095 O   0  0  0  0  0  0  0  0  0  0  0  0
    9.0265  -16.9948   21.8889 N   0  0  0  0  0  0  0  0  0  0  0  0
    8.4739  -17.1600   23.2097 C   0  0  1  0  0  0  0  0  0  0  0  0
    8.7117  -18.4997   23.7895 C   0  0  0  0  0  0  0  0  0  0  0  0
    7.9777  -19.6082   23.1513 C   0  0  0  0  0  0  0  0  0  0  0  0
    7.0745  -19.5701   22.1350 C   0  0  0  0  0  0  0  0  0  0  0  0
    6.6712  -20.8402   21.8318 N   0  0  0  0  0  0  0  0  0  0  0  0
    7.3345  -21.6643   22.6702 C   0  0  0  0  0  0  0  0  0  0  0  0
    8.1182  -20.9344   23.4623 N   0  0  0  0  0  0  0  0  0  0  0  0
    8.9671  -16.0213   24.0610 C   0  0  0  0  0  0  0  0  0  0  0  0
   10.1659  -15.5829   23.9129 O   0  0  0  0  0  0  0  0  0  0  0  0
    5.6438  -11.8961   25.4681 C   0  0  0  0  0  0  0  0  0  0  0  0
    6.7970  -12.7598   25.1240 C   0  0  0  0  0  0  0  0  0  0  0  0
    7.5292  -13.3718   26.2900 C   0  0  2  0  0  0  0  0  0  0  0  0
    8.1591  -12.2578   27.1229 C   0  0  0  0  0  0  0  0  0  0  0  0
    8.5684  -14.3541   25.9226 C   0  0  2  0  0  0  0  0  0  0  0  0
    8.1492  -15.3987   25.0378 N   0  0  0  0  0  0  0  0  0  0  0  0
    9.2571  -14.8728   27.1386 C   0  0  0  0  0  0  0  0  0  0  0  0
    9.0252  -16.0715   27.5175 O   0  0  0  0  0  0  0  0  0  0  0  0
   10.1434  -14.1472   27.9003 O   0  0  0  0  0  0  0  0  0  0  0  0
  2  1  1  6
  2  3  1  0
  2  7  1  0
  3  4  1  0
  4  5  1  0
  5  6  2  0
  5  9  1  0
  7  8  2  0
 10  7  1  0
 10 11  1  0
 11 12  1  1
 12 13  1  0
 13 17  1  0
 13 14  2  0
 14 15  1  0
 16 15  1  0
 17 16  2  0
 18 25  1  0
 18 11  1  0
 19 18  2  0
 21 22  1  0
 21 20  1  0
 22 23  1  6
 24 26  1  0
 24 22  1  0
 24 25  1  1
 26 28  1  0
 27 26  2  0
M  END
$$$$
