EHI.pdb
     RDKit          3D

 28 28  0  0  1  0  0  0  0  0999 V2000
    6.5921  -20.2262   23.5576 N   0  0  0  0  0  0  0  0  0  0  0  0
    6.8337  -18.9875   24.2550 C   0  0  1  0  0  0  0  0  0  0  0  0
    7.6668  -19.2772   25.4709 C   0  0  0  0  0  0  0  0  0  0  0  0
    6.8645  -19.5214   26.7190 C   0  0  0  0  0  0  0  0  0  0  0  0
    7.8323  -19.6880   27.8600 C   0  0  0  0  0  0  0  0  0  0  0  0
    9.0716  -19.6439   27.7274 O   0  0  0  0  0  0  0  0  0  0  0  0
    7.5222  -18.0300   23.3401 C   0  0  0  0  0  0  0  0  0  0  0  0
    8.6455  -18.2319   22.8312 O   0  0  0  0  0  0  0  0  0  0  0  0
    7.3708  -19.9100   29.1588 O   0  0  0  0  0  0  0  0  0  0  0  0
    6.8245  -16.7955   23.0400 N   0  0  0  0  0  0  0  0  0  0  0  0
    7.5037  -15.7612   22.3009 C   0  0  1  0  0  0  0  0  0  0  0  0
    6.6695  -15.1355   21.2521 C   0  0  0  0  0  0  0  0  0  0  0  0
    7.3672  -14.1819   20.3694 C   0  0  0  0  0  0  0  0  0  0  0  0
    7.4393  -12.8262   20.4529 C   0  0  0  0  0  0  0  0  0  0  0  0
    8.2274  -12.3459   19.4450 N   0  0  0  0  0  0  0  0  0  0  0  0
    8.6425  -13.4180   18.7377 C   0  0  0  0  0  0  0  0  0  0  0  0
    8.1321  -14.5199   19.2850 N   0  0  0  0  0  0  0  0  0  0  0  0
    8.0809  -14.7889   23.2939 C   0  0  0  0  0  0  0  0  0  0  0  0
    8.2671  -13.5630   22.9565 O   0  0  0  0  0  0  0  0  0  0  0  0
    5.7965  -12.4566   27.0240 C   0  0  0  0  0  0  0  0  0  0  0  0
    6.6327  -13.5600   26.4972 C   0  0  0  0  0  0  0  0  0  0  0  0
    7.9786  -13.1600   25.9509 C   0  0  2  0  0  0  0  0  0  0  0  0
    7.7756  -12.3156   24.6950 C   0  0  0  0  0  0  0  0  0  0  0  0
    8.8815  -14.2865   25.6413 C   0  0  2  0  0  0  0  0  0  0  0  0
    8.4341  -15.1750   24.6119 N   0  0  0  0  0  0  0  0  0  0  0  0
    9.2768  -15.0031   26.8872 C   0  0  0  0  0  0  0  0  0  0  0  0
    9.0177  -16.2505   26.9925 O   0  0  0  0  0  0  0  0  0  0  0  0
    9.9141  -14.4146   27.9548 O   0  0  0  0  0  0  0  0  0  0  0  0
  2  1  1  6
  2  3  1  0
  2  7  1  0
  3  4  1  0
  4  5  1  0
  5  6  2  0
  5  9  1  0
  7  8  2  0
 10  7  1  0
 10 11  1  0
 11 12  1  6
 12 13  1  0
 13 17  1  0
 13 14  2  0
 14 15  1  0
 16 15  1  0
 17 16  2  0
 18 25  1  0
 18 11  1  0
 19 18  2  0
 21 22  1  0
 21 20  1  0
 22 23  1  6
 24 26  1  0
 24 22  1  0
 24 25  1  6
 26 28  1  0
 27 26  2  0
M  END
$$$$
