EHI.pdb
     RDKit          3D

 28 28  0  0  1  0  0  0  0  0999 V2000
    7.1772  -18.8835   18.9036 N   0  0  0  0  0  0  0  0  0  0  0  0
    7.8127  -17.8559   19.6905 C   0  0  1  0  0  0  0  0  0  0  0  0
    8.1049  -16.6824   18.7995 C   0  0  0  0  0  0  0  0  0  0  0  0
    8.8009  -17.0457   17.5170 C   0  0  0  0  0  0  0  0  0  0  0  0
   10.2820  -17.0533   17.7863 C   0  0  0  0  0  0  0  0  0  0  0  0
   10.7836  -16.7994   18.8995 O   0  0  0  0  0  0  0  0  0  0  0  0
    6.9156  -17.4707   20.8196 C   0  0  0  0  0  0  0  0  0  0  0  0
    5.6677  -17.5144   20.7692 O   0  0  0  0  0  0  0  0  0  0  0  0
   11.1896  -17.3512   16.7680 O   0  0  0  0  0  0  0  0  0  0  0  0
    7.5559  -17.0195   22.0391 N   0  0  0  0  0  0  0  0  0  0  0  0
    6.7464  -16.7171   23.1926 C   0  0  1  0  0  0  0  0  0  0  0  0
    5.9295  -17.8579   23.6603 C   0  0  0  0  0  0  0  0  0  0  0  0
    6.6871  -19.0447   24.0994 C   0  0  0  0  0  0  0  0  0  0  0  0
    8.0327  -19.2249   24.1818 C   0  0  0  0  0  0  0  0  0  0  0  0
    8.2993  -20.4697   24.6788 N   0  0  0  0  0  0  0  0  0  0  0  0
    7.1051  -21.0574   24.9037 C   0  0  0  0  0  0  0  0  0  0  0  0
    6.1360  -20.2108   24.5596 N   0  0  0  0  0  0  0  0  0  0  0  0
    7.6463  -16.1282   24.2452 C   0  0  0  0  0  0  0  0  0  0  0  0
    8.9025  -16.3984   24.2385 O   0  0  0  0  0  0  0  0  0  0  0  0
    5.6846  -11.2851   25.9708 C   0  0  0  0  0  0  0  0  0  0  0  0
    6.6033  -12.3397   25.4829 C   0  0  0  0  0  0  0  0  0  0  0  0
    7.2699  -13.1727   26.5468 C   0  0  2  0  0  0  0  0  0  0  0  0
    8.2659  -12.3023   27.3097 C   0  0  0  0  0  0  0  0  0  0  0  0
    7.9582  -14.3799   26.0480 C   0  0  2  0  0  0  0  0  0  0  0  0
    7.1578  -15.2704   25.2633 N   0  0  0  0  0  0  0  0  0  0  0  0
    8.6731  -15.0750   27.1560 C   0  0  0  0  0  0  0  0  0  0  0  0
    8.0859  -16.0317   27.7676 O   0  0  0  0  0  0  0  0  0  0  0  0
    9.9438  -14.7617   27.5798 O   0  0  0  0  0  0  0  0  0  0  0  0
  2  1  1  6
  2  3  1  0
  2  7  1  0
  3  4  1  0
  4  5  1  0
  5  6  2  0
  5  9  1  0
  7  8  2  0
 10  7  1  0
 10 11  1  0
 11 12  1  1
 12 13  1  0
 13 17  1  0
 13 14  2  0
 14 15  1  0
 16 15  1  0
 17 16  2  0
 18 25  1  0
 18 11  1  0
 19 18  2  0
 21 22  1  0
 21 20  1  0
 22 23  1  6
 24 26  1  0
 24 22  1  0
 24 25  1  1
 26 28  1  0
 27 26  2  0
M  END
$$$$
