EHI.pdb
     RDKit          3D

 28 28  0  0  1  0  0  0  0  0999 V2000
    9.9633  -13.4569   19.1479 N   0  0  0  0  0  0  0  0  0  0  0  0
    8.5480  -13.5593   19.4034 C   0  0  1  0  0  0  0  0  0  0  0  0
    7.8685  -14.0342   18.1508 C   0  0  0  0  0  0  0  0  0  0  0  0
    8.6456  -13.7637   16.8922 C   0  0  0  0  0  0  0  0  0  0  0  0
    7.7863  -14.1745   15.7264 C   0  0  0  0  0  0  0  0  0  0  0  0
    7.3362  -13.3735   14.8832 O   0  0  0  0  0  0  0  0  0  0  0  0
    8.3162  -14.5013   20.5378 C   0  0  0  0  0  0  0  0  0  0  0  0
    7.1857  -14.8128   20.9699 O   0  0  0  0  0  0  0  0  0  0  0  0
    7.4409  -15.5134   15.5330 O   0  0  0  0  0  0  0  0  0  0  0  0
    9.4916  -15.0759   21.1616 N   0  0  0  0  0  0  0  0  0  0  0  0
    9.3301  -16.0386   22.2219 C   0  0  1  0  0  0  0  0  0  0  0  0
   10.2352  -17.2030   22.1095 C   0  0  0  0  0  0  0  0  0  0  0  0
    9.8807  -18.1858   21.0686 C   0  0  0  0  0  0  0  0  0  0  0  0
    8.6597  -18.4898   20.5519 C   0  0  0  0  0  0  0  0  0  0  0  0
    8.7974  -19.4362   19.5757 N   0  0  0  0  0  0  0  0  0  0  0  0
   10.1157  -19.7141   19.4933 C   0  0  0  0  0  0  0  0  0  0  0  0
   10.7701  -18.9697   20.3832 N   0  0  0  0  0  0  0  0  0  0  0  0
    9.4286  -15.3029   23.5309 C   0  0  0  0  0  0  0  0  0  0  0  0
   10.4942  -14.6443   23.8173 O   0  0  0  0  0  0  0  0  0  0  0  0
    6.6055  -11.5528   27.2543 C   0  0  0  0  0  0  0  0  0  0  0  0
    7.5342  -12.6998   27.1270 C   0  0  0  0  0  0  0  0  0  0  0  0
    7.4277  -13.4915   25.8496 C   0  0  2  0  0  0  0  0  0  0  0  0
    6.0059  -14.0321   25.7155 C   0  0  0  0  0  0  0  0  0  0  0  0
    8.3876  -14.6069   25.7299 C   0  0  2  0  0  0  0  0  0  0  0  0
    8.3750  -15.3046   24.4799 N   0  0  0  0  0  0  0  0  0  0  0  0
    8.2795  -15.5234   26.9006 C   0  0  0  0  0  0  0  0  0  0  0  0
    7.7604  -16.6800   26.7355 O   0  0  0  0  0  0  0  0  0  0  0  0
    8.7057  -15.2158   28.1718 O   0  0  0  0  0  0  0  0  0  0  0  0
  2  1  1  6
  2  3  1  0
  2  7  1  0
  3  4  1  0
  4  5  1  0
  5  6  2  0
  5  9  1  0
  7  8  2  0
 10  7  1  0
 10 11  1  0
 11 12  1  1
 12 13  1  0
 13 17  1  0
 13 14  2  0
 14 15  1  0
 16 15  1  0
 17 16  2  0
 18 25  1  0
 18 11  1  0
 19 18  2  0
 21 22  1  0
 21 20  1  0
 22 23  1  1
 24 26  1  0
 24 22  1  0
 24 25  1  6
 26 28  1  0
 27 26  2  0
M  END
$$$$
