EHI.pdb
     RDKit          3D

 28 28  0  0  1  0  0  0  0  0999 V2000
   11.8280  -18.7818   20.1088 N   0  0  0  0  0  0  0  0  0  0  0  0
   12.0251  -18.6177   21.5276 C   0  0  1  0  0  0  0  0  0  0  0  0
   13.4733  -18.8638   21.8415 C   0  0  0  0  0  0  0  0  0  0  0  0
   14.4188  -17.9232   21.1470 C   0  0  0  0  0  0  0  0  0  0  0  0
   15.4631  -17.5031   22.1467 C   0  0  0  0  0  0  0  0  0  0  0  0
   15.4774  -17.8857   23.3336 O   0  0  0  0  0  0  0  0  0  0  0  0
   11.6081  -17.2421   21.9298 C   0  0  0  0  0  0  0  0  0  0  0  0
   12.1064  -16.1948   21.4643 O   0  0  0  0  0  0  0  0  0  0  0  0
   16.4934  -16.6357   21.7786 O   0  0  0  0  0  0  0  0  0  0  0  0
   10.5593  -17.1412   22.9251 N   0  0  0  0  0  0  0  0  0  0  0  0
    9.6824  -15.9975   22.9149 C   0  0  1  0  0  0  0  0  0  0  0  0
    8.5915  -16.0947   21.9209 C   0  0  0  0  0  0  0  0  0  0  0  0
    8.0964  -14.8098   21.3926 C   0  0  0  0  0  0  0  0  0  0  0  0
    8.5572  -13.5505   21.6205 C   0  0  0  0  0  0  0  0  0  0  0  0
    7.8237  -12.6551   20.8940 N   0  0  0  0  0  0  0  0  0  0  0  0
    6.9051  -13.3732   20.2138 C   0  0  0  0  0  0  0  0  0  0  0  0
    7.0624  -14.6631   20.5069 N   0  0  0  0  0  0  0  0  0  0  0  0
    9.2144  -15.7633   24.3258 C   0  0  0  0  0  0  0  0  0  0  0  0
    8.5365  -16.6692   24.9348 O   0  0  0  0  0  0  0  0  0  0  0  0
    5.6732  -12.5115   26.4973 C   0  0  0  0  0  0  0  0  0  0  0  0
    6.7079  -13.4947   26.1012 C   0  0  0  0  0  0  0  0  0  0  0  0
    8.1193  -13.1628   26.5110 C   0  0  2  0  0  0  0  0  0  0  0  0
    8.6038  -11.9621   25.7016 C   0  0  0  0  0  0  0  0  0  0  0  0
    9.0837  -14.2712   26.3655 C   0  0  2  0  0  0  0  0  0  0  0  0
    9.4959  -14.5627   25.0259 N   0  0  0  0  0  0  0  0  0  0  0  0
    8.6112  -15.4808   27.0975 C   0  0  0  0  0  0  0  0  0  0  0  0
    8.1317  -16.4601   26.4302 O   0  0  0  0  0  0  0  0  0  0  0  0
    8.6535  -15.6294   28.4644 O   0  0  0  0  0  0  0  0  0  0  0  0
  2  1  1  6
  2  3  1  0
  2  7  1  0
  3  4  1  0
  4  5  1  0
  5  6  2  0
  5  9  1  0
  7  8  2  0
 10  7  1  0
 10 11  1  0
 11 12  1  6
 12 13  1  0
 13 17  1  0
 13 14  2  0
 14 15  1  0
 16 15  1  0
 17 16  2  0
 18 25  1  0
 18 11  1  0
 19 18  2  0
 21 22  1  0
 21 20  1  0
 22 23  1  6
 24 26  1  0
 24 22  1  0
 24 25  1  6
 26 28  1  0
 27 26  2  0
M  END
$$$$
