EHI.pdb
     RDKit          3D

 28 28  0  0  1  0  0  0  0  0999 V2000
   13.3530  -14.4352   18.8870 N   0  0  0  0  0  0  0  0  0  0  0  0
   12.8876  -15.2745   19.9631 C   0  0  1  0  0  0  0  0  0  0  0  0
   14.0374  -15.5451   20.8909 C   0  0  0  0  0  0  0  0  0  0  0  0
   14.9596  -14.3728   21.0816 C   0  0  0  0  0  0  0  0  0  0  0  0
   16.1056  -14.8277   21.9453 C   0  0  0  0  0  0  0  0  0  0  0  0
   16.2432  -14.4995   23.1405 O   0  0  0  0  0  0  0  0  0  0  0  0
   11.7653  -14.5929   20.6731 C   0  0  0  0  0  0  0  0  0  0  0  0
   11.7930  -13.3999   21.0444 O   0  0  0  0  0  0  0  0  0  0  0  0
   17.0995  -15.6613   21.4289 O   0  0  0  0  0  0  0  0  0  0  0  0
   10.5814  -15.3858   20.9381 N   0  0  0  0  0  0  0  0  0  0  0  0
    9.4152  -14.7500   21.4977 C   0  0  1  0  0  0  0  0  0  0  0  0
    8.1553  -15.1128   20.8133 C   0  0  0  0  0  0  0  0  0  0  0  0
    7.9770  -14.5424   19.4650 C   0  0  0  0  0  0  0  0  0  0  0  0
    8.8288  -13.7712   18.7371 C   0  0  0  0  0  0  0  0  0  0  0  0
    8.2731  -13.4981   17.5188 N   0  0  0  0  0  0  0  0  0  0  0  0
    7.0693  -14.1086   17.5001 C   0  0  0  0  0  0  0  0  0  0  0  0
    6.8854  -14.7356   18.6610 N   0  0  0  0  0  0  0  0  0  0  0  0
    9.4126  -15.0145   22.9791 C   0  0  0  0  0  0  0  0  0  0  0  0
   10.3262  -15.7530   23.4998 O   0  0  0  0  0  0  0  0  0  0  0  0
    6.6668  -11.3724   26.1108 C   0  0  0  0  0  0  0  0  0  0  0  0
    7.7621  -12.3060   25.7603 C   0  0  0  0  0  0  0  0  0  0  0  0
    7.4822  -13.7664   26.0029 C   0  0  2  0  0  0  0  0  0  0  0  0
    7.6035  -14.0553   27.4974 C   0  0  0  0  0  0  0  0  0  0  0  0
    8.3500  -14.6966   25.2537 C   0  0  2  0  0  0  0  0  0  0  0  0
    8.4265  -14.4723   23.8418 N   0  0  0  0  0  0  0  0  0  0  0  0
    8.0250  -16.1110   25.5941 C   0  0  0  0  0  0  0  0  0  0  0  0
    8.2122  -16.5183   26.7913 O   0  0  0  0  0  0  0  0  0  0  0  0
    7.5268  -17.0316   24.7016 O   0  0  0  0  0  0  0  0  0  0  0  0
  2  1  1  6
  2  3  1  0
  2  7  1  0
  3  4  1  0
  4  5  1  0
  5  6  2  0
  5  9  1  0
  7  8  2  0
 10  7  1  0
 10 11  1  0
 11 12  1  6
 12 13  1  0
 13 17  1  0
 13 14  2  0
 14 15  1  0
 16 15  1  0
 17 16  2  0
 18 25  1  0
 18 11  1  0
 19 18  2  0
 21 22  1  0
 21 20  1  0
 22 23  1  1
 24 26  1  0
 24 22  1  0
 24 25  1  6
 26 28  1  0
 27 26  2  0
M  END
$$$$
