EHI.pdb
     RDKit          3D

 28 28  0  0  1  0  0  0  0  0999 V2000
   13.4400  -18.1754   20.6366 N   0  0  0  0  0  0  0  0  0  0  0  0
   13.3639  -17.4039   21.8523 C   0  0  1  0  0  0  0  0  0  0  0  0
   14.5066  -16.4292   21.8733 C   0  0  0  0  0  0  0  0  0  0  0  0
   15.8391  -17.0543   22.1811 C   0  0  0  0  0  0  0  0  0  0  0  0
   16.6653  -17.0135   20.9233 C   0  0  0  0  0  0  0  0  0  0  0  0
   16.9324  -18.0211   20.2387 O   0  0  0  0  0  0  0  0  0  0  0  0
   12.0486  -16.7006   21.9112 C   0  0  0  0  0  0  0  0  0  0  0  0
   11.8593  -15.5339   21.5053 O   0  0  0  0  0  0  0  0  0  0  0  0
   17.1892  -15.8074   20.4540 O   0  0  0  0  0  0  0  0  0  0  0  0
   10.9378  -17.4372   22.4806 N   0  0  0  0  0  0  0  0  0  0  0  0
    9.6075  -16.8895   22.3938 C   0  0  1  0  0  0  0  0  0  0  0  0
    8.6493  -17.7662   21.6863 C   0  0  0  0  0  0  0  0  0  0  0  0
    7.2560  -17.2845   21.6471 C   0  0  0  0  0  0  0  0  0  0  0  0
    6.1042  -17.9594   21.9077 C   0  0  0  0  0  0  0  0  0  0  0  0
    5.0388  -17.1118   21.7891 N   0  0  0  0  0  0  0  0  0  0  0  0
    5.5431  -15.9056   21.4531 C   0  0  0  0  0  0  0  0  0  0  0  0
    6.8690  -16.0012   21.3666 N   0  0  0  0  0  0  0  0  0  0  0  0
    9.1790  -16.4985   23.7824 C   0  0  0  0  0  0  0  0  0  0  0  0
    9.6432  -17.1331   24.7988 O   0  0  0  0  0  0  0  0  0  0  0  0
    6.9539  -11.3792   25.2993 C   0  0  0  0  0  0  0  0  0  0  0  0
    7.6946  -12.6578   25.4027 C   0  0  0  0  0  0  0  0  0  0  0  0
    6.8570  -13.9085   25.3366 C   0  0  2  0  0  0  0  0  0  0  0  0
    5.9241  -13.9478   26.5448 C   0  0  0  0  0  0  0  0  0  0  0  0
    7.6264  -15.1669   25.2725 C   0  0  2  0  0  0  0  0  0  0  0  0
    8.2678  -15.4386   24.0218 N   0  0  0  0  0  0  0  0  0  0  0  0
    6.8051  -16.3123   25.7579 C   0  0  0  0  0  0  0  0  0  0  0  0
    6.9211  -16.6853   26.9752 O   0  0  0  0  0  0  0  0  0  0  0  0
    5.9114  -17.0133   24.9819 O   0  0  0  0  0  0  0  0  0  0  0  0
  2  1  1  6
  2  3  1  0
  2  7  1  0
  3  4  1  0
  4  5  1  0
  5  6  2  0
  5  9  1  0
  7  8  2  0
 10  7  1  0
 10 11  1  0
 11 12  1  1
 12 13  1  0
 13 17  1  0
 13 14  2  0
 14 15  1  0
 16 15  1  0
 17 16  2  0
 18 25  1  0
 18 11  1  0
 19 18  2  0
 21 22  1  0
 21 20  1  0
 22 23  1  1
 24 26  1  0
 24 22  1  0
 24 25  1  6
 26 28  1  0
 27 26  2  0
M  END
$$$$
