QQE.pdb
     RDKit          3D

 28 27  0  0  1  0  0  0  0  0999 V2000
   17.4454  -13.4707  -14.9246 N   0  0  0  0  0  0  0  0  0  0  0  0
   17.9279  -14.2098  -16.0327 C   0  0  0  0  0  0  0  0  0  0  0  0
   17.1920  -15.1014  -16.5151 O   0  0  0  0  0  0  0  0  0  0  0  0
   19.2562  -13.9696  -16.6338 C   0  0  0  0  0  0  0  0  0  0  0  0
   20.0678  -12.9356  -15.9066 C   0  0  0  0  0  0  0  0  0  0  0  0
   20.4689  -11.7624  -16.7350 C   0  0  2  0  0  0  0  0  0  0  0  0
   21.2612  -12.2884  -17.8462 N   0  0  0  0  0  0  0  0  0  0  0  0
   21.3702  -10.8748  -15.9111 C   0  0  0  0  0  0  0  0  0  0  0  0
   21.0096  -10.4990  -14.7665 O   0  0  0  0  0  0  0  0  0  0  0  0
   27.5323  -10.4897  -16.6305 N   0  0  0  0  0  0  0  0  0  0  0  0
   26.8162  -11.4534  -15.8896 C   0  0  0  0  0  0  0  0  0  0  0  0
   27.3232  -12.5686  -15.5762 O   0  0  0  0  0  0  0  0  0  0  0  0
   25.4351  -11.1610  -15.4575 C   0  0  0  0  0  0  0  0  0  0  0  0
   24.8698   -9.8787  -15.8681 C   0  0  0  0  0  0  0  0  0  0  0  0
   23.4594   -9.5284  -15.6087 C   0  0  2  0  0  0  0  0  0  0  0  0
   22.6124  -10.4595  -16.4050 N   0  0  0  0  0  0  0  0  0  0  0  0
   22.9804   -8.1766  -15.8746 C   0  0  0  0  0  0  0  0  0  0  0  0
   22.7242   -7.8407  -17.0689 O   0  0  0  0  0  0  0  0  0  0  0  0
   22.7586   -7.1712  -14.8854 N   0  0  0  0  0  0  0  0  0  0  0  0
   22.1441   -5.8752  -15.1605 C   0  0  1  0  0  0  0  0  0  0  0  0
   20.7943   -6.0157  -15.7607 C   0  0  0  0  0  0  0  0  0  0  0  0
   20.1161   -4.6923  -15.9411 C   0  0  0  0  0  0  0  0  0  0  0  0
   18.7321   -4.7425  -16.4275 C   0  0  0  0  0  0  0  0  0  0  0  0
   18.2351   -3.7882  -17.0498 O   0  0  0  0  0  0  0  0  0  0  0  0
   22.2045   -4.9842  -13.9971 C   0  0  0  0  0  0  0  0  0  0  0  0
   22.1542   -3.6101  -13.9998 O   0  0  0  0  0  0  0  0  0  0  0  0
   17.9596   -5.8697  -16.1929 O   0  0  0  0  0  0  0  0  0  0  0  0
   22.3186   -5.5336  -12.8456 O   0  0  0  0  0  0  0  0  0  0  0  0
  1  2  1  0
  2  3  2  0
  4  2  1  0
  4  5  1  0
  6  5  1  0
  6  7  1  6
  8  6  1  0
  9  8  2  0
 11 13  1  0
 11 10  1  0
 12 11  2  0
 14 13  1  0
 15 14  1  6
 15 16  1  0
 16  8  1  0
 17 15  1  0
 17 18  2  0
 19 17  1  0
 20 19  1  0
 21 22  1  0
 20 21  1  1
 22 23  1  0
 23 24  2  0
 23 27  1  0
 25 20  1  0
 26 25  1  0
 28 25  2  0
M  END
$$$$
