QQE.pdb
     RDKit          3D

 28 27  0  0  1  0  0  0  0  0999 V2000
   18.0317  -12.0796  -14.6017 N   0  0  0  0  0  0  0  0  0  0  0  0
   17.1620  -12.9817  -15.2626 C   0  0  0  0  0  0  0  0  0  0  0  0
   16.9668  -14.1042  -14.7422 O   0  0  0  0  0  0  0  0  0  0  0  0
   16.4838  -12.6493  -16.5326 C   0  0  0  0  0  0  0  0  0  0  0  0
   16.7363  -11.2441  -17.0000 C   0  0  0  0  0  0  0  0  0  0  0  0
   15.8411  -10.2160  -16.3957 C   0  0  2  0  0  0  0  0  0  0  0  0
   14.5276  -10.3919  -17.0145 N   0  0  0  0  0  0  0  0  0  0  0  0
   16.3482   -8.8474  -16.7813 C   0  0  0  0  0  0  0  0  0  0  0  0
   15.8578   -8.2498  -17.7731 O   0  0  0  0  0  0  0  0  0  0  0  0
   14.9696   -3.6355  -16.0682 N   0  0  0  0  0  0  0  0  0  0  0  0
   15.1274   -4.4216  -14.9073 C   0  0  0  0  0  0  0  0  0  0  0  0
   14.6074   -4.0945  -13.8021 O   0  0  0  0  0  0  0  0  0  0  0  0
   15.9167   -5.6675  -14.9733 C   0  0  0  0  0  0  0  0  0  0  0  0
   16.5340   -5.9938  -16.2558 C   0  0  0  0  0  0  0  0  0  0  0  0
   17.7533   -6.8209  -16.3474 C   0  0  2  0  0  0  0  0  0  0  0  0
   17.3650   -8.2269  -16.0459 N   0  0  0  0  0  0  0  0  0  0  0  0
   18.9134   -6.5079  -15.5205 C   0  0  0  0  0  0  0  0  0  0  0  0
   19.1115   -7.1772  -14.4633 O   0  0  0  0  0  0  0  0  0  0  0  0
   19.8788   -5.4950  -15.8044 N   0  0  0  0  0  0  0  0  0  0  0  0
   21.1916   -5.4160  -15.1695 C   0  0  1  0  0  0  0  0  0  0  0  0
   22.1993   -6.2509  -15.8693 C   0  0  0  0  0  0  0  0  0  0  0  0
   23.5426   -6.1859  -15.2098 C   0  0  0  0  0  0  0  0  0  0  0  0
   24.6129   -6.9528  -15.8587 C   0  0  0  0  0  0  0  0  0  0  0  0
   24.6276   -8.1950  -15.8188 O   0  0  0  0  0  0  0  0  0  0  0  0
   21.6041   -4.0276  -14.9389 C   0  0  0  0  0  0  0  0  0  0  0  0
   21.3541   -2.9420  -15.7448 O   0  0  0  0  0  0  0  0  0  0  0  0
   25.6281   -6.2879  -16.5293 O   0  0  0  0  0  0  0  0  0  0  0  0
   22.2734   -3.7862  -13.8737 O   0  0  0  0  0  0  0  0  0  0  0  0
  1  2  1  0
  2  3  2  0
  4  2  1  0
  4  5  1  0
  6  5  1  0
  6  7  1  6
  8  6  1  0
  9  8  2  0
 11 13  1  0
 11 10  1  0
 12 11  2  0
 14 13  1  0
 15 14  1  1
 15 16  1  0
 16  8  1  0
 17 15  1  0
 17 18  2  0
 19 17  1  0
 20 19  1  0
 21 22  1  0
 20 21  1  6
 22 23  1  0
 23 24  2  0
 23 27  1  0
 25 20  1  0
 26 25  1  0
 28 25  2  0
M  END
$$$$
