QQE.pdb
     RDKit          3D

 28 27  0  0  1  0  0  0  0  0999 V2000
   31.7666  -23.6389  -19.2204 N   0  0  0  0  0  0  0  0  0  0  0  0
   32.8719  -24.4575  -18.8811 C   0  0  0  0  0  0  0  0  0  0  0  0
   34.0165  -23.9496  -18.9131 O   0  0  0  0  0  0  0  0  0  0  0  0
   32.7245  -25.8763  -18.4953 C   0  0  0  0  0  0  0  0  0  0  0  0
   31.2967  -26.3404  -18.4425 C   0  0  0  0  0  0  0  0  0  0  0  0
   31.1206  -27.7730  -18.0683 C   0  0  2  0  0  0  0  0  0  0  0  0
   31.6540  -28.5621  -19.1783 N   0  0  0  0  0  0  0  0  0  0  0  0
   29.6434  -28.0675  -17.9667 C   0  0  0  0  0  0  0  0  0  0  0  0
   28.9264  -28.0584  -18.9996 O   0  0  0  0  0  0  0  0  0  0  0  0
   27.0111  -31.7500  -13.7332 N   0  0  0  0  0  0  0  0  0  0  0  0
   27.1988  -32.1524  -15.0723 C   0  0  0  0  0  0  0  0  0  0  0  0
   27.2062  -33.3710  -15.4099 O   0  0  0  0  0  0  0  0  0  0  0  0
   27.3883  -31.1299  -16.1202 C   0  0  0  0  0  0  0  0  0  0  0  0
   27.4004  -29.7345  -15.6900 C   0  0  0  0  0  0  0  0  0  0  0  0
   27.5914  -28.6248  -16.6447 C   0  0  2  0  0  0  0  0  0  0  0  0
   29.0534  -28.3533  -16.7298 N   0  0  0  0  0  0  0  0  0  0  0  0
   26.9282  -27.3451  -16.4212 C   0  0  0  0  0  0  0  0  0  0  0  0
   27.4073  -26.5481  -15.5609 O   0  0  0  0  0  0  0  0  0  0  0  0
   25.7617  -26.8903  -17.1075 N   0  0  0  0  0  0  0  0  0  0  0  0
   25.1222  -25.5998  -16.8659 C   0  0  1  0  0  0  0  0  0  0  0  0
   25.6759  -24.5328  -17.7360 C   0  0  0  0  0  0  0  0  0  0  0  0
   25.0358  -23.2037  -17.4766 C   0  0  0  0  0  0  0  0  0  0  0  0
   25.5738  -22.0729  -18.2424 C   0  0  0  0  0  0  0  0  0  0  0  0
   25.2982  -21.9227  -19.4451 O   0  0  0  0  0  0  0  0  0  0  0  0
   23.6593  -25.7033  -16.8838 C   0  0  0  0  0  0  0  0  0  0  0  0
   22.7597  -24.8651  -16.2684 O   0  0  0  0  0  0  0  0  0  0  0  0
   26.4041  -21.1525  -17.6211 O   0  0  0  0  0  0  0  0  0  0  0  0
   23.1506  -26.6786  -17.5401 O   0  0  0  0  0  0  0  0  0  0  0  0
  1  2  1  0
  2  3  2  0
  4  2  1  0
  4  5  1  0
  6  5  1  0
  6  7  1  6
  8  6  1  0
  9  8  2  0
 11 13  1  0
 11 10  1  0
 12 11  2  0
 14 13  1  0
 15 14  1  1
 15 16  1  0
 16  8  1  0
 17 15  1  0
 17 18  2  0
 19 17  1  0
 20 19  1  0
 21 22  1  0
 20 21  1  6
 22 23  1  0
 23 24  2  0
 23 27  1  0
 25 20  1  0
 26 25  1  0
 28 25  2  0
M  END
$$$$
