QQE.pdb
     RDKit          3D

 28 27  0  0  1  0  0  0  0  0999 V2000
   27.6436  -11.2947  -15.7136 N   0  0  0  0  0  0  0  0  0  0  0  0
   28.2074  -12.3181  -16.5146 C   0  0  0  0  0  0  0  0  0  0  0  0
   29.3367  -12.7603  -16.2015 O   0  0  0  0  0  0  0  0  0  0  0  0
   27.5178  -12.8769  -17.6960 C   0  0  0  0  0  0  0  0  0  0  0  0
   26.1693  -12.2657  -17.9507 C   0  0  0  0  0  0  0  0  0  0  0  0
   25.0129  -13.1266  -17.5700 C   0  0  2  0  0  0  0  0  0  0  0  0
   24.9997  -14.2465  -18.5107 N   0  0  0  0  0  0  0  0  0  0  0  0
   23.7391  -12.3426  -17.7751 C   0  0  0  0  0  0  0  0  0  0  0  0
   23.1024  -12.4458  -18.8545 O   0  0  0  0  0  0  0  0  0  0  0  0
   19.2177  -13.8344  -16.1156 N   0  0  0  0  0  0  0  0  0  0  0  0
   18.6443  -12.6286  -16.5713 C   0  0  0  0  0  0  0  0  0  0  0  0
   17.4104  -12.3839  -16.4423 O   0  0  0  0  0  0  0  0  0  0  0  0
   19.5005  -11.6127  -17.2150 C   0  0  0  0  0  0  0  0  0  0  0  0
   20.9364  -11.8771  -17.2422 C   0  0  0  0  0  0  0  0  0  0  0  0
   21.9294  -10.8277  -16.9391 C   0  0  2  0  0  0  0  0  0  0  0  0
   23.2507  -11.4949  -16.7738 N   0  0  0  0  0  0  0  0  0  0  0  0
   21.7414   -9.9536  -15.7867 C   0  0  0  0  0  0  0  0  0  0  0  0
   22.0524  -10.3812  -14.6355 O   0  0  0  0  0  0  0  0  0  0  0  0
   21.2336   -8.6201  -15.8377 N   0  0  0  0  0  0  0  0  0  0  0  0
   21.0029   -7.7877  -14.6601 C   0  0  1  0  0  0  0  0  0  0  0  0
   21.9280   -6.6285  -14.6082 C   0  0  0  0  0  0  0  0  0  0  0  0
   21.3083   -5.3859  -15.1701 C   0  0  0  0  0  0  0  0  0  0  0  0
   21.8026   -4.1181  -14.6197 C   0  0  0  0  0  0  0  0  0  0  0  0
   22.6198   -4.0997  -13.6835 O   0  0  0  0  0  0  0  0  0  0  0  0
   19.5857   -7.4443  -14.5031 C   0  0  0  0  0  0  0  0  0  0  0  0
   19.0176   -6.7023  -13.4946 O   0  0  0  0  0  0  0  0  0  0  0  0
   21.3550   -2.9166  -15.1476 O   0  0  0  0  0  0  0  0  0  0  0  0
   18.7769   -7.8789  -15.3963 O   0  0  0  0  0  0  0  0  0  0  0  0
  1  2  1  0
  2  3  2  0
  4  2  1  0
  4  5  1  0
  6  5  1  0
  6  7  1  6
  8  6  1  0
  9  8  2  0
 11 13  1  0
 11 10  1  0
 12 11  2  0
 14 13  1  0
 15 14  1  1
 15 16  1  0
 16  8  1  0
 17 15  1  0
 17 18  2  0
 19 17  1  0
 20 19  1  0
 21 22  1  0
 20 21  1  6
 22 23  1  0
 23 24  2  0
 23 27  1  0
 25 20  1  0
 26 25  1  0
 28 25  2  0
M  END
$$$$
