QQE.pdb
     RDKit          3D

 28 27  0  0  1  0  0  0  0  0999 V2000
   15.7674  -13.0028  -15.6351 N   0  0  0  0  0  0  0  0  0  0  0  0
   15.5452  -12.4777  -16.9320 C   0  0  0  0  0  0  0  0  0  0  0  0
   14.5480  -12.8838  -17.5721 O   0  0  0  0  0  0  0  0  0  0  0  0
   16.4399  -11.4781  -17.5514 C   0  0  0  0  0  0  0  0  0  0  0  0
   17.5474  -11.0188  -16.6462 C   0  0  0  0  0  0  0  0  0  0  0  0
   18.8639  -11.6752  -16.8897 C   0  0  2  0  0  0  0  0  0  0  0  0
   18.7723  -13.0178  -16.3168 N   0  0  0  0  0  0  0  0  0  0  0  0
   19.9270  -10.9238  -16.1254 C   0  0  0  0  0  0  0  0  0  0  0  0
   19.7540  -10.6483  -14.9107 O   0  0  0  0  0  0  0  0  0  0  0  0
   25.4395  -12.0682  -15.3944 N   0  0  0  0  0  0  0  0  0  0  0  0
   25.6937  -10.6816  -15.3391 C   0  0  0  0  0  0  0  0  0  0  0  0
   26.7342  -10.2134  -14.7940 O   0  0  0  0  0  0  0  0  0  0  0  0
   24.7264   -9.7396  -15.9361 C   0  0  0  0  0  0  0  0  0  0  0  0
   23.4729  -10.3019  -16.4313 C   0  0  0  0  0  0  0  0  0  0  0  0
   22.1600   -9.8008  -15.9792 C   0  0  2  0  0  0  0  0  0  0  0  0
   21.1132  -10.5249  -16.7526 N   0  0  0  0  0  0  0  0  0  0  0  0
   21.8512   -8.3778  -16.0644 C   0  0  0  0  0  0  0  0  0  0  0  0
   21.6892   -7.8528  -17.2060 O   0  0  0  0  0  0  0  0  0  0  0  0
   21.7013   -7.4986  -14.9495 N   0  0  0  0  0  0  0  0  0  0  0  0
   21.5199   -6.0542  -15.0661 C   0  0  1  0  0  0  0  0  0  0  0  0
   20.0859   -5.6725  -15.0760 C   0  0  0  0  0  0  0  0  0  0  0  0
   19.8972   -4.1874  -15.1294 C   0  0  0  0  0  0  0  0  0  0  0  0
   18.5070   -3.7170  -15.1120 C   0  0  0  0  0  0  0  0  0  0  0  0
   17.7613   -3.8810  -16.0928 O   0  0  0  0  0  0  0  0  0  0  0  0
   22.3395   -5.3207  -14.0958 C   0  0  0  0  0  0  0  0  0  0  0  0
   22.8727   -4.0619  -14.2423 O   0  0  0  0  0  0  0  0  0  0  0  0
   18.0096   -3.0780  -13.9865 O   0  0  0  0  0  0  0  0  0  0  0  0
   22.5958   -5.9069  -12.9861 O   0  0  0  0  0  0  0  0  0  0  0  0
  1  2  1  0
  2  3  2  0
  4  2  1  0
  4  5  1  0
  6  5  1  0
  6  7  1  1
  8  6  1  0
  9  8  2  0
 11 13  1  0
 11 10  1  0
 12 11  2  0
 14 13  1  0
 15 14  1  6
 15 16  1  0
 16  8  1  0
 17 15  1  0
 17 18  2  0
 19 17  1  0
 20 19  1  0
 21 22  1  0
 20 21  1  1
 22 23  1  0
 23 24  2  0
 23 27  1  0
 25 20  1  0
 26 25  1  0
 28 25  2  0
M  END
$$$$
