QQE.pdb
     RDKit          3D

 28 27  0  0  1  0  0  0  0  0999 V2000
   32.3118  -23.7762  -13.6686 N   0  0  0  0  0  0  0  0  0  0  0  0
   32.5711  -22.3861  -13.5829 C   0  0  0  0  0  0  0  0  0  0  0  0
   33.7633  -22.0032  -13.6159 O   0  0  0  0  0  0  0  0  0  0  0  0
   31.4956  -21.3808  -13.4561 C   0  0  0  0  0  0  0  0  0  0  0  0
   30.1143  -21.9708  -13.4806 C   0  0  0  0  0  0  0  0  0  0  0  0
   29.1020  -21.1575  -14.2136 C   0  0  2  0  0  0  0  0  0  0  0  0
   29.2844  -19.7735  -13.7772 N   0  0  0  0  0  0  0  0  0  0  0  0
   27.7241  -21.5957  -13.7795 C   0  0  0  0  0  0  0  0  0  0  0  0
   27.3238  -22.7603  -14.0338 O   0  0  0  0  0  0  0  0  0  0  0  0
   24.4949  -20.9701   -8.5666 N   0  0  0  0  0  0  0  0  0  0  0  0
   25.5460  -20.1052   -8.9370 C   0  0  0  0  0  0  0  0  0  0  0  0
   25.9706  -19.1989   -8.1640 O   0  0  0  0  0  0  0  0  0  0  0  0
   26.1805  -20.2556  -10.2615 C   0  0  0  0  0  0  0  0  0  0  0  0
   25.7009  -21.3462  -11.1060 C   0  0  0  0  0  0  0  0  0  0  0  0
   25.5683  -21.2004  -12.5690 C   0  0  2  0  0  0  0  0  0  0  0  0
   26.8770  -20.7186  -13.0919 N   0  0  0  0  0  0  0  0  0  0  0  0
   24.5362  -20.3341  -13.1273 C   0  0  0  0  0  0  0  0  0  0  0  0
   24.6288  -19.0820  -12.9576 O   0  0  0  0  0  0  0  0  0  0  0  0
   23.4043  -20.7774  -13.8761 N   0  0  0  0  0  0  0  0  0  0  0  0
   22.3705  -19.8879  -14.3986 C   0  0  1  0  0  0  0  0  0  0  0  0
   22.2638  -19.9666  -15.8766 C   0  0  0  0  0  0  0  0  0  0  0  0
   21.2605  -18.9976  -16.4227 C   0  0  0  0  0  0  0  0  0  0  0  0
   21.0555  -19.0379  -17.8756 C   0  0  0  0  0  0  0  0  0  0  0  0
   21.3327  -18.0597  -18.5906 O   0  0  0  0  0  0  0  0  0  0  0  0
   21.0990  -20.0503  -13.6859 C   0  0  0  0  0  0  0  0  0  0  0  0
   20.1264  -19.0974  -13.4947 O   0  0  0  0  0  0  0  0  0  0  0  0
   20.5445  -20.1826  -18.4680 O   0  0  0  0  0  0  0  0  0  0  0  0
   20.8560  -21.2014  -13.1793 O   0  0  0  0  0  0  0  0  0  0  0  0
  1  2  1  0
  2  3  2  0
  4  2  1  0
  4  5  1  0
  6  5  1  0
  6  7  1  1
  8  6  1  0
  9  8  2  0
 11 13  1  0
 11 10  1  0
 12 11  2  0
 14 13  1  0
 15 14  1  1
 15 16  1  0
 16  8  1  0
 17 15  1  0
 17 18  2  0
 19 17  1  0
 20 19  1  0
 21 22  1  0
 20 21  1  6
 22 23  1  0
 23 24  2  0
 23 27  1  0
 25 20  1  0
 26 25  1  0
 28 25  2  0
M  END
$$$$
