QQE.pdb
     RDKit          3D

 28 27  0  0  1  0  0  0  0  0999 V2000
   27.4021  -20.4373  -18.7355 N   0  0  0  0  0  0  0  0  0  0  0  0
   28.7735  -20.4457  -18.3804 C   0  0  0  0  0  0  0  0  0  0  0  0
   29.6012  -19.9937  -19.2049 O   0  0  0  0  0  0  0  0  0  0  0  0
   29.2583  -20.9645  -17.0845 C   0  0  0  0  0  0  0  0  0  0  0  0
   28.1637  -21.4851  -16.1972 C   0  0  0  0  0  0  0  0  0  0  0  0
   27.1794  -20.4569  -15.7530 C   0  0  2  0  0  0  0  0  0  0  0  0
   27.9255  -19.4820  -14.9580 N   0  0  0  0  0  0  0  0  0  0  0  0
   26.1719  -21.1148  -14.8413 C   0  0  0  0  0  0  0  0  0  0  0  0
   26.3052  -22.3239  -14.5228 O   0  0  0  0  0  0  0  0  0  0  0  0
   24.4790  -21.3495   -9.4812 N   0  0  0  0  0  0  0  0  0  0  0  0
   25.5573  -20.6429  -10.0542 C   0  0  0  0  0  0  0  0  0  0  0  0
   26.3197  -19.9091   -9.3618 O   0  0  0  0  0  0  0  0  0  0  0  0
   25.8166  -20.7594  -11.5029 C   0  0  0  0  0  0  0  0  0  0  0  0
   24.8965  -21.5888  -12.2762 C   0  0  0  0  0  0  0  0  0  0  0  0
   24.1198  -21.0462  -13.4083 C   0  0  2  0  0  0  0  0  0  0  0  0
   25.0815  -20.3940  -14.3401 N   0  0  0  0  0  0  0  0  0  0  0  0
   23.0417  -20.0940  -13.1664 C   0  0  0  0  0  0  0  0  0  0  0  0
   23.2781  -18.8556  -13.2900 O   0  0  0  0  0  0  0  0  0  0  0  0
   21.7048  -20.4378  -12.8017 N   0  0  0  0  0  0  0  0  0  0  0  0
   20.5335  -20.1521  -13.6259 C   0  0  1  0  0  0  0  0  0  0  0  0
   20.8563  -20.1630  -15.0743 C   0  0  0  0  0  0  0  0  0  0  0  0
   20.7721  -18.7964  -15.6819 C   0  0  0  0  0  0  0  0  0  0  0  0
   19.4629  -18.4166  -16.2262 C   0  0  0  0  0  0  0  0  0  0  0  0
   18.8032  -19.2070  -16.9226 O   0  0  0  0  0  0  0  0  0  0  0  0
   19.3855  -20.9841  -13.2508 C   0  0  0  0  0  0  0  0  0  0  0  0
   18.0787  -20.5811  -13.1085 O   0  0  0  0  0  0  0  0  0  0  0  0
   18.9464  -17.1569  -15.9637 O   0  0  0  0  0  0  0  0  0  0  0  0
   19.6118  -22.2248  -13.0263 O   0  0  0  0  0  0  0  0  0  0  0  0
  1  2  1  0
  2  3  2  0
  4  2  1  0
  4  5  1  0
  6  5  1  0
  6  7  1  1
  8  6  1  0
  9  8  2  0
 11 13  1  0
 11 10  1  0
 12 11  2  0
 14 13  1  0
 15 14  1  1
 15 16  1  0
 16  8  1  0
 17 15  1  0
 17 18  2  0
 19 17  1  0
 20 19  1  0
 21 22  1  0
 20 21  1  6
 22 23  1  0
 23 24  2  0
 23 27  1  0
 25 20  1  0
 26 25  1  0
 28 25  2  0
M  END
$$$$
