YIM.pdb
     RDKit          3D

 29 29  0  0  1  0  0  0  0  0999 V2000
   31.2308  -23.1548  -19.2065 O   0  0  0  0  0  0  0  0  0  0  0  0
   30.5483  -22.4391  -18.2198 C   0  0  0  0  0  0  0  0  0  0  0  0
   29.9147  -23.0690  -17.1699 C   0  0  0  0  0  0  0  0  0  0  0  0
   29.2486  -22.3414  -16.2098 C   0  0  0  0  0  0  0  0  0  0  0  0
   29.1837  -20.9531  -16.2527 C   0  0  0  0  0  0  0  0  0  0  0  0
   28.4573  -20.2037  -15.1960 C   0  0  0  0  0  0  0  0  0  0  0  0
   26.9895  -20.5437  -15.3283 C   0  0  2  0  0  0  0  0  0  0  0  0
   26.5157  -20.0207  -16.5726 N   0  0  0  0  0  0  0  0  0  0  0  0
   26.2064  -20.1193  -14.1527 C   0  0  0  0  0  0  0  0  0  0  0  0
   26.0569  -18.8875  -13.9447 O   0  0  0  0  0  0  0  0  0  0  0  0
   29.8274  -20.3524  -17.3152 C   0  0  0  0  0  0  0  0  0  0  0  0
   30.4930  -21.0651  -18.2761 C   0  0  0  0  0  0  0  0  0  0  0  0
   21.3026  -20.8955  -13.6671 C   0  0  0  0  0  0  0  0  0  0  0  0
   22.7311  -20.3650  -13.4688 C   0  0  0  0  0  0  0  0  0  0  0  0
   23.3694  -21.0027  -12.2705 C   0  0  2  0  0  0  0  0  0  0  0  0
   22.4517  -20.7806  -11.0933 C   0  0  0  0  0  0  0  0  0  0  0  0
   24.7657  -20.5866  -12.1059 C   0  0  2  0  0  0  0  0  0  0  0  0
   25.6059  -20.9870  -13.2345 N   0  0  0  0  0  0  0  0  0  0  0  0
   25.4441  -21.1098  -10.9058 C   0  0  0  0  0  0  0  0  0  0  0  0
   25.6850  -22.3718  -10.7779 O   0  0  0  0  0  0  0  0  0  0  0  0
   29.3503  -18.9926   -5.8467 C   0  0  0  0  0  0  0  0  0  0  0  0
   27.6202  -18.9159   -5.2816 S   0  0  0  0  0  0  0  0  0  0  0  0
   26.6948  -20.1842   -6.1972 C   0  0  0  0  0  0  0  0  0  0  0  0
   26.6965  -19.8163   -7.6349 C   0  0  0  0  0  0  0  0  0  0  0  0
   26.0323  -20.8987   -8.4571 C   0  0  2  0  0  0  0  0  0  0  0  0
   25.8987  -20.3396   -9.8072 N   0  0  0  0  0  0  0  0  0  0  0  0
   24.6890  -21.2149   -7.9418 C   0  0  0  0  0  0  0  0  0  0  0  0
   23.7224  -20.4466   -8.1706 O   0  0  0  0  0  0  0  0  0  0  0  0
   24.4110  -22.3431   -7.1975 O   0  0  0  0  0  0  0  0  0  0  0  0
  2  1  1  0
  3  2  2  0
  4  3  1  0
  5 11  1  0
  5  4  2  0
  6  5  1  0
  7  9  1  0
  7  6  1  0
  7  8  1  6
  9 10  2  0
 11 12  2  0
 12  2  1  0
 14 13  1  0
 15 16  1  1
 15 14  1  0
 15 17  1  0
 17 18  1  6
 18  9  1  0
 19 26  1  0
 19 17  1  0
 20 19  2  0
 22 23  1  0
 22 21  1  0
 23 24  1  0
 25 24  1  1
 25 26  1  0
 25 27  1  0
 27 29  1  0
 28 27  2  0
M  END
$$$$
