YIM.pdb
     RDKit          3D

 29 29  0  0  1  0  0  0  0  0999 V2000
   20.3508  -19.7809  -14.6824 O   0  0  0  0  0  0  0  0  0  0  0  0
   20.5061  -18.4291  -14.9989 C   0  0  0  0  0  0  0  0  0  0  0  0
   21.7422  -17.8186  -14.9999 C   0  0  0  0  0  0  0  0  0  0  0  0
   21.8694  -16.4848  -15.3154 C   0  0  0  0  0  0  0  0  0  0  0  0
   20.7703  -15.6990  -15.6443 C   0  0  0  0  0  0  0  0  0  0  0  0
   20.9491  -14.2637  -15.9816 C   0  0  0  0  0  0  0  0  0  0  0  0
   20.4816  -14.0724  -17.4071 C   0  0  2  0  0  0  0  0  0  0  0  0
   21.3060  -14.8688  -18.2629 N   0  0  0  0  0  0  0  0  0  0  0  0
   20.4064  -12.6494  -17.7875 C   0  0  0  0  0  0  0  0  0  0  0  0
   21.3812  -12.1396  -18.3979 O   0  0  0  0  0  0  0  0  0  0  0  0
   19.5477  -16.3387  -15.6344 C   0  0  0  0  0  0  0  0  0  0  0  0
   19.4085  -17.6644  -15.3224 C   0  0  0  0  0  0  0  0  0  0  0  0
   16.3548  -10.6173  -20.3693 C   0  0  0  0  0  0  0  0  0  0  0  0
   17.7749  -10.8245  -19.8198 C   0  0  0  0  0  0  0  0  0  0  0  0
   17.9630  -10.0616  -18.5421 C   0  0  2  0  0  0  0  0  0  0  0  0
   17.7124   -8.6038  -18.8409 C   0  0  0  0  0  0  0  0  0  0  0  0
   19.2328  -10.3919  -17.8876 C   0  0  2  0  0  0  0  0  0  0  0  0
   19.3230  -11.8054  -17.5216 N   0  0  0  0  0  0  0  0  0  0  0  0
   19.5179   -9.6461  -16.6480 C   0  0  0  0  0  0  0  0  0  0  0  0
   18.7723   -9.7870  -15.6034 O   0  0  0  0  0  0  0  0  0  0  0  0
   24.0285  -11.7587  -13.1718 C   0  0  0  0  0  0  0  0  0  0  0  0
   23.9713  -10.0562  -13.8175 S   0  0  0  0  0  0  0  0  0  0  0  0
   22.2411   -9.6959  -14.2418 C   0  0  0  0  0  0  0  0  0  0  0  0
   22.1627   -8.2980  -14.7338 C   0  0  0  0  0  0  0  0  0  0  0  0
   20.7606   -7.9831  -15.2067 C   0  0  2  0  0  0  0  0  0  0  0  0
   20.5880   -8.7384  -16.4530 N   0  0  0  0  0  0  0  0  0  0  0  0
   20.6031   -6.5478  -15.4986 C   0  0  0  0  0  0  0  0  0  0  0  0
   20.6855   -6.1254  -16.6784 O   0  0  0  0  0  0  0  0  0  0  0  0
   20.3600   -5.6006  -14.5252 O   0  0  0  0  0  0  0  0  0  0  0  0
  2  1  1  0
  3  2  2  0
  4  3  1  0
  5 11  1  0
  5  4  2  0
  6  5  1  0
  7  9  1  0
  7  6  1  0
  7  8  1  6
  9 10  2  0
 11 12  2  0
 12  2  1  0
 14 13  1  0
 15 16  1  6
 15 14  1  0
 15 17  1  0
 17 18  1  1
 18  9  1  0
 19 26  1  0
 19 17  1  0
 20 19  2  0
 22 23  1  0
 22 21  1  0
 23 24  1  0
 25 24  1  6
 25 26  1  0
 25 27  1  0
 27 29  1  0
 28 27  2  0
M  END
$$$$
