YIM.pdb
     RDKit          3D

 29 29  0  0  1  0  0  0  0  0999 V2000
   14.3612  -14.4697  -19.6974 O   0  0  0  0  0  0  0  0  0  0  0  0
   15.0251  -13.4803  -18.9682 C   0  0  0  0  0  0  0  0  0  0  0  0
   14.5621  -13.0421  -17.7458 C   0  0  0  0  0  0  0  0  0  0  0  0
   15.2342  -12.0657  -17.0462 C   0  0  0  0  0  0  0  0  0  0  0  0
   16.3984  -11.4816  -17.5332 C   0  0  0  0  0  0  0  0  0  0  0  0
   17.0964  -10.4326  -16.7468 C   0  0  0  0  0  0  0  0  0  0  0  0
   18.3463  -11.0575  -16.1684 C   0  0  2  0  0  0  0  0  0  0  0  0
   17.9576  -12.1443  -15.3234 N   0  0  0  0  0  0  0  0  0  0  0  0
   19.2215  -10.0643  -15.5179 C   0  0  0  0  0  0  0  0  0  0  0  0
   18.9446   -9.6967  -14.3470 O   0  0  0  0  0  0  0  0  0  0  0  0
   16.8361  -11.9413  -18.7584 C   0  0  0  0  0  0  0  0  0  0  0  0
   16.1763  -12.9117  -19.4635 C   0  0  0  0  0  0  0  0  0  0  0  0
   24.3304  -10.5174  -14.8319 C   0  0  0  0  0  0  0  0  0  0  0  0
   22.8605  -10.0858  -14.7114 C   0  0  0  0  0  0  0  0  0  0  0  0
   22.6146   -8.8266  -15.4886 C   0  0  2  0  0  0  0  0  0  0  0  0
   23.5840   -7.7848  -14.9865 C   0  0  0  0  0  0  0  0  0  0  0  0
   21.1959   -8.4565  -15.4993 C   0  0  2  0  0  0  0  0  0  0  0  0
   20.3529   -9.4876  -16.1045 N   0  0  0  0  0  0  0  0  0  0  0  0
   20.8726   -7.2116  -16.2203 C   0  0  0  0  0  0  0  0  0  0  0  0
   20.7385   -7.2052  -17.5045 O   0  0  0  0  0  0  0  0  0  0  0  0
   15.5180   -4.5736  -17.1400 C   0  0  0  0  0  0  0  0  0  0  0  0
   16.8231   -4.1468  -18.3371 S   0  0  0  0  0  0  0  0  0  0  0  0
   18.3054   -3.6988  -17.3855 C   0  0  0  0  0  0  0  0  0  0  0  0
   18.8392   -4.9276  -16.7472 C   0  0  0  0  0  0  0  0  0  0  0  0
   20.3061   -4.7567  -16.4189 C   0  0  2  0  0  0  0  0  0  0  0  0
   20.6721   -5.9392  -15.6307 N   0  0  0  0  0  0  0  0  0  0  0  0
   20.5354   -3.5538  -15.6001 C   0  0  0  0  0  0  0  0  0  0  0  0
   20.5698   -3.6337  -14.3473 O   0  0  0  0  0  0  0  0  0  0  0  0
   20.7240   -2.2974  -16.1384 O   0  0  0  0  0  0  0  0  0  0  0  0
  2  1  1  0
  3  2  2  0
  4  3  1  0
  5 11  1  0
  5  4  2  0
  6  5  1  0
  7  9  1  0
  7  6  1  0
  7  8  1  1
  9 10  2  0
 11 12  2  0
 12  2  1  0
 14 13  1  0
 15 16  1  1
 15 14  1  0
 15 17  1  0
 17 18  1  6
 18  9  1  0
 19 26  1  0
 19 17  1  0
 20 19  2  0
 22 23  1  0
 22 21  1  0
 23 24  1  0
 25 24  1  1
 25 26  1  0
 25 27  1  0
 27 29  1  0
 28 27  2  0
M  END
$$$$
