YIM.pdb
     RDKit          3D

 29 29  0  0  1  0  0  0  0  0999 V2000
   22.2938  -32.5287  -24.1183 O   0  0  0  0  0  0  0  0  0  0  0  0
   22.8360  -33.0090  -22.9239 C   0  0  0  0  0  0  0  0  0  0  0  0
   22.9023  -34.3574  -22.6442 C   0  0  0  0  0  0  0  0  0  0  0  0
   23.4413  -34.8060  -21.4598 C   0  0  0  0  0  0  0  0  0  0  0  0
   23.9388  -33.9311  -20.5003 C   0  0  0  0  0  0  0  0  0  0  0  0
   24.5152  -34.4546  -19.2356 C   0  0  0  0  0  0  0  0  0  0  0  0
   26.0120  -34.5550  -19.4282 C   0  0  2  0  0  0  0  0  0  0  0  0
   26.2875  -35.7093  -20.2269 N   0  0  0  0  0  0  0  0  0  0  0  0
   26.7471  -34.5101  -18.1503 C   0  0  0  0  0  0  0  0  0  0  0  0
   27.1070  -35.5962  -17.6272 O   0  0  0  0  0  0  0  0  0  0  0  0
   23.8582  -32.5887  -20.8095 C   0  0  0  0  0  0  0  0  0  0  0  0
   23.3244  -32.1304  -21.9839 C   0  0  0  0  0  0  0  0  0  0  0  0
   30.8257  -31.1931  -17.2443 C   0  0  0  0  0  0  0  0  0  0  0  0
   29.9174  -32.4293  -17.1511 C   0  0  0  0  0  0  0  0  0  0  0  0
   28.8040  -32.1937  -16.1739 C   0  0  2  0  0  0  0  0  0  0  0  0
   29.4300  -31.8728  -14.8388 C   0  0  0  0  0  0  0  0  0  0  0  0
   27.8163  -33.2770  -16.1958 C   0  0  2  0  0  0  0  0  0  0  0  0
   27.0831  -33.3407  -17.4601 N   0  0  0  0  0  0  0  0  0  0  0  0
   26.7834  -33.2124  -15.1455 C   0  0  0  0  0  0  0  0  0  0  0  0
   25.6318  -32.6778  -15.3805 O   0  0  0  0  0  0  0  0  0  0  0  0
   21.9327  -33.0264  -14.3194 C   0  0  0  0  0  0  0  0  0  0  0  0
   22.4986  -33.0442  -12.5880 S   0  0  0  0  0  0  0  0  0  0  0  0
   23.5889  -34.4848  -12.3894 C   0  0  0  0  0  0  0  0  0  0  0  0
   24.6801  -34.3856  -13.3903 C   0  0  0  0  0  0  0  0  0  0  0  0
   25.8366  -33.5856  -12.8323 C   0  0  2  0  0  0  0  0  0  0  0  0
   26.9116  -33.7060  -13.8239 N   0  0  0  0  0  0  0  0  0  0  0  0
   26.3082  -34.1455  -11.5540 C   0  0  0  0  0  0  0  0  0  0  0  0
   25.5485  -34.1782  -10.5545 O   0  0  0  0  0  0  0  0  0  0  0  0
   27.5769  -34.6578  -11.3752 O   0  0  0  0  0  0  0  0  0  0  0  0
  2  1  1  0
  3  2  2  0
  4  3  1  0
  5 11  1  0
  5  4  2  0
  6  5  1  0
  7  9  1  0
  7  6  1  0
  7  8  1  1
  9 10  2  0
 11 12  2  0
 12  2  1  0
 14 13  1  0
 15 16  1  1
 15 14  1  0
 15 17  1  0
 17 18  1  6
 18  9  1  0
 19 26  1  0
 19 17  1  0
 20 19  2  0
 22 23  1  0
 22 21  1  0
 23 24  1  0
 25 24  1  6
 25 26  1  0
 25 27  1  0
 27 29  1  0
 28 27  2  0
M  END
$$$$
