YIM.pdb
     RDKit          3D

 29 29  0  0  1  0  0  0  0  0999 V2000
   17.9212  -18.6105  -14.7521 O   0  0  0  0  0  0  0  0  0  0  0  0
   18.9469  -19.1934  -14.0039 C   0  0  0  0  0  0  0  0  0  0  0  0
   19.8294  -18.4360  -13.2636 C   0  0  0  0  0  0  0  0  0  0  0  0
   20.8321  -19.0340  -12.5344 C   0  0  0  0  0  0  0  0  0  0  0  0
   21.0007  -20.4141  -12.5100 C   0  0  0  0  0  0  0  0  0  0  0  0
   22.0935  -21.0216  -11.7084 C   0  0  0  0  0  0  0  0  0  0  0  0
   23.3931  -20.7402  -12.4289 C   0  0  2  0  0  0  0  0  0  0  0  0
   23.2888  -21.2481  -13.7621 N   0  0  0  0  0  0  0  0  0  0  0  0
   24.5669  -21.2295  -11.6818 C   0  0  0  0  0  0  0  0  0  0  0  0
   24.6693  -22.4651  -11.4683 O   0  0  0  0  0  0  0  0  0  0  0  0
   20.1021  -21.1441  -13.2607 C   0  0  0  0  0  0  0  0  0  0  0  0
   19.1009  -20.5609  -13.9899 C   0  0  0  0  0  0  0  0  0  0  0  0
   29.1433  -21.0548  -13.5519 C   0  0  0  0  0  0  0  0  0  0  0  0
   27.8926  -21.3328  -12.7035 C   0  0  0  0  0  0  0  0  0  0  0  0
   28.0086  -20.6747  -11.3606 C   0  0  2  0  0  0  0  0  0  0  0  0
   29.3321  -21.0871  -10.7641 C   0  0  0  0  0  0  0  0  0  0  0  0
   26.8164  -20.8955  -10.5363 C   0  0  2  0  0  0  0  0  0  0  0  0
   25.5931  -20.4203  -11.1828 N   0  0  0  0  0  0  0  0  0  0  0  0
   26.8360  -20.2508   -9.2104 C   0  0  0  0  0  0  0  0  0  0  0  0
   25.8571  -19.5036   -8.8222 O   0  0  0  0  0  0  0  0  0  0  0  0
   23.8890  -21.1927   -5.2998 C   0  0  0  0  0  0  0  0  0  0  0  0
   25.1828  -21.0466   -4.0257 S   0  0  0  0  0  0  0  0  0  0  0  0
   26.5856  -20.1682   -4.7766 C   0  0  0  0  0  0  0  0  0  0  0  0
   26.6924  -20.5870   -6.1963 C   0  0  0  0  0  0  0  0  0  0  0  0
   27.7588  -19.7813   -6.9051 C   0  0  2  0  0  0  0  0  0  0  0  0
   27.8671  -20.3673   -8.2460 N   0  0  0  0  0  0  0  0  0  0  0  0
   29.0618  -19.9048   -6.2290 C   0  0  0  0  0  0  0  0  0  0  0  0
   29.8904  -20.7734   -6.5979 O   0  0  0  0  0  0  0  0  0  0  0  0
   29.4481  -19.0978   -5.1786 O   0  0  0  0  0  0  0  0  0  0  0  0
  2  1  1  0
  3  2  2  0
  4  3  1  0
  5 11  1  0
  5  4  2  0
  6  5  1  0
  7  9  1  0
  7  6  1  0
  7  8  1  6
  9 10  2  0
 11 12  2  0
 12  2  1  0
 14 13  1  0
 15 16  1  1
 15 14  1  0
 15 17  1  0
 17 18  1  6
 18  9  1  0
 19 26  1  0
 19 17  1  0
 20 19  2  0
 22 23  1  0
 22 21  1  0
 23 24  1  0
 25 24  1  1
 25 26  1  0
 25 27  1  0
 27 29  1  0
 28 27  2  0
M  END
$$$$
