YIM.pdb
     RDKit          3D

 29 29  0  0  1  0  0  0  0  0999 V2000
   18.7566  -17.5822  -15.7765 O   0  0  0  0  0  0  0  0  0  0  0  0
   19.5521  -18.3010  -14.8811 C   0  0  0  0  0  0  0  0  0  0  0  0
   19.4008  -19.6594  -14.7007 C   0  0  0  0  0  0  0  0  0  0  0  0
   20.1972  -20.3455  -13.8121 C   0  0  0  0  0  0  0  0  0  0  0  0
   21.1807  -19.7089  -13.0630 C   0  0  0  0  0  0  0  0  0  0  0  0
   22.0218  -20.4850  -12.1163 C   0  0  0  0  0  0  0  0  0  0  0  0
   23.3300  -20.7836  -12.8139 C   0  0  2  0  0  0  0  0  0  0  0  0
   23.0712  -21.6919  -13.8883 N   0  0  0  0  0  0  0  0  0  0  0  0
   24.3767  -21.2326  -11.8768 C   0  0  0  0  0  0  0  0  0  0  0  0
   24.3457  -22.4223  -11.4685 O   0  0  0  0  0  0  0  0  0  0  0  0
   21.3074  -18.3500  -13.2660 C   0  0  0  0  0  0  0  0  0  0  0  0
   20.5214  -17.6566  -14.1467 C   0  0  0  0  0  0  0  0  0  0  0  0
   29.1345  -21.4595  -13.4235 C   0  0  0  0  0  0  0  0  0  0  0  0
   27.8142  -21.6147  -12.6526 C   0  0  0  0  0  0  0  0  0  0  0  0
   27.8291  -20.7795  -11.4067 C   0  0  2  0  0  0  0  0  0  0  0  0
   29.1086  -21.0864  -10.6678 C   0  0  0  0  0  0  0  0  0  0  0  0
   26.5819  -20.9059  -10.6463 C   0  0  2  0  0  0  0  0  0  0  0  0
   25.4185  -20.4324  -11.3962 N   0  0  0  0  0  0  0  0  0  0  0  0
   26.5461  -20.1778   -9.3646 C   0  0  0  0  0  0  0  0  0  0  0  0
   26.2142  -18.9309   -9.3198 O   0  0  0  0  0  0  0  0  0  0  0  0
   28.3119  -20.4017   -1.6905 C   0  0  0  0  0  0  0  0  0  0  0  0
   28.2927  -21.2710   -3.2913 S   0  0  0  0  0  0  0  0  0  0  0  0
   27.6975  -20.0924   -4.5403 C   0  0  0  0  0  0  0  0  0  0  0  0
   27.4267  -20.8384   -5.7942 C   0  0  0  0  0  0  0  0  0  0  0  0
   27.0576  -19.8826   -6.9074 C   0  0  2  0  0  0  0  0  0  0  0  0
   26.8464  -20.7227   -8.0919 N   0  0  0  0  0  0  0  0  0  0  0  0
   28.1525  -18.9377   -7.1875 C   0  0  0  0  0  0  0  0  0  0  0  0
   29.1462  -19.2980   -7.8657 O   0  0  0  0  0  0  0  0  0  0  0  0
   28.1584  -17.6329   -6.7389 O   0  0  0  0  0  0  0  0  0  0  0  0
  2  1  1  0
  3  2  2  0
  4  3  1  0
  5 11  1  0
  5  4  2  0
  6  5  1  0
  7  9  1  0
  7  6  1  0
  7  8  1  6
  9 10  2  0
 11 12  2  0
 12  2  1  0
 14 13  1  0
 15 16  1  1
 15 14  1  0
 15 17  1  0
 17 18  1  6
 18  9  1  0
 19 26  1  0
 19 17  1  0
 20 19  2  0
 22 23  1  0
 22 21  1  0
 23 24  1  0
 25 24  1  1
 25 26  1  0
 25 27  1  0
 27 29  1  0
 28 27  2  0
M  END
$$$$
