YIM.pdb
     RDKit          3D

 29 29  0  0  1  0  0  0  0  0999 V2000
   22.1437  -13.6349  -20.3387 O   0  0  0  0  0  0  0  0  0  0  0  0
   22.2465  -14.8446  -19.6476 C   0  0  0  0  0  0  0  0  0  0  0  0
   22.3311  -14.8930  -18.2724 C   0  0  0  0  0  0  0  0  0  0  0  0
   22.4317  -16.0978  -17.6143 C   0  0  0  0  0  0  0  0  0  0  0  0
   22.4525  -17.3091  -18.2970 C   0  0  0  0  0  0  0  0  0  0  0  0
   22.5594  -18.5885  -17.5504 C   0  0  0  0  0  0  0  0  0  0  0  0
   24.0206  -18.8001  -17.2225 C   0  0  2  0  0  0  0  0  0  0  0  0
   24.7318  -19.0085  -18.4460 N   0  0  0  0  0  0  0  0  0  0  0  0
   24.2227  -19.8572  -16.2140 C   0  0  0  0  0  0  0  0  0  0  0  0
   24.3094  -21.0499  -16.6048 O   0  0  0  0  0  0  0  0  0  0  0  0
   22.3663  -17.2273  -19.6717 C   0  0  0  0  0  0  0  0  0  0  0  0
   22.2659  -16.0353  -20.3375 C   0  0  0  0  0  0  0  0  0  0  0  0
   28.2135  -19.8797  -13.0936 C   0  0  0  0  0  0  0  0  0  0  0  0
   26.9879  -20.2936  -13.9231 C   0  0  0  0  0  0  0  0  0  0  0  0
   25.7785  -20.4297  -13.0462 C   0  0  2  0  0  0  0  0  0  0  0  0
   26.1070  -21.4354  -11.9701 C   0  0  0  0  0  0  0  0  0  0  0  0
   24.5602  -20.6718  -13.8253 C   0  0  2  0  0  0  0  0  0  0  0  0
   24.3279  -19.6401  -14.8361 N   0  0  0  0  0  0  0  0  0  0  0  0
   23.3127  -20.7428  -13.0425 C   0  0  0  0  0  0  0  0  0  0  0  0
   22.7241  -19.6684  -12.6347 O   0  0  0  0  0  0  0  0  0  0  0  0
   23.2740  -21.1240   -7.9043 C   0  0  0  0  0  0  0  0  0  0  0  0
   21.4893  -21.4643   -7.7719 S   0  0  0  0  0  0  0  0  0  0  0  0
   20.8230  -21.5255   -9.4618 C   0  0  0  0  0  0  0  0  0  0  0  0
   21.9555  -21.7045  -10.4038 C   0  0  0  0  0  0  0  0  0  0  0  0
   21.4427  -21.9150  -11.8114 C   0  0  2  0  0  0  0  0  0  0  0  0
   22.6356  -21.9288  -12.6658 N   0  0  0  0  0  0  0  0  0  0  0  0
   20.5707  -20.8061  -12.2355 C   0  0  0  0  0  0  0  0  0  0  0  0
   20.9486  -19.6151  -12.1092 O   0  0  0  0  0  0  0  0  0  0  0  0
   19.3193  -20.9958  -12.7849 O   0  0  0  0  0  0  0  0  0  0  0  0
  2  1  1  0
  3  2  2  0
  4  3  1  0
  5 11  1  0
  5  4  2  0
  6  5  1  0
  7  9  1  0
  7  6  1  0
  7  8  1  6
  9 10  2  0
 11 12  2  0
 12  2  1  0
 14 13  1  0
 15 16  1  1
 15 14  1  0
 15 17  1  0
 17 18  1  6
 18  9  1  0
 19 26  1  0
 19 17  1  0
 20 19  2  0
 22 23  1  0
 22 21  1  0
 23 24  1  0
 25 24  1  1
 25 26  1  0
 25 27  1  0
 27 29  1  0
 28 27  2  0
M  END
$$$$
