HRN.pdb
     RDKit          3D

 30 30  0  0  1  0  0  0  0  0999 V2000
    9.5983  -15.5918   17.0756 N   0  0  0  0  0  0  0  0  0  0  0  0
   10.2021  -14.6455   17.9727 C   0  0  1  0  0  0  0  0  0  0  0  0
    9.3350  -14.4112   19.1895 C   0  0  0  0  0  0  0  0  0  0  0  0
    8.0738  -13.7973   18.7535 C   0  0  0  0  0  0  0  0  0  0  0  0
    7.8758  -12.5628   18.1801 C   0  0  0  0  0  0  0  0  0  0  0  0
    6.5693  -12.3696   17.9252 N   0  0  0  0  0  0  0  0  0  0  0  0
    5.9534  -13.4809   18.3385 C   0  0  0  0  0  0  0  0  0  0  0  0
    6.8426  -14.3548   18.8415 N   0  0  0  0  0  0  0  0  0  0  0  0
   11.5234  -15.1399   18.4873 C   0  0  0  0  0  0  0  0  0  0  0  0
   11.7190  -16.3688   18.5850 O   0  0  0  0  0  0  0  0  0  0  0  0
   18.7159  -12.3312   18.6335 N   0  0  0  0  0  0  0  0  0  0  0  0
   18.5854  -13.2457   17.5599 C   0  0  0  0  0  0  0  0  0  0  0  0
   19.5075  -13.4135   16.6877 N   0  0  0  0  0  0  0  0  0  0  0  0
   17.3878  -14.0099   17.4392 N   0  0  0  0  0  0  0  0  0  0  0  0
   16.9819  -14.8707   18.5281 C   0  0  0  0  0  0  0  0  0  0  0  0
   16.2538  -13.9803   19.5450 C   0  0  0  0  0  0  0  0  0  0  0  0
   14.8678  -13.6885   19.0616 C   0  0  0  0  0  0  0  0  0  0  0  0
   13.8446  -14.7467   19.3066 C   0  0  2  0  0  0  0  0  0  0  0  0
   12.5306  -14.2475   18.8556 N   0  0  0  0  0  0  0  0  0  0  0  0
   13.7377  -15.0882   20.7181 C   0  0  0  0  0  0  0  0  0  0  0  0
   13.0571  -14.3561   21.4822 O   0  0  0  0  0  0  0  0  0  0  0  0
   19.4032  -14.1346   15.9537 N   0  0  0  0  0  0  0  0  0  0  0  0
   13.3770  -19.5243   24.7576 C   0  0  0  0  0  0  0  0  0  0  0  0
   13.3457  -18.1607   24.3454 O   0  0  0  0  0  0  0  0  0  0  0  0
   13.2620  -17.3034   25.2607 C   0  0  0  0  0  0  0  0  0  0  0  0
   13.4069  -17.7494   22.9291 C   0  0  2  0  0  0  0  0  0  0  0  0
   14.2630  -16.5051   22.7133 N   0  0  0  0  0  0  0  0  0  0  0  0
   14.3662  -16.2299   21.2772 C   0  0  0  0  0  0  0  0  0  0  0  0
   15.6022  -16.6925   23.2691 O   0  0  0  0  0  0  0  0  0  0  0  0
   16.5934  -17.0482   22.5616 O   0  0  0  0  0  0  0  0  0  0  0  0
  2  1  1  6
  2  3  1  0
  3  4  1  0
  4  8  1  0
  5  6  1  0
  5  4  2  0
  6  7  1  0
  7  8  2  0
  9  2  1  0
  9 10  2  0
 12 11  1  0
 13 12  2  0
 14 12  1  0
 15 14  1  0
 15 16  1  0
 17 16  1  0
 18 17  1  1
 18 19  1  0
 19  9  1  0
 20 18  1  0
 21 20  2  0
 23 24  2  0
 23 22  1  0
 26 25  1  1
 25 23  1  0
 26 27  1  0
 27 20  1  0
 28 26  1  0
 29 28  2  0
 30 28  1  0
M  END
$$$$
