HRN.pdb
     RDKit          3D

 30 30  0  0  1  0  0  0  0  0999 V2000
    9.4409  -16.3457   17.4252 N   0  0  0  0  0  0  0  0  0  0  0  0
    9.0831  -15.4016   18.4475 C   0  0  1  0  0  0  0  0  0  0  0  0
    7.6609  -14.9170   18.2748 C   0  0  0  0  0  0  0  0  0  0  0  0
    7.5131  -14.3755   16.9174 C   0  0  0  0  0  0  0  0  0  0  0  0
    8.1646  -13.3073   16.3462 C   0  0  0  0  0  0  0  0  0  0  0  0
    7.7490  -13.1289   15.0795 N   0  0  0  0  0  0  0  0  0  0  0  0
    6.8402  -14.0835   14.8606 C   0  0  0  0  0  0  0  0  0  0  0  0
    6.6829  -14.8464   15.9564 N   0  0  0  0  0  0  0  0  0  0  0  0
    9.1539  -16.0174   19.8153 C   0  0  0  0  0  0  0  0  0  0  0  0
    8.8826  -15.3191   20.8137 O   0  0  0  0  0  0  0  0  0  0  0  0
   11.1449  -22.5573   20.9166 N   0  0  0  0  0  0  0  0  0  0  0  0
   11.0640  -22.9381   22.2784 C   0  0  0  0  0  0  0  0  0  0  0  0
   11.8645  -23.7905   22.7996 N   0  0  0  0  0  0  0  0  0  0  0  0
   10.0582  -22.3560   23.1045 N   0  0  0  0  0  0  0  0  0  0  0  0
    9.0553  -21.5022   22.5076 C   0  0  0  0  0  0  0  0  0  0  0  0
    9.5674  -20.0611   22.6423 C   0  0  0  0  0  0  0  0  0  0  0  0
    9.2729  -19.2996   21.3880 C   0  0  0  0  0  0  0  0  0  0  0  0
    9.7740  -17.8952   21.3330 C   0  0  2  0  0  0  0  0  0  0  0  0
    9.5171  -17.3539   19.9839 N   0  0  0  0  0  0  0  0  0  0  0  0
   11.2057  -17.8148   21.5866 C   0  0  0  0  0  0  0  0  0  0  0  0
   12.0144  -18.1090   20.6687 O   0  0  0  0  0  0  0  0  0  0  0  0
   11.7591  -24.0632   23.7917 N   0  0  0  0  0  0  0  0  0  0  0  0
   15.9358  -16.7941   23.5661 C   0  0  0  0  0  0  0  0  0  0  0  0
   15.1682  -15.8471   22.8285 O   0  0  0  0  0  0  0  0  0  0  0  0
   15.7916  -14.8518   22.3809 C   0  0  0  0  0  0  0  0  0  0  0  0
   13.7200  -16.0013   22.5884 C   0  0  2  0  0  0  0  0  0  0  0  0
   13.1883  -17.3568   23.0441 N   0  0  0  0  0  0  0  0  0  0  0  0
   11.7381  -17.4046   22.8353 C   0  0  0  0  0  0  0  0  0  0  0  0
   13.4828  -17.5823   24.4583 O   0  0  0  0  0  0  0  0  0  0  0  0
   12.6273  -17.3891   25.3750 O   0  0  0  0  0  0  0  0  0  0  0  0
  2  1  1  6
  2  3  1  0
  3  4  1  0
  4  8  1  0
  5  6  1  0
  5  4  2  0
  6  7  1  0
  7  8  2  0
  9  2  1  0
  9 10  2  0
 12 11  1  0
 13 12  2  0
 14 12  1  0
 15 14  1  0
 15 16  1  0
 17 16  1  0
 18 17  1  6
 18 19  1  0
 19  9  1  0
 20 18  1  0
 21 20  2  0
 23 24  2  0
 23 22  1  0
 26 25  1  6
 25 23  1  0
 26 27  1  0
 27 20  1  0
 28 26  1  0
 29 28  2  0
 30 28  1  0
M  END
$$$$
