HRN.pdb
     RDKit          3D

 30 30  0  0  1  0  0  0  0  0999 V2000
    6.0630  -16.4554   25.7213 N   0  0  0  0  0  0  0  0  0  0  0  0
    6.6137  -15.3837   24.9384 C   0  0  1  0  0  0  0  0  0  0  0  0
    7.5251  -14.5082   25.7692 C   0  0  0  0  0  0  0  0  0  0  0  0
    6.7718  -13.3218   26.1964 C   0  0  0  0  0  0  0  0  0  0  0  0
    5.9758  -12.4945   25.4388 C   0  0  0  0  0  0  0  0  0  0  0  0
    5.4593  -11.5149   26.2021 N   0  0  0  0  0  0  0  0  0  0  0  0
    5.9318  -11.7302   27.4332 C   0  0  0  0  0  0  0  0  0  0  0  0
    6.7255  -12.8152   27.4516 N   0  0  0  0  0  0  0  0  0  0  0  0
    7.4495  -15.9031   23.8041 C   0  0  0  0  0  0  0  0  0  0  0  0
    7.9042  -17.0641   23.8629 O   0  0  0  0  0  0  0  0  0  0  0  0
    6.9186  -14.9250   15.0652 N   0  0  0  0  0  0  0  0  0  0  0  0
    7.7422  -14.1890   15.9518 C   0  0  0  0  0  0  0  0  0  0  0  0
    8.0742  -12.9730   15.7275 N   0  0  0  0  0  0  0  0  0  0  0  0
    8.2225  -14.8174   17.1381 N   0  0  0  0  0  0  0  0  0  0  0  0
    8.9689  -14.0391   18.1016 C   0  0  0  0  0  0  0  0  0  0  0  0
    9.3289  -14.9905   19.2516 C   0  0  0  0  0  0  0  0  0  0  0  0
    8.5395  -14.6319   20.4714 C   0  0  0  0  0  0  0  0  0  0  0  0
    8.5310  -15.6375   21.5738 C   0  0  2  0  0  0  0  0  0  0  0  0
    7.7230  -15.1085   22.6904 N   0  0  0  0  0  0  0  0  0  0  0  0
    9.8704  -15.9107   22.0756 C   0  0  0  0  0  0  0  0  0  0  0  0
   10.3745  -15.1491   22.9410 O   0  0  0  0  0  0  0  0  0  0  0  0
    8.7214  -12.4844   16.3693 N   0  0  0  0  0  0  0  0  0  0  0  0
   11.3416  -19.2817   25.2181 C   0  0  0  0  0  0  0  0  0  0  0  0
   12.1136  -18.4737   24.3341 O   0  0  0  0  0  0  0  0  0  0  0  0
   12.8790  -17.6340   24.8714 C   0  0  0  0  0  0  0  0  0  0  0  0
   12.0383  -18.5950   22.8650 C   0  0  2  0  0  0  0  0  0  0  0  0
   11.9887  -17.2410   22.1637 N   0  0  0  0  0  0  0  0  0  0  0  0
   10.6400  -17.0172   21.6348 C   0  0  0  0  0  0  0  0  0  0  0  0
   12.9550  -17.1872   21.0678 O   0  0  0  0  0  0  0  0  0  0  0  0
   14.0625  -16.5755   21.1611 O   0  0  0  0  0  0  0  0  0  0  0  0
  2  1  1  1
  2  3  1  0
  3  4  1  0
  4  8  1  0
  5  6  1  0
  5  4  2  0
  6  7  1  0
  7  8  2  0
  9  2  1  0
  9 10  2  0
 12 11  1  0
 13 12  2  0
 14 12  1  0
 15 14  1  0
 15 16  1  0
 17 16  1  0
 18 17  1  6
 18 19  1  0
 19  9  1  0
 20 18  1  0
 21 20  2  0
 23 24  2  0
 23 22  1  0
 26 25  1  1
 25 23  1  0
 26 27  1  0
 27 20  1  0
 28 26  1  0
 29 28  2  0
 30 28  1  0
M  END
$$$$
