HRN.pdb
     RDKit          3D

 30 30  0  0  1  0  0  0  0  0999 V2000
    9.5154  -15.8769   17.5184 N   0  0  0  0  0  0  0  0  0  0  0  0
   10.4186  -14.9191   18.0942 C   0  0  1  0  0  0  0  0  0  0  0  0
   10.0213  -14.5720   19.5116 C   0  0  0  0  0  0  0  0  0  0  0  0
    8.7644  -13.8130   19.4722 C   0  0  0  0  0  0  0  0  0  0  0  0
    8.0534  -13.3906   18.3731 C   0  0  0  0  0  0  0  0  0  0  0  0
    6.9513  -12.7222   18.7576 N   0  0  0  0  0  0  0  0  0  0  0  0
    6.9743  -12.7274   20.0935 C   0  0  0  0  0  0  0  0  0  0  0  0
    8.0596  -13.3801   20.5448 N   0  0  0  0  0  0  0  0  0  0  0  0
   11.8182  -15.4580   18.1702 C   0  0  0  0  0  0  0  0  0  0  0  0
   12.0006  -16.6918   18.1192 O   0  0  0  0  0  0  0  0  0  0  0  0
   18.1130  -12.2986   13.5788 N   0  0  0  0  0  0  0  0  0  0  0  0
   18.2407  -12.5406   14.9684 C   0  0  0  0  0  0  0  0  0  0  0  0
   18.4728  -11.6024   15.8081 N   0  0  0  0  0  0  0  0  0  0  0  0
   18.1075  -13.8733   15.4573 N   0  0  0  0  0  0  0  0  0  0  0  0
   16.7877  -14.4112   15.7025 C   0  0  0  0  0  0  0  0  0  0  0  0
   16.5377  -14.2925   17.2126 C   0  0  0  0  0  0  0  0  0  0  0  0
   15.0931  -13.9934   17.4647 C   0  0  0  0  0  0  0  0  0  0  0  0
   14.2821  -15.0970   18.0571 C   0  0  2  0  0  0  0  0  0  0  0  0
   12.9123  -14.6015   18.2963 N   0  0  0  0  0  0  0  0  0  0  0  0
   14.8255  -15.5536   19.3286 C   0  0  0  0  0  0  0  0  0  0  0  0
   15.9298  -16.1560   19.3492 O   0  0  0  0  0  0  0  0  0  0  0  0
   18.6092  -11.8233   16.8093 N   0  0  0  0  0  0  0  0  0  0  0  0
   16.9285  -13.0087   21.1205 C   0  0  0  0  0  0  0  0  0  0  0  0
   16.7451  -14.2696   21.7583 O   0  0  0  0  0  0  0  0  0  0  0  0
   17.7049  -15.0774   21.6828 C   0  0  0  0  0  0  0  0  0  0  0  0
   15.5069  -14.6332   22.4749 C   0  0  2  0  0  0  0  0  0  0  0  0
   14.7661  -15.7946   21.8192 N   0  0  0  0  0  0  0  0  0  0  0  0
   14.1625  -15.3386   20.5636 C   0  0  0  0  0  0  0  0  0  0  0  0
   13.7203  -16.3089   22.7019 O   0  0  0  0  0  0  0  0  0  0  0  0
   13.9630  -16.7501   23.8664 O   0  0  0  0  0  0  0  0  0  0  0  0
  2  1  1  1
  2  3  1  0
  3  4  1  0
  4  8  1  0
  5  6  1  0
  5  4  2  0
  6  7  1  0
  7  8  2  0
  9  2  1  0
  9 10  2  0
 12 11  1  0
 13 12  2  0
 14 12  1  0
 15 14  1  0
 15 16  1  0
 17 16  1  0
 18 17  1  1
 18 19  1  0
 19  9  1  0
 20 18  1  0
 21 20  2  0
 23 24  2  0
 23 22  1  0
 26 25  1  6
 25 23  1  0
 26 27  1  0
 27 20  1  0
 28 26  1  0
 29 28  2  0
 30 28  1  0
M  END
$$$$
