HRN.pdb
     RDKit          3D

 30 30  0  0  1  0  0  0  0  0999 V2000
   10.1849  -14.6599   21.3683 N   0  0  0  0  0  0  0  0  0  0  0  0
    9.0244  -15.0015   22.1438 C   0  0  1  0  0  0  0  0  0  0  0  0
    7.8037  -15.1605   21.2652 C   0  0  0  0  0  0  0  0  0  0  0  0
    7.9029  -14.2093   20.1504 C   0  0  0  0  0  0  0  0  0  0  0  0
    8.9521  -13.3832   19.8206 C   0  0  0  0  0  0  0  0  0  0  0  0
    8.6526  -12.6611   18.7261 N   0  0  0  0  0  0  0  0  0  0  0  0
    7.4194  -13.0355   18.3736 C   0  0  0  0  0  0  0  0  0  0  0  0
    6.9490  -13.9686   19.2195 N   0  0  0  0  0  0  0  0  0  0  0  0
    9.2035  -16.3117   22.8554 C   0  0  0  0  0  0  0  0  0  0  0  0
    8.2185  -16.8482   23.4030 O   0  0  0  0  0  0  0  0  0  0  0  0
   10.5747  -22.6121   21.7051 N   0  0  0  0  0  0  0  0  0  0  0  0
   11.4588  -23.2815   22.5861 C   0  0  0  0  0  0  0  0  0  0  0  0
   11.2690  -24.4920   22.9573 N   0  0  0  0  0  0  0  0  0  0  0  0
   12.6028  -22.5896   23.0815 N   0  0  0  0  0  0  0  0  0  0  0  0
   12.8050  -21.2034   22.7225 C   0  0  0  0  0  0  0  0  0  0  0  0
   11.8830  -20.3752   23.6287 C   0  0  0  0  0  0  0  0  0  0  0  0
   11.4899  -19.1108   22.9311 C   0  0  0  0  0  0  0  0  0  0  0  0
   10.6384  -18.1632   23.7080 C   0  0  2  0  0  0  0  0  0  0  0  0
   10.4508  -16.9343   22.9119 N   0  0  0  0  0  0  0  0  0  0  0  0
   11.2507  -17.7908   24.9757 C   0  0  0  0  0  0  0  0  0  0  0  0
   12.0654  -16.8328   25.0117 O   0  0  0  0  0  0  0  0  0  0  0  0
   11.9037  -24.9296   23.6467 N   0  0  0  0  0  0  0  0  0  0  0  0
   11.4804  -15.8507   29.6912 C   0  0  0  0  0  0  0  0  0  0  0  0
   10.3302  -15.8744   28.8505 O   0  0  0  0  0  0  0  0  0  0  0  0
    9.3001  -15.3112   29.2992 C   0  0  0  0  0  0  0  0  0  0  0  0
   10.3210  -16.5176   27.5221 C   0  0  1  0  0  0  0  0  0  0  0  0
   11.1634  -17.7889   27.4771 N   0  0  0  0  0  0  0  0  0  0  0  0
   10.9590  -18.4614   26.1907 C   0  0  0  0  0  0  0  0  0  0  0  0
   10.7946  -18.6958   28.5629 O   0  0  0  0  0  0  0  0  0  0  0  0
   10.9398  -18.3935   29.7865 O   0  0  0  0  0  0  0  0  0  0  0  0
  2  1  1  6
  2  3  1  0
  3  4  1  0
  4  8  1  0
  5  6  1  0
  5  4  2  0
  6  7  1  0
  7  8  2  0
  9  2  1  0
  9 10  2  0
 12 11  1  0
 13 12  2  0
 14 12  1  0
 15 14  1  0
 15 16  1  0
 17 16  1  0
 18 17  1  6
 18 19  1  0
 19  9  1  0
 20 18  1  0
 21 20  2  0
 23 24  2  0
 23 22  1  0
 26 25  1  6
 25 23  1  0
 26 27  1  0
 27 20  1  0
 28 26  1  0
 29 28  2  0
 30 28  1  0
M  END
$$$$
