HRN.pdb
     RDKit          3D

 30 30  0  0  1  0  0  0  0  0999 V2000
    9.6328  -14.5894   20.2784 N   0  0  0  0  0  0  0  0  0  0  0  0
    8.2366  -14.7009   20.5990 C   0  0  1  0  0  0  0  0  0  0  0  0
    7.4806  -15.4355   19.5145 C   0  0  0  0  0  0  0  0  0  0  0  0
    7.6434  -14.7021   18.2523 C   0  0  0  0  0  0  0  0  0  0  0  0
    8.4444  -13.6149   17.9910 C   0  0  0  0  0  0  0  0  0  0  0  0
    8.3112  -13.2333   16.7081 N   0  0  0  0  0  0  0  0  0  0  0  0
    7.4292  -14.0804   16.1700 C   0  0  0  0  0  0  0  0  0  0  0  0
    7.0139  -14.9742   17.0843 N   0  0  0  0  0  0  0  0  0  0  0  0
    8.0224  -15.4822   21.8634 C   0  0  0  0  0  0  0  0  0  0  0  0
    6.9543  -16.1089   22.0199 O   0  0  0  0  0  0  0  0  0  0  0  0
    4.9742  -21.3603   24.7823 N   0  0  0  0  0  0  0  0  0  0  0  0
    6.1745  -20.9175   24.1747 C   0  0  0  0  0  0  0  0  0  0  0  0
    6.2504  -20.6479   22.9254 N   0  0  0  0  0  0  0  0  0  0  0  0
    7.3439  -20.7642   24.9758 N   0  0  0  0  0  0  0  0  0  0  0  0
    8.5054  -20.1071   24.4185 C   0  0  0  0  0  0  0  0  0  0  0  0
    8.4768  -18.6582   24.9253 C   0  0  0  0  0  0  0  0  0  0  0  0
    8.5990  -17.7150   23.7698 C   0  0  0  0  0  0  0  0  0  0  0  0
    8.7654  -16.2713   24.1083 C   0  0  2  0  0  0  0  0  0  0  0  0
    8.9973  -15.5167   22.8608 N   0  0  0  0  0  0  0  0  0  0  0  0
    9.9007  -16.0437   24.9913 C   0  0  0  0  0  0  0  0  0  0  0  0
   10.8734  -16.8414   24.9670 O   0  0  0  0  0  0  0  0  0  0  0  0
    7.1651  -20.4273   22.4962 N   0  0  0  0  0  0  0  0  0  0  0  0
   11.0478  -14.7013   30.1354 C   0  0  0  0  0  0  0  0  0  0  0  0
    9.8257  -15.2375   29.6362 O   0  0  0  0  0  0  0  0  0  0  0  0
    9.1381  -15.9071   30.4477 C   0  0  0  0  0  0  0  0  0  0  0  0
    9.3684  -15.0335   28.2478 C   0  0  1  0  0  0  0  0  0  0  0  0
   10.5064  -15.1137   27.2347 N   0  0  0  0  0  0  0  0  0  0  0  0
    9.9659  -14.9428   25.8829 C   0  0  0  0  0  0  0  0  0  0  0  0
   11.1923  -16.4017   27.3241 O   0  0  0  0  0  0  0  0  0  0  0  0
   12.4274  -16.5022   27.5963 O   0  0  0  0  0  0  0  0  0  0  0  0
  2  1  1  6
  2  3  1  0
  3  4  1  0
  4  8  1  0
  5  6  1  0
  5  4  2  0
  6  7  1  0
  7  8  2  0
  9  2  1  0
  9 10  2  0
 12 11  1  0
 13 12  2  0
 14 12  1  0
 15 14  1  0
 15 16  1  0
 17 16  1  0
 18 17  1  6
 18 19  1  0
 19  9  1  0
 20 18  1  0
 21 20  2  0
 23 24  2  0
 23 22  1  0
 26 25  1  1
 25 23  1  0
 26 27  1  0
 27 20  1  0
 28 26  1  0
 29 28  2  0
 30 28  1  0
M  END
$$$$
