LEQ.pdb
     RDKit          3D

 27 26  0  0  1  0  0  0  0  0999 V2000
   12.8050  -13.0578  -11.7400 C   0  0  0  0  0  0  0  0  0  0  0  0
   14.2306  -12.6755  -11.9812 C   0  0  1  0  0  0  0  0  0  0  0  0
   14.2577  -11.9014  -13.3067 C   0  0  0  0  0  0  0  0  0  0  0  0
   14.8357  -11.8081  -10.9206 C   0  0  0  0  0  0  0  0  0  0  0  0
   16.2578  -11.4866  -11.2677 C   0  0  2  0  0  0  0  0  0  0  0  0
   17.1079  -12.5448  -10.7427 N   0  0  0  0  0  0  0  0  0  0  0  0
   16.7139  -10.2072  -10.6567 C   0  0  0  0  0  0  0  0  0  0  0  0
   16.7114  -10.0249   -9.4003 O   0  0  0  0  0  0  0  0  0  0  0  0
   17.1784   -9.1151  -11.4384 N   0  0  0  0  0  0  0  0  0  0  0  0
   17.5865   -7.8638  -10.8271 C   0  0  1  0  0  0  0  0  0  0  0  0
   18.7076   -7.2069  -11.5776 C   0  0  0  0  0  0  0  0  0  0  0  0
   20.0435   -7.8592  -11.2808 C   0  0  0  0  0  0  0  0  0  0  0  0
   21.0935   -7.2815  -12.1503 C   0  0  0  0  0  0  0  0  0  0  0  0
   21.6606   -8.0602  -12.9798 O   0  0  0  0  0  0  0  0  0  0  0  0
   16.4487   -6.9167  -10.7305 C   0  0  0  0  0  0  0  0  0  0  0  0
   15.6413   -6.7270  -11.6800 O   0  0  0  0  0  0  0  0  0  0  0  0
   21.5077   -5.9587  -12.1311 O   0  0  0  0  0  0  0  0  0  0  0  0
   12.2927   -3.2833   -5.7329 N   0  0  0  0  0  0  0  0  0  0  0  0
   13.3524   -4.0435   -6.2789 C   0  0  0  0  0  0  0  0  0  0  0  0
   14.1088   -4.6604   -5.4939 O   0  0  0  0  0  0  0  0  0  0  0  0
   13.6141   -4.1471   -7.7349 C   0  0  0  0  0  0  0  0  0  0  0  0
   14.7168   -5.1117   -7.9754 C   0  0  0  0  0  0  0  0  0  0  0  0
   15.2084   -5.2027   -9.3743 C   0  0  2  0  0  0  0  0  0  0  0  0
   16.2620   -6.1991   -9.5293 N   0  0  0  0  0  0  0  0  0  0  0  0
   15.5962   -3.9298   -9.9857 C   0  0  0  0  0  0  0  0  0  0  0  0
   16.7586   -3.4613   -9.9997 O   0  0  0  0  0  0  0  0  0  0  0  0
   14.6267   -3.1603  -10.6016 O   0  0  0  0  0  0  0  0  0  0  0  0
  2  4  1  0
  2  1  1  1
  2  3  1  0
  5  4  1  0
  5  6  1  1
  7  5  1  0
  8  7  2  0
  9  7  1  0
 10  9  1  0
 10 11  1  6
 12 11  1  0
 13 12  1  0
 13 14  2  0
 15 10  1  0
 15 24  1  0
 16 15  2  0
 17 13  1  0
 19 18  1  0
 20 19  2  0
 21 19  1  0
 22 21  1  0
 23 22  1  1
 23 25  1  0
 23 24  1  0
 25 27  1  0
 26 25  2  0
M  END
$$$$
