LEQ.pdb
     RDKit          3D

 27 26  0  0  1  0  0  0  0  0999 V2000
   27.3972  -14.7608  -17.6841 C   0  0  0  0  0  0  0  0  0  0  0  0
   26.6925  -14.1454  -16.5173 C   0  0  1  0  0  0  0  0  0  0  0  0
   27.7684  -13.4425  -15.6775 C   0  0  0  0  0  0  0  0  0  0  0  0
   25.6466  -13.1355  -16.8774 C   0  0  0  0  0  0  0  0  0  0  0  0
   25.0136  -12.5846  -15.6356 C   0  0  2  0  0  0  0  0  0  0  0  0
   24.4826  -13.6960  -14.8603 N   0  0  0  0  0  0  0  0  0  0  0  0
   23.8765  -11.6713  -15.9376 C   0  0  0  0  0  0  0  0  0  0  0  0
   24.0033  -10.6761  -16.7156 O   0  0  0  0  0  0  0  0  0  0  0  0
   22.5841  -11.8557  -15.3762 N   0  0  0  0  0  0  0  0  0  0  0  0
   21.4719  -10.9948  -15.7332 C   0  0  1  0  0  0  0  0  0  0  0  0
   20.1503  -11.5840  -15.3360 C   0  0  0  0  0  0  0  0  0  0  0  0
   19.7265  -12.7001  -16.2703 C   0  0  0  0  0  0  0  0  0  0  0  0
   18.4125  -13.2393  -15.8521 C   0  0  0  0  0  0  0  0  0  0  0  0
   17.5675  -13.4966  -16.7662 O   0  0  0  0  0  0  0  0  0  0  0  0
   21.6097   -9.6540  -15.1134 C   0  0  0  0  0  0  0  0  0  0  0  0
   21.9900   -9.4930  -13.9223 O   0  0  0  0  0  0  0  0  0  0  0  0
   18.0304  -13.4852  -14.5424 O   0  0  0  0  0  0  0  0  0  0  0  0
   22.9634   -4.5666  -18.4018 N   0  0  0  0  0  0  0  0  0  0  0  0
   22.6827   -4.0170  -17.1297 C   0  0  0  0  0  0  0  0  0  0  0  0
   22.8248   -2.7829  -16.9697 O   0  0  0  0  0  0  0  0  0  0  0  0
   22.2288   -4.8286  -15.9744 C   0  0  0  0  0  0  0  0  0  0  0  0
   22.0504   -6.2406  -16.3971 C   0  0  0  0  0  0  0  0  0  0  0  0
   21.4803   -7.1581  -15.3773 C   0  0  2  0  0  0  0  0  0  0  0  0
   21.3028   -8.5133  -15.8863 N   0  0  0  0  0  0  0  0  0  0  0  0
   20.2627   -6.6820  -14.7175 C   0  0  0  0  0  0  0  0  0  0  0  0
   19.1092   -7.1259  -14.9257 O   0  0  0  0  0  0  0  0  0  0  0  0
   20.3597   -5.6624  -13.7888 O   0  0  0  0  0  0  0  0  0  0  0  0
  2  4  1  0
  2  1  1  6
  2  3  1  0
  5  4  1  0
  5  6  1  1
  7  5  1  0
  8  7  2  0
  9  7  1  0
 10  9  1  0
 10 11  1  1
 12 11  1  0
 13 12  1  0
 13 14  2  0
 15 10  1  0
 15 24  1  0
 16 15  2  0
 17 13  1  0
 19 18  1  0
 20 19  2  0
 21 19  1  0
 22 21  1  0
 23 22  1  6
 23 25  1  0
 23 24  1  0
 25 27  1  0
 26 25  2  0
M  END
$$$$
