LEQ.pdb
     RDKit          3D

 27 26  0  0  1  0  0  0  0  0999 V2000
   28.4631  -19.5767  -11.7833 C   0  0  0  0  0  0  0  0  0  0  0  0
   27.5564  -20.6412  -12.3140 C   0  0  1  0  0  0  0  0  0  0  0  0
   28.0542  -21.9709  -11.7300 C   0  0  0  0  0  0  0  0  0  0  0  0
   26.1141  -20.4786  -11.9440 C   0  0  0  0  0  0  0  0  0  0  0  0
   25.2893  -21.5384  -12.6095 C   0  0  2  0  0  0  0  0  0  0  0  0
   25.7163  -21.6476  -13.9965 N   0  0  0  0  0  0  0  0  0  0  0  0
   23.8380  -21.2039  -12.6174 C   0  0  0  0  0  0  0  0  0  0  0  0
   23.3520  -20.3057  -11.8630 O   0  0  0  0  0  0  0  0  0  0  0  0
   22.9102  -21.8663  -13.4659 N   0  0  0  0  0  0  0  0  0  0  0  0
   21.5104  -21.4855  -13.5034 C   0  0  1  0  0  0  0  0  0  0  0  0
   21.0562  -21.1359  -14.8902 C   0  0  0  0  0  0  0  0  0  0  0  0
   21.9950  -20.1519  -15.5600 C   0  0  0  0  0  0  0  0  0  0  0  0
   21.5294  -19.8639  -16.9357 C   0  0  0  0  0  0  0  0  0  0  0  0
   22.2647  -20.2544  -17.8964 O   0  0  0  0  0  0  0  0  0  0  0  0
   20.6453  -22.5656  -12.9689 C   0  0  0  0  0  0  0  0  0  0  0  0
   20.9182  -23.7879  -13.1138 O   0  0  0  0  0  0  0  0  0  0  0  0
   20.3554  -19.2015  -17.2592 O   0  0  0  0  0  0  0  0  0  0  0  0
   19.3909  -24.0243   -7.7912 N   0  0  0  0  0  0  0  0  0  0  0  0
   18.1285  -24.4597   -8.2559 C   0  0  0  0  0  0  0  0  0  0  0  0
   17.4769  -25.2607   -7.5470 O   0  0  0  0  0  0  0  0  0  0  0  0
   17.5369  -24.0160   -9.5413 C   0  0  0  0  0  0  0  0  0  0  0  0
   18.4601  -23.0670  -10.2133 C   0  0  0  0  0  0  0  0  0  0  0  0
   18.5825  -23.2112  -11.6867 C   0  0  2  0  0  0  0  0  0  0  0  0
   19.4702  -22.2123  -12.2709 N   0  0  0  0  0  0  0  0  0  0  0  0
   17.3148  -23.2775  -12.4168 C   0  0  0  0  0  0  0  0  0  0  0  0
   16.7365  -24.3342  -12.7630 O   0  0  0  0  0  0  0  0  0  0  0  0
   16.6827  -22.0992  -12.7684 O   0  0  0  0  0  0  0  0  0  0  0  0
  2  4  1  0
  2  1  1  1
  2  3  1  0
  5  4  1  0
  5  6  1  6
  7  5  1  0
  8  7  2  0
  9  7  1  0
 10  9  1  0
 10 11  1  6
 12 11  1  0
 13 12  1  0
 13 14  2  0
 15 10  1  0
 15 24  1  0
 16 15  2  0
 17 13  1  0
 19 18  1  0
 20 19  2  0
 21 19  1  0
 22 21  1  0
 23 22  1  1
 23 25  1  0
 23 24  1  0
 25 27  1  0
 26 25  2  0
M  END
$$$$
