LEQ.pdb
     RDKit          3D

 27 26  0  0  1  0  0  0  0  0999 V2000
   31.3839  -20.7203  -11.9284 C   0  0  0  0  0  0  0  0  0  0  0  0
   30.3007  -20.2122  -12.8259 C   0  0  1  0  0  0  0  0  0  0  0  0
   30.8609  -20.2544  -14.2546 C   0  0  0  0  0  0  0  0  0  0  0  0
   29.0346  -21.0119  -12.7961 C   0  0  0  0  0  0  0  0  0  0  0  0
   27.9968  -20.3654  -13.6628 C   0  0  2  0  0  0  0  0  0  0  0  0
   27.9626  -18.9437  -13.3535 N   0  0  0  0  0  0  0  0  0  0  0  0
   26.6324  -20.9070  -13.4113 C   0  0  0  0  0  0  0  0  0  0  0  0
   26.3357  -22.1175  -13.6528 O   0  0  0  0  0  0  0  0  0  0  0  0
   25.5817  -20.1061  -12.8876 N   0  0  0  0  0  0  0  0  0  0  0  0
   24.2779  -20.6674  -12.5863 C   0  0  1  0  0  0  0  0  0  0  0  0
   23.9357  -20.5531  -11.1297 C   0  0  0  0  0  0  0  0  0  0  0  0
   25.0338  -21.1124  -10.2468 C   0  0  0  0  0  0  0  0  0  0  0  0
   24.6587  -20.9715   -8.8214 C   0  0  0  0  0  0  0  0  0  0  0  0
   23.4248  -20.8266   -8.5522 O   0  0  0  0  0  0  0  0  0  0  0  0
   23.2134  -20.0130  -13.3860 C   0  0  0  0  0  0  0  0  0  0  0  0
   23.1201  -18.7606  -13.4957 O   0  0  0  0  0  0  0  0  0  0  0  0
   25.5468  -20.9844   -7.7569 O   0  0  0  0  0  0  0  0  0  0  0  0
   21.8903  -21.9403  -18.8203 N   0  0  0  0  0  0  0  0  0  0  0  0
   20.5615  -21.8182  -18.3528 C   0  0  0  0  0  0  0  0  0  0  0  0
   19.6314  -22.2154  -19.0917 O   0  0  0  0  0  0  0  0  0  0  0  0
   20.2131  -21.2427  -17.0312 C   0  0  0  0  0  0  0  0  0  0  0  0
   21.4462  -20.7682  -16.3539 C   0  0  0  0  0  0  0  0  0  0  0  0
   21.2751  -20.2700  -14.9649 C   0  0  2  0  0  0  0  0  0  0  0  0
   22.2672  -20.8232  -14.0501 N   0  0  0  0  0  0  0  0  0  0  0  0
   19.9242  -20.4004  -14.4148 C   0  0  0  0  0  0  0  0  0  0  0  0
   19.5275  -21.3457  -13.6938 O   0  0  0  0  0  0  0  0  0  0  0  0
   18.9895  -19.4215  -14.6968 O   0  0  0  0  0  0  0  0  0  0  0  0
  2  4  1  0
  2  1  1  1
  2  3  1  0
  5  4  1  0
  5  6  1  1
  7  5  1  0
  8  7  2  0
  9  7  1  0
 10  9  1  0
 10 11  1  1
 12 11  1  0
 13 12  1  0
 13 14  2  0
 15 10  1  0
 15 24  1  0
 16 15  2  0
 17 13  1  0
 19 18  1  0
 20 19  2  0
 21 19  1  0
 22 21  1  0
 23 22  1  6
 23 25  1  0
 23 24  1  0
 25 27  1  0
 26 25  2  0
M  END
$$$$
