LEQ.pdb
     RDKit          3D

 27 26  0  0  1  0  0  0  0  0999 V2000
   27.1092  -17.3860  -16.5391 C   0  0  0  0  0  0  0  0  0  0  0  0
   26.5314  -18.7260  -16.2114 C   0  0  1  0  0  0  0  0  0  0  0  0
   27.7186  -19.6839  -16.0390 C   0  0  0  0  0  0  0  0  0  0  0  0
   25.7120  -18.7665  -14.9582 C   0  0  0  0  0  0  0  0  0  0  0  0
   25.1615  -20.1444  -14.7474 C   0  0  2  0  0  0  0  0  0  0  0  0
   25.0793  -20.8078  -16.0402 N   0  0  0  0  0  0  0  0  0  0  0  0
   23.7879  -20.1229  -14.1719 C   0  0  0  0  0  0  0  0  0  0  0  0
   23.5332  -19.5580  -13.0639 O   0  0  0  0  0  0  0  0  0  0  0  0
   22.6813  -20.7308  -14.8241 N   0  0  0  0  0  0  0  0  0  0  0  0
   21.3340  -20.6170  -14.2973 C   0  0  1  0  0  0  0  0  0  0  0  0
   20.3904  -19.9976  -15.2862 C   0  0  0  0  0  0  0  0  0  0  0  0
   18.9859  -19.8795  -14.7281 C   0  0  0  0  0  0  0  0  0  0  0  0
   18.8311  -18.5916  -14.0143 C   0  0  0  0  0  0  0  0  0  0  0  0
   19.8897  -17.9440  -13.7388 O   0  0  0  0  0  0  0  0  0  0  0  0
   20.8040  -21.9404  -13.8866 C   0  0  0  0  0  0  0  0  0  0  0  0
   21.0899  -23.0052  -14.4980 O   0  0  0  0  0  0  0  0  0  0  0  0
   17.6230  -18.0361  -13.6220 O   0  0  0  0  0  0  0  0  0  0  0  0
   17.8846  -25.1965   -7.8394 N   0  0  0  0  0  0  0  0  0  0  0  0
   18.2990  -24.1858   -8.7370 C   0  0  0  0  0  0  0  0  0  0  0  0
   18.2878  -22.9973   -8.3420 O   0  0  0  0  0  0  0  0  0  0  0  0
   18.7460  -24.4620  -10.1238 C   0  0  0  0  0  0  0  0  0  0  0  0
   19.1520  -23.1927  -10.7783 C   0  0  0  0  0  0  0  0  0  0  0  0
   19.4801  -23.2820  -12.2244 C   0  0  2  0  0  0  0  0  0  0  0  0
   19.9459  -22.0114  -12.7680 N   0  0  0  0  0  0  0  0  0  0  0  0
   18.4339  -23.8620  -13.0692 C   0  0  0  0  0  0  0  0  0  0  0  0
   17.4662  -23.2302  -13.5542 O   0  0  0  0  0  0  0  0  0  0  0  0
   18.4886  -25.2099  -13.3716 O   0  0  0  0  0  0  0  0  0  0  0  0
  2  4  1  0
  2  1  1  1
  2  3  1  0
  5  4  1  0
  5  6  1  6
  7  5  1  0
  8  7  2  0
  9  7  1  0
 10  9  1  0
 10 11  1  6
 12 11  1  0
 13 12  1  0
 13 14  2  0
 15 10  1  0
 15 24  1  0
 16 15  2  0
 17 13  1  0
 19 18  1  0
 20 19  2  0
 21 19  1  0
 22 21  1  0
 23 22  1  1
 23 25  1  0
 23 24  1  0
 25 27  1  0
 26 25  2  0
M  END
$$$$
