LEQ.pdb
     RDKit          3D

 27 26  0  0  1  0  0  0  0  0999 V2000
   39.1264  -11.5359  -13.3956 C   0  0  0  0  0  0  0  0  0  0  0  0
   37.8680  -11.6423  -14.1969 C   0  0  1  0  0  0  0  0  0  0  0  0
   36.7782  -12.1379  -13.2359 C   0  0  0  0  0  0  0  0  0  0  0  0
   37.4029  -10.3564  -14.8083 C   0  0  0  0  0  0  0  0  0  0  0  0
   36.0889  -10.5607  -15.4996 C   0  0  2  0  0  0  0  0  0  0  0  0
   36.2914  -11.4861  -16.6044 N   0  0  0  0  0  0  0  0  0  0  0  0
   35.5490   -9.2966  -16.0732 C   0  0  0  0  0  0  0  0  0  0  0  0
   36.1004   -8.7176  -17.0592 O   0  0  0  0  0  0  0  0  0  0  0  0
   34.3877   -8.6623  -15.5548 N   0  0  0  0  0  0  0  0  0  0  0  0
   33.9373   -7.3772  -16.0564 C   0  0  1  0  0  0  0  0  0  0  0  0
   32.4791   -7.3877  -16.4103 C   0  0  0  0  0  0  0  0  0  0  0  0
   32.2200   -8.1183  -17.7130 C   0  0  0  0  0  0  0  0  0  0  0  0
   30.7676   -8.1422  -18.0001 C   0  0  0  0  0  0  0  0  0  0  0  0
   30.0056   -7.4897  -17.2194 O   0  0  0  0  0  0  0  0  0  0  0  0
   34.1880   -6.2976  -15.0703 C   0  0  0  0  0  0  0  0  0  0  0  0
   33.8132   -6.3753  -13.8691 O   0  0  0  0  0  0  0  0  0  0  0  0
   30.1727   -8.8205  -19.0527 O   0  0  0  0  0  0  0  0  0  0  0  0
   39.1368   -3.4328  -11.2969 N   0  0  0  0  0  0  0  0  0  0  0  0
   38.3892   -4.1103  -12.2875 C   0  0  0  0  0  0  0  0  0  0  0  0
   38.7956   -5.2283  -12.6796 O   0  0  0  0  0  0  0  0  0  0  0  0
   37.1477   -3.5634  -12.8864 C   0  0  0  0  0  0  0  0  0  0  0  0
   36.5934   -4.5376  -13.8601 C   0  0  0  0  0  0  0  0  0  0  0  0
   35.3444   -4.1274  -14.5519 C   0  0  2  0  0  0  0  0  0  0  0  0
   34.8727   -5.1374  -15.4923 N   0  0  0  0  0  0  0  0  0  0  0  0
   35.3811   -2.8042  -15.1781 C   0  0  0  0  0  0  0  0  0  0  0  0
   35.4403   -2.5918  -16.4119 O   0  0  0  0  0  0  0  0  0  0  0  0
   35.3519   -1.6813  -14.3721 O   0  0  0  0  0  0  0  0  0  0  0  0
  2  4  1  0
  2  1  1  1
  2  3  1  0
  5  4  1  0
  5  6  1  6
  7  5  1  0
  8  7  2  0
  9  7  1  0
 10  9  1  0
 10 11  1  1
 12 11  1  0
 13 12  1  0
 13 14  2  0
 15 10  1  0
 15 24  1  0
 16 15  2  0
 17 13  1  0
 19 18  1  0
 20 19  2  0
 21 19  1  0
 22 21  1  0
 23 22  1  6
 23 25  1  0
 23 24  1  0
 25 27  1  0
 26 25  2  0
M  END
$$$$
