LEQ.pdb
     RDKit          3D

 27 26  0  0  1  0  0  0  0  0999 V2000
   26.0296  -33.0983  -10.7255 C   0  0  0  0  0  0  0  0  0  0  0  0
   24.7105  -32.8960  -10.0503 C   0  0  1  0  0  0  0  0  0  0  0  0
   23.8359  -34.0993  -10.4299 C   0  0  0  0  0  0  0  0  0  0  0  0
   24.7760  -32.8183   -8.5559 C   0  0  0  0  0  0  0  0  0  0  0  0
   23.4128  -32.5491   -7.9942 C   0  0  2  0  0  0  0  0  0  0  0  0
   22.9760  -31.2409   -8.4589 N   0  0  0  0  0  0  0  0  0  0  0  0
   23.4113  -32.5140   -6.5052 C   0  0  0  0  0  0  0  0  0  0  0  0
   24.0387  -31.6228   -5.8542 O   0  0  0  0  0  0  0  0  0  0  0  0
   22.7106  -33.4718   -5.7234 N   0  0  0  0  0  0  0  0  0  0  0  0
   22.7827  -33.4673   -4.2741 C   0  0  1  0  0  0  0  0  0  0  0  0
   21.5159  -33.9661   -3.6432 C   0  0  0  0  0  0  0  0  0  0  0  0
   20.6450  -32.8274   -3.1500 C   0  0  0  0  0  0  0  0  0  0  0  0
   19.3864  -33.3618   -2.5819 C   0  0  0  0  0  0  0  0  0  0  0  0
   18.5635  -32.5255   -2.0926 O   0  0  0  0  0  0  0  0  0  0  0  0
   23.9199  -34.2880   -3.7901 C   0  0  0  0  0  0  0  0  0  0  0  0
   24.1713  -35.4357   -4.2472 O   0  0  0  0  0  0  0  0  0  0  0  0
   19.0345  -34.7020   -2.5408 O   0  0  0  0  0  0  0  0  0  0  0  0
   29.1801  -33.9065   -4.3497 N   0  0  0  0  0  0  0  0  0  0  0  0
   29.3998  -34.4350   -3.0569 C   0  0  0  0  0  0  0  0  0  0  0  0
   30.4738  -35.0402   -2.8355 O   0  0  0  0  0  0  0  0  0  0  0  0
   28.4219  -34.3094   -1.9491 C   0  0  0  0  0  0  0  0  0  0  0  0
   27.1765  -33.6775   -2.4533 C   0  0  0  0  0  0  0  0  0  0  0  0
   25.9329  -34.4749   -2.2973 C   0  0  2  0  0  0  0  0  0  0  0  0
   24.7534  -33.7646   -2.7781 N   0  0  0  0  0  0  0  0  0  0  0  0
   25.7050  -35.0242   -0.9590 C   0  0  0  0  0  0  0  0  0  0  0  0
   25.0194  -34.4786   -0.0629 O   0  0  0  0  0  0  0  0  0  0  0  0
   26.2797  -36.2369   -0.6266 O   0  0  0  0  0  0  0  0  0  0  0  0
  2  4  1  0
  2  1  1  6
  2  3  1  0
  5  4  1  0
  5  6  1  6
  7  5  1  0
  8  7  2  0
  9  7  1  0
 10  9  1  0
 10 11  1  1
 12 11  1  0
 13 12  1  0
 13 14  2  0
 15 10  1  0
 15 24  1  0
 16 15  2  0
 17 13  1  0
 19 18  1  0
 20 19  2  0
 21 19  1  0
 22 21  1  0
 23 22  1  1
 23 25  1  0
 23 24  1  0
 25 27  1  0
 26 25  2  0
M  END
$$$$
