QKP.pdb
     RDKit          3D

 26 26  0  0  1  0  0  0  0  0999 V2000
    8.6466  -18.6123   18.3409 N   0  0  0  0  0  0  0  0  0  0  0  0
    9.9680  -18.1383   18.6416 C   0  0  0  0  0  0  0  0  0  0  0  0
   10.8714  -18.5137   17.8611 O   0  0  0  0  0  0  0  0  0  0  0  0
   10.1842  -17.2715   19.8093 C   0  0  0  0  0  0  0  0  0  0  0  0
    8.9885  -16.8979   20.5970 C   0  0  0  0  0  0  0  0  0  0  0  0
    8.7584  -15.4332   20.7629 C   0  0  2  0  0  0  0  0  0  0  0  0
    9.4384  -14.6089   19.8216 N   0  0  0  0  0  0  0  0  0  0  0  0
    8.9942  -15.0209   22.1749 C   0  0  0  0  0  0  0  0  0  0  0  0
   10.1589  -14.7838   22.5351 O   0  0  0  0  0  0  0  0  0  0  0  0
    7.9513  -14.8864   23.1279 N   0  0  0  0  0  0  0  0  0  0  0  0
    8.2183  -14.4774   24.4926 C   0  0  1  0  0  0  0  0  0  0  0  0
    6.9144  -14.0719   25.1296 C   0  0  0  0  0  0  0  0  0  0  0  0
    6.9482  -12.8820   26.0095 C   0  0  0  0  0  0  0  0  0  0  0  0
    5.6165  -12.5251   26.6253 C   0  0  0  0  0  0  0  0  0  0  0  0
    5.7659  -11.2578   27.4611 C   0  0  0  0  0  0  0  0  0  0  0  0
    4.5038  -10.8969   28.0803 N   0  0  0  0  0  0  0  0  0  0  0  0
    8.9689  -15.4650   25.2539 C   0  0  0  0  0  0  0  0  0  0  0  0
    9.0441  -16.6295   24.7222 O   0  0  0  0  0  0  0  0  0  0  0  0
    9.6098  -15.2946   26.4823 N   0  0  0  0  0  0  0  0  0  0  0  0
    9.3013  -14.1155   27.3528 C   0  0  0  0  0  0  0  0  0  0  0  0
   10.6519  -13.7253   27.8735 C   0  0  0  0  0  0  0  0  0  0  0  0
   11.4262  -14.9967   27.9374 C   0  0  0  0  0  0  0  0  0  0  0  0
   10.5954  -16.0326   27.2306 C   0  0  1  0  0  0  0  0  0  0  0  0
    9.9807  -16.9487   28.2164 C   0  0  0  0  0  0  0  0  0  0  0  0
    8.6267  -16.8744   28.4433 O   0  0  0  0  0  0  0  0  0  0  0  0
   10.6925  -17.7673   28.8217 O   0  0  0  0  0  0  0  0  0  0  0  0
  2  1  1  0
  2  3  2  0
  4  5  1  0
  4  2  1  0
  6  7  1  6
  6  5  1  0
  8  6  1  0
  8  9  2  0
 10  8  1  0
 11 10  1  0
 12 13  1  0
 11 12  1  1
 13 14  1  0
 14 15  1  0
 16 15  1  0
 17 11  1  0
 18 17  2  0
 19 17  1  0
 19 23  1  0
 20 19  1  0
 20 21  1  0
 21 22  1  0
 23 22  1  0
 24 25  1  0
 23 24  1  1
 26 24  2  0
M  END
$$$$
