QKP.pdb
     RDKit          3D

 26 26  0  0  1  0  0  0  0  0999 V2000
    9.0980  -14.5687   16.1253 N   0  0  0  0  0  0  0  0  0  0  0  0
    8.0933  -14.6042   17.1502 C   0  0  0  0  0  0  0  0  0  0  0  0
    7.5621  -15.7190   17.3529 O   0  0  0  0  0  0  0  0  0  0  0  0
    7.7507  -13.3742   17.8791 C   0  0  0  0  0  0  0  0  0  0  0  0
    7.3068  -13.5284   19.2823 C   0  0  0  0  0  0  0  0  0  0  0  0
    8.3679  -13.9235   20.2538 C   0  0  2  0  0  0  0  0  0  0  0  0
    9.2610  -14.9308   19.7895 N   0  0  0  0  0  0  0  0  0  0  0  0
    7.7725  -14.2408   21.5820 C   0  0  0  0  0  0  0  0  0  0  0  0
    6.9758  -13.4297   22.0818 O   0  0  0  0  0  0  0  0  0  0  0  0
    8.0727  -15.4255   22.3034 N   0  0  0  0  0  0  0  0  0  0  0  0
    7.5743  -15.6429   23.6470 C   0  0  1  0  0  0  0  0  0  0  0  0
    7.4822  -17.1281   23.8837 C   0  0  0  0  0  0  0  0  0  0  0  0
    7.1827  -17.5614   25.2672 C   0  0  0  0  0  0  0  0  0  0  0  0
    7.1846  -19.0585   25.4647 C   0  0  0  0  0  0  0  0  0  0  0  0
    6.7965  -19.3820   26.9040 C   0  0  0  0  0  0  0  0  0  0  0  0
    6.7160  -20.8171   27.1060 N   0  0  0  0  0  0  0  0  0  0  0  0
    8.3281  -14.9254   24.6645 C   0  0  0  0  0  0  0  0  0  0  0  0
    9.6019  -14.9368   24.5168 O   0  0  0  0  0  0  0  0  0  0  0  0
    7.8318  -14.2333   25.7706 N   0  0  0  0  0  0  0  0  0  0  0  0
    6.3721  -14.2635   26.1041 C   0  0  0  0  0  0  0  0  0  0  0  0
    6.0967  -12.8487   26.5164 C   0  0  0  0  0  0  0  0  0  0  0  0
    7.3742  -12.3604   27.1077 C   0  0  0  0  0  0  0  0  0  0  0  0
    8.4087  -13.4088   26.8019 C   0  0  1  0  0  0  0  0  0  0  0  0
    8.7260  -14.1799   28.0241 C   0  0  0  0  0  0  0  0  0  0  0  0
    9.5743  -13.6327   28.9574 O   0  0  0  0  0  0  0  0  0  0  0  0
    8.2243  -15.3043   28.1888 O   0  0  0  0  0  0  0  0  0  0  0  0
  2  1  1  0
  2  3  2  0
  4  5  1  0
  4  2  1  0
  6  7  1  6
  6  5  1  0
  8  6  1  0
  8  9  2  0
 10  8  1  0
 11 10  1  0
 12 13  1  0
 11 12  1  1
 13 14  1  0
 14 15  1  0
 16 15  1  0
 17 11  1  0
 18 17  2  0
 19 17  1  0
 19 23  1  0
 20 19  1  0
 20 21  1  0
 21 22  1  0
 23 22  1  0
 24 25  1  0
 23 24  1  1
 26 24  2  0
M  END
$$$$
