QKP.pdb
     RDKit          3D

 26 26  0  0  1  0  0  0  0  0999 V2000
   10.6777  -13.5609   18.5210 N   0  0  0  0  0  0  0  0  0  0  0  0
    9.3492  -13.5690   17.9768 C   0  0  0  0  0  0  0  0  0  0  0  0
    9.2060  -14.1907   16.9002 O   0  0  0  0  0  0  0  0  0  0  0  0
    8.2665  -12.8698   18.6844 C   0  0  0  0  0  0  0  0  0  0  0  0
    8.0495  -13.2319   20.1027 C   0  0  0  0  0  0  0  0  0  0  0  0
    7.6994  -14.6598   20.3566 C   0  0  2  0  0  0  0  0  0  0  0  0
    6.7203  -15.2028   19.4766 N   0  0  0  0  0  0  0  0  0  0  0  0
    7.3722  -14.8730   21.7942 C   0  0  0  0  0  0  0  0  0  0  0  0
    6.3708  -14.3075   22.2629 O   0  0  0  0  0  0  0  0  0  0  0  0
    8.1506  -15.6914   22.6536 N   0  0  0  0  0  0  0  0  0  0  0  0
    7.8144  -15.8571   24.0537 C   0  0  1  0  0  0  0  0  0  0  0  0
    7.5189  -17.3137   24.3010 C   0  0  0  0  0  0  0  0  0  0  0  0
    6.4327  -17.9158   23.4954 C   0  0  0  0  0  0  0  0  0  0  0  0
    6.1586  -19.3678   23.8063 C   0  0  0  0  0  0  0  0  0  0  0  0
    5.0111  -19.8669   22.9339 C   0  0  0  0  0  0  0  0  0  0  0  0
    4.6951  -21.2501   23.2396 N   0  0  0  0  0  0  0  0  0  0  0  0
    8.8069  -15.2914   24.9556 C   0  0  0  0  0  0  0  0  0  0  0  0
   10.0259  -15.4046   24.5741 O   0  0  0  0  0  0  0  0  0  0  0  0
    8.5891  -14.6468   26.1746 N   0  0  0  0  0  0  0  0  0  0  0  0
    7.2005  -14.4320   26.6928 C   0  0  0  0  0  0  0  0  0  0  0  0
    7.2695  -13.0468   27.2620 C   0  0  0  0  0  0  0  0  0  0  0  0
    8.6776  -12.8850   27.7217 C   0  0  0  0  0  0  0  0  0  0  0  0
    9.4338  -14.0719   27.1905 C   0  0  1  0  0  0  0  0  0  0  0  0
    9.7191  -15.0235   28.2869 C   0  0  0  0  0  0  0  0  0  0  0  0
   10.7316  -14.7384   29.1721 O   0  0  0  0  0  0  0  0  0  0  0  0
    9.0436  -16.0608   28.3914 O   0  0  0  0  0  0  0  0  0  0  0  0
  2  1  1  0
  2  3  2  0
  4  5  1  0
  4  2  1  0
  6  7  1  6
  6  5  1  0
  8  6  1  0
  8  9  2  0
 10  8  1  0
 11 10  1  0
 12 13  1  0
 11 12  1  1
 13 14  1  0
 14 15  1  0
 16 15  1  0
 17 11  1  0
 18 17  2  0
 19 17  1  0
 19 23  1  0
 20 19  1  0
 20 21  1  0
 21 22  1  0
 23 22  1  0
 24 25  1  0
 23 24  1  1
 26 24  2  0
M  END
$$$$
