QKP.pdb
     RDKit          3D

 26 26  0  0  1  0  0  0  0  0999 V2000
    7.6931  -12.5301   17.5164 N   0  0  0  0  0  0  0  0  0  0  0  0
    8.2822  -13.7523   17.0470 C   0  0  0  0  0  0  0  0  0  0  0  0
    8.2986  -13.9066   15.8052 O   0  0  0  0  0  0  0  0  0  0  0  0
    8.8129  -14.7248   18.0136 C   0  0  0  0  0  0  0  0  0  0  0  0
    8.6724  -14.3890   19.4479 C   0  0  0  0  0  0  0  0  0  0  0  0
    9.2485  -15.3816   20.4012 C   0  0  2  0  0  0  0  0  0  0  0  0
    9.2275  -16.7312   19.9472 N   0  0  0  0  0  0  0  0  0  0  0  0
    8.6542  -15.2144   21.7569 C   0  0  0  0  0  0  0  0  0  0  0  0
    8.4302  -14.0635   22.1665 O   0  0  0  0  0  0  0  0  0  0  0  0
    8.3322  -16.3075   22.6028 N   0  0  0  0  0  0  0  0  0  0  0  0
    7.7884  -16.1050   23.9310 C   0  0  1  0  0  0  0  0  0  0  0  0
    7.1063  -17.3771   24.3629 C   0  0  0  0  0  0  0  0  0  0  0  0
    6.1889  -18.0027   23.3838 C   0  0  0  0  0  0  0  0  0  0  0  0
    5.6160  -19.3279   23.8263 C   0  0  0  0  0  0  0  0  0  0  0  0
    4.6126  -19.8202   22.7881 C   0  0  0  0  0  0  0  0  0  0  0  0
    4.1123  -21.1369   23.1385 N   0  0  0  0  0  0  0  0  0  0  0  0
    8.7673  -15.6033   24.8842 C   0  0  0  0  0  0  0  0  0  0  0  0
    9.9774  -15.9735   24.6774 O   0  0  0  0  0  0  0  0  0  0  0  0
    8.5450  -14.7750   25.9857 N   0  0  0  0  0  0  0  0  0  0  0  0
    7.1800  -14.2309   26.2748 C   0  0  0  0  0  0  0  0  0  0  0  0
    7.4676  -12.8226   26.7007 C   0  0  0  0  0  0  0  0  0  0  0  0
    8.8136  -12.8763   27.3377 C   0  0  0  0  0  0  0  0  0  0  0  0
    9.3638  -14.2457   27.0466 C   0  0  1  0  0  0  0  0  0  0  0  0
    9.3120  -15.0827   28.2656 C   0  0  0  0  0  0  0  0  0  0  0  0
   10.2498  -14.8855   29.2514 O   0  0  0  0  0  0  0  0  0  0  0  0
    8.4269  -15.9468   28.3803 O   0  0  0  0  0  0  0  0  0  0  0  0
  2  1  1  0
  2  3  2  0
  4  5  1  0
  4  2  1  0
  6  7  1  6
  6  5  1  0
  8  6  1  0
  8  9  2  0
 10  8  1  0
 11 10  1  0
 12 13  1  0
 11 12  1  1
 13 14  1  0
 14 15  1  0
 16 15  1  0
 17 11  1  0
 18 17  2  0
 19 17  1  0
 19 23  1  0
 20 19  1  0
 20 21  1  0
 21 22  1  0
 23 22  1  0
 24 25  1  0
 23 24  1  1
 26 24  2  0
M  END
$$$$
