QKP.pdb
     RDKit          3D

 26 26  0  0  1  0  0  0  0  0999 V2000
   10.4062  -21.1856   22.1225 N   0  0  0  0  0  0  0  0  0  0  0  0
   10.7955  -20.5335   23.3408 C   0  0  0  0  0  0  0  0  0  0  0  0
   11.2090  -21.2851   24.2520 O   0  0  0  0  0  0  0  0  0  0  0  0
   10.6890  -19.0714   23.4522 C   0  0  0  0  0  0  0  0  0  0  0  0
   10.1950  -18.3429   22.2625 C   0  0  0  0  0  0  0  0  0  0  0  0
   10.9829  -17.1376   21.8722 C   0  0  2  0  0  0  0  0  0  0  0  0
   12.3906  -17.2578   22.0505 N   0  0  0  0  0  0  0  0  0  0  0  0
   10.4184  -15.9131   22.5055 C   0  0  0  0  0  0  0  0  0  0  0  0
   11.0174  -15.4189   23.4747 O   0  0  0  0  0  0  0  0  0  0  0  0
    9.2286  -15.2847   22.0542 N   0  0  0  0  0  0  0  0  0  0  0  0
    8.5692  -14.2576   22.8359 C   0  0  1  0  0  0  0  0  0  0  0  0
    7.3937  -13.7427   22.0464 C   0  0  0  0  0  0  0  0  0  0  0  0
    7.7045  -12.9601   20.8289 C   0  0  0  0  0  0  0  0  0  0  0  0
    7.7366  -13.7736   19.5573 C   0  0  0  0  0  0  0  0  0  0  0  0
    8.1622  -12.8830   18.3943 C   0  0  0  0  0  0  0  0  0  0  0  0
    8.0669  -13.5987   17.1352 N   0  0  0  0  0  0  0  0  0  0  0  0
    8.2352  -14.6864   24.1861 C   0  0  0  0  0  0  0  0  0  0  0  0
    8.4422  -15.9267   24.4373 O   0  0  0  0  0  0  0  0  0  0  0  0
    7.7214  -13.9133   25.2287 N   0  0  0  0  0  0  0  0  0  0  0  0
    7.0790  -12.5877   24.9580 C   0  0  0  0  0  0  0  0  0  0  0  0
    7.5848  -11.7377   26.0844 C   0  0  0  0  0  0  0  0  0  0  0  0
    7.7827  -12.6784   27.2229 C   0  0  0  0  0  0  0  0  0  0  0  0
    7.6227  -14.0636   26.6584 C   0  0  1  0  0  0  0  0  0  0  0  0
    6.3221  -14.6334   27.0738 C   0  0  0  0  0  0  0  0  0  0  0  0
    6.2217  -15.2426   28.3022 O   0  0  0  0  0  0  0  0  0  0  0  0
    5.3447  -14.5539   26.3111 O   0  0  0  0  0  0  0  0  0  0  0  0
  2  1  1  0
  2  3  2  0
  4  5  1  0
  4  2  1  0
  6  7  1  1
  6  5  1  0
  8  6  1  0
  8  9  2  0
 10  8  1  0
 11 10  1  0
 12 13  1  0
 11 12  1  6
 13 14  1  0
 14 15  1  0
 16 15  1  0
 17 11  1  0
 18 17  2  0
 19 17  1  0
 19 23  1  0
 20 19  1  0
 20 21  1  0
 21 22  1  0
 23 22  1  0
 24 25  1  0
 23 24  1  6
 26 24  2  0
M  END
$$$$
