QKP.pdb
     RDKit          3D

 26 26  0  0  1  0  0  0  0  0999 V2000
   11.8321  -14.8100   21.0106 N   0  0  0  0  0  0  0  0  0  0  0  0
   12.0356  -14.0734   19.7952 C   0  0  0  0  0  0  0  0  0  0  0  0
   13.1364  -14.2535   19.2278 O   0  0  0  0  0  0  0  0  0  0  0  0
   10.9810  -13.1765   19.3003 C   0  0  0  0  0  0  0  0  0  0  0  0
    9.7326  -13.1091   20.0920 C   0  0  0  0  0  0  0  0  0  0  0  0
    8.8309  -14.2919   19.9747 C   0  0  2  0  0  0  0  0  0  0  0  0
    8.0340  -14.3239   18.7949 N   0  0  0  0  0  0  0  0  0  0  0  0
    8.0338  -14.4707   21.2205 C   0  0  0  0  0  0  0  0  0  0  0  0
    7.1182  -13.6657   21.4572 O   0  0  0  0  0  0  0  0  0  0  0  0
    8.2713  -15.5168   22.1496 N   0  0  0  0  0  0  0  0  0  0  0  0
    7.6205  -15.5440   23.4445 C   0  0  1  0  0  0  0  0  0  0  0  0
    7.2523  -16.9707   23.7598 C   0  0  0  0  0  0  0  0  0  0  0  0
    6.2939  -17.6264   22.8417 C   0  0  0  0  0  0  0  0  0  0  0  0
    5.9381  -19.0437   23.2218 C   0  0  0  0  0  0  0  0  0  0  0  0
    4.9120  -19.5925   22.2353 C   0  0  0  0  0  0  0  0  0  0  0  0
    4.5711  -20.9662   22.5569 N   0  0  0  0  0  0  0  0  0  0  0  0
    8.3891  -14.8846   24.4899 C   0  0  0  0  0  0  0  0  0  0  0  0
    9.6624  -14.9168   24.3410 O   0  0  0  0  0  0  0  0  0  0  0  0
    7.9073  -14.2278   25.6236 N   0  0  0  0  0  0  0  0  0  0  0  0
    6.4357  -14.0713   25.8535 C   0  0  0  0  0  0  0  0  0  0  0  0
    6.3298  -12.6737   26.3852 C   0  0  0  0  0  0  0  0  0  0  0  0
    7.6113  -12.4342   27.1069 C   0  0  0  0  0  0  0  0  0  0  0  0
    8.5091  -13.5927   26.7684 C   0  0  1  0  0  0  0  0  0  0  0  0
    8.6146  -14.5078   27.9262 C   0  0  0  0  0  0  0  0  0  0  0  0
    9.4632  -14.1838   28.9582 O   0  0  0  0  0  0  0  0  0  0  0  0
    7.9388  -15.5499   27.9493 O   0  0  0  0  0  0  0  0  0  0  0  0
  2  1  1  0
  2  3  2  0
  4  5  1  0
  4  2  1  0
  6  7  1  6
  6  5  1  0
  8  6  1  0
  8  9  2  0
 10  8  1  0
 11 10  1  0
 12 13  1  0
 11 12  1  1
 13 14  1  0
 14 15  1  0
 16 15  1  0
 17 11  1  0
 18 17  2  0
 19 17  1  0
 19 23  1  0
 20 19  1  0
 20 21  1  0
 21 22  1  0
 23 22  1  0
 24 25  1  0
 23 24  1  1
 26 24  2  0
M  END
$$$$
