QKP.pdb
     RDKit          3D

 26 26  0  0  1  0  0  0  0  0999 V2000
   13.2823  -17.5308   23.8498 N   0  0  0  0  0  0  0  0  0  0  0  0
   13.5970  -16.5052   22.8957 C   0  0  0  0  0  0  0  0  0  0  0  0
   14.5929  -15.7973   23.1664 O   0  0  0  0  0  0  0  0  0  0  0  0
   12.7621  -16.3433   21.6963 C   0  0  0  0  0  0  0  0  0  0  0  0
   11.6721  -17.3250   21.5012 C   0  0  0  0  0  0  0  0  0  0  0  0
   10.3915  -16.7693   20.9747 C   0  0  2  0  0  0  0  0  0  0  0  0
   10.5320  -15.8836   19.8684 N   0  0  0  0  0  0  0  0  0  0  0  0
    9.5742  -16.1950   22.0798 C   0  0  0  0  0  0  0  0  0  0  0  0
    9.5777  -14.9634   22.2396 O   0  0  0  0  0  0  0  0  0  0  0  0
    8.7920  -16.9885   22.9589 N   0  0  0  0  0  0  0  0  0  0  0  0
    7.9751  -16.3911   23.9966 C   0  0  1  0  0  0  0  0  0  0  0  0
    7.0387  -17.4451   24.5282 C   0  0  0  0  0  0  0  0  0  0  0  0
    6.4176  -18.3445   23.5298 C   0  0  0  0  0  0  0  0  0  0  0  0
    5.5512  -19.4294   24.1232 C   0  0  0  0  0  0  0  0  0  0  0  0
    4.9027  -20.2334   23.0007 C   0  0  0  0  0  0  0  0  0  0  0  0
    4.2032  -21.3889   23.5318 N   0  0  0  0  0  0  0  0  0  0  0  0
    8.7528  -15.7151   25.0246 C   0  0  0  0  0  0  0  0  0  0  0  0
    9.9843  -16.0639   25.1023 O   0  0  0  0  0  0  0  0  0  0  0  0
    8.3192  -14.7416   25.9263 N   0  0  0  0  0  0  0  0  0  0  0  0
    6.8934  -14.2831   25.9352 C   0  0  0  0  0  0  0  0  0  0  0  0
    7.0219  -12.8041   26.1432 C   0  0  0  0  0  0  0  0  0  0  0  0
    8.2626  -12.6313   26.9502 C   0  0  0  0  0  0  0  0  0  0  0  0
    8.9393  -13.9745   26.9766 C   0  0  1  0  0  0  0  0  0  0  0  0
    8.7683  -14.6025   28.3053 C   0  0  0  0  0  0  0  0  0  0  0  0
    9.5331  -14.1576   29.3576 O   0  0  0  0  0  0  0  0  0  0  0  0
    7.9408  -15.5176   28.4505 O   0  0  0  0  0  0  0  0  0  0  0  0
  2  1  1  0
  2  3  2  0
  4  5  1  0
  4  2  1  0
  6  7  1  6
  6  5  1  0
  8  6  1  0
  8  9  2  0
 10  8  1  0
 11 10  1  0
 12 13  1  0
 11 12  1  1
 13 14  1  0
 14 15  1  0
 16 15  1  0
 17 11  1  0
 18 17  2  0
 19 17  1  0
 19 23  1  0
 20 19  1  0
 20 21  1  0
 21 22  1  0
 23 22  1  0
 24 25  1  0
 23 24  1  1
 26 24  2  0
M  END
$$$$
