QKP.pdb
     RDKit          3D

 26 26  0  0  1  0  0  0  0  0999 V2000
    7.6917  -12.2491   17.2950 N   0  0  0  0  0  0  0  0  0  0  0  0
    7.7523  -13.6535   17.0032 C   0  0  0  0  0  0  0  0  0  0  0  0
    7.6881  -13.9607   15.7917 O   0  0  0  0  0  0  0  0  0  0  0  0
    7.8787  -14.6222   18.1019 C   0  0  0  0  0  0  0  0  0  0  0  0
    7.9599  -14.0729   19.4736 C   0  0  0  0  0  0  0  0  0  0  0  0
    8.6858  -14.9197   20.4645 C   0  0  2  0  0  0  0  0  0  0  0  0
    9.0205  -16.2258   20.0062 N   0  0  0  0  0  0  0  0  0  0  0  0
    7.9722  -14.9269   21.7722 C   0  0  0  0  0  0  0  0  0  0  0  0
    7.5208  -13.8541   22.2054 O   0  0  0  0  0  0  0  0  0  0  0  0
    7.7840  -16.1013   22.5465 N   0  0  0  0  0  0  0  0  0  0  0  0
    7.3348  -16.0388   23.9231 C   0  0  1  0  0  0  0  0  0  0  0  0
    7.0670  -17.4434   24.3984 C   0  0  0  0  0  0  0  0  0  0  0  0
    7.0536  -17.6562   25.8633 C   0  0  0  0  0  0  0  0  0  0  0  0
    7.0687  -19.1070   26.2817 C   0  0  0  0  0  0  0  0  0  0  0  0
    7.1605  -19.1971   27.8017 C   0  0  0  0  0  0  0  0  0  0  0  0
    7.1951  -20.5819   28.2348 N   0  0  0  0  0  0  0  0  0  0  0  0
    8.2275  -15.2801   24.7869 C   0  0  0  0  0  0  0  0  0  0  0  0
    9.4799  -15.4552   24.5745 O   0  0  0  0  0  0  0  0  0  0  0  0
    7.8832  -14.3934   25.8086 N   0  0  0  0  0  0  0  0  0  0  0  0
    6.4509  -14.1808   26.1912 C   0  0  0  0  0  0  0  0  0  0  0  0
    6.3857  -12.7012   26.4234 C   0  0  0  0  0  0  0  0  0  0  0  0
    7.7447  -12.3226   26.9031 C   0  0  0  0  0  0  0  0  0  0  0  0
    8.6150  -13.5332   26.7033 C   0  0  1  0  0  0  0  0  0  0  0  0
    8.8891  -14.1811   28.0049 C   0  0  0  0  0  0  0  0  0  0  0  0
    9.8371  -13.6339   28.8368 O   0  0  0  0  0  0  0  0  0  0  0  0
    8.2623  -15.2046   28.3258 O   0  0  0  0  0  0  0  0  0  0  0  0
  2  1  1  0
  2  3  2  0
  4  5  1  0
  4  2  1  0
  6  7  1  6
  6  5  1  0
  8  6  1  0
  8  9  2  0
 10  8  1  0
 11 10  1  0
 12 13  1  0
 11 12  1  1
 13 14  1  0
 14 15  1  0
 16 15  1  0
 17 11  1  0
 18 17  2  0
 19 17  1  0
 19 23  1  0
 20 19  1  0
 20 21  1  0
 21 22  1  0
 23 22  1  0
 24 25  1  0
 23 24  1  1
 26 24  2  0
M  END
$$$$
