TPR.pdb
     RDKit          3D

 26 26  0  0  1  0  0  0  0  0999 V2000
   26.7936  -18.3237  -14.1082 C   0  0  0  0  0  0  0  0  0  0  0  0
   26.9675  -19.4029  -15.1451 C   0  0  1  0  0  0  0  0  0  0  0  0
   28.1233  -19.0971  -15.8902 O   0  0  0  0  0  0  0  0  0  0  0  0
   27.1757  -20.7228  -14.4707 C   0  0  2  0  0  0  0  0  0  0  0  0
   27.6859  -21.6692  -15.3977 N   0  0  0  0  0  0  0  0  0  0  0  0
   26.0041  -21.1617  -13.6863 C   0  0  0  0  0  0  0  0  0  0  0  0
   25.1432  -21.8328  -14.3101 O   0  0  0  0  0  0  0  0  0  0  0  0
   25.7817  -20.8854  -12.3033 N   0  0  0  0  0  0  0  0  0  0  0  0
   26.6000  -20.0975  -11.4092 C   0  0  0  0  0  0  0  0  0  0  0  0
   25.8646  -20.1219  -10.0633 C   0  0  0  0  0  0  0  0  0  0  0  0
   25.0875  -21.4521  -10.1506 C   0  0  0  0  0  0  0  0  0  0  0  0
   24.6460  -21.3720  -11.6015 C   0  0  1  0  0  0  0  0  0  0  0  0
   23.4757  -20.4440  -11.6997 C   0  0  0  0  0  0  0  0  0  0  0  0
   23.5119  -19.2202  -11.8249 O   0  0  0  0  0  0  0  0  0  0  0  0
   17.4165  -23.0475  -16.8662 N   0  0  0  0  0  0  0  0  0  0  0  0
   18.2432  -23.9203  -16.1091 C   0  0  0  0  0  0  0  0  0  0  0  0
   18.0657  -25.2114  -16.2876 N   0  0  0  0  0  0  0  0  0  0  0  0
   19.2328  -23.5228  -15.1888 N   0  0  0  0  0  0  0  0  0  0  0  0
   19.3978  -22.1306  -14.8640 C   0  0  0  0  0  0  0  0  0  0  0  0
   20.6102  -21.9985  -13.9216 C   0  0  0  0  0  0  0  0  0  0  0  0
   20.8909  -20.5595  -13.6491 C   0  0  0  0  0  0  0  0  0  0  0  0
   21.0083  -20.2877  -12.1853 C   0  0  2  0  0  0  0  0  0  0  0  0
   22.1569  -21.0422  -11.6348 N   0  0  0  0  0  0  0  0  0  0  0  0
   19.7932  -20.8996  -11.5157 C   0  0  0  0  0  0  0  0  0  0  0  0
   18.5773  -20.2644  -11.5197 O   0  0  0  0  0  0  0  0  0  0  0  0
   19.9393  -21.9997  -10.9536 O   0  0  0  0  0  0  0  0  0  0  0  0
  2  1  1  1
  2  3  1  0
  2  4  1  0
  4  5  1  6
  6  8  1  0
  6  4  1  0
  7  6  2  0
  8  9  1  0
 10  9  1  0
 10 11  1  0
 12  8  1  0
 12 13  1  1
 12 11  1  0
 13 14  2  0
 16 15  1  0
 17 16  2  0
 18 16  1  0
 19 18  1  0
 20 19  1  0
 20 21  1  0
 22 21  1  6
 22 24  1  0
 23 22  1  0
 23 13  1  0
 24 26  2  0
 24 25  1  0
M  END
$$$$
