TPR.pdb
     RDKit          3D

 26 26  0  0  1  0  0  0  0  0999 V2000
   23.2014  -17.0334  -20.2384 C   0  0  0  0  0  0  0  0  0  0  0  0
   24.3249  -17.4919  -19.3453 C   0  0  1  0  0  0  0  0  0  0  0  0
   24.4438  -18.8881  -19.4910 O   0  0  0  0  0  0  0  0  0  0  0  0
   25.6090  -16.8603  -19.7839 C   0  0  2  0  0  0  0  0  0  0  0  0
   26.7118  -17.5585  -19.2258 N   0  0  0  0  0  0  0  0  0  0  0  0
   25.6220  -15.3944  -19.6053 C   0  0  0  0  0  0  0  0  0  0  0  0
   25.8740  -14.9829  -18.4443 O   0  0  0  0  0  0  0  0  0  0  0  0
   25.3740  -14.4322  -20.6304 N   0  0  0  0  0  0  0  0  0  0  0  0
   25.0790  -14.6720  -22.0252 C   0  0  0  0  0  0  0  0  0  0  0  0
   24.8784  -13.2809  -22.6395 C   0  0  0  0  0  0  0  0  0  0  0  0
   25.7355  -12.3970  -21.7095 C   0  0  0  0  0  0  0  0  0  0  0  0
   25.3725  -13.0336  -20.3794 C   0  0  1  0  0  0  0  0  0  0  0  0
   24.0271  -12.5329  -19.9555 C   0  0  0  0  0  0  0  0  0  0  0  0
   22.9392  -13.0670  -20.1697 O   0  0  0  0  0  0  0  0  0  0  0  0
   21.9445   -6.7742  -13.2743 N   0  0  0  0  0  0  0  0  0  0  0  0
   20.7927   -7.3232  -13.8989 C   0  0  0  0  0  0  0  0  0  0  0  0
   19.6245   -6.9694  -13.4086 N   0  0  0  0  0  0  0  0  0  0  0  0
   20.7949   -8.2092  -14.9941 N   0  0  0  0  0  0  0  0  0  0  0  0
   22.0397   -8.6080  -15.5962 C   0  0  0  0  0  0  0  0  0  0  0  0
   21.7193   -9.4576  -16.8417 C   0  0  0  0  0  0  0  0  0  0  0  0
   22.9782  -10.0053  -17.4239 C   0  0  0  0  0  0  0  0  0  0  0  0
   22.7093  -10.8425  -18.6311 C   0  0  2  0  0  0  0  0  0  0  0  0
   23.9936  -11.2842  -19.2201 N   0  0  0  0  0  0  0  0  0  0  0  0
   22.0999   -9.9342  -19.6812 C   0  0  0  0  0  0  0  0  0  0  0  0
   22.8425   -9.4512  -20.7286 O   0  0  0  0  0  0  0  0  0  0  0  0
   20.8989   -9.6349  -19.5557 O   0  0  0  0  0  0  0  0  0  0  0  0
  2  1  1  6
  2  3  1  0
  2  4  1  0
  4  5  1  1
  6  8  1  0
  6  4  1  0
  7  6  2  0
  8  9  1  0
 10  9  1  0
 10 11  1  0
 12  8  1  0
 12 13  1  6
 12 11  1  0
 13 14  2  0
 16 15  1  0
 17 16  2  0
 18 16  1  0
 19 18  1  0
 20 19  1  0
 20 21  1  0
 22 21  1  1
 22 24  1  0
 23 22  1  0
 23 13  1  0
 24 26  2  0
 24 25  1  0
M  END
$$$$
