TPR.pdb
     RDKit          3D

 26 26  0  0  1  0  0  0  0  0999 V2000
   25.8338  -15.9033  -15.1715 C   0  0  0  0  0  0  0  0  0  0  0  0
   24.7655  -16.3417  -16.1393 C   0  0  1  0  0  0  0  0  0  0  0  0
   24.6179  -15.3243  -17.1024 O   0  0  0  0  0  0  0  0  0  0  0  0
   25.1982  -17.5932  -16.8369 C   0  0  2  0  0  0  0  0  0  0  0  0
   24.3300  -17.8701  -17.9254 N   0  0  0  0  0  0  0  0  0  0  0  0
   25.4415  -18.7165  -15.9097 C   0  0  0  0  0  0  0  0  0  0  0  0
   24.4344  -19.4015  -15.5974 O   0  0  0  0  0  0  0  0  0  0  0  0
   26.7072  -19.0731  -15.3536 N   0  0  0  0  0  0  0  0  0  0  0  0
   27.9858  -18.4325  -15.5650 C   0  0  0  0  0  0  0  0  0  0  0  0
   28.9786  -19.2193  -14.7001 C   0  0  0  0  0  0  0  0  0  0  0  0
   28.3074  -20.6069  -14.6297 C   0  0  0  0  0  0  0  0  0  0  0  0
   26.8657  -20.1625  -14.4551 C   0  0  1  0  0  0  0  0  0  0  0  0
   26.6538  -19.7597  -13.0292 C   0  0  0  0  0  0  0  0  0  0  0  0
   27.1733  -18.8089  -12.4453 O   0  0  0  0  0  0  0  0  0  0  0  0
   19.7716  -19.7444  -11.8035 N   0  0  0  0  0  0  0  0  0  0  0  0
   19.8923  -21.0525  -11.2625 C   0  0  0  0  0  0  0  0  0  0  0  0
   18.7907  -21.7668  -11.1817 N   0  0  0  0  0  0  0  0  0  0  0  0
   21.0858  -21.6474  -10.8085 N   0  0  0  0  0  0  0  0  0  0  0  0
   22.1199  -20.8346  -10.2248 C   0  0  0  0  0  0  0  0  0  0  0  0
   23.0442  -20.3478  -11.3580 C   0  0  0  0  0  0  0  0  0  0  0  0
   24.1272  -19.4879  -10.7999 C   0  0  0  0  0  0  0  0  0  0  0  0
   25.4549  -20.1697  -10.8514 C   0  0  2  0  0  0  0  0  0  0  0  0
   25.7470  -20.5745  -12.2451 N   0  0  0  0  0  0  0  0  0  0  0  0
   25.3186  -21.4765  -10.0947 C   0  0  0  0  0  0  0  0  0  0  0  0
   25.2614  -21.5081   -8.7244 O   0  0  0  0  0  0  0  0  0  0  0  0
   25.2674  -22.5251  -10.7622 O   0  0  0  0  0  0  0  0  0  0  0  0
  2  1  1  1
  2  3  1  0
  2  4  1  0
  4  5  1  6
  6  8  1  0
  6  4  1  0
  7  6  2  0
  8  9  1  0
 10  9  1  0
 10 11  1  0
 12  8  1  0
 12 13  1  1
 12 11  1  0
 13 14  2  0
 16 15  1  0
 17 16  2  0
 18 16  1  0
 19 18  1  0
 20 19  1  0
 20 21  1  0
 22 21  1  6
 22 24  1  0
 23 22  1  0
 23 13  1  0
 24 26  2  0
 24 25  1  0
M  END
$$$$
