TPR.pdb
     RDKit          3D

 26 26  0  0  1  0  0  0  0  0999 V2000
   28.1280  -18.4333  -15.7510 C   0  0  0  0  0  0  0  0  0  0  0  0
   26.9786  -19.1957  -15.1446 C   0  0  1  0  0  0  0  0  0  0  0  0
   25.9806  -19.3200  -16.1310 O   0  0  0  0  0  0  0  0  0  0  0  0
   27.4318  -20.5682  -14.7556 C   0  0  2  0  0  0  0  0  0  0  0  0
   28.0287  -21.2184  -15.8674 N   0  0  0  0  0  0  0  0  0  0  0  0
   26.3924  -21.3395  -14.0445 C   0  0  0  0  0  0  0  0  0  0  0  0
   25.9514  -22.3530  -14.6439 O   0  0  0  0  0  0  0  0  0  0  0  0
   25.8629  -21.0256  -12.7563 N   0  0  0  0  0  0  0  0  0  0  0  0
   26.2532  -19.9525  -11.8698 C   0  0  0  0  0  0  0  0  0  0  0  0
   25.3327  -20.0829  -10.6498 C   0  0  0  0  0  0  0  0  0  0  0  0
   24.9956  -21.5885  -10.6663 C   0  0  0  0  0  0  0  0  0  0  0  0
   24.8095  -21.7716  -12.1624 C   0  0  1  0  0  0  0  0  0  0  0  0
   23.4586  -21.2549  -12.5478 C   0  0  0  0  0  0  0  0  0  0  0  0
   23.1696  -20.0978  -12.8519 O   0  0  0  0  0  0  0  0  0  0  0  0
   16.5118  -23.7826  -16.7649 N   0  0  0  0  0  0  0  0  0  0  0  0
   17.7376  -23.9529  -17.4626 C   0  0  0  0  0  0  0  0  0  0  0  0
   17.7056  -23.7964  -18.7682 N   0  0  0  0  0  0  0  0  0  0  0  0
   18.9788  -24.2725  -16.8779 N   0  0  0  0  0  0  0  0  0  0  0  0
   19.0838  -24.4333  -15.4517 C   0  0  0  0  0  0  0  0  0  0  0  0
   19.5126  -23.0819  -14.8472 C   0  0  0  0  0  0  0  0  0  0  0  0
   20.7693  -23.2495  -14.0619 C   0  0  0  0  0  0  0  0  0  0  0  0
   21.2161  -21.9606  -13.4540 C   0  0  2  0  0  0  0  0  0  0  0  0
   22.3694  -22.2112  -12.5604 N   0  0  0  0  0  0  0  0  0  0  0  0
   20.1100  -21.4932  -12.5281 C   0  0  0  0  0  0  0  0  0  0  0  0
   19.0983  -20.6809  -12.9738 O   0  0  0  0  0  0  0  0  0  0  0  0
   20.1557  -21.8678  -11.3427 O   0  0  0  0  0  0  0  0  0  0  0  0
  2  1  1  6
  2  3  1  0
  2  4  1  0
  4  5  1  6
  6  8  1  0
  6  4  1  0
  7  6  2  0
  8  9  1  0
 10  9  1  0
 10 11  1  0
 12  8  1  0
 12 13  1  6
 12 11  1  0
 13 14  2  0
 16 15  1  0
 17 16  2  0
 18 16  1  0
 19 18  1  0
 20 19  1  0
 20 21  1  0
 22 21  1  1
 22 24  1  0
 23 22  1  0
 23 13  1  0
 24 26  2  0
 24 25  1  0
M  END
$$$$
