TPR.pdb
     RDKit          3D

 26 26  0  0  1  0  0  0  0  0999 V2000
   23.1826  -21.0940  -16.8819 C   0  0  0  0  0  0  0  0  0  0  0  0
   23.8529  -22.0469  -17.8374 C   0  0  1  0  0  0  0  0  0  0  0  0
   23.0564  -22.1198  -18.9970 O   0  0  0  0  0  0  0  0  0  0  0  0
   25.1982  -21.5149  -18.2211 C   0  0  2  0  0  0  0  0  0  0  0  0
   25.7392  -22.2797  -19.2877 N   0  0  0  0  0  0  0  0  0  0  0  0
   26.0904  -21.3106  -17.0623 C   0  0  0  0  0  0  0  0  0  0  0  0
   26.8077  -22.2914  -16.7393 O   0  0  0  0  0  0  0  0  0  0  0  0
   26.1953  -20.1089  -16.2985 N   0  0  0  0  0  0  0  0  0  0  0  0
   25.5243  -18.8484  -16.5238 C   0  0  0  0  0  0  0  0  0  0  0  0
   25.9910  -17.9342  -15.3840 C   0  0  0  0  0  0  0  0  0  0  0  0
   27.3687  -18.5368  -15.0381 C   0  0  0  0  0  0  0  0  0  0  0  0
   27.0140  -20.0099  -15.1413 C   0  0  1  0  0  0  0  0  0  0  0  0
   26.2919  -20.4211  -13.8964 C   0  0  0  0  0  0  0  0  0  0  0  0
   25.0900  -20.6617  -13.7850 O   0  0  0  0  0  0  0  0  0  0  0  0
   27.9402  -18.7841   -5.3695 N   0  0  0  0  0  0  0  0  0  0  0  0
   27.0743  -19.9087   -5.4322 C   0  0  0  0  0  0  0  0  0  0  0  0
   26.4325  -20.2275   -4.3291 N   0  0  0  0  0  0  0  0  0  0  0  0
   26.8447  -20.7070   -6.5700 N   0  0  0  0  0  0  0  0  0  0  0  0
   27.5243  -20.4152   -7.8045 C   0  0  0  0  0  0  0  0  0  0  0  0
   26.6198  -20.8666   -8.9679 C   0  0  0  0  0  0  0  0  0  0  0  0
   27.2954  -20.6047  -10.2713 C   0  0  0  0  0  0  0  0  0  0  0  0
   26.4019  -20.9129  -11.4277 C   0  0  2  0  0  0  0  0  0  0  0  0
   27.0843  -20.5451  -12.6890 N   0  0  0  0  0  0  0  0  0  0  0  0
   25.2179  -19.9693  -11.3448 C   0  0  0  0  0  0  0  0  0  0  0  0
   25.3294  -18.6477  -11.6952 O   0  0  0  0  0  0  0  0  0  0  0  0
   24.1382  -20.4356  -10.9392 O   0  0  0  0  0  0  0  0  0  0  0  0
  2  1  1  1
  2  3  1  0
  2  4  1  0
  4  5  1  6
  6  8  1  0
  6  4  1  0
  7  6  2  0
  8  9  1  0
 10  9  1  0
 10 11  1  0
 12  8  1  0
 12 13  1  1
 12 11  1  0
 13 14  2  0
 16 15  1  0
 17 16  2  0
 18 16  1  0
 19 18  1  0
 20 19  1  0
 20 21  1  0
 22 21  1  1
 22 24  1  0
 23 22  1  0
 23 13  1  0
 24 26  2  0
 24 25  1  0
M  END
$$$$
