TPR.pdb
     RDKit          3D

 26 26  0  0  1  0  0  0  0  0999 V2000
   27.2780  -16.2493  -18.6777 C   0  0  0  0  0  0  0  0  0  0  0  0
   27.7448  -16.1718  -20.1081 C   0  0  1  0  0  0  0  0  0  0  0  0
   28.4260  -17.3697  -20.4007 O   0  0  0  0  0  0  0  0  0  0  0  0
   26.5629  -16.0658  -21.0204 C   0  0  2  0  0  0  0  0  0  0  0  0
   26.9520  -16.3423  -22.3573 N   0  0  0  0  0  0  0  0  0  0  0  0
   25.7900  -14.8231  -20.8220 C   0  0  0  0  0  0  0  0  0  0  0  0
   26.2867  -13.7801  -21.3182 O   0  0  0  0  0  0  0  0  0  0  0  0
   24.5492  -14.7212  -20.1233 N   0  0  0  0  0  0  0  0  0  0  0  0
   23.8319  -15.7637  -19.4242 C   0  0  0  0  0  0  0  0  0  0  0  0
   22.5877  -15.0783  -18.8454 C   0  0  0  0  0  0  0  0  0  0  0  0
   22.3836  -13.9079  -19.8301 C   0  0  0  0  0  0  0  0  0  0  0  0
   23.8345  -13.4981  -20.0127 C   0  0  1  0  0  0  0  0  0  0  0  0
   24.2624  -12.6943  -18.8247 C   0  0  0  0  0  0  0  0  0  0  0  0
   24.8408  -13.1102  -17.8211 O   0  0  0  0  0  0  0  0  0  0  0  0
   30.6276   -7.8211  -19.0110 N   0  0  0  0  0  0  0  0  0  0  0  0
   30.5055   -8.8916  -18.0850 C   0  0  0  0  0  0  0  0  0  0  0  0
   31.6108   -9.3035  -17.5028 N   0  0  0  0  0  0  0  0  0  0  0  0
   29.3071   -9.5457  -17.7379 N   0  0  0  0  0  0  0  0  0  0  0  0
   28.0679   -9.1568  -18.3576 C   0  0  0  0  0  0  0  0  0  0  0  0
   26.9326   -9.9789  -17.7166 C   0  0  0  0  0  0  0  0  0  0  0  0
   25.6216   -9.5890  -18.3106 C   0  0  0  0  0  0  0  0  0  0  0  0
   24.5028  -10.4183  -17.7711 C   0  0  2  0  0  0  0  0  0  0  0  0
   23.9616  -11.2765  -18.8491 N   0  0  0  0  0  0  0  0  0  0  0  0
   23.3675   -9.4733  -17.4289 C   0  0  0  0  0  0  0  0  0  0  0  0
   22.1923   -9.4797  -18.1365 O   0  0  0  0  0  0  0  0  0  0  0  0
   23.5419   -8.6831  -16.4840 O   0  0  0  0  0  0  0  0  0  0  0  0
  2  1  1  1
  2  3  1  0
  2  4  1  0
  4  5  1  6
  6  8  1  0
  6  4  1  0
  7  6  2  0
  8  9  1  0
 10  9  1  0
 10 11  1  0
 12  8  1  0
 12 13  1  1
 12 11  1  0
 13 14  2  0
 16 15  1  0
 17 16  2  0
 18 16  1  0
 19 18  1  0
 20 19  1  0
 20 21  1  0
 22 21  1  6
 22 24  1  0
 23 22  1  0
 23 13  1  0
 24 26  2  0
 24 25  1  0
M  END
$$$$
