TPR.pdb
     RDKit          3D

 26 26  0  0  1  0  0  0  0  0999 V2000
   26.9899  -18.1313  -14.8840 C   0  0  0  0  0  0  0  0  0  0  0  0
   27.3444  -19.2122  -15.8720 C   0  0  1  0  0  0  0  0  0  0  0  0
   28.5256  -18.8180  -16.5308 O   0  0  0  0  0  0  0  0  0  0  0  0
   27.6138  -20.4927  -15.1453 C   0  0  2  0  0  0  0  0  0  0  0  0
   28.3011  -21.3999  -15.9936 N   0  0  0  0  0  0  0  0  0  0  0  0
   26.4199  -21.0319  -14.4637 C   0  0  0  0  0  0  0  0  0  0  0  0
   25.6314  -21.7003  -15.1796 O   0  0  0  0  0  0  0  0  0  0  0  0
   26.1018  -20.8534  -13.0834 N   0  0  0  0  0  0  0  0  0  0  0  0
   26.8002  -20.0509  -12.1046 C   0  0  0  0  0  0  0  0  0  0  0  0
   26.0000  -20.2126  -10.8060 C   0  0  0  0  0  0  0  0  0  0  0  0
   25.3475  -21.5965  -11.0059 C   0  0  0  0  0  0  0  0  0  0  0  0
   24.9776  -21.4725  -12.4736 C   0  0  1  0  0  0  0  0  0  0  0  0
   23.7376  -20.6424  -12.5907 C   0  0  0  0  0  0  0  0  0  0  0  0
   23.6519  -19.4211  -12.4653 O   0  0  0  0  0  0  0  0  0  0  0  0
   19.0765  -17.8821  -18.2385 N   0  0  0  0  0  0  0  0  0  0  0  0
   19.1624  -17.4689  -16.8819 C   0  0  0  0  0  0  0  0  0  0  0  0
   19.1974  -16.1735  -16.6557 N   0  0  0  0  0  0  0  0  0  0  0  0
   19.2118  -18.3241  -15.7636 N   0  0  0  0  0  0  0  0  0  0  0  0
   19.2232  -19.7513  -15.9474 C   0  0  0  0  0  0  0  0  0  0  0  0
   19.2687  -20.4136  -14.5564 C   0  0  0  0  0  0  0  0  0  0  0  0
   20.5908  -21.0707  -14.3467 C   0  0  0  0  0  0  0  0  0  0  0  0
   21.2771  -20.5524  -13.1257 C   0  0  2  0  0  0  0  0  0  0  0  0
   22.5022  -21.3450  -12.8755 N   0  0  0  0  0  0  0  0  0  0  0  0
   20.3784  -20.8545  -11.9425 C   0  0  0  0  0  0  0  0  0  0  0  0
   19.4439  -19.9510  -11.5038 O   0  0  0  0  0  0  0  0  0  0  0  0
   20.5231  -21.9525  -11.3759 O   0  0  0  0  0  0  0  0  0  0  0  0
  2  1  1  1
  2  3  1  0
  2  4  1  0
  4  5  1  6
  6  8  1  0
  6  4  1  0
  7  6  2  0
  8  9  1  0
 10  9  1  0
 10 11  1  0
 12  8  1  0
 12 13  1  1
 12 11  1  0
 13 14  2  0
 16 15  1  0
 17 16  2  0
 18 16  1  0
 19 18  1  0
 20 19  1  0
 20 21  1  0
 22 21  1  6
 22 24  1  0
 23 22  1  0
 23 13  1  0
 24 26  2  0
 24 25  1  0
M  END
$$$$
