TPR.pdb
     RDKit          3D

 26 26  0  0  1  0  0  0  0  0999 V2000
   29.1933  -22.5931  -18.8101 C   0  0  0  0  0  0  0  0  0  0  0  0
   28.1229  -22.0630  -17.8918 C   0  0  1  0  0  0  0  0  0  0  0  0
   27.0898  -23.0195  -17.8429 O   0  0  0  0  0  0  0  0  0  0  0  0
   28.6779  -21.8963  -16.5117 C   0  0  2  0  0  0  0  0  0  0  0  0
   29.3127  -23.0951  -16.0931 N   0  0  0  0  0  0  0  0  0  0  0  0
   27.7029  -21.3224  -15.5627 C   0  0  0  0  0  0  0  0  0  0  0  0
   27.4349  -22.0254  -14.5553 O   0  0  0  0  0  0  0  0  0  0  0  0
   27.0563  -20.0572  -15.7022 N   0  0  0  0  0  0  0  0  0  0  0  0
   27.1461  -19.1274  -16.8054 C   0  0  0  0  0  0  0  0  0  0  0  0
   26.2255  -17.9609  -16.4253 C   0  0  0  0  0  0  0  0  0  0  0  0
   26.2473  -18.0291  -14.8839 C   0  0  0  0  0  0  0  0  0  0  0  0
   26.1779  -19.5366  -14.7140 C   0  0  1  0  0  0  0  0  0  0  0  0
   24.7633  -19.9811  -14.9188 C   0  0  0  0  0  0  0  0  0  0  0  0
   24.2487  -20.3428  -15.9766 O   0  0  0  0  0  0  0  0  0  0  0  0
   19.6754  -24.1819   -9.0404 N   0  0  0  0  0  0  0  0  0  0  0  0
   18.9432  -23.9493  -10.2354 C   0  0  0  0  0  0  0  0  0  0  0  0
   17.8181  -24.6148  -10.3827 N   0  0  0  0  0  0  0  0  0  0  0  0
   19.3171  -23.0702  -11.2707 N   0  0  0  0  0  0  0  0  0  0  0  0
   20.5987  -22.4166  -11.2339 C   0  0  0  0  0  0  0  0  0  0  0  0
   20.7039  -21.4980  -12.4671 C   0  0  0  0  0  0  0  0  0  0  0  0
   22.0090  -20.7766  -12.4565 C   0  0  0  0  0  0  0  0  0  0  0  0
   22.6271  -20.7342  -13.8154 C   0  0  2  0  0  0  0  0  0  0  0  0
   23.9008  -19.9821  -13.7539 N   0  0  0  0  0  0  0  0  0  0  0  0
   21.7257  -19.8877  -14.6929 C   0  0  0  0  0  0  0  0  0  0  0  0
   20.7190  -20.4484  -15.4374 O   0  0  0  0  0  0  0  0  0  0  0  0
   21.9360  -18.6619  -14.7201 O   0  0  0  0  0  0  0  0  0  0  0  0
  2  1  1  6
  2  3  1  0
  2  4  1  0
  4  5  1  1
  6  8  1  0
  6  4  1  0
  7  6  2  0
  8  9  1  0
 10  9  1  0
 10 11  1  0
 12  8  1  0
 12 13  1  6
 12 11  1  0
 13 14  2  0
 16 15  1  0
 17 16  2  0
 18 16  1  0
 19 18  1  0
 20 19  1  0
 20 21  1  0
 22 21  1  1
 22 24  1  0
 23 22  1  0
 23 13  1  0
 24 26  2  0
 24 25  1  0
M  END
$$$$
