TPR.pdb
     RDKit          3D

 26 26  0  0  1  0  0  0  0  0999 V2000
   27.5874  -20.4471  -17.4451 C   0  0  0  0  0  0  0  0  0  0  0  0
   27.9066  -21.0920  -16.1213 C   0  0  1  0  0  0  0  0  0  0  0  0
   29.0937  -21.8332  -16.2824 O   0  0  0  0  0  0  0  0  0  0  0  0
   28.1462  -20.0350  -15.0890 C   0  0  2  0  0  0  0  0  0  0  0  0
   28.8282  -20.5881  -13.9736 N   0  0  0  0  0  0  0  0  0  0  0  0
   26.9356  -19.2497  -14.7748 C   0  0  0  0  0  0  0  0  0  0  0  0
   26.1769  -19.7341  -13.8970 O   0  0  0  0  0  0  0  0  0  0  0  0
   26.5713  -18.0097  -15.3815 N   0  0  0  0  0  0  0  0  0  0  0  0
   27.2313  -17.3213  -16.4679 C   0  0  0  0  0  0  0  0  0  0  0  0
   26.3903  -16.0631  -16.7177 C   0  0  0  0  0  0  0  0  0  0  0  0
   25.7549  -15.8261  -15.3316 C   0  0  0  0  0  0  0  0  0  0  0  0
   25.4323  -17.2657  -14.9713 C   0  0  1  0  0  0  0  0  0  0  0  0
   24.1907  -17.6789  -15.6981 C   0  0  0  0  0  0  0  0  0  0  0  0
   24.1162  -18.1015  -16.8516 O   0  0  0  0  0  0  0  0  0  0  0  0
   25.3599  -21.8662  -10.6375 N   0  0  0  0  0  0  0  0  0  0  0  0
   24.0069  -21.5151  -10.8910 C   0  0  0  0  0  0  0  0  0  0  0  0
   23.3745  -20.8596   -9.9419 N   0  0  0  0  0  0  0  0  0  0  0  0
   23.2885  -21.8067  -12.0671 N   0  0  0  0  0  0  0  0  0  0  0  0
   22.1739  -20.9828  -12.4542 C   0  0  0  0  0  0  0  0  0  0  0  0
   22.5679  -20.2112  -13.7289 C   0  0  0  0  0  0  0  0  0  0  0  0
   21.4607  -19.2991  -14.1365 C   0  0  0  0  0  0  0  0  0  0  0  0
   21.8308  -18.4811  -15.3299 C   0  0  2  0  0  0  0  0  0  0  0  0
   22.9393  -17.5661  -14.9754 N   0  0  0  0  0  0  0  0  0  0  0  0
   20.6597  -17.5651  -15.6275 C   0  0  0  0  0  0  0  0  0  0  0  0
   19.5608  -18.0088  -16.3184 O   0  0  0  0  0  0  0  0  0  0  0  0
   20.7332  -16.3893  -15.2277 O   0  0  0  0  0  0  0  0  0  0  0  0
  2  1  1  6
  2  3  1  0
  2  4  1  0
  4  5  1  1
  6  8  1  0
  6  4  1  0
  7  6  2  0
  8  9  1  0
 10  9  1  0
 10 11  1  0
 12  8  1  0
 12 13  1  6
 12 11  1  0
 13 14  2  0
 16 15  1  0
 17 16  2  0
 18 16  1  0
 19 18  1  0
 20 19  1  0
 20 21  1  0
 22 21  1  1
 22 24  1  0
 23 22  1  0
 23 13  1  0
 24 26  2  0
 24 25  1  0
M  END
$$$$
