TPR.pdb
     RDKit          3D

 26 26  0  0  1  0  0  0  0  0999 V2000
   20.2830  -16.5703  -16.5772 C   0  0  0  0  0  0  0  0  0  0  0  0
   21.7190  -16.9287  -16.2954 C   0  0  1  0  0  0  0  0  0  0  0  0
   21.8069  -18.3338  -16.2459 O   0  0  0  0  0  0  0  0  0  0  0  0
   22.5901  -16.4400  -17.4102 C   0  0  2  0  0  0  0  0  0  0  0  0
   22.0806  -16.8848  -18.6584 N   0  0  0  0  0  0  0  0  0  0  0  0
   24.0255  -16.6960  -17.1762 C   0  0  0  0  0  0  0  0  0  0  0  0
   24.5248  -17.6580  -17.8135 O   0  0  0  0  0  0  0  0  0  0  0  0
   24.8685  -15.9492  -16.2987 N   0  0  0  0  0  0  0  0  0  0  0  0
   24.5160  -14.8131  -15.4771 C   0  0  0  0  0  0  0  0  0  0  0  0
   25.8030  -14.4416  -14.7298 C   0  0  0  0  0  0  0  0  0  0  0  0
   26.8905  -14.9566  -15.6958 C   0  0  0  0  0  0  0  0  0  0  0  0
   26.2401  -16.2663  -16.1057 C   0  0  1  0  0  0  0  0  0  0  0  0
   26.4441  -17.2695  -15.0137 C   0  0  0  0  0  0  0  0  0  0  0  0
   26.0999  -17.1607  -13.8372 O   0  0  0  0  0  0  0  0  0  0  0  0
   20.8138  -22.5307  -14.2393 N   0  0  0  0  0  0  0  0  0  0  0  0
   21.5100  -21.6988  -13.3218 C   0  0  0  0  0  0  0  0  0  0  0  0
   20.7817  -21.0317  -12.4529 N   0  0  0  0  0  0  0  0  0  0  0  0
   22.9072  -21.5292  -13.2629 N   0  0  0  0  0  0  0  0  0  0  0  0
   23.7260  -21.8952  -14.3882 C   0  0  0  0  0  0  0  0  0  0  0  0
   25.1718  -21.4492  -14.0944 C   0  0  0  0  0  0  0  0  0  0  0  0
   25.4434  -20.1356  -14.7460 C   0  0  0  0  0  0  0  0  0  0  0  0
   26.8642  -19.7128  -14.5643 C   0  0  2  0  0  0  0  0  0  0  0  0
   27.1238  -18.4989  -15.3709 N   0  0  0  0  0  0  0  0  0  0  0  0
   27.7354  -20.7827  -15.1929 C   0  0  0  0  0  0  0  0  0  0  0  0
   28.3884  -20.5685  -16.3802 O   0  0  0  0  0  0  0  0  0  0  0  0
   27.8325  -21.8697  -14.5956 O   0  0  0  0  0  0  0  0  0  0  0  0
  2  1  1  6
  2  3  1  0
  2  4  1  0
  4  5  1  6
  6  8  1  0
  6  4  1  0
  7  6  2  0
  8  9  1  0
 10  9  1  0
 10 11  1  0
 12  8  1  0
 12 13  1  1
 12 11  1  0
 13 14  2  0
 16 15  1  0
 17 16  2  0
 18 16  1  0
 19 18  1  0
 20 19  1  0
 20 21  1  0
 22 21  1  6
 22 24  1  0
 23 22  1  0
 23 13  1  0
 24 26  2  0
 24 25  1  0
M  END
$$$$
