TPR.pdb
     RDKit          3D

 26 26  0  0  1  0  0  0  0  0999 V2000
   25.5460  -14.0110  -18.5780 C   0  0  0  0  0  0  0  0  0  0  0  0
   25.2589  -15.0704  -17.5459 C   0  0  1  0  0  0  0  0  0  0  0  0
   25.6746  -16.3075  -18.0765 O   0  0  0  0  0  0  0  0  0  0  0  0
   26.0528  -14.7972  -16.3068 C   0  0  2  0  0  0  0  0  0  0  0  0
   26.0923  -15.9557  -15.4873 N   0  0  0  0  0  0  0  0  0  0  0  0
   25.6545  -13.5467  -15.6299 C   0  0  0  0  0  0  0  0  0  0  0  0
   24.6315  -13.6157  -14.9021 O   0  0  0  0  0  0  0  0  0  0  0  0
   26.3296  -12.2935  -15.7393 N   0  0  0  0  0  0  0  0  0  0  0  0
   27.5501  -11.9983  -16.4557 C   0  0  0  0  0  0  0  0  0  0  0  0
   27.7855  -10.4967  -16.2489 C   0  0  0  0  0  0  0  0  0  0  0  0
   27.0698  -10.2457  -14.9052 C   0  0  0  0  0  0  0  0  0  0  0  0
   25.8396  -11.1075  -15.1291 C   0  0  1  0  0  0  0  0  0  0  0  0
   24.8846  -10.3661  -16.0116 C   0  0  0  0  0  0  0  0  0  0  0  0
   24.9208  -10.2901  -17.2395 O   0  0  0  0  0  0  0  0  0  0  0  0
   16.0690   -9.6024  -15.2802 N   0  0  0  0  0  0  0  0  0  0  0  0
   16.5562   -8.9318  -16.4340 C   0  0  0  0  0  0  0  0  0  0  0  0
   15.6585   -8.4767  -17.2810 N   0  0  0  0  0  0  0  0  0  0  0  0
   17.9123   -8.7129  -16.7464 N   0  0  0  0  0  0  0  0  0  0  0  0
   18.9426   -9.2070  -15.8716 C   0  0  0  0  0  0  0  0  0  0  0  0
   20.3077   -8.8056  -16.4638 C   0  0  0  0  0  0  0  0  0  0  0  0
   21.4103   -9.3460  -15.6176 C   0  0  0  0  0  0  0  0  0  0  0  0
   22.7520   -9.0371  -16.1962 C   0  0  2  0  0  0  0  0  0  0  0  0
   23.8041   -9.6549  -15.3577 N   0  0  0  0  0  0  0  0  0  0  0  0
   22.9727   -7.5444  -16.0476 C   0  0  0  0  0  0  0  0  0  0  0  0
   23.8258   -7.0372  -15.1005 O   0  0  0  0  0  0  0  0  0  0  0  0
   22.3450   -6.7912  -16.8133 O   0  0  0  0  0  0  0  0  0  0  0  0
  2  1  1  6
  2  3  1  0
  2  4  1  0
  4  5  1  1
  6  8  1  0
  6  4  1  0
  7  6  2  0
  8  9  1  0
 10  9  1  0
 10 11  1  0
 12  8  1  0
 12 13  1  6
 12 11  1  0
 13 14  2  0
 16 15  1  0
 17 16  2  0
 18 16  1  0
 19 18  1  0
 20 19  1  0
 20 21  1  0
 22 21  1  1
 22 24  1  0
 23 22  1  0
 23 13  1  0
 24 26  2  0
 24 25  1  0
M  END
$$$$
