TPR.pdb
     RDKit          3D

 26 26  0  0  1  0  0  0  0  0999 V2000
   23.6187  -15.7439  -14.6146 C   0  0  0  0  0  0  0  0  0  0  0  0
   22.6156  -16.5088  -15.4384 C   0  0  1  0  0  0  0  0  0  0  0  0
   21.3771  -15.8470  -15.3262 O   0  0  0  0  0  0  0  0  0  0  0  0
   23.0288  -16.4968  -16.8770 C   0  0  2  0  0  0  0  0  0  0  0  0
   21.9361  -16.8724  -17.7017 N   0  0  0  0  0  0  0  0  0  0  0  0
   24.2934  -17.2195  -17.1206 C   0  0  0  0  0  0  0  0  0  0  0  0
   24.1947  -18.4616  -17.2891 O   0  0  0  0  0  0  0  0  0  0  0  0
   25.5903  -16.6253  -17.1765 N   0  0  0  0  0  0  0  0  0  0  0  0
   25.9411  -15.2336  -17.0034 C   0  0  0  0  0  0  0  0  0  0  0  0
   27.4681  -15.1830  -17.1390 C   0  0  0  0  0  0  0  0  0  0  0  0
   27.7476  -16.4081  -18.0345 C   0  0  0  0  0  0  0  0  0  0  0  0
   26.7681  -17.3855  -17.4087 C   0  0  1  0  0  0  0  0  0  0  0  0
   27.3606  -17.9184  -16.1416 C   0  0  0  0  0  0  0  0  0  0  0  0
   27.6240  -17.2790  -15.1235 O   0  0  0  0  0  0  0  0  0  0  0  0
   23.1178  -21.1622  -10.0333 N   0  0  0  0  0  0  0  0  0  0  0  0
   24.4645  -20.8616   -9.6955 C   0  0  0  0  0  0  0  0  0  0  0  0
   24.7182  -20.6096   -8.4296 N   0  0  0  0  0  0  0  0  0  0  0  0
   25.5466  -20.8118  -10.5961 N   0  0  0  0  0  0  0  0  0  0  0  0
   25.3044  -20.6553  -12.0060 C   0  0  0  0  0  0  0  0  0  0  0  0
   26.6645  -20.6724  -12.7308 C   0  0  0  0  0  0  0  0  0  0  0  0
   26.5523  -19.9741  -14.0437 C   0  0  0  0  0  0  0  0  0  0  0  0
   27.8470  -19.9871  -14.7880 C   0  0  2  0  0  0  0  0  0  0  0  0
   27.6647  -19.3351  -16.1046 N   0  0  0  0  0  0  0  0  0  0  0  0
   28.1612  -21.4332  -15.1181 C   0  0  0  0  0  0  0  0  0  0  0  0
   28.9808  -22.1887  -14.3185 O   0  0  0  0  0  0  0  0  0  0  0  0
   27.6532  -21.9115  -16.1482 O   0  0  0  0  0  0  0  0  0  0  0  0
  2  1  1  1
  2  3  1  0
  2  4  1  0
  4  5  1  6
  6  8  1  0
  6  4  1  0
  7  6  2  0
  8  9  1  0
 10  9  1  0
 10 11  1  0
 12  8  1  0
 12 13  1  1
 12 11  1  0
 13 14  2  0
 16 15  1  0
 17 16  2  0
 18 16  1  0
 19 18  1  0
 20 19  1  0
 20 21  1  0
 22 21  1  1
 22 24  1  0
 23 22  1  0
 23 13  1  0
 24 26  2  0
 24 25  1  0
M  END
$$$$
