PVS.pdb
     RDKit          3D

 21 21  0  0  1  0  0  0  0  0999 V2000
   19.9969  -11.3462  -19.4518 N   0  0  0  0  0  0  0  0  0  0  0  0
   19.3960  -12.3104  -20.3241 C   0  0  0  0  0  0  0  0  0  0  0  0
   18.2376  -12.9274  -19.5983 C   0  0  0  0  0  0  0  0  0  0  0  0
   18.4382  -12.4434  -18.1759 C   0  0  0  0  0  0  0  0  0  0  0  0
   19.0410  -11.0712  -18.4250 C   0  0  1  0  0  0  0  0  0  0  0  0
   19.6152  -10.4718  -17.2175 C   0  0  0  0  0  0  0  0  0  0  0  0
   18.8411  -10.1632  -16.2763 O   0  0  0  0  0  0  0  0  0  0  0  0
   22.7881  -11.7973  -15.2730 C   0  0  0  0  0  0  0  0  0  0  0  0
   22.8740  -10.3126  -15.4473 C   0  0  2  0  0  0  0  0  0  0  0  0
   23.4505   -9.6887  -14.1827 C   0  0  0  0  0  0  0  0  0  0  0  0
   21.5393   -9.6832  -15.8009 C   0  0  2  0  0  0  0  0  0  0  0  0
   21.0110  -10.2119  -17.0364 N   0  0  0  0  0  0  0  0  0  0  0  0
   21.6984   -8.2195  -15.8215 C   0  0  0  0  0  0  0  0  0  0  0  0
   22.4628   -7.7428  -16.7091 O   0  0  0  0  0  0  0  0  0  0  0  0
   20.2281   -3.8030  -15.3233 O   0  0  0  0  0  0  0  0  0  0  0  0
   19.9184   -5.1597  -15.0774 C   0  0  0  0  0  0  0  0  0  0  0  0
   21.2411   -5.8953  -15.1086 C   0  0  2  0  0  0  0  0  0  0  0  0
   21.0777   -7.3230  -14.9466 N   0  0  0  0  0  0  0  0  0  0  0  0
   22.0621   -5.3772  -13.9686 C   0  0  0  0  0  0  0  0  0  0  0  0
   22.8131   -4.2172  -14.0946 O   0  0  0  0  0  0  0  0  0  0  0  0
   22.0900   -5.9768  -12.8781 O   0  0  0  0  0  0  0  0  0  0  0  0
  1  5  1  0
  2  3  1  0
  2  1  1  0
  3  4  1  0
  4  5  1  0
  5  6  1  1
  6  7  2  0
  9  8  1  1
  9 11  1  0
 10  9  1  0
 11 13  1  0
 12  6  1  0
 11 12  1  6
 13 18  1  0
 13 14  2  0
 17 16  1  1
 16 15  1  0
 17 19  1  0
 18 17  1  0
 19 21  2  0
 19 20  1  0
M  END
$$$$
