PVS.pdb
     RDKit          3D

 21 21  0  0  1  0  0  0  0  0999 V2000
   23.8657  -15.1899  -19.1877 N   0  0  0  0  0  0  0  0  0  0  0  0
   23.5044  -15.8377  -20.4130 C   0  0  0  0  0  0  0  0  0  0  0  0
   22.9151  -14.8021  -21.3237 C   0  0  0  0  0  0  0  0  0  0  0  0
   22.7134  -13.6188  -20.3981 C   0  0  0  0  0  0  0  0  0  0  0  0
   23.8966  -13.7868  -19.4601 C   0  0  1  0  0  0  0  0  0  0  0  0
   23.8032  -12.9430  -18.2658 C   0  0  0  0  0  0  0  0  0  0  0  0
   22.9374  -13.2259  -17.3993 O   0  0  0  0  0  0  0  0  0  0  0  0
   26.7845  -11.6137  -15.9594 C   0  0  0  0  0  0  0  0  0  0  0  0
   25.8536  -10.5031  -16.3359 C   0  0  2  0  0  0  0  0  0  0  0  0
   25.6842   -9.5627  -15.1493 C   0  0  0  0  0  0  0  0  0  0  0  0
   24.5074  -11.0037  -16.8256 C   0  0  2  0  0  0  0  0  0  0  0  0
   24.6392  -11.8081  -18.0177 N   0  0  0  0  0  0  0  0  0  0  0  0
   23.6113   -9.8493  -17.0053 C   0  0  0  0  0  0  0  0  0  0  0  0
   23.8027   -9.1348  -18.0312 O   0  0  0  0  0  0  0  0  0  0  0  0
   19.8957   -9.9070  -16.6897 O   0  0  0  0  0  0  0  0  0  0  0  0
   20.2489   -8.6961  -16.0525 C   0  0  0  0  0  0  0  0  0  0  0  0
   21.6718   -8.4065  -16.4800 C   0  0  2  0  0  0  0  0  0  0  0  0
   22.5755   -9.4832  -16.1407 N   0  0  0  0  0  0  0  0  0  0  0  0
   22.1086   -7.1714  -15.7547 C   0  0  0  0  0  0  0  0  0  0  0  0
   21.4930   -5.9492  -15.9845 O   0  0  0  0  0  0  0  0  0  0  0  0
   23.0368   -7.2125  -14.9263 O   0  0  0  0  0  0  0  0  0  0  0  0
  1  5  1  0
  2  3  1  0
  2  1  1  0
  3  4  1  0
  4  5  1  0
  5  6  1  1
  6  7  2  0
  9  8  1  1
  9 11  1  0
 10  9  1  0
 11 13  1  0
 12  6  1  0
 11 12  1  6
 13 18  1  0
 13 14  2  0
 17 16  1  1
 16 15  1  0
 17 19  1  0
 18 17  1  0
 19 21  2  0
 19 20  1  0
M  END
$$$$
