PVS.pdb
     RDKit          3D

 21 21  0  0  1  0  0  0  0  0999 V2000
   21.0750  -12.4867  -18.7502 N   0  0  0  0  0  0  0  0  0  0  0  0
   20.5048  -13.6375  -19.3843 C   0  0  0  0  0  0  0  0  0  0  0  0
   19.7359  -14.4001  -18.3467 C   0  0  0  0  0  0  0  0  0  0  0  0
   20.1757  -13.7420  -17.0540 C   0  0  0  0  0  0  0  0  0  0  0  0
   20.3730  -12.3087  -17.5175 C   0  0  1  0  0  0  0  0  0  0  0  0
   21.0843  -11.4840  -16.5373 C   0  0  0  0  0  0  0  0  0  0  0  0
   20.5082  -11.2119  -15.4535 O   0  0  0  0  0  0  0  0  0  0  0  0
   25.2646   -9.7983  -14.5460 C   0  0  0  0  0  0  0  0  0  0  0  0
   24.5546  -10.5301  -15.6425 C   0  0  2  0  0  0  0  0  0  0  0  0
   25.2492  -10.2488  -16.9689 C   0  0  0  0  0  0  0  0  0  0  0  0
   23.0789  -10.1854  -15.7211 C   0  0  2  0  0  0  0  0  0  0  0  0
   22.4029  -10.9629  -16.7329 N   0  0  0  0  0  0  0  0  0  0  0  0
   22.9435   -8.7333  -15.9235 C   0  0  0  0  0  0  0  0  0  0  0  0
   23.3986   -8.2650  -17.0066 O   0  0  0  0  0  0  0  0  0  0  0  0
   20.0062   -6.6616  -15.0831 O   0  0  0  0  0  0  0  0  0  0  0  0
   20.9769   -5.9836  -15.8545 C   0  0  0  0  0  0  0  0  0  0  0  0
   22.3177   -6.4214  -15.3049 C   0  0  2  0  0  0  0  0  0  0  0  0
   22.3574   -7.8391  -15.0228 N   0  0  0  0  0  0  0  0  0  0  0  0
   22.5363   -5.6746  -14.0256 C   0  0  0  0  0  0  0  0  0  0  0  0
   22.6696   -4.2934  -14.0152 O   0  0  0  0  0  0  0  0  0  0  0  0
   22.6036   -6.2772  -12.9385 O   0  0  0  0  0  0  0  0  0  0  0  0
  1  5  1  0
  2  3  1  0
  2  1  1  0
  3  4  1  0
  4  5  1  0
  5  6  1  1
  6  7  2  0
  9  8  1  1
  9 11  1  0
 10  9  1  0
 11 13  1  0
 12  6  1  0
 11 12  1  6
 13 18  1  0
 13 14  2  0
 17 16  1  1
 16 15  1  0
 17 19  1  0
 18 17  1  0
 19 21  2  0
 19 20  1  0
M  END
$$$$
