PVS.pdb
     RDKit          3D

 21 21  0  0  1  0  0  0  0  0999 V2000
   23.1548  -18.8390  -17.8281 N   0  0  0  0  0  0  0  0  0  0  0  0
   22.2428  -17.8611  -18.3416 C   0  0  0  0  0  0  0  0  0  0  0  0
   22.1770  -16.7322  -17.3564 C   0  0  0  0  0  0  0  0  0  0  0  0
   22.8855  -17.3044  -16.1446 C   0  0  0  0  0  0  0  0  0  0  0  0
   23.9241  -18.1885  -16.8138 C   0  0  1  0  0  0  0  0  0  0  0  0
   24.5806  -19.1065  -15.8793 C   0  0  0  0  0  0  0  0  0  0  0  0
   23.9911  -20.1748  -15.5763 O   0  0  0  0  0  0  0  0  0  0  0  0
   28.6244  -19.9590  -15.4660 C   0  0  0  0  0  0  0  0  0  0  0  0
   27.9259  -19.6021  -14.1905 C   0  0  2  0  0  0  0  0  0  0  0  0
   28.4832  -20.4517  -13.0554 C   0  0  0  0  0  0  0  0  0  0  0  0
   26.4184  -19.7468  -14.2845 C   0  0  2  0  0  0  0  0  0  0  0  0
   25.8593  -18.8661  -15.2831 N   0  0  0  0  0  0  0  0  0  0  0  0
   25.8401  -19.5414  -12.9460 C   0  0  0  0  0  0  0  0  0  0  0  0
   25.8957  -18.3686  -12.4761 O   0  0  0  0  0  0  0  0  0  0  0  0
   23.1169  -21.8691  -11.3692 O   0  0  0  0  0  0  0  0  0  0  0  0
   23.2213  -20.5981  -10.7603 C   0  0  0  0  0  0  0  0  0  0  0  0
   24.6807  -20.2105  -10.8657 C   0  0  2  0  0  0  0  0  0  0  0  0
   25.2401  -20.5300  -12.1604 N   0  0  0  0  0  0  0  0  0  0  0  0
   25.4211  -20.9877   -9.8217 C   0  0  0  0  0  0  0  0  0  0  0  0
   25.1595  -20.8048   -8.4713 O   0  0  0  0  0  0  0  0  0  0  0  0
   26.2910  -21.8184  -10.1420 O   0  0  0  0  0  0  0  0  0  0  0  0
  1  5  1  0
  2  3  1  0
  2  1  1  0
  3  4  1  0
  4  5  1  0
  5  6  1  1
  6  7  2  0
  9  8  1  6
  9 11  1  0
 10  9  1  0
 11 13  1  0
 12  6  1  0
 11 12  1  6
 13 18  1  0
 13 14  2  0
 17 16  1  6
 16 15  1  0
 17 19  1  0
 18 17  1  0
 19 21  2  0
 19 20  1  0
M  END
$$$$
