PVS.pdb
     RDKit          3D

 21 21  0  0  1  0  0  0  0  0999 V2000
   21.9701  -11.1698  -16.7895 N   0  0  0  0  0  0  0  0  0  0  0  0
   22.0729  -12.4036  -17.5097 C   0  0  0  0  0  0  0  0  0  0  0  0
   21.0321  -12.3933  -18.5895 C   0  0  0  0  0  0  0  0  0  0  0  0
   20.1723  -11.2028  -18.2136 C   0  0  0  0  0  0  0  0  0  0  0  0
   21.2161  -10.2767  -17.6128 C   0  0  1  0  0  0  0  0  0  0  0  0
   20.6282   -9.1469  -16.8883 C   0  0  0  0  0  0  0  0  0  0  0  0
   20.0560   -8.2441  -17.5501 O   0  0  0  0  0  0  0  0  0  0  0  0
   19.7839   -9.0728  -12.6254 C   0  0  0  0  0  0  0  0  0  0  0  0
   19.1325   -8.2587  -13.7000 C   0  0  2  0  0  0  0  0  0  0  0  0
   17.9531   -9.0331  -14.2746 C   0  0  0  0  0  0  0  0  0  0  0  0
   20.0983   -7.8515  -14.7973 C   0  0  2  0  0  0  0  0  0  0  0  0
   20.6622   -9.0012  -15.4649 N   0  0  0  0  0  0  0  0  0  0  0  0
   21.1195   -6.9611  -14.2210 C   0  0  0  0  0  0  0  0  0  0  0  0
   22.2892   -7.4304  -14.1150 O   0  0  0  0  0  0  0  0  0  0  0  0
   23.1247   -3.4849  -15.6901 O   0  0  0  0  0  0  0  0  0  0  0  0
   22.2273   -4.5674  -15.5492 C   0  0  0  0  0  0  0  0  0  0  0  0
   21.8527   -4.6026  -14.0829 C   0  0  2  0  0  0  0  0  0  0  0  0
   20.9017   -5.6506  -13.7856 N   0  0  0  0  0  0  0  0  0  0  0  0
   21.2257   -3.2829  -13.7551 C   0  0  0  0  0  0  0  0  0  0  0  0
   21.9654   -2.2613  -13.1767 O   0  0  0  0  0  0  0  0  0  0  0  0
   20.0227   -3.0711  -13.9944 O   0  0  0  0  0  0  0  0  0  0  0  0
  1  5  1  0
  2  3  1  0
  2  1  1  0
  3  4  1  0
  4  5  1  0
  5  6  1  1
  6  7  2  0
  9  8  1  1
  9 11  1  0
 10  9  1  0
 11 13  1  0
 12  6  1  0
 11 12  1  1
 13 18  1  0
 13 14  2  0
 17 16  1  6
 16 15  1  0
 17 19  1  0
 18 17  1  0
 19 21  2  0
 19 20  1  0
M  END
$$$$
