PVS.pdb
     RDKit          3D

 21 21  0  0  1  0  0  0  0  0999 V2000
   26.5898  -19.4860  -14.8087 N   0  0  0  0  0  0  0  0  0  0  0  0
   27.7729  -19.1623  -15.5484 C   0  0  0  0  0  0  0  0  0  0  0  0
   28.7330  -20.3053  -15.4026 C   0  0  0  0  0  0  0  0  0  0  0  0
   28.1050  -21.1303  -14.2968 C   0  0  0  0  0  0  0  0  0  0  0  0
   26.6291  -20.8950  -14.5698 C   0  0  1  0  0  0  0  0  0  0  0  0
   25.7670  -21.3402  -13.4719 C   0  0  0  0  0  0  0  0  0  0  0  0
   25.5839  -22.5744  -13.3174 O   0  0  0  0  0  0  0  0  0  0  0  0
   25.8237  -19.9992   -9.7453 C   0  0  0  0  0  0  0  0  0  0  0  0
   24.4120  -20.0906  -10.2359 C   0  0  2  0  0  0  0  0  0  0  0  0
   23.5227  -20.6199   -9.1179 C   0  0  0  0  0  0  0  0  0  0  0  0
   24.2765  -20.9428  -11.4840 C   0  0  2  0  0  0  0  0  0  0  0  0
   25.1135  -20.4561  -12.5554 N   0  0  0  0  0  0  0  0  0  0  0  0
   22.8529  -21.0168  -11.8528 C   0  0  0  0  0  0  0  0  0  0  0  0
   22.4073  -20.0909  -12.5900 O   0  0  0  0  0  0  0  0  0  0  0  0
   18.5249  -23.0861  -11.9871 O   0  0  0  0  0  0  0  0  0  0  0  0
   19.8126  -23.2095  -11.4182 C   0  0  0  0  0  0  0  0  0  0  0  0
   20.5701  -21.9696  -11.8430 C   0  0  2  0  0  0  0  0  0  0  0  0
   21.9628  -22.0195  -11.4569 N   0  0  0  0  0  0  0  0  0  0  0  0
   19.9274  -20.8029  -11.1589 C   0  0  0  0  0  0  0  0  0  0  0  0
   18.7934  -20.1994  -11.6837 O   0  0  0  0  0  0  0  0  0  0  0  0
   20.3968  -20.3461  -10.1005 O   0  0  0  0  0  0  0  0  0  0  0  0
  1  5  1  0
  2  3  1  0
  2  1  1  0
  3  4  1  0
  4  5  1  0
  5  6  1  1
  6  7  2  0
  9  8  1  1
  9 11  1  0
 10  9  1  0
 11 13  1  0
 12  6  1  0
 11 12  1  6
 13 18  1  0
 13 14  2  0
 17 16  1  1
 16 15  1  0
 17 19  1  0
 18 17  1  0
 19 21  2  0
 19 20  1  0
M  END
$$$$
