PVS.pdb
     RDKit          3D

 21 21  0  0  1  0  0  0  0  0999 V2000
   18.4634  -12.9711  -17.0547 N   0  0  0  0  0  0  0  0  0  0  0  0
   17.9986  -14.1269  -16.3477 C   0  0  0  0  0  0  0  0  0  0  0  0
   17.8737  -13.7597  -14.8989 C   0  0  0  0  0  0  0  0  0  0  0  0
   18.5826  -12.4216  -14.8309 C   0  0  0  0  0  0  0  0  0  0  0  0
   18.2415  -11.8495  -16.1964 C   0  0  1  0  0  0  0  0  0  0  0  0
   19.0392  -10.6684  -16.5365 C   0  0  0  0  0  0  0  0  0  0  0  0
   20.2077  -10.8393  -16.9677 O   0  0  0  0  0  0  0  0  0  0  0  0
   17.3561   -6.9861  -17.5936 C   0  0  0  0  0  0  0  0  0  0  0  0
   18.7774   -7.3657  -17.8726 C   0  0  2  0  0  0  0  0  0  0  0  0
   18.8495   -8.1097  -19.2001 C   0  0  0  0  0  0  0  0  0  0  0  0
   19.3970   -8.1877  -16.7577 C   0  0  2  0  0  0  0  0  0  0  0  0
   18.5728   -9.3212  -16.4096 N   0  0  0  0  0  0  0  0  0  0  0  0
   19.6712   -7.3015  -15.6142 C   0  0  0  0  0  0  0  0  0  0  0  0
   18.7436   -7.1644  -14.7655 O   0  0  0  0  0  0  0  0  0  0  0  0
   22.4888   -4.6146  -12.8147 O   0  0  0  0  0  0  0  0  0  0  0  0
   22.4869   -5.4610  -13.9464 C   0  0  0  0  0  0  0  0  0  0  0  0
   21.0321   -5.7755  -14.2219 C   0  0  2  0  0  0  0  0  0  0  0  0
   20.8637   -6.6061  -15.3936 N   0  0  0  0  0  0  0  0  0  0  0  0
   20.3349   -4.4715  -14.4580 C   0  0  0  0  0  0  0  0  0  0  0  0
   19.6143   -3.8503  -13.4478 O   0  0  0  0  0  0  0  0  0  0  0  0
   20.3858   -3.9128  -15.5691 O   0  0  0  0  0  0  0  0  0  0  0  0
  1  5  1  0
  2  3  1  0
  2  1  1  0
  3  4  1  0
  4  5  1  0
  5  6  1  6
  6  7  2  0
  9  8  1  1
  9 11  1  0
 10  9  1  0
 11 13  1  0
 12  6  1  0
 11 12  1  1
 13 18  1  0
 13 14  2  0
 17 16  1  6
 16 15  1  0
 17 19  1  0
 18 17  1  0
 19 21  2  0
 19 20  1  0
M  END
$$$$
