YCI.pdb
     RDKit          3D

 27 27  0  0  1  0  0  0  0  0999 V2000
   29.3377  -17.5568  -18.3544 O   0  0  0  0  0  0  0  0  0  0  0  0
   28.7053  -17.6319  -17.1208 C   0  0  0  0  0  0  0  0  0  0  0  0
   27.5242  -16.9667  -16.8631 C   0  0  0  0  0  0  0  0  0  0  0  0
   26.9262  -17.0676  -15.6206 C   0  0  0  0  0  0  0  0  0  0  0  0
   27.4672  -17.8219  -14.5964 C   0  0  0  0  0  0  0  0  0  0  0  0
   26.8294  -17.9337  -13.2609 C   0  0  0  0  0  0  0  0  0  0  0  0
   26.1004  -19.2553  -13.1893 C   0  0  2  0  0  0  0  0  0  0  0  0
   25.0072  -19.1983  -14.1409 N   0  0  0  0  0  0  0  0  0  0  0  0
   25.5578  -19.5306  -11.8503 C   0  0  0  0  0  0  0  0  0  0  0  0
   24.3143  -19.4441  -11.6215 O   0  0  0  0  0  0  0  0  0  0  0  0
   28.6502  -18.4864  -14.8592 C   0  0  0  0  0  0  0  0  0  0  0  0
   29.2593  -18.3937  -16.0991 C   0  0  0  0  0  0  0  0  0  0  0  0
   26.3658  -19.9051  -10.7387 N   0  0  0  0  0  0  0  0  0  0  0  0
   25.8276  -20.0866   -9.4044 C   0  0  1  0  0  0  0  0  0  0  0  0
   24.7840  -21.1827   -9.4929 C   0  0  0  0  0  0  0  0  0  0  0  0
   24.1275  -21.5918   -7.8466 S   0  0  0  0  0  0  0  0  0  0  0  0
   26.8708  -20.5614   -8.4548 C   0  0  0  0  0  0  0  0  0  0  0  0
   27.5275  -21.5835   -8.7778 O   0  0  0  0  0  0  0  0  0  0  0  0
   30.8539  -18.7500   -4.1087 C   0  0  0  0  0  0  0  0  0  0  0  0
   29.9900  -19.8383   -4.6736 C   0  0  0  0  0  0  0  0  0  0  0  0
   28.9960  -19.4563   -5.6942 C   0  0  2  0  0  0  0  0  0  0  0  0
   28.2490  -18.1992   -5.2373 C   0  0  0  0  0  0  0  0  0  0  0  0
   28.0770  -20.4833   -6.2263 C   0  0  2  0  0  0  0  0  0  0  0  0
   27.1550  -19.9344   -7.2325 N   0  0  0  0  0  0  0  0  0  0  0  0
   27.2638  -21.1122   -5.1781 C   0  0  0  0  0  0  0  0  0  0  0  0
   27.6933  -22.1707   -4.3816 O   0  0  0  0  0  0  0  0  0  0  0  0
   26.0972  -20.7041   -4.9501 O   0  0  0  0  0  0  0  0  0  0  0  0
  1  2  1  0
  2 12  2  0
  3  4  2  0
  3  2  1  0
  4  5  1  0
  5  6  1  0
  5 11  2  0
  6  7  1  0
  7  8  1  6
  7  9  1  0
  9 13  1  0
  9 10  2  0
 12 11  1  0
 13 14  1  0
 14 17  1  0
 14 15  1  6
 16 15  1  0
 17 18  2  0
 19 20  1  0
 20 21  1  0
 21 23  1  0
 21 22  1  1
 23 25  1  0
 24 17  1  0
 23 24  1  6
 25 26  1  0
 27 25  2  0
M  END
$$$$
