YCI.pdb
     RDKit          3D

 27 27  0  0  1  0  0  0  0  0999 V2000
   20.4483  -14.0630  -20.1807 O   0  0  0  0  0  0  0  0  0  0  0  0
   21.0035  -15.0855  -19.4233 C   0  0  0  0  0  0  0  0  0  0  0  0
   20.6672  -16.4087  -19.6233 C   0  0  0  0  0  0  0  0  0  0  0  0
   21.2432  -17.3973  -18.8471 C   0  0  0  0  0  0  0  0  0  0  0  0
   22.1637  -17.1186  -17.8543 C   0  0  0  0  0  0  0  0  0  0  0  0
   22.7850  -18.1759  -17.0183 C   0  0  0  0  0  0  0  0  0  0  0  0
   24.1918  -18.4128  -17.5161 C   0  0  2  0  0  0  0  0  0  0  0  0
   24.0910  -19.1350  -18.7700 N   0  0  0  0  0  0  0  0  0  0  0  0
   25.0012  -19.1989  -16.5727 C   0  0  0  0  0  0  0  0  0  0  0  0
   24.6824  -20.3891  -16.2763 O   0  0  0  0  0  0  0  0  0  0  0  0
   22.4973  -15.7919  -17.6577 C   0  0  0  0  0  0  0  0  0  0  0  0
   21.9278  -14.7922  -18.4280 C   0  0  0  0  0  0  0  0  0  0  0  0
   26.1730  -18.6968  -15.9374 N   0  0  0  0  0  0  0  0  0  0  0  0
   26.9305  -19.4663  -14.9695 C   0  0  1  0  0  0  0  0  0  0  0  0
   28.3168  -18.8559  -14.9055 C   0  0  0  0  0  0  0  0  0  0  0  0
   29.0765  -18.7895  -16.5569 S   0  0  0  0  0  0  0  0  0  0  0  0
   26.3472  -19.3531  -13.6048 C   0  0  0  0  0  0  0  0  0  0  0  0
   25.9936  -18.2105  -13.2179 O   0  0  0  0  0  0  0  0  0  0  0  0
   21.7387  -20.5442  -10.4691 C   0  0  0  0  0  0  0  0  0  0  0  0
   23.2230  -20.3924  -10.3145 C   0  0  0  0  0  0  0  0  0  0  0  0
   24.0504  -20.5307  -11.5278 C   0  0  2  0  0  0  0  0  0  0  0  0
   23.6811  -21.8272  -12.2554 C   0  0  0  0  0  0  0  0  0  0  0  0
   25.5132  -20.3495  -11.4279 C   0  0  2  0  0  0  0  0  0  0  0  0
   26.1741  -20.4431  -12.7388 N   0  0  0  0  0  0  0  0  0  0  0  0
   26.1459  -21.3350  -10.5425 C   0  0  0  0  0  0  0  0  0  0  0  0
   26.9239  -22.4017  -10.9854 O   0  0  0  0  0  0  0  0  0  0  0  0
   26.0024  -21.2525   -9.2967 O   0  0  0  0  0  0  0  0  0  0  0  0
  1  2  1  0
  2 12  2  0
  3  4  2  0
  3  2  1  0
  4  5  1  0
  5  6  1  0
  5 11  2  0
  6  7  1  0
  7  8  1  6
  7  9  1  0
  9 13  1  0
  9 10  2  0
 12 11  1  0
 13 14  1  0
 14 17  1  0
 14 15  1  1
 16 15  1  0
 17 18  2  0
 19 20  1  0
 20 21  1  0
 21 23  1  0
 21 22  1  1
 23 25  1  0
 24 17  1  0
 23 24  1  6
 25 26  1  0
 27 25  2  0
M  END
$$$$
