YCI.pdb
     RDKit          3D

 27 27  0  0  1  0  0  0  0  0999 V2000
   19.1039  -17.6180  -15.5983 O   0  0  0  0  0  0  0  0  0  0  0  0
   19.8376  -18.4455  -14.7592 C   0  0  0  0  0  0  0  0  0  0  0  0
   19.9747  -19.7968  -15.0023 C   0  0  0  0  0  0  0  0  0  0  0  0
   20.7142  -20.5866  -14.1416 C   0  0  0  0  0  0  0  0  0  0  0  0
   21.3398  -20.0761  -13.0196 C   0  0  0  0  0  0  0  0  0  0  0  0
   22.1348  -20.9193  -12.0923 C   0  0  0  0  0  0  0  0  0  0  0  0
   23.5979  -20.7514  -12.4302 C   0  0  2  0  0  0  0  0  0  0  0  0
   23.8137  -21.3566  -13.7307 N   0  0  0  0  0  0  0  0  0  0  0  0
   24.4831  -21.3953  -11.4480 C   0  0  0  0  0  0  0  0  0  0  0  0
   24.7962  -22.6184  -11.5574 O   0  0  0  0  0  0  0  0  0  0  0  0
   21.1996  -18.7222  -12.7802 C   0  0  0  0  0  0  0  0  0  0  0  0
   20.4617  -17.9202  -13.6343 C   0  0  0  0  0  0  0  0  0  0  0  0
   25.0411  -20.7125  -10.3294 N   0  0  0  0  0  0  0  0  0  0  0  0
   26.2576  -21.1490   -9.6718 C   0  0  1  0  0  0  0  0  0  0  0  0
   27.3587  -21.1217  -10.7136 C   0  0  0  0  0  0  0  0  0  0  0  0
   28.9434  -21.6599  -10.0010 S   0  0  0  0  0  0  0  0  0  0  0  0
   26.6630  -20.2076   -8.5926 C   0  0  0  0  0  0  0  0  0  0  0  0
   26.6168  -18.9776   -8.8480 O   0  0  0  0  0  0  0  0  0  0  0  0
   27.8263  -20.2060   -2.4114 C   0  0  0  0  0  0  0  0  0  0  0  0
   27.7354  -19.5027   -3.7332 C   0  0  0  0  0  0  0  0  0  0  0  0
   27.5623  -20.3375   -4.9368 C   0  0  2  0  0  0  0  0  0  0  0  0
   28.5533  -21.5051   -4.8980 C   0  0  0  0  0  0  0  0  0  0  0  0
   27.5219  -19.6900   -6.2641 C   0  0  2  0  0  0  0  0  0  0  0  0
   27.0889  -20.6177   -7.3204 N   0  0  0  0  0  0  0  0  0  0  0  0
   28.8227  -19.1399   -6.6649 C   0  0  0  0  0  0  0  0  0  0  0  0
   29.2769  -17.8695   -6.3198 O   0  0  0  0  0  0  0  0  0  0  0  0
   29.6106  -19.8222   -7.3672 O   0  0  0  0  0  0  0  0  0  0  0  0
  1  2  1  0
  2 12  2  0
  3  4  2  0
  3  2  1  0
  4  5  1  0
  5  6  1  0
  5 11  2  0
  6  7  1  0
  7  8  1  6
  7  9  1  0
  9 13  1  0
  9 10  2  0
 12 11  1  0
 13 14  1  0
 14 17  1  0
 14 15  1  6
 16 15  1  0
 17 18  2  0
 19 20  1  0
 20 21  1  0
 21 23  1  0
 21 22  1  6
 23 25  1  0
 24 17  1  0
 23 24  1  6
 25 26  1  0
 27 25  2  0
M  END
$$$$
