YCI.pdb
     RDKit          3D

 27 27  0  0  1  0  0  0  0  0999 V2000
   20.1468  -25.4342  -23.3121 O   0  0  0  0  0  0  0  0  0  0  0  0
   20.1388  -25.5995  -21.9337 C   0  0  0  0  0  0  0  0  0  0  0  0
   19.8832  -24.5516  -21.0732 C   0  0  0  0  0  0  0  0  0  0  0  0
   19.8846  -24.7583  -19.7061 C   0  0  0  0  0  0  0  0  0  0  0  0
   20.1359  -25.9957  -19.1436 C   0  0  0  0  0  0  0  0  0  0  0  0
   20.1386  -26.2231  -17.6770 C   0  0  0  0  0  0  0  0  0  0  0  0
   21.4242  -25.6673  -17.1101 C   0  0  2  0  0  0  0  0  0  0  0  0
   22.4820  -26.6044  -17.4373 N   0  0  0  0  0  0  0  0  0  0  0  0
   21.3709  -25.4936  -15.6507 C   0  0  0  0  0  0  0  0  0  0  0  0
   21.9828  -26.2900  -14.8777 O   0  0  0  0  0  0  0  0  0  0  0  0
   20.3914  -27.0422  -20.0094 C   0  0  0  0  0  0  0  0  0  0  0  0
   20.3930  -26.8486  -21.3804 C   0  0  0  0  0  0  0  0  0  0  0  0
   20.6475  -24.4462  -15.0117 N   0  0  0  0  0  0  0  0  0  0  0  0
   20.5337  -24.3384  -13.5700 C   0  0  1  0  0  0  0  0  0  0  0  0
   19.9786  -22.9597  -13.2712 C   0  0  0  0  0  0  0  0  0  0  0  0
   19.6171  -22.7730  -11.4983 S   0  0  0  0  0  0  0  0  0  0  0  0
   19.5594  -25.3222  -13.0241 C   0  0  0  0  0  0  0  0  0  0  0  0
   18.4268  -25.3793  -13.5665 O   0  0  0  0  0  0  0  0  0  0  0  0
   19.3559  -30.6245   -9.7510 C   0  0  0  0  0  0  0  0  0  0  0  0
   18.6630  -29.3878  -10.2415 C   0  0  0  0  0  0  0  0  0  0  0  0
   19.5047  -28.3145  -10.8029 C   0  0  2  0  0  0  0  0  0  0  0  0
   20.6067  -27.9508   -9.8029 C   0  0  0  0  0  0  0  0  0  0  0  0
   18.8584  -27.1153  -11.3746 C   0  0  2  0  0  0  0  0  0  0  0  0
   19.8369  -26.1786  -11.9482 N   0  0  0  0  0  0  0  0  0  0  0  0
   18.0647  -26.3751  -10.3859 C   0  0  0  0  0  0  0  0  0  0  0  0
   18.4846  -25.2031   -9.7619 O   0  0  0  0  0  0  0  0  0  0  0  0
   16.9272  -26.7889  -10.0476 O   0  0  0  0  0  0  0  0  0  0  0  0
  1  2  1  0
  2 12  2  0
  3  4  2  0
  3  2  1  0
  4  5  1  0
  5  6  1  0
  5 11  2  0
  6  7  1  0
  7  8  1  1
  7  9  1  0
  9 13  1  0
  9 10  2  0
 12 11  1  0
 13 14  1  0
 14 17  1  0
 14 15  1  6
 16 15  1  0
 17 18  2  0
 19 20  1  0
 20 21  1  0
 21 23  1  0
 21 22  1  1
 23 25  1  0
 24 17  1  0
 23 24  1  1
 25 26  1  0
 27 25  2  0
M  END
$$$$
