YCI.pdb
     RDKit          3D

 27 27  0  0  1  0  0  0  0  0999 V2000
   20.2412  -22.2862  -16.1733 O   0  0  0  0  0  0  0  0  0  0  0  0
   21.4613  -21.9963  -15.5777 C   0  0  0  0  0  0  0  0  0  0  0  0
   22.3671  -22.9837  -15.2485 C   0  0  0  0  0  0  0  0  0  0  0  0
   23.5717  -22.6527  -14.6562 C   0  0  0  0  0  0  0  0  0  0  0  0
   23.9231  -21.3469  -14.3697 C   0  0  0  0  0  0  0  0  0  0  0  0
   25.2148  -20.9860  -13.7340 C   0  0  0  0  0  0  0  0  0  0  0  0
   25.2451  -21.5790  -12.3446 C   0  0  2  0  0  0  0  0  0  0  0  0
   24.0062  -21.2070  -11.6883 N   0  0  0  0  0  0  0  0  0  0  0  0
   26.3782  -21.0896  -11.5449 C   0  0  0  0  0  0  0  0  0  0  0  0
   27.5656  -21.1717  -11.9801 O   0  0  0  0  0  0  0  0  0  0  0  0
   23.0126  -20.3614  -14.7012 C   0  0  0  0  0  0  0  0  0  0  0  0
   21.8028  -20.6793  -15.2947 C   0  0  0  0  0  0  0  0  0  0  0  0
   26.2321  -20.5020  -10.2556 N   0  0  0  0  0  0  0  0  0  0  0  0
   27.3415  -19.9091   -9.5342 C   0  0  1  0  0  0  0  0  0  0  0  0
   27.0749  -18.4187   -9.4582 C   0  0  0  0  0  0  0  0  0  0  0  0
   25.7065  -18.0589   -8.3151 S   0  0  0  0  0  0  0  0  0  0  0  0
   27.4095  -20.4060   -8.1328 C   0  0  0  0  0  0  0  0  0  0  0  0
   26.4006  -21.0031   -7.6793 O   0  0  0  0  0  0  0  0  0  0  0  0
   31.4360  -20.5052   -3.2621 C   0  0  0  0  0  0  0  0  0  0  0  0
   30.1018  -20.8166   -3.8727 C   0  0  0  0  0  0  0  0  0  0  0  0
   29.8700  -20.3753   -5.2609 C   0  0  2  0  0  0  0  0  0  0  0  0
   30.3650  -18.9355   -5.4308 C   0  0  0  0  0  0  0  0  0  0  0  0
   28.5394  -20.5784   -5.8698 C   0  0  2  0  0  0  0  0  0  0  0  0
   28.5284  -20.2440   -7.3023 N   0  0  0  0  0  0  0  0  0  0  0  0
   27.4926  -19.7791   -5.2212 C   0  0  0  0  0  0  0  0  0  0  0  0
   27.1876  -18.4633   -5.5601 O   0  0  0  0  0  0  0  0  0  0  0  0
   26.8024  -20.2712   -4.2933 O   0  0  0  0  0  0  0  0  0  0  0  0
  1  2  1  0
  2 12  2  0
  3  4  2  0
  3  2  1  0
  4  5  1  0
  5  6  1  0
  5 11  2  0
  6  7  1  0
  7  8  1  1
  7  9  1  0
  9 13  1  0
  9 10  2  0
 12 11  1  0
 13 14  1  0
 14 17  1  0
 14 15  1  1
 16 15  1  0
 17 18  2  0
 19 20  1  0
 20 21  1  0
 21 23  1  0
 21 22  1  1
 23 25  1  0
 24 17  1  0
 23 24  1  6
 25 26  1  0
 27 25  2  0
M  END
$$$$
