YCI.pdb
     RDKit          3D

 27 27  0  0  1  0  0  0  0  0999 V2000
   22.5880   -2.6148  -22.0065 O   0  0  0  0  0  0  0  0  0  0  0  0
   22.0732   -3.4857  -21.0558 C   0  0  0  0  0  0  0  0  0  0  0  0
   21.8423   -4.8175  -21.3333 C   0  0  0  0  0  0  0  0  0  0  0  0
   21.3284   -5.6520  -20.3581 C   0  0  0  0  0  0  0  0  0  0  0  0
   21.0263   -5.2065  -19.0849 C   0  0  0  0  0  0  0  0  0  0  0  0
   20.4745   -6.0979  -18.0343 C   0  0  0  0  0  0  0  0  0  0  0  0
   21.6279   -6.7284  -17.2892 C   0  0  2  0  0  0  0  0  0  0  0  0
   22.2791   -7.6503  -18.2003 N   0  0  0  0  0  0  0  0  0  0  0  0
   21.1940   -7.4630  -16.0913 C   0  0  0  0  0  0  0  0  0  0  0  0
   21.1446   -8.7293  -16.0867 O   0  0  0  0  0  0  0  0  0  0  0  0
   21.2592   -3.8719  -18.8117 C   0  0  0  0  0  0  0  0  0  0  0  0
   21.7735   -3.0256  -19.7793 C   0  0  0  0  0  0  0  0  0  0  0  0
   20.8066   -6.8253  -14.8780 N   0  0  0  0  0  0  0  0  0  0  0  0
   20.4882   -7.5639  -13.6714 C   0  0  1  0  0  0  0  0  0  0  0  0
   21.7552   -8.2761  -13.2404 C   0  0  0  0  0  0  0  0  0  0  0  0
   21.5767   -8.9689  -11.5680 S   0  0  0  0  0  0  0  0  0  0  0  0
   20.1069   -6.6527  -12.5579 C   0  0  0  0  0  0  0  0  0  0  0  0
   20.9698   -5.8294  -12.1606 O   0  0  0  0  0  0  0  0  0  0  0  0
   16.4805   -3.3346  -13.6130 C   0  0  0  0  0  0  0  0  0  0  0  0
   17.6001   -4.0929  -12.9639 C   0  0  0  0  0  0  0  0  0  0  0  0
   17.3072   -4.7821  -11.6931 C   0  0  2  0  0  0  0  0  0  0  0  0
   16.6674   -3.7961  -10.7106 C   0  0  0  0  0  0  0  0  0  0  0  0
   18.3620   -5.5948  -11.0534 C   0  0  2  0  0  0  0  0  0  0  0  0
   18.8492   -6.6655  -11.9368 N   0  0  0  0  0  0  0  0  0  0  0  0
   17.9131   -6.2223   -9.8043 C   0  0  0  0  0  0  0  0  0  0  0  0
   17.9771   -5.6133   -8.5537 O   0  0  0  0  0  0  0  0  0  0  0  0
   17.4348   -7.3845   -9.8148 O   0  0  0  0  0  0  0  0  0  0  0  0
  1  2  1  0
  2 12  2  0
  3  4  2  0
  3  2  1  0
  4  5  1  0
  5  6  1  0
  5 11  2  0
  6  7  1  0
  7  8  1  6
  7  9  1  0
  9 13  1  0
  9 10  2  0
 12 11  1  0
 13 14  1  0
 14 17  1  0
 14 15  1  1
 16 15  1  0
 17 18  2  0
 19 20  1  0
 20 21  1  0
 21 23  1  0
 21 22  1  1
 23 25  1  0
 24 17  1  0
 23 24  1  6
 25 26  1  0
 27 25  2  0
M  END
$$$$
