CSM.pdb
     RDKit          3D

 21 20  0  0  1  0  0  0  0  0999 V2000
    7.8220  -15.0130   17.6938 N   0  0  0  0  0  0  0  0  0  0  0  0
    8.5197  -14.4572   18.8556 C   0  0  1  0  0  0  0  0  0  0  0  0
    7.8085  -13.1582   19.2095 C   0  0  0  0  0  0  0  0  0  0  0  0
    8.6626  -11.7750   18.3654 S   0  0  0  0  0  0  0  0  0  0  0  0
    8.3703  -15.3797   20.0001 C   0  0  0  0  0  0  0  0  0  0  0  0
    7.2370  -15.8699   20.3018 O   0  0  0  0  0  0  0  0  0  0  0  0
   10.2585  -18.6213   21.0709 O   0  0  0  0  0  0  0  0  0  0  0  0
   10.5747  -17.5632   21.9239 C   0  0  0  0  0  0  0  0  0  0  0  0
    9.3844  -16.6073   21.8638 C   0  0  2  0  0  0  0  0  0  0  0  0
    9.5270  -15.7075   20.7584 N   0  0  0  0  0  0  0  0  0  0  0  0
    9.4136  -15.8597   23.1623 C   0  0  0  0  0  0  0  0  0  0  0  0
   10.3177  -15.0019   23.3050 O   0  0  0  0  0  0  0  0  0  0  0  0
    7.2122  -11.0664   27.0426 C   0  0  0  0  0  0  0  0  0  0  0  0
    6.2101  -12.5665   27.0239 S   0  0  0  0  0  0  0  0  0  0  0  0
    7.3158  -14.0236   27.0910 C   0  0  0  0  0  0  0  0  0  0  0  0
    7.3031  -14.6636   25.7424 C   0  0  0  0  0  0  0  0  0  0  0  0
    8.6117  -15.3499   25.4452 C   0  0  2  0  0  0  0  0  0  0  0  0
    8.4730  -16.1009   24.1846 N   0  0  0  0  0  0  0  0  0  0  0  0
    9.0083  -16.3410   26.4613 C   0  0  0  0  0  0  0  0  0  0  0  0
    9.2090  -16.0294   27.6537 O   0  0  0  0  0  0  0  0  0  0  0  0
    9.1731  -17.6703   26.1302 O   0  0  0  0  0  0  0  0  0  0  0  0
  2  1  1  6
  3  2  1  0
  4  3  1  0
  5  2  1  0
  6  5  2  0
  7  8  1  0
  9  8  1  1
  9 11  1  0
  9 10  1  0
 10  5  1  0
 11 12  2  0
 14 13  1  0
 14 15  1  0
 15 16  1  0
 17 16  1  1
 18 17  1  0
 18 11  1  0
 19 21  1  0
 19 17  1  0
 20 19  2  0
M  END
$$$$
