CSM.pdb
     RDKit          3D

 21 20  0  0  1  0  0  0  0  0999 V2000
    7.8306  -14.2213   17.6213 N   0  0  0  0  0  0  0  0  0  0  0  0
    8.9761  -14.3553   18.5243 C   0  0  1  0  0  0  0  0  0  0  0  0
    9.4055  -12.9421   18.8945 C   0  0  0  0  0  0  0  0  0  0  0  0
    8.0725  -12.1656   19.8821 S   0  0  0  0  0  0  0  0  0  0  0  0
    8.5424  -15.0342   19.7628 C   0  0  0  0  0  0  0  0  0  0  0  0
    7.3354  -14.9697   20.1562 O   0  0  0  0  0  0  0  0  0  0  0  0
   11.2609  -17.1970   22.0625 O   0  0  0  0  0  0  0  0  0  0  0  0
    9.9972  -17.7412   21.8299 C   0  0  0  0  0  0  0  0  0  0  0  0
    9.0624  -16.5518   21.6163 C   0  0  2  0  0  0  0  0  0  0  0  0
    9.5093  -15.7636   20.5069 N   0  0  0  0  0  0  0  0  0  0  0  0
    9.1316  -15.7629   22.8885 C   0  0  0  0  0  0  0  0  0  0  0  0
    9.8998  -14.7713   22.9023 O   0  0  0  0  0  0  0  0  0  0  0  0
    6.9250  -10.8825   26.1624 C   0  0  0  0  0  0  0  0  0  0  0  0
    6.0539  -12.4010   26.5983 S   0  0  0  0  0  0  0  0  0  0  0  0
    7.2669  -13.7639   26.7444 C   0  0  0  0  0  0  0  0  0  0  0  0
    7.2253  -14.5448   25.4728 C   0  0  0  0  0  0  0  0  0  0  0  0
    8.5187  -15.2813   25.2352 C   0  0  2  0  0  0  0  0  0  0  0  0
    8.3726  -16.1097   24.0249 N   0  0  0  0  0  0  0  0  0  0  0  0
    8.8807  -16.2132   26.3181 C   0  0  0  0  0  0  0  0  0  0  0  0
    8.7770  -17.4514   26.1944 O   0  0  0  0  0  0  0  0  0  0  0  0
    9.3569  -15.7471   27.5263 O   0  0  0  0  0  0  0  0  0  0  0  0
  2  1  1  6
  3  2  1  0
  4  3  1  0
  5  2  1  0
  6  5  2  0
  7  8  1  0
  9  8  1  1
  9 11  1  0
  9 10  1  0
 10  5  1  0
 11 12  2  0
 14 13  1  0
 14 15  1  0
 15 16  1  0
 17 16  1  1
 18 17  1  0
 18 11  1  0
 19 21  1  0
 19 17  1  0
 20 19  2  0
M  END
$$$$
