CSM.pdb
     RDKit          3D

 21 20  0  0  1  0  0  0  0  0999 V2000
    7.7651  -14.5053   17.4185 N   0  0  0  0  0  0  0  0  0  0  0  0
    8.6590  -14.1912   18.5355 C   0  0  1  0  0  0  0  0  0  0  0  0
    8.5961  -12.6825   18.7317 C   0  0  0  0  0  0  0  0  0  0  0  0
    9.7266  -12.2227   20.0977 S   0  0  0  0  0  0  0  0  0  0  0  0
    8.1434  -14.8279   19.7651 C   0  0  0  0  0  0  0  0  0  0  0  0
    6.9049  -14.7949   20.0492 O   0  0  0  0  0  0  0  0  0  0  0  0
   10.5454  -17.4262   21.8525 O   0  0  0  0  0  0  0  0  0  0  0  0
    9.1639  -17.6114   21.7874 C   0  0  0  0  0  0  0  0  0  0  0  0
    8.5554  -16.2105   21.7469 C   0  0  2  0  0  0  0  0  0  0  0  0
    9.0674  -15.4804   20.6259 N   0  0  0  0  0  0  0  0  0  0  0  0
    8.9694  -15.5639   23.0339 C   0  0  0  0  0  0  0  0  0  0  0  0
   10.1059  -15.0337   23.0646 O   0  0  0  0  0  0  0  0  0  0  0  0
    6.4553  -11.7971   27.9384 C   0  0  0  0  0  0  0  0  0  0  0  0
    5.8143  -12.1824   26.2967 S   0  0  0  0  0  0  0  0  0  0  0  0
    7.1167  -13.0331   25.3321 C   0  0  0  0  0  0  0  0  0  0  0  0
    7.5494  -14.2295   26.1130 C   0  0  0  0  0  0  0  0  0  0  0  0
    8.6597  -14.9720   25.4147 C   0  0  2  0  0  0  0  0  0  0  0  0
    8.1284  -15.5459   24.1653 N   0  0  0  0  0  0  0  0  0  0  0  0
    9.1910  -16.1105   26.1852 C   0  0  0  0  0  0  0  0  0  0  0  0
    8.8647  -17.2908   25.9411 O   0  0  0  0  0  0  0  0  0  0  0  0
   10.0836  -15.9136   27.2188 O   0  0  0  0  0  0  0  0  0  0  0  0
  2  1  1  6
  3  2  1  0
  4  3  1  0
  5  2  1  0
  6  5  2  0
  7  8  1  0
  9  8  1  1
  9 11  1  0
  9 10  1  0
 10  5  1  0
 11 12  2  0
 14 13  1  0
 14 15  1  0
 15 16  1  0
 17 16  1  1
 18 17  1  0
 18 11  1  0
 19 21  1  0
 19 17  1  0
 20 19  2  0
M  END
$$$$
