CSM.pdb
     RDKit          3D

 21 20  0  0  1  0  0  0  0  0999 V2000
    7.3440  -20.4354   21.7818 N   0  0  0  0  0  0  0  0  0  0  0  0
    6.7088  -19.2593   22.3810 C   0  0  1  0  0  0  0  0  0  0  0  0
    6.5904  -19.5416   23.8726 C   0  0  0  0  0  0  0  0  0  0  0  0
    5.5236  -18.2584   24.6278 S   0  0  0  0  0  0  0  0  0  0  0  0
    7.5947  -18.0889   22.2122 C   0  0  0  0  0  0  0  0  0  0  0  0
    8.8461  -18.1807   22.4159 O   0  0  0  0  0  0  0  0  0  0  0  0
    5.9250  -14.4854   21.5543 O   0  0  0  0  0  0  0  0  0  0  0  0
    7.1071  -14.6365   20.8286 C   0  0  0  0  0  0  0  0  0  0  0  0
    7.8838  -15.7546   21.5221 C   0  0  2  0  0  0  0  0  0  0  0  0
    7.0135  -16.8539   21.8155 N   0  0  0  0  0  0  0  0  0  0  0  0
    8.4098  -15.1438   22.7855 C   0  0  0  0  0  0  0  0  0  0  0  0
    8.6385  -13.9105   22.7692 O   0  0  0  0  0  0  0  0  0  0  0  0
    7.5838  -10.8621   26.0773 C   0  0  0  0  0  0  0  0  0  0  0  0
    6.6752  -12.2211   26.8404 S   0  0  0  0  0  0  0  0  0  0  0  0
    7.7344  -13.7138   26.8540 C   0  0  0  0  0  0  0  0  0  0  0  0
    7.6549  -14.3372   25.4999 C   0  0  0  0  0  0  0  0  0  0  0  0
    8.8609  -15.1956   25.2162 C   0  0  2  0  0  0  0  0  0  0  0  0
    8.6411  -15.9103   23.9460 N   0  0  0  0  0  0  0  0  0  0  0  0
    9.0995  -16.2401   26.2283 C   0  0  0  0  0  0  0  0  0  0  0  0
    8.7318  -17.4222   26.0656 O   0  0  0  0  0  0  0  0  0  0  0  0
    9.7493  -15.9485   27.4100 O   0  0  0  0  0  0  0  0  0  0  0  0
  2  1  1  6
  3  2  1  0
  4  3  1  0
  5  2  1  0
  6  5  2  0
  7  8  1  0
  9  8  1  1
  9 11  1  0
  9 10  1  0
 10  5  1  0
 11 12  2  0
 14 13  1  0
 14 15  1  0
 15 16  1  0
 17 16  1  1
 18 17  1  0
 18 11  1  0
 19 21  1  0
 19 17  1  0
 20 19  2  0
M  END
$$$$
