CSM.pdb
     RDKit          3D

 21 20  0  0  1  0  0  0  0  0999 V2000
    7.6202  -14.6215   17.9250 N   0  0  0  0  0  0  0  0  0  0  0  0
    8.4944  -14.2868   19.0518 C   0  0  1  0  0  0  0  0  0  0  0  0
    8.1370  -12.8679   19.4729 C   0  0  0  0  0  0  0  0  0  0  0  0
    8.9214  -11.6958   18.3041 S   0  0  0  0  0  0  0  0  0  0  0  0
    8.1912  -15.1840   20.1859 C   0  0  0  0  0  0  0  0  0  0  0  0
    6.9929  -15.5015   20.4669 O   0  0  0  0  0  0  0  0  0  0  0  0
   11.1788  -17.3210   21.7129 O   0  0  0  0  0  0  0  0  0  0  0  0
    9.8951  -17.8144   21.9489 C   0  0  0  0  0  0  0  0  0  0  0  0
    8.9847  -16.5902   22.0303 C   0  0  2  0  0  0  0  0  0  0  0  0
    9.2741  -15.6855   20.9580 N   0  0  0  0  0  0  0  0  0  0  0  0
    9.2920  -15.9581   23.3539 C   0  0  0  0  0  0  0  0  0  0  0  0
   10.3220  -15.2451   23.4188 O   0  0  0  0  0  0  0  0  0  0  0  0
    6.0051  -10.8661   25.8510 C   0  0  0  0  0  0  0  0  0  0  0  0
    6.1339  -12.5473   26.4926 S   0  0  0  0  0  0  0  0  0  0  0  0
    7.5655  -13.3768   25.7099 C   0  0  0  0  0  0  0  0  0  0  0  0
    7.6638  -14.7500   26.2870 C   0  0  0  0  0  0  0  0  0  0  0  0
    8.8573  -15.4927   25.7433 C   0  0  2  0  0  0  0  0  0  0  0  0
    8.4682  -16.1489   24.4821 N   0  0  0  0  0  0  0  0  0  0  0  0
    9.3394  -16.5712   26.6246 C   0  0  0  0  0  0  0  0  0  0  0  0
    9.1462  -17.7779   26.3683 O   0  0  0  0  0  0  0  0  0  0  0  0
   10.0344  -16.2852   27.7817 O   0  0  0  0  0  0  0  0  0  0  0  0
  2  1  1  6
  3  2  1  0
  4  3  1  0
  5  2  1  0
  6  5  2  0
  7  8  1  0
  9  8  1  6
  9 11  1  0
  9 10  1  0
 10  5  1  0
 11 12  2  0
 14 13  1  0
 14 15  1  0
 15 16  1  0
 17 16  1  1
 18 17  1  0
 18 11  1  0
 19 21  1  0
 19 17  1  0
 20 19  2  0
M  END
$$$$
