CSM.pdb
     RDKit          3D

 21 20  0  0  1  0  0  0  0  0999 V2000
   10.2300  -17.6562   17.9086 N   0  0  0  0  0  0  0  0  0  0  0  0
    9.9505  -17.9685   19.3122 C   0  0  1  0  0  0  0  0  0  0  0  0
   11.2348  -18.5441   19.8936 C   0  0  0  0  0  0  0  0  0  0  0  0
   10.9511  -20.3055   20.3085 S   0  0  0  0  0  0  0  0  0  0  0  0
    9.6474  -16.7177   20.0379 C   0  0  0  0  0  0  0  0  0  0  0  0
   10.3899  -15.6934   19.9147 O   0  0  0  0  0  0  0  0  0  0  0  0
    5.9563  -16.1842   21.5168 O   0  0  0  0  0  0  0  0  0  0  0  0
    6.7315  -15.0607   21.2271 C   0  0  0  0  0  0  0  0  0  0  0  0
    8.1742  -15.4566   21.5372 C   0  0  2  0  0  0  0  0  0  0  0  0
    8.5026  -16.6862   20.8799 N   0  0  0  0  0  0  0  0  0  0  0  0
    8.2261  -15.6216   23.0258 C   0  0  0  0  0  0  0  0  0  0  0  0
    7.4239  -16.4401   23.5360 O   0  0  0  0  0  0  0  0  0  0  0  0
    7.0908  -10.8683   26.5007 C   0  0  0  0  0  0  0  0  0  0  0  0
    6.0043  -12.2819   26.7763 S   0  0  0  0  0  0  0  0  0  0  0  0
    6.9994  -13.8174   26.7296 C   0  0  0  0  0  0  0  0  0  0  0  0
    7.4256  -14.0375   25.3159 C   0  0  0  0  0  0  0  0  0  0  0  0
    8.7857  -14.6830   25.2440 C   0  0  2  0  0  0  0  0  0  0  0  0
    9.1310  -14.8955   23.8269 N   0  0  0  0  0  0  0  0  0  0  0  0
    8.8475  -16.0130   25.8759 C   0  0  0  0  0  0  0  0  0  0  0  0
    9.1219  -16.1647   27.0845 O   0  0  0  0  0  0  0  0  0  0  0  0
    8.5986  -17.1577   25.1468 O   0  0  0  0  0  0  0  0  0  0  0  0
  2  1  1  6
  3  2  1  0
  4  3  1  0
  5  2  1  0
  6  5  2  0
  7  8  1  0
  9  8  1  1
  9 11  1  0
  9 10  1  0
 10  5  1  0
 11 12  2  0
 14 13  1  0
 14 15  1  0
 15 16  1  0
 17 16  1  6
 18 17  1  0
 18 11  1  0
 19 21  1  0
 19 17  1  0
 20 19  2  0
M  END
$$$$
