FFT.pdb
     RDKit          3D

 30 31  0  0  1  0  0  0  0  0999 V2000
    8.8753  -19.4578   27.7276 N   0  0  0  0  0  0  0  0  0  0  0  0
    8.5983  -18.2084   27.0511 C   0  0  1  0  0  0  0  0  0  0  0  0
    9.9494  -17.6115   26.6743 C   0  0  0  0  0  0  0  0  0  0  0  0
   10.1755  -16.4305   27.5617 C   0  0  0  0  0  0  0  0  0  0  0  0
   10.6091  -16.5666   28.8620 C   0  0  0  0  0  0  0  0  0  0  0  0
   10.8043  -15.4494   29.6446 C   0  0  0  0  0  0  0  0  0  0  0  0
   10.5695  -14.1917   29.1384 C   0  0  0  0  0  0  0  0  0  0  0  0
   10.1360  -14.0382   27.8413 C   0  0  0  0  0  0  0  0  0  0  0  0
    9.9487  -15.1621   27.0816 C   0  0  0  0  0  0  0  0  0  0  0  0
    7.7587  -18.4732   25.8803 C   0  0  0  0  0  0  0  0  0  0  0  0
    7.8915  -19.5609   25.2595 O   0  0  0  0  0  0  0  0  0  0  0  0
    6.7838  -17.5770   25.3796 N   0  0  0  0  0  0  0  0  0  0  0  0
    7.1796  -16.3271   24.7623 C   0  0  1  0  0  0  0  0  0  0  0  0
    7.8304  -15.3987   25.7206 C   0  0  0  0  0  0  0  0  0  0  0  0
    7.1929  -14.0704   25.7146 C   0  0  0  0  0  0  0  0  0  0  0  0
    7.4623  -13.1366   24.7198 C   0  0  0  0  0  0  0  0  0  0  0  0
    6.8461  -11.9037   24.6992 C   0  0  0  0  0  0  0  0  0  0  0  0
    5.9336  -11.5422   25.6667 C   0  0  0  0  0  0  0  0  0  0  0  0
    5.6563  -12.4573   26.6591 C   0  0  0  0  0  0  0  0  0  0  0  0
    6.2807  -13.7049   26.6784 C   0  0  0  0  0  0  0  0  0  0  0  0
    8.0944  -16.6573   23.6545 C   0  0  0  0  0  0  0  0  0  0  0  0
    8.9342  -17.5874   23.7308 O   0  0  0  0  0  0  0  0  0  0  0  0
    6.9482  -16.3618   19.7681 C   0  0  0  0  0  0  0  0  0  0  0  0
    8.3263  -15.8310   20.0181 C   0  0  1  0  0  0  0  0  0  0  0  0
    8.3567  -14.4551   19.9173 O   0  0  0  0  0  0  0  0  0  0  0  0
    8.9174  -16.3200   21.3285 C   0  0  2  0  0  0  0  0  0  0  0  0
    8.0854  -15.9425   22.4248 N   0  0  0  0  0  0  0  0  0  0  0  0
   10.2888  -15.7759   21.4157 C   0  0  0  0  0  0  0  0  0  0  0  0
   10.6027  -14.8893   22.2330 O   0  0  0  0  0  0  0  0  0  0  0  0
   11.2509  -16.2716   20.5589 O   0  0  0  0  0  0  0  0  0  0  0  0
  2  1  1  6
  2  3  1  0
  3  4  1  0
  4  9  2  0
  5  6  2  0
  5  4  1  0
  6  7  1  0
  7  8  2  0
  9  8  1  0
 10  2  1  0
 10 11  2  0
 12 10  1  0
 13 12  1  0
 13 14  1  1
 15 14  1  0
 15 16  2  0
 17 16  1  0
 18 17  2  0
 19 20  2  0
 19 18  1  0
 20 15  1  0
 21 13  1  0
 22 21  2  0
 24 23  1  1
 24 26  1  0
 25 24  1  0
 26 27  1  1
 26 28  1  0
 27 21  1  0
 28 30  1  0
 29 28  2  0
M  END
$$$$
