FFT.pdb
     RDKit          3D

 30 31  0  0  1  0  0  0  0  0999 V2000
    5.5202  -20.0841   22.0122 N   0  0  0  0  0  0  0  0  0  0  0  0
    5.4443  -19.7417   23.4166 C   0  0  1  0  0  0  0  0  0  0  0  0
    6.1181  -20.8786   24.1763 C   0  0  0  0  0  0  0  0  0  0  0  0
    7.3363  -21.2680   23.4032 C   0  0  0  0  0  0  0  0  0  0  0  0
    8.5222  -20.5759   23.5119 C   0  0  0  0  0  0  0  0  0  0  0  0
    9.6208  -20.9705   22.7797 C   0  0  0  0  0  0  0  0  0  0  0  0
    9.5457  -22.0547   21.9360 C   0  0  0  0  0  0  0  0  0  0  0  0
    8.3683  -22.7570   21.8157 C   0  0  0  0  0  0  0  0  0  0  0  0
    7.2892  -22.3474   22.5527 C   0  0  0  0  0  0  0  0  0  0  0  0
    6.1090  -18.4544   23.6328 C   0  0  0  0  0  0  0  0  0  0  0  0
    6.7360  -17.9168   22.6819 O   0  0  0  0  0  0  0  0  0  0  0  0
    6.1009  -17.7494   24.8604 N   0  0  0  0  0  0  0  0  0  0  0  0
    6.7098  -16.4383   24.9614 C   0  0  1  0  0  0  0  0  0  0  0  0
    6.2112  -15.6661   26.1272 C   0  0  0  0  0  0  0  0  0  0  0  0
    6.7966  -14.3150   26.1796 C   0  0  0  0  0  0  0  0  0  0  0  0
    6.3783  -13.3051   25.3198 C   0  0  0  0  0  0  0  0  0  0  0  0
    6.9071  -12.0338   25.3860 C   0  0  0  0  0  0  0  0  0  0  0  0
    7.8762  -11.7079   26.3102 C   0  0  0  0  0  0  0  0  0  0  0  0
    8.3006  -12.6983   27.1692 C   0  0  0  0  0  0  0  0  0  0  0  0
    7.7643  -13.9846   27.1010 C   0  0  0  0  0  0  0  0  0  0  0  0
    8.1671  -16.6394   25.0549 C   0  0  0  0  0  0  0  0  0  0  0  0
    8.6943  -17.3213   25.9677 O   0  0  0  0  0  0  0  0  0  0  0  0
   10.3594  -17.6648   21.9558 C   0  0  0  0  0  0  0  0  0  0  0  0
   10.9854  -16.5271   22.7022 C   0  0  1  0  0  0  0  0  0  0  0  0
   10.8734  -15.3463   21.9968 O   0  0  0  0  0  0  0  0  0  0  0  0
   10.4629  -16.3951   24.1217 C   0  0  2  0  0  0  0  0  0  0  0  0
    9.0728  -16.0729   24.1157 N   0  0  0  0  0  0  0  0  0  0  0  0
   11.2990  -15.3820   24.7993 C   0  0  0  0  0  0  0  0  0  0  0  0
   10.8306  -14.3090   25.2256 O   0  0  0  0  0  0  0  0  0  0  0  0
   12.6453  -15.6398   24.9625 O   0  0  0  0  0  0  0  0  0  0  0  0
  2  1  1  6
  2  3  1  0
  3  4  1  0
  4  9  2  0
  5  6  2  0
  5  4  1  0
  6  7  1  0
  7  8  2  0
  9  8  1  0
 10  2  1  0
 10 11  2  0
 12 10  1  0
 13 12  1  0
 13 14  1  1
 15 14  1  0
 15 16  2  0
 17 16  1  0
 18 17  2  0
 19 20  2  0
 19 18  1  0
 20 15  1  0
 21 13  1  0
 22 21  2  0
 24 23  1  6
 24 26  1  0
 25 24  1  0
 26 27  1  6
 26 28  1  0
 27 21  1  0
 28 30  1  0
 29 28  2  0
M  END
$$$$
