FFT.pdb
     RDKit          3D

 30 31  0  0  1  0  0  0  0  0999 V2000
   10.5692  -16.5538   19.8449 N   0  0  0  0  0  0  0  0  0  0  0  0
    9.2617  -16.7100   20.4462 C   0  0  1  0  0  0  0  0  0  0  0  0
    8.9973  -18.2093   20.5234 C   0  0  0  0  0  0  0  0  0  0  0  0
    8.6426  -18.6687   19.1463 C   0  0  0  0  0  0  0  0  0  0  0  0
    9.5503  -19.3131   18.3351 C   0  0  0  0  0  0  0  0  0  0  0  0
    9.1796  -19.7194   17.0717 C   0  0  0  0  0  0  0  0  0  0  0  0
    7.9050  -19.4870   16.6087 C   0  0  0  0  0  0  0  0  0  0  0  0
    6.9860  -18.8444   17.4064 C   0  0  0  0  0  0  0  0  0  0  0  0
    7.3759  -18.4494   18.6583 C   0  0  0  0  0  0  0  0  0  0  0  0
    9.2618  -16.0742   21.7658 C   0  0  0  0  0  0  0  0  0  0  0  0
   10.2986  -16.1326   22.4784 O   0  0  0  0  0  0  0  0  0  0  0  0
    8.1572  -15.3808   22.3165 N   0  0  0  0  0  0  0  0  0  0  0  0
    8.2605  -14.7409   23.6126 C   0  0  1  0  0  0  0  0  0  0  0  0
    7.1631  -13.7720   23.8595 C   0  0  0  0  0  0  0  0  0  0  0  0
    7.2213  -13.2147   25.2221 C   0  0  0  0  0  0  0  0  0  0  0  0
    8.4025  -12.7076   25.7528 C   0  0  0  0  0  0  0  0  0  0  0  0
    8.4515  -12.1621   27.0178 C   0  0  0  0  0  0  0  0  0  0  0  0
    7.3282  -12.0955   27.8136 C   0  0  0  0  0  0  0  0  0  0  0  0
    6.1501  -12.5940   27.3012 C   0  0  0  0  0  0  0  0  0  0  0  0
    6.1022  -13.1457   26.0205 C   0  0  0  0  0  0  0  0  0  0  0  0
    8.2508  -15.8085   24.6291 C   0  0  0  0  0  0  0  0  0  0  0  0
    7.2100  -16.4448   24.9256 O   0  0  0  0  0  0  0  0  0  0  0  0
    9.2484  -19.1003   24.5737 C   0  0  0  0  0  0  0  0  0  0  0  0
   10.0624  -18.4987   25.6778 C   0  0  1  0  0  0  0  0  0  0  0  0
   11.3583  -18.2592   25.2684 O   0  0  0  0  0  0  0  0  0  0  0  0
    9.4170  -17.2632   26.2799 C   0  0  2  0  0  0  0  0  0  0  0  0
    9.4219  -16.1881   25.3416 N   0  0  0  0  0  0  0  0  0  0  0  0
   10.1459  -16.9579   27.5288 C   0  0  0  0  0  0  0  0  0  0  0  0
   10.7836  -15.8990   27.6857 O   0  0  0  0  0  0  0  0  0  0  0  0
   10.1151  -17.8823   28.5535 O   0  0  0  0  0  0  0  0  0  0  0  0
  2  1  1  1
  2  3  1  0
  3  4  1  0
  4  9  2  0
  5  6  2  0
  5  4  1  0
  6  7  1  0
  7  8  2  0
  9  8  1  0
 10  2  1  0
 10 11  2  0
 12 10  1  0
 13 12  1  0
 13 14  1  1
 15 14  1  0
 15 16  2  0
 17 16  1  0
 18 17  2  0
 19 20  2  0
 19 18  1  0
 20 15  1  0
 21 13  1  0
 22 21  2  0
 24 23  1  6
 24 26  1  0
 25 24  1  0
 26 27  1  6
 26 28  1  0
 27 21  1  0
 28 30  1  0
 29 28  2  0
M  END
$$$$
