FFT.pdb
     RDKit          3D

 30 31  0  0  1  0  0  0  0  0999 V2000
   11.0230  -16.5657   20.3556 N   0  0  0  0  0  0  0  0  0  0  0  0
   10.1593  -15.6900   21.1191 C   0  0  1  0  0  0  0  0  0  0  0  0
    8.7399  -15.9432   20.6242 C   0  0  0  0  0  0  0  0  0  0  0  0
    8.1681  -14.6223   20.2221 C   0  0  0  0  0  0  0  0  0  0  0  0
    8.8763  -13.4486   20.3570 C   0  0  0  0  0  0  0  0  0  0  0  0
    8.3094  -12.2528   19.9730 C   0  0  0  0  0  0  0  0  0  0  0  0
    7.0359  -12.2181   19.4532 C   0  0  0  0  0  0  0  0  0  0  0  0
    6.3149  -13.3817   19.3117 C   0  0  0  0  0  0  0  0  0  0  0  0
    6.8978  -14.5586   19.6997 C   0  0  0  0  0  0  0  0  0  0  0  0
   10.3150  -15.9872   22.5450 C   0  0  0  0  0  0  0  0  0  0  0  0
   11.2503  -16.7433   22.9187 O   0  0  0  0  0  0  0  0  0  0  0  0
    9.4730  -15.4767   23.5621 N   0  0  0  0  0  0  0  0  0  0  0  0
    9.8914  -15.5064   24.9492 C   0  0  1  0  0  0  0  0  0  0  0  0
    8.9868  -14.7308   25.8346 C   0  0  0  0  0  0  0  0  0  0  0  0
    9.4338  -14.7640   27.2381 C   0  0  0  0  0  0  0  0  0  0  0  0
   10.2106  -13.7458   27.7803 C   0  0  0  0  0  0  0  0  0  0  0  0
   10.6070  -13.7634   29.1005 C   0  0  0  0  0  0  0  0  0  0  0  0
   10.2494  -14.7942   29.9425 C   0  0  0  0  0  0  0  0  0  0  0  0
    9.4795  -15.8105   29.4194 C   0  0  0  0  0  0  0  0  0  0  0  0
    9.0790  -15.7910   28.0830 C   0  0  0  0  0  0  0  0  0  0  0  0
    9.9366  -16.9209   25.3617 C   0  0  0  0  0  0  0  0  0  0  0  0
    8.9085  -17.6398   25.4114 O   0  0  0  0  0  0  0  0  0  0  0  0
   11.5144  -19.9802   23.9511 C   0  0  0  0  0  0  0  0  0  0  0  0
   12.0743  -19.7652   25.3236 C   0  0  1  0  0  0  0  0  0  0  0  0
   13.3612  -19.2703   25.2654 O   0  0  0  0  0  0  0  0  0  0  0  0
   11.1745  -18.9124   26.2002 C   0  0  2  0  0  0  0  0  0  0  0  0
   11.1499  -17.5649   25.7312 N   0  0  0  0  0  0  0  0  0  0  0  0
   11.6685  -19.0441   27.5870 C   0  0  0  0  0  0  0  0  0  0  0  0
   11.6379  -20.1256   28.2048 O   0  0  0  0  0  0  0  0  0  0  0  0
   12.1803  -17.9258   28.2139 O   0  0  0  0  0  0  0  0  0  0  0  0
  2  1  1  6
  2  3  1  0
  3  4  1  0
  4  9  2  0
  5  6  2  0
  5  4  1  0
  6  7  1  0
  7  8  2  0
  9  8  1  0
 10  2  1  0
 10 11  2  0
 12 10  1  0
 13 12  1  0
 13 14  1  1
 15 14  1  0
 15 16  2  0
 17 16  1  0
 18 17  2  0
 19 20  2  0
 19 18  1  0
 20 15  1  0
 21 13  1  0
 22 21  2  0
 24 23  1  6
 24 26  1  0
 25 24  1  0
 26 27  1  6
 26 28  1  0
 27 21  1  0
 28 30  1  0
 29 28  2  0
M  END
$$$$
