FFT.pdb
     RDKit          3D

 30 31  0  0  1  0  0  0  0  0999 V2000
    6.0424  -15.7956   21.6166 N   0  0  0  0  0  0  0  0  0  0  0  0
    7.3309  -16.4542   21.6569 C   0  0  1  0  0  0  0  0  0  0  0  0
    8.0240  -16.1300   20.3384 C   0  0  0  0  0  0  0  0  0  0  0  0
    7.8984  -14.6567   20.1218 C   0  0  0  0  0  0  0  0  0  0  0  0
    8.9076  -13.7809   20.4560 C   0  0  0  0  0  0  0  0  0  0  0  0
    8.7484  -12.4295   20.2385 C   0  0  0  0  0  0  0  0  0  0  0  0
    7.5853  -11.9425   19.6879 C   0  0  0  0  0  0  0  0  0  0  0  0
    6.5673  -12.8040   19.3483 C   0  0  0  0  0  0  0  0  0  0  0  0
    6.7470  -14.1429   19.5732 C   0  0  0  0  0  0  0  0  0  0  0  0
    8.0817  -15.9679   22.8169 C   0  0  0  0  0  0  0  0  0  0  0  0
    8.5989  -14.8202   22.7796 O   0  0  0  0  0  0  0  0  0  0  0  0
    8.2758  -16.7080   24.0079 N   0  0  0  0  0  0  0  0  0  0  0  0
    9.1167  -16.1903   25.0685 C   0  0  1  0  0  0  0  0  0  0  0  0
    8.3500  -15.8671   26.2980 C   0  0  0  0  0  0  0  0  0  0  0  0
    9.2013  -15.2422   27.3255 C   0  0  0  0  0  0  0  0  0  0  0  0
    9.7673  -15.9865   28.3549 C   0  0  0  0  0  0  0  0  0  0  0  0
   10.5851  -15.4070   29.3012 C   0  0  0  0  0  0  0  0  0  0  0  0
   10.8779  -14.0607   29.2678 C   0  0  0  0  0  0  0  0  0  0  0  0
   10.3243  -13.3101   28.2533 C   0  0  0  0  0  0  0  0  0  0  0  0
    9.4969  -13.8983   27.2961 C   0  0  0  0  0  0  0  0  0  0  0  0
   10.1441  -17.2098   25.3486 C   0  0  0  0  0  0  0  0  0  0  0  0
    9.8961  -18.2517   26.0036 O   0  0  0  0  0  0  0  0  0  0  0  0
   11.9675  -19.2831   22.9174 C   0  0  0  0  0  0  0  0  0  0  0  0
   12.9973  -18.5881   23.7540 C   0  0  1  0  0  0  0  0  0  0  0  0
   13.6057  -17.5685   23.0508 O   0  0  0  0  0  0  0  0  0  0  0  0
   12.4500  -18.1132   25.0883 C   0  0  2  0  0  0  0  0  0  0  0  0
   11.4857  -17.0793   24.8945 N   0  0  0  0  0  0  0  0  0  0  0  0
   13.6066  -17.6933   25.9070 C   0  0  0  0  0  0  0  0  0  0  0  0
   13.7846  -16.5088   26.2502 O   0  0  0  0  0  0  0  0  0  0  0  0
   14.5180  -18.6519   26.3021 O   0  0  0  0  0  0  0  0  0  0  0  0
  2  1  1  6
  2  3  1  0
  3  4  1  0
  4  9  2  0
  5  6  2  0
  5  4  1  0
  6  7  1  0
  7  8  2  0
  9  8  1  0
 10  2  1  0
 10 11  2  0
 12 10  1  0
 13 12  1  0
 13 14  1  1
 15 14  1  0
 15 16  2  0
 17 16  1  0
 18 17  2  0
 19 20  2  0
 19 18  1  0
 20 15  1  0
 21 13  1  0
 22 21  2  0
 24 23  1  6
 24 26  1  0
 25 24  1  0
 26 27  1  6
 26 28  1  0
 27 21  1  0
 28 30  1  0
 29 28  2  0
M  END
$$$$
