FFT.pdb
     RDKit          3D

 30 31  0  0  1  0  0  0  0  0999 V2000
    5.5612  -20.4274   23.3442 N   0  0  0  0  0  0  0  0  0  0  0  0
    6.0138  -19.9562   24.6359 C   0  0  1  0  0  0  0  0  0  0  0  0
    7.1249  -20.9023   25.0767 C   0  0  0  0  0  0  0  0  0  0  0  0
    7.5289  -20.4991   26.4578 C   0  0  0  0  0  0  0  0  0  0  0  0
    6.7070  -20.6953   27.5456 C   0  0  0  0  0  0  0  0  0  0  0  0
    7.1206  -20.3078   28.8016 C   0  0  0  0  0  0  0  0  0  0  0  0
    8.3531  -19.7235   28.9822 C   0  0  0  0  0  0  0  0  0  0  0  0
    9.1864  -19.5203   27.9060 C   0  0  0  0  0  0  0  0  0  0  0  0
    8.7551  -19.9131   26.6670 C   0  0  0  0  0  0  0  0  0  0  0  0
    6.4772  -18.5726   24.5060 C   0  0  0  0  0  0  0  0  0  0  0  0
    7.1282  -18.2339   23.4824 O   0  0  0  0  0  0  0  0  0  0  0  0
    6.2436  -17.5603   25.4676 N   0  0  0  0  0  0  0  0  0  0  0  0
    6.7362  -16.2140   25.2549 C   0  0  1  0  0  0  0  0  0  0  0  0
    6.0983  -15.2239   26.1587 C   0  0  0  0  0  0  0  0  0  0  0  0
    6.6699  -13.8770   25.9855 C   0  0  0  0  0  0  0  0  0  0  0  0
    7.2204  -13.1756   27.0527 C   0  0  0  0  0  0  0  0  0  0  0  0
    7.7789  -11.9264   26.8860 C   0  0  0  0  0  0  0  0  0  0  0  0
    7.8158  -11.3169   25.6505 C   0  0  0  0  0  0  0  0  0  0  0  0
    7.2741  -11.9999   24.5832 C   0  0  0  0  0  0  0  0  0  0  0  0
    6.7094  -13.2643   24.7536 C   0  0  0  0  0  0  0  0  0  0  0  0
    8.1952  -16.2446   25.4631 C   0  0  0  0  0  0  0  0  0  0  0  0
    8.7092  -16.3992   26.5980 O   0  0  0  0  0  0  0  0  0  0  0  0
   10.8926  -18.6000   24.1221 C   0  0  0  0  0  0  0  0  0  0  0  0
   11.1585  -17.1936   23.6808 C   0  0  1  0  0  0  0  0  0  0  0  0
   10.7960  -17.0076   22.3624 O   0  0  0  0  0  0  0  0  0  0  0  0
   10.5284  -16.1594   24.5968 C   0  0  2  0  0  0  0  0  0  0  0  0
    9.1176  -16.1007   24.3899 N   0  0  0  0  0  0  0  0  0  0  0  0
   11.2149  -14.8761   24.3395 C   0  0  0  0  0  0  0  0  0  0  0  0
   10.6318  -13.8990   23.8321 O   0  0  0  0  0  0  0  0  0  0  0  0
   12.5491  -14.7627   24.6755 O   0  0  0  0  0  0  0  0  0  0  0  0
  2  1  1  6
  2  3  1  0
  3  4  1  0
  4  9  2  0
  5  6  2  0
  5  4  1  0
  6  7  1  0
  7  8  2  0
  9  8  1  0
 10  2  1  0
 10 11  2  0
 12 10  1  0
 13 12  1  0
 13 14  1  1
 15 14  1  0
 15 16  2  0
 17 16  1  0
 18 17  2  0
 19 20  2  0
 19 18  1  0
 20 15  1  0
 21 13  1  0
 22 21  2  0
 24 23  1  1
 24 26  1  0
 25 24  1  0
 26 27  1  6
 26 28  1  0
 27 21  1  0
 28 30  1  0
 29 28  2  0
M  END
$$$$
