FFT.pdb
     RDKit          3D

 30 31  0  0  1  0  0  0  0  0999 V2000
    4.5874  -15.6682   21.5344 N   0  0  0  0  0  0  0  0  0  0  0  0
    5.7405  -16.4694   21.8869 C   0  0  1  0  0  0  0  0  0  0  0  0
    6.6108  -16.5482   20.6379 C   0  0  0  0  0  0  0  0  0  0  0  0
    7.2008  -15.1922   20.4221 C   0  0  0  0  0  0  0  0  0  0  0  0
    8.5201  -14.9163   20.7060 C   0  0  0  0  0  0  0  0  0  0  0  0
    9.0219  -13.6511   20.4914 C   0  0  0  0  0  0  0  0  0  0  0  0
    8.2148  -12.6542   19.9935 C   0  0  0  0  0  0  0  0  0  0  0  0
    6.8944  -12.9132   19.7045 C   0  0  0  0  0  0  0  0  0  0  0  0
    6.4168  -14.1775   19.9256 C   0  0  0  0  0  0  0  0  0  0  0  0
    6.4350  -15.8404   23.0129 C   0  0  0  0  0  0  0  0  0  0  0  0
    6.5478  -14.5864   23.0451 O   0  0  0  0  0  0  0  0  0  0  0  0
    7.0044  -16.5522   24.0961 N   0  0  0  0  0  0  0  0  0  0  0  0
    7.9984  -15.9287   24.9465 C   0  0  1  0  0  0  0  0  0  0  0  0
    7.5747  -15.8662   26.3679 C   0  0  0  0  0  0  0  0  0  0  0  0
    8.5749  -15.1840   27.2077 C   0  0  0  0  0  0  0  0  0  0  0  0
    9.4516  -15.8947   28.0204 C   0  0  0  0  0  0  0  0  0  0  0  0
   10.4048  -15.2583   28.7861 C   0  0  0  0  0  0  0  0  0  0  0  0
   10.5305  -13.8859   28.7793 C   0  0  0  0  0  0  0  0  0  0  0  0
    9.6688  -13.1680   27.9786 C   0  0  0  0  0  0  0  0  0  0  0  0
    8.7045  -13.8137   27.2039 C   0  0  0  0  0  0  0  0  0  0  0  0
    9.2424  -16.7074   24.8079 C   0  0  0  0  0  0  0  0  0  0  0  0
    9.3226  -17.9126   25.1498 O   0  0  0  0  0  0  0  0  0  0  0  0
   13.4692  -17.3964   22.4424 C   0  0  0  0  0  0  0  0  0  0  0  0
   12.2081  -16.6310   22.7016 C   0  0  1  0  0  0  0  0  0  0  0  0
   11.2948  -16.8152   21.6836 O   0  0  0  0  0  0  0  0  0  0  0  0
   11.6093  -16.9262   24.0653 C   0  0  2  0  0  0  0  0  0  0  0  0
   10.4352  -16.1431   24.2768 N   0  0  0  0  0  0  0  0  0  0  0  0
   12.6685  -16.6812   25.0666 C   0  0  0  0  0  0  0  0  0  0  0  0
   12.7018  -15.6476   25.7614 O   0  0  0  0  0  0  0  0  0  0  0  0
   13.6525  -17.6351   25.2328 O   0  0  0  0  0  0  0  0  0  0  0  0
  2  1  1  6
  2  3  1  0
  3  4  1  0
  4  9  2  0
  5  6  2  0
  5  4  1  0
  6  7  1  0
  7  8  2  0
  9  8  1  0
 10  2  1  0
 10 11  2  0
 12 10  1  0
 13 12  1  0
 13 14  1  1
 15 14  1  0
 15 16  2  0
 17 16  1  0
 18 17  2  0
 19 20  2  0
 19 18  1  0
 20 15  1  0
 21 13  1  0
 22 21  2  0
 24 23  1  6
 24 26  1  0
 25 24  1  0
 26 27  1  1
 26 28  1  0
 27 21  1  0
 28 30  1  0
 29 28  2  0
M  END
$$$$
