FFT.pdb
     RDKit          3D

 30 31  0  0  1  0  0  0  0  0999 V2000
    9.6045  -17.8684   17.0659 N   0  0  0  0  0  0  0  0  0  0  0  0
    9.1546  -18.3798   18.3433 C   0  0  1  0  0  0  0  0  0  0  0  0
    9.7432  -19.7793   18.4807 C   0  0  0  0  0  0  0  0  0  0  0  0
    9.0680  -20.6459   17.4676 C   0  0  0  0  0  0  0  0  0  0  0  0
    7.7128  -20.8901   17.5026 C   0  0  0  0  0  0  0  0  0  0  0  0
    7.1322  -21.6960   16.5475 C   0  0  0  0  0  0  0  0  0  0  0  0
    7.8959  -22.2629   15.5533 C   0  0  0  0  0  0  0  0  0  0  0  0
    9.2512  -22.0291   15.5040 C   0  0  0  0  0  0  0  0  0  0  0  0
    9.8071  -21.2251   16.4632 C   0  0  0  0  0  0  0  0  0  0  0  0
    9.6045  -17.4778   19.4061 C   0  0  0  0  0  0  0  0  0  0  0  0
   10.6675  -16.8210   19.2485 O   0  0  0  0  0  0  0  0  0  0  0  0
    8.9186  -17.2823   20.6290 N   0  0  0  0  0  0  0  0  0  0  0  0
    9.3927  -16.3091   21.5925 C   0  0  1  0  0  0  0  0  0  0  0  0
    8.2929  -15.4971   22.1713 C   0  0  0  0  0  0  0  0  0  0  0  0
    7.7742  -14.5114   21.2068 C   0  0  0  0  0  0  0  0  0  0  0  0
    8.2379  -13.2005   21.1832 C   0  0  0  0  0  0  0  0  0  0  0  0
    7.7720  -12.2850   20.2639 C   0  0  0  0  0  0  0  0  0  0  0  0
    6.8235  -12.6307   19.3256 C   0  0  0  0  0  0  0  0  0  0  0  0
    6.3545  -13.9265   19.3367 C   0  0  0  0  0  0  0  0  0  0  0  0
    6.8273  -14.8519   20.2677 C   0  0  0  0  0  0  0  0  0  0  0  0
   10.1037  -17.0511   22.6493 C   0  0  0  0  0  0  0  0  0  0  0  0
    9.5081  -17.8007   23.4614 O   0  0  0  0  0  0  0  0  0  0  0  0
   12.5422  -19.7805   22.4607 C   0  0  0  0  0  0  0  0  0  0  0  0
   13.1969  -18.6616   23.2110 C   0  0  1  0  0  0  0  0  0  0  0  0
   14.1213  -18.0066   22.4231 O   0  0  0  0  0  0  0  0  0  0  0  0
   12.1960  -17.7034   23.8318 C   0  0  2  0  0  0  0  0  0  0  0  0
   11.5135  -16.9661   22.8184 N   0  0  0  0  0  0  0  0  0  0  0  0
   12.9429  -16.8493   24.7790 C   0  0  0  0  0  0  0  0  0  0  0  0
   13.0740  -15.6221   24.6080 O   0  0  0  0  0  0  0  0  0  0  0  0
   13.5127  -17.4380   25.8899 O   0  0  0  0  0  0  0  0  0  0  0  0
  2  1  1  6
  2  3  1  0
  3  4  1  0
  4  9  2  0
  5  6  2  0
  5  4  1  0
  6  7  1  0
  7  8  2  0
  9  8  1  0
 10  2  1  0
 10 11  2  0
 12 10  1  0
 13 12  1  0
 13 14  1  1
 15 14  1  0
 15 16  2  0
 17 16  1  0
 18 17  2  0
 19 20  2  0
 19 18  1  0
 20 15  1  0
 21 13  1  0
 22 21  2  0
 24 23  1  6
 24 26  1  0
 25 24  1  0
 26 27  1  6
 26 28  1  0
 27 21  1  0
 28 30  1  0
 29 28  2  0
M  END
$$$$
