FFT.pdb
     RDKit          3D

 30 31  0  0  1  0  0  0  0  0999 V2000
   10.5292  -17.2521   20.3492 N   0  0  0  0  0  0  0  0  0  0  0  0
    9.8190  -16.2014   21.0472 C   0  0  1  0  0  0  0  0  0  0  0  0
    8.3833  -16.2359   20.5359 C   0  0  0  0  0  0  0  0  0  0  0  0
    7.9834  -14.8265   20.2411 C   0  0  0  0  0  0  0  0  0  0  0  0
    7.3382  -14.0410   21.1705 C   0  0  0  0  0  0  0  0  0  0  0  0
    6.9880  -12.7461   20.8553 C   0  0  0  0  0  0  0  0  0  0  0  0
    7.2774  -12.2260   19.6147 C   0  0  0  0  0  0  0  0  0  0  0  0
    7.9215  -12.9976   18.6747 C   0  0  0  0  0  0  0  0  0  0  0  0
    8.2603  -14.2815   19.0094 C   0  0  0  0  0  0  0  0  0  0  0  0
    9.9041  -16.4417   22.4897 C   0  0  0  0  0  0  0  0  0  0  0  0
   10.7166  -17.2999   22.9250 O   0  0  0  0  0  0  0  0  0  0  0  0
    9.1228  -15.7658   23.4577 N   0  0  0  0  0  0  0  0  0  0  0  0
    9.6035  -15.6121   24.8162 C   0  0  1  0  0  0  0  0  0  0  0  0
    8.7817  -14.6626   25.6080 C   0  0  0  0  0  0  0  0  0  0  0  0
    9.2880  -14.5160   26.9839 C   0  0  0  0  0  0  0  0  0  0  0  0
    9.0324  -15.4723   27.9607 C   0  0  0  0  0  0  0  0  0  0  0  0
    9.5280  -15.3487   29.2411 C   0  0  0  0  0  0  0  0  0  0  0  0
   10.3006  -14.2684   29.6093 C   0  0  0  0  0  0  0  0  0  0  0  0
   10.5626  -13.3125   28.6519 C   0  0  0  0  0  0  0  0  0  0  0  0
   10.0603  -13.4393   27.3563 C   0  0  0  0  0  0  0  0  0  0  0  0
    9.5960  -16.9495   25.4362 C   0  0  0  0  0  0  0  0  0  0  0  0
    8.5397  -17.6073   25.6027 O   0  0  0  0  0  0  0  0  0  0  0  0
   10.8001  -20.2685   24.5007 C   0  0  0  0  0  0  0  0  0  0  0  0
   11.5067  -19.8917   25.7665 C   0  0  1  0  0  0  0  0  0  0  0  0
   12.8137  -19.5252   25.5178 O   0  0  0  0  0  0  0  0  0  0  0  0
   10.7614  -18.8380   26.5662 C   0  0  2  0  0  0  0  0  0  0  0  0
   10.7869  -17.5831   25.8873 N   0  0  0  0  0  0  0  0  0  0  0  0
   11.3794  -18.7940   27.9080 C   0  0  0  0  0  0  0  0  0  0  0  0
   11.9834  -17.7894   28.3303 O   0  0  0  0  0  0  0  0  0  0  0  0
   11.2804  -19.9083   28.7168 O   0  0  0  0  0  0  0  0  0  0  0  0
  2  1  1  6
  2  3  1  0
  3  4  1  0
  4  9  2  0
  5  6  2  0
  5  4  1  0
  6  7  1  0
  7  8  2  0
  9  8  1  0
 10  2  1  0
 10 11  2  0
 12 10  1  0
 13 12  1  0
 13 14  1  1
 15 14  1  0
 15 16  2  0
 17 16  1  0
 18 17  2  0
 19 20  2  0
 19 18  1  0
 20 15  1  0
 21 13  1  0
 22 21  2  0
 24 23  1  6
 24 26  1  0
 25 24  1  0
 26 27  1  6
 26 28  1  0
 27 21  1  0
 28 30  1  0
 29 28  2  0
M  END
$$$$
