QMV.pdb
     RDKit          3D

 25 24  0  0  1  0  0  0  0  0999 V2000
    8.3568  -12.3192   18.0715 N   0  0  0  0  0  0  0  0  0  0  0  0
    8.1931  -13.7349   18.0188 C   0  0  0  0  0  0  0  0  0  0  0  0
    8.0518  -14.2454   16.8741 O   0  0  0  0  0  0  0  0  0  0  0  0
    8.1982  -14.5351   19.2619 C   0  0  0  0  0  0  0  0  0  0  0  0
    9.4432  -15.2609   19.5561 C   0  0  0  0  0  0  0  0  0  0  0  0
    9.5833  -16.0124   20.8199 C   0  0  2  0  0  0  0  0  0  0  0  0
    8.4593  -17.0131   20.7552 N   0  0  0  0  0  0  0  0  0  0  0  0
    9.3789  -15.3303   22.0915 C   0  0  0  0  0  0  0  0  0  0  0  0
   10.1531  -14.3778   22.4397 O   0  0  0  0  0  0  0  0  0  0  0  0
    6.5993  -11.1601   25.7761 C   0  0  0  0  0  0  0  0  0  0  0  0
    5.5694  -12.6151   25.4914 S   0  0  0  0  0  0  0  0  0  0  0  0
    6.4306  -14.1393   25.8858 C   0  0  0  0  0  0  0  0  0  0  0  0
    6.7079  -14.9734   24.6516 C   0  0  0  0  0  0  0  0  0  0  0  0
    8.1913  -14.8500   24.2594 C   0  0  2  0  0  0  0  0  0  0  0  0
    8.3431  -15.6200   23.0434 N   0  0  0  0  0  0  0  0  0  0  0  0
    8.9475  -15.4854   25.3493 C   0  0  0  0  0  0  0  0  0  0  0  0
    9.4542  -16.6149   25.1692 O   0  0  0  0  0  0  0  0  0  0  0  0
   10.4684  -13.2160   28.4423 C   0  0  0  0  0  0  0  0  0  0  0  0
   10.1073  -14.6259   28.8558 C   0  0  2  0  0  0  0  0  0  0  0  0
   11.2073  -15.1251   29.7594 C   0  0  0  0  0  0  0  0  0  0  0  0
    9.9848  -15.4506   27.5897 C   0  0  2  0  0  0  0  0  0  0  0  0
    9.1225  -14.8432   26.6228 N   0  0  0  0  0  0  0  0  0  0  0  0
    9.5618  -16.8606   27.8900 C   0  0  0  0  0  0  0  0  0  0  0  0
    8.3520  -17.1738   27.9985 O   0  0  0  0  0  0  0  0  0  0  0  0
   10.4943  -17.8838   28.0614 O   0  0  0  0  0  0  0  0  0  0  0  0
  1  2  1  0
  2  4  1  0
  3  2  2  0
  4  5  1  0
  6  8  1  0
  6  7  1  6
  6  5  1  0
  8  9  2  0
 11 10  1  0
 12 11  1  0
 12 13  1  0
 14 13  1  1
 14 16  1  0
 15 14  1  0
 15  8  1  0
 16 17  2  0
 16 22  1  0
 19 18  1  6
 19 21  1  0
 20 19  1  0
 21 23  1  0
 21 22  1  6
 23 24  2  0
 23 25  1  0
M  END
$$$$
