QMV.pdb
     RDKit          3D

 25 24  0  0  1  0  0  0  0  0999 V2000
   13.7730  -16.3758   18.4240 N   0  0  0  0  0  0  0  0  0  0  0  0
   13.0708  -17.4413   19.0608 C   0  0  0  0  0  0  0  0  0  0  0  0
   13.7718  -18.3770   19.5342 O   0  0  0  0  0  0  0  0  0  0  0  0
   11.5953  -17.4173   19.1488 C   0  0  0  0  0  0  0  0  0  0  0  0
   11.0258  -16.5488   20.1904 C   0  0  0  0  0  0  0  0  0  0  0  0
   10.3560  -17.1410   21.3661 C   0  0  2  0  0  0  0  0  0  0  0  0
    9.0135  -17.5601   20.8263 N   0  0  0  0  0  0  0  0  0  0  0  0
   10.0315  -16.3001   22.5114 C   0  0  0  0  0  0  0  0  0  0  0  0
   10.8808  -15.4527   22.9455 O   0  0  0  0  0  0  0  0  0  0  0  0
    6.4385  -11.6143   26.4650 C   0  0  0  0  0  0  0  0  0  0  0  0
    6.9875  -12.8043   25.2235 S   0  0  0  0  0  0  0  0  0  0  0  0
    6.7077  -14.4991   25.7428 C   0  0  0  0  0  0  0  0  0  0  0  0
    7.0616  -15.4944   24.6565 C   0  0  0  0  0  0  0  0  0  0  0  0
    8.5762  -15.4551   24.3845 C   0  0  2  0  0  0  0  0  0  0  0  0
    8.7936  -16.3133   23.2396 N   0  0  0  0  0  0  0  0  0  0  0  0
    9.2117  -16.0412   25.5745 C   0  0  0  0  0  0  0  0  0  0  0  0
    9.4290  -17.2726   25.6120 O   0  0  0  0  0  0  0  0  0  0  0  0
    9.7444  -14.5062   29.5784 C   0  0  0  0  0  0  0  0  0  0  0  0
   10.9431  -14.7471   28.6872 C   0  0  2  0  0  0  0  0  0  0  0  0
   11.3219  -13.4213   28.0751 C   0  0  0  0  0  0  0  0  0  0  0  0
   10.5321  -15.7659   27.6427 C   0  0  2  0  0  0  0  0  0  0  0  0
    9.5928  -15.2362   26.7022 N   0  0  0  0  0  0  0  0  0  0  0  0
   10.0185  -17.0276   28.2765 C   0  0  0  0  0  0  0  0  0  0  0  0
   10.7565  -17.7536   28.9850 O   0  0  0  0  0  0  0  0  0  0  0  0
    8.6994  -17.4480   28.1059 O   0  0  0  0  0  0  0  0  0  0  0  0
  1  2  1  0
  2  4  1  0
  3  2  2  0
  4  5  1  0
  6  8  1  0
  6  7  1  6
  6  5  1  0
  8  9  2  0
 11 10  1  0
 12 11  1  0
 12 13  1  0
 14 13  1  1
 14 16  1  0
 15 14  1  0
 15  8  1  0
 16 17  2  0
 16 22  1  0
 19 18  1  1
 19 21  1  0
 20 19  1  0
 21 23  1  0
 21 22  1  6
 23 24  2  0
 23 25  1  0
M  END
$$$$
