QMV.pdb
     RDKit          3D

 25 24  0  0  1  0  0  0  0  0999 V2000
   12.3929  -17.5911   18.9890 N   0  0  0  0  0  0  0  0  0  0  0  0
   11.2787  -18.3781   18.5729 C   0  0  0  0  0  0  0  0  0  0  0  0
   11.3517  -18.8999   17.4269 O   0  0  0  0  0  0  0  0  0  0  0  0
   10.1145  -18.5572   19.4662 C   0  0  0  0  0  0  0  0  0  0  0  0
   10.2133  -17.9220   20.7891 C   0  0  0  0  0  0  0  0  0  0  0  0
    9.0687  -17.1659   21.3367 C   0  0  2  0  0  0  0  0  0  0  0  0
    8.7736  -16.1546   20.2600 N   0  0  0  0  0  0  0  0  0  0  0  0
    9.2438  -16.3626   22.5401 C   0  0  0  0  0  0  0  0  0  0  0  0
   10.4100  -15.9871   22.8961 O   0  0  0  0  0  0  0  0  0  0  0  0
    5.8807  -11.2737   26.1478 C   0  0  0  0  0  0  0  0  0  0  0  0
    7.4757  -12.1192   26.1441 S   0  0  0  0  0  0  0  0  0  0  0  0
    7.3042  -13.8849   26.4151 C   0  0  0  0  0  0  0  0  0  0  0  0
    7.1186  -14.6456   25.1179 C   0  0  0  0  0  0  0  0  0  0  0  0
    8.4756  -15.1818   24.6272 C   0  0  2  0  0  0  0  0  0  0  0  0
    8.1937  -15.9154   23.4120 N   0  0  0  0  0  0  0  0  0  0  0  0
    8.9414  -16.1071   25.6713 C   0  0  0  0  0  0  0  0  0  0  0  0
    8.3157  -17.1713   25.8736 O   0  0  0  0  0  0  0  0  0  0  0  0
   12.8191  -15.8939   27.5049 C   0  0  0  0  0  0  0  0  0  0  0  0
   12.0276  -17.1478   27.2041 C   0  0  2  0  0  0  0  0  0  0  0  0
   12.3423  -17.5481   25.7841 C   0  0  0  0  0  0  0  0  0  0  0  0
   10.5615  -16.8134   27.3956 C   0  0  2  0  0  0  0  0  0  0  0  0
   10.1012  -15.8233   26.4708 N   0  0  0  0  0  0  0  0  0  0  0  0
   10.2686  -16.4144   28.8142 C   0  0  0  0  0  0  0  0  0  0  0  0
   10.4572  -17.2042   29.7704 O   0  0  0  0  0  0  0  0  0  0  0  0
    9.7743  -15.1491   29.1315 O   0  0  0  0  0  0  0  0  0  0  0  0
  1  2  1  0
  2  4  1  0
  3  2  2  0
  4  5  1  0
  6  8  1  0
  6  7  1  6
  6  5  1  0
  8  9  2  0
 11 10  1  0
 12 11  1  0
 12 13  1  0
 14 13  1  1
 14 16  1  0
 15 14  1  0
 15  8  1  0
 16 17  2  0
 16 22  1  0
 19 18  1  6
 19 21  1  0
 20 19  1  0
 21 23  1  0
 21 22  1  6
 23 24  2  0
 23 25  1  0
M  END
$$$$
