QMV.pdb
     RDKit          3D

 25 24  0  0  1  0  0  0  0  0999 V2000
   10.0053  -20.6671   21.8674 N   0  0  0  0  0  0  0  0  0  0  0  0
   10.2192  -20.5616   20.4613 C   0  0  0  0  0  0  0  0  0  0  0  0
    9.9172  -21.5700   19.7663 O   0  0  0  0  0  0  0  0  0  0  0  0
   10.7643  -19.3168   19.8791 C   0  0  0  0  0  0  0  0  0  0  0  0
   10.9674  -18.2018   20.8166 C   0  0  0  0  0  0  0  0  0  0  0  0
    9.9256  -17.1670   20.9760 C   0  0  2  0  0  0  0  0  0  0  0  0
   10.0484  -16.3534   19.7142 N   0  0  0  0  0  0  0  0  0  0  0  0
   10.0426  -16.1838   22.0453 C   0  0  0  0  0  0  0  0  0  0  0  0
   11.1016  -15.4808   22.1567 O   0  0  0  0  0  0  0  0  0  0  0  0
    5.2959  -13.4686   26.6270 C   0  0  0  0  0  0  0  0  0  0  0  0
    6.4626  -12.4024   25.7548 S   0  0  0  0  0  0  0  0  0  0  0  0
    8.0237  -13.2282   25.4365 C   0  0  0  0  0  0  0  0  0  0  0  0
    7.8813  -14.3463   24.4237 C   0  0  0  0  0  0  0  0  0  0  0  0
    9.2675  -14.9219   24.0819 C   0  0  2  0  0  0  0  0  0  0  0  0
    9.0428  -15.8961   23.0355 N   0  0  0  0  0  0  0  0  0  0  0  0
    9.7315  -15.5992   25.3022 C   0  0  0  0  0  0  0  0  0  0  0  0
    9.4942  -16.8176   25.4574 O   0  0  0  0  0  0  0  0  0  0  0  0
    9.7646  -14.5513   29.3111 C   0  0  0  0  0  0  0  0  0  0  0  0
   11.1249  -14.7527   28.6798 C   0  0  2  0  0  0  0  0  0  0  0  0
   11.6610  -13.3886   28.3225 C   0  0  0  0  0  0  0  0  0  0  0  0
   10.9312  -15.6317   27.4601 C   0  0  2  0  0  0  0  0  0  0  0  0
   10.4540  -14.8984   26.3279 N   0  0  0  0  0  0  0  0  0  0  0  0
   10.0451  -16.8066   27.7633 C   0  0  0  0  0  0  0  0  0  0  0  0
   10.4703  -17.8035   28.3950 O   0  0  0  0  0  0  0  0  0  0  0  0
    8.7113  -16.8416   27.3565 O   0  0  0  0  0  0  0  0  0  0  0  0
  1  2  1  0
  2  4  1  0
  3  2  2  0
  4  5  1  0
  6  8  1  0
  6  7  1  6
  6  5  1  0
  8  9  2  0
 11 10  1  0
 12 11  1  0
 12 13  1  0
 14 13  1  1
 14 16  1  0
 15 14  1  0
 15  8  1  0
 16 17  2  0
 16 22  1  0
 19 18  1  6
 19 21  1  0
 20 19  1  0
 21 23  1  0
 21 22  1  6
 23 24  2  0
 23 25  1  0
M  END
$$$$
