QMV.pdb
     RDKit          3D

 25 24  0  0  1  0  0  0  0  0999 V2000
    7.1905  -12.6395   19.0461 N   0  0  0  0  0  0  0  0  0  0  0  0
    8.1049  -13.4466   18.3070 C   0  0  0  0  0  0  0  0  0  0  0  0
    8.6862  -12.8950   17.3330 O   0  0  0  0  0  0  0  0  0  0  0  0
    8.3402  -14.8543   18.6924 C   0  0  0  0  0  0  0  0  0  0  0  0
    7.5922  -15.3356   19.8638 C   0  0  0  0  0  0  0  0  0  0  0  0
    8.2640  -16.1673   20.8829 C   0  0  2  0  0  0  0  0  0  0  0  0
    7.1683  -17.0847   21.3596 N   0  0  0  0  0  0  0  0  0  0  0  0
    8.7651  -15.5485   22.1036 C   0  0  0  0  0  0  0  0  0  0  0  0
    9.9860  -15.1867   22.1842 O   0  0  0  0  0  0  0  0  0  0  0  0
    5.9304  -11.2869   26.2582 C   0  0  0  0  0  0  0  0  0  0  0  0
    6.7742  -12.4276   27.3743 S   0  0  0  0  0  0  0  0  0  0  0  0
    8.0027  -13.4204   26.5225 C   0  0  0  0  0  0  0  0  0  0  0  0
    7.4825  -13.9679   25.2088 C   0  0  0  0  0  0  0  0  0  0  0  0
    8.6034  -14.7303   24.4795 C   0  0  2  0  0  0  0  0  0  0  0  0
    7.9956  -15.2781   23.2858 N   0  0  0  0  0  0  0  0  0  0  0  0
    8.9987  -15.8214   25.3831 C   0  0  0  0  0  0  0  0  0  0  0  0
    8.2747  -16.8375   25.4739 O   0  0  0  0  0  0  0  0  0  0  0  0
   12.0517  -17.7635   25.2156 C   0  0  0  0  0  0  0  0  0  0  0  0
   11.9945  -17.3455   26.6686 C   0  0  2  0  0  0  0  0  0  0  0  0
   12.3881  -18.5434   27.4967 C   0  0  0  0  0  0  0  0  0  0  0  0
   10.5765  -16.8912   26.9525 C   0  0  2  0  0  0  0  0  0  0  0  0
   10.1994  -15.7543   26.1697 N   0  0  0  0  0  0  0  0  0  0  0  0
   10.3616  -16.6410   28.4183 C   0  0  0  0  0  0  0  0  0  0  0  0
   10.2925  -15.4776   28.8823 O   0  0  0  0  0  0  0  0  0  0  0  0
   10.2295  -17.6900   29.3283 O   0  0  0  0  0  0  0  0  0  0  0  0
  1  2  1  0
  2  4  1  0
  3  2  2  0
  4  5  1  0
  6  8  1  0
  6  7  1  1
  6  5  1  0
  8  9  2  0
 11 10  1  0
 12 11  1  0
 12 13  1  0
 14 13  1  1
 14 16  1  0
 15 14  1  0
 15  8  1  0
 16 17  2  0
 16 22  1  0
 19 18  1  6
 19 21  1  0
 20 19  1  0
 21 23  1  0
 21 22  1  6
 23 24  2  0
 23 25  1  0
M  END
$$$$
