QMV.pdb
     RDKit          3D

 25 24  0  0  1  0  0  0  0  0999 V2000
    9.0834  -19.4020   17.4472 N   0  0  0  0  0  0  0  0  0  0  0  0
    9.7902  -18.8679   18.5648 C   0  0  0  0  0  0  0  0  0  0  0  0
   10.6614  -17.9904   18.3159 O   0  0  0  0  0  0  0  0  0  0  0  0
    9.4892  -19.3375   19.9339 C   0  0  0  0  0  0  0  0  0  0  0  0
    9.7967  -18.3953   21.0207 C   0  0  0  0  0  0  0  0  0  0  0  0
    9.1533  -17.0662   21.0550 C   0  0  2  0  0  0  0  0  0  0  0  0
    9.7358  -16.3675   19.8543 N   0  0  0  0  0  0  0  0  0  0  0  0
    9.4288  -16.1594   22.1620 C   0  0  0  0  0  0  0  0  0  0  0  0
   10.6330  -15.8710   22.4699 O   0  0  0  0  0  0  0  0  0  0  0  0
    5.0625  -12.9419   26.7422 C   0  0  0  0  0  0  0  0  0  0  0  0
    6.3972  -11.9469   26.0441 S   0  0  0  0  0  0  0  0  0  0  0  0
    7.8287  -12.9416   25.6179 C   0  0  0  0  0  0  0  0  0  0  0  0
    7.5250  -13.9349   24.5147 C   0  0  0  0  0  0  0  0  0  0  0  0
    8.8195  -14.6453   24.0796 C   0  0  2  0  0  0  0  0  0  0  0  0
    8.4441  -15.5128   22.9837 N   0  0  0  0  0  0  0  0  0  0  0  0
    9.2395  -15.4540   25.2341 C   0  0  0  0  0  0  0  0  0  0  0  0
    8.9356  -16.6667   25.2786 O   0  0  0  0  0  0  0  0  0  0  0  0
   10.1463  -14.2134   29.2035 C   0  0  0  0  0  0  0  0  0  0  0  0
   11.1948  -15.0034   28.4514 C   0  0  2  0  0  0  0  0  0  0  0  0
   12.2027  -14.0169   27.9159 C   0  0  0  0  0  0  0  0  0  0  0  0
   10.4847  -15.7575   27.3446 C   0  0  2  0  0  0  0  0  0  0  0  0
    9.9934  -14.8889   26.3192 N   0  0  0  0  0  0  0  0  0  0  0  0
    9.3920  -16.6336   27.8886 C   0  0  0  0  0  0  0  0  0  0  0  0
    8.1838  -16.3086   27.7977 O   0  0  0  0  0  0  0  0  0  0  0  0
    9.6715  -17.8463   28.5187 O   0  0  0  0  0  0  0  0  0  0  0  0
  1  2  1  0
  2  4  1  0
  3  2  2  0
  4  5  1  0
  6  8  1  0
  6  7  1  6
  6  5  1  0
  8  9  2  0
 11 10  1  0
 12 11  1  0
 12 13  1  0
 14 13  1  1
 14 16  1  0
 15 14  1  0
 15  8  1  0
 16 17  2  0
 16 22  1  0
 19 18  1  6
 19 21  1  0
 20 19  1  0
 21 23  1  0
 21 22  1  6
 23 24  2  0
 23 25  1  0
M  END
$$$$
