QMV.pdb
     RDKit          3D

 25 24  0  0  1  0  0  0  0  0999 V2000
    9.4145  -20.4262   21.6334 N   0  0  0  0  0  0  0  0  0  0  0  0
    9.8620  -20.2597   20.2896 C   0  0  0  0  0  0  0  0  0  0  0  0
    9.5982  -21.1954   19.4859 O   0  0  0  0  0  0  0  0  0  0  0  0
   10.5915  -19.0375   19.8902 C   0  0  0  0  0  0  0  0  0  0  0  0
   10.6952  -17.9856   20.9131 C   0  0  0  0  0  0  0  0  0  0  0  0
    9.5699  -17.0557   21.1380 C   0  0  2  0  0  0  0  0  0  0  0  0
    9.6425  -16.1296   19.9522 N   0  0  0  0  0  0  0  0  0  0  0  0
    9.5916  -16.1616   22.2888 C   0  0  0  0  0  0  0  0  0  0  0  0
   10.5786  -15.3738   22.4698 O   0  0  0  0  0  0  0  0  0  0  0  0
    5.6464  -11.4107   26.1732 C   0  0  0  0  0  0  0  0  0  0  0  0
    5.6826  -13.1989   26.4175 S   0  0  0  0  0  0  0  0  0  0  0  0
    7.2960  -13.8969   26.0568 C   0  0  0  0  0  0  0  0  0  0  0  0
    7.2642  -14.8136   24.8508 C   0  0  0  0  0  0  0  0  0  0  0  0
    8.7005  -15.1642   24.4223 C   0  0  2  0  0  0  0  0  0  0  0  0
    8.5677  -16.0564   23.2905 N   0  0  0  0  0  0  0  0  0  0  0  0
    9.2923  -15.8859   25.5590 C   0  0  0  0  0  0  0  0  0  0  0  0
    9.2710  -17.1367   25.5718 O   0  0  0  0  0  0  0  0  0  0  0  0
    9.9011  -14.8115   29.6817 C   0  0  0  0  0  0  0  0  0  0  0  0
   11.0963  -15.0912   28.7970 C   0  0  2  0  0  0  0  0  0  0  0  0
   11.6342  -13.7599   28.3341 C   0  0  0  0  0  0  0  0  0  0  0  0
   10.6139  -15.9487   27.6438 C   0  0  2  0  0  0  0  0  0  0  0  0
    9.8980  -15.1926   26.6624 N   0  0  0  0  0  0  0  0  0  0  0  0
    9.8059  -17.1190   28.1283 C   0  0  0  0  0  0  0  0  0  0  0  0
    8.5572  -17.1474   28.0124 O   0  0  0  0  0  0  0  0  0  0  0  0
   10.4073  -18.2255   28.7283 O   0  0  0  0  0  0  0  0  0  0  0  0
  1  2  1  0
  2  4  1  0
  3  2  2  0
  4  5  1  0
  6  8  1  0
  6  7  1  6
  6  5  1  0
  8  9  2  0
 11 10  1  0
 12 11  1  0
 12 13  1  0
 14 13  1  1
 14 16  1  0
 15 14  1  0
 15  8  1  0
 16 17  2  0
 16 22  1  0
 19 18  1  1
 19 21  1  0
 20 19  1  0
 21 23  1  0
 21 22  1  6
 23 24  2  0
 23 25  1  0
M  END
$$$$
