KMR.pdb
     RDKit          3D

 29 28  0  0  1  0  0  0  0  0999 V2000
   27.4673  -21.9467  -15.0744 N   0  0  0  0  0  0  0  0  0  0  0  0
   27.2019  -20.8947  -14.1891 C   0  0  1  0  0  0  0  0  0  0  0  0
   26.8618  -19.6082  -14.8704 C   0  0  0  0  0  0  0  0  0  0  0  0
   27.1526  -19.6109  -16.3289 C   0  0  0  0  0  0  0  0  0  0  0  0
   26.0376  -19.0736  -17.1450 C   0  0  0  0  0  0  0  0  0  0  0  0
   25.5157  -20.1523  -18.1271 C   0  0  0  0  0  0  0  0  0  0  0  0
   25.6388  -19.5852  -19.4434 N   0  0  0  0  0  0  0  0  0  0  0  0
   26.1154  -21.1709  -13.2085 C   0  0  0  0  0  0  0  0  0  0  0  0
   25.4282  -22.2077  -13.4169 O   0  0  0  0  0  0  0  0  0  0  0  0
   28.1303  -20.0543   -6.8339 C   0  0  0  0  0  0  0  0  0  0  0  0
   26.6016  -19.4958   -7.6528 S   0  0  0  0  0  0  0  0  0  0  0  0
   26.3802  -20.6103   -9.1052 C   0  0  0  0  0  0  0  0  0  0  0  0
   25.2050  -20.0789   -9.8503 C   0  0  0  0  0  0  0  0  0  0  0  0
   24.8369  -20.8249  -11.1087 C   0  0  2  0  0  0  0  0  0  0  0  0
   25.8210  -20.3763  -12.1071 N   0  0  0  0  0  0  0  0  0  0  0  0
   23.5064  -20.4968  -11.6496 C   0  0  0  0  0  0  0  0  0  0  0  0
   23.3620  -19.4296  -12.3429 O   0  0  0  0  0  0  0  0  0  0  0  0
   19.7112  -24.3365   -8.2377 N   0  0  0  0  0  0  0  0  0  0  0  0
   18.7516  -24.6975   -9.2286 C   0  0  0  0  0  0  0  0  0  0  0  0
   17.5527  -24.9718   -8.9119 N   0  0  0  0  0  0  0  0  0  0  0  0
   19.1615  -24.7452  -10.5852 N   0  0  0  0  0  0  0  0  0  0  0  0
   20.4987  -24.2669  -10.9709 C   0  0  0  0  0  0  0  0  0  0  0  0
   20.3381  -23.3250  -12.1305 C   0  0  0  0  0  0  0  0  0  0  0  0
   20.0709  -21.9458  -11.6944 C   0  0  0  0  0  0  0  0  0  0  0  0
   21.0192  -20.8697  -12.0242 C   0  0  2  0  0  0  0  0  0  0  0  0
   22.3345  -21.2603  -11.4820 N   0  0  0  0  0  0  0  0  0  0  0  0
   20.7433  -19.5093  -11.6046 C   0  0  0  0  0  0  0  0  0  0  0  0
   21.2260  -19.0191  -10.5561 O   0  0  0  0  0  0  0  0  0  0  0  0
   19.9249  -18.6971  -12.3650 O   0  0  0  0  0  0  0  0  0  0  0  0
  2  1  1  6
  2  3  1  0
  4  5  1  0
  4  3  1  0
  6  7  1  0
  6  5  1  0
  8  2  1  0
  8  9  2  0
 10 11  1  0
 11 12  1  0
 12 13  1  0
 14 13  1  1
 14 15  1  0
 15  8  1  0
 16 14  1  0
 16 26  1  0
 17 16  2  0
 18 19  1  0
 19 21  1  0
 20 19  2  0
 21 22  1  0
 23 22  1  0
 24 23  1  0
 25 24  1  1
 25 26  1  0
 25 27  1  0
 27 28  2  0
 27 29  1  0
M  END
$$$$
