KMR.pdb
     RDKit          3D

 29 28  0  0  1  0  0  0  0  0999 V2000
   28.0927  -21.8401  -16.2274 N   0  0  0  0  0  0  0  0  0  0  0  0
   27.5800  -20.7723  -15.4807 C   0  0  1  0  0  0  0  0  0  0  0  0
   26.7679  -19.8109  -16.2877 C   0  0  0  0  0  0  0  0  0  0  0  0
   27.4432  -19.3588  -17.5332 C   0  0  0  0  0  0  0  0  0  0  0  0
   28.5152  -18.3651  -17.2855 C   0  0  0  0  0  0  0  0  0  0  0  0
   29.1541  -17.9122  -18.6224 C   0  0  0  0  0  0  0  0  0  0  0  0
   30.2097  -17.0005  -18.2704 N   0  0  0  0  0  0  0  0  0  0  0  0
   26.7469  -21.1770  -14.3144 C   0  0  0  0  0  0  0  0  0  0  0  0
   26.1520  -22.2847  -14.4132 O   0  0  0  0  0  0  0  0  0  0  0  0
   27.7353  -20.2759   -7.7205 C   0  0  0  0  0  0  0  0  0  0  0  0
   26.2780  -19.3474   -8.2983 S   0  0  0  0  0  0  0  0  0  0  0  0
   25.4853  -20.4129   -9.5777 C   0  0  0  0  0  0  0  0  0  0  0  0
   26.2465  -20.1730  -10.8354 C   0  0  0  0  0  0  0  0  0  0  0  0
   25.7706  -20.9401  -12.0441 C   0  0  2  0  0  0  0  0  0  0  0  0
   26.5898  -20.4279  -13.1546 N   0  0  0  0  0  0  0  0  0  0  0  0
   24.3641  -20.6981  -12.4098 C   0  0  0  0  0  0  0  0  0  0  0  0
   24.0538  -19.6056  -13.0018 O   0  0  0  0  0  0  0  0  0  0  0  0
   17.2601  -25.9853  -11.7976 N   0  0  0  0  0  0  0  0  0  0  0  0
   16.6729  -24.7112  -12.0520 C   0  0  0  0  0  0  0  0  0  0  0  0
   15.4133  -24.5748  -12.1397 N   0  0  0  0  0  0  0  0  0  0  0  0
   17.5260  -23.5891  -12.2065 N   0  0  0  0  0  0  0  0  0  0  0  0
   18.9864  -23.7549  -12.1345 C   0  0  0  0  0  0  0  0  0  0  0  0
   19.6163  -22.4017  -12.3067 C   0  0  0  0  0  0  0  0  0  0  0  0
   21.0852  -22.4611  -12.2566 C   0  0  0  0  0  0  0  0  0  0  0  0
   21.8822  -21.2454  -12.4868 C   0  0  2  0  0  0  0  0  0  0  0  0
   23.2858  -21.5728  -12.1718 N   0  0  0  0  0  0  0  0  0  0  0  0
   21.5396  -20.0155  -11.7991 C   0  0  0  0  0  0  0  0  0  0  0  0
   21.8901  -19.7873  -10.6169 O   0  0  0  0  0  0  0  0  0  0  0  0
   20.8034  -19.0390  -12.4411 O   0  0  0  0  0  0  0  0  0  0  0  0
  2  1  1  6
  2  3  1  0
  4  5  1  0
  4  3  1  0
  6  7  1  0
  6  5  1  0
  8  2  1  0
  8  9  2  0
 10 11  1  0
 11 12  1  0
 12 13  1  0
 14 13  1  1
 14 15  1  0
 15  8  1  0
 16 14  1  0
 16 26  1  0
 17 16  2  0
 18 19  1  0
 19 21  1  0
 20 19  2  0
 21 22  1  0
 23 22  1  0
 24 23  1  0
 25 24  1  1
 25 26  1  0
 25 27  1  0
 27 28  2  0
 27 29  1  0
M  END
$$$$
