KMR.pdb
     RDKit          3D

 29 28  0  0  1  0  0  0  0  0999 V2000
   28.8199  -20.1954  -15.5871 N   0  0  0  0  0  0  0  0  0  0  0  0
   28.3345  -19.5086  -14.4675 C   0  0  1  0  0  0  0  0  0  0  0  0
   27.6759  -18.2084  -14.8000 C   0  0  0  0  0  0  0  0  0  0  0  0
   27.9009  -17.7674  -16.2024 C   0  0  0  0  0  0  0  0  0  0  0  0
   26.6410  -17.5105  -16.9403 C   0  0  0  0  0  0  0  0  0  0  0  0
   26.9411  -17.1536  -18.4178 C   0  0  0  0  0  0  0  0  0  0  0  0
   25.6639  -17.0694  -19.0744 N   0  0  0  0  0  0  0  0  0  0  0  0
   27.3745  -20.2846  -13.6342 C   0  0  0  0  0  0  0  0  0  0  0  0
   26.8445  -21.2879  -14.1847 O   0  0  0  0  0  0  0  0  0  0  0  0
   27.7018  -20.1724   -7.5838 C   0  0  0  0  0  0  0  0  0  0  0  0
   25.8965  -20.3959   -7.4815 S   0  0  0  0  0  0  0  0  0  0  0  0
   25.3792  -21.0252   -9.1359 C   0  0  0  0  0  0  0  0  0  0  0  0
   26.2895  -20.3767  -10.1205 C   0  0  0  0  0  0  0  0  0  0  0  0
   26.2087  -20.9040  -11.5317 C   0  0  2  0  0  0  0  0  0  0  0  0
   27.0368  -19.9782  -12.3215 N   0  0  0  0  0  0  0  0  0  0  0  0
   24.8593  -20.8727  -12.1220 C   0  0  0  0  0  0  0  0  0  0  0  0
   24.3375  -19.7425  -12.4234 O   0  0  0  0  0  0  0  0  0  0  0  0
   18.6565  -24.9313  -12.3454 N   0  0  0  0  0  0  0  0  0  0  0  0
   18.3046  -25.0944  -13.7175 C   0  0  0  0  0  0  0  0  0  0  0  0
   17.0915  -25.2124  -14.0742 N   0  0  0  0  0  0  0  0  0  0  0  0
   19.3405  -25.1227  -14.6854 N   0  0  0  0  0  0  0  0  0  0  0  0
   20.7431  -24.9551  -14.2727 C   0  0  0  0  0  0  0  0  0  0  0  0
   20.9317  -23.5293  -13.8377 C   0  0  0  0  0  0  0  0  0  0  0  0
   22.3119  -23.2563  -13.4084 C   0  0  0  0  0  0  0  0  0  0  0  0
   22.6976  -21.9031  -12.9772 C   0  0  2  0  0  0  0  0  0  0  0  0
   24.0537  -21.9936  -12.4031 N   0  0  0  0  0  0  0  0  0  0  0  0
   21.8595  -21.1753  -12.0441 C   0  0  0  0  0  0  0  0  0  0  0  0
   22.0407  -21.2189  -10.8040 O   0  0  0  0  0  0  0  0  0  0  0  0
   20.8167  -20.3956  -12.5047 O   0  0  0  0  0  0  0  0  0  0  0  0
  2  1  1  6
  2  3  1  0
  4  5  1  0
  4  3  1  0
  6  7  1  0
  6  5  1  0
  8  2  1  0
  8  9  2  0
 10 11  1  0
 11 12  1  0
 12 13  1  0
 14 13  1  1
 14 15  1  0
 15  8  1  0
 16 14  1  0
 16 26  1  0
 17 16  2  0
 18 19  1  0
 19 21  1  0
 20 19  2  0
 21 22  1  0
 23 22  1  0
 24 23  1  0
 25 24  1  1
 25 26  1  0
 25 27  1  0
 27 28  2  0
 27 29  1  0
M  END
$$$$
