KMR.pdb
     RDKit          3D

 29 28  0  0  1  0  0  0  0  0999 V2000
   27.2238  -21.4297  -14.7530 N   0  0  0  0  0  0  0  0  0  0  0  0
   26.9919  -20.4180  -13.8130 C   0  0  1  0  0  0  0  0  0  0  0  0
   26.1179  -19.3163  -14.3202 C   0  0  0  0  0  0  0  0  0  0  0  0
   25.2750  -19.7101  -15.4804 C   0  0  0  0  0  0  0  0  0  0  0  0
   23.9316  -20.1966  -15.0845 C   0  0  0  0  0  0  0  0  0  0  0  0
   23.1161  -20.6139  -16.3341 C   0  0  0  0  0  0  0  0  0  0  0  0
   21.8872  -21.1740  -15.8386 N   0  0  0  0  0  0  0  0  0  0  0  0
   26.4009  -20.8897  -12.5299 C   0  0  0  0  0  0  0  0  0  0  0  0
   26.0239  -22.0929  -12.5000 O   0  0  0  0  0  0  0  0  0  0  0  0
   28.7329  -19.2278   -7.1766 C   0  0  0  0  0  0  0  0  0  0  0  0
   27.0192  -19.0922   -6.5730 S   0  0  0  0  0  0  0  0  0  0  0  0
   26.0210  -20.1997   -7.6582 C   0  0  0  0  0  0  0  0  0  0  0  0
   26.4302  -19.8782   -9.0539 C   0  0  0  0  0  0  0  0  0  0  0  0
   25.7790  -20.7066  -10.1334 C   0  0  2  0  0  0  0  0  0  0  0  0
   26.2440  -20.1051  -11.3938 N   0  0  0  0  0  0  0  0  0  0  0  0
   24.3072  -20.6426  -10.1522 C   0  0  0  0  0  0  0  0  0  0  0  0
   23.7341  -19.6666  -10.7517 O   0  0  0  0  0  0  0  0  0  0  0  0
   17.9393  -24.0326   -6.6502 N   0  0  0  0  0  0  0  0  0  0  0  0
   17.3263  -24.2126   -7.9249 C   0  0  0  0  0  0  0  0  0  0  0  0
   16.0759  -24.0536   -8.0800 N   0  0  0  0  0  0  0  0  0  0  0  0
   18.1430  -24.5749   -9.0261 N   0  0  0  0  0  0  0  0  0  0  0  0
   19.6059  -24.4428   -8.9368 C   0  0  0  0  0  0  0  0  0  0  0  0
   19.9632  -23.0172   -9.2492 C   0  0  0  0  0  0  0  0  0  0  0  0
   21.4181  -22.8061   -9.2985 C   0  0  0  0  0  0  0  0  0  0  0  0
   21.9615  -21.4833   -9.6460 C   0  0  2  0  0  0  0  0  0  0  0  0
   23.4315  -21.5751   -9.5623 N   0  0  0  0  0  0  0  0  0  0  0  0
   21.5390  -20.3107   -8.9048 C   0  0  0  0  0  0  0  0  0  0  0  0
   22.0855  -19.9620   -7.8313 O   0  0  0  0  0  0  0  0  0  0  0  0
   20.5015  -19.5271   -9.3709 O   0  0  0  0  0  0  0  0  0  0  0  0
  2  1  1  6
  2  3  1  0
  4  5  1  0
  4  3  1  0
  6  7  1  0
  6  5  1  0
  8  2  1  0
  8  9  2  0
 10 11  1  0
 11 12  1  0
 12 13  1  0
 14 13  1  1
 14 15  1  0
 15  8  1  0
 16 14  1  0
 16 26  1  0
 17 16  2  0
 18 19  1  0
 19 21  1  0
 20 19  2  0
 21 22  1  0
 23 22  1  0
 24 23  1  0
 25 24  1  1
 25 26  1  0
 25 27  1  0
 27 28  2  0
 27 29  1  0
M  END
$$$$
