KMR.pdb
     RDKit          3D

 29 28  0  0  1  0  0  0  0  0999 V2000
   28.5369  -20.8074  -14.9383 N   0  0  0  0  0  0  0  0  0  0  0  0
   28.0345  -19.9577  -13.9451 C   0  0  1  0  0  0  0  0  0  0  0  0
   27.3860  -18.7229  -14.4832 C   0  0  0  0  0  0  0  0  0  0  0  0
   27.8147  -18.3781  -15.8649 C   0  0  0  0  0  0  0  0  0  0  0  0
   26.8592  -18.8368  -16.9016 C   0  0  0  0  0  0  0  0  0  0  0  0
   27.2170  -18.2228  -18.2785 C   0  0  0  0  0  0  0  0  0  0  0  0
   26.2359  -18.7226  -19.2042 N   0  0  0  0  0  0  0  0  0  0  0  0
   27.0576  -20.5972  -13.0204 C   0  0  0  0  0  0  0  0  0  0  0  0
   26.2426  -21.4049  -13.5438 O   0  0  0  0  0  0  0  0  0  0  0  0
   27.7007  -20.8610   -6.8459 C   0  0  0  0  0  0  0  0  0  0  0  0
   25.9295  -20.4393   -6.7805 S   0  0  0  0  0  0  0  0  0  0  0  0
   25.2318  -20.9717   -8.4024 C   0  0  0  0  0  0  0  0  0  0  0  0
   26.2180  -20.5387   -9.4312 C   0  0  0  0  0  0  0  0  0  0  0  0
   25.9140  -20.9614  -10.8471 C   0  0  2  0  0  0  0  0  0  0  0  0
   26.9918  -20.3639  -11.6521 N   0  0  0  0  0  0  0  0  0  0  0  0
   24.6457  -20.4389  -11.3846 C   0  0  0  0  0  0  0  0  0  0  0  0
   24.5239  -19.1789  -11.5791 O   0  0  0  0  0  0  0  0  0  0  0  0
   24.3590  -21.6979  -17.5094 N   0  0  0  0  0  0  0  0  0  0  0  0
   23.8504  -22.7498  -16.6922 C   0  0  0  0  0  0  0  0  0  0  0  0
   24.4497  -23.8666  -16.6117 N   0  0  0  0  0  0  0  0  0  0  0  0
   22.6541  -22.5263  -15.9644 N   0  0  0  0  0  0  0  0  0  0  0  0
   21.9750  -21.2230  -16.0400 C   0  0  0  0  0  0  0  0  0  0  0  0
   22.3061  -20.4541  -14.7923 C   0  0  0  0  0  0  0  0  0  0  0  0
   22.0238  -21.2253  -13.5719 C   0  0  0  0  0  0  0  0  0  0  0  0
   22.2616  -20.6272  -12.2484 C   0  0  2  0  0  0  0  0  0  0  0  0
   23.5128  -21.2052  -11.7222 N   0  0  0  0  0  0  0  0  0  0  0  0
   21.2478  -20.7289  -11.2164 C   0  0  0  0  0  0  0  0  0  0  0  0
   20.1961  -20.0462  -11.2388 O   0  0  0  0  0  0  0  0  0  0  0  0
   21.4146  -21.6004  -10.1580 O   0  0  0  0  0  0  0  0  0  0  0  0
  2  1  1  6
  2  3  1  0
  4  5  1  0
  4  3  1  0
  6  7  1  0
  6  5  1  0
  8  2  1  0
  8  9  2  0
 10 11  1  0
 11 12  1  0
 12 13  1  0
 14 13  1  1
 14 15  1  0
 15  8  1  0
 16 14  1  0
 16 26  1  0
 17 16  2  0
 18 19  1  0
 19 21  1  0
 20 19  2  0
 21 22  1  0
 23 22  1  0
 24 23  1  0
 25 24  1  6
 25 26  1  0
 25 27  1  0
 27 28  2  0
 27 29  1  0
M  END
$$$$
