KMR.pdb
     RDKit          3D

 29 28  0  0  1  0  0  0  0  0999 V2000
   27.3526  -22.5186  -14.8161 N   0  0  0  0  0  0  0  0  0  0  0  0
   27.5730  -21.4509  -13.9373 C   0  0  1  0  0  0  0  0  0  0  0  0
   27.3317  -20.1091  -14.5507 C   0  0  0  0  0  0  0  0  0  0  0  0
   27.6060  -20.0633  -16.0116 C   0  0  0  0  0  0  0  0  0  0  0  0
   27.3502  -18.7311  -16.6097 C   0  0  0  0  0  0  0  0  0  0  0  0
   27.7082  -18.7357  -18.1172 C   0  0  0  0  0  0  0  0  0  0  0  0
   27.4393  -17.4055  -18.5943 N   0  0  0  0  0  0  0  0  0  0  0  0
   26.7736  -21.5081  -12.6819 C   0  0  0  0  0  0  0  0  0  0  0  0
   25.6807  -22.1341  -12.7463 O   0  0  0  0  0  0  0  0  0  0  0  0
   26.7080  -19.5982   -5.0686 C   0  0  0  0  0  0  0  0  0  0  0  0
   27.5980  -19.7746   -6.6485 S   0  0  0  0  0  0  0  0  0  0  0  0
   26.3242  -20.2792   -7.8828 C   0  0  0  0  0  0  0  0  0  0  0  0
   27.0604  -20.5055   -9.1577 C   0  0  0  0  0  0  0  0  0  0  0  0
   26.2122  -20.9000  -10.3413 C   0  0  2  0  0  0  0  0  0  0  0  0
   27.1494  -20.9289  -11.4760 N   0  0  0  0  0  0  0  0  0  0  0  0
   25.1567  -19.9331  -10.6894 C   0  0  0  0  0  0  0  0  0  0  0  0
   25.3154  -19.1795  -11.7128 O   0  0  0  0  0  0  0  0  0  0  0  0
   21.9211  -23.2013  -16.2981 N   0  0  0  0  0  0  0  0  0  0  0  0
   20.6695  -22.7098  -15.8237 C   0  0  0  0  0  0  0  0  0  0  0  0
   19.5864  -22.9794  -16.4297 N   0  0  0  0  0  0  0  0  0  0  0  0
   20.6539  -21.9084  -14.6540 N   0  0  0  0  0  0  0  0  0  0  0  0
   21.9067  -21.6224  -13.9368 C   0  0  0  0  0  0  0  0  0  0  0  0
   21.5637  -20.8558  -12.6909 C   0  0  0  0  0  0  0  0  0  0  0  0
   22.7534  -20.5443  -11.8838 C   0  0  0  0  0  0  0  0  0  0  0  0
   22.6194  -19.7744  -10.6367 C   0  0  2  0  0  0  0  0  0  0  0  0
   23.9466  -19.7438   -9.9933 N   0  0  0  0  0  0  0  0  0  0  0  0
   21.6437  -20.1746   -9.6413 C   0  0  0  0  0  0  0  0  0  0  0  0
   21.8640  -21.0932   -8.8166 O   0  0  0  0  0  0  0  0  0  0  0  0
   20.4186  -19.5406   -9.5710 O   0  0  0  0  0  0  0  0  0  0  0  0
  2  1  1  6
  2  3  1  0
  4  5  1  0
  4  3  1  0
  6  7  1  0
  6  5  1  0
  8  2  1  0
  8  9  2  0
 10 11  1  0
 11 12  1  0
 12 13  1  0
 14 13  1  1
 14 15  1  0
 15  8  1  0
 16 14  1  0
 16 26  1  0
 17 16  2  0
 18 19  1  0
 19 21  1  0
 20 19  2  0
 21 22  1  0
 23 22  1  0
 24 23  1  0
 25 24  1  6
 25 26  1  0
 25 27  1  0
 27 28  2  0
 27 29  1  0
M  END
$$$$
