KMR.pdb
     RDKit          3D

 29 28  0  0  1  0  0  0  0  0999 V2000
   27.9480  -21.4729  -15.7080 N   0  0  0  0  0  0  0  0  0  0  0  0
   27.8131  -20.5706  -14.6456 C   0  0  1  0  0  0  0  0  0  0  0  0
   27.4552  -19.1847  -15.0770 C   0  0  0  0  0  0  0  0  0  0  0  0
   28.2412  -18.7016  -16.2434 C   0  0  0  0  0  0  0  0  0  0  0  0
   27.8687  -17.3309  -16.6679 C   0  0  0  0  0  0  0  0  0  0  0  0
   28.6999  -16.9010  -17.9028 C   0  0  0  0  0  0  0  0  0  0  0  0
   28.1732  -15.6269  -18.3133 N   0  0  0  0  0  0  0  0  0  0  0  0
   26.8210  -20.9768  -13.6116 C   0  0  0  0  0  0  0  0  0  0  0  0
   25.9524  -21.8165  -13.9734 O   0  0  0  0  0  0  0  0  0  0  0  0
   27.9781  -20.6722   -7.6589 C   0  0  0  0  0  0  0  0  0  0  0  0
   26.2173  -20.3042   -7.3697 S   0  0  0  0  0  0  0  0  0  0  0  0
   25.3341  -20.8825   -8.8818 C   0  0  0  0  0  0  0  0  0  0  0  0
   26.2810  -20.6708  -10.0119 C   0  0  0  0  0  0  0  0  0  0  0  0
   25.7132  -20.8952  -11.3914 C   0  0  2  0  0  0  0  0  0  0  0  0
   26.7956  -20.4992  -12.3069 N   0  0  0  0  0  0  0  0  0  0  0  0
   24.5509  -20.0522  -11.7212 C   0  0  0  0  0  0  0  0  0  0  0  0
   24.7262  -18.9994  -12.4293 O   0  0  0  0  0  0  0  0  0  0  0  0
   24.3016  -19.6178  -17.0721 N   0  0  0  0  0  0  0  0  0  0  0  0
   23.0963  -20.0001  -17.7309 C   0  0  0  0  0  0  0  0  0  0  0  0
   23.1208  -20.5656  -18.8677 N   0  0  0  0  0  0  0  0  0  0  0  0
   21.8591  -19.7363  -17.0901 N   0  0  0  0  0  0  0  0  0  0  0  0
   21.8352  -19.1329  -15.7481 C   0  0  0  0  0  0  0  0  0  0  0  0
   21.6521  -20.2373  -14.7459 C   0  0  0  0  0  0  0  0  0  0  0  0
   22.5773  -20.1160  -13.6088 C   0  0  0  0  0  0  0  0  0  0  0  0
   22.0611  -20.1378  -12.2307 C   0  0  2  0  0  0  0  0  0  0  0  0
   23.2189  -20.2904  -11.3292 N   0  0  0  0  0  0  0  0  0  0  0  0
   21.0595  -21.1146  -11.8492 C   0  0  0  0  0  0  0  0  0  0  0  0
   21.3413  -22.3184  -11.6396 O   0  0  0  0  0  0  0  0  0  0  0  0
   19.7388  -20.7383  -11.7014 O   0  0  0  0  0  0  0  0  0  0  0  0
  2  1  1  6
  2  3  1  0
  4  5  1  0
  4  3  1  0
  6  7  1  0
  6  5  1  0
  8  2  1  0
  8  9  2  0
 10 11  1  0
 11 12  1  0
 12 13  1  0
 14 13  1  1
 14 15  1  0
 15  8  1  0
 16 14  1  0
 16 26  1  0
 17 16  2  0
 18 19  1  0
 19 21  1  0
 20 19  2  0
 21 22  1  0
 23 22  1  0
 24 23  1  0
 25 24  1  6
 25 26  1  0
 25 27  1  0
 27 28  2  0
 27 29  1  0
M  END
$$$$
