KMR.pdb
     RDKit          3D

 29 28  0  0  1  0  0  0  0  0999 V2000
   28.2807  -21.9134  -15.3165 N   0  0  0  0  0  0  0  0  0  0  0  0
   28.2836  -21.0275  -14.2322 C   0  0  1  0  0  0  0  0  0  0  0  0
   28.2496  -19.5877  -14.6333 C   0  0  0  0  0  0  0  0  0  0  0  0
   27.2506  -19.2875  -15.6933 C   0  0  0  0  0  0  0  0  0  0  0  0
   27.2295  -17.8576  -16.0842 C   0  0  0  0  0  0  0  0  0  0  0  0
   26.1164  -17.5978  -17.1303 C   0  0  0  0  0  0  0  0  0  0  0  0
   26.1951  -16.1989  -17.4562 N   0  0  0  0  0  0  0  0  0  0  0  0
   27.1753  -21.2368  -13.2596 C   0  0  0  0  0  0  0  0  0  0  0  0
   26.1770  -21.8803  -13.6837 O   0  0  0  0  0  0  0  0  0  0  0  0
   27.2170  -18.9149   -7.1958 C   0  0  0  0  0  0  0  0  0  0  0  0
   26.5179  -20.5877   -7.0152 S   0  0  0  0  0  0  0  0  0  0  0  0
   25.5695  -20.8999   -8.5656 C   0  0  0  0  0  0  0  0  0  0  0  0
   26.5291  -20.6733   -9.6821 C   0  0  0  0  0  0  0  0  0  0  0  0
   26.0530  -21.0964  -11.0495 C   0  0  2  0  0  0  0  0  0  0  0  0
   27.1748  -20.7783  -11.9478 N   0  0  0  0  0  0  0  0  0  0  0  0
   24.8855  -20.3505  -11.5508 C   0  0  0  0  0  0  0  0  0  0  0  0
   25.0589  -19.4505  -12.4454 O   0  0  0  0  0  0  0  0  0  0  0  0
   19.5853  -23.3477  -16.0761 N   0  0  0  0  0  0  0  0  0  0  0  0
   20.4658  -22.6188  -16.9285 C   0  0  0  0  0  0  0  0  0  0  0  0
   20.0856  -22.2097  -18.0690 N   0  0  0  0  0  0  0  0  0  0  0  0
   21.7842  -22.3559  -16.4776 N   0  0  0  0  0  0  0  0  0  0  0  0
   22.2235  -22.8348  -15.1572 C   0  0  0  0  0  0  0  0  0  0  0  0
   21.6955  -21.8849  -14.1197 C   0  0  0  0  0  0  0  0  0  0  0  0
   22.7257  -21.4983  -13.1435 C   0  0  0  0  0  0  0  0  0  0  0  0
   22.4034  -20.5493  -12.0658 C   0  0  2  0  0  0  0  0  0  0  0  0
   23.5505  -20.5299  -11.1383 N   0  0  0  0  0  0  0  0  0  0  0  0
   21.1940  -20.7253  -11.2852 C   0  0  0  0  0  0  0  0  0  0  0  0
   21.2007  -21.2489  -10.1457 O   0  0  0  0  0  0  0  0  0  0  0  0
   19.9748  -20.3111  -11.7847 O   0  0  0  0  0  0  0  0  0  0  0  0
  2  1  1  6
  2  3  1  0
  4  5  1  0
  4  3  1  0
  6  7  1  0
  6  5  1  0
  8  2  1  0
  8  9  2  0
 10 11  1  0
 11 12  1  0
 12 13  1  0
 14 13  1  1
 14 15  1  0
 15  8  1  0
 16 14  1  0
 16 26  1  0
 17 16  2  0
 18 19  1  0
 19 21  1  0
 20 19  2  0
 21 22  1  0
 23 22  1  0
 24 23  1  0
 25 24  1  6
 25 26  1  0
 25 27  1  0
 27 28  2  0
 27 29  1  0
M  END
$$$$
