KMR.pdb
     RDKit          3D

 29 28  0  0  1  0  0  0  0  0999 V2000
   28.2179  -21.5867  -14.1113 N   0  0  0  0  0  0  0  0  0  0  0  0
   27.6548  -20.5513  -13.3552 C   0  0  1  0  0  0  0  0  0  0  0  0
   26.9927  -19.4961  -14.1817 C   0  0  0  0  0  0  0  0  0  0  0  0
   27.1358  -19.7090  -15.6466 C   0  0  0  0  0  0  0  0  0  0  0  0
   25.9232  -20.2901  -16.2709 C   0  0  0  0  0  0  0  0  0  0  0  0
   26.1018  -20.3968  -17.8063 C   0  0  0  0  0  0  0  0  0  0  0  0
   24.8743  -20.9504  -18.3123 N   0  0  0  0  0  0  0  0  0  0  0  0
   26.6621  -20.9973  -12.3384 C   0  0  0  0  0  0  0  0  0  0  0  0
   26.1502  -22.1351  -12.5224 O   0  0  0  0  0  0  0  0  0  0  0  0
   28.3811  -19.6569   -5.8115 C   0  0  0  0  0  0  0  0  0  0  0  0
   26.8567  -19.2592   -6.7266 S   0  0  0  0  0  0  0  0  0  0  0  0
   26.8393  -20.3941   -8.1800 C   0  0  0  0  0  0  0  0  0  0  0  0
   25.6334  -20.0227   -8.9716 C   0  0  0  0  0  0  0  0  0  0  0  0
   25.3880  -20.8437  -10.2132 C   0  0  2  0  0  0  0  0  0  0  0  0
   26.2764  -20.2553  -11.2286 N   0  0  0  0  0  0  0  0  0  0  0  0
   24.0179  -20.7540  -10.7473 C   0  0  0  0  0  0  0  0  0  0  0  0
   23.7793  -19.9539  -11.7185 O   0  0  0  0  0  0  0  0  0  0  0  0
   17.1868  -26.2799   -9.6379 N   0  0  0  0  0  0  0  0  0  0  0  0
   16.7295  -25.3999  -10.6624 C   0  0  0  0  0  0  0  0  0  0  0  0
   15.6532  -25.6325  -11.2950 N   0  0  0  0  0  0  0  0  0  0  0  0
   17.5030  -24.2508  -10.9657 N   0  0  0  0  0  0  0  0  0  0  0  0
   18.8647  -24.1122  -10.4252 C   0  0  0  0  0  0  0  0  0  0  0  0
   19.4607  -22.8521  -10.9861 C   0  0  0  0  0  0  0  0  0  0  0  0
   20.8438  -22.6406  -10.5321 C   0  0  0  0  0  0  0  0  0  0  0  0
   21.5700  -21.4204  -10.9189 C   0  0  2  0  0  0  0  0  0  0  0  0
   22.9027  -21.4826  -10.2891 N   0  0  0  0  0  0  0  0  0  0  0  0
   20.9973  -20.1182  -10.6371 C   0  0  0  0  0  0  0  0  0  0  0  0
   21.3974  -19.3994   -9.6907 O   0  0  0  0  0  0  0  0  0  0  0  0
   19.9743  -19.6216  -11.4209 O   0  0  0  0  0  0  0  0  0  0  0  0
  2  1  1  6
  2  3  1  0
  4  5  1  0
  4  3  1  0
  6  7  1  0
  6  5  1  0
  8  2  1  0
  8  9  2  0
 10 11  1  0
 11 12  1  0
 12 13  1  0
 14 13  1  1
 14 15  1  0
 15  8  1  0
 16 14  1  0
 16 26  1  0
 17 16  2  0
 18 19  1  0
 19 21  1  0
 20 19  2  0
 21 22  1  0
 23 22  1  0
 24 23  1  0
 25 24  1  1
 25 26  1  0
 25 27  1  0
 27 28  2  0
 27 29  1  0
M  END
$$$$
