KMR.pdb
     RDKit          3D

 29 28  0  0  1  0  0  0  0  0999 V2000
   28.2356  -22.3832  -18.3665 N   0  0  0  0  0  0  0  0  0  0  0  0
   28.5957  -22.6291  -17.0359 C   0  0  1  0  0  0  0  0  0  0  0  0
   30.0700  -22.5768  -16.7936 C   0  0  0  0  0  0  0  0  0  0  0  0
   30.8593  -23.4127  -17.7369 C   0  0  0  0  0  0  0  0  0  0  0  0
   30.4208  -24.8286  -17.7657 C   0  0  0  0  0  0  0  0  0  0  0  0
   31.4110  -25.6862  -18.5931 C   0  0  0  0  0  0  0  0  0  0  0  0
   30.6283  -26.3158  -19.6228 N   0  0  0  0  0  0  0  0  0  0  0  0
   27.9570  -21.7197  -16.0442 C   0  0  0  0  0  0  0  0  0  0  0  0
   28.2486  -21.9231  -14.8342 O   0  0  0  0  0  0  0  0  0  0  0  0
   28.1068  -16.2325  -16.6760 C   0  0  0  0  0  0  0  0  0  0  0  0
   26.8630  -15.8026  -15.4159 S   0  0  0  0  0  0  0  0  0  0  0  0
   26.2365  -17.4110  -14.7671 C   0  0  0  0  0  0  0  0  0  0  0  0
   26.8717  -18.4639  -15.6078 C   0  0  0  0  0  0  0  0  0  0  0  0
   26.4628  -19.8826  -15.2984 C   0  0  2  0  0  0  0  0  0  0  0  0
   27.0826  -20.6878  -16.3633 N   0  0  0  0  0  0  0  0  0  0  0  0
   25.0126  -20.1326  -15.3691 C   0  0  0  0  0  0  0  0  0  0  0  0
   24.4134  -20.0076  -16.4941 O   0  0  0  0  0  0  0  0  0  0  0  0
   19.5960  -23.8022   -9.4056 N   0  0  0  0  0  0  0  0  0  0  0  0
   18.7393  -23.6078  -10.5286 C   0  0  0  0  0  0  0  0  0  0  0  0
   17.5702  -24.1032  -10.5556 N   0  0  0  0  0  0  0  0  0  0  0  0
   19.2182  -22.8455  -11.6242 N   0  0  0  0  0  0  0  0  0  0  0  0
   20.6154  -22.3843  -11.6496 C   0  0  0  0  0  0  0  0  0  0  0  0
   20.8815  -21.7838  -13.0010 C   0  0  0  0  0  0  0  0  0  0  0  0
   22.2837  -21.3684  -13.1592 C   0  0  0  0  0  0  0  0  0  0  0  0
   22.7403  -20.7758  -14.4265 C   0  0  2  0  0  0  0  0  0  0  0  0
   24.1854  -20.5105  -14.2933 N   0  0  0  0  0  0  0  0  0  0  0  0
   22.1052  -19.5746  -14.9332 C   0  0  0  0  0  0  0  0  0  0  0  0
   21.2872  -19.5974  -15.8835 O   0  0  0  0  0  0  0  0  0  0  0  0
   22.3881  -18.3454  -14.3705 O   0  0  0  0  0  0  0  0  0  0  0  0
  2  1  1  6
  2  3  1  0
  4  5  1  0
  4  3  1  0
  6  7  1  0
  6  5  1  0
  8  2  1  0
  8  9  2  0
 10 11  1  0
 11 12  1  0
 12 13  1  0
 14 13  1  6
 14 15  1  0
 15  8  1  0
 16 14  1  0
 16 26  1  0
 17 16  2  0
 18 19  1  0
 19 21  1  0
 20 19  2  0
 21 22  1  0
 23 22  1  0
 24 23  1  0
 25 24  1  1
 25 26  1  0
 25 27  1  0
 27 28  2  0
 27 29  1  0
M  END
$$$$
