SDN.pdb
     RDKit          3D

 23 22  0  0  1  0  0  0  0  0999 V2000
    8.8282  -12.2980   17.0669 O   0  0  0  0  0  0  0  0  0  0  0  0
    8.6934  -13.3623   17.9356 C   0  0  0  0  0  0  0  0  0  0  0  0
    9.0074  -14.6907   17.2720 C   0  0  2  0  0  0  0  0  0  0  0  0
    7.9475  -15.0129   16.3371 N   0  0  0  0  0  0  0  0  0  0  0  0
    9.0660  -15.7893   18.2758 C   0  0  0  0  0  0  0  0  0  0  0  0
    7.9453  -16.2510   18.6179 O   0  0  0  0  0  0  0  0  0  0  0  0
   10.2880  -16.2775   18.8050 N   0  0  0  0  0  0  0  0  0  0  0  0
   10.3112  -17.2804   19.8937 C   0  0  1  0  0  0  0  0  0  0  0  0
   11.3522  -18.2716   19.5724 C   0  0  0  0  0  0  0  0  0  0  0  0
   11.1541  -19.1433   18.4268 C   0  0  0  0  0  0  0  0  0  0  0  0
   10.0536  -19.7736   18.2851 O   0  0  0  0  0  0  0  0  0  0  0  0
   10.3524  -16.6199   21.1949 C   0  0  0  0  0  0  0  0  0  0  0  0
   11.3002  -15.8270   21.4999 O   0  0  0  0  0  0  0  0  0  0  0  0
   12.0896  -19.3620   17.4310 O   0  0  0  0  0  0  0  0  0  0  0  0
    6.7996  -14.6410   21.9512 N   0  0  0  0  0  0  0  0  0  0  0  0
    7.5924  -14.4968   23.1449 C   0  0  0  0  0  0  0  0  0  0  0  0
    7.7976  -13.3053   23.5088 O   0  0  0  0  0  0  0  0  0  0  0  0
    8.1123  -15.6677   23.8677 C   0  0  0  0  0  0  0  0  0  0  0  0
    9.5014  -16.0887   23.4990 C   0  0  2  0  0  0  0  0  0  0  0  0
    9.3704  -16.7972   22.1999 N   0  0  0  0  0  0  0  0  0  0  0  0
    9.9832  -17.1063   24.4484 C   0  0  0  0  0  0  0  0  0  0  0  0
   10.1888  -16.7968   25.6374 O   0  0  0  0  0  0  0  0  0  0  0  0
   10.2163  -18.4046   24.0580 O   0  0  0  0  0  0  0  0  0  0  0  0
  2  1  1  0
  3  4  1  6
  3  2  1  0
  5  6  2  0
  5  3  1  0
  7  5  1  0
  8  7  1  0
  8 12  1  0
  8  9  1  6
 10 14  1  0
 10  9  1  0
 11 10  2  0
 12 20  1  0
 13 12  2  0
 15 16  1  0
 16 18  1  0
 17 16  2  0
 19 18  1  1
 20 19  1  0
 21 19  1  0
 21 23  1  0
 22 21  2  0
M  END
$$$$
