SDN.pdb
     RDKit          3D

 23 22  0  0  1  0  0  0  0  0999 V2000
    7.8557  -13.9131   20.5169 O   0  0  0  0  0  0  0  0  0  0  0  0
    8.1521  -12.8556   19.6806 C   0  0  0  0  0  0  0  0  0  0  0  0
    8.5744  -13.3159   18.2974 C   0  0  2  0  0  0  0  0  0  0  0  0
    7.4957  -14.0825   17.7058 N   0  0  0  0  0  0  0  0  0  0  0  0
    9.7662  -14.2060   18.3706 C   0  0  0  0  0  0  0  0  0  0  0  0
    9.5116  -15.4361   18.2809 O   0  0  0  0  0  0  0  0  0  0  0  0
   11.0846  -13.7075   18.5289 N   0  0  0  0  0  0  0  0  0  0  0  0
   12.2359  -14.6183   18.7195 C   0  0  1  0  0  0  0  0  0  0  0  0
   13.2341  -14.3076   17.6819 C   0  0  0  0  0  0  0  0  0  0  0  0
   14.3651  -15.2040   17.5127 C   0  0  0  0  0  0  0  0  0  0  0  0
   14.4021  -16.3134   18.1425 O   0  0  0  0  0  0  0  0  0  0  0  0
   12.6579  -14.6215   20.1170 C   0  0  0  0  0  0  0  0  0  0  0  0
   13.0818  -13.5607   20.6782 O   0  0  0  0  0  0  0  0  0  0  0  0
   15.4533  -14.9555   16.6950 O   0  0  0  0  0  0  0  0  0  0  0  0
   10.3365  -14.5979   22.8099 N   0  0  0  0  0  0  0  0  0  0  0  0
   10.6330  -15.9369   23.2498 C   0  0  0  0  0  0  0  0  0  0  0  0
    9.6597  -16.5593   23.7593 O   0  0  0  0  0  0  0  0  0  0  0  0
   11.9787  -16.5128   23.1044 C   0  0  0  0  0  0  0  0  0  0  0  0
   12.9736  -15.6542   22.3862 C   0  0  2  0  0  0  0  0  0  0  0  0
   12.6316  -15.7701   20.9453 N   0  0  0  0  0  0  0  0  0  0  0  0
   14.3199  -16.2374   22.5130 C   0  0  0  0  0  0  0  0  0  0  0  0
   14.9153  -16.1908   23.6062 O   0  0  0  0  0  0  0  0  0  0  0  0
   14.9487  -16.8397   21.4480 O   0  0  0  0  0  0  0  0  0  0  0  0
  2  1  1  0
  3  4  1  1
  3  2  1  0
  5  6  2  0
  5  3  1  0
  7  5  1  0
  8  7  1  0
  8 12  1  0
  8  9  1  6
 10 14  1  0
 10  9  1  0
 11 10  2  0
 12 20  1  0
 13 12  2  0
 15 16  1  0
 16 18  1  0
 17 16  2  0
 19 18  1  1
 20 19  1  0
 21 19  1  0
 21 23  1  0
 22 21  2  0
M  END
$$$$
