SDN.pdb
     RDKit          3D

 23 22  0  0  1  0  0  0  0  0999 V2000
    8.7029  -11.9523   20.3478 O   0  0  0  0  0  0  0  0  0  0  0  0
    9.2252  -12.7481   19.3480 C   0  0  0  0  0  0  0  0  0  0  0  0
    8.3240  -13.9240   19.0181 C   0  0  2  0  0  0  0  0  0  0  0  0
    6.9962  -13.4292   18.7125 N   0  0  0  0  0  0  0  0  0  0  0  0
    8.1999  -14.8455   20.1814 C   0  0  0  0  0  0  0  0  0  0  0  0
    7.1090  -14.7630   20.8051 O   0  0  0  0  0  0  0  0  0  0  0  0
    9.2295  -15.7458   20.5573 N   0  0  0  0  0  0  0  0  0  0  0  0
    9.0321  -16.7340   21.6417 C   0  0  1  0  0  0  0  0  0  0  0  0
    9.8741  -17.9053   21.3439 C   0  0  0  0  0  0  0  0  0  0  0  0
   11.3181  -17.7627   21.4207 C   0  0  0  0  0  0  0  0  0  0  0  0
   11.8879  -17.6227   22.5540 O   0  0  0  0  0  0  0  0  0  0  0  0
    9.1628  -16.0925   22.9465 C   0  0  0  0  0  0  0  0  0  0  0  0
    9.9381  -15.0972   23.1150 O   0  0  0  0  0  0  0  0  0  0  0  0
   12.1702  -17.7657   20.3305 O   0  0  0  0  0  0  0  0  0  0  0  0
    5.8652  -13.1922   25.6670 N   0  0  0  0  0  0  0  0  0  0  0  0
    7.1564  -13.8174   25.5393 C   0  0  0  0  0  0  0  0  0  0  0  0
    8.0951  -13.0409   25.2077 O   0  0  0  0  0  0  0  0  0  0  0  0
    7.3404  -15.2564   25.7828 C   0  0  0  0  0  0  0  0  0  0  0  0
    8.6768  -15.8103   25.3958 C   0  0  2  0  0  0  0  0  0  0  0  0
    8.4585  -16.5082   24.1028 N   0  0  0  0  0  0  0  0  0  0  0  0
    9.0732  -16.8656   26.3435 C   0  0  0  0  0  0  0  0  0  0  0  0
    9.1515  -16.6090   27.5600 O   0  0  0  0  0  0  0  0  0  0  0  0
    9.3636  -18.1424   25.9218 O   0  0  0  0  0  0  0  0  0  0  0  0
  2  1  1  0
  3  4  1  1
  3  2  1  0
  5  6  2  0
  5  3  1  0
  7  5  1  0
  8  7  1  0
  8 12  1  0
  8  9  1  6
 10 14  1  0
 10  9  1  0
 11 10  2  0
 12 20  1  0
 13 12  2  0
 15 16  1  0
 16 18  1  0
 17 16  2  0
 19 18  1  1
 20 19  1  0
 21 19  1  0
 21 23  1  0
 22 21  2  0
M  END
$$$$
