SDN.pdb
     RDKit          3D

 23 22  0  0  1  0  0  0  0  0999 V2000
    7.2096  -15.4818   18.0174 O   0  0  0  0  0  0  0  0  0  0  0  0
    7.3058  -16.4030   19.0410 C   0  0  0  0  0  0  0  0  0  0  0  0
    7.2882  -15.7471   20.4096 C   0  0  2  0  0  0  0  0  0  0  0  0
    7.6141  -14.3422   20.2634 N   0  0  0  0  0  0  0  0  0  0  0  0
    8.3126  -16.3518   21.3056 C   0  0  0  0  0  0  0  0  0  0  0  0
    8.1388  -17.5739   21.5555 O   0  0  0  0  0  0  0  0  0  0  0  0
    9.3988  -15.6098   21.8359 N   0  0  0  0  0  0  0  0  0  0  0  0
   10.4163  -16.2449   22.7035 C   0  0  1  0  0  0  0  0  0  0  0  0
   11.6908  -15.5354   22.4987 C   0  0  0  0  0  0  0  0  0  0  0  0
   12.8826  -16.0395   23.1595 C   0  0  0  0  0  0  0  0  0  0  0  0
   13.0082  -17.2890   23.3869 O   0  0  0  0  0  0  0  0  0  0  0  0
    9.9078  -16.3901   24.0642 C   0  0  0  0  0  0  0  0  0  0  0  0
    9.4737  -15.3857   24.7144 O   0  0  0  0  0  0  0  0  0  0  0  0
   13.9412  -15.2554   23.5829 O   0  0  0  0  0  0  0  0  0  0  0  0
    7.3426  -20.1863   27.8438 N   0  0  0  0  0  0  0  0  0  0  0  0
    7.6751  -18.8178   27.5422 C   0  0  0  0  0  0  0  0  0  0  0  0
    7.5275  -18.0090   28.5005 O   0  0  0  0  0  0  0  0  0  0  0  0
    8.1494  -18.4187   26.2083 C   0  0  0  0  0  0  0  0  0  0  0  0
    9.4383  -17.6565   26.1833 C   0  0  2  0  0  0  0  0  0  0  0  0
    9.8532  -17.6239   24.7574 N   0  0  0  0  0  0  0  0  0  0  0  0
   10.4867  -18.4259   26.8744 C   0  0  0  0  0  0  0  0  0  0  0  0
   11.2412  -19.1713   26.2211 O   0  0  0  0  0  0  0  0  0  0  0  0
   10.6610  -18.3462   28.2366 O   0  0  0  0  0  0  0  0  0  0  0  0
  2  1  1  0
  3  4  1  6
  3  2  1  0
  5  6  2  0
  5  3  1  0
  7  5  1  0
  8  7  1  0
  8 12  1  0
  8  9  1  1
 10 14  1  0
 10  9  1  0
 11 10  2  0
 12 20  1  0
 13 12  2  0
 15 16  1  0
 16 18  1  0
 17 16  2  0
 19 18  1  6
 20 19  1  0
 21 19  1  0
 21 23  1  0
 22 21  2  0
M  END
$$$$
