SDN.pdb
     RDKit          3D

 23 22  0  0  1  0  0  0  0  0999 V2000
    7.5760  -14.6071   15.3776 O   0  0  0  0  0  0  0  0  0  0  0  0
    7.5914  -15.1194   16.6593 C   0  0  0  0  0  0  0  0  0  0  0  0
    8.1489  -16.5302   16.7090 C   0  0  2  0  0  0  0  0  0  0  0  0
    7.2348  -17.4228   16.0244 N   0  0  0  0  0  0  0  0  0  0  0  0
    8.2705  -17.0079   18.1143 C   0  0  0  0  0  0  0  0  0  0  0  0
    7.5035  -17.9604   18.4154 O   0  0  0  0  0  0  0  0  0  0  0  0
    9.1790  -16.4355   19.0410 N   0  0  0  0  0  0  0  0  0  0  0  0
    9.5127  -17.1140   20.3137 C   0  0  1  0  0  0  0  0  0  0  0  0
    9.6354  -18.5557   20.0380 C   0  0  0  0  0  0  0  0  0  0  0  0
    9.8816  -19.4589   21.1494 C   0  0  0  0  0  0  0  0  0  0  0  0
   10.9746  -20.1147   21.2109 O   0  0  0  0  0  0  0  0  0  0  0  0
   10.6186  -16.4330   20.9802 C   0  0  0  0  0  0  0  0  0  0  0  0
   10.7532  -15.1695   20.9057 O   0  0  0  0  0  0  0  0  0  0  0  0
    9.0019  -19.6827   22.1937 O   0  0  0  0  0  0  0  0  0  0  0  0
   11.1169  -14.5989   25.6618 N   0  0  0  0  0  0  0  0  0  0  0  0
   11.2403  -15.9870   25.2981 C   0  0  0  0  0  0  0  0  0  0  0  0
   11.6131  -16.7521   26.2308 O   0  0  0  0  0  0  0  0  0  0  0  0
   10.9475  -16.4524   23.9338 C   0  0  0  0  0  0  0  0  0  0  0  0
   12.1161  -16.4819   22.9977 C   0  0  2  0  0  0  0  0  0  0  0  0
   11.6070  -17.0985   21.7458 N   0  0  0  0  0  0  0  0  0  0  0  0
   13.1366  -17.4160   23.5024 C   0  0  0  0  0  0  0  0  0  0  0  0
   12.9314  -18.6437   23.4541 O   0  0  0  0  0  0  0  0  0  0  0  0
   14.3247  -16.9692   24.0326 O   0  0  0  0  0  0  0  0  0  0  0  0
  2  1  1  0
  3  4  1  6
  3  2  1  0
  5  6  2  0
  5  3  1  0
  7  5  1  0
  8  7  1  0
  8 12  1  0
  8  9  1  6
 10 14  1  0
 10  9  1  0
 11 10  2  0
 12 20  1  0
 13 12  2  0
 15 16  1  0
 16 18  1  0
 17 16  2  0
 19 18  1  1
 20 19  1  0
 21 19  1  0
 21 23  1  0
 22 21  2  0
M  END
$$$$
