SDN.pdb
     RDKit          3D

 23 22  0  0  1  0  0  0  0  0999 V2000
   12.5030  -21.9438   16.1450 O   0  0  0  0  0  0  0  0  0  0  0  0
   12.2682  -21.0048   17.1293 C   0  0  0  0  0  0  0  0  0  0  0  0
   11.4973  -19.8054   16.6089 C   0  0  2  0  0  0  0  0  0  0  0  0
   12.4228  -18.8915   15.9689 N   0  0  0  0  0  0  0  0  0  0  0  0
   10.8404  -19.0674   17.7232 C   0  0  0  0  0  0  0  0  0  0  0  0
   11.1753  -17.8575   17.8237 O   0  0  0  0  0  0  0  0  0  0  0  0
    9.9105  -19.6790   18.6024 N   0  0  0  0  0  0  0  0  0  0  0  0
    9.1844  -18.8932   19.6255 C   0  0  1  0  0  0  0  0  0  0  0  0
    7.7977  -19.3873   19.6741 C   0  0  0  0  0  0  0  0  0  0  0  0
    7.0224  -19.4087   18.4454 C   0  0  0  0  0  0  0  0  0  0  0  0
    7.1048  -18.4391   17.6197 O   0  0  0  0  0  0  0  0  0  0  0  0
    9.9513  -18.8391   20.8665 C   0  0  0  0  0  0  0  0  0  0  0  0
    9.6806  -17.9843   21.7698 O   0  0  0  0  0  0  0  0  0  0  0  0
    6.1657  -20.4288   18.0708 O   0  0  0  0  0  0  0  0  0  0  0  0
   12.5996  -20.0069   25.1854 N   0  0  0  0  0  0  0  0  0  0  0  0
   11.2451  -20.3552   24.8409 C   0  0  0  0  0  0  0  0  0  0  0  0
   10.5498  -20.8026   25.7951 O   0  0  0  0  0  0  0  0  0  0  0  0
   10.7349  -20.1920   23.4709 C   0  0  0  0  0  0  0  0  0  0  0  0
   11.7073  -19.6237   22.4839 C   0  0  2  0  0  0  0  0  0  0  0  0
   11.0294  -19.7077   21.1648 N   0  0  0  0  0  0  0  0  0  0  0  0
   12.8805  -20.5070   22.3737 C   0  0  0  0  0  0  0  0  0  0  0  0
   13.0046  -21.2521   21.3831 O   0  0  0  0  0  0  0  0  0  0  0  0
   13.8561  -20.5353   23.3430 O   0  0  0  0  0  0  0  0  0  0  0  0
  2  1  1  0
  3  4  1  1
  3  2  1  0
  5  6  2  0
  5  3  1  0
  7  5  1  0
  8  7  1  0
  8 12  1  0
  8  9  1  1
 10 14  1  0
 10  9  1  0
 11 10  2  0
 12 20  1  0
 13 12  2  0
 15 16  1  0
 16 18  1  0
 17 16  2  0
 19 18  1  1
 20 19  1  0
 21 19  1  0
 21 23  1  0
 22 21  2  0
M  END
$$$$
