GQM.pdb
     RDKit          3D

 22 21  0  0  1  0  0  0  0  0999 V2000
   22.3236  -15.5887  -18.5504 N   0  0  0  0  0  0  0  0  0  0  0  0
   21.0084  -15.2336  -18.1088 C   0  0  0  0  0  0  0  0  0  0  0  0
   20.9542  -13.7602  -17.9148 C   0  0  0  0  0  0  0  0  0  0  0  0
   21.9161  -13.0240  -18.2526 O   0  0  0  0  0  0  0  0  0  0  0  0
   17.3307   -9.3797  -19.0804 N   0  0  0  0  0  0  0  0  0  0  0  0
   17.7664   -8.8018  -17.8584 C   0  0  0  0  0  0  0  0  0  0  0  0
   17.6428   -7.5648  -17.7492 O   0  0  0  0  0  0  0  0  0  0  0  0
   18.3168   -9.6209  -16.8100 C   0  0  0  0  0  0  0  0  0  0  0  0
   18.4421  -11.0666  -16.9614 C   0  0  0  0  0  0  0  0  0  0  0  0
   19.7667  -11.7134  -17.0777 C   0  0  2  0  0  0  0  0  0  0  0  0
   19.7999  -13.1166  -17.3333 N   0  0  0  0  0  0  0  0  0  0  0  0
   20.7399  -11.2799  -16.0551 C   0  0  0  0  0  0  0  0  0  0  0  0
   20.7260  -11.7990  -14.9348 O   0  0  0  0  0  0  0  0  0  0  0  0
   27.4418  -11.8087  -15.1974 C   0  0  0  0  0  0  0  0  0  0  0  0
   26.7826  -10.2724  -15.8901 S   0  0  0  0  0  0  0  0  0  0  0  0
   25.1912   -9.8585  -15.1261 C   0  0  0  0  0  0  0  0  0  0  0  0
   24.0453  -10.1848  -16.0486 C   0  0  0  0  0  0  0  0  0  0  0  0
   22.7028   -9.8213  -15.4593 C   0  0  2  0  0  0  0  0  0  0  0  0
   21.6722  -10.2821  -16.3658 N   0  0  0  0  0  0  0  0  0  0  0  0
   22.6583   -8.3473  -15.2816 C   0  0  0  0  0  0  0  0  0  0  0  0
   22.2394   -7.6514  -16.2389 O   0  0  0  0  0  0  0  0  0  0  0  0
   23.0530   -7.7226  -14.1248 O   0  0  0  0  0  0  0  0  0  0  0  0
  2  1  1  0
  3  2  1  0
  3 11  1  0
  4  3  2  0
  5  6  1  0
  6  7  2  0
  6  8  1  0
  8  9  1  0
 10  9  1  1
 10 12  1  0
 11 10  1  0
 12 13  2  0
 12 19  1  0
 15 14  1  0
 16 15  1  0
 17 16  1  0
 18 17  1  6
 18 20  1  0
 19 18  1  0
 20 22  1  0
 21 20  2  0
M  END
$$$$
