GQM.pdb
     RDKit          3D

 22 21  0  0  1  0  0  0  0  0999 V2000
   29.6905  -22.2205  -17.0804 N   0  0  0  0  0  0  0  0  0  0  0  0
   28.7583  -22.9603  -16.2840 C   0  0  0  0  0  0  0  0  0  0  0  0
   27.9046  -21.9992  -15.5363 C   0  0  0  0  0  0  0  0  0  0  0  0
   28.4088  -21.0326  -14.9098 O   0  0  0  0  0  0  0  0  0  0  0  0
   23.6459  -17.3689  -13.9008 N   0  0  0  0  0  0  0  0  0  0  0  0
   23.6193  -18.3239  -14.9516 C   0  0  0  0  0  0  0  0  0  0  0  0
   23.6203  -17.8747  -16.1159 O   0  0  0  0  0  0  0  0  0  0  0  0
   23.5962  -19.7348  -14.6655 C   0  0  0  0  0  0  0  0  0  0  0  0
   24.4631  -20.6688  -15.3759 C   0  0  0  0  0  0  0  0  0  0  0  0
   25.6468  -21.2659  -14.7210 C   0  0  2  0  0  0  0  0  0  0  0  0
   26.4676  -22.1354  -15.4990 N   0  0  0  0  0  0  0  0  0  0  0  0
   25.3905  -21.7667  -13.3556 C   0  0  0  0  0  0  0  0  0  0  0  0
   24.8728  -22.8761  -13.1954 O   0  0  0  0  0  0  0  0  0  0  0  0
   27.4766  -18.1838   -8.1882 C   0  0  0  0  0  0  0  0  0  0  0  0
   27.1994  -19.8212   -7.4694 S   0  0  0  0  0  0  0  0  0  0  0  0
   26.0865  -20.7980   -8.5158 C   0  0  0  0  0  0  0  0  0  0  0  0
   26.3308  -20.5187   -9.9763 C   0  0  0  0  0  0  0  0  0  0  0  0
   25.4149  -21.3094  -10.8805 C   0  0  2  0  0  0  0  0  0  0  0  0
   25.7380  -20.9773  -12.2522 N   0  0  0  0  0  0  0  0  0  0  0  0
   24.0123  -20.9534  -10.5456 C   0  0  0  0  0  0  0  0  0  0  0  0
   23.4489  -20.0683  -11.2351 O   0  0  0  0  0  0  0  0  0  0  0  0
   23.3153  -21.5472   -9.5229 O   0  0  0  0  0  0  0  0  0  0  0  0
  2  1  1  0
  3  2  1  0
  3 11  1  0
  4  3  2  0
  5  6  1  0
  6  7  2  0
  6  8  1  0
  8  9  1  0
 10  9  1  6
 10 12  1  0
 11 10  1  0
 12 13  2  0
 12 19  1  0
 15 14  1  0
 16 15  1  0
 17 16  1  0
 18 17  1  1
 18 20  1  0
 19 18  1  0
 20 22  1  0
 21 20  2  0
M  END
$$$$
