GQM.pdb
     RDKit          3D

 22 21  0  0  1  0  0  0  0  0999 V2000
   27.8293  -18.2375  -15.6572 N   0  0  0  0  0  0  0  0  0  0  0  0
   28.1579  -19.3608  -14.8320 C   0  0  0  0  0  0  0  0  0  0  0  0
   27.2092  -19.4032  -13.6876 C   0  0  0  0  0  0  0  0  0  0  0  0
   27.0215  -18.3943  -12.9608 O   0  0  0  0  0  0  0  0  0  0  0  0
   21.9504  -19.2397  -12.6022 N   0  0  0  0  0  0  0  0  0  0  0  0
   22.4121  -19.7757  -13.8337 C   0  0  0  0  0  0  0  0  0  0  0  0
   21.8754  -19.3364  -14.8711 O   0  0  0  0  0  0  0  0  0  0  0  0
   23.4506  -20.7726  -13.8611 C   0  0  0  0  0  0  0  0  0  0  0  0
   24.1558  -21.1693  -12.6470 C   0  0  0  0  0  0  0  0  0  0  0  0
   25.4921  -20.6250  -12.3240 C   0  0  2  0  0  0  0  0  0  0  0  0
   26.4676  -20.5993  -13.3648 N   0  0  0  0  0  0  0  0  0  0  0  0
   26.0302  -21.0811  -11.0266 C   0  0  0  0  0  0  0  0  0  0  0  0
   26.5684  -22.1890  -10.9402 O   0  0  0  0  0  0  0  0  0  0  0  0
   29.3054  -19.1880   -4.3801 C   0  0  0  0  0  0  0  0  0  0  0  0
   28.1204  -18.5465   -5.5879 S   0  0  0  0  0  0  0  0  0  0  0  0
   27.2368  -19.9058   -6.3998 C   0  0  0  0  0  0  0  0  0  0  0  0
   26.9094  -19.5623   -7.8300 C   0  0  0  0  0  0  0  0  0  0  0  0
   26.1907  -20.6811   -8.5467 C   0  0  2  0  0  0  0  0  0  0  0  0
   25.9254  -20.2510   -9.9034 N   0  0  0  0  0  0  0  0  0  0  0  0
   24.9354  -20.9735   -7.8085 C   0  0  0  0  0  0  0  0  0  0  0  0
   23.8539  -20.5728   -8.3044 O   0  0  0  0  0  0  0  0  0  0  0  0
   24.9113  -21.6569   -6.6182 O   0  0  0  0  0  0  0  0  0  0  0  0
  2  1  1  0
  3  2  1  0
  3 11  1  0
  4  3  2  0
  5  6  1  0
  6  7  2  0
  6  8  1  0
  8  9  1  0
 10  9  1  6
 10 12  1  0
 11 10  1  0
 12 13  2  0
 12 19  1  0
 15 14  1  0
 16 15  1  0
 17 16  1  0
 18 17  1  1
 18 20  1  0
 19 18  1  0
 20 22  1  0
 21 20  2  0
M  END
$$$$
