GQM.pdb
     RDKit          3D

 22 21  0  0  1  0  0  0  0  0999 V2000
   19.4943  -20.3021  -11.7715 N   0  0  0  0  0  0  0  0  0  0  0  0
   20.6345  -19.4366  -11.8127 C   0  0  0  0  0  0  0  0  0  0  0  0
   21.8603  -20.2564  -11.6205 C   0  0  0  0  0  0  0  0  0  0  0  0
   21.9127  -21.1508  -10.7381 O   0  0  0  0  0  0  0  0  0  0  0  0
   25.1614  -24.0835  -13.3669 N   0  0  0  0  0  0  0  0  0  0  0  0
   24.5067  -23.3876  -14.4176 C   0  0  0  0  0  0  0  0  0  0  0  0
   23.9442  -24.0858  -15.2856 O   0  0  0  0  0  0  0  0  0  0  0  0
   24.5014  -21.9484  -14.4581 C   0  0  0  0  0  0  0  0  0  0  0  0
   25.0637  -21.1552  -13.3702 C   0  0  0  0  0  0  0  0  0  0  0  0
   24.2475  -20.7749  -12.1974 C   0  0  2  0  0  0  0  0  0  0  0  0
   23.0359  -20.0603  -12.4356 N   0  0  0  0  0  0  0  0  0  0  0  0
   25.0318  -20.2396  -11.0664 C   0  0  0  0  0  0  0  0  0  0  0  0
   24.9597  -19.0403  -10.7820 O   0  0  0  0  0  0  0  0  0  0  0  0
   28.7914  -18.7312   -5.4022 C   0  0  0  0  0  0  0  0  0  0  0  0
   27.4317  -19.1564   -6.5179 S   0  0  0  0  0  0  0  0  0  0  0  0
   27.4844  -20.9174   -6.9470 C   0  0  0  0  0  0  0  0  0  0  0  0
   26.4736  -21.2460   -8.0151 C   0  0  0  0  0  0  0  0  0  0  0  0
   26.8329  -20.6536   -9.3574 C   0  0  2  0  0  0  0  0  0  0  0  0
   25.8519  -21.0991  -10.3245 N   0  0  0  0  0  0  0  0  0  0  0  0
   28.2010  -21.1090   -9.7140 C   0  0  0  0  0  0  0  0  0  0  0  0
   28.3123  -22.1372  -10.4257 O   0  0  0  0  0  0  0  0  0  0  0  0
   29.3361  -20.4573   -9.3003 O   0  0  0  0  0  0  0  0  0  0  0  0
  2  1  1  0
  3  2  1  0
  3 11  1  0
  4  3  2  0
  5  6  1  0
  6  7  2  0
  6  8  1  0
  8  9  1  0
 10  9  1  6
 10 12  1  0
 11 10  1  0
 12 13  2  0
 12 19  1  0
 15 14  1  0
 16 15  1  0
 17 16  1  0
 18 17  1  1
 18 20  1  0
 19 18  1  0
 20 22  1  0
 21 20  2  0
M  END
$$$$
