GQM.pdb
     RDKit          3D

 22 21  0  0  1  0  0  0  0  0999 V2000
   29.7091  -22.8073  -16.0332 N   0  0  0  0  0  0  0  0  0  0  0  0
   28.2912  -22.9947  -16.1057 C   0  0  0  0  0  0  0  0  0  0  0  0
   27.6426  -22.1021  -15.1086 C   0  0  0  0  0  0  0  0  0  0  0  0
   28.3272  -21.4174  -14.3062 O   0  0  0  0  0  0  0  0  0  0  0  0
   21.6469  -20.1329  -12.4522 N   0  0  0  0  0  0  0  0  0  0  0  0
   22.1843  -19.6364  -13.6694 C   0  0  0  0  0  0  0  0  0  0  0  0
   21.3681  -19.3808  -14.5782 O   0  0  0  0  0  0  0  0  0  0  0  0
   23.6025  -19.4418  -13.8244 C   0  0  0  0  0  0  0  0  0  0  0  0
   24.3994  -20.3097  -14.6848 C   0  0  0  0  0  0  0  0  0  0  0  0
   25.5770  -21.0353  -14.1621 C   0  0  2  0  0  0  0  0  0  0  0  0
   26.2061  -21.9852  -15.0207 N   0  0  0  0  0  0  0  0  0  0  0  0
   25.4226  -21.5118  -12.7729 C   0  0  0  0  0  0  0  0  0  0  0  0
   24.8452  -22.5803  -12.5508 O   0  0  0  0  0  0  0  0  0  0  0  0
   29.2841  -19.4085   -7.6226 C   0  0  0  0  0  0  0  0  0  0  0  0
   27.5633  -19.2483   -7.0863 S   0  0  0  0  0  0  0  0  0  0  0  0
   26.4953  -20.3764   -8.0214 C   0  0  0  0  0  0  0  0  0  0  0  0
   26.6257  -20.1427   -9.5043 C   0  0  0  0  0  0  0  0  0  0  0  0
   25.7460  -21.0629  -10.3174 C   0  0  2  0  0  0  0  0  0  0  0  0
   25.9339  -20.7461  -11.7176 N   0  0  0  0  0  0  0  0  0  0  0  0
   24.3383  -20.8544   -9.8917 C   0  0  0  0  0  0  0  0  0  0  0  0
   23.6371  -20.0487  -10.5514 O   0  0  0  0  0  0  0  0  0  0  0  0
   23.7800  -21.5008   -8.8172 O   0  0  0  0  0  0  0  0  0  0  0  0
  2  1  1  0
  3  2  1  0
  3 11  1  0
  4  3  2  0
  5  6  1  0
  6  7  2  0
  6  8  1  0
  8  9  1  0
 10  9  1  6
 10 12  1  0
 11 10  1  0
 12 13  2  0
 12 19  1  0
 15 14  1  0
 16 15  1  0
 17 16  1  0
 18 17  1  1
 18 20  1  0
 19 18  1  0
 20 22  1  0
 21 20  2  0
M  END
$$$$
