GQM.pdb
     RDKit          3D

 22 21  0  0  1  0  0  0  0  0999 V2000
   29.1711  -22.4339  -15.3753 N   0  0  0  0  0  0  0  0  0  0  0  0
   27.9044  -21.8817  -15.7510 C   0  0  0  0  0  0  0  0  0  0  0  0
   27.3093  -21.2085  -14.5660 C   0  0  0  0  0  0  0  0  0  0  0  0
   27.9774  -20.3975  -13.8752 O   0  0  0  0  0  0  0  0  0  0  0  0
   25.6219  -17.4514  -14.9142 N   0  0  0  0  0  0  0  0  0  0  0  0
   24.3244  -17.7946  -14.4499 C   0  0  0  0  0  0  0  0  0  0  0  0
   23.6380  -16.8682  -13.9723 O   0  0  0  0  0  0  0  0  0  0  0  0
   23.8435  -19.1488  -14.5385 C   0  0  0  0  0  0  0  0  0  0  0  0
   24.0033  -20.0862  -13.4320 C   0  0  0  0  0  0  0  0  0  0  0  0
   25.3143  -20.6998  -13.1302 C   0  0  2  0  0  0  0  0  0  0  0  0
   25.9458  -21.4571  -14.1613 N   0  0  0  0  0  0  0  0  0  0  0  0
   25.3869  -21.3418  -11.8023 C   0  0  0  0  0  0  0  0  0  0  0  0
   25.0794  -22.5311  -11.6774 O   0  0  0  0  0  0  0  0  0  0  0  0
   27.5610  -17.8122   -6.5870 C   0  0  0  0  0  0  0  0  0  0  0  0
   28.1031  -19.5027   -6.2366 S   0  0  0  0  0  0  0  0  0  0  0  0
   27.1129  -20.6982   -7.1737 C   0  0  0  0  0  0  0  0  0  0  0  0
   26.8658  -20.2145   -8.5793 C   0  0  0  0  0  0  0  0  0  0  0  0
   25.9561  -21.1343   -9.3592 C   0  0  2  0  0  0  0  0  0  0  0  0
   25.8052  -20.5945  -10.6941 N   0  0  0  0  0  0  0  0  0  0  0  0
   24.6544  -21.2112   -8.6480 C   0  0  0  0  0  0  0  0  0  0  0  0
   23.6909  -20.5527   -9.1109 O   0  0  0  0  0  0  0  0  0  0  0  0
   24.4652  -21.9656   -7.5168 O   0  0  0  0  0  0  0  0  0  0  0  0
  2  1  1  0
  3  2  1  0
  3 11  1  0
  4  3  2  0
  5  6  1  0
  6  7  2  0
  6  8  1  0
  8  9  1  0
 10  9  1  6
 10 12  1  0
 11 10  1  0
 12 13  2  0
 12 19  1  0
 15 14  1  0
 16 15  1  0
 17 16  1  0
 18 17  1  1
 18 20  1  0
 19 18  1  0
 20 22  1  0
 21 20  2  0
M  END
$$$$
