GQM.pdb
     RDKit          3D

 22 21  0  0  1  0  0  0  0  0999 V2000
   28.8076  -22.6271  -17.0415 N   0  0  0  0  0  0  0  0  0  0  0  0
   28.6264  -21.5010  -16.1755 C   0  0  0  0  0  0  0  0  0  0  0  0
   27.2767  -21.5894  -15.5576 C   0  0  0  0  0  0  0  0  0  0  0  0
   26.3083  -22.0955  -16.1800 O   0  0  0  0  0  0  0  0  0  0  0  0
   24.9831  -20.4882   -9.6319 N   0  0  0  0  0  0  0  0  0  0  0  0
   23.9955  -21.2167  -10.3467 C   0  0  0  0  0  0  0  0  0  0  0  0
   22.8717  -21.3083   -9.8119 O   0  0  0  0  0  0  0  0  0  0  0  0
   24.2962  -21.8087  -11.6243 C   0  0  0  0  0  0  0  0  0  0  0  0
   25.6003  -21.6345  -12.2548 C   0  0  0  0  0  0  0  0  0  0  0  0
   25.7211  -21.1342  -13.6410 C   0  0  2  0  0  0  0  0  0  0  0  0
   27.0231  -21.0999  -14.2230 N   0  0  0  0  0  0  0  0  0  0  0  0
   24.9236  -19.9218  -13.9148 C   0  0  0  0  0  0  0  0  0  0  0  0
   25.3146  -18.8243  -13.5061 O   0  0  0  0  0  0  0  0  0  0  0  0
   23.8943  -18.2583  -19.3616 C   0  0  0  0  0  0  0  0  0  0  0  0
   22.6056  -17.1525  -18.7363 S   0  0  0  0  0  0  0  0  0  0  0  0
   22.3072  -17.4522  -16.9731 C   0  0  0  0  0  0  0  0  0  0  0  0
   23.0760  -18.6546  -16.4895 C   0  0  0  0  0  0  0  0  0  0  0  0
   22.9003  -18.9002  -15.0094 C   0  0  2  0  0  0  0  0  0  0  0  0
   23.7287  -20.0279  -14.6376 N   0  0  0  0  0  0  0  0  0  0  0  0
   21.4621  -19.1671  -14.7513 C   0  0  0  0  0  0  0  0  0  0  0  0
   21.0838  -20.3635  -14.7091 O   0  0  0  0  0  0  0  0  0  0  0  0
   20.5403  -18.1683  -14.5592 O   0  0  0  0  0  0  0  0  0  0  0  0
  2  1  1  0
  3  2  1  0
  3 11  1  0
  4  3  2  0
  5  6  1  0
  6  7  2  0
  6  8  1  0
  8  9  1  0
 10  9  1  1
 10 12  1  0
 11 10  1  0
 12 13  2  0
 12 19  1  0
 15 14  1  0
 16 15  1  0
 17 16  1  0
 18 17  1  6
 18 20  1  0
 19 18  1  0
 20 22  1  0
 21 20  2  0
M  END
$$$$
