GQM.pdb
     RDKit          3D

 22 21  0  0  1  0  0  0  0  0999 V2000
   30.0445  -22.7915  -16.6087 N   0  0  0  0  0  0  0  0  0  0  0  0
   28.8374  -23.3655  -16.0948 C   0  0  0  0  0  0  0  0  0  0  0  0
   28.1081  -22.3250  -15.3222 C   0  0  0  0  0  0  0  0  0  0  0  0
   28.6681  -21.2489  -14.9910 O   0  0  0  0  0  0  0  0  0  0  0  0
   22.5989  -20.3841  -13.0820 N   0  0  0  0  0  0  0  0  0  0  0  0
   23.3455  -19.2998  -13.6148 C   0  0  0  0  0  0  0  0  0  0  0  0
   23.0296  -18.1576  -13.2240 O   0  0  0  0  0  0  0  0  0  0  0  0
   24.4117  -19.5298  -14.5547 C   0  0  0  0  0  0  0  0  0  0  0  0
   24.8515  -20.8799  -14.8900 C   0  0  0  0  0  0  0  0  0  0  0  0
   26.0129  -21.4978  -14.2148 C   0  0  2  0  0  0  0  0  0  0  0  0
   26.7326  -22.5062  -14.9221 N   0  0  0  0  0  0  0  0  0  0  0  0
   25.7765  -21.8315  -12.7958 C   0  0  0  0  0  0  0  0  0  0  0  0
   25.4275  -22.9740  -12.4835 O   0  0  0  0  0  0  0  0  0  0  0  0
   28.0651  -19.7530   -5.5723 C   0  0  0  0  0  0  0  0  0  0  0  0
   28.0828  -19.4565   -7.3573 S   0  0  0  0  0  0  0  0  0  0  0  0
   26.7744  -20.4082   -8.1758 C   0  0  0  0  0  0  0  0  0  0  0  0
   26.8556  -20.2651   -9.6736 C   0  0  0  0  0  0  0  0  0  0  0  0
   25.8079  -21.0815  -10.3933 C   0  0  2  0  0  0  0  0  0  0  0  0
   25.9511  -20.8473  -11.8148 N   0  0  0  0  0  0  0  0  0  0  0  0
   24.4719  -20.6600   -9.8996 C   0  0  0  0  0  0  0  0  0  0  0  0
   23.8514  -19.7864  -10.5537 O   0  0  0  0  0  0  0  0  0  0  0  0
   23.8953  -21.1822   -8.7687 O   0  0  0  0  0  0  0  0  0  0  0  0
  2  1  1  0
  3  2  1  0
  3 11  1  0
  4  3  2  0
  5  6  1  0
  6  7  2  0
  6  8  1  0
  8  9  1  0
 10  9  1  6
 10 12  1  0
 11 10  1  0
 12 13  2  0
 12 19  1  0
 15 14  1  0
 16 15  1  0
 17 16  1  0
 18 17  1  1
 18 20  1  0
 19 18  1  0
 20 22  1  0
 21 20  2  0
M  END
$$$$
