IKA.pdb
     RDKit          3D

 23 22  0  0  1  0  0  0  0  0999 V2000
   27.1292  -33.6249   -5.8425 C   0  0  0  0  0  0  0  0  0  0  0  0
   28.6092  -33.8845   -5.9930 C   0  0  0  0  0  0  0  0  0  0  0  0
   29.1794  -34.6546   -4.8367 C   0  0  2  0  0  0  0  0  0  0  0  0
   28.8523  -33.9646   -3.5182 C   0  0  0  0  0  0  0  0  0  0  0  0
   30.6691  -34.8867   -4.9594 C   0  0  2  0  0  0  0  0  0  0  0  0
   30.8276  -35.7549   -6.1668 N   0  0  0  0  0  0  0  0  0  0  0  0
   31.2852  -35.6375   -3.8731 C   0  0  0  0  0  0  0  0  0  0  0  0
   30.9385  -36.8601   -3.6735 O   0  0  0  0  0  0  0  0  0  0  0  0
   32.2750  -35.1754   -2.9528 N   0  0  0  0  0  0  0  0  0  0  0  0
   32.7573  -35.8505   -1.8009 C   0  0  1  0  0  0  0  0  0  0  0  0
   34.1321  -35.4963   -1.3310 C   0  0  0  0  0  0  0  0  0  0  0  0
   35.2229  -36.2788   -1.9613 C   0  0  0  0  0  0  0  0  0  0  0  0
   36.5562  -35.8290   -1.4486 C   0  0  0  0  0  0  0  0  0  0  0  0
   37.6793  -36.6487   -2.0099 C   0  0  0  0  0  0  0  0  0  0  0  0
   38.9037  -36.1148   -1.3884 N   0  0  0  0  0  0  0  0  0  0  0  0
   31.8504  -35.9650   -0.6536 C   0  0  0  0  0  0  0  0  0  0  0  0
   31.1316  -34.9408   -0.3813 O   0  0  0  0  0  0  0  0  0  0  0  0
   30.4959  -38.4707    1.8449 C   0  0  0  0  0  0  0  0  0  0  0  0
   30.7518  -37.0725    1.3321 C   0  0  2  0  0  0  0  0  0  0  0  0
   31.6659  -37.0663    0.2038 N   0  0  0  0  0  0  0  0  0  0  0  0
   31.3966  -36.2942    2.4227 C   0  0  0  0  0  0  0  0  0  0  0  0
   30.6943  -35.9241    3.5765 O   0  0  0  0  0  0  0  0  0  0  0  0
   32.6014  -35.9255    2.3732 O   0  0  0  0  0  0  0  0  0  0  0  0
  1  2  1  0
  3  2  1  0
  3  4  1  1
  5  3  1  0
  5  6  1  6
  7  5  1  0
  7  8  2  0
  9  7  1  0
 10  9  1  0
 10 11  1  1
 11 12  1  0
 12 13  1  0
 13 14  1  0
 14 15  1  0
 16 10  1  0
 17 16  2  0
 19 18  1  1
 19 21  1  0
 19 20  1  0
 20 16  1  0
 21 22  1  0
 23 21  2  0
M  END
$$$$
