IKA.pdb
     RDKit          3D

 23 22  0  0  1  0  0  0  0  0999 V2000
   25.4112  -11.0051  -14.7392 C   0  0  0  0  0  0  0  0  0  0  0  0
   24.0025  -11.3610  -15.1508 C   0  0  0  0  0  0  0  0  0  0  0  0
   23.3810  -10.3203  -16.0373 C   0  0  2  0  0  0  0  0  0  0  0  0
   24.2291  -10.1008  -17.2840 C   0  0  0  0  0  0  0  0  0  0  0  0
   23.1345   -9.0089  -15.3249 C   0  0  2  0  0  0  0  0  0  0  0  0
   22.2179   -9.3494  -14.1932 N   0  0  0  0  0  0  0  0  0  0  0  0
   22.4237   -7.9945  -16.0923 C   0  0  0  0  0  0  0  0  0  0  0  0
   22.9762   -7.4916  -17.1397 O   0  0  0  0  0  0  0  0  0  0  0  0
   21.1278   -7.4561  -15.8256 N   0  0  0  0  0  0  0  0  0  0  0  0
   20.4257   -6.4900  -16.5929 C   0  0  1  0  0  0  0  0  0  0  0  0
   18.9492   -6.6788  -16.7373 C   0  0  0  0  0  0  0  0  0  0  0  0
   18.5454   -7.9813  -17.3203 C   0  0  0  0  0  0  0  0  0  0  0  0
   17.5624   -8.6743  -16.4278 C   0  0  0  0  0  0  0  0  0  0  0  0
   17.0977   -9.9763  -17.0084 C   0  0  0  0  0  0  0  0  0  0  0  0
   16.1322  -10.5173  -16.0361 N   0  0  0  0  0  0  0  0  0  0  0  0
   20.7272   -5.0765  -16.3422 C   0  0  0  0  0  0  0  0  0  0  0  0
   20.9160   -4.7338  -15.1229 O   0  0  0  0  0  0  0  0  0  0  0  0
   21.4381   -1.8142  -18.1496 C   0  0  0  0  0  0  0  0  0  0  0  0
   21.1581   -2.6582  -16.9279 C   0  0  2  0  0  0  0  0  0  0  0  0
   20.8335   -4.0297  -17.2777 N   0  0  0  0  0  0  0  0  0  0  0  0
   19.9700   -2.0888  -16.2387 C   0  0  0  0  0  0  0  0  0  0  0  0
   20.0739   -0.9806  -15.3886 O   0  0  0  0  0  0  0  0  0  0  0  0
   18.8109   -2.5654  -16.3777 O   0  0  0  0  0  0  0  0  0  0  0  0
  1  2  1  0
  3  2  1  0
  3  4  1  6
  5  3  1  0
  5  6  1  1
  7  5  1  0
  7  8  2  0
  9  7  1  0
 10  9  1  0
 10 11  1  1
 11 12  1  0
 12 13  1  0
 13 14  1  0
 14 15  1  0
 16 10  1  0
 17 16  2  0
 19 18  1  6
 19 21  1  0
 19 20  1  0
 20 16  1  0
 21 22  1  0
 23 21  2  0
M  END
$$$$
