IKA.pdb
     RDKit          3D

 23 22  0  0  1  0  0  0  0  0999 V2000
   19.5298  -17.9828  -18.6841 C   0  0  0  0  0  0  0  0  0  0  0  0
   19.4950  -17.1891  -17.3999 C   0  0  0  0  0  0  0  0  0  0  0  0
   19.5450  -15.7070  -17.6371 C   0  0  2  0  0  0  0  0  0  0  0  0
   20.7688  -15.3368  -18.4659 C   0  0  0  0  0  0  0  0  0  0  0  0
   19.5075  -14.9026  -16.3566 C   0  0  2  0  0  0  0  0  0  0  0  0
   18.1645  -15.1841  -15.7618 N   0  0  0  0  0  0  0  0  0  0  0  0
   19.5523  -13.4549  -16.5160 C   0  0  0  0  0  0  0  0  0  0  0  0
   20.6110  -12.9043  -16.9965 O   0  0  0  0  0  0  0  0  0  0  0  0
   18.5250  -12.5157  -16.1953 N   0  0  0  0  0  0  0  0  0  0  0  0
   18.5427  -11.1144  -16.4214 C   0  0  1  0  0  0  0  0  0  0  0  0
   17.2202  -10.4349  -16.5822 C   0  0  0  0  0  0  0  0  0  0  0  0
   16.4279  -10.8902  -17.7504 C   0  0  0  0  0  0  0  0  0  0  0  0
   15.1322  -10.1435  -17.8296 C   0  0  0  0  0  0  0  0  0  0  0  0
   14.3038  -10.5792  -19.0010 C   0  0  0  0  0  0  0  0  0  0  0  0
   13.0013   -9.9121  -18.8305 N   0  0  0  0  0  0  0  0  0  0  0  0
   19.4225  -10.3027  -15.5736 C   0  0  0  0  0  0  0  0  0  0  0  0
   19.2753  -10.4223  -14.3072 O   0  0  0  0  0  0  0  0  0  0  0  0
   22.6058   -8.3138  -15.6732 C   0  0  0  0  0  0  0  0  0  0  0  0
   21.2760   -8.6695  -15.0500 C   0  0  2  0  0  0  0  0  0  0  0  0
   20.4192   -9.3921  -15.9732 N   0  0  0  0  0  0  0  0  0  0  0  0
   20.5777   -7.4033  -14.7038 C   0  0  0  0  0  0  0  0  0  0  0  0
   21.0339   -6.5693  -13.6753 O   0  0  0  0  0  0  0  0  0  0  0  0
   19.5442   -7.0100  -15.3098 O   0  0  0  0  0  0  0  0  0  0  0  0
  1  2  1  0
  3  2  1  0
  3  4  1  1
  5  3  1  0
  5  6  1  6
  7  5  1  0
  7  8  2  0
  9  7  1  0
 10  9  1  0
 10 11  1  1
 11 12  1  0
 12 13  1  0
 13 14  1  0
 14 15  1  0
 16 10  1  0
 17 16  2  0
 19 18  1  6
 19 21  1  0
 19 20  1  0
 20 16  1  0
 21 22  1  0
 23 21  2  0
M  END
$$$$
