IKA.pdb
     RDKit          3D

 23 22  0  0  1  0  0  0  0  0999 V2000
   18.4048  -17.0780  -17.4153 C   0  0  0  0  0  0  0  0  0  0  0  0
   18.3997  -16.0571  -16.3026 C   0  0  0  0  0  0  0  0  0  0  0  0
   18.5876  -14.6549  -16.8063 C   0  0  2  0  0  0  0  0  0  0  0  0
   19.8844  -14.5379  -17.5977 C   0  0  0  0  0  0  0  0  0  0  0  0
   18.5433  -13.6206  -15.7034 C   0  0  2  0  0  0  0  0  0  0  0  0
   17.1922  -13.7758  -15.0812 N   0  0  0  0  0  0  0  0  0  0  0  0
   18.6007  -12.2302  -16.1357 C   0  0  0  0  0  0  0  0  0  0  0  0
   19.4814  -11.8738  -17.0031 O   0  0  0  0  0  0  0  0  0  0  0  0
   17.7666  -11.1537  -15.7049 N   0  0  0  0  0  0  0  0  0  0  0  0
   17.8394   -9.7959  -16.1125 C   0  0  1  0  0  0  0  0  0  0  0  0
   16.5688   -9.0078  -16.0817 C   0  0  0  0  0  0  0  0  0  0  0  0
   15.3836   -9.7222  -16.6150 C   0  0  0  0  0  0  0  0  0  0  0  0
   14.1652   -8.8556  -16.5292 C   0  0  0  0  0  0  0  0  0  0  0  0
   12.9409   -9.5564  -17.0375 C   0  0  0  0  0  0  0  0  0  0  0  0
   11.8296   -8.6144  -16.8175 N   0  0  0  0  0  0  0  0  0  0  0  0
   18.9426   -8.9877  -15.5821 C   0  0  0  0  0  0  0  0  0  0  0  0
   19.1290   -9.0254  -14.3158 O   0  0  0  0  0  0  0  0  0  0  0  0
   21.8899   -6.8833  -16.7136 C   0  0  0  0  0  0  0  0  0  0  0  0
   20.9495   -7.4582  -15.6799 C   0  0  2  0  0  0  0  0  0  0  0  0
   19.8341   -8.1596  -16.2903 N   0  0  0  0  0  0  0  0  0  0  0  0
   20.3815   -6.3289  -14.8972 C   0  0  0  0  0  0  0  0  0  0  0  0
   19.0115   -6.0381  -14.9139 O   0  0  0  0  0  0  0  0  0  0  0  0
   21.0925   -5.5743  -14.1796 O   0  0  0  0  0  0  0  0  0  0  0  0
  1  2  1  0
  3  2  1  0
  3  4  1  1
  5  3  1  0
  5  6  1  6
  7  5  1  0
  7  8  2  0
  9  7  1  0
 10  9  1  0
 10 11  1  1
 11 12  1  0
 12 13  1  0
 13 14  1  0
 14 15  1  0
 16 10  1  0
 17 16  2  0
 19 18  1  6
 19 21  1  0
 19 20  1  0
 20 16  1  0
 21 22  1  0
 23 21  2  0
M  END
$$$$
