IKA.pdb
     RDKit          3D

 23 22  0  0  1  0  0  0  0  0999 V2000
   27.6024  -15.5417  -15.9217 C   0  0  0  0  0  0  0  0  0  0  0  0
   26.2740  -16.2334  -15.7281 C   0  0  0  0  0  0  0  0  0  0  0  0
   25.1084  -15.3426  -16.0497 C   0  0  2  0  0  0  0  0  0  0  0  0
   25.1098  -14.1114  -15.1520 C   0  0  0  0  0  0  0  0  0  0  0  0
   23.7783  -16.0582  -15.9677 C   0  0  2  0  0  0  0  0  0  0  0  0
   23.9124  -17.2310  -16.8860 N   0  0  0  0  0  0  0  0  0  0  0  0
   22.6281  -15.3175  -16.4692 C   0  0  0  0  0  0  0  0  0  0  0  0
   22.6357  -14.8817  -17.6796 O   0  0  0  0  0  0  0  0  0  0  0  0
   21.4299  -14.9946  -15.7619 N   0  0  0  0  0  0  0  0  0  0  0  0
   20.3414  -14.2129  -16.2302 C   0  0  1  0  0  0  0  0  0  0  0  0
   19.0117  -14.4440  -15.5862 C   0  0  0  0  0  0  0  0  0  0  0  0
   17.8821  -13.7227  -16.2211 C   0  0  0  0  0  0  0  0  0  0  0  0
   16.9860  -14.6813  -16.9430 C   0  0  0  0  0  0  0  0  0  0  0  0
   15.8693  -13.9783  -17.6551 C   0  0  0  0  0  0  0  0  0  0  0  0
   15.1427  -15.0328  -18.3835 N   0  0  0  0  0  0  0  0  0  0  0  0
   20.5678  -12.7746  -16.4085 C   0  0  0  0  0  0  0  0  0  0  0  0
   20.9413  -12.1164  -15.3755 O   0  0  0  0  0  0  0  0  0  0  0  0
   20.7505  -10.1090  -19.1030 C   0  0  0  0  0  0  0  0  0  0  0  0
   20.7407  -10.5953  -17.6723 C   0  0  2  0  0  0  0  0  0  0  0  0
   20.4221  -12.0090  -17.5811 N   0  0  0  0  0  0  0  0  0  0  0  0
   19.6746   -9.8579  -16.9440 C   0  0  0  0  0  0  0  0  0  0  0  0
   19.9512   -8.6936  -16.2164 O   0  0  0  0  0  0  0  0  0  0  0  0
   18.4710  -10.2338  -16.9387 O   0  0  0  0  0  0  0  0  0  0  0  0
  1  2  1  0
  3  2  1  0
  3  4  1  1
  5  3  1  0
  5  6  1  6
  7  5  1  0
  7  8  2  0
  9  7  1  0
 10  9  1  0
 10 11  1  1
 11 12  1  0
 12 13  1  0
 13 14  1  0
 14 15  1  0
 16 10  1  0
 17 16  2  0
 19 18  1  6
 19 21  1  0
 19 20  1  0
 20 16  1  0
 21 22  1  0
 23 21  2  0
M  END
$$$$
