IKA.pdb
     RDKit          3D

 23 22  0  0  1  0  0  0  0  0999 V2000
   19.4461  -20.1905  -15.8582 C   0  0  0  0  0  0  0  0  0  0  0  0
   20.2049  -19.4001  -14.8190 C   0  0  0  0  0  0  0  0  0  0  0  0
   21.6908  -19.4458  -15.0319 C   0  0  2  0  0  0  0  0  0  0  0  0
   22.0416  -19.0414  -16.4584 C   0  0  0  0  0  0  0  0  0  0  0  0
   22.2937  -20.7923  -14.6981 C   0  0  2  0  0  0  0  0  0  0  0  0
   22.1111  -20.9429  -13.2213 N   0  0  0  0  0  0  0  0  0  0  0  0
   23.7295  -20.9150  -14.9139 C   0  0  0  0  0  0  0  0  0  0  0  0
   24.5339  -20.1484  -14.2655 O   0  0  0  0  0  0  0  0  0  0  0  0
   24.3995  -21.8198  -15.7929 N   0  0  0  0  0  0  0  0  0  0  0  0
   25.7991  -21.9377  -15.9988 C   0  0  1  0  0  0  0  0  0  0  0  0
   26.3284  -23.3019  -16.3072 C   0  0  0  0  0  0  0  0  0  0  0  0
   27.8065  -23.4162  -16.2689 C   0  0  0  0  0  0  0  0  0  0  0  0
   28.2361  -24.8026  -16.6381 C   0  0  0  0  0  0  0  0  0  0  0  0
   29.7185  -24.9850  -16.5057 C   0  0  0  0  0  0  0  0  0  0  0  0
   29.9751  -26.3897  -16.8683 N   0  0  0  0  0  0  0  0  0  0  0  0
   26.4424  -20.9438  -16.8648 C   0  0  0  0  0  0  0  0  0  0  0  0
   25.9646  -20.8111  -18.0454 O   0  0  0  0  0  0  0  0  0  0  0  0
   29.1301  -18.2572  -16.8286 C   0  0  0  0  0  0  0  0  0  0  0  0
   28.0626  -19.1066  -17.4784 C   0  0  2  0  0  0  0  0  0  0  0  0
   27.5350  -20.1071  -16.5677 N   0  0  0  0  0  0  0  0  0  0  0  0
   28.6842  -19.8343  -18.6164 C   0  0  0  0  0  0  0  0  0  0  0  0
   29.2673  -21.0970  -18.4513 O   0  0  0  0  0  0  0  0  0  0  0  0
   28.7225  -19.3621  -19.7849 O   0  0  0  0  0  0  0  0  0  0  0  0
  1  2  1  0
  3  2  1  0
  3  4  1  6
  5  3  1  0
  5  6  1  1
  7  5  1  0
  7  8  2  0
  9  7  1  0
 10  9  1  0
 10 11  1  6
 11 12  1  0
 12 13  1  0
 13 14  1  0
 14 15  1  0
 16 10  1  0
 17 16  2  0
 19 18  1  1
 19 21  1  0
 19 20  1  0
 20 16  1  0
 21 22  1  0
 23 21  2  0
M  END
$$$$
