IKA.pdb
     RDKit          3D

 23 22  0  0  1  0  0  0  0  0999 V2000
   23.7873  -30.9208  -17.7476 C   0  0  0  0  0  0  0  0  0  0  0  0
   22.3612  -30.5330  -17.4372 C   0  0  0  0  0  0  0  0  0  0  0  0
   22.2666  -29.2288  -16.6986 C   0  0  2  0  0  0  0  0  0  0  0  0
   23.1098  -29.2676  -15.4301 C   0  0  0  0  0  0  0  0  0  0  0  0
   20.8420  -28.8343  -16.3776 C   0  0  2  0  0  0  0  0  0  0  0  0
   20.2647  -28.3755  -17.6788 N   0  0  0  0  0  0  0  0  0  0  0  0
   20.6862  -27.7000  -15.4763 C   0  0  0  0  0  0  0  0  0  0  0  0
   21.0958  -27.7976  -14.2607 O   0  0  0  0  0  0  0  0  0  0  0  0
   20.1115  -26.4273  -15.7766 N   0  0  0  0  0  0  0  0  0  0  0  0
   19.7682  -25.4024  -14.8563 C   0  0  1  0  0  0  0  0  0  0  0  0
   19.2838  -24.1087  -15.4291 C   0  0  0  0  0  0  0  0  0  0  0  0
   19.0121  -23.0504  -14.4263 C   0  0  0  0  0  0  0  0  0  0  0  0
   20.0245  -21.9520  -14.5340 C   0  0  0  0  0  0  0  0  0  0  0  0
   19.7482  -20.8373  -13.5700 C   0  0  0  0  0  0  0  0  0  0  0  0
   20.6676  -19.7513  -13.9518 N   0  0  0  0  0  0  0  0  0  0  0  0
   18.9459  -25.7772  -13.7009 C   0  0  0  0  0  0  0  0  0  0  0  0
   17.7992  -26.2897  -13.9502 O   0  0  0  0  0  0  0  0  0  0  0  0
   19.0592  -25.9858   -9.9089 C   0  0  0  0  0  0  0  0  0  0  0  0
   18.3902  -26.1007  -11.2589 C   0  0  2  0  0  0  0  0  0  0  0  0
   19.2524  -25.6417  -12.3334 N   0  0  0  0  0  0  0  0  0  0  0  0
   17.1910  -25.2217  -11.2535 C   0  0  0  0  0  0  0  0  0  0  0  0
   15.9397  -25.6874  -10.8305 O   0  0  0  0  0  0  0  0  0  0  0  0
   17.2298  -24.0175  -11.6256 O   0  0  0  0  0  0  0  0  0  0  0  0
  1  2  1  0
  3  2  1  0
  3  4  1  1
  5  3  1  0
  5  6  1  6
  7  5  1  0
  7  8  2  0
  9  7  1  0
 10  9  1  0
 10 11  1  6
 11 12  1  0
 12 13  1  0
 13 14  1  0
 14 15  1  0
 16 10  1  0
 17 16  2  0
 19 18  1  1
 19 21  1  0
 19 20  1  0
 20 16  1  0
 21 22  1  0
 23 21  2  0
M  END
$$$$
