IKA.pdb
     RDKit          3D

 23 22  0  0  1  0  0  0  0  0999 V2000
   32.4269  -32.5600  -18.1483 C   0  0  0  0  0  0  0  0  0  0  0  0
   31.2401  -31.6919  -18.4924 C   0  0  0  0  0  0  0  0  0  0  0  0
   30.2111  -31.6632  -17.3990 C   0  0  2  0  0  0  0  0  0  0  0  0
   29.8055  -33.0783  -17.0060 C   0  0  0  0  0  0  0  0  0  0  0  0
   28.9925  -30.8415  -17.7567 C   0  0  2  0  0  0  0  0  0  0  0  0
   29.4019  -29.4215  -17.5267 N   0  0  0  0  0  0  0  0  0  0  0  0
   27.8242  -31.0380  -16.9085 C   0  0  0  0  0  0  0  0  0  0  0  0
   27.7721  -30.4598  -15.7604 O   0  0  0  0  0  0  0  0  0  0  0  0
   26.6678  -31.8258  -17.1952 N   0  0  0  0  0  0  0  0  0  0  0  0
   25.5472  -32.0436  -16.3514 C   0  0  1  0  0  0  0  0  0  0  0  0
   24.2245  -32.2509  -17.0178 C   0  0  0  0  0  0  0  0  0  0  0  0
   23.0703  -32.3359  -16.0904 C   0  0  0  0  0  0  0  0  0  0  0  0
   21.7872  -32.4357  -16.8562 C   0  0  0  0  0  0  0  0  0  0  0  0
   20.5931  -32.4647  -15.9498 C   0  0  0  0  0  0  0  0  0  0  0  0
   19.4218  -32.4681  -16.8435 N   0  0  0  0  0  0  0  0  0  0  0  0
   25.7059  -32.9959  -15.2470 C   0  0  0  0  0  0  0  0  0  0  0  0
   26.3200  -34.0882  -15.5102 O   0  0  0  0  0  0  0  0  0  0  0  0
   25.1336  -33.3343  -11.5086 C   0  0  0  0  0  0  0  0  0  0  0  0
   25.5294  -33.8438  -12.8750 C   0  0  2  0  0  0  0  0  0  0  0  0
   25.2617  -32.8686  -13.9171 N   0  0  0  0  0  0  0  0  0  0  0  0
   24.7035  -35.0433  -13.1748 C   0  0  0  0  0  0  0  0  0  0  0  0
   25.0713  -36.3194  -12.7299 O   0  0  0  0  0  0  0  0  0  0  0  0
   23.6344  -34.9827  -13.8406 O   0  0  0  0  0  0  0  0  0  0  0  0
  1  2  1  0
  3  2  1  0
  3  4  1  6
  5  3  1  0
  5  6  1  1
  7  5  1  0
  7  8  2  0
  9  7  1  0
 10  9  1  0
 10 11  1  6
 11 12  1  0
 12 13  1  0
 13 14  1  0
 14 15  1  0
 16 10  1  0
 17 16  2  0
 19 18  1  1
 19 21  1  0
 19 20  1  0
 20 16  1  0
 21 22  1  0
 23 21  2  0
M  END
$$$$
