IKA.pdb
     RDKit          3D

 23 22  0  0  1  0  0  0  0  0999 V2000
   18.7225  -14.8063  -19.7259 C   0  0  0  0  0  0  0  0  0  0  0  0
   19.2581  -13.8060  -18.7294 C   0  0  0  0  0  0  0  0  0  0  0  0
   18.5304  -12.4934  -18.7828 C   0  0  2  0  0  0  0  0  0  0  0  0
   18.5770  -11.9105  -20.1898 C   0  0  0  0  0  0  0  0  0  0  0  0
   19.0471  -11.4907  -17.7750 C   0  0  2  0  0  0  0  0  0  0  0  0
   18.9155  -12.1708  -16.4496 N   0  0  0  0  0  0  0  0  0  0  0  0
   18.2715  -10.2638  -17.6467 C   0  0  0  0  0  0  0  0  0  0  0  0
   18.2351   -9.4334  -18.6286 O   0  0  0  0  0  0  0  0  0  0  0  0
   17.5048   -9.8372  -16.5196 N   0  0  0  0  0  0  0  0  0  0  0  0
   16.7471   -8.6428  -16.3998 C   0  0  1  0  0  0  0  0  0  0  0  0
   15.4656   -8.7245  -15.6333 C   0  0  0  0  0  0  0  0  0  0  0  0
   14.6268   -7.5031  -15.6968 C   0  0  0  0  0  0  0  0  0  0  0  0
   13.3702   -7.6869  -14.9030 C   0  0  0  0  0  0  0  0  0  0  0  0
   12.5364   -6.4410  -14.8754 C   0  0  0  0  0  0  0  0  0  0  0  0
   11.4165   -6.7383  -13.9655 N   0  0  0  0  0  0  0  0  0  0  0  0
   17.4678   -7.4167  -16.0405 C   0  0  0  0  0  0  0  0  0  0  0  0
   18.0819   -7.4162  -14.9169 O   0  0  0  0  0  0  0  0  0  0  0  0
   18.5960   -4.0975  -17.4666 C   0  0  0  0  0  0  0  0  0  0  0  0
   18.3202   -5.0578  -16.3330 C   0  0  2  0  0  0  0  0  0  0  0  0
   17.5715   -6.2205  -16.7758 N   0  0  0  0  0  0  0  0  0  0  0  0
   17.4812   -4.3530  -15.3280 C   0  0  0  0  0  0  0  0  0  0  0  0
   18.0498   -3.5921  -14.2988 O   0  0  0  0  0  0  0  0  0  0  0  0
   16.2211   -4.3986  -15.3431 O   0  0  0  0  0  0  0  0  0  0  0  0
  1  2  1  0
  3  2  1  0
  3  4  1  6
  5  3  1  0
  5  6  1  1
  7  5  1  0
  7  8  2  0
  9  7  1  0
 10  9  1  0
 10 11  1  1
 11 12  1  0
 12 13  1  0
 13 14  1  0
 14 15  1  0
 16 10  1  0
 17 16  2  0
 19 18  1  6
 19 21  1  0
 19 20  1  0
 20 16  1  0
 21 22  1  0
 23 21  2  0
M  END
$$$$
