LEI.pdb
     RDKit          3D

 26 25  0  0  1  0  0  0  0  0999 V2000
   26.9558  -16.1175  -17.8586 C   0  0  0  0  0  0  0  0  0  0  0  0
   27.1578  -17.4260  -17.1638 C   0  0  1  0  0  0  0  0  0  0  0  0
   27.8493  -18.3846  -18.1103 C   0  0  0  0  0  0  0  0  0  0  0  0
   27.9782  -17.3275  -15.9189 C   0  0  0  0  0  0  0  0  0  0  0  0
   28.2191  -18.6523  -15.2518 C   0  0  2  0  0  0  0  0  0  0  0  0
   28.0488  -19.7682  -16.1359 N   0  0  0  0  0  0  0  0  0  0  0  0
   27.2227  -18.7785  -14.1524 C   0  0  0  0  0  0  0  0  0  0  0  0
   27.1910  -17.8530  -13.2977 O   0  0  0  0  0  0  0  0  0  0  0  0
   26.3438  -19.8928  -14.0673 N   0  0  0  0  0  0  0  0  0  0  0  0
   25.3677  -19.9361  -13.0288 C   0  0  1  0  0  0  0  0  0  0  0  0
   24.1014  -20.5546  -13.5580 C   0  0  0  0  0  0  0  0  0  0  0  0
   23.0929  -20.6643  -12.4634 C   0  0  0  0  0  0  0  0  0  0  0  0
   21.7328  -20.2404  -12.9018 C   0  0  0  0  0  0  0  0  0  0  0  0
   21.2053  -20.6244  -13.9758 O   0  0  0  0  0  0  0  0  0  0  0  0
   25.8552  -20.6256  -11.8058 C   0  0  0  0  0  0  0  0  0  0  0  0
   26.5098  -21.6943  -11.9076 O   0  0  0  0  0  0  0  0  0  0  0  0
   21.0005  -19.3808  -12.0973 O   0  0  0  0  0  0  0  0  0  0  0  0
   28.3644  -18.4547   -7.4114 C   0  0  0  0  0  0  0  0  0  0  0  0
   27.9027  -19.5371   -8.3299 C   0  0  0  0  0  0  0  0  0  0  0  0
   26.4341  -19.8550   -8.2168 C   0  0  2  0  0  0  0  0  0  0  0  0
   26.2132  -20.4937   -6.8657 C   0  0  0  0  0  0  0  0  0  0  0  0
   25.9617  -20.8092   -9.3045 C   0  0  2  0  0  0  0  0  0  0  0  0
   25.5886  -20.0872  -10.5034 N   0  0  0  0  0  0  0  0  0  0  0  0
   24.7691  -21.5017   -8.7623 C   0  0  0  0  0  0  0  0  0  0  0  0
   24.8430  -22.6057   -7.9369 O   0  0  0  0  0  0  0  0  0  0  0  0
   23.6345  -21.0641   -9.0677 O   0  0  0  0  0  0  0  0  0  0  0  0
  2  1  1  6
  2  4  1  0
  2  3  1  0
  5  6  1  6
  5  4  1  0
  7  5  1  0
  8  7  2  0
  9  7  1  0
 10  9  1  0
 11 12  1  0
 10 11  1  6
 12 13  1  0
 13 17  1  0
 13 14  2  0
 15 10  1  0
 15 16  2  0
 18 19  1  0
 19 20  1  0
 20 22  1  0
 20 21  1  1
 22 23  1  6
 23 15  1  0
 24 22  1  0
 25 24  1  0
 26 24  2  0
M  END
$$$$
