LEI.pdb
     RDKit          3D

 26 25  0  0  1  0  0  0  0  0999 V2000
   28.5257  -17.5487  -16.0627 C   0  0  0  0  0  0  0  0  0  0  0  0
   27.8132  -18.7025  -15.4328 C   0  0  1  0  0  0  0  0  0  0  0  0
   27.9008  -18.5724  -13.9267 C   0  0  0  0  0  0  0  0  0  0  0  0
   26.3703  -18.7984  -15.8090 C   0  0  0  0  0  0  0  0  0  0  0  0
   25.6646  -19.9714  -15.1889 C   0  0  2  0  0  0  0  0  0  0  0  0
   26.1571  -21.2356  -15.6528 N   0  0  0  0  0  0  0  0  0  0  0  0
   24.2277  -19.8694  -15.5660 C   0  0  0  0  0  0  0  0  0  0  0  0
   23.9207  -20.1839  -16.7471 O   0  0  0  0  0  0  0  0  0  0  0  0
   23.2423  -19.4366  -14.6370 N   0  0  0  0  0  0  0  0  0  0  0  0
   21.8697  -19.4354  -15.0231 C   0  0  1  0  0  0  0  0  0  0  0  0
   21.0082  -19.6554  -13.8084 C   0  0  0  0  0  0  0  0  0  0  0  0
   19.5972  -19.9073  -14.2244 C   0  0  0  0  0  0  0  0  0  0  0  0
   18.6724  -20.0068  -13.0596 C   0  0  0  0  0  0  0  0  0  0  0  0
   19.0384  -19.8170  -11.8725 O   0  0  0  0  0  0  0  0  0  0  0  0
   21.4797  -18.2097  -15.7676 C   0  0  0  0  0  0  0  0  0  0  0  0
   21.8283  -17.0795  -15.3407 O   0  0  0  0  0  0  0  0  0  0  0  0
   17.3405  -20.3232  -13.2789 O   0  0  0  0  0  0  0  0  0  0  0  0
   21.4248  -14.9089  -20.0842 C   0  0  0  0  0  0  0  0  0  0  0  0
   20.4012  -15.9889  -19.9649 C   0  0  0  0  0  0  0  0  0  0  0  0
   20.8469  -17.1707  -19.1431 C   0  0  2  0  0  0  0  0  0  0  0  0
   20.3056  -18.4138  -19.8093 C   0  0  0  0  0  0  0  0  0  0  0  0
   20.3351  -17.1074  -17.7110 C   0  0  2  0  0  0  0  0  0  0  0  0
   20.7071  -18.2969  -16.9729 N   0  0  0  0  0  0  0  0  0  0  0  0
   18.8578  -17.0315  -17.7992 C   0  0  0  0  0  0  0  0  0  0  0  0
   18.0291  -18.1162  -17.5941 O   0  0  0  0  0  0  0  0  0  0  0  0
   18.3323  -15.9268  -18.0740 O   0  0  0  0  0  0  0  0  0  0  0  0
  2  1  1  6
  2  4  1  0
  2  3  1  0
  5  6  1  6
  5  4  1  0
  7  5  1  0
  8  7  2  0
  9  7  1  0
 10  9  1  0
 11 12  1  0
 10 11  1  1
 12 13  1  0
 13 17  1  0
 13 14  2  0
 15 10  1  0
 15 16  2  0
 18 19  1  0
 19 20  1  0
 20 22  1  0
 20 21  1  6
 22 23  1  1
 23 15  1  0
 24 22  1  0
 25 24  1  0
 26 24  2  0
M  END
$$$$
