LEI.pdb
     RDKit          3D

 26 25  0  0  1  0  0  0  0  0999 V2000
   22.4763  -17.1677  -14.7889 C   0  0  0  0  0  0  0  0  0  0  0  0
   21.4156  -16.8871  -15.8047 C   0  0  1  0  0  0  0  0  0  0  0  0
   20.1587  -17.6416  -15.4254 C   0  0  0  0  0  0  0  0  0  0  0  0
   21.0695  -15.4391  -15.9309 C   0  0  0  0  0  0  0  0  0  0  0  0
   19.9901  -15.1652  -16.9401 C   0  0  2  0  0  0  0  0  0  0  0  0
   20.3757  -15.4934  -18.2815 N   0  0  0  0  0  0  0  0  0  0  0  0
   19.6993  -13.7057  -16.8875 C   0  0  0  0  0  0  0  0  0  0  0  0
   20.4459  -12.9472  -17.5621 O   0  0  0  0  0  0  0  0  0  0  0  0
   18.6269  -13.1870  -16.1113 N   0  0  0  0  0  0  0  0  0  0  0  0
   18.3830  -11.7822  -16.1061 C   0  0  1  0  0  0  0  0  0  0  0  0
   16.9183  -11.5297  -15.8675 C   0  0  0  0  0  0  0  0  0  0  0  0
   16.1244  -11.9901  -17.0445 C   0  0  0  0  0  0  0  0  0  0  0  0
   15.7424  -13.4273  -16.9428 C   0  0  0  0  0  0  0  0  0  0  0  0
   15.7929  -14.2230  -17.9141 O   0  0  0  0  0  0  0  0  0  0  0  0
   19.2392  -11.0506  -15.1362 C   0  0  0  0  0  0  0  0  0  0  0  0
   19.4039  -11.5075  -13.9764 O   0  0  0  0  0  0  0  0  0  0  0  0
   15.3081  -13.9268  -15.7245 O   0  0  0  0  0  0  0  0  0  0  0  0
   24.4932  -10.2341  -13.7169 C   0  0  0  0  0  0  0  0  0  0  0  0
   23.2546   -9.4070  -13.8186 C   0  0  0  0  0  0  0  0  0  0  0  0
   22.1987   -9.9892  -14.7223 C   0  0  2  0  0  0  0  0  0  0  0  0
   22.7325   -9.9338  -16.1344 C   0  0  0  0  0  0  0  0  0  0  0  0
   20.8872   -9.2197  -14.6528 C   0  0  2  0  0  0  0  0  0  0  0  0
   19.8843   -9.8238  -15.5055 N   0  0  0  0  0  0  0  0  0  0  0  0
   21.1804   -7.8514  -15.1402 C   0  0  0  0  0  0  0  0  0  0  0  0
   20.7605   -7.3771  -16.3667 O   0  0  0  0  0  0  0  0  0  0  0  0
   21.8433   -7.0842  -14.4027 O   0  0  0  0  0  0  0  0  0  0  0  0
  2  1  1  1
  2  4  1  0
  2  3  1  0
  5  6  1  6
  5  4  1  0
  7  5  1  0
  8  7  2  0
  9  7  1  0
 10  9  1  0
 11 12  1  0
 10 11  1  1
 12 13  1  0
 13 17  1  0
 13 14  2  0
 15 10  1  0
 15 16  2  0
 18 19  1  0
 19 20  1  0
 20 22  1  0
 20 21  1  6
 22 23  1  6
 23 15  1  0
 24 22  1  0
 25 24  1  0
 26 24  2  0
M  END
$$$$
