LEI.pdb
     RDKit          3D

 26 25  0  0  1  0  0  0  0  0999 V2000
   28.9508  -16.0823  -19.0339 C   0  0  0  0  0  0  0  0  0  0  0  0
   28.4768  -17.4444  -18.6390 C   0  0  1  0  0  0  0  0  0  0  0  0
   29.6665  -18.2715  -18.1991 C   0  0  0  0  0  0  0  0  0  0  0  0
   27.4782  -17.4367  -17.5276 C   0  0  0  0  0  0  0  0  0  0  0  0
   27.1309  -18.8088  -17.0226 C   0  0  2  0  0  0  0  0  0  0  0  0
   26.8577  -19.7444  -18.0742 N   0  0  0  0  0  0  0  0  0  0  0  0
   25.9010  -18.6739  -16.1940 C   0  0  0  0  0  0  0  0  0  0  0  0
   25.9382  -17.8491  -15.2420 O   0  0  0  0  0  0  0  0  0  0  0  0
   24.7340  -19.4404  -16.4621 N   0  0  0  0  0  0  0  0  0  0  0  0
   23.6130  -19.3371  -15.5869 C   0  0  1  0  0  0  0  0  0  0  0  0
   22.3429  -19.4847  -16.3813 C   0  0  0  0  0  0  0  0  0  0  0  0
   21.5856  -18.1986  -16.3733 C   0  0  0  0  0  0  0  0  0  0  0  0
   20.1206  -18.4051  -16.1917 C   0  0  0  0  0  0  0  0  0  0  0  0
   19.4320  -19.1436  -16.9398 O   0  0  0  0  0  0  0  0  0  0  0  0
   23.6749  -20.2958  -14.4529 C   0  0  0  0  0  0  0  0  0  0  0  0
   23.8379  -21.5223  -14.6771 O   0  0  0  0  0  0  0  0  0  0  0  0
   19.4705  -17.7582  -15.1519 O   0  0  0  0  0  0  0  0  0  0  0  0
   27.1262  -20.5235  -10.6320 C   0  0  0  0  0  0  0  0  0  0  0  0
   25.9928  -20.8650  -11.5416 C   0  0  0  0  0  0  0  0  0  0  0  0
   24.6367  -20.4907  -11.0020 C   0  0  2  0  0  0  0  0  0  0  0  0
   24.4092  -21.3035   -9.7491 C   0  0  0  0  0  0  0  0  0  0  0  0
   23.5184  -20.7771  -11.9941 C   0  0  2  0  0  0  0  0  0  0  0  0
   23.5506  -19.8405  -13.0984 N   0  0  0  0  0  0  0  0  0  0  0  0
   22.2479  -20.6089  -11.2502 C   0  0  0  0  0  0  0  0  0  0  0  0
   21.4364  -19.4995  -11.3763 O   0  0  0  0  0  0  0  0  0  0  0  0
   21.8904  -21.5195  -10.4659 O   0  0  0  0  0  0  0  0  0  0  0  0
  2  1  1  1
  2  4  1  0
  2  3  1  0
  5  6  1  6
  5  4  1  0
  7  5  1  0
  8  7  2  0
  9  7  1  0
 10  9  1  0
 11 12  1  0
 10 11  1  6
 12 13  1  0
 13 17  1  0
 13 14  2  0
 15 10  1  0
 15 16  2  0
 18 19  1  0
 19 20  1  0
 20 22  1  0
 20 21  1  1
 22 23  1  6
 23 15  1  0
 24 22  1  0
 25 24  1  0
 26 24  2  0
M  END
$$$$
