LEI.pdb
     RDKit          3D

 26 25  0  0  1  0  0  0  0  0999 V2000
   32.7034  -22.2210  -11.1295 C   0  0  0  0  0  0  0  0  0  0  0  0
   31.8785  -22.0143  -12.3593 C   0  0  1  0  0  0  0  0  0  0  0  0
   31.4220  -23.3616  -12.8783 C   0  0  0  0  0  0  0  0  0  0  0  0
   30.6685  -21.1659  -12.1383 C   0  0  0  0  0  0  0  0  0  0  0  0
   29.9297  -20.8321  -13.4036 C   0  0  2  0  0  0  0  0  0  0  0  0
   30.5900  -19.8365  -14.1965 N   0  0  0  0  0  0  0  0  0  0  0  0
   28.5978  -20.2972  -13.0069 C   0  0  0  0  0  0  0  0  0  0  0  0
   28.5684  -19.1367  -12.5166 O   0  0  0  0  0  0  0  0  0  0  0  0
   27.4091  -21.0595  -13.1724 N   0  0  0  0  0  0  0  0  0  0  0  0
   26.1733  -20.5433  -12.6831 C   0  0  1  0  0  0  0  0  0  0  0  0
   25.1111  -20.7049  -13.7374 C   0  0  0  0  0  0  0  0  0  0  0  0
   23.8170  -20.1478  -13.2452 C   0  0  0  0  0  0  0  0  0  0  0  0
   22.7060  -20.3520  -14.2179 C   0  0  0  0  0  0  0  0  0  0  0  0
   22.8378  -20.9992  -15.2869 O   0  0  0  0  0  0  0  0  0  0  0  0
   25.7676  -21.1469  -11.3869 C   0  0  0  0  0  0  0  0  0  0  0  0
   25.7872  -22.3960  -11.2438 O   0  0  0  0  0  0  0  0  0  0  0  0
   21.4602  -19.8079  -13.9451 O   0  0  0  0  0  0  0  0  0  0  0  0
   27.6371  -19.2422   -6.9253 C   0  0  0  0  0  0  0  0  0  0  0  0
   26.9908  -20.2606   -7.8049 C   0  0  0  0  0  0  0  0  0  0  0  0
   25.4874  -20.1693   -7.8499 C   0  0  2  0  0  0  0  0  0  0  0  0
   24.9592  -20.7871   -6.5765 C   0  0  0  0  0  0  0  0  0  0  0  0
   24.8971  -20.9045   -9.0449 C   0  0  2  0  0  0  0  0  0  0  0  0
   25.3516  -20.3213  -10.2903 N   0  0  0  0  0  0  0  0  0  0  0  0
   23.4267  -20.7515   -8.9437 C   0  0  0  0  0  0  0  0  0  0  0  0
   22.6871  -19.9533   -9.7929 O   0  0  0  0  0  0  0  0  0  0  0  0
   22.8221  -21.3781   -8.0416 O   0  0  0  0  0  0  0  0  0  0  0  0
  2  1  1  1
  2  4  1  0
  2  3  1  0
  5  6  1  1
  5  4  1  0
  7  5  1  0
  8  7  2  0
  9  7  1  0
 10  9  1  0
 11 12  1  0
 10 11  1  6
 12 13  1  0
 13 17  1  0
 13 14  2  0
 15 10  1  0
 15 16  2  0
 18 19  1  0
 19 20  1  0
 20 22  1  0
 20 21  1  1
 22 23  1  6
 23 15  1  0
 24 22  1  0
 25 24  1  0
 26 24  2  0
M  END
$$$$
