LEI.pdb
     RDKit          3D

 26 25  0  0  1  0  0  0  0  0999 V2000
   27.4062  -17.6020  -16.6106 C   0  0  0  0  0  0  0  0  0  0  0  0
   27.4946  -18.8271  -15.7579 C   0  0  1  0  0  0  0  0  0  0  0  0
   28.7039  -19.6346  -16.1800 C   0  0  0  0  0  0  0  0  0  0  0  0
   27.6144  -18.5376  -14.2970 C   0  0  0  0  0  0  0  0  0  0  0  0
   27.8097  -19.7670  -13.4551 C   0  0  2  0  0  0  0  0  0  0  0  0
   27.3530  -20.9666  -14.0941 N   0  0  0  0  0  0  0  0  0  0  0  0
   27.0166  -19.5772  -12.2092 C   0  0  0  0  0  0  0  0  0  0  0  0
   27.0094  -18.4228  -11.7039 O   0  0  0  0  0  0  0  0  0  0  0  0
   26.2975  -20.6490  -11.6128 N   0  0  0  0  0  0  0  0  0  0  0  0
   25.6318  -20.4384  -10.3696 C   0  0  1  0  0  0  0  0  0  0  0  0
   24.2661  -21.0695  -10.4204 C   0  0  0  0  0  0  0  0  0  0  0  0
   23.4850  -20.5010  -11.5580 C   0  0  0  0  0  0  0  0  0  0  0  0
   22.1014  -20.1162  -11.1588 C   0  0  0  0  0  0  0  0  0  0  0  0
   21.6806  -18.9325  -11.1895 O   0  0  0  0  0  0  0  0  0  0  0  0
   26.4215  -20.9133   -9.2035 C   0  0  0  0  0  0  0  0  0  0  0  0
   27.1597  -21.9249   -9.3165 O   0  0  0  0  0  0  0  0  0  0  0  0
   21.2231  -21.0998  -10.7304 O   0  0  0  0  0  0  0  0  0  0  0  0
   29.4380  -17.9748   -5.7589 C   0  0  0  0  0  0  0  0  0  0  0  0
   28.8459  -19.1118   -6.5239 C   0  0  0  0  0  0  0  0  0  0  0  0
   27.5970  -19.6851   -5.9056 C   0  0  2  0  0  0  0  0  0  0  0  0
   27.9808  -20.2580   -4.5615 C   0  0  0  0  0  0  0  0  0  0  0  0
   26.9786  -20.7831   -6.7592 C   0  0  2  0  0  0  0  0  0  0  0  0
   26.3539  -20.2311   -7.9436 N   0  0  0  0  0  0  0  0  0  0  0  0
   25.9433  -21.4306   -5.9197 C   0  0  0  0  0  0  0  0  0  0  0  0
   26.2167  -22.4507   -5.0308 O   0  0  0  0  0  0  0  0  0  0  0  0
   24.7585  -21.0330   -6.0205 O   0  0  0  0  0  0  0  0  0  0  0  0
  2  1  1  6
  2  4  1  0
  2  3  1  0
  5  6  1  6
  5  4  1  0
  7  5  1  0
  8  7  2  0
  9  7  1  0
 10  9  1  0
 11 12  1  0
 10 11  1  6
 12 13  1  0
 13 17  1  0
 13 14  2  0
 15 10  1  0
 15 16  2  0
 18 19  1  0
 19 20  1  0
 20 22  1  0
 20 21  1  1
 22 23  1  6
 23 15  1  0
 24 22  1  0
 25 24  1  0
 26 24  2  0
M  END
$$$$
