LEI.pdb
     RDKit          3D

 26 25  0  0  1  0  0  0  0  0999 V2000
   23.3003  -16.4793  -14.6382 C   0  0  0  0  0  0  0  0  0  0  0  0
   22.5426  -16.2391  -15.9047 C   0  0  1  0  0  0  0  0  0  0  0  0
   21.1656  -16.8564  -15.7794 C   0  0  0  0  0  0  0  0  0  0  0  0
   22.3760  -14.7932  -16.2428 C   0  0  0  0  0  0  0  0  0  0  0  0
   21.5495  -14.5559  -17.4753 C   0  0  2  0  0  0  0  0  0  0  0  0
   22.1793  -15.0238  -18.6754 N   0  0  0  0  0  0  0  0  0  0  0  0
   21.3569  -13.0844  -17.5988 C   0  0  0  0  0  0  0  0  0  0  0  0
   22.3834  -12.3881  -17.8211 O   0  0  0  0  0  0  0  0  0  0  0  0
   20.0727  -12.4877  -17.4721 N   0  0  0  0  0  0  0  0  0  0  0  0
   19.9406  -11.0752  -17.6152 C   0  0  1  0  0  0  0  0  0  0  0  0
   18.5166  -10.7393  -17.9696 C   0  0  0  0  0  0  0  0  0  0  0  0
   18.3759   -9.2669  -18.1690 C   0  0  0  0  0  0  0  0  0  0  0  0
   16.9849   -8.7922  -17.9206 C   0  0  0  0  0  0  0  0  0  0  0  0
   16.0687   -9.5394  -17.4947 O   0  0  0  0  0  0  0  0  0  0  0  0
   20.4080  -10.3269  -16.4192 C   0  0  0  0  0  0  0  0  0  0  0  0
   20.1739  -10.7756  -15.2681 O   0  0  0  0  0  0  0  0  0  0  0  0
   16.6697   -7.4645  -18.1663 O   0  0  0  0  0  0  0  0  0  0  0  0
   25.2244   -9.6571  -15.2770 C   0  0  0  0  0  0  0  0  0  0  0  0
   23.7317   -9.6690  -15.2814 C   0  0  0  0  0  0  0  0  0  0  0  0
   23.1059   -8.3002  -15.3549 C   0  0  2  0  0  0  0  0  0  0  0  0
   23.5387   -7.5391  -14.1239 C   0  0  0  0  0  0  0  0  0  0  0  0
   21.5855   -8.3591  -15.3978 C   0  0  2  0  0  0  0  0  0  0  0  0
   21.1263   -9.0933  -16.5589 N   0  0  0  0  0  0  0  0  0  0  0  0
   21.1164   -6.9567  -15.4918 C   0  0  0  0  0  0  0  0  0  0  0  0
   20.8968   -6.1550  -14.3898 O   0  0  0  0  0  0  0  0  0  0  0  0
   20.9080   -6.4719  -16.6292 O   0  0  0  0  0  0  0  0  0  0  0  0
  2  1  1  1
  2  4  1  0
  2  3  1  0
  5  6  1  6
  5  4  1  0
  7  5  1  0
  8  7  2  0
  9  7  1  0
 10  9  1  0
 11 12  1  0
 10 11  1  1
 12 13  1  0
 13 17  1  0
 13 14  2  0
 15 10  1  0
 15 16  2  0
 18 19  1  0
 19 20  1  0
 20 22  1  0
 20 21  1  1
 22 23  1  6
 23 15  1  0
 24 22  1  0
 25 24  1  0
 26 24  2  0
M  END
$$$$
