LEI.pdb
     RDKit          3D

 26 25  0  0  1  0  0  0  0  0999 V2000
   27.9121  -17.5302  -15.3006 C   0  0  0  0  0  0  0  0  0  0  0  0
   28.0310  -19.0192  -15.3670 C   0  0  1  0  0  0  0  0  0  0  0  0
   28.6251  -19.5241  -14.0689 C   0  0  0  0  0  0  0  0  0  0  0  0
   26.7293  -19.7190  -15.5868 C   0  0  0  0  0  0  0  0  0  0  0  0
   26.8397  -21.2174  -15.5540 C   0  0  2  0  0  0  0  0  0  0  0  0
   27.6762  -21.7441  -16.5926 N   0  0  0  0  0  0  0  0  0  0  0  0
   25.4676  -21.7635  -15.7451 C   0  0  0  0  0  0  0  0  0  0  0  0
   24.8891  -21.4943  -16.8317 O   0  0  0  0  0  0  0  0  0  0  0  0
   24.8348  -22.5546  -14.7474 N   0  0  0  0  0  0  0  0  0  0  0  0
   23.5155  -23.0447  -14.9762 C   0  0  1  0  0  0  0  0  0  0  0  0
   23.3841  -24.4225  -14.3842 C   0  0  0  0  0  0  0  0  0  0  0  0
   22.0228  -24.9676  -14.6618 C   0  0  0  0  0  0  0  0  0  0  0  0
   21.8374  -26.3383  -14.1060 C   0  0  0  0  0  0  0  0  0  0  0  0
   22.7483  -26.9694  -13.5135 O   0  0  0  0  0  0  0  0  0  0  0  0
   22.4619  -22.1221  -14.4786 C   0  0  0  0  0  0  0  0  0  0  0  0
   22.5820  -21.5851  -13.3480 O   0  0  0  0  0  0  0  0  0  0  0  0
   20.6063  -26.9616  -14.2408 O   0  0  0  0  0  0  0  0  0  0  0  0
   20.5148  -18.4018  -17.7709 C   0  0  0  0  0  0  0  0  0  0  0  0
   20.9202  -19.1781  -16.5620 C   0  0  0  0  0  0  0  0  0  0  0  0
   19.8166  -20.0166  -15.9708 C   0  0  2  0  0  0  0  0  0  0  0  0
   18.7544  -19.0708  -15.4616 C   0  0  0  0  0  0  0  0  0  0  0  0
   20.3027  -20.8884  -14.8216 C   0  0  2  0  0  0  0  0  0  0  0  0
   21.3032  -21.8334  -15.2732 N   0  0  0  0  0  0  0  0  0  0  0  0
   19.1177  -21.6311  -14.3317 C   0  0  0  0  0  0  0  0  0  0  0  0
   18.4189  -21.2789  -13.1945 O   0  0  0  0  0  0  0  0  0  0  0  0
   18.7287  -22.6302  -14.9816 O   0  0  0  0  0  0  0  0  0  0  0  0
  2  1  1  1
  2  4  1  0
  2  3  1  0
  5  6  1  6
  5  4  1  0
  7  5  1  0
  8  7  2  0
  9  7  1  0
 10  9  1  0
 11 12  1  0
 10 11  1  1
 12 13  1  0
 13 17  1  0
 13 14  2  0
 15 10  1  0
 15 16  2  0
 18 19  1  0
 19 20  1  0
 20 22  1  0
 20 21  1  1
 22 23  1  6
 23 15  1  0
 24 22  1  0
 25 24  1  0
 26 24  2  0
M  END
$$$$
