LEI.pdb
     RDKit          3D

 26 25  0  0  1  0  0  0  0  0999 V2000
   13.2453   -9.7399   -8.9856 C   0  0  0  0  0  0  0  0  0  0  0  0
   12.9990   -9.8881  -10.4530 C   0  0  1  0  0  0  0  0  0  0  0  0
   12.1533   -8.7262  -10.9302 C   0  0  0  0  0  0  0  0  0  0  0  0
   14.2472   -9.9236  -11.2735 C   0  0  0  0  0  0  0  0  0  0  0  0
   13.9966  -10.1405  -12.7393 C   0  0  2  0  0  0  0  0  0  0  0  0
   13.6691  -11.4990  -13.0605 N   0  0  0  0  0  0  0  0  0  0  0  0
   15.2524   -9.7865  -13.4570 C   0  0  0  0  0  0  0  0  0  0  0  0
   16.0960  -10.7073  -13.6255 O   0  0  0  0  0  0  0  0  0  0  0  0
   15.4925   -8.4685  -13.9329 N   0  0  0  0  0  0  0  0  0  0  0  0
   16.5722   -8.2364  -14.8349 C   0  0  1  0  0  0  0  0  0  0  0  0
   16.3279   -6.9565  -15.5888 C   0  0  0  0  0  0  0  0  0  0  0  0
   17.4202   -6.7344  -16.5812 C   0  0  0  0  0  0  0  0  0  0  0  0
   17.2494   -5.4602  -17.3358 C   0  0  0  0  0  0  0  0  0  0  0  0
   16.3069   -4.6565  -17.1243 O   0  0  0  0  0  0  0  0  0  0  0  0
   17.8979   -8.2424  -14.1631 C   0  0  0  0  0  0  0  0  0  0  0  0
   18.0014   -7.8385  -12.9769 O   0  0  0  0  0  0  0  0  0  0  0  0
   18.1662   -5.1307  -18.3223 O   0  0  0  0  0  0  0  0  0  0  0  0
   21.5089  -12.1711  -15.4277 C   0  0  0  0  0  0  0  0  0  0  0  0
   20.7156  -11.1297  -14.7103 C   0  0  0  0  0  0  0  0  0  0  0  0
   21.2874   -9.7396  -14.8159 C   0  0  2  0  0  0  0  0  0  0  0  0
   22.6026   -9.7347  -14.0726 C   0  0  0  0  0  0  0  0  0  0  0  0
   20.3681   -8.6869  -14.2130 C   0  0  2  0  0  0  0  0  0  0  0  0
   19.0682   -8.7048  -14.8516 N   0  0  0  0  0  0  0  0  0  0  0  0
   21.0147   -7.3770  -14.4618 C   0  0  0  0  0  0  0  0  0  0  0  0
   21.7578   -6.7055  -13.5120 O   0  0  0  0  0  0  0  0  0  0  0  0
   20.8811   -6.8504  -15.5918 O   0  0  0  0  0  0  0  0  0  0  0  0
  2  1  1  1
  2  4  1  0
  2  3  1  0
  5  6  1  1
  5  4  1  0
  7  5  1  0
  8  7  2  0
  9  7  1  0
 10  9  1  0
 11 12  1  0
 10 11  1  1
 12 13  1  0
 13 17  1  0
 13 14  2  0
 15 10  1  0
 15 16  2  0
 18 19  1  0
 19 20  1  0
 20 22  1  0
 20 21  1  1
 22 23  1  6
 23 15  1  0
 24 22  1  0
 25 24  1  0
 26 24  2  0
M  END
$$$$
