LEI.pdb
     RDKit          3D

 26 25  0  0  1  0  0  0  0  0999 V2000
   14.3762  -10.5710  -16.4677 C   0  0  0  0  0  0  0  0  0  0  0  0
   14.4388  -10.7568  -14.9854 C   0  0  1  0  0  0  0  0  0  0  0  0
   13.1909  -11.4817  -14.5268 C   0  0  0  0  0  0  0  0  0  0  0  0
   15.6268  -11.5375  -14.5251 C   0  0  0  0  0  0  0  0  0  0  0  0
   16.9357  -10.9831  -15.0127 C   0  0  2  0  0  0  0  0  0  0  0  0
   17.8959  -11.9997  -15.3294 N   0  0  0  0  0  0  0  0  0  0  0  0
   17.4946  -10.1462  -13.9152 C   0  0  0  0  0  0  0  0  0  0  0  0
   17.6626  -10.7033  -12.7974 O   0  0  0  0  0  0  0  0  0  0  0  0
   17.8256   -8.7781  -14.1158 N   0  0  0  0  0  0  0  0  0  0  0  0
   18.3682   -8.0239  -13.0342 C   0  0  1  0  0  0  0  0  0  0  0  0
   19.5637   -7.2466  -13.5166 C   0  0  0  0  0  0  0  0  0  0  0  0
   20.2275   -6.5678  -12.3650 C   0  0  0  0  0  0  0  0  0  0  0  0
   21.4327   -5.7955  -12.7809 C   0  0  0  0  0  0  0  0  0  0  0  0
   21.8334   -5.7335  -13.9703 O   0  0  0  0  0  0  0  0  0  0  0  0
   17.3624   -7.1481  -12.3783 C   0  0  0  0  0  0  0  0  0  0  0  0
   16.5511   -6.4913  -13.0793 O   0  0  0  0  0  0  0  0  0  0  0  0
   22.1584   -5.1064  -11.8213 O   0  0  0  0  0  0  0  0  0  0  0  0
   13.0161   -6.7918   -8.4620 C   0  0  0  0  0  0  0  0  0  0  0  0
   14.2313   -6.0730   -8.9468 C   0  0  0  0  0  0  0  0  0  0  0  0
   15.2307   -6.9573   -9.6468 C   0  0  2  0  0  0  0  0  0  0  0  0
   15.8228   -7.8801   -8.6075 C   0  0  0  0  0  0  0  0  0  0  0  0
   16.3490   -6.1613  -10.3044 C   0  0  2  0  0  0  0  0  0  0  0  0
   17.3028   -7.0401  -10.9493 N   0  0  0  0  0  0  0  0  0  0  0  0
   17.0286   -5.4200   -9.2162 C   0  0  0  0  0  0  0  0  0  0  0  0
   16.5339   -4.2530   -8.6696 O   0  0  0  0  0  0  0  0  0  0  0  0
   18.1078   -5.8743   -8.7678 O   0  0  0  0  0  0  0  0  0  0  0  0
  2  1  1  6
  2  4  1  0
  2  3  1  0
  5  6  1  1
  5  4  1  0
  7  5  1  0
  8  7  2  0
  9  7  1  0
 10  9  1  0
 11 12  1  0
 10 11  1  6
 12 13  1  0
 13 17  1  0
 13 14  2  0
 15 10  1  0
 15 16  2  0
 18 19  1  0
 19 20  1  0
 20 22  1  0
 20 21  1  1
 22 23  1  1
 23 15  1  0
 24 22  1  0
 25 24  1  0
 26 24  2  0
M  END
$$$$
