LEI.pdb
     RDKit          3D

 26 25  0  0  1  0  0  0  0  0999 V2000
   28.9493  -15.4270  -16.7545 C   0  0  0  0  0  0  0  0  0  0  0  0
   28.1086  -16.6537  -16.9100 C   0  0  1  0  0  0  0  0  0  0  0  0
   29.0147  -17.8474  -17.1269 C   0  0  0  0  0  0  0  0  0  0  0  0
   27.2353  -16.9397  -15.7319 C   0  0  0  0  0  0  0  0  0  0  0  0
   26.5932  -18.2977  -15.7757 C   0  0  2  0  0  0  0  0  0  0  0  0
   25.6198  -18.4280  -16.8204 N   0  0  0  0  0  0  0  0  0  0  0  0
   25.9012  -18.4990  -14.4726 C   0  0  0  0  0  0  0  0  0  0  0  0
   25.4029  -17.4797  -13.9241 O   0  0  0  0  0  0  0  0  0  0  0  0
   25.8048  -19.7833  -13.8705 N   0  0  0  0  0  0  0  0  0  0  0  0
   24.9427  -19.9675  -12.7498 C   0  0  1  0  0  0  0  0  0  0  0  0
   23.7089  -20.7123  -13.1848 C   0  0  0  0  0  0  0  0  0  0  0  0
   22.7679  -20.8531  -12.0350 C   0  0  0  0  0  0  0  0  0  0  0  0
   21.5875  -21.6998  -12.3695 C   0  0  0  0  0  0  0  0  0  0  0  0
   20.6100  -21.8542  -11.5950 O   0  0  0  0  0  0  0  0  0  0  0  0
   25.6181  -20.6304  -11.6038 C   0  0  0  0  0  0  0  0  0  0  0  0
   26.2383  -21.7098  -11.7809 O   0  0  0  0  0  0  0  0  0  0  0  0
   21.5504  -22.3558  -13.5904 O   0  0  0  0  0  0  0  0  0  0  0  0
   28.9012  -19.6031   -6.6422 C   0  0  0  0  0  0  0  0  0  0  0  0
   27.8587  -20.4507   -7.2929 C   0  0  0  0  0  0  0  0  0  0  0  0
   27.1282  -19.7694   -8.4211 C   0  0  2  0  0  0  0  0  0  0  0  0
   26.3204  -18.6428   -7.8207 C   0  0  0  0  0  0  0  0  0  0  0  0
   26.1937  -20.7154   -9.1619 C   0  0  2  0  0  0  0  0  0  0  0  0
   25.5729  -20.0542  -10.2912 N   0  0  0  0  0  0  0  0  0  0  0  0
   25.1451  -21.1098   -8.1920 C   0  0  0  0  0  0  0  0  0  0  0  0
   25.3619  -22.0033   -7.1624 O   0  0  0  0  0  0  0  0  0  0  0  0
   24.0025  -20.6076   -8.3111 O   0  0  0  0  0  0  0  0  0  0  0  0
  2  1  1  1
  2  4  1  0
  2  3  1  0
  5  6  1  6
  5  4  1  0
  7  5  1  0
  8  7  2  0
  9  7  1  0
 10  9  1  0
 11 12  1  0
 10 11  1  6
 12 13  1  0
 13 17  1  0
 13 14  2  0
 15 10  1  0
 15 16  2  0
 18 19  1  0
 19 20  1  0
 20 22  1  0
 20 21  1  1
 22 23  1  6
 23 15  1  0
 24 22  1  0
 25 24  1  0
 26 24  2  0
M  END
$$$$
