LEI.pdb
     RDKit          3D

 26 25  0  0  1  0  0  0  0  0999 V2000
   19.4025  -17.9273  -17.0637 C   0  0  0  0  0  0  0  0  0  0  0  0
   20.8629  -17.6481  -16.9051 C   0  0  1  0  0  0  0  0  0  0  0  0
   21.0612  -16.1597  -16.7098 C   0  0  0  0  0  0  0  0  0  0  0  0
   21.4905  -18.3573  -15.7495 C   0  0  0  0  0  0  0  0  0  0  0  0
   22.9506  -18.0473  -15.5755 C   0  0  2  0  0  0  0  0  0  0  0  0
   23.6829  -18.0703  -16.8081 N   0  0  0  0  0  0  0  0  0  0  0  0
   23.5188  -19.0940  -14.6817 C   0  0  0  0  0  0  0  0  0  0  0  0
   22.8703  -19.3702  -13.6371 O   0  0  0  0  0  0  0  0  0  0  0  0
   24.7393  -19.7550  -14.9899 N   0  0  0  0  0  0  0  0  0  0  0  0
   25.2229  -20.7735  -14.1170 C   0  0  1  0  0  0  0  0  0  0  0  0
   25.9855  -21.7963  -14.9158 C   0  0  0  0  0  0  0  0  0  0  0  0
   26.4196  -21.2058  -16.2160 C   0  0  0  0  0  0  0  0  0  0  0  0
   27.6685  -21.8333  -16.7342 C   0  0  0  0  0  0  0  0  0  0  0  0
   28.2640  -22.7695  -16.1443 O   0  0  0  0  0  0  0  0  0  0  0  0
   26.0278  -20.2343  -12.9898 C   0  0  0  0  0  0  0  0  0  0  0  0
   26.5299  -19.0844  -13.0719 O   0  0  0  0  0  0  0  0  0  0  0  0
   28.2129  -21.3735  -17.9235 O   0  0  0  0  0  0  0  0  0  0  0  0
   24.6647  -20.2304   -7.8150 C   0  0  0  0  0  0  0  0  0  0  0  0
   25.3416  -19.9416   -9.1138 C   0  0  0  0  0  0  0  0  0  0  0  0
   26.5497  -20.8012   -9.3823 C   0  0  2  0  0  0  0  0  0  0  0  0
   27.5835  -20.4678   -8.3325 C   0  0  0  0  0  0  0  0  0  0  0  0
   27.1414  -20.5550  -10.7630 C   0  0  2  0  0  0  0  0  0  0  0  0
   26.2418  -21.0105  -11.8028 N   0  0  0  0  0  0  0  0  0  0  0  0
   28.3955  -21.3418  -10.8254 C   0  0  0  0  0  0  0  0  0  0  0  0
   28.4913  -22.5678  -11.4523 O   0  0  0  0  0  0  0  0  0  0  0  0
   29.4228  -20.8715  -10.2817 O   0  0  0  0  0  0  0  0  0  0  0  0
  2  1  1  1
  2  4  1  0
  2  3  1  0
  5  6  1  6
  5  4  1  0
  7  5  1  0
  8  7  2  0
  9  7  1  0
 10  9  1  0
 11 12  1  0
 10 11  1  6
 12 13  1  0
 13 17  1  0
 13 14  2  0
 15 10  1  0
 15 16  2  0
 18 19  1  0
 19 20  1  0
 20 22  1  0
 20 21  1  1
 22 23  1  6
 23 15  1  0
 24 22  1  0
 25 24  1  0
 26 24  2  0
M  END
$$$$
