LEI.pdb
     RDKit          3D

 26 25  0  0  1  0  0  0  0  0999 V2000
   30.2701  -23.0695  -15.9428 C   0  0  0  0  0  0  0  0  0  0  0  0
   29.0989  -22.1948  -16.2574 C   0  0  1  0  0  0  0  0  0  0  0  0
   27.9965  -23.0439  -16.8546 C   0  0  0  0  0  0  0  0  0  0  0  0
   28.5438  -21.4795  -15.0687 C   0  0  0  0  0  0  0  0  0  0  0  0
   27.3829  -20.5828  -15.3953 C   0  0  2  0  0  0  0  0  0  0  0  0
   27.7751  -19.3663  -16.0448 N   0  0  0  0  0  0  0  0  0  0  0  0
   26.7263  -20.2271  -14.1070 C   0  0  0  0  0  0  0  0  0  0  0  0
   27.2929  -19.3547  -13.3959 O   0  0  0  0  0  0  0  0  0  0  0  0
   25.5130  -20.8428  -13.6940 N   0  0  0  0  0  0  0  0  0  0  0  0
   24.8559  -20.3744  -12.5184 C   0  0  1  0  0  0  0  0  0  0  0  0
   23.3737  -20.6016  -12.6497 C   0  0  0  0  0  0  0  0  0  0  0  0
   22.6689  -20.0691  -11.4466 C   0  0  0  0  0  0  0  0  0  0  0  0
   21.2047  -20.3465  -11.4789 C   0  0  0  0  0  0  0  0  0  0  0  0
   20.7242  -21.5077  -11.4711 O   0  0  0  0  0  0  0  0  0  0  0  0
   25.4028  -20.9735  -11.2730 C   0  0  0  0  0  0  0  0  0  0  0  0
   25.6454  -22.2064  -11.2247 O   0  0  0  0  0  0  0  0  0  0  0  0
   20.3159  -19.2832  -11.5197 O   0  0  0  0  0  0  0  0  0  0  0  0
   29.0127  -19.5265   -6.5174 C   0  0  0  0  0  0  0  0  0  0  0  0
   27.9392  -20.3859   -7.0984 C   0  0  0  0  0  0  0  0  0  0  0  0
   27.2470  -19.7823   -8.2930 C   0  0  2  0  0  0  0  0  0  0  0  0
   26.5359  -18.5359   -7.8206 C   0  0  0  0  0  0  0  0  0  0  0  0
   26.2330  -20.7309   -8.9164 C   0  0  2  0  0  0  0  0  0  0  0  0
   25.6596  -20.1619  -10.1187 N   0  0  0  0  0  0  0  0  0  0  0  0
   25.1631  -20.9185   -7.9085 C   0  0  0  0  0  0  0  0  0  0  0  0
   25.2789  -21.7718   -6.8296 O   0  0  0  0  0  0  0  0  0  0  0  0
   24.0981  -20.2702   -8.0407 O   0  0  0  0  0  0  0  0  0  0  0  0
  2  1  1  1
  2  4  1  0
  2  3  1  0
  5  6  1  1
  5  4  1  0
  7  5  1  0
  8  7  2  0
  9  7  1  0
 10  9  1  0
 11 12  1  0
 10 11  1  6
 12 13  1  0
 13 17  1  0
 13 14  2  0
 15 10  1  0
 15 16  2  0
 18 19  1  0
 19 20  1  0
 20 22  1  0
 20 21  1  1
 22 23  1  6
 23 15  1  0
 24 22  1  0
 25 24  1  0
 26 24  2  0
M  END
$$$$
