LEI.pdb
     RDKit          3D

 26 25  0  0  1  0  0  0  0  0999 V2000
   12.9905  -11.1690  -15.7537 C   0  0  0  0  0  0  0  0  0  0  0  0
   14.3522  -11.3248  -15.1561 C   0  0  1  0  0  0  0  0  0  0  0  0
   15.2275  -12.0980  -16.1199 C   0  0  0  0  0  0  0  0  0  0  0  0
   15.0286  -10.0280  -14.8503 C   0  0  0  0  0  0  0  0  0  0  0  0
   16.4176  -10.1901  -14.2999 C   0  0  2  0  0  0  0  0  0  0  0  0
   16.4593  -10.9625  -13.0926 N   0  0  0  0  0  0  0  0  0  0  0  0
   16.9308   -8.8264  -13.9931 C   0  0  0  0  0  0  0  0  0  0  0  0
   16.9226   -7.9857  -14.9318 O   0  0  0  0  0  0  0  0  0  0  0  0
   17.4099   -8.4840  -12.6990 N   0  0  0  0  0  0  0  0  0  0  0  0
   17.9278   -7.1757  -12.4684 C   0  0  1  0  0  0  0  0  0  0  0  0
   17.5193   -6.7106  -11.0963 C   0  0  0  0  0  0  0  0  0  0  0  0
   16.0809   -6.3127  -11.1014 C   0  0  0  0  0  0  0  0  0  0  0  0
   15.5872   -5.9556   -9.7410 C   0  0  0  0  0  0  0  0  0  0  0  0
   15.0343   -4.8588   -9.4758 O   0  0  0  0  0  0  0  0  0  0  0  0
   19.3980   -7.0925  -12.6697 C   0  0  0  0  0  0  0  0  0  0  0  0
   20.1580   -7.9042  -12.0826 O   0  0  0  0  0  0  0  0  0  0  0  0
   15.7374   -6.8665   -8.7066 O   0  0  0  0  0  0  0  0  0  0  0  0
   21.9616   -8.4589  -16.5953 C   0  0  0  0  0  0  0  0  0  0  0  0
   21.6146   -7.9475  -15.2364 C   0  0  0  0  0  0  0  0  0  0  0  0
   21.8407   -6.4682  -15.0597 C   0  0  2  0  0  0  0  0  0  0  0  0
   23.3204   -6.2144  -15.2278 C   0  0  0  0  0  0  0  0  0  0  0  0
   21.4010   -5.9739  -13.6889 C   0  0  2  0  0  0  0  0  0  0  0  0
   19.9665   -6.0942  -13.5285 N   0  0  0  0  0  0  0  0  0  0  0  0
   21.7802   -4.5431  -13.6203 C   0  0  0  0  0  0  0  0  0  0  0  0
   22.9676   -4.0986  -13.0745 O   0  0  0  0  0  0  0  0  0  0  0  0
   20.9834   -3.6916  -14.0809 O   0  0  0  0  0  0  0  0  0  0  0  0
  2  1  1  6
  2  4  1  0
  2  3  1  0
  5  6  1  1
  5  4  1  0
  7  5  1  0
  8  7  2  0
  9  7  1  0
 10  9  1  0
 11 12  1  0
 10 11  1  1
 12 13  1  0
 13 17  1  0
 13 14  2  0
 15 10  1  0
 15 16  2  0
 18 19  1  0
 19 20  1  0
 20 22  1  0
 20 21  1  1
 22 23  1  6
 23 15  1  0
 24 22  1  0
 25 24  1  0
 26 24  2  0
M  END
$$$$
