GSS.pdb
     RDKit          3D

 17 16  0  0  1  0  0  0  0  0999 V2000
    7.5732  -17.1449   17.8367 N   0  0  0  0  0  0  0  0  0  0  0  0
    7.0336  -16.8389   19.1293 C   0  0  0  0  0  0  0  0  0  0  0  0
    8.0393  -16.1041   19.9786 C   0  0  0  0  0  0  0  0  0  0  0  0
    9.2044  -15.9093   19.5523 O   0  0  0  0  0  0  0  0  0  0  0  0
    7.2244  -14.9210   24.1116 O   0  0  0  0  0  0  0  0  0  0  0  0
    7.9689  -14.1682   23.2245 C   0  0  0  0  0  0  0  0  0  0  0  0
    8.5984  -14.9723   22.1300 C   0  0  2  0  0  0  0  0  0  0  0  0
    7.6685  -15.6299   21.2663 N   0  0  0  0  0  0  0  0  0  0  0  0
    9.6603  -15.9012   22.6645 C   0  0  0  0  0  0  0  0  0  0  0  0
    9.3650  -17.0913   22.8941 O   0  0  0  0  0  0  0  0  0  0  0  0
   14.4146  -16.3130   23.6362 O   0  0  0  0  0  0  0  0  0  0  0  0
   13.3106  -15.5366   23.3650 C   0  0  0  0  0  0  0  0  0  0  0  0
   12.0181  -16.3562   23.4322 C   0  0  2  0  0  0  0  0  0  0  0  0
   10.9722  -15.4810   22.9153 N   0  0  0  0  0  0  0  0  0  0  0  0
   11.7957  -16.6836   24.8588 C   0  0  0  0  0  0  0  0  0  0  0  0
   10.9695  -15.9801   25.4947 O   0  0  0  0  0  0  0  0  0  0  0  0
   12.4377  -17.7020   25.5107 O   0  0  0  0  0  0  0  0  0  0  0  0
  1  2  1  0
  2  3  1  0
  3  4  2  0
  5  6  1  0
  7  6  1  1
  7  9  1  0
  8  3  1  0
  8  7  1  0
  9 10  2  0
  9 14  1  0
 11 12  1  0
 13 12  1  1
 14 13  1  0
 15 13  1  0
 15 17  1  0
 16 15  2  0
M  END
$$$$
