GSS.pdb
     RDKit          3D

 17 16  0  0  1  0  0  0  0  0999 V2000
    8.6246  -17.1933   17.4539 N   0  0  0  0  0  0  0  0  0  0  0  0
    7.8216  -16.9612   18.6187 C   0  0  0  0  0  0  0  0  0  0  0  0
    8.6224  -16.2926   19.7071 C   0  0  0  0  0  0  0  0  0  0  0  0
    9.8683  -16.1798   19.5966 O   0  0  0  0  0  0  0  0  0  0  0  0
    6.8736  -15.1898   23.5341 O   0  0  0  0  0  0  0  0  0  0  0  0
    7.8311  -14.4188   22.9042 C   0  0  0  0  0  0  0  0  0  0  0  0
    8.6840  -15.1834   21.9405 C   0  0  2  0  0  0  0  0  0  0  0  0
    7.9659  -15.7881   20.8625 N   0  0  0  0  0  0  0  0  0  0  0  0
    9.5958  -16.1511   22.6535 C   0  0  0  0  0  0  0  0  0  0  0  0
    9.2763  -17.3556   22.7103 O   0  0  0  0  0  0  0  0  0  0  0  0
   13.5684  -16.0822   22.6483 O   0  0  0  0  0  0  0  0  0  0  0  0
   13.0626  -16.0306   23.9276 C   0  0  0  0  0  0  0  0  0  0  0  0
   11.6648  -16.6530   24.0037 C   0  0  2  0  0  0  0  0  0  0  0  0
   10.7938  -15.7515   23.2583 N   0  0  0  0  0  0  0  0  0  0  0  0
   11.2977  -16.7002   25.4371 C   0  0  0  0  0  0  0  0  0  0  0  0
   10.3516  -15.9648   25.8194 O   0  0  0  0  0  0  0  0  0  0  0  0
   11.9302  -17.4954   26.3547 O   0  0  0  0  0  0  0  0  0  0  0  0
  1  2  1  0
  2  3  1  0
  3  4  2  0
  5  6  1  0
  7  6  1  1
  7  9  1  0
  8  3  1  0
  8  7  1  0
  9 10  2  0
  9 14  1  0
 11 12  1  0
 13 12  1  1
 14 13  1  0
 15 13  1  0
 15 17  1  0
 16 15  2  0
M  END
$$$$
