GSS.pdb
     RDKit          3D

 17 16  0  0  1  0  0  0  0  0999 V2000
    7.2967  -18.2180   17.6193 N   0  0  0  0  0  0  0  0  0  0  0  0
    6.7505  -17.7110   18.8441 C   0  0  0  0  0  0  0  0  0  0  0  0
    7.7838  -16.9345   19.6201 C   0  0  0  0  0  0  0  0  0  0  0  0
    8.9756  -16.8989   19.2255 O   0  0  0  0  0  0  0  0  0  0  0  0
    6.8970  -15.0241   23.4332 O   0  0  0  0  0  0  0  0  0  0  0  0
    7.7143  -14.4585   22.4739 C   0  0  0  0  0  0  0  0  0  0  0  0
    8.3410  -15.4558   21.5502 C   0  0  2  0  0  0  0  0  0  0  0  0
    7.4088  -16.2400   20.8022 N   0  0  0  0  0  0  0  0  0  0  0  0
    9.3768  -16.2935   22.2584 C   0  0  0  0  0  0  0  0  0  0  0  0
    9.0777  -17.4492   22.6203 O   0  0  0  0  0  0  0  0  0  0  0  0
   13.3833  -16.0420   21.6650 O   0  0  0  0  0  0  0  0  0  0  0  0
   13.0060  -15.8947   22.9807 C   0  0  0  0  0  0  0  0  0  0  0  0
   11.6702  -16.5899   23.2624 C   0  0  2  0  0  0  0  0  0  0  0  0
   10.6685  -15.8253   22.5282 N   0  0  0  0  0  0  0  0  0  0  0  0
   11.4493  -16.5105   24.7241 C   0  0  0  0  0  0  0  0  0  0  0  0
   10.5602  -15.7218   25.1357 O   0  0  0  0  0  0  0  0  0  0  0  0
   12.1570  -17.2448   25.6376 O   0  0  0  0  0  0  0  0  0  0  0  0
  1  2  1  0
  2  3  1  0
  3  4  2  0
  5  6  1  0
  7  6  1  1
  7  9  1  0
  8  3  1  0
  8  7  1  0
  9 10  2  0
  9 14  1  0
 11 12  1  0
 13 12  1  1
 14 13  1  0
 15 13  1  0
 15 17  1  0
 16 15  2  0
M  END
$$$$
