GSS.pdb
     RDKit          3D

 17 16  0  0  1  0  0  0  0  0999 V2000
    7.5409  -17.5764   17.8568 N   0  0  0  0  0  0  0  0  0  0  0  0
    6.8857  -16.7726   18.8469 C   0  0  0  0  0  0  0  0  0  0  0  0
    7.8655  -16.2749   19.8789 C   0  0  0  0  0  0  0  0  0  0  0  0
    9.0615  -16.6569   19.8509 O   0  0  0  0  0  0  0  0  0  0  0  0
    6.7112  -13.8930   23.3955 O   0  0  0  0  0  0  0  0  0  0  0  0
    7.8292  -13.6635   22.6174 C   0  0  0  0  0  0  0  0  0  0  0  0
    8.3218  -14.8784   21.8948 C   0  0  2  0  0  0  0  0  0  0  0  0
    7.4350  -15.3704   20.8874 N   0  0  0  0  0  0  0  0  0  0  0  0
    8.7707  -15.9514   22.8558 C   0  0  0  0  0  0  0  0  0  0  0  0
    7.9241  -16.7390   23.3237 O   0  0  0  0  0  0  0  0  0  0  0  0
   11.9893  -17.8418   22.3274 O   0  0  0  0  0  0  0  0  0  0  0  0
   11.0566  -18.2859   23.2374 C   0  0  0  0  0  0  0  0  0  0  0  0
   10.5745  -17.1505   24.1459 C   0  0  2  0  0  0  0  0  0  0  0  0
   10.1067  -16.1015   23.2470 N   0  0  0  0  0  0  0  0  0  0  0  0
   11.7479  -16.7075   24.9324 C   0  0  0  0  0  0  0  0  0  0  0  0
   12.1995  -15.5560   24.7044 O   0  0  0  0  0  0  0  0  0  0  0  0
   12.3574  -17.4811   25.8835 O   0  0  0  0  0  0  0  0  0  0  0  0
  1  2  1  0
  2  3  1  0
  3  4  2  0
  5  6  1  0
  7  6  1  1
  7  9  1  0
  8  3  1  0
  8  7  1  0
  9 10  2  0
  9 14  1  0
 11 12  1  0
 13 12  1  6
 14 13  1  0
 15 13  1  0
 15 17  1  0
 16 15  2  0
M  END
$$$$
