GSS.pdb
     RDKit          3D

 17 16  0  0  1  0  0  0  0  0999 V2000
    7.6484  -16.0835   18.6821 N   0  0  0  0  0  0  0  0  0  0  0  0
    6.9557  -15.6687   19.8668 C   0  0  0  0  0  0  0  0  0  0  0  0
    7.9227  -15.3474   20.9779 C   0  0  0  0  0  0  0  0  0  0  0  0
    9.1427  -15.6174   20.8518 O   0  0  0  0  0  0  0  0  0  0  0  0
    6.6139  -13.9701   24.9439 O   0  0  0  0  0  0  0  0  0  0  0  0
    7.7791  -13.5730   24.3174 C   0  0  0  0  0  0  0  0  0  0  0  0
    8.2926  -14.5597   23.3157 C   0  0  2  0  0  0  0  0  0  0  0  0
    7.4528  -14.7369   22.1726 N   0  0  0  0  0  0  0  0  0  0  0  0
    8.6772  -15.8643   23.9687 C   0  0  0  0  0  0  0  0  0  0  0  0
    7.8147  -16.7568   24.0944 O   0  0  0  0  0  0  0  0  0  0  0  0
   12.5361  -16.8409   24.1820 O   0  0  0  0  0  0  0  0  0  0  0  0
   11.6044  -17.8455   24.3154 C   0  0  0  0  0  0  0  0  0  0  0  0
   10.3683  -17.3658   25.0828 C   0  0  2  0  0  0  0  0  0  0  0  0
    9.9701  -16.1173   24.4428 N   0  0  0  0  0  0  0  0  0  0  0  0
   10.7959  -17.1454   26.4829 C   0  0  0  0  0  0  0  0  0  0  0  0
   11.1549  -18.1518   27.1464 O   0  0  0  0  0  0  0  0  0  0  0  0
   10.8192  -15.9148   27.0825 O   0  0  0  0  0  0  0  0  0  0  0  0
  1  2  1  0
  2  3  1  0
  3  4  2  0
  5  6  1  0
  7  6  1  1
  7  9  1  0
  8  3  1  0
  8  7  1  0
  9 10  2  0
  9 14  1  0
 11 12  1  0
 13 12  1  6
 14 13  1  0
 15 13  1  0
 15 17  1  0
 16 15  2  0
M  END
$$$$
