GSS.pdb
     RDKit          3D

 17 16  0  0  1  0  0  0  0  0999 V2000
    6.3397  -22.2728   18.9262 N   0  0  0  0  0  0  0  0  0  0  0  0
    5.8449  -21.6907   20.1393 C   0  0  0  0  0  0  0  0  0  0  0  0
    6.9768  -21.2522   21.0334 C   0  0  0  0  0  0  0  0  0  0  0  0
    8.1525  -21.6218   20.7921 O   0  0  0  0  0  0  0  0  0  0  0  0
    6.4065  -18.4762   24.3507 O   0  0  0  0  0  0  0  0  0  0  0  0
    7.5671  -18.6325   23.6184 C   0  0  0  0  0  0  0  0  0  0  0  0
    7.7447  -20.0077   23.0543 C   0  0  2  0  0  0  0  0  0  0  0  0
    6.7132  -20.4177   22.1536 N   0  0  0  0  0  0  0  0  0  0  0  0
    8.0136  -21.0217   24.1386 C   0  0  0  0  0  0  0  0  0  0  0  0
    7.0549  -21.6454   24.6366 O   0  0  0  0  0  0  0  0  0  0  0  0
   11.8920  -21.8673   25.0926 O   0  0  0  0  0  0  0  0  0  0  0  0
   10.9576  -22.8505   25.3284 C   0  0  0  0  0  0  0  0  0  0  0  0
    9.5897  -22.2531   25.6732 C   0  0  2  0  0  0  0  0  0  0  0  0
    9.3026  -21.2941   24.6127 N   0  0  0  0  0  0  0  0  0  0  0  0
    9.7366  -21.5833   26.9853 C   0  0  0  0  0  0  0  0  0  0  0  0
    9.6365  -20.3298   27.0125 O   0  0  0  0  0  0  0  0  0  0  0  0
    9.9730  -22.2539   28.1553 O   0  0  0  0  0  0  0  0  0  0  0  0
  1  2  1  0
  2  3  1  0
  3  4  2  0
  5  6  1  0
  7  6  1  1
  7  9  1  0
  8  3  1  0
  8  7  1  0
  9 10  2  0
  9 14  1  0
 11 12  1  0
 13 12  1  6
 14 13  1  0
 15 13  1  0
 15 17  1  0
 16 15  2  0
M  END
$$$$
