GSS.pdb
     RDKit          3D

 17 16  0  0  1  0  0  0  0  0999 V2000
    8.4901  -13.4443   16.4939 N   0  0  0  0  0  0  0  0  0  0  0  0
    8.1280  -14.6411   17.1955 C   0  0  0  0  0  0  0  0  0  0  0  0
    7.8476  -14.3557   18.6490 C   0  0  0  0  0  0  0  0  0  0  0  0
    8.1912  -13.2592   19.1556 O   0  0  0  0  0  0  0  0  0  0  0  0
    5.4938  -17.0644   21.1883 O   0  0  0  0  0  0  0  0  0  0  0  0
    5.4554  -15.6840   21.1585 C   0  0  0  0  0  0  0  0  0  0  0  0
    6.7592  -15.0516   20.7829 C   0  0  2  0  0  0  0  0  0  0  0  0
    7.1921  -15.3305   19.4495 N   0  0  0  0  0  0  0  0  0  0  0  0
    7.8256  -15.3241   21.8148 C   0  0  0  0  0  0  0  0  0  0  0  0
    8.7562  -16.1056   21.5331 O   0  0  0  0  0  0  0  0  0  0  0  0
    7.1570  -13.8817   25.4893 O   0  0  0  0  0  0  0  0  0  0  0  0
    8.5034  -14.0562   25.2615 C   0  0  0  0  0  0  0  0  0  0  0  0
    8.7561  -15.0737   24.1444 C   0  0  2  0  0  0  0  0  0  0  0  0
    7.8148  -14.7327   23.0839 N   0  0  0  0  0  0  0  0  0  0  0  0
    8.4710  -16.4101   24.7139 C   0  0  0  0  0  0  0  0  0  0  0  0
    7.4500  -17.0143   24.2961 O   0  0  0  0  0  0  0  0  0  0  0  0
    9.2549  -17.0122   25.6612 O   0  0  0  0  0  0  0  0  0  0  0  0
  1  2  1  0
  2  3  1  0
  3  4  2  0
  5  6  1  0
  7  6  1  1
  7  9  1  0
  8  3  1  0
  8  7  1  0
  9 10  2  0
  9 14  1  0
 11 12  1  0
 13 12  1  1
 14 13  1  0
 15 13  1  0
 15 17  1  0
 16 15  2  0
M  END
$$$$
