GSS.pdb
     RDKit          3D

 17 16  0  0  1  0  0  0  0  0999 V2000
    8.6543  -14.5278   14.0522 N   0  0  0  0  0  0  0  0  0  0  0  0
    7.8846  -14.4610   15.2600 C   0  0  0  0  0  0  0  0  0  0  0  0
    8.7524  -14.0998   16.4387 C   0  0  0  0  0  0  0  0  0  0  0  0
   10.0035  -14.1472   16.3406 O   0  0  0  0  0  0  0  0  0  0  0  0
    7.1993  -13.6351   20.5084 O   0  0  0  0  0  0  0  0  0  0  0  0
    8.1612  -12.8097   19.9594 C   0  0  0  0  0  0  0  0  0  0  0  0
    8.9274  -13.4382   18.8374 C   0  0  2  0  0  0  0  0  0  0  0  0
    8.1533  -13.7041   17.6655 N   0  0  0  0  0  0  0  0  0  0  0  0
    9.7132  -14.6379   19.3060 C   0  0  0  0  0  0  0  0  0  0  0  0
    9.2203  -15.7759   19.1710 O   0  0  0  0  0  0  0  0  0  0  0  0
   13.6443  -14.1657   20.2727 O   0  0  0  0  0  0  0  0  0  0  0  0
   13.1970  -15.4000   19.8584 C   0  0  0  0  0  0  0  0  0  0  0  0
   11.7679  -15.6695   20.3401 C   0  0  2  0  0  0  0  0  0  0  0  0
   10.9810  -14.5271   19.8898 N   0  0  0  0  0  0  0  0  0  0  0  0
   11.8236  -15.7413   21.8178 C   0  0  0  0  0  0  0  0  0  0  0  0
   12.5268  -16.6498   22.3296 O   0  0  0  0  0  0  0  0  0  0  0  0
   11.1550  -14.8776   22.6433 O   0  0  0  0  0  0  0  0  0  0  0  0
  1  2  1  0
  2  3  1  0
  3  4  2  0
  5  6  1  0
  7  6  1  1
  7  9  1  0
  8  3  1  0
  8  7  1  0
  9 10  2  0
  9 14  1  0
 11 12  1  0
 13 12  1  6
 14 13  1  0
 15 13  1  0
 15 17  1  0
 16 15  2  0
M  END
$$$$
