NSW.pdb
     RDKit          3D

 29 30  0  0  1  0  0  0  0  0999 V2000
   16.5293   -6.3468  -22.4082 N   0  0  0  0  0  0  0  0  0  0  0  0
   17.2169   -7.3496  -21.6803 C   0  0  0  0  0  0  0  0  0  0  0  0
   16.7456   -8.4919  -21.5153 O   0  0  0  0  0  0  0  0  0  0  0  0
   18.5413   -7.0137  -21.1002 C   0  0  0  0  0  0  0  0  0  0  0  0
   18.8272   -5.5543  -21.4577 C   0  0  2  0  0  0  0  0  0  0  0  0
   19.5010   -5.4677  -22.7372 N   0  0  0  0  0  0  0  0  0  0  0  0
   19.7095   -5.0196  -20.4109 C   0  0  0  0  0  0  0  0  0  0  0  0
   20.8778   -5.4958  -20.2958 O   0  0  0  0  0  0  0  0  0  0  0  0
   18.4309   -2.1738  -17.8403 O   0  0  0  0  0  0  0  0  0  0  0  0
   19.7902   -2.1111  -18.0768 C   0  0  0  0  0  0  0  0  0  0  0  0
   20.2320   -3.5057  -18.5431 C   0  0  2  0  0  0  0  0  0  0  0  0
   19.3000   -3.9766  -19.5111 N   0  0  0  0  0  0  0  0  0  0  0  0
   20.2912   -4.3489  -17.3248 C   0  0  0  0  0  0  0  0  0  0  0  0
   19.2911   -5.0624  -17.0154 O   0  0  0  0  0  0  0  0  0  0  0  0
   21.4317   -4.3918  -16.4821 N   0  0  0  0  0  0  0  0  0  0  0  0
   21.4718   -5.1942  -15.2547 C   0  0  1  0  0  0  0  0  0  0  0  0
   22.8711   -5.7292  -15.1683 C   0  0  0  0  0  0  0  0  0  0  0  0
   23.0064   -7.1538  -14.8622 C   0  0  0  0  0  0  0  0  0  0  0  0
   23.7847   -8.0621  -15.5948 C   0  0  0  0  0  0  0  0  0  0  0  0
   23.6211   -9.2538  -15.0322 N   0  0  0  0  0  0  0  0  0  0  0  0
   22.7869   -9.1750  -13.9805 C   0  0  0  0  0  0  0  0  0  0  0  0
   22.3224  -10.1001  -13.0800 C   0  0  0  0  0  0  0  0  0  0  0  0
   21.4714   -9.7760  -12.0483 C   0  0  0  0  0  0  0  0  0  0  0  0
   21.0850   -8.4564  -11.9391 C   0  0  0  0  0  0  0  0  0  0  0  0
   21.5287   -7.5017  -12.8223 C   0  0  0  0  0  0  0  0  0  0  0  0
   22.3849   -7.8517  -13.8542 C   0  0  0  0  0  0  0  0  0  0  0  0
   21.0928   -4.4555  -14.0552 C   0  0  0  0  0  0  0  0  0  0  0  0
   21.4696   -3.1276  -13.8475 O   0  0  0  0  0  0  0  0  0  0  0  0
   20.4071   -5.0070  -13.1675 O   0  0  0  0  0  0  0  0  0  0  0  0
  1  2  1  0
  2  4  1  0
  3  2  2  0
  4  5  1  0
  5  6  1  6
  7  5  1  0
  8  7  2  0
  9 10  1  0
 11 10  1  1
 11 13  1  0
 11 12  1  0
 12  7  1  0
 13 14  2  0
 15 16  1  0
 15 13  1  0
 16 17  1  1
 17 18  1  0
 18 26  1  0
 19 20  1  0
 19 18  2  0
 20 21  1  0
 21 26  2  0
 21 22  1  0
 22 23  2  0
 24 23  1  0
 25 24  2  0
 26 25  1  0
 27 28  1  0
 27 16  1  0
 29 27  2  0
M  END
$$$$
