NSW.pdb
     RDKit          3D

 29 30  0  0  1  0  0  0  0  0999 V2000
   28.7052  -23.8759  -19.4187 N   0  0  0  0  0  0  0  0  0  0  0  0
   27.4945  -23.1478  -19.3070 C   0  0  0  0  0  0  0  0  0  0  0  0
   26.4767  -23.4466  -19.9618 O   0  0  0  0  0  0  0  0  0  0  0  0
   27.4523  -21.9928  -18.3755 C   0  0  0  0  0  0  0  0  0  0  0  0
   28.8182  -21.9225  -17.6907 C   0  0  2  0  0  0  0  0  0  0  0  0
   29.4538  -23.2242  -17.6909 N   0  0  0  0  0  0  0  0  0  0  0  0
   28.5825  -21.5013  -16.3025 C   0  0  0  0  0  0  0  0  0  0  0  0
   28.9580  -22.2624  -15.3618 O   0  0  0  0  0  0  0  0  0  0  0  0
   26.5450  -18.1228  -15.4284 O   0  0  0  0  0  0  0  0  0  0  0  0
   27.5586  -18.3755  -14.5249 C   0  0  0  0  0  0  0  0  0  0  0  0
   27.8644  -19.8784  -14.5983 C   0  0  2  0  0  0  0  0  0  0  0  0
   27.9422  -20.2589  -15.9682 N   0  0  0  0  0  0  0  0  0  0  0  0
   26.7730  -20.5584  -13.8601 C   0  0  0  0  0  0  0  0  0  0  0  0
   25.7396  -20.9348  -14.4891 O   0  0  0  0  0  0  0  0  0  0  0  0
   26.8368  -20.8087  -12.4651 N   0  0  0  0  0  0  0  0  0  0  0  0
   25.7831  -21.5353  -11.7483 C   0  0  1  0  0  0  0  0  0  0  0  0
   26.4133  -22.0012  -10.4688 C   0  0  0  0  0  0  0  0  0  0  0  0
   26.5593  -20.9997   -9.4117 C   0  0  0  0  0  0  0  0  0  0  0  0
   25.6318  -19.9849   -9.1336 C   0  0  0  0  0  0  0  0  0  0  0  0
   26.1342  -19.2635   -8.1382 N   0  0  0  0  0  0  0  0  0  0  0  0
   27.3282  -19.7475   -7.7530 C   0  0  0  0  0  0  0  0  0  0  0  0
   28.2208  -19.3770   -6.7790 C   0  0  0  0  0  0  0  0  0  0  0  0
   29.3978  -20.0518   -6.5492 C   0  0  0  0  0  0  0  0  0  0  0  0
   29.6661  -21.1441   -7.3477 C   0  0  0  0  0  0  0  0  0  0  0  0
   28.7968  -21.5448   -8.3337 C   0  0  0  0  0  0  0  0  0  0  0  0
   27.6174  -20.8493   -8.5474 C   0  0  0  0  0  0  0  0  0  0  0  0
   24.5800  -20.7452  -11.5103 C   0  0  0  0  0  0  0  0  0  0  0  0
   23.3361  -21.3337  -11.2761 O   0  0  0  0  0  0  0  0  0  0  0  0
   24.6374  -19.4966  -11.5105 O   0  0  0  0  0  0  0  0  0  0  0  0
  1  2  1  0
  2  4  1  0
  3  2  2  0
  4  5  1  0
  5  6  1  1
  7  5  1  0
  8  7  2  0
  9 10  1  0
 11 10  1  6
 11 13  1  0
 11 12  1  0
 12  7  1  0
 13 14  2  0
 15 16  1  0
 15 13  1  0
 16 17  1  1
 17 18  1  0
 18 26  1  0
 19 20  1  0
 19 18  2  0
 20 21  1  0
 21 26  2  0
 21 22  1  0
 22 23  2  0
 24 23  1  0
 25 24  2  0
 26 25  1  0
 27 28  1  0
 27 16  1  0
 29 27  2  0
M  END
$$$$
