NSW.pdb
     RDKit          3D

 29 30  0  0  1  0  0  0  0  0999 V2000
   14.2405  -15.5618  -17.7100 N   0  0  0  0  0  0  0  0  0  0  0  0
   14.4477  -14.2200  -18.1161 C   0  0  0  0  0  0  0  0  0  0  0  0
   13.6884  -13.6445  -18.9202 O   0  0  0  0  0  0  0  0  0  0  0  0
   15.6121  -13.4884  -17.5576 C   0  0  0  0  0  0  0  0  0  0  0  0
   16.3540  -12.8625  -18.7398 C   0  0  2  0  0  0  0  0  0  0  0  0
   17.1040  -13.8710  -19.4600 N   0  0  0  0  0  0  0  0  0  0  0  0
   17.2873  -11.8712  -18.1862 C   0  0  0  0  0  0  0  0  0  0  0  0
   18.2387  -12.2724  -17.4520 O   0  0  0  0  0  0  0  0  0  0  0  0
   16.7783   -7.8494  -18.7066 O   0  0  0  0  0  0  0  0  0  0  0  0
   18.0966   -8.2607  -18.6858 C   0  0  0  0  0  0  0  0  0  0  0  0
   18.1448   -9.5822  -17.9056 C   0  0  2  0  0  0  0  0  0  0  0  0
   17.1641  -10.4629  -18.4442 N   0  0  0  0  0  0  0  0  0  0  0  0
   17.9042   -9.2321  -16.4850 C   0  0  0  0  0  0  0  0  0  0  0  0
   16.7382   -9.3553  -16.0050 O   0  0  0  0  0  0  0  0  0  0  0  0
   18.9342   -8.7604  -15.6310 N   0  0  0  0  0  0  0  0  0  0  0  0
   18.6657   -8.2601  -14.2784 C   0  0  1  0  0  0  0  0  0  0  0  0
   19.9316   -8.4877  -13.5057 C   0  0  0  0  0  0  0  0  0  0  0  0
   20.0929   -7.7113  -12.2758 C   0  0  0  0  0  0  0  0  0  0  0  0
   19.4526   -7.9914  -11.0596 C   0  0  0  0  0  0  0  0  0  0  0  0
   19.8223   -7.0480  -10.2012 N   0  0  0  0  0  0  0  0  0  0  0  0
   20.6628   -6.1749  -10.7840 C   0  0  0  0  0  0  0  0  0  0  0  0
   21.3232   -5.0617  -10.3287 C   0  0  0  0  0  0  0  0  0  0  0  0
   22.1690   -4.3193  -11.1206 C   0  0  0  0  0  0  0  0  0  0  0  0
   22.3413   -4.7354  -12.4244 C   0  0  0  0  0  0  0  0  0  0  0  0
   21.6964   -5.8447  -12.9163 C   0  0  0  0  0  0  0  0  0  0  0  0
   20.8486   -6.5766  -12.1003 C   0  0  0  0  0  0  0  0  0  0  0  0
   18.2437   -6.8642  -14.2395 C   0  0  0  0  0  0  0  0  0  0  0  0
   18.7190   -5.9163  -15.1473 O   0  0  0  0  0  0  0  0  0  0  0  0
   17.4294   -6.4773  -13.3737 O   0  0  0  0  0  0  0  0  0  0  0  0
  1  2  1  0
  2  4  1  0
  3  2  2  0
  4  5  1  0
  5  6  1  1
  7  5  1  0
  8  7  2  0
  9 10  1  0
 11 10  1  6
 11 13  1  0
 11 12  1  0
 12  7  1  0
 13 14  2  0
 15 16  1  0
 15 13  1  0
 16 17  1  1
 17 18  1  0
 18 26  1  0
 19 20  1  0
 19 18  2  0
 20 21  1  0
 21 26  2  0
 21 22  1  0
 22 23  2  0
 24 23  1  0
 25 24  2  0
 26 25  1  0
 27 28  1  0
 27 16  1  0
 29 27  2  0
M  END
$$$$
