NSW.pdb
     RDKit          3D

 29 30  0  0  1  0  0  0  0  0999 V2000
   27.6001  -17.6171  -17.2753 N   0  0  0  0  0  0  0  0  0  0  0  0
   27.5983  -16.7166  -16.1811 C   0  0  0  0  0  0  0  0  0  0  0  0
   28.4150  -15.7790  -16.0910 O   0  0  0  0  0  0  0  0  0  0  0  0
   26.5846  -16.9091  -15.1141 C   0  0  0  0  0  0  0  0  0  0  0  0
   25.8287  -18.1971  -15.4447 C   0  0  2  0  0  0  0  0  0  0  0  0
   24.7319  -17.9237  -16.3506 N   0  0  0  0  0  0  0  0  0  0  0  0
   25.2910  -18.7174  -14.1796 C   0  0  0  0  0  0  0  0  0  0  0  0
   25.0190  -17.9004  -13.2503 O   0  0  0  0  0  0  0  0  0  0  0  0
   25.0462  -22.7169  -13.3715 O   0  0  0  0  0  0  0  0  0  0  0  0
   24.0180  -21.9697  -12.8309 C   0  0  0  0  0  0  0  0  0  0  0  0
   24.5294  -20.5280  -12.6980 C   0  0  2  0  0  0  0  0  0  0  0  0
   25.0609  -20.1179  -13.9537 N   0  0  0  0  0  0  0  0  0  0  0  0
   25.5370  -20.5459  -11.6103 C   0  0  0  0  0  0  0  0  0  0  0  0
   26.7684  -20.5797  -11.9063 O   0  0  0  0  0  0  0  0  0  0  0  0
   25.1778  -20.5261  -10.2380 N   0  0  0  0  0  0  0  0  0  0  0  0
   26.0641  -21.0367   -9.1865 C   0  0  1  0  0  0  0  0  0  0  0  0
   27.0552  -19.9403   -8.9270 C   0  0  0  0  0  0  0  0  0  0  0  0
   28.1143  -20.2345   -7.9609 C   0  0  0  0  0  0  0  0  0  0  0  0
   29.1699  -21.1330   -8.1754 C   0  0  0  0  0  0  0  0  0  0  0  0
   29.8939  -21.1524   -7.0624 N   0  0  0  0  0  0  0  0  0  0  0  0
   29.3750  -20.3222   -6.1405 C   0  0  0  0  0  0  0  0  0  0  0  0
   29.7533  -19.9803   -4.8668 C   0  0  0  0  0  0  0  0  0  0  0  0
   29.0619  -19.0692   -4.1016 C   0  0  0  0  0  0  0  0  0  0  0  0
   27.9439  -18.4903   -4.6652 C   0  0  0  0  0  0  0  0  0  0  0  0
   27.5336  -18.8080   -5.9376 C   0  0  0  0  0  0  0  0  0  0  0  0
   28.2455  -19.7292   -6.6894 C   0  0  0  0  0  0  0  0  0  0  0  0
   25.3650  -21.4418   -7.9719 C   0  0  0  0  0  0  0  0  0  0  0  0
   25.8514  -22.4442   -7.1310 O   0  0  0  0  0  0  0  0  0  0  0  0
   24.2916  -20.8882   -7.6498 O   0  0  0  0  0  0  0  0  0  0  0  0
  1  2  1  0
  2  4  1  0
  3  2  2  0
  4  5  1  0
  5  6  1  6
  7  5  1  0
  8  7  2  0
  9 10  1  0
 11 10  1  6
 11 13  1  0
 11 12  1  0
 12  7  1  0
 13 14  2  0
 15 16  1  0
 15 13  1  0
 16 17  1  1
 17 18  1  0
 18 26  1  0
 19 20  1  0
 19 18  2  0
 20 21  1  0
 21 26  2  0
 21 22  1  0
 22 23  2  0
 24 23  1  0
 25 24  2  0
 26 25  1  0
 27 28  1  0
 27 16  1  0
 29 27  2  0
M  END
$$$$
