NSW.pdb
     RDKit          3D

 29 30  0  0  1  0  0  0  0  0999 V2000
   23.4449  -16.1669  -19.7846 N   0  0  0  0  0  0  0  0  0  0  0  0
   22.4263  -15.2320  -19.4733 C   0  0  0  0  0  0  0  0  0  0  0  0
   21.2815  -15.5866  -19.1303 O   0  0  0  0  0  0  0  0  0  0  0  0
   22.7481  -13.7858  -19.5638 C   0  0  0  0  0  0  0  0  0  0  0  0
   21.5956  -13.1192  -20.3168 C   0  0  2  0  0  0  0  0  0  0  0  0
   21.6799  -13.4089  -21.7336 N   0  0  0  0  0  0  0  0  0  0  0  0
   21.7290  -11.6698  -20.1122 C   0  0  0  0  0  0  0  0  0  0  0  0
   22.5669  -11.0292  -20.8142 O   0  0  0  0  0  0  0  0  0  0  0  0
   18.7649   -9.4269  -19.2231 O   0  0  0  0  0  0  0  0  0  0  0  0
   19.9105   -8.8663  -19.7532 C   0  0  0  0  0  0  0  0  0  0  0  0
   21.1043   -9.5364  -19.0580 C   0  0  2  0  0  0  0  0  0  0  0  0
   20.9464  -10.9486  -19.1466 N   0  0  0  0  0  0  0  0  0  0  0  0
   21.1071   -9.0311  -17.6639 C   0  0  0  0  0  0  0  0  0  0  0  0
   20.3581   -9.5818  -16.8033 O   0  0  0  0  0  0  0  0  0  0  0  0
   21.9214   -7.9463  -17.2479 N   0  0  0  0  0  0  0  0  0  0  0  0
   21.8644   -7.3974  -15.8887 C   0  0  1  0  0  0  0  0  0  0  0  0
   23.2918   -7.2787  -15.4416 C   0  0  0  0  0  0  0  0  0  0  0  0
   23.9986   -8.5327  -15.1778 C   0  0  0  0  0  0  0  0  0  0  0  0
   23.5152   -9.5720  -14.3693 C   0  0  0  0  0  0  0  0  0  0  0  0
   24.4518  -10.5132  -14.3478 N   0  0  0  0  0  0  0  0  0  0  0  0
   25.5111  -10.1500  -15.0922 C   0  0  0  0  0  0  0  0  0  0  0  0
   26.6985  -10.7658  -15.3978 C   0  0  0  0  0  0  0  0  0  0  0  0
   27.6454  -10.1965  -16.2182 C   0  0  0  0  0  0  0  0  0  0  0  0
   27.3617   -8.9523  -16.7418 C   0  0  0  0  0  0  0  0  0  0  0  0
   26.1837   -8.3043  -16.4580 C   0  0  0  0  0  0  0  0  0  0  0  0
   25.2450   -8.8969  -15.6284 C   0  0  0  0  0  0  0  0  0  0  0  0
   21.1538   -6.1268  -15.7957 C   0  0  0  0  0  0  0  0  0  0  0  0
   20.8210   -5.5468  -14.5705 O   0  0  0  0  0  0  0  0  0  0  0  0
   20.8201   -5.5155  -16.8337 O   0  0  0  0  0  0  0  0  0  0  0  0
  1  2  1  0
  2  4  1  0
  3  2  2  0
  4  5  1  0
  5  6  1  6
  7  5  1  0
  8  7  2  0
  9 10  1  0
 11 10  1  6
 11 13  1  0
 11 12  1  0
 12  7  1  0
 13 14  2  0
 15 16  1  0
 15 13  1  0
 16 17  1  6
 17 18  1  0
 18 26  1  0
 19 20  1  0
 19 18  2  0
 20 21  1  0
 21 26  2  0
 21 22  1  0
 22 23  2  0
 24 23  1  0
 25 24  2  0
 26 25  1  0
 27 28  1  0
 27 16  1  0
 29 27  2  0
M  END
$$$$
