NSW.pdb
     RDKit          3D

 29 30  0  0  1  0  0  0  0  0999 V2000
   28.3885  -23.6026  -17.8174 N   0  0  0  0  0  0  0  0  0  0  0  0
   29.2894  -23.3519  -16.7525 C   0  0  0  0  0  0  0  0  0  0  0  0
   30.2784  -24.0787  -16.5340 O   0  0  0  0  0  0  0  0  0  0  0  0
   29.0335  -22.1815  -15.8762 C   0  0  0  0  0  0  0  0  0  0  0  0
   27.6875  -21.5922  -16.3014 C   0  0  2  0  0  0  0  0  0  0  0  0
   27.8506  -20.7381  -17.4600 N   0  0  0  0  0  0  0  0  0  0  0  0
   27.1947  -20.7875  -15.1746 C   0  0  0  0  0  0  0  0  0  0  0  0
   27.8051  -19.7183  -14.8754 O   0  0  0  0  0  0  0  0  0  0  0  0
   23.4685  -21.1295  -13.7485 O   0  0  0  0  0  0  0  0  0  0  0  0
   24.1541  -19.9465  -13.5535 C   0  0  0  0  0  0  0  0  0  0  0  0
   25.6299  -20.3107  -13.3368 C   0  0  2  0  0  0  0  0  0  0  0  0
   26.0466  -21.1648  -14.3971 N   0  0  0  0  0  0  0  0  0  0  0  0
   25.7056  -20.9508  -12.0015 C   0  0  0  0  0  0  0  0  0  0  0  0
   25.4440  -22.1854  -11.8900 O   0  0  0  0  0  0  0  0  0  0  0  0
   26.0623  -20.2329  -10.8310 N   0  0  0  0  0  0  0  0  0  0  0  0
   25.9289  -20.8055   -9.4870 C   0  0  1  0  0  0  0  0  0  0  0  0
   26.7229  -19.9066   -8.5852 C   0  0  0  0  0  0  0  0  0  0  0  0
   26.7919  -20.2938   -7.1756 C   0  0  0  0  0  0  0  0  0  0  0  0
   25.9252  -21.2013   -6.5489 C   0  0  0  0  0  0  0  0  0  0  0  0
   26.2834  -21.2595   -5.2715 N   0  0  0  0  0  0  0  0  0  0  0  0
   27.3283  -20.4479   -5.0311 C   0  0  0  0  0  0  0  0  0  0  0  0
   28.0617  -20.1711   -3.9049 C   0  0  0  0  0  0  0  0  0  0  0  0
   29.1269  -19.3000   -3.9030 C   0  0  0  0  0  0  0  0  0  0  0  0
   29.4488  -18.6931   -5.0992 C   0  0  0  0  0  0  0  0  0  0  0  0
   28.7372  -18.9446   -6.2475 C   0  0  0  0  0  0  0  0  0  0  0  0
   27.6675  -19.8254   -6.2252 C   0  0  0  0  0  0  0  0  0  0  0  0
   24.5471  -20.9465   -9.0411 C   0  0  0  0  0  0  0  0  0  0  0  0
   24.1382  -21.9800   -8.1967 O   0  0  0  0  0  0  0  0  0  0  0  0
   23.6795  -20.1272   -9.4132 O   0  0  0  0  0  0  0  0  0  0  0  0
  1  2  1  0
  2  4  1  0
  3  2  2  0
  4  5  1  0
  5  6  1  6
  7  5  1  0
  8  7  2  0
  9 10  1  0
 11 10  1  6
 11 13  1  0
 11 12  1  0
 12  7  1  0
 13 14  2  0
 15 16  1  0
 15 13  1  0
 16 17  1  1
 17 18  1  0
 18 26  1  0
 19 20  1  0
 19 18  2  0
 20 21  1  0
 21 26  2  0
 21 22  1  0
 22 23  2  0
 24 23  1  0
 25 24  2  0
 26 25  1  0
 27 28  1  0
 27 16  1  0
 29 27  2  0
M  END
$$$$
