NSW.pdb
     RDKit          3D

 29 30  0  0  1  0  0  0  0  0999 V2000
   24.2944  -17.3282  -18.5877 N   0  0  0  0  0  0  0  0  0  0  0  0
   24.9142  -18.2127  -17.6702 C   0  0  0  0  0  0  0  0  0  0  0  0
   25.7276  -19.0845  -18.0340 O   0  0  0  0  0  0  0  0  0  0  0  0
   24.5732  -18.0850  -16.2312 C   0  0  0  0  0  0  0  0  0  0  0  0
   24.8609  -19.4403  -15.5831 C   0  0  2  0  0  0  0  0  0  0  0  0
   23.9528  -20.4486  -16.0903 N   0  0  0  0  0  0  0  0  0  0  0  0
   24.6458  -19.2808  -14.1380 C   0  0  0  0  0  0  0  0  0  0  0  0
   25.2363  -18.3365  -13.5339 O   0  0  0  0  0  0  0  0  0  0  0  0
   22.2290  -21.7938  -12.0337 O   0  0  0  0  0  0  0  0  0  0  0  0
   22.2790  -20.5027  -11.5458 C   0  0  0  0  0  0  0  0  0  0  0  0
   23.6215  -19.9042  -11.9896 C   0  0  2  0  0  0  0  0  0  0  0  0
   23.7915  -20.1539  -13.3810 N   0  0  0  0  0  0  0  0  0  0  0  0
   24.6586  -20.5455  -11.1459 C   0  0  0  0  0  0  0  0  0  0  0  0
   25.1268  -21.6719  -11.4880 O   0  0  0  0  0  0  0  0  0  0  0  0
   25.1547  -19.9456   -9.9598 N   0  0  0  0  0  0  0  0  0  0  0  0
   26.1077  -20.6248   -9.0753 C   0  0  1  0  0  0  0  0  0  0  0  0
   27.0733  -19.5648   -8.6331 C   0  0  0  0  0  0  0  0  0  0  0  0
   28.1761  -20.0039   -7.7772 C   0  0  0  0  0  0  0  0  0  0  0  0
   29.0536  -21.0569   -8.0752 C   0  0  0  0  0  0  0  0  0  0  0  0
   29.8850  -21.1710   -7.0460 N   0  0  0  0  0  0  0  0  0  0  0  0
   29.6025  -20.2576   -6.1004 C   0  0  0  0  0  0  0  0  0  0  0  0
   30.1667  -19.9593   -4.8857 C   0  0  0  0  0  0  0  0  0  0  0  0
   29.7097  -18.9417   -4.0799 C   0  0  0  0  0  0  0  0  0  0  0  0
   28.6366  -18.2063   -4.5384 C   0  0  0  0  0  0  0  0  0  0  0  0
   28.0449  -18.4758   -5.7490 C   0  0  0  0  0  0  0  0  0  0  0  0
   28.5219  -19.5062   -6.5435 C   0  0  0  0  0  0  0  0  0  0  0  0
   25.4824  -21.3022   -7.9446 C   0  0  0  0  0  0  0  0  0  0  0  0
   26.1263  -22.3172   -7.2350 O   0  0  0  0  0  0  0  0  0  0  0  0
   24.3312  -20.9817   -7.5779 O   0  0  0  0  0  0  0  0  0  0  0  0
  1  2  1  0
  2  4  1  0
  3  2  2  0
  4  5  1  0
  5  6  1  6
  7  5  1  0
  8  7  2  0
  9 10  1  0
 11 10  1  1
 11 13  1  0
 11 12  1  0
 12  7  1  0
 13 14  2  0
 15 16  1  0
 15 13  1  0
 16 17  1  1
 17 18  1  0
 18 26  1  0
 19 20  1  0
 19 18  2  0
 20 21  1  0
 21 26  2  0
 21 22  1  0
 22 23  2  0
 24 23  1  0
 25 24  2  0
 26 25  1  0
 27 28  1  0
 27 16  1  0
 29 27  2  0
M  END
$$$$
