NSW.pdb
     RDKit          3D

 29 30  0  0  1  0  0  0  0  0999 V2000
   15.9536  -21.8924    1.4456 N   0  0  0  0  0  0  0  0  0  0  0  0
   17.1282  -21.1647    1.7604 C   0  0  0  0  0  0  0  0  0  0  0  0
   18.2008  -21.3380    1.1492 O   0  0  0  0  0  0  0  0  0  0  0  0
   17.0640  -20.1668    2.8573 C   0  0  0  0  0  0  0  0  0  0  0  0
   15.6484  -20.2282    3.4334 C   0  0  2  0  0  0  0  0  0  0  0  0
   14.6863  -19.7338    2.4698 N   0  0  0  0  0  0  0  0  0  0  0  0
   15.6292  -19.3631    4.6214 C   0  0  0  0  0  0  0  0  0  0  0  0
   15.4349  -18.1206    4.4682 O   0  0  0  0  0  0  0  0  0  0  0  0
   16.3548  -20.8726    8.2604 O   0  0  0  0  0  0  0  0  0  0  0  0
   15.4972  -19.7923    8.3323 C   0  0  0  0  0  0  0  0  0  0  0  0
   15.6960  -18.9722    7.0496 C   0  0  2  0  0  0  0  0  0  0  0  0
   15.8223  -19.8704    5.9520 N   0  0  0  0  0  0  0  0  0  0  0  0
   16.9046  -18.1427    7.2730 C   0  0  0  0  0  0  0  0  0  0  0  0
   18.0103  -18.5118    6.7769 O   0  0  0  0  0  0  0  0  0  0  0  0
   16.8757  -16.9406    8.0259 N   0  0  0  0  0  0  0  0  0  0  0  0
   18.0899  -16.1771    8.3338 C   0  0  1  0  0  0  0  0  0  0  0  0
   17.6882  -14.7333    8.2587 C   0  0  0  0  0  0  0  0  0  0  0  0
   17.6692  -14.1307    6.9252 C   0  0  0  0  0  0  0  0  0  0  0  0
   16.7114  -14.3993    5.9363 C   0  0  0  0  0  0  0  0  0  0  0  0
   17.0536  -13.6942    4.8643 N   0  0  0  0  0  0  0  0  0  0  0  0
   18.1721  -12.9848    5.0964 C   0  0  0  0  0  0  0  0  0  0  0  0
   18.9025  -12.1085    4.3340 C   0  0  0  0  0  0  0  0  0  0  0  0
   20.0282  -11.4702    4.8022 C   0  0  0  0  0  0  0  0  0  0  0  0
   20.4158  -11.7423    6.0977 C   0  0  0  0  0  0  0  0  0  0  0  0
   19.7102  -12.6145    6.8913 C   0  0  0  0  0  0  0  0  0  0  0  0
   18.5798  -13.2464    6.3979 C   0  0  0  0  0  0  0  0  0  0  0  0
   18.6865  -16.5133    9.6219 C   0  0  0  0  0  0  0  0  0  0  0  0
   19.8911  -15.9556   10.0536 O   0  0  0  0  0  0  0  0  0  0  0  0
   18.1200  -17.3257   10.3844 O   0  0  0  0  0  0  0  0  0  0  0  0
  1  2  1  0
  2  4  1  0
  3  2  2  0
  4  5  1  0
  5  6  1  6
  7  5  1  0
  8  7  2  0
  9 10  1  0
 11 10  1  1
 11 13  1  0
 11 12  1  0
 12  7  1  0
 13 14  2  0
 15 16  1  0
 15 13  1  0
 16 17  1  1
 17 18  1  0
 18 26  1  0
 19 20  1  0
 19 18  2  0
 20 21  1  0
 21 26  2  0
 21 22  1  0
 22 23  2  0
 24 23  1  0
 25 24  2  0
 26 25  1  0
 27 28  1  0
 27 16  1  0
 29 27  2  0
M  END
$$$$
