NSW.pdb
     RDKit          3D

 29 30  0  0  1  0  0  0  0  0999 V2000
   22.1228  -15.3570  -20.8433 N   0  0  0  0  0  0  0  0  0  0  0  0
   21.9576  -14.8787  -19.5196 C   0  0  0  0  0  0  0  0  0  0  0  0
   22.0261  -15.6310  -18.5280 O   0  0  0  0  0  0  0  0  0  0  0  0
   21.6942  -13.4312  -19.3231 C   0  0  0  0  0  0  0  0  0  0  0  0
   21.2758  -13.2486  -17.8632 C   0  0  2  0  0  0  0  0  0  0  0  0
   20.0781  -14.0121  -17.5790 N   0  0  0  0  0  0  0  0  0  0  0  0
   20.9930  -11.8190  -17.6721 C   0  0  0  0  0  0  0  0  0  0  0  0
   21.5035  -10.9833  -18.4759 O   0  0  0  0  0  0  0  0  0  0  0  0
   18.8192  -10.5267  -14.5227 O   0  0  0  0  0  0  0  0  0  0  0  0
   18.7506   -9.6643  -15.5994 C   0  0  0  0  0  0  0  0  0  0  0  0
   19.9922   -9.9232  -16.4648 C   0  0  2  0  0  0  0  0  0  0  0  0
   20.1595  -11.3298  -16.6085 N   0  0  0  0  0  0  0  0  0  0  0  0
   21.1244   -9.2641  -15.7702 C   0  0  0  0  0  0  0  0  0  0  0  0
   21.6601   -9.8376  -14.7756 O   0  0  0  0  0  0  0  0  0  0  0  0
   21.6393   -8.0059  -16.1758 N   0  0  0  0  0  0  0  0  0  0  0  0
   22.7369   -7.3404  -15.4657 C   0  0  1  0  0  0  0  0  0  0  0  0
   23.7959   -7.0946  -16.5000 C   0  0  0  0  0  0  0  0  0  0  0  0
   24.3539   -8.2780  -17.1554 C   0  0  0  0  0  0  0  0  0  0  0  0
   24.0691   -8.6774  -18.4695 C   0  0  0  0  0  0  0  0  0  0  0  0
   24.7320   -9.8082  -18.6826 N   0  0  0  0  0  0  0  0  0  0  0  0
   25.4293  -10.1662  -17.5901 C   0  0  0  0  0  0  0  0  0  0  0  0
   26.2669  -11.2174  -17.3144 C   0  0  0  0  0  0  0  0  0  0  0  0
   26.9008  -11.3691  -16.1024 C   0  0  0  0  0  0  0  0  0  0  0  0
   26.6655  -10.4076  -15.1418 C   0  0  0  0  0  0  0  0  0  0  0  0
   25.8325   -9.3411  -15.3807 C   0  0  0  0  0  0  0  0  0  0  0  0
   25.2043   -9.2095  -16.6089 C   0  0  0  0  0  0  0  0  0  0  0  0
   22.3398   -6.1123  -14.7858 C   0  0  0  0  0  0  0  0  0  0  0  0
   23.1976   -5.4266  -13.9241 O   0  0  0  0  0  0  0  0  0  0  0  0
   21.1979   -5.6361  -14.9636 O   0  0  0  0  0  0  0  0  0  0  0  0
  1  2  1  0
  2  4  1  0
  3  2  2  0
  4  5  1  0
  5  6  1  6
  7  5  1  0
  8  7  2  0
  9 10  1  0
 11 10  1  1
 11 13  1  0
 11 12  1  0
 12  7  1  0
 13 14  2  0
 15 16  1  0
 15 13  1  0
 16 17  1  6
 17 18  1  0
 18 26  1  0
 19 20  1  0
 19 18  2  0
 20 21  1  0
 21 26  2  0
 21 22  1  0
 22 23  2  0
 24 23  1  0
 25 24  2  0
 26 25  1  0
 27 28  1  0
 27 16  1  0
 29 27  2  0
M  END
$$$$
