NSW.pdb
     RDKit          3D

 29 30  0  0  1  0  0  0  0  0999 V2000
   30.4841  -17.8107  -18.6098 N   0  0  0  0  0  0  0  0  0  0  0  0
   30.3874  -16.5257  -18.0201 C   0  0  0  0  0  0  0  0  0  0  0  0
   30.7458  -15.4920  -18.6176 O   0  0  0  0  0  0  0  0  0  0  0  0
   29.8398  -16.4231  -16.6443 C   0  0  0  0  0  0  0  0  0  0  0  0
   28.3631  -16.8140  -16.7221 C   0  0  2  0  0  0  0  0  0  0  0  0
   27.5629  -15.6900  -17.1635 N   0  0  0  0  0  0  0  0  0  0  0  0
   27.9476  -17.1987  -15.3658 C   0  0  0  0  0  0  0  0  0  0  0  0
   28.2483  -16.4394  -14.3972 O   0  0  0  0  0  0  0  0  0  0  0  0
   24.8729  -19.5846  -14.7594 O   0  0  0  0  0  0  0  0  0  0  0  0
   25.2477  -18.7234  -13.7467 C   0  0  0  0  0  0  0  0  0  0  0  0
   26.7814  -18.6523  -13.7594 C   0  0  2  0  0  0  0  0  0  0  0  0
   27.2128  -18.4033  -15.0933 N   0  0  0  0  0  0  0  0  0  0  0  0
   27.2595  -19.9475  -13.2187 C   0  0  0  0  0  0  0  0  0  0  0  0
   27.6175  -20.8602  -14.0212 O   0  0  0  0  0  0  0  0  0  0  0  0
   27.3343  -20.2116  -11.8268 N   0  0  0  0  0  0  0  0  0  0  0  0
   27.1381  -21.5547  -11.2703 C   0  0  1  0  0  0  0  0  0  0  0  0
   27.8162  -21.5396   -9.9319 C   0  0  0  0  0  0  0  0  0  0  0  0
   27.1314  -20.8125   -8.8624 C   0  0  0  0  0  0  0  0  0  0  0  0
   25.8342  -20.2864   -8.9521 C   0  0  0  0  0  0  0  0  0  0  0  0
   25.5854  -19.6717   -7.8015 N   0  0  0  0  0  0  0  0  0  0  0  0
   26.6390  -19.7673   -6.9715 C   0  0  0  0  0  0  0  0  0  0  0  0
   26.8690  -19.3262   -5.6928 C   0  0  0  0  0  0  0  0  0  0  0  0
   28.0453  -19.5666   -5.0202 C   0  0  0  0  0  0  0  0  0  0  0  0
   29.0176  -20.2845   -5.6849 C   0  0  0  0  0  0  0  0  0  0  0  0
   28.8240  -20.7421   -6.9661 C   0  0  0  0  0  0  0  0  0  0  0  0
   27.6312  -20.4873   -7.6240 C   0  0  0  0  0  0  0  0  0  0  0  0
   25.7380  -21.9523  -11.1705 C   0  0  0  0  0  0  0  0  0  0  0  0
   25.3445  -23.2908  -11.1283 O   0  0  0  0  0  0  0  0  0  0  0  0
   24.8400  -21.0844  -11.1191 O   0  0  0  0  0  0  0  0  0  0  0  0
  1  2  1  0
  2  4  1  0
  3  2  2  0
  4  5  1  0
  5  6  1  1
  7  5  1  0
  8  7  2  0
  9 10  1  0
 11 10  1  6
 11 13  1  0
 11 12  1  0
 12  7  1  0
 13 14  2  0
 15 16  1  0
 15 13  1  0
 16 17  1  1
 17 18  1  0
 18 26  1  0
 19 20  1  0
 19 18  2  0
 20 21  1  0
 21 26  2  0
 21 22  1  0
 22 23  2  0
 24 23  1  0
 25 24  2  0
 26 25  1  0
 27 28  1  0
 27 16  1  0
 29 27  2  0
M  END
$$$$
