QGT.pdb
     RDKit          3D

 21 20  0  0  1  0  0  0  0  0999 V2000
   24.5511  -15.7950  -19.6495 N   0  0  0  0  0  0  0  0  0  0  0  0
   23.9041  -16.3740  -18.4939 C   0  0  0  0  0  0  0  0  0  0  0  0
   23.2702  -17.4300  -18.6973 O   0  0  0  0  0  0  0  0  0  0  0  0
   24.0135  -15.7220  -17.2007 C   0  0  0  0  0  0  0  0  0  0  0  0
   25.2375  -14.9055  -16.9280 C   0  0  0  0  0  0  0  0  0  0  0  0
   26.4599  -15.7405  -16.9039 C   0  0  2  0  0  0  0  0  0  0  0  0
   26.4146  -16.7872  -17.8774 N   0  0  0  0  0  0  0  0  0  0  0  0
   26.7772  -16.2990  -15.5724 C   0  0  0  0  0  0  0  0  0  0  0  0
   26.7930  -15.5802  -14.5339 O   0  0  0  0  0  0  0  0  0  0  0  0
   27.0750  -17.6778  -15.4456 N   0  0  0  0  0  0  0  0  0  0  0  0
   27.3565  -18.2741  -14.1547 C   0  0  0  0  0  0  0  0  0  0  0  0
   26.2244  -19.0395  -13.5946 C   0  0  0  0  0  0  0  0  0  0  0  0
   25.0492  -18.9083  -14.0786 O   0  0  0  0  0  0  0  0  0  0  0  0
   25.7041  -22.4979  -13.7889 C   0  0  0  0  0  0  0  0  0  0  0  0
   25.5161  -22.2223  -12.3243 C   0  0  1  0  0  0  0  0  0  0  0  0
   26.6922  -22.5400  -11.6173 O   0  0  0  0  0  0  0  0  0  0  0  0
   25.2654  -20.7510  -12.0852 C   0  0  2  0  0  0  0  0  0  0  0  0
   26.3806  -19.9353  -12.5136 N   0  0  0  0  0  0  0  0  0  0  0  0
   24.9052  -20.4741  -10.6722 C   0  0  0  0  0  0  0  0  0  0  0  0
   25.6897  -19.8078   -9.9514 O   0  0  0  0  0  0  0  0  0  0  0  0
   23.7289  -20.9223  -10.1053 O   0  0  0  0  0  0  0  0  0  0  0  0
  1  2  1  0
  2  3  2  0
  4  5  1  0
  4  2  1  0
  6  5  1  0
  6  7  1  6
  8  9  2  0
  8  6  1  0
 10  8  1  0
 11 10  1  0
 11 12  1  0
 12 18  1  0
 13 12  2  0
 15 16  1  0
 15 14  1  6
 17 15  1  0
 17 19  1  0
 17 18  1  1
 19 20  2  0
 19 21  1  0
M  END
$$$$
