QGT.pdb
     RDKit          3D

 21 20  0  0  1  0  0  0  0  0999 V2000
   24.5793  -21.5000  -10.2761 N   0  0  0  0  0  0  0  0  0  0  0  0
   25.5222  -20.4049  -10.2452 C   0  0  0  0  0  0  0  0  0  0  0  0
   25.2813  -19.5027   -9.4169 O   0  0  0  0  0  0  0  0  0  0  0  0
   26.6595  -20.4035  -11.1485 C   0  0  0  0  0  0  0  0  0  0  0  0
   26.8179  -21.5646  -12.0791 C   0  0  0  0  0  0  0  0  0  0  0  0
   27.0937  -21.1231  -13.4651 C   0  0  2  0  0  0  0  0  0  0  0  0
   27.7328  -19.8443  -13.5043 N   0  0  0  0  0  0  0  0  0  0  0  0
   25.9032  -21.1228  -14.3414 C   0  0  0  0  0  0  0  0  0  0  0  0
   25.2529  -22.1781  -14.5838 O   0  0  0  0  0  0  0  0  0  0  0  0
   25.4708  -19.9107  -14.9328 N   0  0  0  0  0  0  0  0  0  0  0  0
   24.3269  -19.8701  -15.8222 C   0  0  0  0  0  0  0  0  0  0  0  0
   23.0361  -19.7109  -15.1226 C   0  0  0  0  0  0  0  0  0  0  0  0
   22.9994  -19.5565  -13.8548 O   0  0  0  0  0  0  0  0  0  0  0  0
   20.1010  -17.3103  -16.1724 C   0  0  0  0  0  0  0  0  0  0  0  0
   19.5782  -18.6916  -15.8986 C   0  0  1  0  0  0  0  0  0  0  0  0
   19.4122  -19.3947  -17.1078 O   0  0  0  0  0  0  0  0  0  0  0  0
   20.5712  -19.4867  -15.0821 C   0  0  2  0  0  0  0  0  0  0  0  0
   21.8003  -19.7248  -15.8069 N   0  0  0  0  0  0  0  0  0  0  0  0
   19.9854  -20.7550  -14.5811 C   0  0  0  0  0  0  0  0  0  0  0  0
   20.4588  -21.8525  -14.9687 O   0  0  0  0  0  0  0  0  0  0  0  0
   18.9272  -20.7839  -13.6949 O   0  0  0  0  0  0  0  0  0  0  0  0
  1  2  1  0
  2  3  2  0
  4  5  1  0
  4  2  1  0
  6  5  1  0
  6  7  1  1
  8  9  2  0
  8  6  1  0
 10  8  1  0
 11 10  1  0
 11 12  1  0
 12 18  1  0
 13 12  2  0
 15 16  1  0
 15 14  1  6
 17 15  1  0
 17 19  1  0
 17 18  1  6
 19 20  2  0
 19 21  1  0
M  END
$$$$
