QGT.pdb
     RDKit          3D

 21 20  0  0  1  0  0  0  0  0999 V2000
   22.1602  -19.0742  -15.1212 N   0  0  0  0  0  0  0  0  0  0  0  0
   20.7772  -19.1625  -15.5320 C   0  0  0  0  0  0  0  0  0  0  0  0
   20.3413  -20.3150  -15.7316 O   0  0  0  0  0  0  0  0  0  0  0  0
   19.9912  -17.9517  -15.6921 C   0  0  0  0  0  0  0  0  0  0  0  0
   20.6791  -16.6374  -15.4958 C   0  0  0  0  0  0  0  0  0  0  0  0
   19.7348  -15.5835  -15.0604 C   0  0  2  0  0  0  0  0  0  0  0  0
   18.4108  -16.0915  -14.8759 N   0  0  0  0  0  0  0  0  0  0  0  0
   19.7060  -14.4017  -15.9480 C   0  0  0  0  0  0  0  0  0  0  0  0
   19.1816  -14.4424  -17.0964 O   0  0  0  0  0  0  0  0  0  0  0  0
   20.2811  -13.1839  -15.5096 N   0  0  0  0  0  0  0  0  0  0  0  0
   20.3146  -12.0136  -16.3641 C   0  0  0  0  0  0  0  0  0  0  0  0
   20.9082  -10.8246  -15.7199 C   0  0  0  0  0  0  0  0  0  0  0  0
   21.3174  -10.8777  -14.5106 O   0  0  0  0  0  0  0  0  0  0  0  0
   23.5338   -8.3356  -17.4066 C   0  0  0  0  0  0  0  0  0  0  0  0
   22.4226   -7.5882  -16.7259 C   0  0  1  0  0  0  0  0  0  0  0  0
   21.4573   -7.1901  -17.6712 O   0  0  0  0  0  0  0  0  0  0  0  0
   21.7038   -8.4807  -15.7402 C   0  0  2  0  0  0  0  0  0  0  0  0
   21.0474   -9.5913  -16.3945 N   0  0  0  0  0  0  0  0  0  0  0  0
   20.7554   -7.7164  -14.8921 C   0  0  0  0  0  0  0  0  0  0  0  0
   19.5191   -7.8949  -15.0286 O   0  0  0  0  0  0  0  0  0  0  0  0
   21.1766   -6.8041  -13.9454 O   0  0  0  0  0  0  0  0  0  0  0  0
  1  2  1  0
  2  3  2  0
  4  5  1  0
  4  2  1  0
  6  5  1  0
  6  7  1  6
  8  9  2  0
  8  6  1  0
 10  8  1  0
 11 10  1  0
 11 12  1  0
 12 18  1  0
 13 12  2  0
 15 16  1  0
 15 14  1  6
 17 15  1  0
 17 19  1  0
 17 18  1  6
 19 20  2  0
 19 21  1  0
M  END
$$$$
