QGT.pdb
     RDKit          3D

 21 20  0  0  1  0  0  0  0  0999 V2000
   27.5713  -11.3314  -22.0498 N   0  0  0  0  0  0  0  0  0  0  0  0
   27.7696   -9.9739  -21.5948 C   0  0  0  0  0  0  0  0  0  0  0  0
   27.4483   -9.0772  -22.4015 O   0  0  0  0  0  0  0  0  0  0  0  0
   28.3173   -9.7266  -20.2725 C   0  0  0  0  0  0  0  0  0  0  0  0
   28.6084  -10.9080  -19.4014 C   0  0  0  0  0  0  0  0  0  0  0  0
   29.2029  -10.5024  -18.1076 C   0  0  2  0  0  0  0  0  0  0  0  0
   28.5506   -9.3573  -17.5522 N   0  0  0  0  0  0  0  0  0  0  0  0
   30.6629  -10.2773  -18.1641 C   0  0  0  0  0  0  0  0  0  0  0  0
   31.4692  -11.2015  -18.4657 O   0  0  0  0  0  0  0  0  0  0  0  0
   31.1841   -8.9932  -17.8721 N   0  0  0  0  0  0  0  0  0  0  0  0
   32.5964   -8.7005  -18.0164 C   0  0  0  0  0  0  0  0  0  0  0  0
   33.2498   -8.2913  -16.7568 C   0  0  0  0  0  0  0  0  0  0  0  0
   32.8018   -8.6975  -15.6312 O   0  0  0  0  0  0  0  0  0  0  0  0
   36.9283   -8.8073  -16.1370 C   0  0  0  0  0  0  0  0  0  0  0  0
   36.5999   -7.4102  -15.6934 C   0  0  1  0  0  0  0  0  0  0  0  0
   36.9697   -6.4864  -16.6903 O   0  0  0  0  0  0  0  0  0  0  0  0
   35.1096   -7.2473  -15.5003 C   0  0  2  0  0  0  0  0  0  0  0  0
   34.3794   -7.4434  -16.7336 N   0  0  0  0  0  0  0  0  0  0  0  0
   34.7724   -5.9445  -14.8744 C   0  0  0  0  0  0  0  0  0  0  0  0
   35.2458   -5.6573  -13.7465 O   0  0  0  0  0  0  0  0  0  0  0  0
   33.9493   -5.0194  -15.4850 O   0  0  0  0  0  0  0  0  0  0  0  0
  1  2  1  0
  2  3  2  0
  4  5  1  0
  4  2  1  0
  6  5  1  0
  6  7  1  6
  8  9  2  0
  8  6  1  0
 10  8  1  0
 11 10  1  0
 11 12  1  0
 12 18  1  0
 13 12  2  0
 15 16  1  0
 15 14  1  6
 17 15  1  0
 17 19  1  0
 17 18  1  6
 19 20  2  0
 19 21  1  0
M  END
$$$$
