QGT.pdb
     RDKit          3D

 21 20  0  0  1  0  0  0  0  0999 V2000
   15.5442  -14.6958  -20.0977 N   0  0  0  0  0  0  0  0  0  0  0  0
   15.9818  -15.7309  -19.1887 C   0  0  0  0  0  0  0  0  0  0  0  0
   15.8877  -16.9016  -19.6113 O   0  0  0  0  0  0  0  0  0  0  0  0
   16.4866  -15.3739  -17.8745 C   0  0  0  0  0  0  0  0  0  0  0  0
   16.5605  -13.9215  -17.5220 C   0  0  0  0  0  0  0  0  0  0  0  0
   17.8130  -13.5944  -16.8035 C   0  0  2  0  0  0  0  0  0  0  0  0
   17.6090  -13.4814  -15.3925 N   0  0  0  0  0  0  0  0  0  0  0  0
   18.4995  -12.3893  -17.3153 C   0  0  0  0  0  0  0  0  0  0  0  0
   18.8660  -12.2914  -18.5200 O   0  0  0  0  0  0  0  0  0  0  0  0
   18.7602  -11.3079  -16.4386 N   0  0  0  0  0  0  0  0  0  0  0  0
   19.5038  -10.1432  -16.8763 C   0  0  0  0  0  0  0  0  0  0  0  0
   19.6830   -9.1230  -15.8235 C   0  0  0  0  0  0  0  0  0  0  0  0
   18.8504   -9.0325  -14.8586 O   0  0  0  0  0  0  0  0  0  0  0  0
   22.2771   -9.2438  -13.5238 C   0  0  0  0  0  0  0  0  0  0  0  0
   22.3438   -7.8207  -13.9999 C   0  0  1  0  0  0  0  0  0  0  0  0
   23.3411   -7.6864  -14.9854 O   0  0  0  0  0  0  0  0  0  0  0  0
   21.0445   -7.4158  -14.6577 C   0  0  2  0  0  0  0  0  0  0  0  0
   20.7618   -8.2111  -15.8325 N   0  0  0  0  0  0  0  0  0  0  0  0
   21.0101   -5.9646  -14.9668 C   0  0  0  0  0  0  0  0  0  0  0  0
   21.0710   -5.1293  -14.0301 O   0  0  0  0  0  0  0  0  0  0  0  0
   20.9127   -5.4834  -16.2572 O   0  0  0  0  0  0  0  0  0  0  0  0
  1  2  1  0
  2  3  2  0
  4  5  1  0
  4  2  1  0
  6  5  1  0
  6  7  1  1
  8  9  2  0
  8  6  1  0
 10  8  1  0
 11 10  1  0
 11 12  1  0
 12 18  1  0
 13 12  2  0
 15 16  1  0
 15 14  1  6
 17 15  1  0
 17 19  1  0
 17 18  1  6
 19 20  2  0
 19 21  1  0
M  END
$$$$
