QGT.pdb
     RDKit          3D

 21 20  0  0  1  0  0  0  0  0999 V2000
   15.6986  -14.1249  -15.4656 N   0  0  0  0  0  0  0  0  0  0  0  0
   15.3410  -13.5837  -16.7572 C   0  0  0  0  0  0  0  0  0  0  0  0
   14.7370  -14.3610  -17.5247 O   0  0  0  0  0  0  0  0  0  0  0  0
   15.6924  -12.2143  -17.0905 C   0  0  0  0  0  0  0  0  0  0  0  0
   16.3263  -11.3739  -16.0270 C   0  0  0  0  0  0  0  0  0  0  0  0
   16.6038  -10.0007  -16.5056 C   0  0  2  0  0  0  0  0  0  0  0  0
   17.5837   -9.9826  -17.5471 N   0  0  0  0  0  0  0  0  0  0  0  0
   16.9860   -9.0585  -15.4325 C   0  0  0  0  0  0  0  0  0  0  0  0
   16.2919   -8.9219  -14.3861 O   0  0  0  0  0  0  0  0  0  0  0  0
   18.1612   -8.2803  -15.5713 N   0  0  0  0  0  0  0  0  0  0  0  0
   18.7059   -7.5295  -14.4574 C   0  0  0  0  0  0  0  0  0  0  0  0
   19.8145   -6.6292  -14.8335 C   0  0  0  0  0  0  0  0  0  0  0  0
   20.4188   -6.7746  -15.9499 O   0  0  0  0  0  0  0  0  0  0  0  0
   19.6965   -3.1672  -15.5751 C   0  0  0  0  0  0  0  0  0  0  0  0
   20.8015   -3.2621  -14.5619 C   0  0  1  0  0  0  0  0  0  0  0  0
   20.3207   -2.9057  -13.2869 O   0  0  0  0  0  0  0  0  0  0  0  0
   21.2964   -4.6854  -14.4427 C   0  0  2  0  0  0  0  0  0  0  0  0
   20.2563   -5.5841  -13.9921 N   0  0  0  0  0  0  0  0  0  0  0  0
   22.5026   -4.7810  -13.5831 C   0  0  0  0  0  0  0  0  0  0  0  0
   22.4263   -5.3581  -12.4696 O   0  0  0  0  0  0  0  0  0  0  0  0
   23.7235   -4.2565  -13.9575 O   0  0  0  0  0  0  0  0  0  0  0  0
  1  2  1  0
  2  3  2  0
  4  5  1  0
  4  2  1  0
  6  5  1  0
  6  7  1  6
  8  9  2  0
  8  6  1  0
 10  8  1  0
 11 10  1  0
 11 12  1  0
 12 18  1  0
 13 12  2  0
 15 16  1  0
 15 14  1  6
 17 15  1  0
 17 19  1  0
 17 18  1  1
 19 20  2  0
 19 21  1  0
M  END
$$$$
