QGT.pdb
     RDKit          3D

 21 20  0  0  1  0  0  0  0  0999 V2000
   17.0930  -16.9604  -17.2294 N   0  0  0  0  0  0  0  0  0  0  0  0
   17.1329  -15.5451  -17.5201 C   0  0  0  0  0  0  0  0  0  0  0  0
   16.7296  -15.2108  -18.6531 O   0  0  0  0  0  0  0  0  0  0  0  0
   17.6262  -14.6145  -16.5200 C   0  0  0  0  0  0  0  0  0  0  0  0
   18.2349  -13.3324  -16.9942 C   0  0  0  0  0  0  0  0  0  0  0  0
   18.6311  -12.4621  -15.8640 C   0  0  2  0  0  0  0  0  0  0  0  0
   17.4980  -11.9116  -15.1871 N   0  0  0  0  0  0  0  0  0  0  0  0
   19.5712  -11.3847  -16.2390 C   0  0  0  0  0  0  0  0  0  0  0  0
   20.6876  -11.6304  -16.7763 O   0  0  0  0  0  0  0  0  0  0  0  0
   19.2216  -10.0346  -15.9923 N   0  0  0  0  0  0  0  0  0  0  0  0
   20.1561   -8.9548  -16.2410 C   0  0  0  0  0  0  0  0  0  0  0  0
   20.1603   -7.9189  -15.1883 C   0  0  0  0  0  0  0  0  0  0  0  0
   19.4882   -8.0821  -14.1140 O   0  0  0  0  0  0  0  0  0  0  0  0
   22.8726   -4.5797  -15.2061 C   0  0  0  0  0  0  0  0  0  0  0  0
   22.3528   -5.2718  -13.9783 C   0  0  1  0  0  0  0  0  0  0  0  0
   22.2645   -4.3590  -12.9092 O   0  0  0  0  0  0  0  0  0  0  0  0
   20.9508   -5.7875  -14.2087 C   0  0  2  0  0  0  0  0  0  0  0  0
   20.8910   -6.7167  -15.3158 N   0  0  0  0  0  0  0  0  0  0  0  0
   19.9759   -4.6814  -14.3789 C   0  0  0  0  0  0  0  0  0  0  0  0
   19.5214   -4.4257  -15.5221 O   0  0  0  0  0  0  0  0  0  0  0  0
   19.5391   -3.9087  -13.3214 O   0  0  0  0  0  0  0  0  0  0  0  0
  1  2  1  0
  2  3  2  0
  4  5  1  0
  4  2  1  0
  6  5  1  0
  6  7  1  6
  8  9  2  0
  8  6  1  0
 10  8  1  0
 11 10  1  0
 11 12  1  0
 12 18  1  0
 13 12  2  0
 15 16  1  0
 15 14  1  6
 17 15  1  0
 17 19  1  0
 17 18  1  6
 19 20  2  0
 19 21  1  0
M  END
$$$$
