QGT.pdb
     RDKit          3D

 21 20  0  0  1  0  0  0  0  0999 V2000
   25.8125  -20.3851   -9.9656 N   0  0  0  0  0  0  0  0  0  0  0  0
   26.0870  -21.6164  -10.6712 C   0  0  0  0  0  0  0  0  0  0  0  0
   25.5917  -22.6495  -10.1757 O   0  0  0  0  0  0  0  0  0  0  0  0
   26.8994  -21.5951  -11.8749 C   0  0  0  0  0  0  0  0  0  0  0  0
   27.3917  -20.2700  -12.3657 C   0  0  0  0  0  0  0  0  0  0  0  0
   26.3240  -19.5081  -13.0524 C   0  0  2  0  0  0  0  0  0  0  0  0
   25.8662  -20.1710  -14.2340 N   0  0  0  0  0  0  0  0  0  0  0  0
   26.6918  -18.1107  -13.3644 C   0  0  0  0  0  0  0  0  0  0  0  0
   27.3071  -17.3819  -12.5364 O   0  0  0  0  0  0  0  0  0  0  0  0
   26.3483  -17.5620  -14.6242 N   0  0  0  0  0  0  0  0  0  0  0  0
   26.6519  -16.1841  -14.9561 C   0  0  0  0  0  0  0  0  0  0  0  0
   26.1534  -15.7691  -16.2829 C   0  0  0  0  0  0  0  0  0  0  0  0
   26.4941  -16.4104  -17.3342 O   0  0  0  0  0  0  0  0  0  0  0  0
   22.7407  -15.9886  -17.3850 C   0  0  0  0  0  0  0  0  0  0  0  0
   23.1426  -14.5613  -17.6259 C   0  0  1  0  0  0  0  0  0  0  0  0
   22.7565  -13.7591  -16.5345 O   0  0  0  0  0  0  0  0  0  0  0  0
   24.6458  -14.4393  -17.7273 C   0  0  2  0  0  0  0  0  0  0  0  0
   25.2940  -14.6610  -16.4531 N   0  0  0  0  0  0  0  0  0  0  0  0
   25.0563  -13.1437  -18.3238 C   0  0  0  0  0  0  0  0  0  0  0  0
   25.7816  -12.3588  -17.6629 O   0  0  0  0  0  0  0  0  0  0  0  0
   24.6714  -12.7560  -19.5916 O   0  0  0  0  0  0  0  0  0  0  0  0
  1  2  1  0
  2  3  2  0
  4  5  1  0
  4  2  1  0
  6  5  1  0
  6  7  1  6
  8  9  2  0
  8  6  1  0
 10  8  1  0
 11 10  1  0
 11 12  1  0
 12 18  1  0
 13 12  2  0
 15 16  1  0
 15 14  1  1
 17 15  1  0
 17 19  1  0
 17 18  1  1
 19 20  2  0
 19 21  1  0
M  END
$$$$
