QGT.pdb
     RDKit          3D

 21 20  0  0  1  0  0  0  0  0999 V2000
   26.1569  -19.8446   -8.9025 N   0  0  0  0  0  0  0  0  0  0  0  0
   25.2441  -20.9514   -9.0792 C   0  0  0  0  0  0  0  0  0  0  0  0
   24.4250  -21.1341   -8.1552 O   0  0  0  0  0  0  0  0  0  0  0  0
   25.3233  -21.7708  -10.2758 C   0  0  0  0  0  0  0  0  0  0  0  0
   26.3160  -21.3840  -11.3266 C   0  0  0  0  0  0  0  0  0  0  0  0
   25.6729  -20.6685  -12.4520 C   0  0  2  0  0  0  0  0  0  0  0  0
   25.2882  -21.5577  -13.5040 N   0  0  0  0  0  0  0  0  0  0  0  0
   26.4830  -19.5583  -12.9965 C   0  0  0  0  0  0  0  0  0  0  0  0
   27.4145  -19.0237  -12.3319 O   0  0  0  0  0  0  0  0  0  0  0  0
   26.2150  -19.0707  -14.2990 N   0  0  0  0  0  0  0  0  0  0  0  0
   27.0407  -18.0460  -14.9067 C   0  0  0  0  0  0  0  0  0  0  0  0
   26.6000  -17.6537  -16.2605 C   0  0  0  0  0  0  0  0  0  0  0  0
   25.5292  -18.1391  -16.7609 O   0  0  0  0  0  0  0  0  0  0  0  0
   27.5172  -14.0143  -18.0650 C   0  0  0  0  0  0  0  0  0  0  0  0
   27.6090  -15.2188  -18.9578 C   0  0  1  0  0  0  0  0  0  0  0  0
   28.9476  -15.6452  -19.0591 O   0  0  0  0  0  0  0  0  0  0  0  0
   26.8406  -16.3799  -18.3693 C   0  0  2  0  0  0  0  0  0  0  0  0
   27.3285  -16.7420  -17.0565 N   0  0  0  0  0  0  0  0  0  0  0  0
   26.8241  -17.5508  -19.2812 C   0  0  0  0  0  0  0  0  0  0  0  0
   27.6976  -18.4456  -19.1574 O   0  0  0  0  0  0  0  0  0  0  0  0
   25.8777  -17.7038  -20.2746 O   0  0  0  0  0  0  0  0  0  0  0  0
  1  2  1  0
  2  3  2  0
  4  5  1  0
  4  2  1  0
  6  5  1  0
  6  7  1  6
  8  9  2  0
  8  6  1  0
 10  8  1  0
 11 10  1  0
 11 12  1  0
 12 18  1  0
 13 12  2  0
 15 16  1  0
 15 14  1  1
 17 15  1  0
 17 19  1  0
 17 18  1  1
 19 20  2  0
 19 21  1  0
M  END
$$$$
