GCY.pdb
     RDKit          3D

 23 23  0  0  1  0  0  0  0  0999 V2000
    8.8002  -17.5656   15.7225 N   0  0  0  0  0  0  0  0  0  0  0  0
    9.7737  -18.1170   16.6351 C   0  0  0  0  0  0  0  0  0  0  0  0
    9.3279  -18.0419   18.0462 C   0  0  0  0  0  0  0  0  0  0  0  0
    8.5196  -17.1974   18.4548 O   0  0  0  0  0  0  0  0  0  0  0  0
    9.8620  -18.9890   18.9576 N   0  0  0  0  0  0  0  0  0  0  0  0
    9.4954  -18.9583   20.3562 C   0  0  1  0  0  0  0  0  0  0  0  0
    9.8513  -20.3070   20.9702 C   0  0  0  0  0  0  0  0  0  0  0  0
    8.2884  -21.0687   21.4972 S   0  0  0  0  0  0  0  0  0  0  0  0
   10.2346  -17.8726   21.0559 C   0  0  0  0  0  0  0  0  0  0  0  0
   11.4073  -17.5833   20.7347 O   0  0  0  0  0  0  0  0  0  0  0  0
    7.1411  -13.1993   17.7405 O   0  0  0  0  0  0  0  0  0  0  0  0
    7.6313  -13.6078   18.9774 C   0  0  0  0  0  0  0  0  0  0  0  0
    8.9414  -13.3466   19.2786 C   0  0  0  0  0  0  0  0  0  0  0  0
    9.4702  -13.7330   20.4926 C   0  0  0  0  0  0  0  0  0  0  0  0
    8.6983  -14.3969   21.4481 C   0  0  0  0  0  0  0  0  0  0  0  0
    9.2694  -14.8207   22.7415 C   0  0  0  0  0  0  0  0  0  0  0  0
   10.2532  -15.9665   22.6218 C   0  0  2  0  0  0  0  0  0  0  0  0
    9.6220  -17.1453   22.1010 N   0  0  0  0  0  0  0  0  0  0  0  0
   10.8664  -16.3207   23.9227 C   0  0  0  0  0  0  0  0  0  0  0  0
   11.6378  -15.5249   24.5293 O   0  0  0  0  0  0  0  0  0  0  0  0
    7.3861  -14.6447   21.1152 C   0  0  0  0  0  0  0  0  0  0  0  0
    6.8434  -14.2598   19.8953 C   0  0  0  0  0  0  0  0  0  0  0  0
   10.6269  -17.5290   24.5343 O   0  0  0  0  0  0  0  0  0  0  0  0
  2  1  1  0
  3  2  1  0
  3  5  1  0
  4  3  2  0
  6  5  1  0
  6  7  1  1
  7  8  1  0
  9  6  1  0
  9 18  1  0
 10  9  2  0
 11 12  1  0
 12 22  2  0
 13 14  2  0
 13 12  1  0
 14 15  1  0
 15 16  1  0
 15 21  2  0
 17 18  1  0
 17 16  1  1
 19 17  1  0
 20 19  2  0
 22 21  1  0
 23 19  1  0
M  END
$$$$
