GCY.pdb
     RDKit          3D

 23 23  0  0  1  0  0  0  0  0999 V2000
    7.8722  -12.5149   18.0562 N   0  0  0  0  0  0  0  0  0  0  0  0
    8.8454  -13.0524   18.9773 C   0  0  0  0  0  0  0  0  0  0  0  0
    8.2639  -14.0769   19.8759 C   0  0  0  0  0  0  0  0  0  0  0  0
    7.0686  -14.3996   19.8477 O   0  0  0  0  0  0  0  0  0  0  0  0
    9.1309  -14.7074   20.8052 N   0  0  0  0  0  0  0  0  0  0  0  0
    8.6547  -15.7779   21.6529 C   0  0  1  0  0  0  0  0  0  0  0  0
    8.9915  -17.1028   20.9791 C   0  0  0  0  0  0  0  0  0  0  0  0
   10.7780  -17.0809   20.6496 S   0  0  0  0  0  0  0  0  0  0  0  0
    9.3119  -15.7067   22.9863 C   0  0  0  0  0  0  0  0  0  0  0  0
   10.4888  -15.3020   23.1017 O   0  0  0  0  0  0  0  0  0  0  0  0
    5.7126  -10.6765   26.2225 O   0  0  0  0  0  0  0  0  0  0  0  0
    6.2962  -11.9381   26.2923 C   0  0  0  0  0  0  0  0  0  0  0  0
    7.6187  -12.0271   26.6363 C   0  0  0  0  0  0  0  0  0  0  0  0
    8.2388  -13.2566   26.7180 C   0  0  0  0  0  0  0  0  0  0  0  0
    7.5489  -14.4419   26.4561 C   0  0  0  0  0  0  0  0  0  0  0  0
    8.2175  -15.7558   26.5317 C   0  0  0  0  0  0  0  0  0  0  0  0
    9.2412  -15.9773   25.4373 C   0  0  2  0  0  0  0  0  0  0  0  0
    8.6148  -16.0967   24.1517 N   0  0  0  0  0  0  0  0  0  0  0  0
   10.0491  -17.1986   25.6603 C   0  0  0  0  0  0  0  0  0  0  0  0
   10.8112  -17.3143   26.6613 O   0  0  0  0  0  0  0  0  0  0  0  0
    6.2218  -14.3189   26.1129 C   0  0  0  0  0  0  0  0  0  0  0  0
    5.5875  -13.0855   26.0278 C   0  0  0  0  0  0  0  0  0  0  0  0
   10.0093  -18.2649   24.7928 O   0  0  0  0  0  0  0  0  0  0  0  0
  2  1  1  0
  3  2  1  0
  3  5  1  0
  4  3  2  0
  6  5  1  0
  6  7  1  6
  7  8  1  0
  9  6  1  0
  9 18  1  0
 10  9  2  0
 11 12  1  0
 12 22  2  0
 13 14  2  0
 13 12  1  0
 14 15  1  0
 15 16  1  0
 15 21  2  0
 17 18  1  0
 17 16  1  1
 19 17  1  0
 20 19  2  0
 22 21  1  0
 23 19  1  0
M  END
$$$$
