GCY.pdb
     RDKit          3D

 23 23  0  0  1  0  0  0  0  0999 V2000
    3.5577  -18.1103   21.7760 N   0  0  0  0  0  0  0  0  0  0  0  0
    4.2666  -16.8534   21.7302 C   0  0  0  0  0  0  0  0  0  0  0  0
    5.7230  -17.0357   21.5281 C   0  0  0  0  0  0  0  0  0  0  0  0
    6.2696  -18.1469   21.5199 O   0  0  0  0  0  0  0  0  0  0  0  0
    6.5128  -15.8728   21.3366 N   0  0  0  0  0  0  0  0  0  0  0  0
    7.9485  -15.9688   21.1922 C   0  0  1  0  0  0  0  0  0  0  0  0
    8.3667  -15.0972   20.0140 C   0  0  0  0  0  0  0  0  0  0  0  0
    7.3058  -13.6229   20.0535 S   0  0  0  0  0  0  0  0  0  0  0  0
    8.6210  -15.4983   22.4337 C   0  0  0  0  0  0  0  0  0  0  0  0
    8.6465  -14.2843   22.7300 O   0  0  0  0  0  0  0  0  0  0  0  0
    5.5436  -11.6313   26.6042 O   0  0  0  0  0  0  0  0  0  0  0  0
    6.3914  -12.7109   26.3748 C   0  0  0  0  0  0  0  0  0  0  0  0
    5.8602  -13.9730   26.3930 C   0  0  0  0  0  0  0  0  0  0  0  0
    6.6627  -15.0728   26.1707 C   0  0  0  0  0  0  0  0  0  0  0  0
    8.0303  -14.9412   25.9218 C   0  0  0  0  0  0  0  0  0  0  0  0
    8.8897  -16.1200   25.6967 C   0  0  0  0  0  0  0  0  0  0  0  0
    9.8401  -15.9611   24.5277 C   0  0  2  0  0  0  0  0  0  0  0  0
    9.2458  -16.4190   23.3045 N   0  0  0  0  0  0  0  0  0  0  0  0
   11.1034  -16.7095   24.7230 C   0  0  0  0  0  0  0  0  0  0  0  0
   11.3506  -17.7694   24.0814 O   0  0  0  0  0  0  0  0  0  0  0  0
    8.5335  -13.6603   25.9103 C   0  0  0  0  0  0  0  0  0  0  0  0
    7.7341  -12.5458   26.1329 C   0  0  0  0  0  0  0  0  0  0  0  0
   12.0680  -16.2890   25.6085 O   0  0  0  0  0  0  0  0  0  0  0  0
  2  1  1  0
  3  2  1  0
  3  5  1  0
  4  3  2  0
  6  5  1  0
  6  7  1  6
  7  8  1  0
  9  6  1  0
  9 18  1  0
 10  9  2  0
 11 12  1  0
 12 22  2  0
 13 14  2  0
 13 12  1  0
 14 15  1  0
 15 16  1  0
 15 21  2  0
 17 18  1  0
 17 16  1  1
 19 17  1  0
 20 19  2  0
 22 21  1  0
 23 19  1  0
M  END
$$$$
