GCY.pdb
     RDKit          3D

 23 23  0  0  1  0  0  0  0  0999 V2000
    4.6236  -19.0364   22.0738 N   0  0  0  0  0  0  0  0  0  0  0  0
    4.7769  -17.6360   22.3900 C   0  0  0  0  0  0  0  0  0  0  0  0
    6.0996  -17.1082   21.9812 C   0  0  0  0  0  0  0  0  0  0  0  0
    7.1151  -17.8135   21.9094 O   0  0  0  0  0  0  0  0  0  0  0  0
    6.1888  -15.7290   21.6609 N   0  0  0  0  0  0  0  0  0  0  0  0
    7.4650  -15.1214   21.3550 C   0  0  1  0  0  0  0  0  0  0  0  0
    7.2042  -13.8222   20.6021 C   0  0  0  0  0  0  0  0  0  0  0  0
    8.8125  -13.2459   19.9840 S   0  0  0  0  0  0  0  0  0  0  0  0
    8.2116  -14.8377   22.6108 C   0  0  0  0  0  0  0  0  0  0  0  0
    8.1422  -13.7173   23.1604 O   0  0  0  0  0  0  0  0  0  0  0  0
    5.8653  -11.3249   27.1300 O   0  0  0  0  0  0  0  0  0  0  0  0
    6.6332  -12.4269   26.7656 C   0  0  0  0  0  0  0  0  0  0  0  0
    7.9896  -12.2708   26.6597 C   0  0  0  0  0  0  0  0  0  0  0  0
    8.7902  -13.3355   26.3014 C   0  0  0  0  0  0  0  0  0  0  0  0
    8.2535  -14.5969   26.0365 C   0  0  0  0  0  0  0  0  0  0  0  0
    9.1105  -15.7317   25.6409 C   0  0  0  0  0  0  0  0  0  0  0  0
    9.8440  -15.5089   24.3343 C   0  0  2  0  0  0  0  0  0  0  0  0
    9.0163  -15.8338   23.2080 N   0  0  0  0  0  0  0  0  0  0  0  0
   11.0786  -16.3212   24.2357 C   0  0  0  0  0  0  0  0  0  0  0  0
   11.1840  -17.2669   23.4045 O   0  0  0  0  0  0  0  0  0  0  0  0
    6.8876  -14.7212   26.1512 C   0  0  0  0  0  0  0  0  0  0  0  0
    6.0721  -13.6554   26.5116 C   0  0  0  0  0  0  0  0  0  0  0  0
   12.1691  -16.0869   25.0401 O   0  0  0  0  0  0  0  0  0  0  0  0
  2  1  1  0
  3  2  1  0
  3  5  1  0
  4  3  2  0
  6  5  1  0
  6  7  1  1
  7  8  1  0
  9  6  1  0
  9 18  1  0
 10  9  2  0
 11 12  1  0
 12 22  2  0
 13 14  2  0
 13 12  1  0
 14 15  1  0
 15 16  1  0
 15 21  2  0
 17 18  1  0
 17 16  1  1
 19 17  1  0
 20 19  2  0
 22 21  1  0
 23 19  1  0
M  END
$$$$
