GCY.pdb
     RDKit          3D

 23 23  0  0  1  0  0  0  0  0999 V2000
   -3.3776  -25.9260   23.5211 N   0  0  0  0  0  0  0  0  0  0  0  0
   -4.6492  -25.3169   23.8321 C   0  0  0  0  0  0  0  0  0  0  0  0
   -4.6280  -24.6008   25.1291 C   0  0  0  0  0  0  0  0  0  0  0  0
   -4.8608  -25.1566   26.2110 O   0  0  0  0  0  0  0  0  0  0  0  0
   -4.3252  -23.2148   25.1121 N   0  0  0  0  0  0  0  0  0  0  0  0
   -4.3030  -22.4472   26.3375 C   0  0  1  0  0  0  0  0  0  0  0  0
   -3.5817  -21.1333   26.0618 C   0  0  0  0  0  0  0  0  0  0  0  0
   -1.8061  -21.5142   26.0093 S   0  0  0  0  0  0  0  0  0  0  0  0
   -5.6921  -22.1754   26.7971 C   0  0  0  0  0  0  0  0  0  0  0  0
   -6.5648  -21.7694   25.9997 O   0  0  0  0  0  0  0  0  0  0  0  0
   -6.1360  -27.8482   31.5423 O   0  0  0  0  0  0  0  0  0  0  0  0
   -6.6033  -26.8220   30.7266 C   0  0  0  0  0  0  0  0  0  0  0  0
   -7.5319  -25.9544   31.2369 C   0  0  0  0  0  0  0  0  0  0  0  0
   -8.0231  -24.9222   30.4647 C   0  0  0  0  0  0  0  0  0  0  0  0
   -7.5967  -24.7263   29.1497 C   0  0  0  0  0  0  0  0  0  0  0  0
   -8.1329  -23.6288   28.3209 C   0  0  0  0  0  0  0  0  0  0  0  0
   -7.4306  -22.3050   28.5425 C   0  0  2  0  0  0  0  0  0  0  0  0
   -6.0522  -22.3720   28.1491 N   0  0  0  0  0  0  0  0  0  0  0  0
   -7.4747  -21.8740   29.9590 C   0  0  0  0  0  0  0  0  0  0  0  0
   -6.4323  -21.8352   30.6717 O   0  0  0  0  0  0  0  0  0  0  0  0
   -6.6634  -25.6148   28.6663 C   0  0  0  0  0  0  0  0  0  0  0  0
   -6.1620  -26.6577   29.4355 C   0  0  0  0  0  0  0  0  0  0  0  0
   -8.6484  -21.4944   30.5670 O   0  0  0  0  0  0  0  0  0  0  0  0
  2  1  1  0
  3  2  1  0
  3  5  1  0
  4  3  2  0
  6  5  1  0
  6  7  1  6
  7  8  1  0
  9  6  1  0
  9 18  1  0
 10  9  2  0
 11 12  1  0
 12 22  2  0
 13 14  2  0
 13 12  1  0
 14 15  1  0
 15 16  1  0
 15 21  2  0
 17 18  1  0
 17 16  1  1
 19 17  1  0
 20 19  2  0
 22 21  1  0
 23 19  1  0
M  END
$$$$
