GCY.pdb
     RDKit          3D

 23 23  0  0  1  0  0  0  0  0999 V2000
    2.3906  -20.2685   23.3516 N   0  0  0  0  0  0  0  0  0  0  0  0
    3.0480  -19.0954   22.8261 C   0  0  0  0  0  0  0  0  0  0  0  0
    4.4749  -19.0261   23.2195 C   0  0  0  0  0  0  0  0  0  0  0  0
    4.9329  -19.6193   24.2053 O   0  0  0  0  0  0  0  0  0  0  0  0
    5.3422  -18.2394   22.4184 N   0  0  0  0  0  0  0  0  0  0  0  0
    6.7594  -18.1805   22.7001 C   0  0  1  0  0  0  0  0  0  0  0  0
    7.5130  -18.4765   21.4089 C   0  0  0  0  0  0  0  0  0  0  0  0
    9.2833  -18.4132   21.8122 S   0  0  0  0  0  0  0  0  0  0  0  0
    7.1264  -16.8284   23.2019 C   0  0  0  0  0  0  0  0  0  0  0  0
    6.5780  -15.8026   22.7445 O   0  0  0  0  0  0  0  0  0  0  0  0
   10.5697  -16.1288   30.5827 O   0  0  0  0  0  0  0  0  0  0  0  0
    9.9365  -15.8229   29.3817 C   0  0  0  0  0  0  0  0  0  0  0  0
   10.1518  -14.5899   28.8260 C   0  0  0  0  0  0  0  0  0  0  0  0
    9.5453  -14.2433   27.6366 C   0  0  0  0  0  0  0  0  0  0  0  0
    8.6992  -15.1265   26.9631 C   0  0  0  0  0  0  0  0  0  0  0  0
    8.0411  -14.7490   25.6969 C   0  0  0  0  0  0  0  0  0  0  0  0
    8.6705  -15.3859   24.4750 C   0  0  2  0  0  0  0  0  0  0  0  0
    8.1057  -16.6781   24.2092 N   0  0  0  0  0  0  0  0  0  0  0  0
   10.1350  -15.5549   24.6190 C   0  0  0  0  0  0  0  0  0  0  0  0
   10.6551  -16.6916   24.8022 O   0  0  0  0  0  0  0  0  0  0  0  0
    8.5030  -16.3571   27.5471 C   0  0  0  0  0  0  0  0  0  0  0  0
    9.1091  -16.7165   28.7448 C   0  0  0  0  0  0  0  0  0  0  0  0
   10.9993  -14.4869   24.5593 O   0  0  0  0  0  0  0  0  0  0  0  0
  2  1  1  0
  3  2  1  0
  3  5  1  0
  4  3  2  0
  6  5  1  0
  6  7  1  6
  7  8  1  0
  9  6  1  0
  9 18  1  0
 10  9  2  0
 11 12  1  0
 12 22  2  0
 13 14  2  0
 13 12  1  0
 14 15  1  0
 15 16  1  0
 15 21  2  0
 17 18  1  0
 17 16  1  1
 19 17  1  0
 20 19  2  0
 22 21  1  0
 23 19  1  0
M  END
$$$$
