GCY.pdb
     RDKit          3D

 23 23  0  0  1  0  0  0  0  0999 V2000
    5.2037  -19.9922   20.5290 N   0  0  0  0  0  0  0  0  0  0  0  0
    5.2315  -18.7016   21.1757 C   0  0  0  0  0  0  0  0  0  0  0  0
    6.4950  -17.9711   20.9201 C   0  0  0  0  0  0  0  0  0  0  0  0
    7.4570  -18.4742   20.3241 O   0  0  0  0  0  0  0  0  0  0  0  0
    6.5898  -16.6346   21.3865 N   0  0  0  0  0  0  0  0  0  0  0  0
    7.8237  -15.8915   21.2571 C   0  0  1  0  0  0  0  0  0  0  0  0
    7.5233  -14.5985   20.5085 C   0  0  0  0  0  0  0  0  0  0  0  0
    6.3425  -13.6678   21.5284 S   0  0  0  0  0  0  0  0  0  0  0  0
    8.3778  -15.5803   22.6029 C   0  0  0  0  0  0  0  0  0  0  0  0
    7.6223  -15.3808   23.5784 O   0  0  0  0  0  0  0  0  0  0  0  0
   10.9262  -14.7721   30.4959 O   0  0  0  0  0  0  0  0  0  0  0  0
   10.5198  -15.0150   29.1872 C   0  0  0  0  0  0  0  0  0  0  0  0
   10.7577  -16.2515   28.6489 C   0  0  0  0  0  0  0  0  0  0  0  0
   10.3722  -16.5372   27.3555 C   0  0  0  0  0  0  0  0  0  0  0  0
    9.7325  -15.5872   26.5569 C   0  0  0  0  0  0  0  0  0  0  0  0
    9.3321  -15.8907   25.1690 C   0  0  0  0  0  0  0  0  0  0  0  0
   10.3025  -15.3656   24.1310 C   0  0  2  0  0  0  0  0  0  0  0  0
    9.7743  -15.5040   22.8039 N   0  0  0  0  0  0  0  0  0  0  0  0
   11.6063  -16.0672   24.1728 C   0  0  0  0  0  0  0  0  0  0  0  0
   11.7353  -17.2500   23.7479 O   0  0  0  0  0  0  0  0  0  0  0  0
    9.5081  -14.3546   27.1265 C   0  0  0  0  0  0  0  0  0  0  0  0
    9.8922  -14.0565   28.4282 C   0  0  0  0  0  0  0  0  0  0  0  0
   12.7385  -15.4679   24.6732 O   0  0  0  0  0  0  0  0  0  0  0  0
  2  1  1  0
  3  2  1  0
  3  5  1  0
  4  3  2  0
  6  5  1  0
  6  7  1  1
  7  8  1  0
  9  6  1  0
  9 18  1  0
 10  9  2  0
 11 12  1  0
 12 22  2  0
 13 14  2  0
 13 12  1  0
 14 15  1  0
 15 16  1  0
 15 21  2  0
 17 18  1  0
 17 16  1  1
 19 17  1  0
 20 19  2  0
 22 21  1  0
 23 19  1  0
M  END
$$$$
