GCY.pdb
     RDKit          3D

 23 23  0  0  1  0  0  0  0  0999 V2000
    6.4688  -19.7960   25.4694 N   0  0  0  0  0  0  0  0  0  0  0  0
    6.4556  -18.3847   25.7737 C   0  0  0  0  0  0  0  0  0  0  0  0
    7.1924  -17.5851   24.7671 C   0  0  0  0  0  0  0  0  0  0  0  0
    7.9589  -18.0883   23.9347 O   0  0  0  0  0  0  0  0  0  0  0  0
    6.9991  -16.1796   24.7715 N   0  0  0  0  0  0  0  0  0  0  0  0
    7.7493  -15.3267   23.8766 C   0  0  1  0  0  0  0  0  0  0  0  0
    7.0304  -13.9860   23.7842 C   0  0  0  0  0  0  0  0  0  0  0  0
    6.3209  -13.6607   25.4248 S   0  0  0  0  0  0  0  0  0  0  0  0
    9.1294  -15.1263   24.3965 C   0  0  0  0  0  0  0  0  0  0  0  0
    9.3656  -14.2752   25.2807 O   0  0  0  0  0  0  0  0  0  0  0  0
    9.7872  -14.8710   30.5483 O   0  0  0  0  0  0  0  0  0  0  0  0
   10.2899  -15.2659   29.3121 C   0  0  0  0  0  0  0  0  0  0  0  0
   10.4531  -16.6041   29.0713 C   0  0  0  0  0  0  0  0  0  0  0  0
   10.9480  -17.0415   27.8603 C   0  0  0  0  0  0  0  0  0  0  0  0
   11.2967  -16.1465   26.8470 C   0  0  0  0  0  0  0  0  0  0  0  0
   11.8379  -16.6159   25.5565 C   0  0  0  0  0  0  0  0  0  0  0  0
   11.5314  -15.6881   24.3988 C   0  0  2  0  0  0  0  0  0  0  0  0
   10.2031  -15.8978   23.8981 N   0  0  0  0  0  0  0  0  0  0  0  0
   12.4725  -15.8671   23.2690 C   0  0  0  0  0  0  0  0  0  0  0  0
   12.0963  -16.3523   22.1648 O   0  0  0  0  0  0  0  0  0  0  0  0
   11.1212  -14.8090   27.1198 C   0  0  0  0  0  0  0  0  0  0  0  0
   10.6235  -14.3577   28.3361 C   0  0  0  0  0  0  0  0  0  0  0  0
   13.7982  -15.5140   23.3644 O   0  0  0  0  0  0  0  0  0  0  0  0
  2  1  1  0
  3  2  1  0
  3  5  1  0
  4  3  2  0
  6  5  1  0
  6  7  1  1
  7  8  1  0
  9  6  1  0
  9 18  1  0
 10  9  2  0
 11 12  1  0
 12 22  2  0
 13 14  2  0
 13 12  1  0
 14 15  1  0
 15 16  1  0
 15 21  2  0
 17 18  1  0
 17 16  1  1
 19 17  1  0
 20 19  2  0
 22 21  1  0
 23 19  1  0
M  END
$$$$
