GCY.pdb
     RDKit          3D

 23 23  0  0  1  0  0  0  0  0999 V2000
    9.8164  -19.6999   19.9280 N   0  0  0  0  0  0  0  0  0  0  0  0
    8.8652  -18.9380   20.7021 C   0  0  0  0  0  0  0  0  0  0  0  0
    9.3130  -17.5441   20.9300 C   0  0  0  0  0  0  0  0  0  0  0  0
   10.4299  -17.1299   20.5913 O   0  0  0  0  0  0  0  0  0  0  0  0
    8.4078  -16.6566   21.5670 N   0  0  0  0  0  0  0  0  0  0  0  0
    8.7832  -15.2871   21.8403 C   0  0  1  0  0  0  0  0  0  0  0  0
    7.6318  -14.3846   21.4130 C   0  0  0  0  0  0  0  0  0  0  0  0
    6.1131  -15.1259   22.0801 S   0  0  0  0  0  0  0  0  0  0  0  0
    9.0529  -15.1100   23.2932 C   0  0  0  0  0  0  0  0  0  0  0  0
    8.7397  -14.0520   23.8805 O   0  0  0  0  0  0  0  0  0  0  0  0
    6.4216  -10.7798   27.0198 O   0  0  0  0  0  0  0  0  0  0  0  0
    6.8102  -12.0872   26.7433 C   0  0  0  0  0  0  0  0  0  0  0  0
    8.0919  -12.4644   27.0438 C   0  0  0  0  0  0  0  0  0  0  0  0
    8.5208  -13.7502   26.7873 C   0  0  0  0  0  0  0  0  0  0  0  0
    7.6739  -14.7034   26.2185 C   0  0  0  0  0  0  0  0  0  0  0  0
    8.1385  -16.0750   25.9332 C   0  0  0  0  0  0  0  0  0  0  0  0
    9.5797  -16.1415   25.4713 C   0  0  2  0  0  0  0  0  0  0  0  0
    9.6706  -16.1388   24.0391 N   0  0  0  0  0  0  0  0  0  0  0  0
   10.2742  -17.3532   25.9647 C   0  0  0  0  0  0  0  0  0  0  0  0
   10.5145  -18.3338   25.2052 O   0  0  0  0  0  0  0  0  0  0  0  0
    6.3926  -14.2933   25.9280 C   0  0  0  0  0  0  0  0  0  0  0  0
    5.9503  -13.0008   26.1824 C   0  0  0  0  0  0  0  0  0  0  0  0
   10.6921  -17.4708   27.2697 O   0  0  0  0  0  0  0  0  0  0  0  0
  2  1  1  0
  3  2  1  0
  3  5  1  0
  4  3  2  0
  6  5  1  0
  6  7  1  1
  7  8  1  0
  9  6  1  0
  9 18  1  0
 10  9  2  0
 11 12  1  0
 12 22  2  0
 13 14  2  0
 13 12  1  0
 14 15  1  0
 15 16  1  0
 15 21  2  0
 17 18  1  0
 17 16  1  6
 19 17  1  0
 20 19  2  0
 22 21  1  0
 23 19  1  0
M  END
$$$$
