ICV.pdb
     RDKit          3D

 22 21  0  0  1  0  0  0  0  0999 V2000
   23.1321  -17.2640  -17.0072 C   0  0  0  0  0  0  0  0  0  0  0  0
   21.7335  -16.8425  -17.3573 C   0  0  0  0  0  0  0  0  0  0  0  0
   20.7956  -16.7826  -16.1811 C   0  0  2  0  0  0  0  0  0  0  0  0
   20.5903  -18.1669  -15.5892 C   0  0  0  0  0  0  0  0  0  0  0  0
   19.4904  -16.1694  -16.6157 C   0  0  2  0  0  0  0  0  0  0  0  0
   19.0577  -16.8789  -17.8139 N   0  0  0  0  0  0  0  0  0  0  0  0
   19.6241  -14.7207  -16.9801 C   0  0  0  0  0  0  0  0  0  0  0  0
   19.5217  -14.4018  -18.2164 O   0  0  0  0  0  0  0  0  0  0  0  0
   19.8513  -13.6799  -16.0756 N   0  0  0  0  0  0  0  0  0  0  0  0
   19.9535  -12.2950  -16.5659 C   0  0  1  0  0  0  0  0  0  0  0  0
   18.5491  -11.9844  -17.0854 C   0  0  0  0  0  0  0  0  0  0  0  0
   17.2429  -12.5047  -15.9887 S   0  0  0  0  0  0  0  0  0  0  0  0
   20.2339  -11.3768  -15.4413 C   0  0  0  0  0  0  0  0  0  0  0  0
   19.6691  -11.6051  -14.3182 O   0  0  0  0  0  0  0  0  0  0  0  0
   23.5581   -8.9140  -15.3586 C   0  0  0  0  0  0  0  0  0  0  0  0
   22.8657   -9.3982  -14.1099 C   0  0  2  0  0  0  0  0  0  0  0  0
   23.3776  -10.7470  -13.7038 C   0  0  0  0  0  0  0  0  0  0  0  0
   21.3609   -9.4194  -14.3292 C   0  0  2  0  0  0  0  0  0  0  0  0
   21.0785  -10.2540  -15.4845 N   0  0  0  0  0  0  0  0  0  0  0  0
   20.9407   -8.0176  -14.5937 C   0  0  0  0  0  0  0  0  0  0  0  0
   20.8316   -7.0891  -13.5777 O   0  0  0  0  0  0  0  0  0  0  0  0
   20.6718   -7.6410  -15.7631 O   0  0  0  0  0  0  0  0  0  0  0  0
  2  1  1  0
  3  4  1  6
  3  2  1  0
  3  5  1  0
  5  6  1  6
  7  5  1  0
  7  8  2  0
  9  7  1  0
 10  9  1  0
 10 13  1  0
 10 11  1  1
 12 11  1  0
 13 19  1  0
 13 14  2  0
 16 15  1  6
 16 17  1  0
 18 16  1  0
 18 19  1  6
 20 18  1  0
 20 21  1  0
 22 20  2  0
M  END
$$$$
