ICV.pdb
     RDKit          3D

 22 21  0  0  1  0  0  0  0  0999 V2000
   24.5662  -33.8362  -13.3758 C   0  0  0  0  0  0  0  0  0  0  0  0
   23.6041  -33.3141  -12.3472 C   0  0  0  0  0  0  0  0  0  0  0  0
   24.1826  -33.2066  -10.9613 C   0  0  2  0  0  0  0  0  0  0  0  0
   24.6552  -34.5651  -10.4717 C   0  0  0  0  0  0  0  0  0  0  0  0
   23.1520  -32.6147  -10.0361 C   0  0  2  0  0  0  0  0  0  0  0  0
   22.8850  -31.2579  -10.4985 N   0  0  0  0  0  0  0  0  0  0  0  0
   23.6346  -32.5152   -8.6194 C   0  0  0  0  0  0  0  0  0  0  0  0
   24.5063  -31.6179   -8.3449 O   0  0  0  0  0  0  0  0  0  0  0  0
   23.2078  -33.3257   -7.5640 N   0  0  0  0  0  0  0  0  0  0  0  0
   23.8100  -33.1651   -6.2297 C   0  0  1  0  0  0  0  0  0  0  0  0
   22.6700  -33.5049   -5.2686 C   0  0  0  0  0  0  0  0  0  0  0  0
   23.1383  -33.4572   -3.5486 S   0  0  0  0  0  0  0  0  0  0  0  0
   24.8821  -34.1641   -6.0321 C   0  0  0  0  0  0  0  0  0  0  0  0
   24.7032  -35.3429   -6.4913 O   0  0  0  0  0  0  0  0  0  0  0  0
   28.7536  -33.1581   -4.7305 C   0  0  0  0  0  0  0  0  0  0  0  0
   28.4704  -34.3585   -5.5976 C   0  0  2  0  0  0  0  0  0  0  0  0
   28.5150  -33.9911   -7.0499 C   0  0  0  0  0  0  0  0  0  0  0  0
   27.1271  -34.9631   -5.2198 C   0  0  2  0  0  0  0  0  0  0  0  0
   26.1054  -33.9421   -5.3763 N   0  0  0  0  0  0  0  0  0  0  0  0
   27.2232  -35.3789   -3.7952 C   0  0  0  0  0  0  0  0  0  0  0  0
   27.9613  -36.4800   -3.4091 O   0  0  0  0  0  0  0  0  0  0  0  0
   26.6271  -34.7292   -2.8984 O   0  0  0  0  0  0  0  0  0  0  0  0
  2  1  1  0
  3  4  1  1
  3  2  1  0
  3  5  1  0
  5  6  1  6
  7  5  1  0
  7  8  2  0
  9  7  1  0
 10  9  1  0
 10 13  1  0
 10 11  1  1
 12 11  1  0
 13 19  1  0
 13 14  2  0
 16 15  1  1
 16 17  1  0
 18 16  1  0
 18 19  1  1
 20 18  1  0
 20 21  1  0
 22 20  2  0
M  END
$$$$
