ICV.pdb
     RDKit          3D

 22 21  0  0  1  0  0  0  0  0999 V2000
   14.5294  -13.0465  -18.5412 C   0  0  0  0  0  0  0  0  0  0  0  0
   15.9429  -13.0665  -18.0334 C   0  0  0  0  0  0  0  0  0  0  0  0
   16.3268  -11.8510  -17.2323 C   0  0  2  0  0  0  0  0  0  0  0  0
   16.1934  -10.5921  -18.0725 C   0  0  0  0  0  0  0  0  0  0  0  0
   17.7300  -12.0205  -16.7117 C   0  0  2  0  0  0  0  0  0  0  0  0
   17.7306  -13.1937  -15.8459 N   0  0  0  0  0  0  0  0  0  0  0  0
   18.1850  -10.8558  -15.8833 C   0  0  0  0  0  0  0  0  0  0  0  0
   17.5386  -10.5961  -14.8085 O   0  0  0  0  0  0  0  0  0  0  0  0
   19.2658  -10.0238  -16.1876 N   0  0  0  0  0  0  0  0  0  0  0  0
   19.5187   -8.8259  -15.3693 C   0  0  1  0  0  0  0  0  0  0  0  0
   20.9372   -9.0365  -14.8379 C   0  0  0  0  0  0  0  0  0  0  0  0
   21.6203   -7.6073  -14.0191 S   0  0  0  0  0  0  0  0  0  0  0  0
   19.5297   -7.6193  -16.2240 C   0  0  0  0  0  0  0  0  0  0  0  0
   20.2371   -7.6374  -17.2879 O   0  0  0  0  0  0  0  0  0  0  0  0
   16.6334   -4.6485  -16.1123 C   0  0  0  0  0  0  0  0  0  0  0  0
   17.5416   -4.8675  -17.2957 C   0  0  2  0  0  0  0  0  0  0  0  0
   16.9795   -5.9092  -18.2150 C   0  0  0  0  0  0  0  0  0  0  0  0
   18.9340   -5.2456  -16.8150 C   0  0  2  0  0  0  0  0  0  0  0  0
   18.8239   -6.4286  -15.9787 N   0  0  0  0  0  0  0  0  0  0  0  0
   19.4443   -4.0989  -16.0173 C   0  0  0  0  0  0  0  0  0  0  0  0
   19.5650   -4.1676  -14.6435 O   0  0  0  0  0  0  0  0  0  0  0  0
   19.7819   -3.0274  -16.5824 O   0  0  0  0  0  0  0  0  0  0  0  0
  2  1  1  0
  3  4  1  6
  3  2  1  0
  3  5  1  0
  5  6  1  1
  7  5  1  0
  7  8  2  0
  9  7  1  0
 10  9  1  0
 10 13  1  0
 10 11  1  6
 12 11  1  0
 13 19  1  0
 13 14  2  0
 16 15  1  1
 16 17  1  0
 18 16  1  0
 18 19  1  1
 20 18  1  0
 20 21  1  0
 22 20  2  0
M  END
$$$$
