ICV.pdb
     RDKit          3D

 22 21  0  0  1  0  0  0  0  0999 V2000
   19.1623  -13.3417  -21.3655 C   0  0  0  0  0  0  0  0  0  0  0  0
   20.2356  -13.4212  -20.3177 C   0  0  0  0  0  0  0  0  0  0  0  0
   20.0541  -12.4570  -19.1758 C   0  0  2  0  0  0  0  0  0  0  0  0
   20.0652  -11.0233  -19.6789 C   0  0  0  0  0  0  0  0  0  0  0  0
   21.1329  -12.6902  -18.1509 C   0  0  2  0  0  0  0  0  0  0  0  0
   21.0187  -14.0757  -17.7113 N   0  0  0  0  0  0  0  0  0  0  0  0
   20.9753  -11.8237  -16.9368 C   0  0  0  0  0  0  0  0  0  0  0  0
   20.2202  -12.2465  -15.9927 O   0  0  0  0  0  0  0  0  0  0  0  0
   21.5903  -10.5832  -16.7469 N   0  0  0  0  0  0  0  0  0  0  0  0
   21.2929   -9.7978  -15.5371 C   0  0  1  0  0  0  0  0  0  0  0  0
   21.9210  -10.6131  -14.4059 C   0  0  0  0  0  0  0  0  0  0  0  0
   23.6364  -11.0185  -14.6755 S   0  0  0  0  0  0  0  0  0  0  0  0
   21.9865   -8.4932  -15.5945 C   0  0  0  0  0  0  0  0  0  0  0  0
   23.1251   -8.4379  -16.1717 O   0  0  0  0  0  0  0  0  0  0  0  0
   20.0788   -4.8916  -15.6182 C   0  0  0  0  0  0  0  0  0  0  0  0
   21.4859   -5.1089  -16.1142 C   0  0  2  0  0  0  0  0  0  0  0  0
   21.4821   -5.6582  -17.5086 C   0  0  0  0  0  0  0  0  0  0  0  0
   22.2341   -6.0259  -15.1593 C   0  0  2  0  0  0  0  0  0  0  0  0
   21.5083   -7.2812  -15.0671 N   0  0  0  0  0  0  0  0  0  0  0  0
   22.2578   -5.3485  -13.8356 C   0  0  0  0  0  0  0  0  0  0  0  0
   23.1021   -4.2865  -13.5793 O   0  0  0  0  0  0  0  0  0  0  0  0
   21.5002   -5.7319  -12.9079 O   0  0  0  0  0  0  0  0  0  0  0  0
  2  1  1  0
  3  4  1  6
  3  2  1  0
  3  5  1  0
  5  6  1  1
  7  5  1  0
  7  8  2  0
  9  7  1  0
 10  9  1  0
 10 13  1  0
 10 11  1  1
 12 11  1  0
 13 19  1  0
 13 14  2  0
 16 15  1  1
 16 17  1  0
 18 16  1  0
 18 19  1  1
 20 18  1  0
 20 21  1  0
 22 20  2  0
M  END
$$$$
