ICV.pdb
     RDKit          3D

 22 21  0  0  1  0  0  0  0  0999 V2000
   19.6644  -11.6259  -22.0255 C   0  0  0  0  0  0  0  0  0  0  0  0
   20.2818  -11.9100  -20.6860 C   0  0  0  0  0  0  0  0  0  0  0  0
   19.9662  -10.8824  -19.6319 C   0  0  2  0  0  0  0  0  0  0  0  0
   20.5384   -9.5283  -20.0161 C   0  0  0  0  0  0  0  0  0  0  0  0
   20.5011  -11.3506  -18.3040 C   0  0  2  0  0  0  0  0  0  0  0  0
   19.8948  -12.6475  -18.0273 N   0  0  0  0  0  0  0  0  0  0  0  0
   20.1297  -10.4357  -17.1750 C   0  0  0  0  0  0  0  0  0  0  0  0
   19.0019  -10.6233  -16.5978 O   0  0  0  0  0  0  0  0  0  0  0  0
   20.9191   -9.3873  -16.6945 N   0  0  0  0  0  0  0  0  0  0  0  0
   20.4126   -8.5290  -15.6103 C   0  0  1  0  0  0  0  0  0  0  0  0
   20.3509   -9.4626  -14.4006 C   0  0  0  0  0  0  0  0  0  0  0  0
   20.1923   -8.6129  -12.8410 S   0  0  0  0  0  0  0  0  0  0  0  0
   21.3896   -7.4608  -15.3088 C   0  0  0  0  0  0  0  0  0  0  0  0
   22.5939   -7.7982  -15.0473 O   0  0  0  0  0  0  0  0  0  0  0  0
   20.5776   -3.3766  -15.9562 C   0  0  0  0  0  0  0  0  0  0  0  0
   21.9620   -3.9631  -16.0696 C   0  0  2  0  0  0  0  0  0  0  0  0
   22.2199   -4.4592  -17.4601 C   0  0  0  0  0  0  0  0  0  0  0  0
   22.1385   -5.0718  -15.0438 C   0  0  2  0  0  0  0  0  0  0  0  0
   21.1210   -6.0813  -15.2812 N   0  0  0  0  0  0  0  0  0  0  0  0
   21.9487   -4.4573  -13.7029 C   0  0  0  0  0  0  0  0  0  0  0  0
   22.9055   -3.6371  -13.1388 O   0  0  0  0  0  0  0  0  0  0  0  0
   20.8995   -4.6731  -13.0439 O   0  0  0  0  0  0  0  0  0  0  0  0
  2  1  1  0
  3  4  1  6
  3  2  1  0
  3  5  1  0
  5  6  1  1
  7  5  1  0
  7  8  2  0
  9  7  1  0
 10  9  1  0
 10 13  1  0
 10 11  1  1
 12 11  1  0
 13 19  1  0
 13 14  2  0
 16 15  1  6
 16 17  1  0
 18 16  1  0
 18 19  1  6
 20 18  1  0
 20 21  1  0
 22 20  2  0
M  END
$$$$
