ICV.pdb
     RDKit          3D

 22 21  0  0  1  0  0  0  0  0999 V2000
   16.4241  -14.4905  -18.0631 C   0  0  0  0  0  0  0  0  0  0  0  0
   17.7278  -13.8160  -17.7442 C   0  0  0  0  0  0  0  0  0  0  0  0
   17.5803  -12.4782  -17.0696 C   0  0  2  0  0  0  0  0  0  0  0  0
   16.7724  -11.5275  -17.9370 C   0  0  0  0  0  0  0  0  0  0  0  0
   18.9460  -11.9209  -16.7647 C   0  0  2  0  0  0  0  0  0  0  0  0
   19.6490  -12.9154  -15.9629 N   0  0  0  0  0  0  0  0  0  0  0  0
   18.8891  -10.6580  -15.9576 C   0  0  0  0  0  0  0  0  0  0  0  0
   18.1411  -10.6442  -14.9181 O   0  0  0  0  0  0  0  0  0  0  0  0
   19.5916   -9.4849  -16.2464 N   0  0  0  0  0  0  0  0  0  0  0  0
   19.4888   -8.3296  -15.3390 C   0  0  1  0  0  0  0  0  0  0  0  0
   20.8796   -7.6958  -15.3917 C   0  0  0  0  0  0  0  0  0  0  0  0
   22.0128   -8.3408  -14.1753 S   0  0  0  0  0  0  0  0  0  0  0  0
   18.5225   -7.3467  -15.8745 C   0  0  0  0  0  0  0  0  0  0  0  0
   18.0974   -7.5048  -17.0690 O   0  0  0  0  0  0  0  0  0  0  0  0
   15.4672   -5.9589  -13.9466 C   0  0  0  0  0  0  0  0  0  0  0  0
   15.6460   -5.8452  -15.4393 C   0  0  2  0  0  0  0  0  0  0  0  0
   15.3970   -7.1626  -16.1092 C   0  0  0  0  0  0  0  0  0  0  0  0
   17.0371   -5.3176  -15.7540 C   0  0  2  0  0  0  0  0  0  0  0  0
   18.0128   -6.2321  -15.1862 N   0  0  0  0  0  0  0  0  0  0  0  0
   17.1508   -3.9816  -15.1106 C   0  0  0  0  0  0  0  0  0  0  0  0
   16.5690   -2.8583  -15.6637 O   0  0  0  0  0  0  0  0  0  0  0  0
   17.7872   -3.8426  -14.0349 O   0  0  0  0  0  0  0  0  0  0  0  0
  2  1  1  0
  3  4  1  6
  3  2  1  0
  3  5  1  0
  5  6  1  1
  7  5  1  0
  7  8  2  0
  9  7  1  0
 10  9  1  0
 10 13  1  0
 10 11  1  6
 12 11  1  0
 13 19  1  0
 13 14  2  0
 16 15  1  1
 16 17  1  0
 18 16  1  0
 18 19  1  1
 20 18  1  0
 20 21  1  0
 22 20  2  0
M  END
$$$$
