ICV.pdb
     RDKit          3D

 22 21  0  0  1  0  0  0  0  0999 V2000
   19.8926  -13.8273  -17.5036 C   0  0  0  0  0  0  0  0  0  0  0  0
   18.5387  -13.2147  -17.7227 C   0  0  0  0  0  0  0  0  0  0  0  0
   18.4623  -11.7508  -17.3791 C   0  0  2  0  0  0  0  0  0  0  0  0
   19.6218  -10.9932  -18.0037 C   0  0  0  0  0  0  0  0  0  0  0  0
   18.4420  -11.5912  -15.8815 C   0  0  2  0  0  0  0  0  0  0  0  0
   17.3102  -12.3619  -15.3804 N   0  0  0  0  0  0  0  0  0  0  0  0
   18.2362  -10.1685  -15.4535 C   0  0  0  0  0  0  0  0  0  0  0  0
   17.1004   -9.6283  -15.6953 O   0  0  0  0  0  0  0  0  0  0  0  0
   19.1878   -9.3763  -14.8055 N   0  0  0  0  0  0  0  0  0  0  0  0
   18.9078   -7.9514  -14.5606 C   0  0  1  0  0  0  0  0  0  0  0  0
   17.8413   -7.9695  -13.4647 C   0  0  0  0  0  0  0  0  0  0  0  0
   18.2957   -8.9284  -12.0316 S   0  0  0  0  0  0  0  0  0  0  0  0
   20.1084   -7.2840  -14.0133 C   0  0  0  0  0  0  0  0  0  0  0  0
   20.8612   -7.9464  -13.2215 O   0  0  0  0  0  0  0  0  0  0  0  0
   22.0249   -4.3919  -16.0612 C   0  0  0  0  0  0  0  0  0  0  0  0
   22.6955   -5.2330  -15.0047 C   0  0  2  0  0  0  0  0  0  0  0  0
   23.1125   -6.5598  -15.5631 C   0  0  0  0  0  0  0  0  0  0  0  0
   21.7670   -5.4006  -13.8120 C   0  0  2  0  0  0  0  0  0  0  0  0
   20.5141   -5.9655  -14.2832 N   0  0  0  0  0  0  0  0  0  0  0  0
   21.5379   -4.0447  -13.2459 C   0  0  0  0  0  0  0  0  0  0  0  0
   22.5008   -3.3998  -12.4954 O   0  0  0  0  0  0  0  0  0  0  0  0
   20.4486   -3.4469  -13.4401 O   0  0  0  0  0  0  0  0  0  0  0  0
  2  1  1  0
  3  4  1  1
  3  2  1  0
  3  5  1  0
  5  6  1  1
  7  5  1  0
  7  8  2  0
  9  7  1  0
 10  9  1  0
 10 13  1  0
 10 11  1  1
 12 11  1  0
 13 19  1  0
 13 14  2  0
 16 15  1  6
 16 17  1  0
 18 16  1  0
 18 19  1  6
 20 18  1  0
 20 21  1  0
 22 20  2  0
M  END
$$$$
