VTY.pdb
     RDKit          3D

 27 27  0  0  1  0  0  0  0  0999 V2000
   17.9607   -5.6755  -17.0098 C   0  0  0  0  0  0  0  0  0  0  0  0
   19.2064   -4.8535  -17.2511 C   0  0  1  0  0  0  0  0  0  0  0  0
   18.9901   -3.3912  -16.9526 C   0  0  0  0  0  0  0  0  0  0  0  0
   20.4079   -5.4195  -16.5390 C   0  0  2  0  0  0  0  0  0  0  0  0
   21.5715   -4.6840  -17.0373 N   0  0  0  0  0  0  0  0  0  0  0  0
   20.6286   -6.8440  -16.7773 C   0  0  0  0  0  0  0  0  0  0  0  0
   20.9588   -7.1967  -17.9506 O   0  0  0  0  0  0  0  0  0  0  0  0
   23.0928   -9.2264  -15.9238 C   0  0  0  0  0  0  0  0  0  0  0  0
   21.8362   -9.7869  -15.3373 C   0  0  1  0  0  0  0  0  0  0  0  0
   21.7107   -9.3263  -14.0064 O   0  0  0  0  0  0  0  0  0  0  0  0
   20.5956   -9.2738  -16.0803 C   0  0  2  0  0  0  0  0  0  0  0  0
   20.5072   -7.8675  -15.8170 N   0  0  0  0  0  0  0  0  0  0  0  0
   19.3925  -10.0078  -15.5539 C   0  0  0  0  0  0  0  0  0  0  0  0
   18.8652   -9.6411  -14.4736 O   0  0  0  0  0  0  0  0  0  0  0  0
   14.0414   -6.7726  -16.3654 O   0  0  0  0  0  0  0  0  0  0  0  0
   14.6721   -8.0182  -16.4738 C   0  0  0  0  0  0  0  0  0  0  0  0
   14.4906   -8.9758  -15.4970 C   0  0  0  0  0  0  0  0  0  0  0  0
   15.0943  -10.2131  -15.5685 C   0  0  0  0  0  0  0  0  0  0  0  0
   15.9159  -10.5413  -16.6396 C   0  0  0  0  0  0  0  0  0  0  0  0
   16.5457  -11.8621  -16.6525 C   0  0  0  0  0  0  0  0  0  0  0  0
   17.7273  -11.9015  -15.7331 C   0  0  2  0  0  0  0  0  0  0  0  0
   18.8358  -11.1119  -16.2536 N   0  0  0  0  0  0  0  0  0  0  0  0
   18.1245  -13.2608  -15.3923 C   0  0  0  0  0  0  0  0  0  0  0  0
   19.3539  -13.8497  -15.5708 O   0  0  0  0  0  0  0  0  0  0  0  0
   16.0851   -9.5661  -17.6093 C   0  0  0  0  0  0  0  0  0  0  0  0
   15.4834   -8.3289  -17.5411 C   0  0  0  0  0  0  0  0  0  0  0  0
   17.2297  -14.0096  -14.8632 O   0  0  0  0  0  0  0  0  0  0  0  0
  2  3  1  1
  2  1  1  0
  4  2  1  0
  4  5  1  6
  6  7  2  0
  6  4  1  0
  9  8  1  6
  9 11  1  0
 10  9  1  0
 11 12  1  1
 12  6  1  0
 13 14  2  0
 13 11  1  0
 16 15  1  0
 17 16  2  0
 18 17  1  0
 19 25  1  0
 19 18  2  0
 20 19  1  0
 21 20  1  6
 21 22  1  0
 22 13  1  0
 23 21  1  0
 24 23  1  0
 25 26  2  0
 26 16  1  0
 27 23  2  0
M  END
$$$$
