VTY.pdb
     RDKit          3D

 27 27  0  0  1  0  0  0  0  0999 V2000
   35.0926  -27.0226  -18.1900 C   0  0  0  0  0  0  0  0  0  0  0  0
   33.9060  -27.8972  -18.5259 C   0  0  1  0  0  0  0  0  0  0  0  0
   32.6569  -27.0902  -18.7768 C   0  0  0  0  0  0  0  0  0  0  0  0
   34.2086  -28.8609  -19.6444 C   0  0  2  0  0  0  0  0  0  0  0  0
   34.4345  -28.0502  -20.8423 N   0  0  0  0  0  0  0  0  0  0  0  0
   33.1316  -29.8070  -19.9267 C   0  0  0  0  0  0  0  0  0  0  0  0
   32.1930  -29.4157  -20.6855 O   0  0  0  0  0  0  0  0  0  0  0  0
   31.5295  -34.4049  -20.3245 C   0  0  0  0  0  0  0  0  0  0  0  0
   32.5768  -33.3585  -20.1106 C   0  0  1  0  0  0  0  0  0  0  0  0
   33.2142  -33.0943  -21.3447 O   0  0  0  0  0  0  0  0  0  0  0  0
   31.9550  -32.0290  -19.6635 C   0  0  2  0  0  0  0  0  0  0  0  0
   33.0403  -31.1220  -19.4300 N   0  0  0  0  0  0  0  0  0  0  0  0
   31.1654  -32.2757  -18.4069 C   0  0  0  0  0  0  0  0  0  0  0  0
   31.7608  -32.3391  -17.3020 O   0  0  0  0  0  0  0  0  0  0  0  0
   25.1335  -32.8995  -12.1818 O   0  0  0  0  0  0  0  0  0  0  0  0
   26.0092  -32.5708  -13.2239 C   0  0  0  0  0  0  0  0  0  0  0  0
   25.5138  -32.1366  -14.4364 C   0  0  0  0  0  0  0  0  0  0  0  0
   26.3437  -31.8038  -15.4856 C   0  0  0  0  0  0  0  0  0  0  0  0
   27.7239  -31.8956  -15.3557 C   0  0  0  0  0  0  0  0  0  0  0  0
   28.5546  -31.5480  -16.5092 C   0  0  0  0  0  0  0  0  0  0  0  0
   28.9679  -32.7754  -17.2613 C   0  0  2  0  0  0  0  0  0  0  0  0
   29.7545  -32.4395  -18.4410 N   0  0  0  0  0  0  0  0  0  0  0  0
   27.8417  -33.6451  -17.5729 C   0  0  0  0  0  0  0  0  0  0  0  0
   27.3090  -34.6458  -16.7952 O   0  0  0  0  0  0  0  0  0  0  0  0
   28.2008  -32.3335  -14.1307 C   0  0  0  0  0  0  0  0  0  0  0  0
   27.3745  -32.6668  -13.0802 C   0  0  0  0  0  0  0  0  0  0  0  0
   27.2702  -33.4682  -18.7057 O   0  0  0  0  0  0  0  0  0  0  0  0
  2  3  1  6
  2  1  1  0
  4  2  1  0
  4  5  1  6
  6  7  2  0
  6  4  1  0
  9  8  1  6
  9 11  1  0
 10  9  1  0
 11 12  1  1
 12  6  1  0
 13 14  2  0
 13 11  1  0
 16 15  1  0
 17 16  2  0
 18 17  1  0
 19 25  1  0
 19 18  2  0
 20 19  1  0
 21 20  1  6
 21 22  1  0
 22 13  1  0
 23 21  1  0
 24 23  1  0
 25 26  2  0
 26 16  1  0
 27 23  2  0
M  END
$$$$
