VTY.pdb
     RDKit          3D

 27 27  0  0  1  0  0  0  0  0999 V2000
   27.4184  -14.2451  -15.7155 C   0  0  0  0  0  0  0  0  0  0  0  0
   26.5206  -13.1549  -16.2550 C   0  0  1  0  0  0  0  0  0  0  0  0
   27.1173  -12.4696  -17.4586 C   0  0  0  0  0  0  0  0  0  0  0  0
   25.1172  -13.6450  -16.5030 C   0  0  2  0  0  0  0  0  0  0  0  0
   25.2236  -14.7409  -17.4678 N   0  0  0  0  0  0  0  0  0  0  0  0
   24.2188  -12.6333  -17.0546 C   0  0  0  0  0  0  0  0  0  0  0  0
   24.3309  -12.3618  -18.2889 O   0  0  0  0  0  0  0  0  0  0  0  0
   20.8636  -12.7455  -17.7659 C   0  0  0  0  0  0  0  0  0  0  0  0
   20.9432  -11.5475  -16.8738 C   0  0  1  0  0  0  0  0  0  0  0  0
   20.7027  -11.9558  -15.5417 O   0  0  0  0  0  0  0  0  0  0  0  0
   22.3514  -10.9382  -16.8810 C   0  0  2  0  0  0  0  0  0  0  0  0
   23.2337  -11.9280  -16.3361 N   0  0  0  0  0  0  0  0  0  0  0  0
   22.3321   -9.6942  -16.0351 C   0  0  0  0  0  0  0  0  0  0  0  0
   23.3192   -9.4243  -15.3055 O   0  0  0  0  0  0  0  0  0  0  0  0
   21.8314   -1.2409  -14.3514 O   0  0  0  0  0  0  0  0  0  0  0  0
   21.9827   -2.5915  -14.6889 C   0  0  0  0  0  0  0  0  0  0  0  0
   21.8785   -2.9944  -16.0046 C   0  0  0  0  0  0  0  0  0  0  0  0
   22.0213   -4.3143  -16.3759 C   0  0  0  0  0  0  0  0  0  0  0  0
   22.2782   -5.2951  -15.4261 C   0  0  0  0  0  0  0  0  0  0  0  0
   22.4007   -6.6822  -15.8759 C   0  0  0  0  0  0  0  0  0  0  0  0
   21.2403   -7.5032  -15.4040 C   0  0  2  0  0  0  0  0  0  0  0  0
   21.2178   -8.8128  -16.0424 N   0  0  0  0  0  0  0  0  0  0  0  0
   19.9708   -6.8005  -15.5314 C   0  0  0  0  0  0  0  0  0  0  0  0
   19.3007   -6.0884  -14.5650 O   0  0  0  0  0  0  0  0  0  0  0  0
   22.3791   -4.8699  -14.1112 C   0  0  0  0  0  0  0  0  0  0  0  0
   22.2370   -3.5520  -13.7367 C   0  0  0  0  0  0  0  0  0  0  0  0
   19.3975   -6.8444  -16.6763 O   0  0  0  0  0  0  0  0  0  0  0  0
  2  3  1  6
  2  1  1  0
  4  2  1  0
  4  5  1  6
  6  7  2  0
  6  4  1  0
  9  8  1  6
  9 11  1  0
 10  9  1  0
 11 12  1  1
 12  6  1  0
 13 14  2  0
 13 11  1  0
 16 15  1  0
 17 16  2  0
 18 17  1  0
 19 25  1  0
 19 18  2  0
 20 19  1  0
 21 20  1  6
 21 22  1  0
 22 13  1  0
 23 21  1  0
 24 23  1  0
 25 26  2  0
 26 16  1  0
 27 23  2  0
M  END
$$$$
