VTY.pdb
     RDKit          3D

 27 27  0  0  1  0  0  0  0  0999 V2000
   18.5150  -12.6597  -17.7346 C   0  0  0  0  0  0  0  0  0  0  0  0
   18.9762  -11.5115  -16.8660 C   0  0  1  0  0  0  0  0  0  0  0  0
   19.0216  -10.2077  -17.6226 C   0  0  0  0  0  0  0  0  0  0  0  0
   18.1852  -11.4128  -15.5870 C   0  0  2  0  0  0  0  0  0  0  0  0
   16.7774  -11.3104  -15.9754 N   0  0  0  0  0  0  0  0  0  0  0  0
   18.5200  -10.2526  -14.7644 C   0  0  0  0  0  0  0  0  0  0  0  0
   19.6684  -10.2295  -14.2253 O   0  0  0  0  0  0  0  0  0  0  0  0
   19.2481   -6.8052  -15.4386 C   0  0  0  0  0  0  0  0  0  0  0  0
   18.0384   -6.7953  -14.5588 C   0  0  1  0  0  0  0  0  0  0  0  0
   16.8838   -6.8557  -15.3727 O   0  0  0  0  0  0  0  0  0  0  0  0
   17.9889   -8.0400  -13.6630 C   0  0  2  0  0  0  0  0  0  0  0  0
   17.6786   -9.1509  -14.5142 N   0  0  0  0  0  0  0  0  0  0  0  0
   16.9229   -7.8309  -12.6222 C   0  0  0  0  0  0  0  0  0  0  0  0
   15.8720   -8.5189  -12.6631 O   0  0  0  0  0  0  0  0  0  0  0  0
   11.4357   -6.9560   -6.1850 O   0  0  0  0  0  0  0  0  0  0  0  0
   12.4447   -7.1741   -7.1312 C   0  0  0  0  0  0  0  0  0  0  0  0
   13.6614   -7.6955   -6.7413 C   0  0  0  0  0  0  0  0  0  0  0  0
   14.6788   -7.9243   -7.6430 C   0  0  0  0  0  0  0  0  0  0  0  0
   14.5110   -7.6340   -8.9912 C   0  0  0  0  0  0  0  0  0  0  0  0
   15.6322   -7.8791   -9.8990 C   0  0  0  0  0  0  0  0  0  0  0  0
   16.0543   -6.6153  -10.5829 C   0  0  2  0  0  0  0  0  0  0  0  0
   17.0777   -6.8683  -11.5888 N   0  0  0  0  0  0  0  0  0  0  0  0
   16.4451   -5.5747   -9.6415 C   0  0  0  0  0  0  0  0  0  0  0  0
   15.6850   -4.5257   -9.1810 O   0  0  0  0  0  0  0  0  0  0  0  0
   13.2825   -7.1113   -9.3619 C   0  0  0  0  0  0  0  0  0  0  0  0
   12.2638   -6.8815   -8.4637 C   0  0  0  0  0  0  0  0  0  0  0  0
   17.6389   -5.6305   -9.1801 O   0  0  0  0  0  0  0  0  0  0  0  0
  2  3  1  6
  2  1  1  0
  4  2  1  0
  4  5  1  6
  6  7  2  0
  6  4  1  0
  9  8  1  6
  9 11  1  0
 10  9  1  0
 11 12  1  6
 12  6  1  0
 13 14  2  0
 13 11  1  0
 16 15  1  0
 17 16  2  0
 18 17  1  0
 19 25  1  0
 19 18  2  0
 20 19  1  0
 21 20  1  1
 21 22  1  0
 22 13  1  0
 23 21  1  0
 24 23  1  0
 25 26  2  0
 26 16  1  0
 27 23  2  0
M  END
$$$$
