VTY.pdb
     RDKit          3D

 27 27  0  0  1  0  0  0  0  0999 V2000
   25.5087  -11.9322  -16.8347 C   0  0  0  0  0  0  0  0  0  0  0  0
   25.8403  -13.4032  -16.7255 C   0  0  1  0  0  0  0  0  0  0  0  0
   25.0105  -14.0973  -15.6748 C   0  0  0  0  0  0  0  0  0  0  0  0
   25.7855  -14.0991  -18.0611 C   0  0  2  0  0  0  0  0  0  0  0  0
   24.7198  -13.4487  -18.8256 N   0  0  0  0  0  0  0  0  0  0  0  0
   25.4867  -15.5269  -17.9801 C   0  0  0  0  0  0  0  0  0  0  0  0
   24.2747  -15.8624  -17.8116 O   0  0  0  0  0  0  0  0  0  0  0  0
   26.0231  -18.2077  -20.4021 C   0  0  0  0  0  0  0  0  0  0  0  0
   26.7019  -18.6770  -19.1545 C   0  0  1  0  0  0  0  0  0  0  0  0
   28.0697  -18.3254  -19.2213 O   0  0  0  0  0  0  0  0  0  0  0  0
   26.1437  -17.9672  -17.9140 C   0  0  2  0  0  0  0  0  0  0  0  0
   26.4277  -16.5711  -18.0727 N   0  0  0  0  0  0  0  0  0  0  0  0
   26.8274  -18.5321  -16.6988 C   0  0  0  0  0  0  0  0  0  0  0  0
   27.6245  -17.8136  -16.0448 O   0  0  0  0  0  0  0  0  0  0  0  0
   25.4978  -21.1786   -8.6610 O   0  0  0  0  0  0  0  0  0  0  0  0
   25.5844  -20.7162   -9.9800 C   0  0  0  0  0  0  0  0  0  0  0  0
   24.5502  -20.9434  -10.8648 C   0  0  0  0  0  0  0  0  0  0  0  0
   24.5986  -20.5039  -12.1706 C   0  0  0  0  0  0  0  0  0  0  0  0
   25.7041  -19.8091  -12.6452 C   0  0  0  0  0  0  0  0  0  0  0  0
   25.7085  -19.3843  -14.0455 C   0  0  0  0  0  0  0  0  0  0  0  0
   26.6004  -20.2615  -14.8689 C   0  0  2  0  0  0  0  0  0  0  0  0
   26.5914  -19.8664  -16.2714 N   0  0  0  0  0  0  0  0  0  0  0  0
   26.3117  -21.6778  -14.6883 C   0  0  0  0  0  0  0  0  0  0  0  0
   27.0657  -22.6134  -14.0204 O   0  0  0  0  0  0  0  0  0  0  0  0
   26.7313  -19.5916  -11.7412 C   0  0  0  0  0  0  0  0  0  0  0  0
   26.6863  -20.0292  -10.4358 C   0  0  0  0  0  0  0  0  0  0  0  0
   25.2284  -22.1187  -15.2112 O   0  0  0  0  0  0  0  0  0  0  0  0
  2  3  1  1
  2  1  1  0
  4  2  1  0
  4  5  1  6
  6  7  2  0
  6  4  1  0
  9  8  1  6
  9 11  1  0
 10  9  1  0
 11 12  1  6
 12  6  1  0
 13 14  2  0
 13 11  1  0
 16 15  1  0
 17 16  2  0
 18 17  1  0
 19 25  1  0
 19 18  2  0
 20 19  1  0
 21 20  1  1
 21 22  1  0
 22 13  1  0
 23 21  1  0
 24 23  1  0
 25 26  2  0
 26 16  1  0
 27 23  2  0
M  END
$$$$
