VTY.pdb
     RDKit          3D

 27 27  0  0  1  0  0  0  0  0999 V2000
   11.2365  -21.3074  -10.3432 C   0  0  0  0  0  0  0  0  0  0  0  0
   10.4849  -20.5128   -9.2996 C   0  0  1  0  0  0  0  0  0  0  0  0
    9.2048  -21.1912   -8.8804 C   0  0  0  0  0  0  0  0  0  0  0  0
   11.3575  -20.1453   -8.1272 C   0  0  2  0  0  0  0  0  0  0  0  0
   11.8378  -21.4045   -7.5553 N   0  0  0  0  0  0  0  0  0  0  0  0
   10.6672  -19.3984   -7.0783 C   0  0  0  0  0  0  0  0  0  0  0  0
   10.2808  -18.2220   -7.3553 O   0  0  0  0  0  0  0  0  0  0  0  0
    7.3955  -19.9208   -5.5806 C   0  0  0  0  0  0  0  0  0  0  0  0
    8.3999  -20.0127   -4.4760 C   0  0  1  0  0  0  0  0  0  0  0  0
    8.8533  -21.3487   -4.3836 O   0  0  0  0  0  0  0  0  0  0  0  0
    9.6426  -19.1651   -4.7790 C   0  0  2  0  0  0  0  0  0  0  0  0
   10.3898  -19.8687   -5.7797 N   0  0  0  0  0  0  0  0  0  0  0  0
   10.4331  -19.0144   -3.5078 C   0  0  0  0  0  0  0  0  0  0  0  0
   11.6884  -19.0563   -3.5489 O   0  0  0  0  0  0  0  0  0  0  0  0
   14.5858  -17.0832    3.6532 O   0  0  0  0  0  0  0  0  0  0  0  0
   13.7966  -17.1682    2.4996 C   0  0  0  0  0  0  0  0  0  0  0  0
   14.1571  -18.0162    1.4724 C   0  0  0  0  0  0  0  0  0  0  0  0
   13.4062  -18.1274    0.3217 C   0  0  0  0  0  0  0  0  0  0  0  0
   12.2469  -17.3800    0.1556 C   0  0  0  0  0  0  0  0  0  0  0  0
   11.5008  -17.5245   -1.0949 C   0  0  0  0  0  0  0  0  0  0  0  0
   10.5214  -18.6543   -1.0072 C   0  0  2  0  0  0  0  0  0  0  0  0
    9.7895  -18.8248   -2.2555 N   0  0  0  0  0  0  0  0  0  0  0  0
    9.6373  -18.5386    0.1446 C   0  0  0  0  0  0  0  0  0  0  0  0
    8.2708  -18.3873    0.1467 O   0  0  0  0  0  0  0  0  0  0  0  0
   11.9027  -16.5348    1.1982 C   0  0  0  0  0  0  0  0  0  0  0  0
   12.6506  -16.4212    2.3493 C   0  0  0  0  0  0  0  0  0  0  0  0
   10.1859  -18.5795    1.3016 O   0  0  0  0  0  0  0  0  0  0  0  0
  2  3  1  1
  2  1  1  0
  4  2  1  0
  4  5  1  1
  6  7  2  0
  6  4  1  0
  9  8  1  6
  9 11  1  0
 10  9  1  0
 11 12  1  6
 12  6  1  0
 13 14  2  0
 13 11  1  0
 16 15  1  0
 17 16  2  0
 18 17  1  0
 19 25  1  0
 19 18  2  0
 20 19  1  0
 21 20  1  6
 21 22  1  0
 22 13  1  0
 23 21  1  0
 24 23  1  0
 25 26  2  0
 26 16  1  0
 27 23  2  0
M  END
$$$$
