VTY.pdb
     RDKit          3D

 27 27  0  0  1  0  0  0  0  0999 V2000
   17.5949   -9.8041  -17.1709 C   0  0  0  0  0  0  0  0  0  0  0  0
   18.0195  -11.2425  -17.3614 C   0  0  1  0  0  0  0  0  0  0  0  0
   17.1444  -11.9680  -18.3525 C   0  0  0  0  0  0  0  0  0  0  0  0
   19.4864  -11.3643  -17.6846 C   0  0  2  0  0  0  0  0  0  0  0  0
   19.8157  -12.7878  -17.5929 N   0  0  0  0  0  0  0  0  0  0  0  0
   20.3626  -10.6308  -16.7742 C   0  0  0  0  0  0  0  0  0  0  0  0
   20.5224  -11.1039  -15.6078 O   0  0  0  0  0  0  0  0  0  0  0  0
   23.8874  -10.0421  -16.9419 C   0  0  0  0  0  0  0  0  0  0  0  0
   23.2939   -8.6737  -16.8298 C   0  0  1  0  0  0  0  0  0  0  0  0
   23.0969   -8.1556  -18.1306 O   0  0  0  0  0  0  0  0  0  0  0  0
   21.9053   -8.7187  -16.1786 C   0  0  2  0  0  0  0  0  0  0  0  0
   21.0502   -9.4388  -17.0758 N   0  0  0  0  0  0  0  0  0  0  0  0
   21.4296   -7.3049  -15.9824 C   0  0  0  0  0  0  0  0  0  0  0  0
   20.6627   -6.7846  -16.8313 O   0  0  0  0  0  0  0  0  0  0  0  0
   17.9418   -6.9255   -9.4707 O   0  0  0  0  0  0  0  0  0  0  0  0
   18.4168   -6.5286  -10.7269 C   0  0  0  0  0  0  0  0  0  0  0  0
   18.6141   -5.1913  -11.0039 C   0  0  0  0  0  0  0  0  0  0  0  0
   19.0803   -4.7619  -12.2281 C   0  0  0  0  0  0  0  0  0  0  0  0
   19.3705   -5.6725  -13.2364 C   0  0  0  0  0  0  0  0  0  0  0  0
   19.8435   -5.1577  -14.5220 C   0  0  0  0  0  0  0  0  0  0  0  0
   21.3389   -5.1930  -14.5959 C   0  0  2  0  0  0  0  0  0  0  0  0
   21.8294   -6.5406  -14.8534 N   0  0  0  0  0  0  0  0  0  0  0  0
   21.9700   -4.5842  -13.4328 C   0  0  0  0  0  0  0  0  0  0  0  0
   22.8228   -5.1748  -12.5306 O   0  0  0  0  0  0  0  0  0  0  0  0
   19.1654   -7.0099  -12.9381 C   0  0  0  0  0  0  0  0  0  0  0  0
   18.6999   -7.4425  -11.7160 C   0  0  0  0  0  0  0  0  0  0  0  0
   21.7059   -3.3504  -13.2107 O   0  0  0  0  0  0  0  0  0  0  0  0
  2  3  1  6
  2  1  1  0
  4  2  1  0
  4  5  1  1
  6  7  2  0
  6  4  1  0
  9  8  1  6
  9 11  1  0
 10  9  1  0
 11 12  1  6
 12  6  1  0
 13 14  2  0
 13 11  1  0
 16 15  1  0
 17 16  2  0
 18 17  1  0
 19 25  1  0
 19 18  2  0
 20 19  1  0
 21 20  1  1
 21 22  1  0
 22 13  1  0
 23 21  1  0
 24 23  1  0
 25 26  2  0
 26 16  1  0
 27 23  2  0
M  END
$$$$
