IAQ.pdb
     RDKit          3D

 23 22  0  0  1  0  0  0  0  0999 V2000
    7.4467  -11.8231   19.7753 C   0  0  0  0  0  0  0  0  0  0  0  0
    7.6313  -13.2251   19.2017 C   0  0  0  0  0  0  0  0  0  0  0  0
    8.2872  -14.0508   20.2838 C   0  0  2  0  0  0  0  0  0  0  0  0
    9.6601  -13.4749   20.5468 C   0  0  0  0  0  0  0  0  0  0  0  0
    8.3634  -15.5144   19.8975 C   0  0  2  0  0  0  0  0  0  0  0  0
    6.9918  -15.9490   19.6314 N   0  0  0  0  0  0  0  0  0  0  0  0
    8.9522  -16.3140   20.9881 C   0  0  0  0  0  0  0  0  0  0  0  0
    8.2293  -16.5526   21.9940 O   0  0  0  0  0  0  0  0  0  0  0  0
   12.1394  -18.1534   21.6781 C   0  0  0  0  0  0  0  0  0  0  0  0
   10.7805  -17.5646   22.0888 C   0  0  2  0  0  0  0  0  0  0  0  0
   10.2773  -16.8227   20.9625 N   0  0  0  0  0  0  0  0  0  0  0  0
   10.9383  -16.7530   23.2977 C   0  0  0  0  0  0  0  0  0  0  0  0
   11.2437  -15.5460   23.2534 O   0  0  0  0  0  0  0  0  0  0  0  0
    6.2366  -13.9309   25.8690 N   0  0  0  0  0  0  0  0  0  0  0  0
    6.5628  -15.2969   25.9710 C   0  0  0  0  0  0  0  0  0  0  0  0
    5.7171  -16.2027   25.7655 O   0  0  0  0  0  0  0  0  0  0  0  0
    7.9649  -15.6582   26.3364 C   0  0  0  0  0  0  0  0  0  0  0  0
    8.6592  -16.3691   25.1918 C   0  0  0  0  0  0  0  0  0  0  0  0
   10.0302  -16.7512   25.6490 C   0  0  2  0  0  0  0  0  0  0  0  0
   10.7371  -17.3588   24.5649 N   0  0  0  0  0  0  0  0  0  0  0  0
   10.0127  -17.6017   26.8673 C   0  0  0  0  0  0  0  0  0  0  0  0
   10.0193  -16.9638   28.0920 O   0  0  0  0  0  0  0  0  0  0  0  0
    9.9927  -18.8461   26.8332 O   0  0  0  0  0  0  0  0  0  0  0  0
  1  2  1  0
  2  3  1  0
  3  4  1  6
  5  3  1  0
  5  7  1  0
  5  6  1  1
  7 11  1  0
  7  8  2  0
 10  9  1  6
 11 10  1  0
 12 10  1  0
 12 13  2  0
 15 14  1  0
 15 17  1  0
 16 15  2  0
 18 17  1  0
 19 18  1  6
 19 20  1  0
 20 12  1  0
 21 19  1  0
 22 21  1  0
 23 21  2  0
M  END
$$$$
