IAQ.pdb
     RDKit          3D

 23 22  0  0  1  0  0  0  0  0999 V2000
    6.2875  -11.8074   26.5535 C   0  0  0  0  0  0  0  0  0  0  0  0
    5.7549  -13.0609   25.8653 C   0  0  0  0  0  0  0  0  0  0  0  0
    6.9609  -13.8390   25.3931 C   0  0  2  0  0  0  0  0  0  0  0  0
    7.8511  -12.8982   24.6132 C   0  0  0  0  0  0  0  0  0  0  0  0
    6.5573  -15.0396   24.5607 C   0  0  2  0  0  0  0  0  0  0  0  0
    5.6711  -15.8497   25.3970 N   0  0  0  0  0  0  0  0  0  0  0  0
    7.7420  -15.8220   24.1609 C   0  0  0  0  0  0  0  0  0  0  0  0
    8.0317  -16.8376   24.8508 O   0  0  0  0  0  0  0  0  0  0  0  0
   10.0600  -15.9171   21.2261 C   0  0  0  0  0  0  0  0  0  0  0  0
    9.5294  -16.4445   22.5685 C   0  0  2  0  0  0  0  0  0  0  0  0
    8.5632  -15.4925   23.0508 N   0  0  0  0  0  0  0  0  0  0  0  0
   10.6461  -16.6597   23.4914 C   0  0  0  0  0  0  0  0  0  0  0  0
   11.6080  -17.4000   23.2105 O   0  0  0  0  0  0  0  0  0  0  0  0
   11.0577  -13.8684   29.1861 N   0  0  0  0  0  0  0  0  0  0  0  0
   10.1027  -14.8544   28.8721 C   0  0  0  0  0  0  0  0  0  0  0  0
    9.1542  -15.1360   29.6461 O   0  0  0  0  0  0  0  0  0  0  0  0
   10.2406  -15.5763   27.5723 C   0  0  0  0  0  0  0  0  0  0  0  0
   11.4369  -15.0683   26.7923 C   0  0  0  0  0  0  0  0  0  0  0  0
   11.7138  -16.0373   25.6882 C   0  0  2  0  0  0  0  0  0  0  0  0
   10.6357  -16.0042   24.7498 N   0  0  0  0  0  0  0  0  0  0  0  0
   11.9962  -17.4087   26.1854 C   0  0  0  0  0  0  0  0  0  0  0  0
   13.2527  -17.6547   26.7028 O   0  0  0  0  0  0  0  0  0  0  0  0
   11.1621  -18.3326   26.1566 O   0  0  0  0  0  0  0  0  0  0  0  0
  1  2  1  0
  2  3  1  0
  3  4  1  6
  5  3  1  0
  5  7  1  0
  5  6  1  1
  7 11  1  0
  7  8  2  0
 10  9  1  6
 11 10  1  0
 12 10  1  0
 12 13  2  0
 15 14  1  0
 15 17  1  0
 16 15  2  0
 18 17  1  0
 19 18  1  1
 19 20  1  0
 20 12  1  0
 21 19  1  0
 22 21  1  0
 23 21  2  0
M  END
$$$$
