IAQ.pdb
     RDKit          3D

 23 22  0  0  1  0  0  0  0  0999 V2000
    6.4093  -12.2299   27.3351 C   0  0  0  0  0  0  0  0  0  0  0  0
    5.8203  -13.2453   26.3601 C   0  0  0  0  0  0  0  0  0  0  0  0
    6.9865  -13.8640   25.6252 C   0  0  2  0  0  0  0  0  0  0  0  0
    7.7431  -12.7565   24.9277 C   0  0  0  0  0  0  0  0  0  0  0  0
    6.5267  -14.9252   24.6454 C   0  0  2  0  0  0  0  0  0  0  0  0
    5.6827  -15.8529   25.3989 N   0  0  0  0  0  0  0  0  0  0  0  0
    7.6806  -15.6374   24.0651 C   0  0  0  0  0  0  0  0  0  0  0  0
    8.0178  -16.7321   24.5937 O   0  0  0  0  0  0  0  0  0  0  0  0
    9.6459  -15.4369   20.9105 C   0  0  0  0  0  0  0  0  0  0  0  0
    9.3802  -16.0169   22.3087 C   0  0  2  0  0  0  0  0  0  0  0  0
    8.4223  -15.1577   22.9537 N   0  0  0  0  0  0  0  0  0  0  0  0
   10.6423  -16.1368   23.0422 C   0  0  0  0  0  0  0  0  0  0  0  0
   11.5758  -16.8605   22.6461 O   0  0  0  0  0  0  0  0  0  0  0  0
   10.3165  -14.1205   28.6374 N   0  0  0  0  0  0  0  0  0  0  0  0
   10.9508  -15.3413   28.9376 C   0  0  0  0  0  0  0  0  0  0  0  0
   11.3092  -15.6387   30.1042 O   0  0  0  0  0  0  0  0  0  0  0  0
   11.1957  -16.2987   27.8181 C   0  0  0  0  0  0  0  0  0  0  0  0
   10.4681  -15.8637   26.5615 C   0  0  0  0  0  0  0  0  0  0  0  0
   11.4369  -15.9189   25.4243 C   0  0  2  0  0  0  0  0  0  0  0  0
   10.8113  -15.4049   24.2460 N   0  0  0  0  0  0  0  0  0  0  0  0
   12.0080  -17.2756   25.2220 C   0  0  0  0  0  0  0  0  0  0  0  0
   13.3622  -17.4375   25.4381 O   0  0  0  0  0  0  0  0  0  0  0  0
   11.3293  -18.2588   24.8715 O   0  0  0  0  0  0  0  0  0  0  0  0
  1  2  1  0
  2  3  1  0
  3  4  1  6
  5  3  1  0
  5  7  1  0
  5  6  1  1
  7 11  1  0
  7  8  2  0
 10  9  1  6
 11 10  1  0
 12 10  1  0
 12 13  2  0
 15 14  1  0
 15 17  1  0
 16 15  2  0
 18 17  1  0
 19 18  1  1
 19 20  1  0
 20 12  1  0
 21 19  1  0
 22 21  1  0
 23 21  2  0
M  END
$$$$
