IAQ.pdb
     RDKit          3D

 23 22  0  0  1  0  0  0  0  0999 V2000
    9.6044  -15.0297   16.0439 C   0  0  0  0  0  0  0  0  0  0  0  0
    9.5249  -14.6011   17.5062 C   0  0  0  0  0  0  0  0  0  0  0  0
    8.0568  -14.4604   17.8350 C   0  0  2  0  0  0  0  0  0  0  0  0
    7.3136  -14.1701   16.5508 C   0  0  0  0  0  0  0  0  0  0  0  0
    7.8198  -13.3792   18.8704 C   0  0  2  0  0  0  0  0  0  0  0  0
    8.3477  -12.1366   18.3063 N   0  0  0  0  0  0  0  0  0  0  0  0
    8.5098  -13.7030   20.1331 C   0  0  0  0  0  0  0  0  0  0  0  0
    9.7278  -13.3892   20.2307 O   0  0  0  0  0  0  0  0  0  0  0  0
    7.7083  -15.4453   23.3547 C   0  0  0  0  0  0  0  0  0  0  0  0
    8.6694  -14.7973   22.3456 C   0  0  2  0  0  0  0  0  0  0  0  0
    7.8786  -14.3431   21.2319 N   0  0  0  0  0  0  0  0  0  0  0  0
    9.7105  -15.7559   21.9686 C   0  0  0  0  0  0  0  0  0  0  0  0
    9.6529  -16.4212   20.9168 O   0  0  0  0  0  0  0  0  0  0  0  0
   15.6810  -14.9718   19.2262 N   0  0  0  0  0  0  0  0  0  0  0  0
   14.5054  -14.6464   19.9299 C   0  0  0  0  0  0  0  0  0  0  0  0
   13.8995  -13.5606   19.7521 O   0  0  0  0  0  0  0  0  0  0  0  0
   13.9796  -15.6384   20.9143 C   0  0  0  0  0  0  0  0  0  0  0  0
   12.6411  -15.1952   21.4709 C   0  0  0  0  0  0  0  0  0  0  0  0
   12.1432  -16.2677   22.3855 C   0  0  2  0  0  0  0  0  0  0  0  0
   10.8249  -15.9359   22.8284 N   0  0  0  0  0  0  0  0  0  0  0  0
   13.0729  -16.5384   23.5125 C   0  0  0  0  0  0  0  0  0  0  0  0
   14.3041  -17.0846   23.2080 O   0  0  0  0  0  0  0  0  0  0  0  0
   12.7950  -16.2981   24.7021 O   0  0  0  0  0  0  0  0  0  0  0  0
  1  2  1  0
  2  3  1  0
  3  4  1  6
  5  3  1  0
  5  7  1  0
  5  6  1  6
  7 11  1  0
  7  8  2  0
 10  9  1  1
 11 10  1  0
 12 10  1  0
 12 13  2  0
 15 14  1  0
 15 17  1  0
 16 15  2  0
 18 17  1  0
 19 18  1  1
 19 20  1  0
 20 12  1  0
 21 19  1  0
 22 21  1  0
 23 21  2  0
M  END
$$$$
