IAQ.pdb
     RDKit          3D

 23 22  0  0  1  0  0  0  0  0999 V2000
    8.3811  -11.9615   20.3917 C   0  0  0  0  0  0  0  0  0  0  0  0
    7.6814  -13.0857   19.6334 C   0  0  0  0  0  0  0  0  0  0  0  0
    8.4872  -14.3397   19.8814 C   0  0  2  0  0  0  0  0  0  0  0  0
    9.9108  -14.0770   19.4457 C   0  0  0  0  0  0  0  0  0  0  0  0
    7.8960  -15.5329   19.1575 C   0  0  2  0  0  0  0  0  0  0  0  0
    6.4802  -15.5849   19.5232 N   0  0  0  0  0  0  0  0  0  0  0  0
    8.5756  -16.7787   19.5595 C   0  0  0  0  0  0  0  0  0  0  0  0
    8.3383  -17.2276   20.7143 O   0  0  0  0  0  0  0  0  0  0  0  0
   10.1970  -19.6408   17.9458 C   0  0  0  0  0  0  0  0  0  0  0  0
   10.0457  -18.7304   19.1747 C   0  0  2  0  0  0  0  0  0  0  0  0
    9.4734  -17.4899   18.7207 N   0  0  0  0  0  0  0  0  0  0  0  0
   11.3443  -18.5670   19.8320 C   0  0  0  0  0  0  0  0  0  0  0  0
   12.3597  -19.1870   19.4622 O   0  0  0  0  0  0  0  0  0  0  0  0
   15.1942  -15.3059   18.0138 N   0  0  0  0  0  0  0  0  0  0  0  0
   14.7775  -14.5977   19.1575 C   0  0  0  0  0  0  0  0  0  0  0  0
   14.7950  -13.3428   19.2091 O   0  0  0  0  0  0  0  0  0  0  0  0
   14.3033  -15.3835   20.3353 C   0  0  0  0  0  0  0  0  0  0  0  0
   13.0148  -16.1159   20.0175 C   0  0  0  0  0  0  0  0  0  0  0  0
   12.6177  -16.8985   21.2277 C   0  0  2  0  0  0  0  0  0  0  0  0
   11.4536  -17.6726   20.9281 N   0  0  0  0  0  0  0  0  0  0  0  0
   12.4416  -16.0449   22.4310 C   0  0  0  0  0  0  0  0  0  0  0  0
   13.5637  -15.7656   23.1860 O   0  0  0  0  0  0  0  0  0  0  0  0
   11.3431  -15.5770   22.7837 O   0  0  0  0  0  0  0  0  0  0  0  0
  1  2  1  0
  2  3  1  0
  3  4  1  6
  5  3  1  0
  5  7  1  0
  5  6  1  1
  7 11  1  0
  7  8  2  0
 10  9  1  6
 11 10  1  0
 12 10  1  0
 12 13  2  0
 15 14  1  0
 15 17  1  0
 16 15  2  0
 18 17  1  0
 19 18  1  6
 19 20  1  0
 20 12  1  0
 21 19  1  0
 22 21  1  0
 23 21  2  0
M  END
$$$$
