IAQ.pdb
     RDKit          3D

 23 22  0  0  1  0  0  0  0  0999 V2000
    7.0315  -10.7225   25.8155 C   0  0  0  0  0  0  0  0  0  0  0  0
    7.2493  -12.2080   26.0879 C   0  0  0  0  0  0  0  0  0  0  0  0
    6.0320  -12.9271   25.5549 C   0  0  2  0  0  0  0  0  0  0  0  0
    4.8302  -12.4681   26.3490 C   0  0  0  0  0  0  0  0  0  0  0  0
    6.2007  -14.4319   25.6227 C   0  0  2  0  0  0  0  0  0  0  0  0
    7.0455  -14.7063   26.7854 N   0  0  0  0  0  0  0  0  0  0  0  0
    6.8370  -14.9434   24.3943 C   0  0  0  0  0  0  0  0  0  0  0  0
    6.5134  -16.0993   24.0063 O   0  0  0  0  0  0  0  0  0  0  0  0
    9.0016  -13.7200   21.6275 C   0  0  0  0  0  0  0  0  0  0  0  0
    8.4630  -14.8386   22.5334 C   0  0  2  0  0  0  0  0  0  0  0  0
    7.7849  -14.2079   23.6354 N   0  0  0  0  0  0  0  0  0  0  0  0
    9.5634  -15.7113   22.9488 C   0  0  0  0  0  0  0  0  0  0  0  0
   10.4038  -16.1524   22.1417 O   0  0  0  0  0  0  0  0  0  0  0  0
   12.1176  -17.2137   29.3647 N   0  0  0  0  0  0  0  0  0  0  0  0
   11.7528  -16.0851   28.6057 C   0  0  0  0  0  0  0  0  0  0  0  0
   11.1882  -15.0880   29.1205 O   0  0  0  0  0  0  0  0  0  0  0  0
   12.0562  -16.0947   27.1437 C   0  0  0  0  0  0  0  0  0  0  0  0
   10.8641  -15.6180   26.3377 C   0  0  0  0  0  0  0  0  0  0  0  0
   10.9204  -16.2759   24.9966 C   0  0  2  0  0  0  0  0  0  0  0  0
    9.6796  -16.0691   24.3170 N   0  0  0  0  0  0  0  0  0  0  0  0
   11.2953  -17.7114   25.0766 C   0  0  0  0  0  0  0  0  0  0  0  0
   10.2883  -18.6442   24.9255 O   0  0  0  0  0  0  0  0  0  0  0  0
   12.4604  -18.1049   25.2711 O   0  0  0  0  0  0  0  0  0  0  0  0
  1  2  1  0
  2  3  1  0
  3  4  1  1
  5  3  1  0
  5  7  1  0
  5  6  1  1
  7 11  1  0
  7  8  2  0
 10  9  1  6
 11 10  1  0
 12 10  1  0
 12 13  2  0
 15 14  1  0
 15 17  1  0
 16 15  2  0
 18 17  1  0
 19 18  1  1
 19 20  1  0
 20 12  1  0
 21 19  1  0
 22 21  1  0
 23 21  2  0
M  END
$$$$
