IAQ.pdb
     RDKit          3D

 23 22  0  0  1  0  0  0  0  0999 V2000
    7.6346  -11.7122   20.2662 C   0  0  0  0  0  0  0  0  0  0  0  0
    7.3513  -13.1561   19.8621 C   0  0  0  0  0  0  0  0  0  0  0  0
    7.7357  -14.0175   21.0425 C   0  0  2  0  0  0  0  0  0  0  0  0
    9.2043  -13.7975   21.3260 C   0  0  0  0  0  0  0  0  0  0  0  0
    7.4326  -15.4802   20.7858 C   0  0  2  0  0  0  0  0  0  0  0  0
    5.9960  -15.5700   20.5229 N   0  0  0  0  0  0  0  0  0  0  0  0
    7.7922  -16.3028   21.9560 C   0  0  0  0  0  0  0  0  0  0  0  0
    7.0881  -16.1798   22.9955 O   0  0  0  0  0  0  0  0  0  0  0  0
    9.6974  -19.3284   22.7568 C   0  0  0  0  0  0  0  0  0  0  0  0
    9.1888  -17.9399   23.1756 C   0  0  2  0  0  0  0  0  0  0  0  0
    8.8791  -17.2160   21.9705 N   0  0  0  0  0  0  0  0  0  0  0  0
   10.1922  -17.2773   24.0118 C   0  0  0  0  0  0  0  0  0  0  0  0
   11.2876  -16.8939   23.5589 O   0  0  0  0  0  0  0  0  0  0  0  0
    8.0036  -12.9566   26.7197 N   0  0  0  0  0  0  0  0  0  0  0  0
    8.8304  -13.6263   27.6422 C   0  0  0  0  0  0  0  0  0  0  0  0
    9.2458  -13.0733   28.6908 O   0  0  0  0  0  0  0  0  0  0  0  0
    9.2135  -15.0386   27.3448 C   0  0  0  0  0  0  0  0  0  0  0  0
   10.5270  -15.0985   26.5907 C   0  0  0  0  0  0  0  0  0  0  0  0
   10.8452  -16.5358   26.3308 C   0  0  2  0  0  0  0  0  0  0  0  0
    9.9105  -17.0628   25.3859 N   0  0  0  0  0  0  0  0  0  0  0  0
   10.9144  -17.3428   27.5764 C   0  0  0  0  0  0  0  0  0  0  0  0
   11.9444  -17.0734   28.4559 O   0  0  0  0  0  0  0  0  0  0  0  0
   10.0966  -18.2382   27.8583 O   0  0  0  0  0  0  0  0  0  0  0  0
  1  2  1  0
  2  3  1  0
  3  4  1  6
  5  3  1  0
  5  7  1  0
  5  6  1  1
  7 11  1  0
  7  8  2  0
 10  9  1  6
 11 10  1  0
 12 10  1  0
 12 13  2  0
 15 14  1  0
 15 17  1  0
 16 15  2  0
 18 17  1  0
 19 18  1  1
 19 20  1  0
 20 12  1  0
 21 19  1  0
 22 21  1  0
 23 21  2  0
M  END
$$$$
