RAL.pdb
     RDKit          3D

 25 24  0  0  1  0  0  0  0  0999 V2000
    8.6880  -15.1450   16.5995 N   0  0  0  0  0  0  0  0  0  0  0  0
    8.4174  -13.7889   16.3335 C   0  0  0  0  0  0  0  0  0  0  0  0
    8.3875  -13.3876   15.1158 N   0  0  0  0  0  0  0  0  0  0  0  0
    8.1805  -12.8765   17.4005 N   0  0  0  0  0  0  0  0  0  0  0  0
    8.4336  -13.2979   18.7662 C   0  0  0  0  0  0  0  0  0  0  0  0
    7.1678  -13.8448   19.3278 C   0  0  0  0  0  0  0  0  0  0  0  0
    7.2605  -14.4530   20.6814 C   0  0  0  0  0  0  0  0  0  0  0  0
    7.5701  -15.9085   20.7355 C   0  0  2  0  0  0  0  0  0  0  0  0
    6.6197  -16.7733   20.1106 N   0  0  0  0  0  0  0  0  0  0  0  0
    7.6710  -16.2888   22.1679 C   0  0  0  0  0  0  0  0  0  0  0  0
    6.6197  -16.4622   22.8260 O   0  0  0  0  0  0  0  0  0  0  0  0
    8.2634  -12.4123   14.8117 C   0  0  0  0  0  0  0  0  0  0  0  0
    9.8447  -18.0655   24.4230 C   0  0  1  0  0  0  0  0  0  0  0  0
    8.9197  -16.8688   24.2468 N   0  0  0  0  0  0  0  0  0  0  0  0
    8.9103  -16.4668   22.8324 C   0  0  0  0  0  0  0  0  0  0  0  0
    9.4478  -15.7112   25.0284 O   0  0  0  0  0  0  0  0  0  0  0  0
   10.4112  -15.0231   24.6163 C   0  0  0  0  0  0  0  0  0  0  0  0
    6.1192  -12.3296   27.0440 C   0  0  1  0  0  0  0  0  0  0  0  0
    7.3516  -13.0526   26.5476 C   0  0  0  0  0  0  0  0  0  0  0  0
    8.2682  -12.0116   25.9142 C   0  0  0  0  0  0  0  0  0  0  0  0
    8.1042  -13.6628   27.6802 C   0  0  2  0  0  0  0  0  0  0  0  0
    9.3105  -14.3899   27.1783 N   0  0  0  0  0  0  0  0  0  0  0  0
    8.8261  -15.4096   26.2555 C   0  0  0  0  0  0  0  0  0  0  0  0
   10.1637  -14.9906   28.2016 O   0  0  0  0  0  0  0  0  0  0  0  0
   11.0565  -14.2772   28.9842 O   0  0  0  0  0  0  0  0  0  0  0  0
  1  2  1  0
  2  4  1  0
  2  3  2  0
  4  5  1  0
  6  5  1  0
  6  7  1  0
  7  8  1  0
  8  9  1  1
 10 11  2  0
 10  8  1  0
 13 12  1  6
 13 14  1  0
 13 15  1  0
 14 10  1  0
 15 22  1  0
 16 15  2  0
 18 20  1  0
 18 17  1  6
 19 18  1  0
 21 20  1  6
 21 23  1  0
 22 21  1  0
 23 25  2  0
 23 24  1  0
M  END
$$$$
