RAL.pdb
     RDKit          3D

 25 24  0  0  1  0  0  0  0  0999 V2000
    7.8839  -12.3693   17.6039 N   0  0  0  0  0  0  0  0  0  0  0  0
    8.6924  -13.5207   17.5453 C   0  0  0  0  0  0  0  0  0  0  0  0
    9.9539  -13.4061   17.7456 N   0  0  0  0  0  0  0  0  0  0  0  0
    8.1181  -14.7936   17.2678 N   0  0  0  0  0  0  0  0  0  0  0  0
    7.6912  -15.6368   18.3695 C   0  0  0  0  0  0  0  0  0  0  0  0
    7.7119  -14.8223   19.6156 C   0  0  0  0  0  0  0  0  0  0  0  0
    7.3135  -15.5246   20.8641 C   0  0  0  0  0  0  0  0  0  0  0  0
    7.9655  -16.8379   21.1240 C   0  0  2  0  0  0  0  0  0  0  0  0
    7.5032  -17.9330   20.3311 N   0  0  0  0  0  0  0  0  0  0  0  0
    7.7379  -17.1723   22.5534 C   0  0  0  0  0  0  0  0  0  0  0  0
    6.8820  -18.0384   22.8460 O   0  0  0  0  0  0  0  0  0  0  0  0
   10.6395  -14.1714   17.6872 C   0  0  0  0  0  0  0  0  0  0  0  0
    8.6570  -18.4921   25.0804 C   0  0  1  0  0  0  0  0  0  0  0  0
    8.2495  -17.0277   24.9896 N   0  0  0  0  0  0  0  0  0  0  0  0
    8.4486  -16.5532   23.6121 C   0  0  0  0  0  0  0  0  0  0  0  0
    9.1358  -16.2081   25.8684 O   0  0  0  0  0  0  0  0  0  0  0  0
   10.3808  -16.3548   25.8684 C   0  0  0  0  0  0  0  0  0  0  0  0
    6.2136  -11.9034   26.6857 C   0  0  1  0  0  0  0  0  0  0  0  0
    7.3172  -12.8932   26.3848 C   0  0  0  0  0  0  0  0  0  0  0  0
    8.1694  -12.3019   25.2672 C   0  0  0  0  0  0  0  0  0  0  0  0
    8.2102  -13.0709   27.5647 C   0  0  2  0  0  0  0  0  0  0  0  0
    9.2374  -14.1229   27.2926 N   0  0  0  0  0  0  0  0  0  0  0  0
    8.5278  -15.2539   26.7068 C   0  0  0  0  0  0  0  0  0  0  0  0
   10.0266  -14.5555   28.4440 O   0  0  0  0  0  0  0  0  0  0  0  0
   10.0210  -15.8456   28.9481 O   0  0  0  0  0  0  0  0  0  0  0  0
  1  2  1  0
  2  4  1  0
  2  3  2  0
  4  5  1  0
  6  5  1  0
  6  7  1  0
  7  8  1  0
  8  9  1  6
 10 11  2  0
 10  8  1  0
 13 12  1  6
 13 14  1  0
 13 15  1  0
 14 10  1  0
 15 22  1  0
 16 15  2  0
 18 20  1  0
 18 17  1  6
 19 18  1  0
 21 20  1  6
 21 23  1  0
 22 21  1  0
 23 25  2  0
 23 24  1  0
M  END
$$$$
