RAL.pdb
     RDKit          3D

 25 24  0  0  1  0  0  0  0  0999 V2000
    8.7448  -12.8041   17.1559 N   0  0  0  0  0  0  0  0  0  0  0  0
    8.6625  -12.9926   18.5490 C   0  0  0  0  0  0  0  0  0  0  0  0
    9.7455  -13.1037   19.2269 N   0  0  0  0  0  0  0  0  0  0  0  0
    7.3958  -13.0589   19.1957 N   0  0  0  0  0  0  0  0  0  0  0  0
    7.3399  -13.2745   20.6300 C   0  0  0  0  0  0  0  0  0  0  0  0
    7.1746  -14.7334   20.8765 C   0  0  0  0  0  0  0  0  0  0  0  0
    8.3487  -15.4370   21.4570 C   0  0  0  0  0  0  0  0  0  0  0  0
    8.1827  -16.8912   21.7306 C   0  0  2  0  0  0  0  0  0  0  0  0
    6.9423  -17.4674   21.3172 N   0  0  0  0  0  0  0  0  0  0  0  0
    8.3182  -17.0861   23.1970 C   0  0  0  0  0  0  0  0  0  0  0  0
    7.2967  -17.3496   23.8719 O   0  0  0  0  0  0  0  0  0  0  0  0
    9.8011  -13.3171   20.2321 C   0  0  0  0  0  0  0  0  0  0  0  0
   11.1157  -18.3965   25.1207 C   0  0  1  0  0  0  0  0  0  0  0  0
    9.7516  -17.7200   25.1365 N   0  0  0  0  0  0  0  0  0  0  0  0
    9.5586  -16.9876   23.8760 C   0  0  0  0  0  0  0  0  0  0  0  0
    9.7065  -16.7144   26.2394 O   0  0  0  0  0  0  0  0  0  0  0  0
   10.0051  -17.0167   27.4188 C   0  0  0  0  0  0  0  0  0  0  0  0
    7.2346  -13.1377   25.0025 C   0  0  2  0  0  0  0  0  0  0  0  0
    7.3625  -12.8524   26.4824 C   0  0  0  0  0  0  0  0  0  0  0  0
    5.9625  -12.5690   27.0160 C   0  0  0  0  0  0  0  0  0  0  0  0
    7.8726  -14.0469   27.2135 C   0  0  2  0  0  0  0  0  0  0  0  0
    9.3058  -14.3003   26.8706 N   0  0  0  0  0  0  0  0  0  0  0  0
    9.3152  -15.4012   25.9146 C   0  0  0  0  0  0  0  0  0  0  0  0
   10.1880  -14.5948   27.9980 O   0  0  0  0  0  0  0  0  0  0  0  0
   10.5370  -15.8745   28.3965 O   0  0  0  0  0  0  0  0  0  0  0  0
  1  2  1  0
  2  4  1  0
  2  3  2  0
  4  5  1  0
  6  5  1  0
  6  7  1  0
  7  8  1  0
  8  9  1  1
 10 11  2  0
 10  8  1  0
 13 12  1  6
 13 14  1  0
 13 15  1  0
 14 10  1  0
 15 22  1  0
 16 15  2  0
 18 20  1  0
 18 17  1  6
 19 18  1  0
 21 20  1  6
 21 23  1  0
 22 21  1  0
 23 25  2  0
 23 24  1  0
M  END
$$$$
