RAL.pdb
     RDKit          3D

 25 24  0  0  1  0  0  0  0  0999 V2000
    7.1893  -21.5971   24.7351 N   0  0  0  0  0  0  0  0  0  0  0  0
    7.3643  -22.4398   23.6207 C   0  0  0  0  0  0  0  0  0  0  0  0
    6.8063  -23.5946   23.6201 N   0  0  0  0  0  0  0  0  0  0  0  0
    8.1492  -22.0166   22.5108 N   0  0  0  0  0  0  0  0  0  0  0  0
    8.5904  -20.6358   22.4369 C   0  0  0  0  0  0  0  0  0  0  0  0
    7.3869  -19.7669   22.3220 C   0  0  0  0  0  0  0  0  0  0  0  0
    7.6400  -18.3039   22.2440 C   0  0  0  0  0  0  0  0  0  0  0  0
    7.5284  -17.6817   20.8958 C   0  0  2  0  0  0  0  0  0  0  0  0
    8.0265  -18.4592   19.8054 N   0  0  0  0  0  0  0  0  0  0  0  0
    8.2804  -16.4012   20.9332 C   0  0  0  0  0  0  0  0  0  0  0  0
    9.5164  -16.4162   20.7323 O   0  0  0  0  0  0  0  0  0  0  0  0
    6.9084  -24.3064   22.8839 C   0  0  0  0  0  0  0  0  0  0  0  0
    7.6594  -12.7282   20.8939 C   0  0  1  0  0  0  0  0  0  0  0  0
    8.4917  -13.9417   21.2854 N   0  0  0  0  0  0  0  0  0  0  0  0
    7.6616  -15.1515   21.1876 C   0  0  0  0  0  0  0  0  0  0  0  0
    8.9171  -13.8155   22.7112 O   0  0  0  0  0  0  0  0  0  0  0  0
    9.8128  -13.0120   23.0626 C   0  0  0  0  0  0  0  0  0  0  0  0
    5.4652  -12.7431   26.0818 C   0  0  1  0  0  0  0  0  0  0  0  0
    6.8001  -13.0064   25.4209 C   0  0  0  0  0  0  0  0  0  0  0  0
    7.7818  -11.9622   25.9413 C   0  0  0  0  0  0  0  0  0  0  0  0
    7.3357  -14.3406   25.8141 C   0  0  2  0  0  0  0  0  0  0  0  0
    8.6063  -14.6332   25.0823 N   0  0  0  0  0  0  0  0  0  0  0  0
    8.2764  -14.6333   23.6620 C   0  0  0  0  0  0  0  0  0  0  0  0
    9.2816  -15.8760   25.4502 O   0  0  0  0  0  0  0  0  0  0  0  0
    9.5013  -16.9278   24.5763 O   0  0  0  0  0  0  0  0  0  0  0  0
  1  2  1  0
  2  4  1  0
  2  3  2  0
  4  5  1  0
  6  5  1  0
  6  7  1  0
  7  8  1  0
  8  9  1  6
 10 11  2  0
 10  8  1  0
 13 12  1  6
 13 14  1  0
 13 15  1  0
 14 10  1  0
 15 22  1  0
 16 15  2  0
 18 20  1  0
 18 17  1  6
 19 18  1  0
 21 20  1  6
 21 23  1  0
 22 21  1  0
 23 25  2  0
 23 24  1  0
M  END
$$$$
