RAL.pdb
     RDKit          3D

 25 24  0  0  1  0  0  0  0  0999 V2000
    8.4226  -12.9368   17.1378 N   0  0  0  0  0  0  0  0  0  0  0  0
    7.9819  -13.9906   16.3143 C   0  0  0  0  0  0  0  0  0  0  0  0
    7.7796  -13.7640   15.0683 N   0  0  0  0  0  0  0  0  0  0  0  0
    7.7638  -15.2889   16.8567 N   0  0  0  0  0  0  0  0  0  0  0  0
    7.8932  -15.4927   18.2880 C   0  0  0  0  0  0  0  0  0  0  0  0
    6.6004  -15.1279   18.9300 C   0  0  0  0  0  0  0  0  0  0  0  0
    6.5308  -15.2972   20.4055 C   0  0  0  0  0  0  0  0  0  0  0  0
    7.6398  -16.0628   21.0390 C   0  0  2  0  0  0  0  0  0  0  0  0
    7.8007  -17.4118   20.5961 N   0  0  0  0  0  0  0  0  0  0  0  0
    7.3871  -16.0828   22.5027 C   0  0  0  0  0  0  0  0  0  0  0  0
    6.9797  -15.0396   23.0632 O   0  0  0  0  0  0  0  0  0  0  0  0
    7.5406  -14.4747   14.3635 C   0  0  0  0  0  0  0  0  0  0  0  0
    7.4793  -18.5427   25.3620 C   0  0  2  0  0  0  0  0  0  0  0  0
    7.3817  -17.1488   24.7569 N   0  0  0  0  0  0  0  0  0  0  0  0
    7.5863  -17.2354   23.3033 C   0  0  0  0  0  0  0  0  0  0  0  0
    8.4745  -16.2903   25.3034 O   0  0  0  0  0  0  0  0  0  0  0  0
    9.6351  -16.3215   24.8306 C   0  0  0  0  0  0  0  0  0  0  0  0
    6.1775  -12.1593   27.7034 C   0  0  1  0  0  0  0  0  0  0  0  0
    7.0716  -13.0815   26.9047 C   0  0  0  0  0  0  0  0  0  0  0  0
    7.5653  -12.3017   25.6910 C   0  0  0  0  0  0  0  0  0  0  0  0
    8.2765  -13.4693   27.6916 C   0  0  2  0  0  0  0  0  0  0  0  0
    9.0972  -14.4669   26.9387 N   0  0  0  0  0  0  0  0  0  0  0  0
    8.1619  -15.4341   26.3767 C   0  0  0  0  0  0  0  0  0  0  0  0
   10.1359  -15.1483   27.7086 O   0  0  0  0  0  0  0  0  0  0  0  0
   10.1359  -16.5065   27.9795 O   0  0  0  0  0  0  0  0  0  0  0  0
  1  2  1  0
  2  4  1  0
  2  3  2  0
  4  5  1  0
  6  5  1  0
  6  7  1  0
  7  8  1  0
  8  9  1  6
 10 11  2  0
 10  8  1  0
 13 12  1  6
 13 14  1  0
 13 15  1  0
 14 10  1  0
 15 22  1  0
 16 15  2  0
 18 20  1  0
 18 17  1  6
 19 18  1  0
 21 20  1  6
 21 23  1  0
 22 21  1  0
 23 25  2  0
 23 24  1  0
M  END
$$$$
