RAL.pdb
     RDKit          3D

 25 24  0  0  1  0  0  0  0  0999 V2000
    8.1868  -11.5203   18.4051 N   0  0  0  0  0  0  0  0  0  0  0  0
    8.3606  -12.8742   18.7509 C   0  0  0  0  0  0  0  0  0  0  0  0
    8.5066  -13.7411   17.8171 N   0  0  0  0  0  0  0  0  0  0  0  0
    8.3742  -13.2751   20.1170 N   0  0  0  0  0  0  0  0  0  0  0  0
    7.1293  -13.6565   20.7587 C   0  0  0  0  0  0  0  0  0  0  0  0
    6.8945  -15.1035   20.4985 C   0  0  0  0  0  0  0  0  0  0  0  0
    7.0441  -16.0119   21.6659 C   0  0  0  0  0  0  0  0  0  0  0  0
    8.2477  -15.8053   22.5180 C   0  0  2  0  0  0  0  0  0  0  0  0
    9.4868  -16.2588   21.9698 N   0  0  0  0  0  0  0  0  0  0  0  0
    8.0160  -16.5245   23.7969 C   0  0  0  0  0  0  0  0  0  0  0  0
    6.8912  -16.4480   24.3420 O   0  0  0  0  0  0  0  0  0  0  0  0
    8.7140  -14.7394   17.9567 C   0  0  0  0  0  0  0  0  0  0  0  0
    9.5437  -19.3539   25.6460 C   0  0  2  0  0  0  0  0  0  0  0  0
    8.6568  -18.1168   25.6058 N   0  0  0  0  0  0  0  0  0  0  0  0
    9.0152  -17.3005   24.4363 C   0  0  0  0  0  0  0  0  0  0  0  0
    8.9102  -17.2820   26.8177 O   0  0  0  0  0  0  0  0  0  0  0  0
    8.6941  -17.7166   27.9735 C   0  0  0  0  0  0  0  0  0  0  0  0
    6.4974  -13.0433   26.8247 C   0  0  2  0  0  0  0  0  0  0  0  0
    7.8441  -13.7068   26.6399 C   0  0  0  0  0  0  0  0  0  0  0  0
    8.8445  -12.6162   26.2727 C   0  0  0  0  0  0  0  0  0  0  0  0
    8.3164  -14.3185   27.9143 C   0  0  2  0  0  0  0  0  0  0  0  0
    9.6179  -15.0250   27.7074 N   0  0  0  0  0  0  0  0  0  0  0  0
    9.4051  -15.9779   26.6245 C   0  0  0  0  0  0  0  0  0  0  0  0
   10.1702  -15.6993   28.8805 O   0  0  0  0  0  0  0  0  0  0  0  0
   10.3647  -17.0678   28.9689 O   0  0  0  0  0  0  0  0  0  0  0  0
  1  2  1  0
  2  4  1  0
  2  3  2  0
  4  5  1  0
  6  5  1  0
  6  7  1  0
  7  8  1  0
  8  9  1  6
 10 11  2  0
 10  8  1  0
 13 12  1  6
 13 14  1  0
 13 15  1  0
 14 10  1  0
 15 22  1  0
 16 15  2  0
 18 20  1  0
 18 17  1  6
 19 18  1  0
 21 20  1  6
 21 23  1  0
 22 21  1  0
 23 25  2  0
 23 24  1  0
M  END
$$$$
