RAL.pdb
     RDKit          3D

 25 24  0  0  1  0  0  0  0  0999 V2000
   10.2119  -22.5284   17.4252 N   0  0  0  0  0  0  0  0  0  0  0  0
   10.0984  -21.3560   16.6536 C   0  0  0  0  0  0  0  0  0  0  0  0
   10.4018  -21.3989   15.4082 N   0  0  0  0  0  0  0  0  0  0  0  0
    9.6536  -20.1406   17.2469 N   0  0  0  0  0  0  0  0  0  0  0  0
    9.3122  -20.1209   18.6576 C   0  0  0  0  0  0  0  0  0  0  0  0
   10.4185  -19.4520   19.3960 C   0  0  0  0  0  0  0  0  0  0  0  0
   10.1980  -18.0263   19.7557 C   0  0  0  0  0  0  0  0  0  0  0  0
    9.6993  -17.7585   21.1330 C   0  0  2  0  0  0  0  0  0  0  0  0
    8.4937  -18.4304   21.5028 N   0  0  0  0  0  0  0  0  0  0  0  0
    9.4675  -16.2955   21.2455 C   0  0  0  0  0  0  0  0  0  0  0  0
   10.3981  -15.5089   20.9566 O   0  0  0  0  0  0  0  0  0  0  0  0
   10.4350  -20.5893   14.7738 C   0  0  0  0  0  0  0  0  0  0  0  0
    6.6413  -13.9177   21.3519 C   0  0  2  0  0  0  0  0  0  0  0  0
    8.0757  -14.2799   21.7125 N   0  0  0  0  0  0  0  0  0  0  0  0
    8.2330  -15.7413   21.6677 C   0  0  0  0  0  0  0  0  0  0  0  0
    8.3611  -13.8507   23.1139 O   0  0  0  0  0  0  0  0  0  0  0  0
    8.4245  -12.6398   23.4317 C   0  0  0  0  0  0  0  0  0  0  0  0
    5.7414  -12.3542   26.4639 C   0  0  1  0  0  0  0  0  0  0  0  0
    7.0820  -12.7501   25.8858 C   0  0  0  0  0  0  0  0  0  0  0  0
    8.1606  -12.0998   26.7453 C   0  0  0  0  0  0  0  0  0  0  0  0
    7.2861  -14.2239   25.9737 C   0  0  2  0  0  0  0  0  0  0  0  0
    8.6595  -14.5927   25.5113 N   0  0  0  0  0  0  0  0  0  0  0  0
    8.5588  -14.8555   24.0806 C   0  0  0  0  0  0  0  0  0  0  0  0
    9.2798  -15.7248   26.1965 O   0  0  0  0  0  0  0  0  0  0  0  0
    9.3695  -16.9999   25.6634 O   0  0  0  0  0  0  0  0  0  0  0  0
  1  2  1  0
  2  4  1  0
  2  3  2  0
  4  5  1  0
  6  5  1  0
  6  7  1  0
  7  8  1  0
  8  9  1  6
 10 11  2  0
 10  8  1  0
 13 12  1  6
 13 14  1  0
 13 15  1  0
 14 10  1  0
 15 22  1  0
 16 15  2  0
 18 20  1  0
 18 17  1  6
 19 18  1  0
 21 20  1  6
 21 23  1  0
 22 21  1  0
 23 25  2  0
 23 24  1  0
M  END
$$$$
