RAL.pdb
     RDKit          3D

 25 24  0  0  1  0  0  0  0  0999 V2000
    9.5092  -15.5201   16.6503 N   0  0  0  0  0  0  0  0  0  0  0  0
    8.6104  -14.6000   16.0773 C   0  0  0  0  0  0  0  0  0  0  0  0
    8.2523  -14.7580   14.8561 N   0  0  0  0  0  0  0  0  0  0  0  0
    8.1066  -13.5099   16.8423 N   0  0  0  0  0  0  0  0  0  0  0  0
    8.6183  -13.2843   18.1817 C   0  0  0  0  0  0  0  0  0  0  0  0
    7.4703  -13.3062   19.1295 C   0  0  0  0  0  0  0  0  0  0  0  0
    7.7104  -13.9779   20.4340 C   0  0  0  0  0  0  0  0  0  0  0  0
    7.7828  -15.4650   20.4118 C   0  0  2  0  0  0  0  0  0  0  0  0
    6.7281  -16.1317   19.7156 N   0  0  0  0  0  0  0  0  0  0  0  0
    7.7747  -15.9318   21.8220 C   0  0  0  0  0  0  0  0  0  0  0  0
    6.6852  -15.9891   22.4368 O   0  0  0  0  0  0  0  0  0  0  0  0
    7.7682  -14.0556   14.2804 C   0  0  0  0  0  0  0  0  0  0  0  0
    9.6568  -18.0567   24.0747 C   0  0  2  0  0  0  0  0  0  0  0  0
    8.8521  -16.7749   23.9068 N   0  0  0  0  0  0  0  0  0  0  0  0
    8.9506  -16.3194   22.5121 C   0  0  0  0  0  0  0  0  0  0  0  0
    9.4404  -15.7012   24.7616 O   0  0  0  0  0  0  0  0  0  0  0  0
   10.5389  -15.1655   24.4829 C   0  0  0  0  0  0  0  0  0  0  0  0
    6.1180  -12.0564   26.4742 C   0  0  1  0  0  0  0  0  0  0  0  0
    7.3167  -12.8814   26.0611 C   0  0  0  0  0  0  0  0  0  0  0  0
    8.3342  -11.9305   25.4404 C   0  0  0  0  0  0  0  0  0  0  0  0
    7.9703  -13.5032   27.2476 C   0  0  2  0  0  0  0  0  0  0  0  0
    9.1798  -14.2794   26.8346 N   0  0  0  0  0  0  0  0  0  0  0  0
    8.7185  -15.3016   25.9028 C   0  0  0  0  0  0  0  0  0  0  0  0
    9.9484  -14.8861   27.9195 O   0  0  0  0  0  0  0  0  0  0  0  0
   10.8032  -14.1833   28.7523 O   0  0  0  0  0  0  0  0  0  0  0  0
  1  2  1  0
  2  4  1  0
  2  3  2  0
  4  5  1  0
  6  5  1  0
  6  7  1  0
  7  8  1  0
  8  9  1  6
 10 11  2  0
 10  8  1  0
 13 12  1  6
 13 14  1  0
 13 15  1  0
 14 10  1  0
 15 22  1  0
 16 15  2  0
 18 20  1  0
 18 17  1  6
 19 18  1  0
 21 20  1  6
 21 23  1  0
 22 21  1  0
 23 25  2  0
 23 24  1  0
M  END
$$$$
