RAL.pdb
     RDKit          3D

 25 24  0  0  1  0  0  0  0  0999 V2000
    9.7972  -14.1931   15.1013 N   0  0  0  0  0  0  0  0  0  0  0  0
    8.6909  -13.7514   15.8522 C   0  0  0  0  0  0  0  0  0  0  0  0
    7.5082  -14.0014   15.4237 N   0  0  0  0  0  0  0  0  0  0  0  0
    8.8821  -13.0377   17.0692 N   0  0  0  0  0  0  0  0  0  0  0  0
    8.8547  -13.7589   18.3286 C   0  0  0  0  0  0  0  0  0  0  0  0
    7.4328  -13.9476   18.7273 C   0  0  0  0  0  0  0  0  0  0  0  0
    7.2022  -14.6226   20.0318 C   0  0  0  0  0  0  0  0  0  0  0  0
    7.9267  -15.9046   20.2533 C   0  0  2  0  0  0  0  0  0  0  0  0
    7.4862  -17.0149   19.4692 N   0  0  0  0  0  0  0  0  0  0  0  0
    7.7733  -16.2602   21.6874 C   0  0  0  0  0  0  0  0  0  0  0  0
    6.6347  -16.5445   22.1245 O   0  0  0  0  0  0  0  0  0  0  0  0
    6.6339  -13.6978   15.8736 C   0  0  0  0  0  0  0  0  0  0  0  0
    9.3322  -17.9905   24.2846 C   0  0  2  0  0  0  0  0  0  0  0  0
    8.6250  -16.6737   23.9942 N   0  0  0  0  0  0  0  0  0  0  0  0
    8.8627  -16.2938   22.5936 C   0  0  0  0  0  0  0  0  0  0  0  0
    9.2090  -15.5955   24.8464 O   0  0  0  0  0  0  0  0  0  0  0  0
   10.3080  -15.0599   24.5693 C   0  0  0  0  0  0  0  0  0  0  0  0
    5.9292  -11.9115   26.4278 C   0  0  1  0  0  0  0  0  0  0  0  0
    7.1517  -12.7273   26.0702 C   0  0  0  0  0  0  0  0  0  0  0  0
    8.1948  -11.7664   25.5103 C   0  0  0  0  0  0  0  0  0  0  0  0
    7.7467  -13.3559   27.2835 C   0  0  2  0  0  0  0  0  0  0  0  0
    8.9447  -14.1728   26.9183 N   0  0  0  0  0  0  0  0  0  0  0  0
    8.4826  -15.1916   25.9832 C   0  0  0  0  0  0  0  0  0  0  0  0
    9.6594  -14.7895   28.0340 O   0  0  0  0  0  0  0  0  0  0  0  0
   10.5486  -14.1147   28.8538 O   0  0  0  0  0  0  0  0  0  0  0  0
  1  2  1  0
  2  4  1  0
  2  3  2  0
  4  5  1  0
  6  5  1  0
  6  7  1  0
  7  8  1  0
  8  9  1  6
 10 11  2  0
 10  8  1  0
 13 12  1  6
 13 14  1  0
 13 15  1  0
 14 10  1  0
 15 22  1  0
 16 15  2  0
 18 20  1  0
 18 17  1  6
 19 18  1  0
 21 20  1  6
 21 23  1  0
 22 21  1  0
 23 25  2  0
 23 24  1  0
M  END
$$$$
