DKH.pdb
     RDKit          3D

 28 28  0  0  1  0  0  0  0  0999 V2000
   12.9055  -15.0380   17.8622 N   0  0  0  0  0  0  0  0  0  0  0  0
   13.4992  -15.3726   19.1172 C   0  0  1  0  0  0  0  0  0  0  0  0
   14.3532  -14.2740   19.6665 C   0  0  0  0  0  0  0  0  0  0  0  0
   15.6140  -14.1541   18.8991 C   0  0  0  0  0  0  0  0  0  0  0  0
   15.8868  -13.0519   18.3674 O   0  0  0  0  0  0  0  0  0  0  0  0
   12.4741  -15.7074   20.1575 C   0  0  0  0  0  0  0  0  0  0  0  0
   11.5485  -14.8943   20.3528 O   0  0  0  0  0  0  0  0  0  0  0  0
   16.4778  -15.2299   18.7666 O   0  0  0  0  0  0  0  0  0  0  0  0
   12.5126  -16.8932   20.9177 N   0  0  0  0  0  0  0  0  0  0  0  0
   11.3938  -17.3078   21.7355 C   0  0  1  0  0  0  0  0  0  0  0  0
   11.2351  -18.8295   21.7081 C   0  0  0  0  0  0  0  0  0  0  0  0
   10.0143  -19.1545   22.5300 C   0  0  0  0  0  0  0  0  0  0  0  0
    9.7504  -20.6331   22.6088 C   0  0  0  0  0  0  0  0  0  0  0  0
    8.4422  -20.8199   23.3599 C   0  0  0  0  0  0  0  0  0  0  0  0
    8.2316  -22.2583   23.4824 N   0  0  0  0  0  0  0  0  0  0  0  0
   11.6152  -16.8546   23.1160 C   0  0  0  0  0  0  0  0  0  0  0  0
   12.7895  -16.8631   23.5834 O   0  0  0  0  0  0  0  0  0  0  0  0
   10.5377  -16.4010   23.9542 N   0  0  0  0  0  0  0  0  0  0  0  0
   10.8428  -15.9400   25.2665 C   0  0  1  0  0  0  0  0  0  0  0  0
    9.6713  -15.2604   25.9433 C   0  0  0  0  0  0  0  0  0  0  0  0
    9.9950  -14.8537   27.3339 C   0  0  0  0  0  0  0  0  0  0  0  0
   11.1986  -15.0459   28.0018 C   0  0  0  0  0  0  0  0  0  0  0  0
   11.0634  -14.5289   29.2357 N   0  0  0  0  0  0  0  0  0  0  0  0
    9.8292  -14.0199   29.3746 C   0  0  0  0  0  0  0  0  0  0  0  0
    9.1991  -14.2295   28.2055 N   0  0  0  0  0  0  0  0  0  0  0  0
   11.2204  -17.0853   26.1311 C   0  0  0  0  0  0  0  0  0  0  0  0
   12.1148  -16.9086   26.9921 O   0  0  0  0  0  0  0  0  0  0  0  0
   10.6167  -18.3112   26.0044 O   0  0  0  0  0  0  0  0  0  0  0  0
  2  1  1  6
  2  3  1  0
  3  4  1  0
  4  5  2  0
  4  8  1  0
  6  7  2  0
  6  2  1  0
  9  6  1  0
 10  9  1  0
 10 11  1  1
 11 12  1  0
 12 13  1  0
 13 14  1  0
 14 15  1  0
 16 17  2  0
 16 10  1  0
 18 16  1  0
 19 18  1  0
 19 20  1  1
 20 21  1  0
 21 25  1  0
 21 22  2  0
 22 23  1  0
 24 23  1  0
 25 24  2  0
 26 28  1  0
 26 19  1  0
 27 26  2  0
M  END
$$$$
