DKH.pdb
     RDKit          3D

 28 28  0  0  1  0  0  0  0  0999 V2000
   13.6275  -19.2849   21.0138 N   0  0  0  0  0  0  0  0  0  0  0  0
   13.2030  -17.9333   20.8342 C   0  0  1  0  0  0  0  0  0  0  0  0
   13.1630  -17.5237   19.3959 C   0  0  0  0  0  0  0  0  0  0  0  0
   14.5282  -17.2626   18.8852 C   0  0  0  0  0  0  0  0  0  0  0  0
   15.4946  -17.3848   19.6746 O   0  0  0  0  0  0  0  0  0  0  0  0
   11.8418  -17.6858   21.4097 C   0  0  0  0  0  0  0  0  0  0  0  0
   11.3076  -16.5786   21.1988 O   0  0  0  0  0  0  0  0  0  0  0  0
   14.7417  -16.8917   17.5669 O   0  0  0  0  0  0  0  0  0  0  0  0
   11.1464  -18.6448   22.1728 N   0  0  0  0  0  0  0  0  0  0  0  0
    9.8295  -18.3791   22.7091 C   0  0  1  0  0  0  0  0  0  0  0  0
    8.9773  -19.6501   22.7117 C   0  0  0  0  0  0  0  0  0  0  0  0
    7.5833  -19.2383   23.1103 C   0  0  0  0  0  0  0  0  0  0  0  0
    6.6206  -20.3939   23.1135 C   0  0  0  0  0  0  0  0  0  0  0  0
    5.2443  -19.8353   23.4362 C   0  0  0  0  0  0  0  0  0  0  0  0
    4.3340  -20.9738   23.4958 N   0  0  0  0  0  0  0  0  0  0  0  0
    9.9647  -17.8670   24.0801 C   0  0  0  0  0  0  0  0  0  0  0  0
   10.1568  -18.6850   25.0243 O   0  0  0  0  0  0  0  0  0  0  0  0
    9.8855  -16.4631   24.3834 N   0  0  0  0  0  0  0  0  0  0  0  0
    8.8461  -16.0094   25.2444 C   0  0  1  0  0  0  0  0  0  0  0  0
    7.4815  -16.0306   24.5887 C   0  0  0  0  0  0  0  0  0  0  0  0
    7.4727  -15.2862   23.3043 C   0  0  0  0  0  0  0  0  0  0  0  0
    8.5273  -14.5758   22.7432 C   0  0  0  0  0  0  0  0  0  0  0  0
    8.0928  -14.0574   21.5811 N   0  0  0  0  0  0  0  0  0  0  0  0
    6.8124  -14.4094   21.3853 C   0  0  0  0  0  0  0  0  0  0  0  0
    6.4582  -15.1558   22.4461 N   0  0  0  0  0  0  0  0  0  0  0  0
    8.7534  -16.8902   26.4350 C   0  0  0  0  0  0  0  0  0  0  0  0
    7.9533  -16.5724   27.3468 O   0  0  0  0  0  0  0  0  0  0  0  0
    9.5158  -18.0253   26.5504 O   0  0  0  0  0  0  0  0  0  0  0  0
  2  1  1  6
  2  3  1  0
  3  4  1  0
  4  5  2  0
  4  8  1  0
  6  7  2  0
  6  2  1  0
  9  6  1  0
 10  9  1  0
 10 11  1  1
 11 12  1  0
 12 13  1  0
 13 14  1  0
 14 15  1  0
 16 17  2  0
 16 10  1  0
 18 16  1  0
 19 18  1  0
 19 20  1  6
 20 21  1  0
 21 25  1  0
 21 22  2  0
 22 23  1  0
 24 23  1  0
 25 24  2  0
 26 28  1  0
 26 19  1  0
 27 26  2  0
M  END
$$$$
