DKH.pdb
     RDKit          3D

 28 28  0  0  1  0  0  0  0  0999 V2000
    7.7153  -19.9107   18.8593 N   0  0  0  0  0  0  0  0  0  0  0  0
    7.5309  -19.4290   20.1909 C   0  0  1  0  0  0  0  0  0  0  0  0
    7.7354  -20.4901   21.2255 C   0  0  0  0  0  0  0  0  0  0  0  0
    6.7452  -21.5794   21.0646 C   0  0  0  0  0  0  0  0  0  0  0  0
    7.0607  -22.5756   20.3716 O   0  0  0  0  0  0  0  0  0  0  0  0
    8.4582  -18.2984   20.5179 C   0  0  0  0  0  0  0  0  0  0  0  0
    9.6814  -18.4745   20.3485 O   0  0  0  0  0  0  0  0  0  0  0  0
    5.4968  -21.5076   21.6624 O   0  0  0  0  0  0  0  0  0  0  0  0
    8.0087  -17.0549   21.0049 N   0  0  0  0  0  0  0  0  0  0  0  0
    8.9219  -15.9600   21.2495 C   0  0  1  0  0  0  0  0  0  0  0  0
    8.2587  -14.6180   20.9317 C   0  0  0  0  0  0  0  0  0  0  0  0
    8.1594  -14.5264   19.4306 C   0  0  0  0  0  0  0  0  0  0  0  0
    7.4844  -13.2621   18.9746 C   0  0  0  0  0  0  0  0  0  0  0  0
    7.3734  -13.3293   17.4602 C   0  0  0  0  0  0  0  0  0  0  0  0
    6.6301  -12.1457   17.0420 N   0  0  0  0  0  0  0  0  0  0  0  0
    9.3382  -15.9888   22.6587 C   0  0  0  0  0  0  0  0  0  0  0  0
    8.4521  -16.0075   23.5598 O   0  0  0  0  0  0  0  0  0  0  0  0
   10.7233  -15.9964   23.0471 N   0  0  0  0  0  0  0  0  0  0  0  0
   11.0467  -16.2340   24.4133 C   0  0  1  0  0  0  0  0  0  0  0  0
   10.6719  -17.6254   24.8780 C   0  0  0  0  0  0  0  0  0  0  0  0
    9.2556  -17.7000   25.3164 C   0  0  0  0  0  0  0  0  0  0  0  0
    8.3304  -16.6630   25.3329 C   0  0  0  0  0  0  0  0  0  0  0  0
    7.1723  -17.1616   25.8002 N   0  0  0  0  0  0  0  0  0  0  0  0
    7.3267  -18.4655   26.0785 C   0  0  0  0  0  0  0  0  0  0  0  0
    8.6012  -18.7692   25.7762 N   0  0  0  0  0  0  0  0  0  0  0  0
   12.5106  -16.1032   24.6177 C   0  0  0  0  0  0  0  0  0  0  0  0
   12.9675  -16.2913   25.7703 O   0  0  0  0  0  0  0  0  0  0  0  0
   13.3552  -15.7857   23.5839 O   0  0  0  0  0  0  0  0  0  0  0  0
  2  1  1  6
  2  3  1  0
  3  4  1  0
  4  5  2  0
  4  8  1  0
  6  7  2  0
  6  2  1  0
  9  6  1  0
 10  9  1  0
 10 11  1  1
 11 12  1  0
 12 13  1  0
 13 14  1  0
 14 15  1  0
 16 17  2  0
 16 10  1  0
 18 16  1  0
 19 18  1  0
 19 20  1  6
 20 21  1  0
 21 25  1  0
 21 22  2  0
 22 23  1  0
 24 23  1  0
 25 24  2  0
 26 28  1  0
 26 19  1  0
 27 26  2  0
M  END
$$$$
