DKH.pdb
     RDKit          3D

 28 28  0  0  1  0  0  0  0  0999 V2000
    8.4314  -18.3798   15.3973 N   0  0  0  0  0  0  0  0  0  0  0  0
    9.3631  -18.4023   16.4793 C   0  0  1  0  0  0  0  0  0  0  0  0
   10.4194  -17.3499   16.3576 C   0  0  0  0  0  0  0  0  0  0  0  0
   11.3128  -17.6314   15.2107 C   0  0  0  0  0  0  0  0  0  0  0  0
   11.2119  -16.9164   14.1857 O   0  0  0  0  0  0  0  0  0  0  0  0
    8.6940  -18.2157   17.8069 C   0  0  0  0  0  0  0  0  0  0  0  0
    7.8228  -17.3284   17.9058 O   0  0  0  0  0  0  0  0  0  0  0  0
   12.2414  -18.6590   15.2607 O   0  0  0  0  0  0  0  0  0  0  0  0
    9.0061  -18.9949   18.9387 N   0  0  0  0  0  0  0  0  0  0  0  0
    8.2345  -18.9050   20.1590 C   0  0  1  0  0  0  0  0  0  0  0  0
    8.1197  -20.2747   20.8315 C   0  0  0  0  0  0  0  0  0  0  0  0
    7.2094  -20.1009   22.0201 C   0  0  0  0  0  0  0  0  0  0  0  0
    6.9343  -21.3985   22.7290 C   0  0  0  0  0  0  0  0  0  0  0  0
    5.8396  -21.1334   23.7496 C   0  0  0  0  0  0  0  0  0  0  0  0
    5.5332  -22.4143   24.3770 N   0  0  0  0  0  0  0  0  0  0  0  0
    8.8884  -17.9555   21.0706 C   0  0  0  0  0  0  0  0  0  0  0  0
   10.1346  -18.0466   21.2605 O   0  0  0  0  0  0  0  0  0  0  0  0
    8.1556  -16.9241   21.7550 N   0  0  0  0  0  0  0  0  0  0  0  0
    8.8738  -16.0057   22.5725 C   0  0  1  0  0  0  0  0  0  0  0  0
    8.2459  -14.6284   22.6096 C   0  0  0  0  0  0  0  0  0  0  0  0
    8.2712  -13.9723   21.2782 C   0  0  0  0  0  0  0  0  0  0  0  0
    8.9377  -14.4143   20.1415 C   0  0  0  0  0  0  0  0  0  0  0  0
    8.6964  -13.5270   19.1605 N   0  0  0  0  0  0  0  0  0  0  0  0
    7.9081  -12.5465   19.6282 C   0  0  0  0  0  0  0  0  0  0  0  0
    7.6634  -12.8395   20.9174 N   0  0  0  0  0  0  0  0  0  0  0  0
    8.9039  -16.4912   23.9744 C   0  0  0  0  0  0  0  0  0  0  0  0
    8.2812  -17.5441   24.2507 O   0  0  0  0  0  0  0  0  0  0  0  0
    9.5898  -15.8178   24.9538 O   0  0  0  0  0  0  0  0  0  0  0  0
  2  1  1  6
  2  3  1  0
  3  4  1  0
  4  5  2  0
  4  8  1  0
  6  7  2  0
  6  2  1  0
  9  6  1  0
 10  9  1  0
 10 11  1  1
 11 12  1  0
 12 13  1  0
 13 14  1  0
 14 15  1  0
 16 17  2  0
 16 10  1  0
 18 16  1  0
 19 18  1  0
 19 20  1  1
 20 21  1  0
 21 25  1  0
 21 22  2  0
 22 23  1  0
 24 23  1  0
 25 24  2  0
 26 28  1  0
 26 19  1  0
 27 26  2  0
M  END
$$$$
