DKH.pdb
     RDKit          3D

 28 28  0  0  1  0  0  0  0  0999 V2000
    9.4624  -15.4016   18.5111 N   0  0  0  0  0  0  0  0  0  0  0  0
    8.5678  -14.4515   19.0910 C   0  0  1  0  0  0  0  0  0  0  0  0
    7.4588  -14.0592   18.1666 C   0  0  0  0  0  0  0  0  0  0  0  0
    7.9904  -13.6852   16.8361 C   0  0  0  0  0  0  0  0  0  0  0  0
    9.2272  -13.7606   16.6445 O   0  0  0  0  0  0  0  0  0  0  0  0
    7.9414  -14.9603   20.3534 C   0  0  0  0  0  0  0  0  0  0  0  0
    7.0337  -14.2811   20.8737 O   0  0  0  0  0  0  0  0  0  0  0  0
    7.1478  -13.2608   15.8208 O   0  0  0  0  0  0  0  0  0  0  0  0
    8.3324  -16.1647   20.9717 N   0  0  0  0  0  0  0  0  0  0  0  0
    7.6415  -16.6817   22.1326 C   0  0  1  0  0  0  0  0  0  0  0  0
    7.5211  -18.2054   22.0595 C   0  0  0  0  0  0  0  0  0  0  0  0
    6.6828  -18.5178   20.8465 C   0  0  0  0  0  0  0  0  0  0  0  0
    6.6698  -19.9855   20.5184 C   0  0  0  0  0  0  0  0  0  0  0  0
    5.7488  -20.1740   19.3239 C   0  0  0  0  0  0  0  0  0  0  0  0
    5.7930  -21.5913   18.9810 N   0  0  0  0  0  0  0  0  0  0  0  0
    8.3833  -16.2979   23.3420 C   0  0  0  0  0  0  0  0  0  0  0  0
    9.6329  -16.1242   23.2660 O   0  0  0  0  0  0  0  0  0  0  0  0
    7.7329  -16.1132   24.6118 N   0  0  0  0  0  0  0  0  0  0  0  0
    8.5183  -15.7039   25.7267 C   0  0  1  0  0  0  0  0  0  0  0  0
    7.7185  -14.9574   26.7733 C   0  0  0  0  0  0  0  0  0  0  0  0
    7.3464  -13.5944   26.3178 C   0  0  0  0  0  0  0  0  0  0  0  0
    7.8927  -12.8921   25.2501 C   0  0  0  0  0  0  0  0  0  0  0  0
    7.2703  -11.7018   25.1880 N   0  0  0  0  0  0  0  0  0  0  0  0
    6.3569  -11.6230   26.1684 C   0  0  0  0  0  0  0  0  0  0  0  0
    6.4222  -12.7853   26.8413 N   0  0  0  0  0  0  0  0  0  0  0  0
    9.0926  -16.8918   26.4056 C   0  0  0  0  0  0  0  0  0  0  0  0
    8.7795  -18.0283   25.9777 O   0  0  0  0  0  0  0  0  0  0  0  0
    9.9446  -16.7672   27.4741 O   0  0  0  0  0  0  0  0  0  0  0  0
  2  1  1  6
  2  3  1  0
  3  4  1  0
  4  5  2  0
  4  8  1  0
  6  7  2  0
  6  2  1  0
  9  6  1  0
 10  9  1  0
 10 11  1  6
 11 12  1  0
 12 13  1  0
 13 14  1  0
 14 15  1  0
 16 17  2  0
 16 10  1  0
 18 16  1  0
 19 18  1  0
 19 20  1  1
 20 21  1  0
 21 25  1  0
 21 22  2  0
 22 23  1  0
 24 23  1  0
 25 24  2  0
 26 28  1  0
 26 19  1  0
 27 26  2  0
M  END
$$$$
