DKH.pdb
     RDKit          3D

 28 28  0  0  1  0  0  0  0  0999 V2000
    6.9552  -20.2645   20.0119 N   0  0  0  0  0  0  0  0  0  0  0  0
    6.2629  -19.5206   21.0151 C   0  0  1  0  0  0  0  0  0  0  0  0
    5.6461  -20.3928   22.0624 C   0  0  0  0  0  0  0  0  0  0  0  0
    4.6006  -21.2614   21.4747 C   0  0  0  0  0  0  0  0  0  0  0  0
    4.4340  -21.2382   20.2322 O   0  0  0  0  0  0  0  0  0  0  0  0
    7.1579  -18.5434   21.7145 C   0  0  0  0  0  0  0  0  0  0  0  0
    8.2179  -18.9714   22.2139 O   0  0  0  0  0  0  0  0  0  0  0  0
    3.8202  -22.0837   22.2719 O   0  0  0  0  0  0  0  0  0  0  0  0
    6.8538  -17.1724   21.8303 N   0  0  0  0  0  0  0  0  0  0  0  0
    7.7809  -16.2366   22.4278 C   0  0  1  0  0  0  0  0  0  0  0  0
    7.4358  -14.8001   22.0290 C   0  0  0  0  0  0  0  0  0  0  0  0
    7.9236  -14.6119   20.6154 C   0  0  0  0  0  0  0  0  0  0  0  0
    7.6292  -13.2363   20.0833 C   0  0  0  0  0  0  0  0  0  0  0  0
    8.1946  -13.1656   18.6742 C   0  0  0  0  0  0  0  0  0  0  0  0
    7.9146  -11.8227   18.1777 N   0  0  0  0  0  0  0  0  0  0  0  0
    7.7257  -16.3747   23.8900 C   0  0  0  0  0  0  0  0  0  0  0  0
    6.6563  -16.0772   24.4943 O   0  0  0  0  0  0  0  0  0  0  0  0
    8.8507  -16.8382   24.6575 N   0  0  0  0  0  0  0  0  0  0  0  0
    8.7485  -16.8499   26.0777 C   0  0  1  0  0  0  0  0  0  0  0  0
    8.9602  -18.2245   26.6760 C   0  0  0  0  0  0  0  0  0  0  0  0
    7.8529  -19.1530   26.3359 C   0  0  0  0  0  0  0  0  0  0  0  0
    6.7114  -18.8578   25.5999 C   0  0  0  0  0  0  0  0  0  0  0  0
    5.9745  -19.9803   25.5289 N   0  0  0  0  0  0  0  0  0  0  0  0
    6.6005  -20.9687   26.1869 C   0  0  0  0  0  0  0  0  0  0  0  0
    7.7397  -20.4411   26.6684 N   0  0  0  0  0  0  0  0  0  0  0  0
    9.7879  -15.9706   26.6679 C   0  0  0  0  0  0  0  0  0  0  0  0
   10.5750  -15.3791   25.8913 O   0  0  0  0  0  0  0  0  0  0  0  0
    9.8980  -15.7986   28.0249 O   0  0  0  0  0  0  0  0  0  0  0  0
  2  1  1  6
  2  3  1  0
  3  4  1  0
  4  5  2  0
  4  8  1  0
  6  7  2  0
  6  2  1  0
  9  6  1  0
 10  9  1  0
 10 11  1  1
 11 12  1  0
 12 13  1  0
 13 14  1  0
 14 15  1  0
 16 17  2  0
 16 10  1  0
 18 16  1  0
 19 18  1  0
 19 20  1  1
 20 21  1  0
 21 25  1  0
 21 22  2  0
 22 23  1  0
 24 23  1  0
 25 24  2  0
 26 28  1  0
 26 19  1  0
 27 26  2  0
M  END
$$$$
