ETM.pdb
     RDKit          3D

 25 24  0  0  1  0  0  0  0  0999 V2000
   16.2209  -11.1005  -18.0327 N   0  0  0  0  0  0  0  0  0  0  0  0
   16.3148  -10.2174  -16.8686 C   0  0  1  0  0  0  0  0  0  0  0  0
   16.5831  -11.1412  -15.6726 C   0  0  0  0  0  0  0  0  0  0  0  0
   17.1614  -12.4273  -16.1946 C   0  0  0  0  0  0  0  0  0  0  0  0
   17.5469  -13.3812  -15.1372 C   0  0  0  0  0  0  0  0  0  0  0  0
   18.1040  -14.4749  -15.3534 O   0  0  0  0  0  0  0  0  0  0  0  0
   17.4608   -9.3096  -17.0811 C   0  0  0  0  0  0  0  0  0  0  0  0
   18.3210   -9.5804  -17.9397 O   0  0  0  0  0  0  0  0  0  0  0  0
   17.2734  -13.0437  -13.8021 O   0  0  0  0  0  0  0  0  0  0  0  0
   16.7111   -5.6109  -17.4790 C   0  0  0  0  0  0  0  0  0  0  0  0
   17.8400   -5.7566  -16.5131 C   0  0  1  0  0  0  0  0  0  0  0  0
   17.2556   -5.7566  -15.2245 O   0  0  0  0  0  0  0  0  0  0  0  0
   18.5695   -7.0896  -16.6258 C   0  0  2  0  0  0  0  0  0  0  0  0
   17.5706   -8.1241  -16.2963 N   0  0  0  0  0  0  0  0  0  0  0  0
   19.6920   -7.2253  -15.6868 C   0  0  0  0  0  0  0  0  0  0  0  0
   19.8188   -8.2796  -14.9654 O   0  0  0  0  0  0  0  0  0  0  0  0
   25.8658  -10.0573  -14.4975 C   0  0  0  0  0  0  0  0  0  0  0  0
   24.2066   -9.5734  -15.0469 S   0  0  0  0  0  0  0  0  0  0  0  0
   24.1688   -7.7906  -15.4634 C   0  0  0  0  0  0  0  0  0  0  0  0
   22.7626   -7.4944  -15.9043 C   0  0  0  0  0  0  0  0  0  0  0  0
   22.0132   -6.6021  -14.9620 C   0  0  2  0  0  0  0  0  0  0  0  0
   20.7024   -6.2516  -15.4920 N   0  0  0  0  0  0  0  0  0  0  0  0
   22.7269   -5.3275  -14.7810 C   0  0  0  0  0  0  0  0  0  0  0  0
   22.5419   -4.3607  -15.5532 O   0  0  0  0  0  0  0  0  0  0  0  0
   23.6349   -5.1267  -13.7555 O   0  0  0  0  0  0  0  0  0  0  0  0
  2  1  1  6
  2  3  1  0
  4  5  1  0
  4  3  1  0
  5  6  2  0
  7  8  2  0
  7  2  1  0
  9  5  1  0
 11 10  1  6
 11 13  1  0
 12 11  1  0
 13 14  1  1
 14  7  1  0
 15 13  1  0
 15 22  1  0
 16 15  2  0
 18 17  1  0
 19 18  1  0
 19 20  1  0
 21 20  1  6
 21 22  1  0
 21 23  1  0
 23 25  1  0
 24 23  2  0
M  END
$$$$
