ETM.pdb
     RDKit          3D

 25 24  0  0  1  0  0  0  0  0999 V2000
   12.6343   -6.6973  -14.2843 N   0  0  0  0  0  0  0  0  0  0  0  0
   13.7381   -5.8241  -14.6882 C   0  0  1  0  0  0  0  0  0  0  0  0
   13.9963   -4.9054  -13.4861 C   0  0  0  0  0  0  0  0  0  0  0  0
   12.9577   -3.8182  -13.4959 C   0  0  0  0  0  0  0  0  0  0  0  0
   13.1700   -2.7804  -12.4689 C   0  0  0  0  0  0  0  0  0  0  0  0
   12.6127   -2.7777  -11.3542 O   0  0  0  0  0  0  0  0  0  0  0  0
   14.9179   -6.6757  -14.9442 C   0  0  0  0  0  0  0  0  0  0  0  0
   14.8369   -7.9110  -14.8107 O   0  0  0  0  0  0  0  0  0  0  0  0
   14.0532   -1.7277  -12.7568 O   0  0  0  0  0  0  0  0  0  0  0  0
   16.6528   -6.9746  -18.0935 C   0  0  0  0  0  0  0  0  0  0  0  0
   17.6913   -6.5614  -17.1038 C   0  0  1  0  0  0  0  0  0  0  0  0
   17.7449   -5.1485  -17.1591 O   0  0  0  0  0  0  0  0  0  0  0  0
   17.3262   -6.8958  -15.6628 C   0  0  2  0  0  0  0  0  0  0  0  0
   16.1453   -6.0706  -15.3449 N   0  0  0  0  0  0  0  0  0  0  0  0
   18.3847   -6.5663  -14.6978 C   0  0  0  0  0  0  0  0  0  0  0  0
   18.3338   -5.4805  -14.0149 O   0  0  0  0  0  0  0  0  0  0  0  0
   23.2701   -9.4825   -9.3325 C   0  0  0  0  0  0  0  0  0  0  0  0
   22.3147   -9.6894  -10.8601 S   0  0  0  0  0  0  0  0  0  0  0  0
   21.9675   -8.0597  -11.6193 C   0  0  0  0  0  0  0  0  0  0  0  0
   20.9995   -8.3186  -12.7398 C   0  0  0  0  0  0  0  0  0  0  0  0
   20.4453   -7.0697  -13.3553 C   0  0  2  0  0  0  0  0  0  0  0  0
   19.5165   -7.3767  -14.4346 N   0  0  0  0  0  0  0  0  0  0  0  0
   21.5223   -6.2741  -13.9667 C   0  0  0  0  0  0  0  0  0  0  0  0
   22.2165   -5.4850  -13.2880 O   0  0  0  0  0  0  0  0  0  0  0  0
   21.8266   -6.3528  -15.3149 O   0  0  0  0  0  0  0  0  0  0  0  0
  2  1  1  1
  2  3  1  0
  4  5  1  0
  4  3  1  0
  5  6  2  0
  7  8  2  0
  7  2  1  0
  9  5  1  0
 11 10  1  6
 11 13  1  0
 12 11  1  0
 13 14  1  1
 14  7  1  0
 15 13  1  0
 15 22  1  0
 16 15  2  0
 18 17  1  0
 19 18  1  0
 19 20  1  0
 21 20  1  6
 21 22  1  0
 21 23  1  0
 23 25  1  0
 24 23  2  0
M  END
$$$$
