ETM.pdb
     RDKit          3D

 25 24  0  0  1  0  0  0  0  0999 V2000
   19.2995  -12.9463  -17.2045 N   0  0  0  0  0  0  0  0  0  0  0  0
   20.4513  -12.0422  -17.2075 C   0  0  1  0  0  0  0  0  0  0  0  0
   21.2380  -12.3831  -18.4805 C   0  0  0  0  0  0  0  0  0  0  0  0
   21.6960  -13.8118  -18.3796 C   0  0  0  0  0  0  0  0  0  0  0  0
   22.4713  -14.2740  -19.5466 C   0  0  0  0  0  0  0  0  0  0  0  0
   22.6431  -13.6007  -20.5811 O   0  0  0  0  0  0  0  0  0  0  0  0
   19.9394  -10.6581  -17.2774 C   0  0  0  0  0  0  0  0  0  0  0  0
   19.2660  -10.2904  -18.2582 O   0  0  0  0  0  0  0  0  0  0  0  0
   23.0556  -15.5497  -19.4967 O   0  0  0  0  0  0  0  0  0  0  0  0
   17.3807   -8.9680  -15.8961 C   0  0  0  0  0  0  0  0  0  0  0  0
   18.5730   -8.2309  -15.3828 C   0  0  1  0  0  0  0  0  0  0  0  0
   18.9409   -8.8725  -14.1765 O   0  0  0  0  0  0  0  0  0  0  0  0
   19.7937   -8.3420  -16.2880 C   0  0  2  0  0  0  0  0  0  0  0  0
   20.2227   -9.7516  -16.2139 N   0  0  0  0  0  0  0  0  0  0  0  0
   20.9200   -7.5004  -15.8600 C   0  0  0  0  0  0  0  0  0  0  0  0
   21.8232   -7.9644  -15.0746 O   0  0  0  0  0  0  0  0  0  0  0  0
   24.9234   -0.6643  -16.6789 C   0  0  0  0  0  0  0  0  0  0  0  0
   23.6551   -1.8399  -17.2251 S   0  0  0  0  0  0  0  0  0  0  0  0
   23.5411   -3.2430  -16.0541 C   0  0  0  0  0  0  0  0  0  0  0  0
   22.4494   -4.1349  -16.5758 C   0  0  0  0  0  0  0  0  0  0  0  0
   22.2205   -5.3565  -15.7386 C   0  0  2  0  0  0  0  0  0  0  0  0
   21.1152   -6.1535  -16.2535 N   0  0  0  0  0  0  0  0  0  0  0  0
   21.8386   -4.9786  -14.3682 C   0  0  0  0  0  0  0  0  0  0  0  0
   20.6436   -4.7821  -14.0545 O   0  0  0  0  0  0  0  0  0  0  0  0
   22.7708   -4.8207  -13.3570 O   0  0  0  0  0  0  0  0  0  0  0  0
  2  1  1  6
  2  3  1  0
  4  5  1  0
  4  3  1  0
  5  6  2  0
  7  8  2  0
  7  2  1  0
  9  5  1  0
 11 10  1  6
 11 13  1  0
 12 11  1  0
 13 14  1  1
 14  7  1  0
 15 13  1  0
 15 22  1  0
 16 15  2  0
 18 17  1  0
 19 18  1  0
 19 20  1  0
 21 20  1  6
 21 22  1  0
 21 23  1  0
 23 25  1  0
 24 23  2  0
M  END
$$$$
