ETM.pdb
     RDKit          3D

 25 24  0  0  1  0  0  0  0  0999 V2000
   25.3535  -13.4361  -18.8547 N   0  0  0  0  0  0  0  0  0  0  0  0
   25.9373  -12.0974  -18.9588 C   0  0  1  0  0  0  0  0  0  0  0  0
   25.0080  -11.1800  -18.1523 C   0  0  0  0  0  0  0  0  0  0  0  0
   23.7106  -11.0518  -18.9017 C   0  0  0  0  0  0  0  0  0  0  0  0
   22.6592  -10.3334  -18.1566 C   0  0  0  0  0  0  0  0  0  0  0  0
   22.8131   -9.8607  -17.0138 O   0  0  0  0  0  0  0  0  0  0  0  0
   27.2781  -12.1395  -18.3398 C   0  0  0  0  0  0  0  0  0  0  0  0
   27.6704  -13.1748  -17.7700 O   0  0  0  0  0  0  0  0  0  0  0  0
   21.4051  -10.1670  -18.7655 O   0  0  0  0  0  0  0  0  0  0  0  0
   29.5248  -13.4785  -18.6965 C   0  0  0  0  0  0  0  0  0  0  0  0
   30.1635  -12.1383  -18.8532 C   0  0  1  0  0  0  0  0  0  0  0  0
   29.9183  -11.7413  -20.1890 O   0  0  0  0  0  0  0  0  0  0  0  0
   29.5293  -11.0567  -17.9874 C   0  0  2  0  0  0  0  0  0  0  0  0
   28.1152  -10.9869  -18.4022 N   0  0  0  0  0  0  0  0  0  0  0  0
   30.1259   -9.7272  -18.1789 C   0  0  0  0  0  0  0  0  0  0  0  0
   29.7943   -8.9987  -19.1826 O   0  0  0  0  0  0  0  0  0  0  0  0
   34.6065   -8.6988  -13.5246 C   0  0  0  0  0  0  0  0  0  0  0  0
   34.6004   -7.4363  -14.8264 S   0  0  0  0  0  0  0  0  0  0  0  0
   33.7208   -8.0547  -16.3087 C   0  0  0  0  0  0  0  0  0  0  0  0
   32.4037   -7.3313  -16.3449 C   0  0  0  0  0  0  0  0  0  0  0  0
   31.5147   -7.7587  -17.4730 C   0  0  2  0  0  0  0  0  0  0  0  0
   31.0828   -9.1408  -17.3143 N   0  0  0  0  0  0  0  0  0  0  0  0
   32.2434   -7.7100  -18.7509 C   0  0  0  0  0  0  0  0  0  0  0  0
   32.5122   -6.6224  -19.3079 O   0  0  0  0  0  0  0  0  0  0  0  0
   32.6698   -8.8538  -19.4039 O   0  0  0  0  0  0  0  0  0  0  0  0
  2  1  1  1
  2  3  1  0
  4  5  1  0
  4  3  1  0
  5  6  2  0
  7  8  2  0
  7  2  1  0
  9  5  1  0
 11 10  1  1
 11 13  1  0
 12 11  1  0
 13 14  1  6
 14  7  1  0
 15 13  1  0
 15 22  1  0
 16 15  2  0
 18 17  1  0
 19 18  1  0
 19 20  1  0
 21 20  1  1
 21 22  1  0
 21 23  1  0
 23 25  1  0
 24 23  2  0
M  END
$$$$
