ETM.pdb
     RDKit          3D

 25 24  0  0  1  0  0  0  0  0999 V2000
   18.1407  -12.5524  -16.4688 N   0  0  0  0  0  0  0  0  0  0  0  0
   19.3679  -11.8274  -16.1335 C   0  0  1  0  0  0  0  0  0  0  0  0
   20.2897  -11.9957  -17.3491 C   0  0  0  0  0  0  0  0  0  0  0  0
   20.7170  -13.4357  -17.4171 C   0  0  0  0  0  0  0  0  0  0  0  0
   21.6038  -13.7422  -18.5557 C   0  0  0  0  0  0  0  0  0  0  0  0
   22.0480  -14.8790  -18.8078 O   0  0  0  0  0  0  0  0  0  0  0  0
   19.0166  -10.4041  -15.9507 C   0  0  0  0  0  0  0  0  0  0  0  0
   18.2242   -9.8509  -16.7359 O   0  0  0  0  0  0  0  0  0  0  0  0
   21.9747  -12.6944  -19.4135 O   0  0  0  0  0  0  0  0  0  0  0  0
   17.0592   -8.9656  -13.5252 C   0  0  0  0  0  0  0  0  0  0  0  0
   18.3720   -8.2745  -13.3597 C   0  0  1  0  0  0  0  0  0  0  0  0
   19.1035   -9.0422  -12.4228 O   0  0  0  0  0  0  0  0  0  0  0  0
   19.2200   -8.2669  -14.6257 C   0  0  2  0  0  0  0  0  0  0  0  0
   19.5916   -9.6737  -14.8695 N   0  0  0  0  0  0  0  0  0  0  0  0
   20.4577   -7.4848  -14.4981 C   0  0  0  0  0  0  0  0  0  0  0  0
   21.5554   -8.0485  -14.1442 O   0  0  0  0  0  0  0  0  0  0  0  0
   24.5360   -1.1785  -16.9278 C   0  0  0  0  0  0  0  0  0  0  0  0
   23.0427   -2.2072  -16.9034 S   0  0  0  0  0  0  0  0  0  0  0  0
   23.1436   -3.4438  -15.5566 C   0  0  0  0  0  0  0  0  0  0  0  0
   21.9494   -4.3412  -15.7232 C   0  0  0  0  0  0  0  0  0  0  0  0
   21.8354   -5.3925  -14.6613 C   0  0  2  0  0  0  0  0  0  0  0  0
   20.5608   -6.0931  -14.7425 N   0  0  0  0  0  0  0  0  0  0  0  0
   21.8725   -4.7804  -13.3233 C   0  0  0  0  0  0  0  0  0  0  0  0
   20.8222   -4.5236  -12.6938 O   0  0  0  0  0  0  0  0  0  0  0  0
   23.0603   -4.4569  -12.6899 O   0  0  0  0  0  0  0  0  0  0  0  0
  2  1  1  6
  2  3  1  0
  4  5  1  0
  4  3  1  0
  5  6  2  0
  7  8  2  0
  7  2  1  0
  9  5  1  0
 11 10  1  6
 11 13  1  0
 12 11  1  0
 13 14  1  1
 14  7  1  0
 15 13  1  0
 15 22  1  0
 16 15  2  0
 18 17  1  0
 19 18  1  0
 19 20  1  0
 21 20  1  6
 21 22  1  0
 21 23  1  0
 23 25  1  0
 24 23  2  0
M  END
$$$$
