ETM.pdb
     RDKit          3D

 25 24  0  0  1  0  0  0  0  0999 V2000
   17.1528  -12.2577  -12.0488 N   0  0  0  0  0  0  0  0  0  0  0  0
   16.1990  -11.1478  -12.0020 C   0  0  1  0  0  0  0  0  0  0  0  0
   14.8968  -11.7479  -11.4545 C   0  0  0  0  0  0  0  0  0  0  0  0
   14.2531  -12.5500  -12.5514 C   0  0  0  0  0  0  0  0  0  0  0  0
   12.9568  -13.1449  -12.1742 C   0  0  0  0  0  0  0  0  0  0  0  0
   11.8509  -12.6742  -12.5037 O   0  0  0  0  0  0  0  0  0  0  0  0
   16.7291  -10.1352  -11.0660 C   0  0  0  0  0  0  0  0  0  0  0  0
   17.2058  -10.4865   -9.9706 O   0  0  0  0  0  0  0  0  0  0  0  0
   12.9602  -14.3138  -11.3965 O   0  0  0  0  0  0  0  0  0  0  0  0
   19.5617   -7.9657  -11.4617 C   0  0  0  0  0  0  0  0  0  0  0  0
   18.3807   -7.0700  -11.2838 C   0  0  1  0  0  0  0  0  0  0  0  0
   17.8800   -6.8191  -12.5833 O   0  0  0  0  0  0  0  0  0  0  0  0
   17.2305   -7.7222  -10.5266 C   0  0  2  0  0  0  0  0  0  0  0  0
   16.6901   -8.7568  -11.4289 N   0  0  0  0  0  0  0  0  0  0  0  0
   16.1418   -6.7912  -10.1979 C   0  0  0  0  0  0  0  0  0  0  0  0
   15.0546   -6.7873  -10.8806 O   0  0  0  0  0  0  0  0  0  0  0  0
   11.7113   -3.3229   -4.8445 C   0  0  0  0  0  0  0  0  0  0  0  0
   13.0212   -4.4523   -5.3901 S   0  0  0  0  0  0  0  0  0  0  0  0
   13.5074   -4.0770   -7.1152 C   0  0  0  0  0  0  0  0  0  0  0  0
   14.5635   -5.0827   -7.4796 C   0  0  0  0  0  0  0  0  0  0  0  0
   15.0684   -4.9413   -8.8835 C   0  0  2  0  0  0  0  0  0  0  0  0
   16.1793   -5.8475   -9.1420 N   0  0  0  0  0  0  0  0  0  0  0  0
   15.5957   -3.5855   -9.1080 C   0  0  0  0  0  0  0  0  0  0  0  0
   14.8372   -2.5926   -9.1720 O   0  0  0  0  0  0  0  0  0  0  0  0
   16.9485   -3.3331   -9.2593 O   0  0  0  0  0  0  0  0  0  0  0  0
  2  1  1  1
  2  3  1  0
  4  5  1  0
  4  3  1  0
  5  6  2  0
  7  8  2  0
  7  2  1  0
  9  5  1  0
 11 10  1  6
 11 13  1  0
 12 11  1  0
 13 14  1  6
 14  7  1  0
 15 13  1  0
 15 22  1  0
 16 15  2  0
 18 17  1  0
 19 18  1  0
 19 20  1  0
 21 20  1  1
 21 22  1  0
 21 23  1  0
 23 25  1  0
 24 23  2  0
M  END
$$$$
