ETM.pdb
     RDKit          3D

 25 24  0  0  1  0  0  0  0  0999 V2000
   20.6394  -12.8782  -18.0480 N   0  0  0  0  0  0  0  0  0  0  0  0
   19.9816  -11.6091  -17.7309 C   0  0  1  0  0  0  0  0  0  0  0  0
   19.0171  -11.9228  -16.5790 C   0  0  0  0  0  0  0  0  0  0  0  0
   17.7630  -12.5101  -17.1649 C   0  0  0  0  0  0  0  0  0  0  0  0
   16.5753  -11.6468  -17.0204 C   0  0  0  0  0  0  0  0  0  0  0  0
   15.4307  -11.9663  -17.3958 O   0  0  0  0  0  0  0  0  0  0  0  0
   21.0218  -10.6602  -17.2834 C   0  0  0  0  0  0  0  0  0  0  0  0
   22.0126  -11.0722  -16.6518 O   0  0  0  0  0  0  0  0  0  0  0  0
   16.7355  -10.3860  -16.4238 O   0  0  0  0  0  0  0  0  0  0  0  0
   23.0003   -8.4265  -19.3826 C   0  0  0  0  0  0  0  0  0  0  0  0
   22.3394   -7.5493  -18.3716 C   0  0  1  0  0  0  0  0  0  0  0  0
   21.1523   -7.0765  -18.9795 O   0  0  0  0  0  0  0  0  0  0  0  0
   21.8846   -8.2949  -17.1230 C   0  0  2  0  0  0  0  0  0  0  0  0
   20.8800   -9.2731  -17.5819 N   0  0  0  0  0  0  0  0  0  0  0  0
   21.2504   -7.4276  -16.1202 C   0  0  0  0  0  0  0  0  0  0  0  0
   19.9824   -7.2277  -16.1348 O   0  0  0  0  0  0  0  0  0  0  0  0
   19.7402   -5.3535   -8.9182 C   0  0  0  0  0  0  0  0  0  0  0  0
   20.5427   -6.3612  -10.1948 S   0  0  0  0  0  0  0  0  0  0  0  0
   20.5969   -5.4513  -11.7830 C   0  0  0  0  0  0  0  0  0  0  0  0
   21.2372   -6.3811  -12.7754 C   0  0  0  0  0  0  0  0  0  0  0  0
   21.2622   -5.8424  -14.1736 C   0  0  2  0  0  0  0  0  0  0  0  0
   21.9421   -6.7556  -15.0823 N   0  0  0  0  0  0  0  0  0  0  0  0
   22.0218   -4.5828  -14.2276 C   0  0  0  0  0  0  0  0  0  0  0  0
   23.1939   -4.5458  -14.6635 O   0  0  0  0  0  0  0  0  0  0  0  0
   21.4882   -3.3778  -13.8036 O   0  0  0  0  0  0  0  0  0  0  0  0
  2  1  1  1
  2  3  1  0
  4  5  1  0
  4  3  1  0
  5  6  2  0
  7  8  2  0
  7  2  1  0
  9  5  1  0
 11 10  1  6
 11 13  1  0
 12 11  1  0
 13 14  1  6
 14  7  1  0
 15 13  1  0
 15 22  1  0
 16 15  2  0
 18 17  1  0
 19 18  1  0
 19 20  1  0
 21 20  1  1
 21 22  1  0
 21 23  1  0
 23 25  1  0
 24 23  2  0
M  END
$$$$
