ETM.pdb
     RDKit          3D

 25 24  0  0  1  0  0  0  0  0999 V2000
   15.2866  -13.8149  -17.1525 N   0  0  0  0  0  0  0  0  0  0  0  0
   16.2667  -13.3816  -16.1548 C   0  0  1  0  0  0  0  0  0  0  0  0
   17.2277  -14.5657  -15.9815 C   0  0  0  0  0  0  0  0  0  0  0  0
   16.4713  -15.6916  -15.3323 C   0  0  0  0  0  0  0  0  0  0  0  0
   17.2614  -16.9272  -15.1718 C   0  0  0  0  0  0  0  0  0  0  0  0
   17.2101  -17.8948  -15.9555 O   0  0  0  0  0  0  0  0  0  0  0  0
   16.9865  -12.2147  -16.7053 C   0  0  0  0  0  0  0  0  0  0  0  0
   17.2534  -12.1621  -17.9204 O   0  0  0  0  0  0  0  0  0  0  0  0
   18.1274  -17.0272  -14.0713 O   0  0  0  0  0  0  0  0  0  0  0  0
   15.8756   -8.9103  -17.0831 C   0  0  0  0  0  0  0  0  0  0  0  0
   17.0681   -8.8066  -16.1911 C   0  0  1  0  0  0  0  0  0  0  0  0
   16.5790   -8.9210  -14.8683 O   0  0  0  0  0  0  0  0  0  0  0  0
   18.0548   -9.9558  -16.3577 C   0  0  2  0  0  0  0  0  0  0  0  0
   17.3702  -11.1532  -15.8341 N   0  0  0  0  0  0  0  0  0  0  0  0
   19.2999   -9.7748  -15.5982 C   0  0  0  0  0  0  0  0  0  0  0  0
   19.4979  -10.4139  -14.5026 O   0  0  0  0  0  0  0  0  0  0  0  0
   26.6953  -10.3661  -14.3722 C   0  0  0  0  0  0  0  0  0  0  0  0
   25.1581  -10.5136  -15.3232 S   0  0  0  0  0  0  0  0  0  0  0  0
   23.9032   -9.3396  -14.6906 C   0  0  0  0  0  0  0  0  0  0  0  0
   22.6639   -9.5718  -15.5090 C   0  0  0  0  0  0  0  0  0  0  0  0
   21.5142   -8.6927  -15.1205 C   0  0  2  0  0  0  0  0  0  0  0  0
   20.3602   -8.9166  -15.9808 N   0  0  0  0  0  0  0  0  0  0  0  0
   21.8701   -7.2742  -15.2874 C   0  0  0  0  0  0  0  0  0  0  0  0
   21.5267   -6.6305  -16.3038 O   0  0  0  0  0  0  0  0  0  0  0  0
   22.5980   -6.5771  -14.3384 O   0  0  0  0  0  0  0  0  0  0  0  0
  2  1  1  6
  2  3  1  0
  4  5  1  0
  4  3  1  0
  5  6  2  0
  7  8  2  0
  7  2  1  0
  9  5  1  0
 11 10  1  6
 11 13  1  0
 12 11  1  0
 13 14  1  1
 14  7  1  0
 15 13  1  0
 15 22  1  0
 16 15  2  0
 18 17  1  0
 19 18  1  0
 19 20  1  0
 21 20  1  6
 21 22  1  0
 21 23  1  0
 23 25  1  0
 24 23  2  0
M  END
$$$$
