ETM.pdb
     RDKit          3D

 25 24  0  0  1  0  0  0  0  0999 V2000
   16.8326  -11.0915  -19.3355 N   0  0  0  0  0  0  0  0  0  0  0  0
   16.6654   -9.8919  -18.5129 C   0  0  1  0  0  0  0  0  0  0  0  0
   16.2859  -10.4012  -17.1157 C   0  0  0  0  0  0  0  0  0  0  0  0
   15.0617  -11.2642  -17.2483 C   0  0  0  0  0  0  0  0  0  0  0  0
   14.4985  -11.7039  -15.9575 C   0  0  0  0  0  0  0  0  0  0  0  0
   13.3400  -11.4457  -15.5776 O   0  0  0  0  0  0  0  0  0  0  0  0
   17.9650   -9.1908  -18.4665 C   0  0  0  0  0  0  0  0  0  0  0  0
   19.0062   -9.7828  -18.8070 O   0  0  0  0  0  0  0  0  0  0  0  0
   15.3109  -12.4608  -15.0983 O   0  0  0  0  0  0  0  0  0  0  0  0
   18.5776   -5.8160  -20.0333 C   0  0  0  0  0  0  0  0  0  0  0  0
   19.0164   -5.7399  -18.6084 C   0  0  1  0  0  0  0  0  0  0  0  0
   17.9183   -5.2131  -17.8880 O   0  0  0  0  0  0  0  0  0  0  0  0
   19.2939   -7.1015  -17.9832 C   0  0  2  0  0  0  0  0  0  0  0  0
   18.0143   -7.8342  -18.0301 N   0  0  0  0  0  0  0  0  0  0  0  0
   19.7240   -7.0260  -16.5799 C   0  0  0  0  0  0  0  0  0  0  0  0
   18.8691   -7.1192  -15.6268 O   0  0  0  0  0  0  0  0  0  0  0  0
   22.8178   -9.6074  -10.6544 C   0  0  0  0  0  0  0  0  0  0  0  0
   22.3965   -9.4923  -12.4146 S   0  0  0  0  0  0  0  0  0  0  0  0
   23.0744   -7.9498  -13.1317 C   0  0  0  0  0  0  0  0  0  0  0  0
   22.5780   -7.8950  -14.5495 C   0  0  0  0  0  0  0  0  0  0  0  0
   21.4419   -6.9388  -14.7514 C   0  0  2  0  0  0  0  0  0  0  0  0
   21.0644   -6.8518  -16.1557 N   0  0  0  0  0  0  0  0  0  0  0  0
   21.8375   -5.5770  -14.3569 C   0  0  0  0  0  0  0  0  0  0  0  0
   22.0787   -4.6945  -15.2103 O   0  0  0  0  0  0  0  0  0  0  0  0
   21.9638   -5.1976  -13.0316 O   0  0  0  0  0  0  0  0  0  0  0  0
  2  1  1  6
  2  3  1  0
  4  5  1  0
  4  3  1  0
  5  6  2  0
  7  8  2  0
  7  2  1  0
  9  5  1  0
 11 10  1  6
 11 13  1  0
 12 11  1  0
 13 14  1  1
 14  7  1  0
 15 13  1  0
 15 22  1  0
 16 15  2  0
 18 17  1  0
 19 18  1  0
 19 20  1  0
 21 20  1  6
 21 22  1  0
 21 23  1  0
 23 25  1  0
 24 23  2  0
M  END
$$$$
