ETM.pdb
     RDKit          3D

 25 24  0  0  1  0  0  0  0  0999 V2000
   22.4442  -20.1228  -16.3857 N   0  0  0  0  0  0  0  0  0  0  0  0
   22.8765  -19.1818  -15.3505 C   0  0  1  0  0  0  0  0  0  0  0  0
   21.7976  -18.0910  -15.3102 C   0  0  0  0  0  0  0  0  0  0  0  0
   21.9648  -17.2217  -16.5257 C   0  0  0  0  0  0  0  0  0  0  0  0
   20.9855  -16.1216  -16.6123 C   0  0  0  0  0  0  0  0  0  0  0  0
   19.7530  -16.2893  -16.6898 O   0  0  0  0  0  0  0  0  0  0  0  0
   22.9163  -19.9100  -14.0657 C   0  0  0  0  0  0  0  0  0  0  0  0
   21.9686  -20.6475  -13.7365 O   0  0  0  0  0  0  0  0  0  0  0  0
   21.4629  -14.8013  -16.6070 O   0  0  0  0  0  0  0  0  0  0  0  0
   23.4108  -22.4614  -13.7498 C   0  0  0  0  0  0  0  0  0  0  0  0
   24.5378  -22.0746  -12.8505 C   0  0  1  0  0  0  0  0  0  0  0  0
   25.6593  -21.8773  -13.6904 O   0  0  0  0  0  0  0  0  0  0  0  0
   24.3229  -20.7419  -12.1437 C   0  0  2  0  0  0  0  0  0  0  0  0
   24.0473  -19.7606  -13.2103 N   0  0  0  0  0  0  0  0  0  0  0  0
   25.4988  -20.2798  -11.3928 C   0  0  0  0  0  0  0  0  0  0  0  0
   26.3380  -19.4670  -11.9250 O   0  0  0  0  0  0  0  0  0  0  0  0
   29.1769  -19.5757   -4.3849 C   0  0  0  0  0  0  0  0  0  0  0  0
   27.8112  -20.2003   -5.4016 S   0  0  0  0  0  0  0  0  0  0  0  0
   28.1369  -19.8752   -7.1740 C   0  0  0  0  0  0  0  0  0  0  0  0
   26.8964  -20.2969   -7.9108 C   0  0  0  0  0  0  0  0  0  0  0  0
   27.0260  -20.2139   -9.4015 C   0  0  2  0  0  0  0  0  0  0  0  0
   25.8109  -20.6657  -10.0659 N   0  0  0  0  0  0  0  0  0  0  0  0
   28.0979  -21.1038   -9.8765 C   0  0  0  0  0  0  0  0  0  0  0  0
   27.8537  -22.2638  -10.2764 O   0  0  0  0  0  0  0  0  0  0  0  0
   29.4253  -20.7121   -9.9083 O   0  0  0  0  0  0  0  0  0  0  0  0
  2  1  1  6
  2  3  1  0
  4  5  1  0
  4  3  1  0
  5  6  2  0
  7  8  2  0
  7  2  1  0
  9  5  1  0
 11 10  1  6
 11 13  1  0
 12 11  1  0
 13 14  1  6
 14  7  1  0
 15 13  1  0
 15 22  1  0
 16 15  2  0
 18 17  1  0
 19 18  1  0
 19 20  1  0
 21 20  1  1
 21 22  1  0
 21 23  1  0
 23 25  1  0
 24 23  2  0
M  END
$$$$
