ETM.pdb
     RDKit          3D

 25 24  0  0  1  0  0  0  0  0999 V2000
   27.0723  -21.5666  -17.3416 N   0  0  0  0  0  0  0  0  0  0  0  0
   26.5848  -22.0469  -16.0472 C   0  0  1  0  0  0  0  0  0  0  0  0
   27.1117  -23.4825  -15.9166 C   0  0  0  0  0  0  0  0  0  0  0  0
   25.9342  -24.4174  -15.9386 C   0  0  0  0  0  0  0  0  0  0  0  0
   25.3587  -24.6212  -17.2818 C   0  0  0  0  0  0  0  0  0  0  0  0
   25.9347  -25.2333  -18.2020 O   0  0  0  0  0  0  0  0  0  0  0  0
   27.1708  -21.1891  -14.9968 C   0  0  0  0  0  0  0  0  0  0  0  0
   28.0023  -20.3127  -15.2984 O   0  0  0  0  0  0  0  0  0  0  0  0
   24.0837  -24.0970  -17.5480 O   0  0  0  0  0  0  0  0  0  0  0  0
   27.0178  -18.6564  -14.4251 C   0  0  0  0  0  0  0  0  0  0  0  0
   26.5760  -19.0617  -13.0579 C   0  0  1  0  0  0  0  0  0  0  0  0
   25.1786  -19.2674  -13.1427 O   0  0  0  0  0  0  0  0  0  0  0  0
   27.1538  -20.3959  -12.6020 C   0  0  2  0  0  0  0  0  0  0  0  0
   26.7752  -21.3741  -13.6394 N   0  0  0  0  0  0  0  0  0  0  0  0
   26.6118  -20.8617  -11.3177 C   0  0  0  0  0  0  0  0  0  0  0  0
   25.7776  -21.8364  -11.2736 O   0  0  0  0  0  0  0  0  0  0  0  0
   28.8900  -19.1284   -5.6389 C   0  0  0  0  0  0  0  0  0  0  0  0
   27.3054  -19.7377   -5.0013 S   0  0  0  0  0  0  0  0  0  0  0  0
   26.3904  -20.6269   -6.3148 C   0  0  0  0  0  0  0  0  0  0  0  0
   26.9693  -20.1556   -7.6195 C   0  0  0  0  0  0  0  0  0  0  0  0
   26.3776  -20.8325   -8.8184 C   0  0  2  0  0  0  0  0  0  0  0  0
   26.9405  -20.3085  -10.0556 N   0  0  0  0  0  0  0  0  0  0  0  0
   24.9306  -20.5742   -8.8948 C   0  0  0  0  0  0  0  0  0  0  0  0
   24.1171  -21.2019   -8.1810 O   0  0  0  0  0  0  0  0  0  0  0  0
   24.3913  -19.6306   -9.7522 O   0  0  0  0  0  0  0  0  0  0  0  0
  2  1  1  6
  2  3  1  0
  4  5  1  0
  4  3  1  0
  5  6  2  0
  7  8  2  0
  7  2  1  0
  9  5  1  0
 11 10  1  6
 11 13  1  0
 12 11  1  0
 13 14  1  6
 14  7  1  0
 15 13  1  0
 15 22  1  0
 16 15  2  0
 18 17  1  0
 19 18  1  0
 19 20  1  0
 21 20  1  1
 21 22  1  0
 21 23  1  0
 23 25  1  0
 24 23  2  0
M  END
$$$$
