KSQ.pdb
     RDKit          3D

 25 24  0  0  1  0  0  0  0  0999 V2000
   32.9484  -23.2243  -19.4650 N   0  0  0  0  0  0  0  0  0  0  0  0
   31.8057  -22.3531  -19.2444 C   0  0  1  0  0  0  0  0  0  0  0  0
   31.2035  -22.0115  -20.5693 C   0  0  0  0  0  0  0  0  0  0  0  0
   32.0906  -21.0999  -21.3896 C   0  0  0  0  0  0  0  0  0  0  0  0
   31.4211  -20.7423  -22.7120 C   0  0  0  0  0  0  0  0  0  0  0  0
   32.3535  -19.9182  -23.5746 C   0  0  0  0  0  0  0  0  0  0  0  0
   31.6524  -19.6391  -24.8095 N   0  0  0  0  0  0  0  0  0  0  0  0
   30.8303  -22.9691  -18.3150 C   0  0  0  0  0  0  0  0  0  0  0  0
   30.9566  -24.1902  -18.0638 O   0  0  0  0  0  0  0  0  0  0  0  0
   27.1869  -22.6004  -15.1173 O   0  0  0  0  0  0  0  0  0  0  0  0
   27.9740  -21.9402  -16.0649 C   0  0  0  0  0  0  0  0  0  0  0  0
   28.9371  -22.9099  -16.7267 C   0  0  2  0  0  0  0  0  0  0  0  0
   29.7702  -22.2691  -17.6959 N   0  0  0  0  0  0  0  0  0  0  0  0
   28.0967  -23.9278  -17.4168 C   0  0  0  0  0  0  0  0  0  0  0  0
   27.5091  -23.6499  -18.5060 O   0  0  0  0  0  0  0  0  0  0  0  0
   28.0148  -30.0225  -15.6974 N   0  0  0  0  0  0  0  0  0  0  0  0
   26.9548  -29.9228  -16.6586 C   0  0  0  0  0  0  0  0  0  0  0  0
   26.2162  -30.9187  -16.8508 O   0  0  0  0  0  0  0  0  0  0  0  0
   26.7157  -28.6848  -17.4164 C   0  0  0  0  0  0  0  0  0  0  0  0
   27.5192  -27.5600  -16.8400 C   0  0  0  0  0  0  0  0  0  0  0  0
   27.1144  -26.2613  -17.4564 C   0  0  2  0  0  0  0  0  0  0  0  0
   27.9590  -25.2187  -16.8407 N   0  0  0  0  0  0  0  0  0  0  0  0
   25.6843  -25.9419  -17.1934 C   0  0  0  0  0  0  0  0  0  0  0  0
   25.2667  -25.4395  -15.9858 O   0  0  0  0  0  0  0  0  0  0  0  0
   24.8545  -26.1408  -18.1032 O   0  0  0  0  0  0  0  0  0  0  0  0
  2  1  1  6
  3  2  1  0
  3  4  1  0
  5  4  1  0
  5  6  1  0
  7  6  1  0
  8  2  1  0
  8  9  2  0
 11 10  1  0
 12 11  1  6
 12 13  1  0
 13  8  1  0
 14 12  1  0
 14 22  1  0
 15 14  2  0
 16 17  1  0
 17 19  1  0
 18 17  2  0
 19 20  1  0
 21 20  1  1
 21 22  1  0
 21 23  1  0
 23 25  2  0
 23 24  1  0
M  END
$$$$
