KSQ.pdb
     RDKit          3D

 25 24  0  0  1  0  0  0  0  0999 V2000
   22.3389  -14.5058  -18.2529 N   0  0  0  0  0  0  0  0  0  0  0  0
   21.1889  -14.3317  -17.3808 C   0  0  1  0  0  0  0  0  0  0  0  0
   20.0517  -13.7988  -18.1916 C   0  0  0  0  0  0  0  0  0  0  0  0
   20.1290  -12.2990  -18.3799 C   0  0  0  0  0  0  0  0  0  0  0  0
   21.1229  -11.9437  -19.4802 C   0  0  0  0  0  0  0  0  0  0  0  0
   21.1806  -10.4441  -19.6811 C   0  0  0  0  0  0  0  0  0  0  0  0
   22.1623  -10.1925  -20.7143 N   0  0  0  0  0  0  0  0  0  0  0  0
   20.8496  -15.5914  -16.6790 C   0  0  0  0  0  0  0  0  0  0  0  0
   20.9809  -16.6644  -17.3126 O   0  0  0  0  0  0  0  0  0  0  0  0
   19.8055  -18.0887  -12.6632 O   0  0  0  0  0  0  0  0  0  0  0  0
   20.1093  -16.8432  -13.2199 C   0  0  0  0  0  0  0  0  0  0  0  0
   20.0902  -16.9181  -14.7365 C   0  0  2  0  0  0  0  0  0  0  0  0
   20.3887  -15.6593  -15.3447 N   0  0  0  0  0  0  0  0  0  0  0  0
   18.7067  -17.3173  -15.1176 C   0  0  0  0  0  0  0  0  0  0  0  0
   17.7901  -16.4471  -15.2271 O   0  0  0  0  0  0  0  0  0  0  0  0
   17.2206  -22.8555  -17.6872 N   0  0  0  0  0  0  0  0  0  0  0  0
   15.9396  -22.2848  -17.3858 C   0  0  0  0  0  0  0  0  0  0  0  0
   14.9047  -22.8949  -17.7477 O   0  0  0  0  0  0  0  0  0  0  0  0
   15.8150  -21.0091  -16.6639 C   0  0  0  0  0  0  0  0  0  0  0  0
   17.1708  -20.4572  -16.3474 C   0  0  0  0  0  0  0  0  0  0  0  0
   17.0479  -19.1673  -15.6048 C   0  0  2  0  0  0  0  0  0  0  0  0
   18.4222  -18.6878  -15.3583 N   0  0  0  0  0  0  0  0  0  0  0  0
   16.3554  -19.3407  -14.2983 C   0  0  0  0  0  0  0  0  0  0  0  0
   15.0138  -19.0872  -14.1527 O   0  0  0  0  0  0  0  0  0  0  0  0
   17.0239  -19.7271  -13.3187 O   0  0  0  0  0  0  0  0  0  0  0  0
  2  1  1  6
  3  2  1  0
  3  4  1  0
  5  4  1  0
  5  6  1  0
  7  6  1  0
  8  2  1  0
  8  9  2  0
 11 10  1  0
 12 11  1  1
 12 13  1  0
 13  8  1  0
 14 12  1  0
 14 22  1  0
 15 14  2  0
 16 17  1  0
 17 19  1  0
 18 17  2  0
 19 20  1  0
 21 20  1  1
 21 22  1  0
 21 23  1  0
 23 25  2  0
 23 24  1  0
M  END
$$$$
