KSQ.pdb
     RDKit          3D

 25 24  0  0  1  0  0  0  0  0999 V2000
   17.0829   -9.7494  -10.2269 N   0  0  0  0  0  0  0  0  0  0  0  0
   15.9489   -8.8858  -10.5122 C   0  0  1  0  0  0  0  0  0  0  0  0
   14.7102   -9.5349   -9.9838 C   0  0  0  0  0  0  0  0  0  0  0  0
   14.2540  -10.6947  -10.8427 C   0  0  0  0  0  0  0  0  0  0  0  0
   12.9436  -11.2718  -10.3184 C   0  0  0  0  0  0  0  0  0  0  0  0
   12.4956  -12.4376  -11.1744 C   0  0  0  0  0  0  0  0  0  0  0  0
   11.3410  -13.0207  -10.5252 N   0  0  0  0  0  0  0  0  0  0  0  0
   16.1579   -7.5245   -9.9668 C   0  0  0  0  0  0  0  0  0  0  0  0
   16.7018   -7.4249   -8.8424 O   0  0  0  0  0  0  0  0  0  0  0  0
   17.8813   -4.3140  -11.3919 O   0  0  0  0  0  0  0  0  0  0  0  0
   16.5490   -4.0493  -11.0626 C   0  0  0  0  0  0  0  0  0  0  0  0
   16.0409   -5.0566  -10.0461 C   0  0  2  0  0  0  0  0  0  0  0  0
   15.7841   -6.3350  -10.6323 N   0  0  0  0  0  0  0  0  0  0  0  0
   14.7612   -4.5073   -9.5174 C   0  0  0  0  0  0  0  0  0  0  0  0
   13.6814   -4.6434  -10.1689 O   0  0  0  0  0  0  0  0  0  0  0  0
   13.8718   -3.1315   -3.4796 N   0  0  0  0  0  0  0  0  0  0  0  0
   12.6715   -2.6430   -4.0947 C   0  0  0  0  0  0  0  0  0  0  0  0
   11.7542   -2.1981   -3.3634 O   0  0  0  0  0  0  0  0  0  0  0  0
   12.4962   -2.6505   -5.5553 C   0  0  0  0  0  0  0  0  0  0  0  0
   13.6964   -3.2521   -6.2191 C   0  0  0  0  0  0  0  0  0  0  0  0
   13.5327   -3.2376   -7.7035 C   0  0  2  0  0  0  0  0  0  0  0  0
   14.7618   -3.8265   -8.2709 N   0  0  0  0  0  0  0  0  0  0  0  0
   13.3707   -1.8555   -8.2324 C   0  0  0  0  0  0  0  0  0  0  0  0
   12.1322   -1.2874   -8.4016 O   0  0  0  0  0  0  0  0  0  0  0  0
   14.3958   -1.2080   -8.5254 O   0  0  0  0  0  0  0  0  0  0  0  0
  2  1  1  1
  3  2  1  0
  3  4  1  0
  5  4  1  0
  5  6  1  0
  7  6  1  0
  8  2  1  0
  8  9  2  0
 11 10  1  0
 12 11  1  6
 12 13  1  0
 13  8  1  0
 14 12  1  0
 14 22  1  0
 15 14  2  0
 16 17  1  0
 17 19  1  0
 18 17  2  0
 19 20  1  0
 21 20  1  1
 21 22  1  0
 21 23  1  0
 23 25  2  0
 23 24  1  0
M  END
$$$$
