KSQ.pdb
     RDKit          3D

 25 24  0  0  1  0  0  0  0  0999 V2000
   28.0789  -21.6872  -15.4936 N   0  0  0  0  0  0  0  0  0  0  0  0
   27.9115  -20.8931  -14.2875 C   0  0  1  0  0  0  0  0  0  0  0  0
   27.9379  -19.4460  -14.6617 C   0  0  0  0  0  0  0  0  0  0  0  0
   27.3498  -19.1928  -16.0331 C   0  0  0  0  0  0  0  0  0  0  0  0
   27.4190  -17.7108  -16.3848 C   0  0  0  0  0  0  0  0  0  0  0  0
   26.8766  -17.4686  -17.7775 C   0  0  0  0  0  0  0  0  0  0  0  0
   26.9567  -16.0443  -18.0216 N   0  0  0  0  0  0  0  0  0  0  0  0
   26.6785  -21.2728  -13.5594 C   0  0  0  0  0  0  0  0  0  0  0  0
   25.7624  -21.8232  -14.2134 O   0  0  0  0  0  0  0  0  0  0  0  0
   25.7181  -19.8838   -9.7584 O   0  0  0  0  0  0  0  0  0  0  0  0
   25.2434  -21.1626  -10.0630 C   0  0  0  0  0  0  0  0  0  0  0  0
   25.2207  -21.3787  -11.5660 C   0  0  2  0  0  0  0  0  0  0  0  0
   26.4709  -21.0542  -12.1787 N   0  0  0  0  0  0  0  0  0  0  0  0
   24.1735  -20.4660  -12.1035 C   0  0  0  0  0  0  0  0  0  0  0  0
   24.4783  -19.5393  -12.9144 O   0  0  0  0  0  0  0  0  0  0  0  0
   21.8899  -23.0727  -15.8771 N   0  0  0  0  0  0  0  0  0  0  0  0
   20.8201  -22.1187  -15.8232 C   0  0  0  0  0  0  0  0  0  0  0  0
   19.9822  -22.0954  -16.7568 O   0  0  0  0  0  0  0  0  0  0  0  0
   20.6846  -21.1754  -14.7026 C   0  0  0  0  0  0  0  0  0  0  0  0
   21.8103  -21.3577  -13.7317 C   0  0  0  0  0  0  0  0  0  0  0  0
   21.6940  -20.3789  -12.6096 C   0  0  2  0  0  0  0  0  0  0  0  0
   22.8242  -20.6440  -11.6975 N   0  0  0  0  0  0  0  0  0  0  0  0
   20.4189  -20.5416  -11.8586 C   0  0  0  0  0  0  0  0  0  0  0  0
   19.3003  -19.8073  -12.1668 O   0  0  0  0  0  0  0  0  0  0  0  0
   20.3800  -21.3704  -10.9273 O   0  0  0  0  0  0  0  0  0  0  0  0
  2  1  1  6
  3  2  1  0
  3  4  1  0
  5  4  1  0
  5  6  1  0
  7  6  1  0
  8  2  1  0
  8  9  2  0
 11 10  1  0
 12 11  1  1
 12 13  1  0
 13  8  1  0
 14 12  1  0
 14 22  1  0
 15 14  2  0
 16 17  1  0
 17 19  1  0
 18 17  2  0
 19 20  1  0
 21 20  1  6
 21 22  1  0
 21 23  1  0
 23 25  2  0
 23 24  1  0
M  END
$$$$
