KSQ.pdb
     RDKit          3D

 25 24  0  0  1  0  0  0  0  0999 V2000
   28.0416  -19.4046  -14.6065 N   0  0  0  0  0  0  0  0  0  0  0  0
   27.2256  -20.3824  -15.3074 C   0  0  1  0  0  0  0  0  0  0  0  0
   28.1271  -21.4088  -15.9145 C   0  0  0  0  0  0  0  0  0  0  0  0
   29.1365  -20.8018  -16.8650 C   0  0  0  0  0  0  0  0  0  0  0  0
   28.8155  -21.1799  -18.3069 C   0  0  0  0  0  0  0  0  0  0  0  0
   29.9151  -20.7124  -19.2369 C   0  0  0  0  0  0  0  0  0  0  0  0
   29.5274  -21.0956  -20.5776 N   0  0  0  0  0  0  0  0  0  0  0  0
   26.2065  -20.9755  -14.4107 C   0  0  0  0  0  0  0  0  0  0  0  0
   25.3750  -21.7650  -14.9160 O   0  0  0  0  0  0  0  0  0  0  0  0
   24.0811  -20.5023  -10.1932 O   0  0  0  0  0  0  0  0  0  0  0  0
   25.2516  -21.0192  -10.7555 C   0  0  0  0  0  0  0  0  0  0  0  0
   25.0619  -21.2749  -12.2403 C   0  0  2  0  0  0  0  0  0  0  0  0
   26.1132  -20.7082  -13.0261 N   0  0  0  0  0  0  0  0  0  0  0  0
   23.7778  -20.6203  -12.6162 C   0  0  0  0  0  0  0  0  0  0  0  0
   23.6822  -19.3557  -12.6481 O   0  0  0  0  0  0  0  0  0  0  0  0
   17.6314  -21.9701  -16.4722 N   0  0  0  0  0  0  0  0  0  0  0  0
   18.8910  -22.2250  -15.8351 C   0  0  0  0  0  0  0  0  0  0  0  0
   19.4973  -23.2917  -16.0975 O   0  0  0  0  0  0  0  0  0  0  0  0
   19.4838  -21.2671  -14.8889 C   0  0  0  0  0  0  0  0  0  0  0  0
   20.8156  -21.7620  -14.4153 C   0  0  0  0  0  0  0  0  0  0  0  0
   21.3732  -20.8444  -13.3772 C   0  0  2  0  0  0  0  0  0  0  0  0
   22.6563  -21.4292  -12.9401 N   0  0  0  0  0  0  0  0  0  0  0  0
   20.4714  -20.7231  -12.1989 C   0  0  0  0  0  0  0  0  0  0  0  0
   19.4646  -19.7906  -12.1528 O   0  0  0  0  0  0  0  0  0  0  0  0
   20.6465  -21.4955  -11.2353 O   0  0  0  0  0  0  0  0  0  0  0  0
  2  1  1  1
  3  2  1  0
  3  4  1  0
  5  4  1  0
  5  6  1  0
  7  6  1  0
  8  2  1  0
  8  9  2  0
 11 10  1  0
 12 11  1  1
 12 13  1  0
 13  8  1  0
 14 12  1  0
 14 22  1  0
 15 14  2  0
 16 17  1  0
 17 19  1  0
 18 17  2  0
 19 20  1  0
 21 20  1  6
 21 22  1  0
 21 23  1  0
 23 25  2  0
 23 24  1  0
M  END
$$$$
