IIC.pdb
     RDKit          3D

 23 22  0  0  1  0  0  0  0  0999 V2000
   20.5114  -16.7008  -19.4163 C   0  0  0  0  0  0  0  0  0  0  0  0
   21.0070  -15.3136  -19.7410 C   0  0  0  0  0  0  0  0  0  0  0  0
   21.0782  -14.4307  -18.5109 C   0  0  2  0  0  0  0  0  0  0  0  0
   19.7676  -14.4973  -17.8029 C   0  0  0  0  0  0  0  0  0  0  0  0
   21.5288  -13.0333  -18.8759 C   0  0  2  0  0  0  0  0  0  0  0  0
   22.8276  -13.2492  -19.5535 N   0  0  0  0  0  0  0  0  0  0  0  0
   21.8084  -12.2382  -17.6760 C   0  0  0  0  0  0  0  0  0  0  0  0
   20.9703  -12.2212  -16.7096 O   0  0  0  0  0  0  0  0  0  0  0  0
   26.7615  -11.4696  -15.5912 C   0  0  0  0  0  0  0  0  0  0  0  0
   25.2694  -11.6466  -15.7584 C   0  0  0  0  0  0  0  0  0  0  0  0
   24.5811  -10.3234  -16.0239 C   0  0  2  0  0  0  0  0  0  0  0  0
   24.7880   -9.4076  -14.8643 C   0  0  0  0  0  0  0  0  0  0  0  0
   23.0833  -10.5599  -16.3007 C   0  0  2  0  0  0  0  0  0  0  0  0
   22.9662  -11.4396  -17.4415 N   0  0  0  0  0  0  0  0  0  0  0  0
   22.4939   -9.2349  -16.4562 C   0  0  0  0  0  0  0  0  0  0  0  0
   22.9557   -8.5521  -17.4353 O   0  0  0  0  0  0  0  0  0  0  0  0
   21.4965   -8.6342  -15.6705 N   0  0  0  0  0  0  0  0  0  0  0  0
   21.0004   -7.3060  -16.0268 C   0  0  1  0  0  0  0  0  0  0  0  0
   19.4913   -7.2817  -16.0933 C   0  0  0  0  0  0  0  0  0  0  0  0
   18.9930   -8.4652  -17.3776 S   0  0  0  0  0  0  0  0  0  0  0  0
   21.4080   -6.3795  -14.9438 C   0  0  0  0  0  0  0  0  0  0  0  0
   21.9883   -6.7748  -13.8970 O   0  0  0  0  0  0  0  0  0  0  0  0
   21.1621   -5.0195  -15.0429 O   0  0  0  0  0  0  0  0  0  0  0  0
  1  2  1  0
  3  2  1  0
  3  4  1  6
  5  3  1  0
  5  6  1  6
  7  8  2  0
  7  5  1  0
  9 10  1  0
 10 11  1  0
 11 13  1  0
 11 12  1  1
 13 14  1  6
 14  7  1  0
 15 17  1  0
 15 13  1  0
 16 15  2  0
 18 17  1  0
 18 21  1  0
 18 19  1  1
 20 19  1  0
 21 23  1  0
 22 21  2  0
M  END
$$$$
