IIC.pdb
     RDKit          3D

 23 22  0  0  1  0  0  0  0  0999 V2000
   18.7993  -21.9722  -15.9731 C   0  0  0  0  0  0  0  0  0  0  0  0
   19.2396  -21.6989  -14.5565 C   0  0  0  0  0  0  0  0  0  0  0  0
   20.6632  -21.1825  -14.4910 C   0  0  2  0  0  0  0  0  0  0  0  0
   21.5286  -22.0715  -15.3181 C   0  0  0  0  0  0  0  0  0  0  0  0
   21.1124  -21.0211  -13.0553 C   0  0  2  0  0  0  0  0  0  0  0  0
   20.2667  -19.9179  -12.5450 N   0  0  0  0  0  0  0  0  0  0  0  0
   22.5002  -20.5529  -12.9855 C   0  0  0  0  0  0  0  0  0  0  0  0
   22.8087  -19.3956  -13.4353 O   0  0  0  0  0  0  0  0  0  0  0  0
   25.6899  -21.1574   -8.7710 C   0  0  0  0  0  0  0  0  0  0  0  0
   25.0219  -20.6825  -10.0414 C   0  0  0  0  0  0  0  0  0  0  0  0
   25.7256  -21.2193  -11.2710 C   0  0  2  0  0  0  0  0  0  0  0  0
   27.1405  -20.7461  -11.2872 C   0  0  0  0  0  0  0  0  0  0  0  0
   24.9663  -20.7832  -12.5396 C   0  0  2  0  0  0  0  0  0  0  0  0
   23.6083  -21.2691  -12.4450 N   0  0  0  0  0  0  0  0  0  0  0  0
   25.7460  -21.2897  -13.6633 C   0  0  0  0  0  0  0  0  0  0  0  0
   25.9965  -22.5441  -13.6225 O   0  0  0  0  0  0  0  0  0  0  0  0
   26.2435  -20.5727  -14.7640 N   0  0  0  0  0  0  0  0  0  0  0  0
   26.9666  -21.2811  -15.8187 C   0  0  1  0  0  0  0  0  0  0  0  0
   26.5532  -20.7984  -17.1892 C   0  0  0  0  0  0  0  0  0  0  0  0
   24.7619  -21.0617  -17.3317 S   0  0  0  0  0  0  0  0  0  0  0  0
   28.4051  -20.9626  -15.6555 C   0  0  0  0  0  0  0  0  0  0  0  0
   28.8089  -19.9858  -14.9686 O   0  0  0  0  0  0  0  0  0  0  0  0
   29.3779  -21.7405  -16.2626 O   0  0  0  0  0  0  0  0  0  0  0  0
  1  2  1  0
  3  2  1  0
  3  4  1  6
  5  3  1  0
  5  6  1  6
  7  8  2  0
  7  5  1  0
  9 10  1  0
 10 11  1  0
 11 13  1  0
 11 12  1  6
 13 14  1  1
 14  7  1  0
 15 17  1  0
 15 13  1  0
 16 15  2  0
 18 17  1  0
 18 21  1  0
 18 19  1  6
 20 19  1  0
 21 23  1  0
 22 21  2  0
M  END
$$$$
