IIC.pdb
     RDKit          3D

 23 22  0  0  1  0  0  0  0  0999 V2000
   28.3513  -19.2457  -18.3960 C   0  0  0  0  0  0  0  0  0  0  0  0
   28.6876  -19.9698  -17.1161 C   0  0  0  0  0  0  0  0  0  0  0  0
   27.4520  -20.2824  -16.2957 C   0  0  2  0  0  0  0  0  0  0  0  0
   26.6718  -19.0245  -16.1155 C   0  0  0  0  0  0  0  0  0  0  0  0
   27.8234  -20.9853  -15.0085 C   0  0  2  0  0  0  0  0  0  0  0  0
   28.4419  -22.2507  -15.4657 N   0  0  0  0  0  0  0  0  0  0  0  0
   26.6277  -21.3548  -14.2444 C   0  0  0  0  0  0  0  0  0  0  0  0
   25.9149  -22.3512  -14.6130 O   0  0  0  0  0  0  0  0  0  0  0  0
   26.3215  -20.6641   -8.8370 C   0  0  0  0  0  0  0  0  0  0  0  0
   26.1571  -21.2391  -10.2255 C   0  0  0  0  0  0  0  0  0  0  0  0
   24.9817  -20.6137  -10.9482 C   0  0  2  0  0  0  0  0  0  0  0  0
   23.7197  -20.9178  -10.2126 C   0  0  0  0  0  0  0  0  0  0  0  0
   24.9294  -21.1255  -12.4013 C   0  0  2  0  0  0  0  0  0  0  0  0
   26.1372  -20.7041  -13.0743 N   0  0  0  0  0  0  0  0  0  0  0  0
   23.6810  -20.6163  -12.9573 C   0  0  0  0  0  0  0  0  0  0  0  0
   23.5791  -19.3405  -12.9719 O   0  0  0  0  0  0  0  0  0  0  0  0
   22.5988  -21.3510  -13.4693 N   0  0  0  0  0  0  0  0  0  0  0  0
   21.4275  -20.6446  -13.9852 C   0  0  1  0  0  0  0  0  0  0  0  0
   20.9686  -21.2277  -15.3012 C   0  0  0  0  0  0  0  0  0  0  0  0
   22.3512  -21.0690  -16.4681 S   0  0  0  0  0  0  0  0  0  0  0  0
   20.3294  -20.8432  -13.0093 C   0  0  0  0  0  0  0  0  0  0  0  0
   20.4013  -21.6808  -12.0700 O   0  0  0  0  0  0  0  0  0  0  0  0
   19.1616  -20.1024  -13.0941 O   0  0  0  0  0  0  0  0  0  0  0  0
  1  2  1  0
  3  2  1  0
  3  4  1  1
  5  3  1  0
  5  6  1  6
  7  8  2  0
  7  5  1  0
  9 10  1  0
 10 11  1  0
 11 13  1  0
 11 12  1  1
 13 14  1  6
 14  7  1  0
 15 17  1  0
 15 13  1  0
 16 15  2  0
 18 17  1  0
 18 21  1  0
 18 19  1  6
 20 19  1  0
 21 23  1  0
 22 21  2  0
M  END
$$$$
