IIC.pdb
     RDKit          3D

 23 22  0  0  1  0  0  0  0  0999 V2000
   16.4129  -13.9027  -20.3057 C   0  0  0  0  0  0  0  0  0  0  0  0
   17.7071  -14.3802  -19.6954 C   0  0  0  0  0  0  0  0  0  0  0  0
   18.2364  -13.4157  -18.6527 C   0  0  2  0  0  0  0  0  0  0  0  0
   18.3763  -12.0699  -19.2793 C   0  0  0  0  0  0  0  0  0  0  0  0
   19.5002  -13.9507  -18.0159 C   0  0  2  0  0  0  0  0  0  0  0  0
   19.0545  -15.1901  -17.3391 N   0  0  0  0  0  0  0  0  0  0  0  0
   19.9847  -13.0497  -16.9654 C   0  0  0  0  0  0  0  0  0  0  0  0
   19.2581  -12.8138  -15.9392 O   0  0  0  0  0  0  0  0  0  0  0  0
   24.9015  -13.3483  -15.1623 C   0  0  0  0  0  0  0  0  0  0  0  0
   23.4146  -13.0938  -15.2623 C   0  0  0  0  0  0  0  0  0  0  0  0
   23.1223  -11.6480  -15.6081 C   0  0  2  0  0  0  0  0  0  0  0  0
   23.5900  -10.7622  -14.5023 C   0  0  0  0  0  0  0  0  0  0  0  0
   21.6154  -11.4702  -15.8795 C   0  0  2  0  0  0  0  0  0  0  0  0
   21.2375  -12.3692  -16.9464 N   0  0  0  0  0  0  0  0  0  0  0  0
   21.4249  -10.0493  -16.1478 C   0  0  0  0  0  0  0  0  0  0  0  0
   21.7335   -9.6794  -17.3335 O   0  0  0  0  0  0  0  0  0  0  0  0
   20.9503   -9.0595  -15.2713 N   0  0  0  0  0  0  0  0  0  0  0  0
   20.7191   -7.7051  -15.7705 C   0  0  1  0  0  0  0  0  0  0  0  0
   19.3121   -7.5453  -16.2969 C   0  0  0  0  0  0  0  0  0  0  0  0
   19.0884   -5.7891  -16.7021 S   0  0  0  0  0  0  0  0  0  0  0  0
   20.8660   -6.7817  -14.6202 C   0  0  0  0  0  0  0  0  0  0  0  0
   20.6497   -7.1408  -13.4315 O   0  0  0  0  0  0  0  0  0  0  0  0
   21.2536   -5.4652  -14.8116 O   0  0  0  0  0  0  0  0  0  0  0  0
  1  2  1  0
  3  2  1  0
  3  4  1  6
  5  3  1  0
  5  6  1  1
  7  8  2  0
  7  5  1  0
  9 10  1  0
 10 11  1  0
 11 13  1  0
 11 12  1  1
 13 14  1  6
 14  7  1  0
 15 17  1  0
 15 13  1  0
 16 15  2  0
 18 17  1  0
 18 21  1  0
 18 19  1  1
 20 19  1  0
 21 23  1  0
 22 21  2  0
M  END
$$$$
