IIC.pdb
     RDKit          3D

 23 22  0  0  1  0  0  0  0  0999 V2000
   17.8660  -14.1044  -20.1556 C   0  0  0  0  0  0  0  0  0  0  0  0
   19.2434  -14.3697  -19.6007 C   0  0  0  0  0  0  0  0  0  0  0  0
   19.6233  -13.3786  -18.5185 C   0  0  2  0  0  0  0  0  0  0  0  0
   19.4049  -11.9993  -19.0411 C   0  0  0  0  0  0  0  0  0  0  0  0
   21.0222  -13.6471  -18.0089 C   0  0  2  0  0  0  0  0  0  0  0  0
   20.9132  -14.9785  -17.3698 N   0  0  0  0  0  0  0  0  0  0  0  0
   21.3890  -12.7018  -16.9496 C   0  0  0  0  0  0  0  0  0  0  0  0
   20.7678  -12.7209  -15.8314 O   0  0  0  0  0  0  0  0  0  0  0  0
   26.3040  -11.6869  -15.4729 C   0  0  0  0  0  0  0  0  0  0  0  0
   24.7985  -11.8252  -15.4807 C   0  0  0  0  0  0  0  0  0  0  0  0
   24.1230  -10.5069  -15.7981 C   0  0  2  0  0  0  0  0  0  0  0  0
   24.4113   -9.5210  -14.7160 C   0  0  0  0  0  0  0  0  0  0  0  0
   22.6078  -10.7262  -15.9777 C   0  0  2  0  0  0  0  0  0  0  0  0
   22.4122  -11.7111  -17.0174 N   0  0  0  0  0  0  0  0  0  0  0  0
   22.0433   -9.4066  -16.2374 C   0  0  0  0  0  0  0  0  0  0  0  0
   22.4659   -8.8412  -17.3050 O   0  0  0  0  0  0  0  0  0  0  0  0
   21.1069   -8.6992  -15.4656 N   0  0  0  0  0  0  0  0  0  0  0  0
   20.5807   -7.4272  -15.9578 C   0  0  1  0  0  0  0  0  0  0  0  0
   19.1240   -7.2570  -15.5952 C   0  0  0  0  0  0  0  0  0  0  0  0
   18.2142   -8.6184  -16.3808 S   0  0  0  0  0  0  0  0  0  0  0  0
   21.3329   -6.3471  -15.2760 C   0  0  0  0  0  0  0  0  0  0  0  0
   22.1756   -6.5780  -14.3674 O   0  0  0  0  0  0  0  0  0  0  0  0
   21.1348   -5.0190  -15.6177 O   0  0  0  0  0  0  0  0  0  0  0  0
  1  2  1  0
  3  2  1  0
  3  4  1  6
  5  3  1  0
  5  6  1  1
  7  8  2  0
  7  5  1  0
  9 10  1  0
 10 11  1  0
 11 13  1  0
 11 12  1  1
 13 14  1  6
 14  7  1  0
 15 17  1  0
 15 13  1  0
 16 15  2  0
 18 17  1  0
 18 21  1  0
 18 19  1  1
 20 19  1  0
 21 23  1  0
 22 21  2  0
M  END
$$$$
