IIC.pdb
     RDKit          3D

 23 22  0  0  1  0  0  0  0  0999 V2000
   17.7860  -20.9543  -14.2496 C   0  0  0  0  0  0  0  0  0  0  0  0
   19.1177  -21.6502  -14.3822 C   0  0  0  0  0  0  0  0  0  0  0  0
   20.2650  -20.7826  -13.9040 C   0  0  2  0  0  0  0  0  0  0  0  0
   20.0658  -19.4013  -14.4291 C   0  0  0  0  0  0  0  0  0  0  0  0
   21.5968  -21.4071  -14.2579 C   0  0  2  0  0  0  0  0  0  0  0  0
   21.5164  -22.7629  -13.6678 N   0  0  0  0  0  0  0  0  0  0  0  0
   22.6998  -20.7190  -13.5797 C   0  0  0  0  0  0  0  0  0  0  0  0
   22.9708  -19.5029  -13.8704 O   0  0  0  0  0  0  0  0  0  0  0  0
   23.9837  -21.0063   -8.3836 C   0  0  0  0  0  0  0  0  0  0  0  0
   23.8079  -20.5938   -9.8275 C   0  0  0  0  0  0  0  0  0  0  0  0
   25.0084  -20.9841  -10.6650 C   0  0  2  0  0  0  0  0  0  0  0  0
   26.2328  -20.3218  -10.1278 C   0  0  0  0  0  0  0  0  0  0  0  0
   24.7607  -20.6096  -12.1396 C   0  0  2  0  0  0  0  0  0  0  0  0
   23.5523  -21.2701  -12.5785 N   0  0  0  0  0  0  0  0  0  0  0  0
   25.9797  -20.9744  -12.8524 C   0  0  0  0  0  0  0  0  0  0  0  0
   26.6337  -21.9467  -12.3375 O   0  0  0  0  0  0  0  0  0  0  0  0
   26.5078  -20.3929  -14.0169 N   0  0  0  0  0  0  0  0  0  0  0  0
   27.3174  -21.2041  -14.9245 C   0  0  1  0  0  0  0  0  0  0  0  0
   26.5662  -22.4316  -15.3840 C   0  0  0  0  0  0  0  0  0  0  0  0
   27.6870  -23.3743  -16.4579 S   0  0  0  0  0  0  0  0  0  0  0  0
   27.5899  -20.3797  -16.1260 C   0  0  0  0  0  0  0  0  0  0  0  0
   26.6926  -19.7115  -16.7068 O   0  0  0  0  0  0  0  0  0  0  0  0
   28.8642  -20.3110  -16.6658 O   0  0  0  0  0  0  0  0  0  0  0  0
  1  2  1  0
  3  2  1  0
  3  4  1  6
  5  3  1  0
  5  6  1  1
  7  8  2  0
  7  5  1  0
  9 10  1  0
 10 11  1  0
 11 13  1  0
 11 12  1  1
 13 14  1  6
 14  7  1  0
 15 17  1  0
 15 13  1  0
 16 15  2  0
 18 17  1  0
 18 21  1  0
 18 19  1  6
 20 19  1  0
 21 23  1  0
 22 21  2  0
M  END
$$$$
