KPA.pdb
     RDKit          3D

 22 22  0  0  1  0  0  0  0  0999 V2000
   12.9976  -13.8858   18.1273 N   0  0  0  0  0  0  0  0  0  0  0  0
   11.7375  -14.5173   18.2396 C   0  0  1  0  0  0  0  0  0  0  0  0
   11.8518  -15.9587   17.8096 C   0  0  0  0  0  0  0  0  0  0  0  0
   10.6275  -16.7736   17.8979 C   0  0  0  0  0  0  0  0  0  0  0  0
   10.6908  -18.1838   17.4449 C   0  0  0  0  0  0  0  0  0  0  0  0
    9.4319  -18.9720   17.7287 C   0  0  0  0  0  0  0  0  0  0  0  0
    9.6033  -20.3564   17.2810 N   0  0  0  0  0  0  0  0  0  0  0  0
   11.0971  -14.5135   19.5776 C   0  0  0  0  0  0  0  0  0  0  0  0
   11.7098  -15.2225   20.4700 O   0  0  0  0  0  0  0  0  0  0  0  0
    9.9358  -13.8520   19.9909 N   0  0  0  0  0  0  0  0  0  0  0  0
    9.4765  -12.5364   19.4923 C   0  0  0  0  0  0  0  0  0  0  0  0
    8.0020  -12.8863   19.1826 C   0  0  0  0  0  0  0  0  0  0  0  0
    7.7035  -14.1513   19.9732 C   0  0  0  0  0  0  0  0  0  0  0  0
    8.8889  -14.1211   20.9344 C   0  0  1  0  0  0  0  0  0  0  0  0
    8.9514  -15.2104   21.8424 C   0  0  0  0  0  0  0  0  0  0  0  0
    8.9008  -16.4100   21.5555 O   0  0  0  0  0  0  0  0  0  0  0  0
    9.6153  -15.4050   25.5955 C   0  0  0  0  0  0  0  0  0  0  0  0
    9.1753  -15.9508   24.2422 C   0  0  2  0  0  0  0  0  0  0  0  0
    9.0876  -14.9137   23.2488 N   0  0  0  0  0  0  0  0  0  0  0  0
    7.8270  -16.5329   24.4490 C   0  0  0  0  0  0  0  0  0  0  0  0
    7.6287  -17.7122   25.1609 O   0  0  0  0  0  0  0  0  0  0  0  0
    6.8423  -15.9255   23.9566 O   0  0  0  0  0  0  0  0  0  0  0  0
  2  1  1  1
  3  2  1  0
  4  3  1  0
  5  4  1  0
  6  5  1  0
  7  6  1  0
  8  2  1  0
  8 10  1  0
  9  8  2  0
 10 11  1  0
 11 12  1  0
 13 14  1  0
 13 12  1  0
 14 10  1  0
 15 19  1  0
 14 15  1  6
 16 15  2  0
 18 17  1  1
 18 19  1  0
 20 21  1  0
 20 18  1  0
 22 20  2  0
M  END
$$$$
