KPA.pdb
     RDKit          3D

 22 22  0  0  1  0  0  0  0  0999 V2000
    9.9368  -15.6856   15.7413 N   0  0  0  0  0  0  0  0  0  0  0  0
    9.0340  -15.3052   16.7608 C   0  0  1  0  0  0  0  0  0  0  0  0
    7.9559  -16.3510   16.9005 C   0  0  0  0  0  0  0  0  0  0  0  0
    7.9825  -17.4611   15.9321 C   0  0  0  0  0  0  0  0  0  0  0  0
    6.8781  -18.4494   15.9692 C   0  0  0  0  0  0  0  0  0  0  0  0
    6.9877  -19.5254   14.9123 C   0  0  0  0  0  0  0  0  0  0  0  0
    5.8557  -20.4483   15.0265 N   0  0  0  0  0  0  0  0  0  0  0  0
    9.5988  -15.0816   18.1141 C   0  0  0  0  0  0  0  0  0  0  0  0
   10.5917  -15.8539   18.4177 O   0  0  0  0  0  0  0  0  0  0  0  0
    9.2024  -14.1577   19.0869 N   0  0  0  0  0  0  0  0  0  0  0  0
    8.9955  -12.7101   18.8589 C   0  0  0  0  0  0  0  0  0  0  0  0
    7.6114  -12.5458   19.5296 C   0  0  0  0  0  0  0  0  0  0  0  0
    7.4492  -13.7525   20.4416 C   0  0  0  0  0  0  0  0  0  0  0  0
    8.9024  -14.2171   20.4887 C   0  0  1  0  0  0  0  0  0  0  0  0
    9.1329  -15.3849   21.2622 C   0  0  0  0  0  0  0  0  0  0  0  0
    8.4109  -16.3847   21.3162 O   0  0  0  0  0  0  0  0  0  0  0  0
   12.1550  -16.9054   22.7911 C   0  0  0  0  0  0  0  0  0  0  0  0
   10.6650  -16.5922   22.8598 C   0  0  2  0  0  0  0  0  0  0  0  0
   10.3240  -15.4344   22.0767 N   0  0  0  0  0  0  0  0  0  0  0  0
   10.3658  -16.3130   24.2852 C   0  0  0  0  0  0  0  0  0  0  0  0
    9.8449  -15.0943   24.7096 O   0  0  0  0  0  0  0  0  0  0  0  0
   10.5975  -17.2211   25.1237 O   0  0  0  0  0  0  0  0  0  0  0  0
  2  1  1  6
  3  2  1  0
  4  3  1  0
  5  4  1  0
  6  5  1  0
  7  6  1  0
  8  2  1  0
  8 10  1  0
  9  8  2  0
 10 11  1  0
 11 12  1  0
 13 14  1  0
 13 12  1  0
 14 10  1  0
 15 19  1  0
 14 15  1  6
 16 15  2  0
 18 17  1  1
 18 19  1  0
 20 21  1  0
 20 18  1  0
 22 20  2  0
M  END
$$$$
