KPA.pdb
     RDKit          3D

 22 22  0  0  1  0  0  0  0  0999 V2000
    8.5526  -17.0703   17.1961 N   0  0  0  0  0  0  0  0  0  0  0  0
    7.9068  -16.7291   18.4067 C   0  0  1  0  0  0  0  0  0  0  0  0
    7.0446  -17.8794   18.8640 C   0  0  0  0  0  0  0  0  0  0  0  0
    7.5427  -19.2351   18.5730 C   0  0  0  0  0  0  0  0  0  0  0  0
    6.7097  -20.3904   18.9842 C   0  0  0  0  0  0  0  0  0  0  0  0
    7.2873  -21.7302   18.5864 C   0  0  0  0  0  0  0  0  0  0  0  0
    6.3592  -22.8001   18.9610 N   0  0  0  0  0  0  0  0  0  0  0  0
    8.7724  -16.3543   19.5515 C   0  0  0  0  0  0  0  0  0  0  0  0
    9.7793  -17.1434   19.7464 O   0  0  0  0  0  0  0  0  0  0  0  0
    8.6418  -15.2748   20.4316 N   0  0  0  0  0  0  0  0  0  0  0  0
    8.2972  -13.8892   20.0419 C   0  0  0  0  0  0  0  0  0  0  0  0
    7.1765  -13.6106   21.0710 C   0  0  0  0  0  0  0  0  0  0  0  0
    7.3656  -14.6395   22.1754 C   0  0  0  0  0  0  0  0  0  0  0  0
    8.7869  -15.0885   21.8469 C   0  0  1  0  0  0  0  0  0  0  0  0
    9.3051  -16.1033   22.6936 C   0  0  0  0  0  0  0  0  0  0  0  0
    8.7182  -17.1262   23.0585 O   0  0  0  0  0  0  0  0  0  0  0  0
   12.8071  -16.9063   23.8710 C   0  0  0  0  0  0  0  0  0  0  0  0
   11.2888  -16.9590   23.9935 C   0  0  2  0  0  0  0  0  0  0  0  0
   10.6511  -15.9483   23.1923 N   0  0  0  0  0  0  0  0  0  0  0  0
   10.9795  -16.7058   25.4215 C   0  0  0  0  0  0  0  0  0  0  0  0
   10.1917  -15.6345   25.8319 O   0  0  0  0  0  0  0  0  0  0  0  0
   11.4544  -17.4972   26.2756 O   0  0  0  0  0  0  0  0  0  0  0  0
  2  1  1  6
  3  2  1  0
  4  3  1  0
  5  4  1  0
  6  5  1  0
  7  6  1  0
  8  2  1  0
  8 10  1  0
  9  8  2  0
 10 11  1  0
 11 12  1  0
 13 14  1  0
 13 12  1  0
 14 10  1  0
 15 19  1  0
 14 15  1  1
 16 15  2  0
 18 17  1  1
 18 19  1  0
 20 21  1  0
 20 18  1  0
 22 20  2  0
M  END
$$$$
