KPA.pdb
     RDKit          3D

 22 22  0  0  1  0  0  0  0  0999 V2000
    8.7777  -17.4281   17.0931 N   0  0  0  0  0  0  0  0  0  0  0  0
    8.0175  -16.9330   18.1776 C   0  0  1  0  0  0  0  0  0  0  0  0
    7.2015  -18.0507   18.7779 C   0  0  0  0  0  0  0  0  0  0  0  0
    6.4259  -18.8804   17.8395 C   0  0  0  0  0  0  0  0  0  0  0  0
    5.6705  -20.0339   18.3842 C   0  0  0  0  0  0  0  0  0  0  0  0
    4.9369  -20.8337   17.3312 C   0  0  0  0  0  0  0  0  0  0  0  0
    4.2798  -21.9859   17.9535 N   0  0  0  0  0  0  0  0  0  0  0  0
    8.7636  -16.2953   19.2899 C   0  0  0  0  0  0  0  0  0  0  0  0
    9.6462  -17.0562   19.8524 O   0  0  0  0  0  0  0  0  0  0  0  0
    8.6376  -14.9983   19.7988 N   0  0  0  0  0  0  0  0  0  0  0  0
    8.6133  -13.7596   18.9894 C   0  0  0  0  0  0  0  0  0  0  0  0
    7.3689  -13.0801   19.6080 C   0  0  0  0  0  0  0  0  0  0  0  0
    7.1570  -13.7552   20.9546 C   0  0  0  0  0  0  0  0  0  0  0  0
    8.5212  -14.4225   21.1079 C   0  0  1  0  0  0  0  0  0  0  0  0
    8.6816  -15.1929   22.2894 C   0  0  0  0  0  0  0  0  0  0  0  0
    7.7793  -15.6738   22.9811 O   0  0  0  0  0  0  0  0  0  0  0  0
    9.8994  -17.7116   23.7093 C   0  0  0  0  0  0  0  0  0  0  0  0
   10.2874  -16.2527   23.9190 C   0  0  2  0  0  0  0  0  0  0  0  0
   10.0244  -15.4550   22.7508 N   0  0  0  0  0  0  0  0  0  0  0  0
   11.7462  -16.2464   24.1862 C   0  0  0  0  0  0  0  0  0  0  0  0
   12.6619  -15.6950   23.2951 O   0  0  0  0  0  0  0  0  0  0  0  0
   12.1496  -16.7617   25.2600 O   0  0  0  0  0  0  0  0  0  0  0  0
  2  1  1  6
  3  2  1  0
  4  3  1  0
  5  4  1  0
  6  5  1  0
  7  6  1  0
  8  2  1  0
  8 10  1  0
  9  8  2  0
 10 11  1  0
 11 12  1  0
 13 14  1  0
 13 12  1  0
 14 10  1  0
 15 19  1  0
 14 15  1  1
 16 15  2  0
 18 17  1  6
 18 19  1  0
 20 21  1  0
 20 18  1  0
 22 20  2  0
M  END
$$$$
