KPA.pdb
     RDKit          3D

 22 22  0  0  1  0  0  0  0  0999 V2000
    9.0257  -16.8377   16.7486 N   0  0  0  0  0  0  0  0  0  0  0  0
    8.2779  -16.2120   17.7726 C   0  0  1  0  0  0  0  0  0  0  0  0
    7.0815  -17.0626   18.1198 C   0  0  0  0  0  0  0  0  0  0  0  0
    7.1452  -18.4825   17.7320 C   0  0  0  0  0  0  0  0  0  0  0  0
    6.2493  -19.4387   18.4256 C   0  0  0  0  0  0  0  0  0  0  0  0
    6.3184  -20.8461   17.8767 C   0  0  0  0  0  0  0  0  0  0  0  0
    5.4485  -21.7263   18.6608 N   0  0  0  0  0  0  0  0  0  0  0  0
    8.9855  -15.9200   19.0432 C   0  0  0  0  0  0  0  0  0  0  0  0
    9.8774  -16.7961   19.3768 O   0  0  0  0  0  0  0  0  0  0  0  0
    8.8151  -14.8364   19.9115 N   0  0  0  0  0  0  0  0  0  0  0  0
    8.6887  -13.4206   19.4993 C   0  0  0  0  0  0  0  0  0  0  0  0
    7.4401  -13.0296   20.3244 C   0  0  0  0  0  0  0  0  0  0  0  0
    7.3260  -14.0774   21.4214 C   0  0  0  0  0  0  0  0  0  0  0  0
    8.7289  -14.6724   21.3343 C   0  0  1  0  0  0  0  0  0  0  0  0
    8.9837  -15.7398   22.2349 C   0  0  0  0  0  0  0  0  0  0  0  0
    8.2369  -16.6932   22.4743 O   0  0  0  0  0  0  0  0  0  0  0  0
   12.0936  -16.9255   24.0289 C   0  0  0  0  0  0  0  0  0  0  0  0
   10.5836  -16.7761   23.8852 C   0  0  2  0  0  0  0  0  0  0  0  0
   10.2341  -15.7341   22.9565 N   0  0  0  0  0  0  0  0  0  0  0  0
   10.0737  -16.4123   25.2294 C   0  0  0  0  0  0  0  0  0  0  0  0
   10.1340  -17.2888   26.3086 O   0  0  0  0  0  0  0  0  0  0  0  0
    9.5735  -15.2683   25.3789 O   0  0  0  0  0  0  0  0  0  0  0  0
  2  1  1  6
  3  2  1  0
  4  3  1  0
  5  4  1  0
  6  5  1  0
  7  6  1  0
  8  2  1  0
  8 10  1  0
  9  8  2  0
 10 11  1  0
 11 12  1  0
 13 14  1  0
 13 12  1  0
 14 10  1  0
 15 19  1  0
 14 15  1  1
 16 15  2  0
 18 17  1  1
 18 19  1  0
 20 21  1  0
 20 18  1  0
 22 20  2  0
M  END
$$$$
