KPA.pdb
     RDKit          3D

 22 22  0  0  1  0  0  0  0  0999 V2000
    9.6849  -16.4167   16.2038 N   0  0  0  0  0  0  0  0  0  0  0  0
    8.7636  -15.8683   17.1256 C   0  0  1  0  0  0  0  0  0  0  0  0
    7.5750  -16.7870   17.2630 C   0  0  0  0  0  0  0  0  0  0  0  0
    7.8620  -18.1947   17.5893 C   0  0  0  0  0  0  0  0  0  0  0  0
    6.7175  -19.1216   17.7591 C   0  0  0  0  0  0  0  0  0  0  0  0
    7.1267  -20.5474   18.0530 C   0  0  0  0  0  0  0  0  0  0  0  0
    5.9361  -21.3597   18.3159 N   0  0  0  0  0  0  0  0  0  0  0  0
    9.2611  -15.5952   18.4961 C   0  0  0  0  0  0  0  0  0  0  0  0
   10.0619  -16.4956   18.9678 O   0  0  0  0  0  0  0  0  0  0  0  0
    8.9805  -14.5068   19.3290 N   0  0  0  0  0  0  0  0  0  0  0  0
    8.9518  -13.0892   18.9049 C   0  0  0  0  0  0  0  0  0  0  0  0
    7.5981  -12.6694   19.5245 C   0  0  0  0  0  0  0  0  0  0  0  0
    7.2900  -13.7127   20.5878 C   0  0  0  0  0  0  0  0  0  0  0  0
    8.6756  -14.3389   20.7210 C   0  0  1  0  0  0  0  0  0  0  0  0
    8.7620  -15.4102   21.6483 C   0  0  0  0  0  0  0  0  0  0  0  0
    7.9122  -16.2844   21.8422 O   0  0  0  0  0  0  0  0  0  0  0  0
   11.4316  -17.3634   23.0974 C   0  0  0  0  0  0  0  0  0  0  0  0
   10.1520  -16.5890   23.3906 C   0  0  2  0  0  0  0  0  0  0  0  0
    9.9526  -15.5109   22.4588 N   0  0  0  0  0  0  0  0  0  0  0  0
   10.3129  -16.0234   24.7520 C   0  0  0  0  0  0  0  0  0  0  0  0
   10.3217  -14.6523   24.9902 O   0  0  0  0  0  0  0  0  0  0  0  0
   10.4446  -16.8264   25.7107 O   0  0  0  0  0  0  0  0  0  0  0  0
  2  1  1  6
  3  2  1  0
  4  3  1  0
  5  4  1  0
  6  5  1  0
  7  6  1  0
  8  2  1  0
  8 10  1  0
  9  8  2  0
 10 11  1  0
 11 12  1  0
 13 14  1  0
 13 12  1  0
 14 10  1  0
 15 19  1  0
 14 15  1  1
 16 15  2  0
 18 17  1  6
 18 19  1  0
 20 21  1  0
 20 18  1  0
 22 20  2  0
M  END
$$$$
