KPA.pdb
     RDKit          3D

 22 22  0  0  1  0  0  0  0  0999 V2000
    9.7221  -15.1654   15.1848 N   0  0  0  0  0  0  0  0  0  0  0  0
    8.8674  -15.0225   16.3020 C   0  0  1  0  0  0  0  0  0  0  0  0
    7.9486  -16.2153   16.3944 C   0  0  0  0  0  0  0  0  0  0  0  0
    8.5457  -17.5327   16.1140 C   0  0  0  0  0  0  0  0  0  0  0  0
    7.6754  -18.7295   16.2041 C   0  0  0  0  0  0  0  0  0  0  0  0
    8.3875  -20.0257   15.8889 C   0  0  0  0  0  0  0  0  0  0  0  0
    7.4677  -21.1519   16.0681 N   0  0  0  0  0  0  0  0  0  0  0  0
    9.5112  -14.8675   17.6294 C   0  0  0  0  0  0  0  0  0  0  0  0
   10.5625  -15.6008   17.8070 O   0  0  0  0  0  0  0  0  0  0  0  0
    9.1340  -14.0434   18.6950 N   0  0  0  0  0  0  0  0  0  0  0  0
    8.7534  -12.6177   18.5815 C   0  0  0  0  0  0  0  0  0  0  0  0
    7.4447  -12.6410   19.4058 C   0  0  0  0  0  0  0  0  0  0  0  0
    7.5131  -13.9028   20.2526 C   0  0  0  0  0  0  0  0  0  0  0  0
    9.0026  -14.2064   20.1144 C   0  0  1  0  0  0  0  0  0  0  0  0
    9.4394  -15.3795   20.7841 C   0  0  0  0  0  0  0  0  0  0  0  0
    8.8994  -16.4890   20.7501 O   0  0  0  0  0  0  0  0  0  0  0  0
   12.7067  -16.3561   22.3643 C   0  0  0  0  0  0  0  0  0  0  0  0
   11.1890  -16.4438   22.2548 C   0  0  2  0  0  0  0  0  0  0  0  0
   10.6321  -15.2939   21.5931 N   0  0  0  0  0  0  0  0  0  0  0  0
   10.6757  -16.4932   23.6453 C   0  0  0  0  0  0  0  0  0  0  0  0
   10.9689  -17.5450   24.5080 O   0  0  0  0  0  0  0  0  0  0  0  0
    9.9525  -15.5429   24.0393 O   0  0  0  0  0  0  0  0  0  0  0  0
  2  1  1  6
  3  2  1  0
  4  3  1  0
  5  4  1  0
  6  5  1  0
  7  6  1  0
  8  2  1  0
  8 10  1  0
  9  8  2  0
 10 11  1  0
 11 12  1  0
 13 14  1  0
 13 12  1  0
 14 10  1  0
 15 19  1  0
 14 15  1  6
 16 15  2  0
 18 17  1  1
 18 19  1  0
 20 21  1  0
 20 18  1  0
 22 20  2  0
M  END
$$$$
