KPA.pdb
     RDKit          3D

 22 22  0  0  1  0  0  0  0  0999 V2000
    9.3317  -15.8225   15.8013 N   0  0  0  0  0  0  0  0  0  0  0  0
    8.5908  -15.2265   16.8478 C   0  0  1  0  0  0  0  0  0  0  0  0
    7.3668  -16.0580   17.1409 C   0  0  0  0  0  0  0  0  0  0  0  0
    7.3610  -17.4340   16.6144 C   0  0  0  0  0  0  0  0  0  0  0  0
    7.6819  -18.5417   17.5460 C   0  0  0  0  0  0  0  0  0  0  0  0
    7.4781  -19.9167   16.9507 C   0  0  0  0  0  0  0  0  0  0  0  0
    7.7780  -20.9402   17.9552 N   0  0  0  0  0  0  0  0  0  0  0  0
    9.2924  -15.0180   18.1381 C   0  0  0  0  0  0  0  0  0  0  0  0
   10.3175  -15.7855   18.3240 O   0  0  0  0  0  0  0  0  0  0  0  0
    8.9928  -14.1125   19.1615 N   0  0  0  0  0  0  0  0  0  0  0  0
    8.7428  -12.6653   18.9782 C   0  0  0  0  0  0  0  0  0  0  0  0
    7.4386  -12.5302   19.7988 C   0  0  0  0  0  0  0  0  0  0  0  0
    7.3936  -13.7506   20.7057 C   0  0  0  0  0  0  0  0  0  0  0  0
    8.8492  -14.1941   20.5867 C   0  0  1  0  0  0  0  0  0  0  0  0
    9.1789  -15.3682   21.3136 C   0  0  0  0  0  0  0  0  0  0  0  0
    8.4685  -16.3676   21.4563 O   0  0  0  0  0  0  0  0  0  0  0  0
   12.4418  -16.8050   22.4378 C   0  0  0  0  0  0  0  0  0  0  0  0
   10.9402  -16.6154   22.6172 C   0  0  2  0  0  0  0  0  0  0  0  0
   10.4681  -15.4251   21.9609 N   0  0  0  0  0  0  0  0  0  0  0  0
   10.7109  -16.4823   24.0763 C   0  0  0  0  0  0  0  0  0  0  0  0
   10.0705  -15.3775   24.6295 O   0  0  0  0  0  0  0  0  0  0  0  0
   11.1164  -17.4098   24.8224 O   0  0  0  0  0  0  0  0  0  0  0  0
  2  1  1  6
  3  2  1  0
  4  3  1  0
  5  4  1  0
  6  5  1  0
  7  6  1  0
  8  2  1  0
  8 10  1  0
  9  8  2  0
 10 11  1  0
 11 12  1  0
 13 14  1  0
 13 12  1  0
 14 10  1  0
 15 19  1  0
 14 15  1  6
 16 15  2  0
 18 17  1  1
 18 19  1  0
 20 21  1  0
 20 18  1  0
 22 20  2  0
M  END
$$$$
