KPA.pdb
     RDKit          3D

 22 22  0  0  1  0  0  0  0  0999 V2000
    7.8630  -14.5810   21.2381 N   0  0  0  0  0  0  0  0  0  0  0  0
    7.2139  -14.5434   22.4937 C   0  0  1  0  0  0  0  0  0  0  0  0
    6.3509  -15.7699   22.6561 C   0  0  0  0  0  0  0  0  0  0  0  0
    6.9260  -17.0477   22.2007 C   0  0  0  0  0  0  0  0  0  0  0  0
    6.1357  -18.2847   22.4081 C   0  0  0  0  0  0  0  0  0  0  0  0
    6.7875  -19.5261   21.8417 C   0  0  0  0  0  0  0  0  0  0  0  0
    5.9599  -20.6983   22.1374 N   0  0  0  0  0  0  0  0  0  0  0  0
    8.0765  -14.4578   23.6975 C   0  0  0  0  0  0  0  0  0  0  0  0
    9.0880  -15.2649   23.6938 O   0  0  0  0  0  0  0  0  0  0  0  0
    7.9389  -13.6295   24.8164 N   0  0  0  0  0  0  0  0  0  0  0  0
    7.5249  -12.2090   24.7844 C   0  0  0  0  0  0  0  0  0  0  0  0
    6.4360  -12.2402   25.8826 C   0  0  0  0  0  0  0  0  0  0  0  0
    6.7091  -13.4946   26.6987 C   0  0  0  0  0  0  0  0  0  0  0  0
    8.1328  -13.7830   26.2298 C   0  0  1  0  0  0  0  0  0  0  0  0
    8.7237  -14.9459   26.7897 C   0  0  0  0  0  0  0  0  0  0  0  0
    8.1831  -16.0457   26.9389 O   0  0  0  0  0  0  0  0  0  0  0  0
   12.2756  -15.8982   27.6748 C   0  0  0  0  0  0  0  0  0  0  0  0
   10.7641  -15.9750   27.8551 C   0  0  2  0  0  0  0  0  0  0  0  0
   10.0935  -14.8615   27.2382 N   0  0  0  0  0  0  0  0  0  0  0  0
   10.5188  -15.9333   29.3171 C   0  0  0  0  0  0  0  0  0  0  0  0
   10.9025  -16.9686   30.1642 O   0  0  0  0  0  0  0  0  0  0  0  0
    9.9432  -14.9193   29.7882 O   0  0  0  0  0  0  0  0  0  0  0  0
  2  1  1  6
  3  2  1  0
  4  3  1  0
  5  4  1  0
  6  5  1  0
  7  6  1  0
  8  2  1  0
  8 10  1  0
  9  8  2  0
 10 11  1  0
 11 12  1  0
 13 14  1  0
 13 12  1  0
 14 10  1  0
 15 19  1  0
 14 15  1  6
 16 15  2  0
 18 17  1  1
 18 19  1  0
 20 21  1  0
 20 18  1  0
 22 20  2  0
M  END
$$$$
