QMS.pdb
     RDKit          3D

 24 23  0  0  1  0  0  0  0  0999 V2000
   27.8320  -23.0358  -17.3645 N   0  0  0  0  0  0  0  0  0  0  0  0
   28.7672  -21.9897  -17.5397 C   0  0  0  0  0  0  0  0  0  0  0  0
   29.2753  -21.8759  -18.6968 O   0  0  0  0  0  0  0  0  0  0  0  0
   29.1465  -21.0611  -16.4323 C   0  0  0  0  0  0  0  0  0  0  0  0
   28.3966  -21.4244  -15.1693 C   0  0  0  0  0  0  0  0  0  0  0  0
   27.1151  -20.6622  -15.0268 C   0  0  2  0  0  0  0  0  0  0  0  0
   27.3456  -19.3000  -14.6637 N   0  0  0  0  0  0  0  0  0  0  0  0
   26.1413  -21.3102  -14.1423 C   0  0  0  0  0  0  0  0  0  0  0  0
   25.7488  -22.4953  -14.2664 O   0  0  0  0  0  0  0  0  0  0  0  0
   27.4690  -20.5857   -7.5876 C   0  0  0  0  0  0  0  0  0  0  0  0
   25.9950  -20.0393   -8.4927 S   0  0  0  0  0  0  0  0  0  0  0  0
   25.9304  -20.9960  -10.0551 C   0  0  0  0  0  0  0  0  0  0  0  0
   24.7931  -20.4411  -10.8444 C   0  0  0  0  0  0  0  0  0  0  0  0
   24.5801  -21.1071  -12.1878 C   0  0  2  0  0  0  0  0  0  0  0  0
   25.5992  -20.5523  -13.0679 N   0  0  0  0  0  0  0  0  0  0  0  0
   23.2552  -20.7502  -12.7473 C   0  0  0  0  0  0  0  0  0  0  0  0
   22.9871  -19.5741  -13.1359 O   0  0  0  0  0  0  0  0  0  0  0  0
   20.9970  -23.7133  -14.1005 O   0  0  0  0  0  0  0  0  0  0  0  0
   20.7517  -22.4409  -14.6258 C   0  0  0  0  0  0  0  0  0  0  0  0
   21.0137  -21.4472  -13.5380 C   0  0  2  0  0  0  0  0  0  0  0  0
   22.2547  -21.7419  -12.8547 N   0  0  0  0  0  0  0  0  0  0  0  0
   19.9104  -21.5857  -12.5258 C   0  0  0  0  0  0  0  0  0  0  0  0
   20.2030  -21.9325  -11.3490 O   0  0  0  0  0  0  0  0  0  0  0  0
   18.5811  -21.3416  -12.8547 O   0  0  0  0  0  0  0  0  0  0  0  0
  1  2  1  0
  2  3  2  0
  4  5  1  0
  4  2  1  0
  6  5  1  0
  6  8  1  0
  6  7  1  1
  8 15  1  0
  9  8  2  0
 11 12  1  0
 11 10  1  0
 12 13  1  0
 14 13  1  1
 15 14  1  0
 16 17  2  0
 16 14  1  0
 18 19  1  0
 20 19  1  6
 20 22  1  0
 20 21  1  0
 21 16  1  0
 22 24  1  0
 23 22  2  0
M  END
$$$$
