QMS.pdb
     RDKit          3D

 24 23  0  0  1  0  0  0  0  0999 V2000
   18.0605  -14.0471  -16.5107 N   0  0  0  0  0  0  0  0  0  0  0  0
   16.6621  -13.9251  -16.3398 C   0  0  0  0  0  0  0  0  0  0  0  0
   15.9477  -14.8234  -16.8806 O   0  0  0  0  0  0  0  0  0  0  0  0
   16.0448  -12.8050  -15.5672 C   0  0  0  0  0  0  0  0  0  0  0  0
   17.1164  -11.8476  -15.0933 C   0  0  0  0  0  0  0  0  0  0  0  0
   17.1195  -10.5654  -15.8674 C   0  0  2  0  0  0  0  0  0  0  0  0
   17.9540  -10.6460  -17.0240 N   0  0  0  0  0  0  0  0  0  0  0  0
   17.4240   -9.3864  -15.0502 C   0  0  0  0  0  0  0  0  0  0  0  0
   16.8465   -9.1009  -13.9738 O   0  0  0  0  0  0  0  0  0  0  0  0
   23.1416  -10.2587  -13.1548 C   0  0  0  0  0  0  0  0  0  0  0  0
   22.5831   -8.6714  -13.8324 S   0  0  0  0  0  0  0  0  0  0  0  0
   20.7674   -8.7850  -14.0582 C   0  0  0  0  0  0  0  0  0  0  0  0
   20.3120   -7.4386  -14.5098 C   0  0  0  0  0  0  0  0  0  0  0  0
   18.8176   -7.3243  -14.7277 C   0  0  2  0  0  0  0  0  0  0  0  0
   18.4416   -8.5004  -15.4998 N   0  0  0  0  0  0  0  0  0  0  0  0
   18.4949   -6.1272  -15.5394 C   0  0  0  0  0  0  0  0  0  0  0  0
   18.8561   -6.0214  -16.7495 O   0  0  0  0  0  0  0  0  0  0  0  0
   15.2801   -4.1547  -14.8460 O   0  0  0  0  0  0  0  0  0  0  0  0
   15.9520   -3.8719  -16.0392 C   0  0  0  0  0  0  0  0  0  0  0  0
   17.4194   -3.9057  -15.7478 C   0  0  2  0  0  0  0  0  0  0  0  0
   17.7642   -5.0675  -14.9572 N   0  0  0  0  0  0  0  0  0  0  0  0
   17.7416   -2.6956  -14.9155 C   0  0  0  0  0  0  0  0  0  0  0  0
   17.6577   -1.5530  -15.4431 O   0  0  0  0  0  0  0  0  0  0  0  0
   18.1282   -2.8055  -13.5838 O   0  0  0  0  0  0  0  0  0  0  0  0
  1  2  1  0
  2  3  2  0
  4  5  1  0
  4  2  1  0
  6  5  1  0
  6  8  1  0
  6  7  1  6
  8 15  1  0
  9  8  2  0
 11 12  1  0
 11 10  1  0
 12 13  1  0
 14 13  1  6
 15 14  1  0
 16 17  2  0
 16 14  1  0
 18 19  1  0
 20 19  1  1
 20 22  1  0
 20 21  1  0
 21 16  1  0
 22 24  1  0
 23 22  2  0
M  END
$$$$
