QMS.pdb
     RDKit          3D

 24 23  0  0  1  0  0  0  0  0999 V2000
   29.4051  -21.1093  -19.9143 N   0  0  0  0  0  0  0  0  0  0  0  0
   29.5629  -21.0646  -18.5098 C   0  0  0  0  0  0  0  0  0  0  0  0
   29.9998  -19.9759  -18.0261 O   0  0  0  0  0  0  0  0  0  0  0  0
   29.2373  -22.2277  -17.6302 C   0  0  0  0  0  0  0  0  0  0  0  0
   28.7602  -21.7405  -16.2794 C   0  0  0  0  0  0  0  0  0  0  0  0
   27.3590  -21.2133  -16.3248 C   0  0  2  0  0  0  0  0  0  0  0  0
   27.3292  -19.7851  -16.3214 N   0  0  0  0  0  0  0  0  0  0  0  0
   26.4827  -21.7844  -15.2969 C   0  0  0  0  0  0  0  0  0  0  0  0
   26.2709  -23.0119  -15.1473 O   0  0  0  0  0  0  0  0  0  0  0  0
   25.0650  -20.8794   -7.8650 C   0  0  0  0  0  0  0  0  0  0  0  0
   25.9261  -20.4783   -9.4103 S   0  0  0  0  0  0  0  0  0  0  0  0
   24.9062  -21.1309  -10.7866 C   0  0  0  0  0  0  0  0  0  0  0  0
   25.6335  -20.8005  -12.0460 C   0  0  0  0  0  0  0  0  0  0  0  0
   25.0180  -21.3914  -13.2973 C   0  0  2  0  0  0  0  0  0  0  0  0
   25.8237  -20.8949  -14.4041 N   0  0  0  0  0  0  0  0  0  0  0  0
   23.6341  -20.8964  -13.4865 C   0  0  0  0  0  0  0  0  0  0  0  0
   23.3784  -19.6645  -13.6382 O   0  0  0  0  0  0  0  0  0  0  0  0
   19.1079  -21.9039  -14.5942 O   0  0  0  0  0  0  0  0  0  0  0  0
   20.4028  -22.4070  -14.4350 C   0  0  0  0  0  0  0  0  0  0  0  0
   21.2138  -21.3524  -13.7497 C   0  0  2  0  0  0  0  0  0  0  0  0
   22.5615  -21.8158  -13.4995 N   0  0  0  0  0  0  0  0  0  0  0  0
   20.5807  -21.0965  -12.4101 C   0  0  0  0  0  0  0  0  0  0  0  0
   20.7817  -21.9177  -11.4741 O   0  0  0  0  0  0  0  0  0  0  0  0
   19.7823  -19.9811  -12.1794 O   0  0  0  0  0  0  0  0  0  0  0  0
  1  2  1  0
  2  3  2  0
  4  5  1  0
  4  2  1  0
  6  5  1  0
  6  8  1  0
  6  7  1  1
  8 15  1  0
  9  8  2  0
 11 12  1  0
 11 10  1  0
 12 13  1  0
 14 13  1  1
 15 14  1  0
 16 17  2  0
 16 14  1  0
 18 19  1  0
 20 19  1  1
 20 22  1  0
 20 21  1  0
 21 16  1  0
 22 24  1  0
 23 22  2  0
M  END
$$$$
