QMS.pdb
     RDKit          3D

 24 23  0  0  1  0  0  0  0  0999 V2000
   26.7059  -18.7702   -7.8942 N   0  0  0  0  0  0  0  0  0  0  0  0
   26.3825  -20.1365   -7.7260 C   0  0  0  0  0  0  0  0  0  0  0  0
   26.1271  -20.5136   -6.5417 O   0  0  0  0  0  0  0  0  0  0  0  0
   26.3397  -21.0959   -8.8707 C   0  0  0  0  0  0  0  0  0  0  0  0
   26.7354  -20.3947  -10.1519 C   0  0  0  0  0  0  0  0  0  0  0  0
   26.6312  -21.2897  -11.3483 C   0  0  2  0  0  0  0  0  0  0  0  0
   27.9010  -21.8279  -11.7204 N   0  0  0  0  0  0  0  0  0  0  0  0
   25.9406  -20.6726  -12.4853 C   0  0  0  0  0  0  0  0  0  0  0  0
   26.2827  -19.5912  -13.0213 O   0  0  0  0  0  0  0  0  0  0  0  0
   27.3551  -23.5912  -16.1556 C   0  0  0  0  0  0  0  0  0  0  0  0
   26.5572  -22.2880  -17.1331 S   0  0  0  0  0  0  0  0  0  0  0  0
   25.9181  -21.0380  -15.9543 C   0  0  0  0  0  0  0  0  0  0  0  0
   24.6674  -21.6051  -15.3727 C   0  0  0  0  0  0  0  0  0  0  0  0
   24.1133  -20.8247  -14.1990 C   0  0  2  0  0  0  0  0  0  0  0  0
   24.8046  -21.3374  -13.0242 N   0  0  0  0  0  0  0  0  0  0  0  0
   22.6662  -21.0925  -14.0258 C   0  0  0  0  0  0  0  0  0  0  0  0
   22.2425  -22.1501  -13.4710 O   0  0  0  0  0  0  0  0  0  0  0  0
   19.6640  -18.3160  -13.7922 O   0  0  0  0  0  0  0  0  0  0  0  0
   19.4885  -19.2598  -14.8089 C   0  0  0  0  0  0  0  0  0  0  0  0
   20.3103  -20.4594  -14.4555 C   0  0  2  0  0  0  0  0  0  0  0  0
   21.7231  -20.1482  -14.4894 N   0  0  0  0  0  0  0  0  0  0  0  0
   20.0639  -21.5015  -15.5111 C   0  0  0  0  0  0  0  0  0  0  0  0
   19.0239  -22.2112  -15.4358 O   0  0  0  0  0  0  0  0  0  0  0  0
   20.9511  -21.7006  -16.5637 O   0  0  0  0  0  0  0  0  0  0  0  0
  1  2  1  0
  2  3  2  0
  4  5  1  0
  4  2  1  0
  6  5  1  0
  6  8  1  0
  6  7  1  6
  8 15  1  0
  9  8  2  0
 11 12  1  0
 11 10  1  0
 12 13  1  0
 14 13  1  6
 15 14  1  0
 16 17  2  0
 16 14  1  0
 18 19  1  0
 20 19  1  6
 20 22  1  0
 20 21  1  0
 21 16  1  0
 22 24  1  0
 23 22  2  0
M  END
$$$$
