QMS.pdb
     RDKit          3D

 24 23  0  0  1  0  0  0  0  0999 V2000
   22.2208  -23.0623  -15.4224 N   0  0  0  0  0  0  0  0  0  0  0  0
   20.8373  -22.7698  -15.4299 C   0  0  0  0  0  0  0  0  0  0  0  0
   20.0879  -23.6049  -16.0224 O   0  0  0  0  0  0  0  0  0  0  0  0
   20.2739  -21.5481  -14.7801 C   0  0  0  0  0  0  0  0  0  0  0  0
   21.3879  -20.7154  -14.1840 C   0  0  0  0  0  0  0  0  0  0  0  0
   21.7561  -21.1597  -12.8018 C   0  0  2  0  0  0  0  0  0  0  0  0
   20.6328  -21.1345  -11.9197 N   0  0  0  0  0  0  0  0  0  0  0  0
   22.9102  -20.4477  -12.2437 C   0  0  0  0  0  0  0  0  0  0  0  0
   23.1534  -19.2317  -12.4337 O   0  0  0  0  0  0  0  0  0  0  0  0
   26.7626  -19.0572   -7.0451 C   0  0  0  0  0  0  0  0  0  0  0  0
   26.3600  -20.7850   -7.4235 S   0  0  0  0  0  0  0  0  0  0  0  0
   26.8057  -21.0757   -9.1778 C   0  0  0  0  0  0  0  0  0  0  0  0
   25.5599  -21.5277   -9.8617 C   0  0  0  0  0  0  0  0  0  0  0  0
   25.0149  -20.5483  -10.8803 C   0  0  2  0  0  0  0  0  0  0  0  0
   23.8216  -21.1761  -11.4304 N   0  0  0  0  0  0  0  0  0  0  0  0
   25.9773  -20.3543  -11.9903 C   0  0  0  0  0  0  0  0  0  0  0  0
   26.6685  -19.2978  -12.1004 O   0  0  0  0  0  0  0  0  0  0  0  0
   28.4075  -22.2683  -15.6369 O   0  0  0  0  0  0  0  0  0  0  0  0
   27.5350  -22.5200  -14.5737 C   0  0  0  0  0  0  0  0  0  0  0  0
   27.0821  -21.1970  -14.0408 C   0  0  2  0  0  0  0  0  0  0  0  0
   26.1364  -21.3699  -12.9594 N   0  0  0  0  0  0  0  0  0  0  0  0
   26.3564  -20.4885  -15.1509 C   0  0  0  0  0  0  0  0  0  0  0  0
   25.1040  -20.6115  -15.2362 O   0  0  0  0  0  0  0  0  0  0  0  0
   27.0299  -19.7045  -16.0818 O   0  0  0  0  0  0  0  0  0  0  0  0
  1  2  1  0
  2  3  2  0
  4  5  1  0
  4  2  1  0
  6  5  1  0
  6  8  1  0
  6  7  1  1
  8 15  1  0
  9  8  2  0
 11 12  1  0
 11 10  1  0
 12 13  1  0
 14 13  1  1
 15 14  1  0
 16 17  2  0
 16 14  1  0
 18 19  1  0
 20 19  1  6
 20 22  1  0
 20 21  1  0
 21 16  1  0
 22 24  1  0
 23 22  2  0
M  END
$$$$
