QMS.pdb
     RDKit          3D

 24 23  0  0  1  0  0  0  0  0999 V2000
   15.3745  -11.8119  -18.2442 N   0  0  0  0  0  0  0  0  0  0  0  0
   16.5959  -11.4603  -17.6244 C   0  0  0  0  0  0  0  0  0  0  0  0
   16.5121  -10.9248  -16.4771 O   0  0  0  0  0  0  0  0  0  0  0  0
   17.9206  -11.7000  -18.2727 C   0  0  0  0  0  0  0  0  0  0  0  0
   18.8476  -10.5337  -18.0081 C   0  0  0  0  0  0  0  0  0  0  0  0
   20.1637  -10.9677  -17.4398 C   0  0  2  0  0  0  0  0  0  0  0  0
   20.1537  -12.3482  -17.0730 N   0  0  0  0  0  0  0  0  0  0  0  0
   20.6440  -10.1121  -16.3500 C   0  0  0  0  0  0  0  0  0  0  0  0
   20.4264  -10.3243  -15.1329 O   0  0  0  0  0  0  0  0  0  0  0  0
   26.3836  -11.2703  -14.6743 C   0  0  0  0  0  0  0  0  0  0  0  0
   25.7824   -9.7569  -15.4733 S   0  0  0  0  0  0  0  0  0  0  0  0
   23.9805   -9.6515  -15.1530 C   0  0  0  0  0  0  0  0  0  0  0  0
   23.5143   -8.3772  -15.7719 C   0  0  0  0  0  0  0  0  0  0  0  0
   22.0240   -8.1341  -15.6561 C   0  0  2  0  0  0  0  0  0  0  0  0
   21.4094   -8.9612  -16.6851 N   0  0  0  0  0  0  0  0  0  0  0  0
   21.6972   -6.7202  -15.9564 C   0  0  0  0  0  0  0  0  0  0  0  0
   21.7930   -6.2448  -17.1272 O   0  0  0  0  0  0  0  0  0  0  0  0
   18.5661   -5.0772  -14.9740 O   0  0  0  0  0  0  0  0  0  0  0  0
   19.5496   -4.2070  -14.4939 C   0  0  0  0  0  0  0  0  0  0  0  0
   20.8219   -4.5249  -15.2148 C   0  0  2  0  0  0  0  0  0  0  0  0
   21.2659   -5.8690  -14.9145 N   0  0  0  0  0  0  0  0  0  0  0  0
   21.8783   -3.5871  -14.6996 C   0  0  0  0  0  0  0  0  0  0  0  0
   22.8397   -4.0590  -14.0332 O   0  0  0  0  0  0  0  0  0  0  0  0
   21.8210   -2.2181  -14.9390 O   0  0  0  0  0  0  0  0  0  0  0  0
  1  2  1  0
  2  3  2  0
  4  5  1  0
  4  2  1  0
  6  5  1  0
  6  8  1  0
  6  7  1  1
  8 15  1  0
  9  8  2  0
 11 12  1  0
 11 10  1  0
 12 13  1  0
 14 13  1  6
 15 14  1  0
 16 17  2  0
 16 14  1  0
 18 19  1  0
 20 19  1  1
 20 22  1  0
 20 21  1  0
 21 16  1  0
 22 24  1  0
 23 22  2  0
M  END
$$$$
