QMS.pdb
     RDKit          3D

 24 23  0  0  1  0  0  0  0  0999 V2000
   20.5574  -16.7186  -20.0285 N   0  0  0  0  0  0  0  0  0  0  0  0
   20.7865  -16.1034  -21.2809 C   0  0  0  0  0  0  0  0  0  0  0  0
   20.7312  -16.8591  -22.2986 O   0  0  0  0  0  0  0  0  0  0  0  0
   21.0788  -14.6442  -21.4145 C   0  0  0  0  0  0  0  0  0  0  0  0
   21.0958  -13.9902  -20.0501 C   0  0  0  0  0  0  0  0  0  0  0  0
   22.4472  -13.4537  -19.6907 C   0  0  2  0  0  0  0  0  0  0  0  0
   23.4374  -14.4830  -19.6670 N   0  0  0  0  0  0  0  0  0  0  0  0
   22.4542  -12.6549  -18.4609 C   0  0  0  0  0  0  0  0  0  0  0  0
   21.6392  -12.7971  -17.5179 O   0  0  0  0  0  0  0  0  0  0  0  0
   27.3348  -12.1281  -15.1251 C   0  0  0  0  0  0  0  0  0  0  0  0
   27.1030  -10.3291  -15.1503 S   0  0  0  0  0  0  0  0  0  0  0  0
   25.3390  -10.0133  -15.5367 C   0  0  0  0  0  0  0  0  0  0  0  0
   25.0060  -10.8613  -16.7175 C   0  0  0  0  0  0  0  0  0  0  0  0
   23.5429  -10.8429  -17.1082 C   0  0  2  0  0  0  0  0  0  0  0  0
   23.4486  -11.6482  -18.3178 N   0  0  0  0  0  0  0  0  0  0  0  0
   23.1058   -9.4674  -17.4444 C   0  0  0  0  0  0  0  0  0  0  0  0
   23.5680   -8.8439  -18.4462 O   0  0  0  0  0  0  0  0  0  0  0  0
   20.0692   -5.8538  -16.6189 O   0  0  0  0  0  0  0  0  0  0  0  0
   20.4027   -7.1717  -16.2919 C   0  0  0  0  0  0  0  0  0  0  0  0
   21.7098   -7.4816  -16.9516 C   0  0  2  0  0  0  0  0  0  0  0  0
   22.1470   -8.8232  -16.6310 N   0  0  0  0  0  0  0  0  0  0  0  0
   22.7348   -6.5379  -16.3862 C   0  0  0  0  0  0  0  0  0  0  0  0
   23.3849   -6.8859  -15.3629 O   0  0  0  0  0  0  0  0  0  0  0  0
   22.9823   -5.2961  -16.9621 O   0  0  0  0  0  0  0  0  0  0  0  0
  1  2  1  0
  2  3  2  0
  4  5  1  0
  4  2  1  0
  6  5  1  0
  6  8  1  0
  6  7  1  1
  8 15  1  0
  9  8  2  0
 11 12  1  0
 11 10  1  0
 12 13  1  0
 14 13  1  6
 15 14  1  0
 16 17  2  0
 16 14  1  0
 18 19  1  0
 20 19  1  1
 20 22  1  0
 20 21  1  0
 21 16  1  0
 22 24  1  0
 23 22  2  0
M  END
$$$$
