QMS.pdb
     RDKit          3D

 24 23  0  0  1  0  0  0  0  0999 V2000
   30.4468  -23.3379  -16.2630 N   0  0  0  0  0  0  0  0  0  0  0  0
   29.8869  -22.6580  -17.3693 C   0  0  0  0  0  0  0  0  0  0  0  0
   30.0673  -23.1892  -18.5074 O   0  0  0  0  0  0  0  0  0  0  0  0
   29.1222  -21.3829  -17.2219 C   0  0  0  0  0  0  0  0  0  0  0  0
   29.0779  -20.9684  -15.7673 C   0  0  0  0  0  0  0  0  0  0  0  0
   27.7847  -20.3074  -15.4009 C   0  0  2  0  0  0  0  0  0  0  0  0
   27.9858  -18.9758  -14.9248 N   0  0  0  0  0  0  0  0  0  0  0  0
   26.9583  -21.1005  -14.4851 C   0  0  0  0  0  0  0  0  0  0  0  0
   26.9681  -22.3535  -14.4254 O   0  0  0  0  0  0  0  0  0  0  0  0
   27.1728  -20.9562   -8.5991 C   0  0  0  0  0  0  0  0  0  0  0  0
   25.4142  -20.5128   -8.6336 S   0  0  0  0  0  0  0  0  0  0  0  0
   24.7200  -21.1627  -10.2009 C   0  0  0  0  0  0  0  0  0  0  0  0
   25.5662  -20.6127  -11.2989 C   0  0  0  0  0  0  0  0  0  0  0  0
   25.2173  -21.1325  -12.6779 C   0  0  2  0  0  0  0  0  0  0  0  0
   26.0831  -20.4117  -13.6007 N   0  0  0  0  0  0  0  0  0  0  0  0
   23.8140  -20.8047  -13.0236 C   0  0  0  0  0  0  0  0  0  0  0  0
   23.4301  -19.6105  -13.2037 O   0  0  0  0  0  0  0  0  0  0  0  0
   19.5235  -22.4015  -14.4377 O   0  0  0  0  0  0  0  0  0  0  0  0
   20.8147  -22.7759  -14.0532 C   0  0  0  0  0  0  0  0  0  0  0  0
   21.5137  -21.5453  -13.5670 C   0  0  2  0  0  0  0  0  0  0  0  0
   22.8688  -21.8461  -13.1585 N   0  0  0  0  0  0  0  0  0  0  0  0
   20.7820  -21.0646  -12.3446 C   0  0  0  0  0  0  0  0  0  0  0  0
   21.1919  -21.4256  -11.2076 O   0  0  0  0  0  0  0  0  0  0  0  0
   19.6691  -20.2353  -12.4370 O   0  0  0  0  0  0  0  0  0  0  0  0
  1  2  1  0
  2  3  2  0
  4  5  1  0
  4  2  1  0
  6  5  1  0
  6  8  1  0
  6  7  1  1
  8 15  1  0
  9  8  2  0
 11 12  1  0
 11 10  1  0
 12 13  1  0
 14 13  1  1
 15 14  1  0
 16 17  2  0
 16 14  1  0
 18 19  1  0
 20 19  1  1
 20 22  1  0
 20 21  1  0
 21 16  1  0
 22 24  1  0
 23 22  2  0
M  END
$$$$
