QMS.pdb
     RDKit          3D

 24 23  0  0  1  0  0  0  0  0999 V2000
   19.2318  -26.7776   -9.5947 N   0  0  0  0  0  0  0  0  0  0  0  0
   18.9425  -25.4565  -10.0078 C   0  0  0  0  0  0  0  0  0  0  0  0
   19.6118  -25.0141  -10.9908 O   0  0  0  0  0  0  0  0  0  0  0  0
   17.9081  -24.6153   -9.3335 C   0  0  0  0  0  0  0  0  0  0  0  0
   17.2849  -25.3786   -8.1851 C   0  0  0  0  0  0  0  0  0  0  0  0
   17.6079  -24.7722   -6.8542 C   0  0  2  0  0  0  0  0  0  0  0  0
   19.0134  -24.7701   -6.5993 N   0  0  0  0  0  0  0  0  0  0  0  0
   16.8480  -25.3544   -5.7433 C   0  0  0  0  0  0  0  0  0  0  0  0
   15.6777  -25.7962   -5.8388 O   0  0  0  0  0  0  0  0  0  0  0  0
   20.5455  -29.6714   -1.8533 C   0  0  0  0  0  0  0  0  0  0  0  0
   19.8064  -28.0587   -1.4747 S   0  0  0  0  0  0  0  0  0  0  0  0
   18.5093  -27.7461   -2.7320 C   0  0  0  0  0  0  0  0  0  0  0  0
   17.8714  -26.4481   -2.3683 C   0  0  0  0  0  0  0  0  0  0  0  0
   16.7812  -25.9988   -3.3187 C   0  0  2  0  0  0  0  0  0  0  0  0
   17.4712  -25.4278   -4.4670 N   0  0  0  0  0  0  0  0  0  0  0  0
   15.9582  -24.9292   -2.7067 C   0  0  0  0  0  0  0  0  0  0  0  0
   16.4293  -23.7783   -2.4631 O   0  0  0  0  0  0  0  0  0  0  0  0
   13.0473  -23.1858   -3.7665 O   0  0  0  0  0  0  0  0  0  0  0  0
   12.5982  -23.8534   -2.6229 C   0  0  0  0  0  0  0  0  0  0  0  0
   13.7964  -24.1545   -1.7784 C   0  0  2  0  0  0  0  0  0  0  0  0
   14.6083  -25.1896   -2.3811 N   0  0  0  0  0  0  0  0  0  0  0  0
   13.2988  -24.6939   -0.4660 C   0  0  0  0  0  0  0  0  0  0  0  0
   12.5902  -23.9526    0.2682 O   0  0  0  0  0  0  0  0  0  0  0  0
   13.5999  -25.9847   -0.0443 O   0  0  0  0  0  0  0  0  0  0  0  0
  1  2  1  0
  2  3  2  0
  4  5  1  0
  4  2  1  0
  6  5  1  0
  6  8  1  0
  6  7  1  1
  8 15  1  0
  9  8  2  0
 11 12  1  0
 11 10  1  0
 12 13  1  0
 14 13  1  1
 15 14  1  0
 16 17  2  0
 16 14  1  0
 18 19  1  0
 20 19  1  6
 20 22  1  0
 20 21  1  0
 21 16  1  0
 22 24  1  0
 23 22  2  0
M  END
$$$$
