MDA.pdb
     RDKit          3D

 22 21  0  0  1  0  0  0  0  0999 V2000
    7.2096  -11.4560   26.8873 C   0  0  0  0  0  0  0  0  0  0  0  0
    7.7516  -12.5631   25.5909 S   0  0  0  0  0  0  0  0  0  0  0  0
    6.5599  -13.8019   25.1805 C   0  0  0  0  0  0  0  0  0  0  0  0
    6.9156  -14.8610   24.2169 C   0  0  0  0  0  0  0  0  0  0  0  0
    7.8997  -14.5707   23.1513 C   0  0  2  0  0  0  0  0  0  0  0  0
    7.2476  -14.1774   21.8914 N   0  0  0  0  0  0  0  0  0  0  0  0
    8.6030  -15.8714   22.8488 C   0  0  0  0  0  0  0  0  0  0  0  0
    7.8929  -16.8682   22.5943 O   0  0  0  0  0  0  0  0  0  0  0  0
   10.0099  -16.0049   22.8409 N   0  0  0  0  0  0  0  0  0  0  0  0
   10.6996  -17.2519   22.5096 C   0  0  1  0  0  0  0  0  0  0  0  0
   12.0049  -16.9434   21.8401 C   0  0  0  0  0  0  0  0  0  0  0  0
   12.7519  -18.0900   21.3276 C   0  0  0  0  0  0  0  0  0  0  0  0
   13.4112  -18.1229   20.2686 O   0  0  0  0  0  0  0  0  0  0  0  0
   10.8265  -18.0150   23.7689 C   0  0  0  0  0  0  0  0  0  0  0  0
   10.9837  -19.2597   23.7766 O   0  0  0  0  0  0  0  0  0  0  0  0
   12.7552  -19.2882   22.0649 O   0  0  0  0  0  0  0  0  0  0  0  0
    9.6936  -19.1297   26.2356 C   0  0  0  0  0  0  0  0  0  0  0  0
   10.8236  -18.1152   26.2649 C   0  0  2  0  0  0  0  0  0  0  0  0
   10.7723  -17.3382   25.0365 N   0  0  0  0  0  0  0  0  0  0  0  0
   12.0999  -18.8749   26.3449 C   0  0  0  0  0  0  0  0  0  0  0  0
   12.3803  -19.6275   27.4681 O   0  0  0  0  0  0  0  0  0  0  0  0
   12.9103  -18.8072   25.3575 O   0  0  0  0  0  0  0  0  0  0  0  0
  2  1  1  0
  3  4  1  0
  3  2  1  0
  4  5  1  0
  5  7  1  0
  5  6  1  6
  7  8  2  0
  9 10  1  0
  9  7  1  0
 10 14  1  0
 10 11  1  1
 12 11  1  0
 13 12  2  0
 14 15  2  0
 14 19  1  0
 16 12  1  0
 18 17  1  6
 19 18  1  0
 20 21  1  0
 20 18  1  0
 22 20  2  0
M  END
$$$$
