MDA.pdb
     RDKit          3D

 22 21  0  0  1  0  0  0  0  0999 V2000
    7.5761  -11.4707   26.7523 C   0  0  0  0  0  0  0  0  0  0  0  0
    5.8904  -12.0436   26.5781 S   0  0  0  0  0  0  0  0  0  0  0  0
    5.7506  -13.5482   25.6617 C   0  0  0  0  0  0  0  0  0  0  0  0
    6.9564  -14.3605   25.4108 C   0  0  0  0  0  0  0  0  0  0  0  0
    6.8610  -15.5477   24.5336 C   0  0  2  0  0  0  0  0  0  0  0  0
    5.8593  -16.5116   25.0180 N   0  0  0  0  0  0  0  0  0  0  0  0
    8.1860  -16.2637   24.6325 C   0  0  0  0  0  0  0  0  0  0  0  0
    8.2878  -17.1793   25.4775 O   0  0  0  0  0  0  0  0  0  0  0  0
    9.2980  -15.9462   23.8202 N   0  0  0  0  0  0  0  0  0  0  0  0
   10.5854  -16.6352   23.9105 C   0  0  1  0  0  0  0  0  0  0  0  0
   11.3589  -16.4261   22.6435 C   0  0  0  0  0  0  0  0  0  0  0  0
   12.6523  -17.1011   22.5604 C   0  0  0  0  0  0  0  0  0  0  0  0
   12.8638  -18.3118   22.7767 O   0  0  0  0  0  0  0  0  0  0  0  0
   11.2563  -16.1254   25.1247 C   0  0  0  0  0  0  0  0  0  0  0  0
   12.0014  -15.1164   25.0960 O   0  0  0  0  0  0  0  0  0  0  0  0
   13.7912  -16.3546   22.2071 O   0  0  0  0  0  0  0  0  0  0  0  0
   10.8451  -14.8560   27.8188 C   0  0  0  0  0  0  0  0  0  0  0  0
   11.5821  -16.1659   27.6010 C   0  0  2  0  0  0  0  0  0  0  0  0
   11.0678  -16.7839   26.3890 N   0  0  0  0  0  0  0  0  0  0  0  0
   11.3083  -17.0305   28.7801 C   0  0  0  0  0  0  0  0  0  0  0  0
   10.5938  -18.2012   28.6204 O   0  0  0  0  0  0  0  0  0  0  0  0
   11.7488  -16.6583   29.9220 O   0  0  0  0  0  0  0  0  0  0  0  0
  2  1  1  0
  3  4  1  0
  3  2  1  0
  4  5  1  0
  5  7  1  0
  5  6  1  1
  7  8  2  0
  9 10  1  0
  9  7  1  0
 10 14  1  0
 10 11  1  6
 12 11  1  0
 13 12  2  0
 14 15  2  0
 14 19  1  0
 16 12  1  0
 18 17  1  1
 19 18  1  0
 20 21  1  0
 20 18  1  0
 22 20  2  0
M  END
$$$$
