MDA.pdb
     RDKit          3D

 22 21  0  0  1  0  0  0  0  0999 V2000
    4.6781  -11.0815   25.4984 C   0  0  0  0  0  0  0  0  0  0  0  0
    6.3104  -11.8125   25.4658 S   0  0  0  0  0  0  0  0  0  0  0  0
    6.5382  -13.0779   26.6782 C   0  0  0  0  0  0  0  0  0  0  0  0
    7.3172  -14.2825   26.3332 C   0  0  0  0  0  0  0  0  0  0  0  0
    7.0732  -14.9578   25.0400 C   0  0  2  0  0  0  0  0  0  0  0  0
    5.8586  -15.7891   25.0731 N   0  0  0  0  0  0  0  0  0  0  0  0
    8.2143  -15.9245   24.8370 C   0  0  0  0  0  0  0  0  0  0  0  0
    8.0967  -17.0698   25.3238 O   0  0  0  0  0  0  0  0  0  0  0  0
    9.3913  -15.5922   24.1287 N   0  0  0  0  0  0  0  0  0  0  0  0
   10.5571  -16.4721   24.0444 C   0  0  1  0  0  0  0  0  0  0  0  0
   11.3420  -16.1515   22.8080 C   0  0  0  0  0  0  0  0  0  0  0  0
   12.5174  -16.9832   22.5586 C   0  0  0  0  0  0  0  0  0  0  0  0
   12.6103  -18.2080   22.7785 O   0  0  0  0  0  0  0  0  0  0  0  0
   11.3099  -16.3024   25.3048 C   0  0  0  0  0  0  0  0  0  0  0  0
   12.5625  -16.3628   25.3418 O   0  0  0  0  0  0  0  0  0  0  0  0
   13.6735  -16.3885   22.0210 O   0  0  0  0  0  0  0  0  0  0  0  0
   10.9813  -14.6728   28.4765 C   0  0  0  0  0  0  0  0  0  0  0  0
   11.3677  -15.9657   27.7794 C   0  0  2  0  0  0  0  0  0  0  0  0
   10.6135  -16.0595   26.5392 N   0  0  0  0  0  0  0  0  0  0  0  0
   11.0088  -17.0855   28.6904 C   0  0  0  0  0  0  0  0  0  0  0  0
   11.6455  -17.2081   29.9095 O   0  0  0  0  0  0  0  0  0  0  0  0
   10.1091  -17.9123   28.3118 O   0  0  0  0  0  0  0  0  0  0  0  0
  2  1  1  0
  3  4  1  0
  3  2  1  0
  4  5  1  0
  5  7  1  0
  5  6  1  1
  7  8  2  0
  9 10  1  0
  9  7  1  0
 10 14  1  0
 10 11  1  6
 12 11  1  0
 13 12  2  0
 14 15  2  0
 14 19  1  0
 16 12  1  0
 18 17  1  1
 19 18  1  0
 20 21  1  0
 20 18  1  0
 22 20  2  0
M  END
$$$$
