MDA.pdb
     RDKit          3D

 22 21  0  0  1  0  0  0  0  0999 V2000
    6.2175  -12.3656   27.1588 C   0  0  0  0  0  0  0  0  0  0  0  0
    7.4021  -12.8138   25.8955 S   0  0  0  0  0  0  0  0  0  0  0  0
    6.7701  -13.9696   24.7175 C   0  0  0  0  0  0  0  0  0  0  0  0
    7.6101  -14.3739   23.5740 C   0  0  0  0  0  0  0  0  0  0  0  0
    7.8531  -15.8118   23.3256 C   0  0  2  0  0  0  0  0  0  0  0  0
    6.7306  -16.6473   23.7830 N   0  0  0  0  0  0  0  0  0  0  0  0
    9.0245  -16.2064   24.1917 C   0  0  0  0  0  0  0  0  0  0  0  0
    8.8271  -17.0682   25.0754 O   0  0  0  0  0  0  0  0  0  0  0  0
   10.3154  -15.6502   24.0449 N   0  0  0  0  0  0  0  0  0  0  0  0
   11.5414  -16.3422   24.4428 C   0  0  1  0  0  0  0  0  0  0  0  0
   12.6838  -15.8717   23.5937 C   0  0  0  0  0  0  0  0  0  0  0  0
   12.8000  -16.4868   22.2733 C   0  0  0  0  0  0  0  0  0  0  0  0
   13.3344  -15.9741   21.2689 O   0  0  0  0  0  0  0  0  0  0  0  0
   11.7171  -16.0978   25.8898 C   0  0  0  0  0  0  0  0  0  0  0  0
   12.6136  -16.6709   26.5546 O   0  0  0  0  0  0  0  0  0  0  0  0
   12.2741  -17.7760   22.0714 O   0  0  0  0  0  0  0  0  0  0  0  0
   10.3783  -13.6551   28.3861 C   0  0  0  0  0  0  0  0  0  0  0  0
   11.0202  -14.9798   28.0121 C   0  0  2  0  0  0  0  0  0  0  0  0
   10.8509  -15.1821   26.5818 N   0  0  0  0  0  0  0  0  0  0  0  0
   10.3148  -16.0453   28.7735 C   0  0  0  0  0  0  0  0  0  0  0  0
   10.4721  -16.1278   30.1428 O   0  0  0  0  0  0  0  0  0  0  0  0
    9.5737  -16.8642   28.1281 O   0  0  0  0  0  0  0  0  0  0  0  0
  2  1  1  0
  3  4  1  0
  3  2  1  0
  4  5  1  0
  5  7  1  0
  5  6  1  1
  7  8  2  0
  9 10  1  0
  9  7  1  0
 10 14  1  0
 10 11  1  6
 12 11  1  0
 13 12  2  0
 14 15  2  0
 14 19  1  0
 16 12  1  0
 18 17  1  1
 19 18  1  0
 20 21  1  0
 20 18  1  0
 22 20  2  0
M  END
$$$$
