MDA.pdb
     RDKit          3D

 22 21  0  0  1  0  0  0  0  0999 V2000
    6.1955  -10.7929   26.3364 C   0  0  0  0  0  0  0  0  0  0  0  0
    7.1384  -12.1442   25.6399 S   0  0  0  0  0  0  0  0  0  0  0  0
    6.2285  -13.6555   25.5348 C   0  0  0  0  0  0  0  0  0  0  0  0
    6.9125  -14.8859   25.0932 C   0  0  0  0  0  0  0  0  0  0  0  0
    8.0363  -14.7869   24.1364 C   0  0  2  0  0  0  0  0  0  0  0  0
    7.6007  -15.0164   22.7491 N   0  0  0  0  0  0  0  0  0  0  0  0
    8.9744  -15.9255   24.4549 C   0  0  0  0  0  0  0  0  0  0  0  0
    8.4672  -17.0130   24.8054 O   0  0  0  0  0  0  0  0  0  0  0  0
   10.3808  -15.8135   24.3729 N   0  0  0  0  0  0  0  0  0  0  0  0
   11.2977  -16.8993   24.7201 C   0  0  1  0  0  0  0  0  0  0  0  0
   12.4731  -16.8833   23.7897 C   0  0  0  0  0  0  0  0  0  0  0  0
   13.2459  -15.6437   23.7507 C   0  0  0  0  0  0  0  0  0  0  0  0
   13.0717  -14.6467   24.4806 O   0  0  0  0  0  0  0  0  0  0  0  0
   11.6468  -16.7217   26.1452 C   0  0  0  0  0  0  0  0  0  0  0  0
   12.5616  -17.3845   26.6910 O   0  0  0  0  0  0  0  0  0  0  0  0
   14.2929  -15.5203   22.8191 O   0  0  0  0  0  0  0  0  0  0  0  0
   10.4333  -14.5106   28.9475 C   0  0  0  0  0  0  0  0  0  0  0  0
   11.2675  -15.6375   28.3635 C   0  0  2  0  0  0  0  0  0  0  0  0
   10.9348  -15.7692   26.9537 N   0  0  0  0  0  0  0  0  0  0  0  0
   10.9110  -16.8805   29.0986 C   0  0  0  0  0  0  0  0  0  0  0  0
   10.1746  -17.8630   28.4669 O   0  0  0  0  0  0  0  0  0  0  0  0
   11.3025  -17.0035   30.3102 O   0  0  0  0  0  0  0  0  0  0  0  0
  2  1  1  0
  3  4  1  0
  3  2  1  0
  4  5  1  0
  5  7  1  0
  5  6  1  6
  7  8  2  0
  9 10  1  0
  9  7  1  0
 10 14  1  0
 10 11  1  6
 12 11  1  0
 13 12  2  0
 14 15  2  0
 14 19  1  0
 16 12  1  0
 18 17  1  1
 19 18  1  0
 20 21  1  0
 20 18  1  0
 22 20  2  0
M  END
$$$$
