MDA.pdb
     RDKit          3D

 22 21  0  0  1  0  0  0  0  0999 V2000
    6.1927  -11.9122   27.4043 C   0  0  0  0  0  0  0  0  0  0  0  0
    7.1768  -12.1240   25.9255 S   0  0  0  0  0  0  0  0  0  0  0  0
    6.4426  -13.2125   24.7425 C   0  0  0  0  0  0  0  0  0  0  0  0
    6.9538  -14.5899   24.6077 C   0  0  0  0  0  0  0  0  0  0  0  0
    7.7721  -14.9472   23.4284 C   0  0  2  0  0  0  0  0  0  0  0  0
    7.0236  -15.7758   22.4690 N   0  0  0  0  0  0  0  0  0  0  0  0
    8.8900  -15.8279   23.9309 C   0  0  0  0  0  0  0  0  0  0  0  0
    8.5758  -16.8483   24.5810 O   0  0  0  0  0  0  0  0  0  0  0  0
   10.2561  -15.5501   23.6985 N   0  0  0  0  0  0  0  0  0  0  0  0
   11.3478  -16.3387   24.2700 C   0  0  1  0  0  0  0  0  0  0  0  0
   12.5176  -16.3336   23.3324 C   0  0  0  0  0  0  0  0  0  0  0  0
   12.3283  -17.0335   22.0637 C   0  0  0  0  0  0  0  0  0  0  0  0
   11.4305  -17.8619   21.8090 O   0  0  0  0  0  0  0  0  0  0  0  0
   11.6329  -15.7670   25.6027 C   0  0  0  0  0  0  0  0  0  0  0  0
   12.7506  -15.2728   25.8865 O   0  0  0  0  0  0  0  0  0  0  0  0
   13.2181  -16.7796   21.0039 O   0  0  0  0  0  0  0  0  0  0  0  0
   10.0550  -14.1939   28.3635 C   0  0  0  0  0  0  0  0  0  0  0  0
   10.9649  -15.3454   27.9725 C   0  0  2  0  0  0  0  0  0  0  0  0
   10.6195  -15.7630   26.6228 N   0  0  0  0  0  0  0  0  0  0  0  0
   10.7198  -16.4516   28.9362 C   0  0  0  0  0  0  0  0  0  0  0  0
   10.1347  -17.6237   28.4997 O   0  0  0  0  0  0  0  0  0  0  0  0
   11.0629  -16.2816   30.1568 O   0  0  0  0  0  0  0  0  0  0  0  0
  2  1  1  0
  3  4  1  0
  3  2  1  0
  4  5  1  0
  5  7  1  0
  5  6  1  6
  7  8  2  0
  9 10  1  0
  9  7  1  0
 10 14  1  0
 10 11  1  6
 12 11  1  0
 13 12  2  0
 14 15  2  0
 14 19  1  0
 16 12  1  0
 18 17  1  1
 19 18  1  0
 20 21  1  0
 20 18  1  0
 22 20  2  0
M  END
$$$$
