MDA.pdb
     RDKit          3D

 22 21  0  0  1  0  0  0  0  0999 V2000
    5.9162  -10.8733   26.9086 C   0  0  0  0  0  0  0  0  0  0  0  0
    6.6204  -11.5485   25.4091 S   0  0  0  0  0  0  0  0  0  0  0  0
    5.8827  -13.0754   24.9117 C   0  0  0  0  0  0  0  0  0  0  0  0
    6.7072  -14.2979   24.8612 C   0  0  0  0  0  0  0  0  0  0  0  0
    8.0442  -14.2449   24.2306 C   0  0  2  0  0  0  0  0  0  0  0  0
    7.9631  -14.2982   22.7616 N   0  0  0  0  0  0  0  0  0  0  0  0
    8.7627  -15.5081   24.6379 C   0  0  0  0  0  0  0  0  0  0  0  0
    8.2976  -16.1538   25.6019 O   0  0  0  0  0  0  0  0  0  0  0  0
    9.9212  -15.9833   23.9825 N   0  0  0  0  0  0  0  0  0  0  0  0
   10.7277  -17.0987   24.4782 C   0  0  1  0  0  0  0  0  0  0  0  0
   11.6802  -17.5455   23.4103 C   0  0  0  0  0  0  0  0  0  0  0  0
   12.4732  -18.7353   23.7123 C   0  0  0  0  0  0  0  0  0  0  0  0
   12.1548  -19.6494   24.4998 O   0  0  0  0  0  0  0  0  0  0  0  0
   11.3799  -16.6330   25.7200 C   0  0  0  0  0  0  0  0  0  0  0  0
   12.4453  -15.9709   25.7008 O   0  0  0  0  0  0  0  0  0  0  0  0
   13.7175  -18.9060   23.0784 O   0  0  0  0  0  0  0  0  0  0  0  0
   10.8805  -15.4821   28.9251 C   0  0  0  0  0  0  0  0  0  0  0  0
   11.5513  -16.6434   28.2121 C   0  0  2  0  0  0  0  0  0  0  0  0
   10.7993  -16.9322   27.0011 N   0  0  0  0  0  0  0  0  0  0  0  0
   11.5166  -17.8099   29.1344 C   0  0  0  0  0  0  0  0  0  0  0  0
   12.2664  -17.7895   30.2937 O   0  0  0  0  0  0  0  0  0  0  0  0
   10.7835  -18.8104   28.8215 O   0  0  0  0  0  0  0  0  0  0  0  0
  2  1  1  0
  3  4  1  0
  3  2  1  0
  4  5  1  0
  5  7  1  0
  5  6  1  6
  7  8  2  0
  9 10  1  0
  9  7  1  0
 10 14  1  0
 10 11  1  6
 12 11  1  0
 13 12  2  0
 14 15  2  0
 14 19  1  0
 16 12  1  0
 18 17  1  1
 19 18  1  0
 20 21  1  0
 20 18  1  0
 22 20  2  0
M  END
$$$$
