QPP.pdb
     RDKit          3D

 24 25  0  0  1  0  0  0  0  0999 V2000
   19.1862  -17.5246  -17.9592 N   0  0  0  0  0  0  0  0  0  0  0  0
   19.8444  -17.4915  -16.6808 C   0  0  0  0  0  0  0  0  0  0  0  0
   19.2116  -17.8588  -15.6793 O   0  0  0  0  0  0  0  0  0  0  0  0
   21.2401  -17.0252  -16.6118 C   0  0  0  0  0  0  0  0  0  0  0  0
   22.1738  -17.9086  -15.8558 C   0  0  0  0  0  0  0  0  0  0  0  0
   23.1711  -18.6478  -16.7377 C   0  0  2  0  0  0  0  0  0  0  0  0
   22.4593  -19.5296  -17.6515 N   0  0  0  0  0  0  0  0  0  0  0  0
   24.1448  -19.4083  -15.9172 C   0  0  0  0  0  0  0  0  0  0  0  0
   23.8736  -20.6051  -15.6579 O   0  0  0  0  0  0  0  0  0  0  0  0
   25.3437  -18.8629  -15.4210 N   0  0  0  0  0  0  0  0  0  0  0  0
   25.9158  -17.5999  -15.8236 C   0  0  0  0  0  0  0  0  0  0  0  0
   27.4090  -17.9650  -15.7476 C   0  0  0  0  0  0  0  0  0  0  0  0
   27.4142  -18.5392  -14.3229 C   0  0  0  0  0  0  0  0  0  0  0  0
   26.2194  -19.4712  -14.4276 C   0  0  1  0  0  0  0  0  0  0  0  0
   25.5909  -19.5719  -13.1135 C   0  0  0  0  0  0  0  0  0  0  0  0
   24.6543  -18.8209  -12.7290 O   0  0  0  0  0  0  0  0  0  0  0  0
   26.0754  -20.5919  -12.2119 N   0  0  0  0  0  0  0  0  0  0  0  0
   27.0758  -21.5862  -12.5174 C   0  0  0  0  0  0  0  0  0  0  0  0
   26.7418  -22.7555  -11.5881 C   0  0  0  0  0  0  0  0  0  0  0  0
   26.2350  -22.0539  -10.3537 C   0  0  0  0  0  0  0  0  0  0  0  0
   25.6416  -20.7936  -10.8623 C   0  0  1  0  0  0  0  0  0  0  0  0
   25.9561  -19.6176   -9.9943 C   0  0  0  0  0  0  0  0  0  0  0  0
   25.2476  -19.3138   -8.8699 O   0  0  0  0  0  0  0  0  0  0  0  0
   26.9211  -18.8924  -10.3380 O   0  0  0  0  0  0  0  0  0  0  0  0
  2  3  2  0
  2  1  1  0
  4  2  1  0
  5  4  1  0
  6  5  1  0
  6  7  1  6
  8  6  1  0
  9  8  2  0
 10  8  1  0
 10 14  1  0
 11 10  1  0
 12 13  1  0
 12 11  1  0
 13 14  1  0
 14 15  1  1
 15 16  2  0
 15 17  1  0
 17 21  1  0
 18 17  1  0
 18 19  1  0
 19 20  1  0
 21 20  1  0
 22 23  1  0
 21 22  1  1
 24 22  2  0
M  END
$$$$
