QPP.pdb
     RDKit          3D

 24 25  0  0  1  0  0  0  0  0999 V2000
   22.4347  -24.1530  -14.2011 N   0  0  0  0  0  0  0  0  0  0  0  0
   21.5641  -23.5925  -15.1994 C   0  0  0  0  0  0  0  0  0  0  0  0
   20.6024  -24.2691  -15.5938 O   0  0  0  0  0  0  0  0  0  0  0  0
   21.8475  -22.2406  -15.7115 C   0  0  0  0  0  0  0  0  0  0  0  0
   21.0937  -21.1353  -15.0529 C   0  0  0  0  0  0  0  0  0  0  0  0
   21.6048  -20.7854  -13.6617 C   0  0  2  0  0  0  0  0  0  0  0  0
   20.6965  -19.8406  -13.0280 N   0  0  0  0  0  0  0  0  0  0  0  0
   22.9817  -20.2378  -13.7233 C   0  0  0  0  0  0  0  0  0  0  0  0
   23.1455  -19.1487  -14.3235 O   0  0  0  0  0  0  0  0  0  0  0  0
   24.1009  -20.8694  -13.1493 N   0  0  0  0  0  0  0  0  0  0  0  0
   24.0561  -22.0327  -12.2952 C   0  0  0  0  0  0  0  0  0  0  0  0
   25.2165  -21.6906  -11.3439 C   0  0  0  0  0  0  0  0  0  0  0  0
   26.2845  -21.3997  -12.4090 C   0  0  0  0  0  0  0  0  0  0  0  0
   25.4918  -20.4635  -13.3047 C   0  0  1  0  0  0  0  0  0  0  0  0
   25.9698  -20.6155  -14.6760 C   0  0  0  0  0  0  0  0  0  0  0  0
   25.4771  -21.4326  -15.4998 O   0  0  0  0  0  0  0  0  0  0  0  0
   27.0675  -19.7784  -15.1030 N   0  0  0  0  0  0  0  0  0  0  0  0
   27.7045  -18.7504  -14.3154 C   0  0  0  0  0  0  0  0  0  0  0  0
   28.2540  -17.7672  -15.3516 C   0  0  0  0  0  0  0  0  0  0  0  0
   28.6454  -18.6783  -16.4872 C   0  0  0  0  0  0  0  0  0  0  0  0
   27.7077  -19.8224  -16.3830 C   0  0  1  0  0  0  0  0  0  0  0  0
   28.3748  -21.1379  -16.6274 C   0  0  0  0  0  0  0  0  0  0  0  0
   28.7209  -21.5754  -17.8713 O   0  0  0  0  0  0  0  0  0  0  0  0
   28.6165  -21.8537  -15.6251 O   0  0  0  0  0  0  0  0  0  0  0  0
  2  3  2  0
  2  1  1  0
  4  2  1  0
  5  4  1  0
  6  5  1  0
  6  7  1  6
  8  6  1  0
  9  8  2  0
 10  8  1  0
 10 14  1  0
 11 10  1  0
 12 13  1  0
 12 11  1  0
 13 14  1  0
 14 15  1  6
 15 16  2  0
 15 17  1  0
 17 21  1  0
 18 17  1  0
 18 19  1  0
 19 20  1  0
 21 20  1  0
 22 23  1  0
 21 22  1  1
 24 22  2  0
M  END
$$$$
