QPP.pdb
     RDKit          3D

 24 25  0  0  1  0  0  0  0  0999 V2000
   20.1286  -19.5343  -15.8483 N   0  0  0  0  0  0  0  0  0  0  0  0
   21.2180  -18.8382  -15.2182 C   0  0  0  0  0  0  0  0  0  0  0  0
   20.9632  -18.0563  -14.2899 O   0  0  0  0  0  0  0  0  0  0  0  0
   22.5894  -19.0818  -15.6980 C   0  0  0  0  0  0  0  0  0  0  0  0
   22.7396  -20.2086  -16.6631 C   0  0  0  0  0  0  0  0  0  0  0  0
   24.1871  -20.5488  -16.9914 C   0  0  2  0  0  0  0  0  0  0  0  0
   24.2288  -21.6372  -17.9574 N   0  0  0  0  0  0  0  0  0  0  0  0
   24.9424  -20.8996  -15.7642 C   0  0  0  0  0  0  0  0  0  0  0  0
   24.6586  -21.9828  -15.1992 O   0  0  0  0  0  0  0  0  0  0  0  0
   25.9498  -20.0893  -15.2076 N   0  0  0  0  0  0  0  0  0  0  0  0
   26.5155  -18.9155  -15.8295 C   0  0  0  0  0  0  0  0  0  0  0  0
   27.9688  -19.0481  -15.3406 C   0  0  0  0  0  0  0  0  0  0  0  0
   27.6736  -19.2161  -13.8425 C   0  0  0  0  0  0  0  0  0  0  0  0
   26.6029  -20.2907  -13.9206 C   0  0  1  0  0  0  0  0  0  0  0  0
   25.6883  -20.1192  -12.7955 C   0  0  0  0  0  0  0  0  0  0  0  0
   24.6760  -19.3687  -12.8277 O   0  0  0  0  0  0  0  0  0  0  0  0
   25.9667  -20.8549  -11.5833 N   0  0  0  0  0  0  0  0  0  0  0  0
   27.0141  -21.8321  -11.4077 C   0  0  0  0  0  0  0  0  0  0  0  0
   26.4887  -22.7544  -10.3051 C   0  0  0  0  0  0  0  0  0  0  0  0
   25.7194  -21.8021   -9.4252 C   0  0  0  0  0  0  0  0  0  0  0  0
   25.2472  -20.7437  -10.3503 C   0  0  1  0  0  0  0  0  0  0  0  0
   25.3577  -19.3736   -9.7623 C   0  0  0  0  0  0  0  0  0  0  0  0
   24.4597  -18.8755   -8.8657 O   0  0  0  0  0  0  0  0  0  0  0  0
   26.3306  -18.6694  -10.1269 O   0  0  0  0  0  0  0  0  0  0  0  0
  2  3  2  0
  2  1  1  0
  4  2  1  0
  5  4  1  0
  6  5  1  0
  6  7  1  6
  8  6  1  0
  9  8  2  0
 10  8  1  0
 10 14  1  0
 11 10  1  0
 12 13  1  0
 12 11  1  0
 13 14  1  0
 14 15  1  1
 15 16  2  0
 15 17  1  0
 17 21  1  0
 18 17  1  0
 18 19  1  0
 19 20  1  0
 21 20  1  0
 22 23  1  0
 21 22  1  1
 24 22  2  0
M  END
$$$$
