QPP.pdb
     RDKit          3D

 24 25  0  0  1  0  0  0  0  0999 V2000
   22.8282  -19.3632  -10.2124 N   0  0  0  0  0  0  0  0  0  0  0  0
   22.6160  -19.8311  -11.5558 C   0  0  0  0  0  0  0  0  0  0  0  0
   21.4535  -19.8981  -11.9828 O   0  0  0  0  0  0  0  0  0  0  0  0
   23.7842  -20.2097  -12.3694 C   0  0  0  0  0  0  0  0  0  0  0  0
   25.1110  -19.9972  -11.7227 C   0  0  0  0  0  0  0  0  0  0  0  0
   26.0297  -21.2097  -11.7901 C   0  0  2  0  0  0  0  0  0  0  0  0
   25.2925  -22.3565  -12.3010 N   0  0  0  0  0  0  0  0  0  0  0  0
   26.6175  -21.5061  -10.4612 C   0  0  0  0  0  0  0  0  0  0  0  0
   25.8535  -21.9668   -9.5796 O   0  0  0  0  0  0  0  0  0  0  0  0
   27.9729  -21.3002  -10.1420 N   0  0  0  0  0  0  0  0  0  0  0  0
   29.0075  -20.9445  -11.0842 C   0  0  0  0  0  0  0  0  0  0  0  0
   30.1838  -21.7256  -10.4719 C   0  0  0  0  0  0  0  0  0  0  0  0
   30.0606  -21.2007   -9.0336 C   0  0  0  0  0  0  0  0  0  0  0  0
   28.5724  -21.4151   -8.8188 C   0  0  1  0  0  0  0  0  0  0  0  0
   28.0842  -20.3975   -7.8925 C   0  0  0  0  0  0  0  0  0  0  0  0
   27.4777  -19.3548   -8.2582 O   0  0  0  0  0  0  0  0  0  0  0  0
   28.3131  -20.6066   -6.4811 N   0  0  0  0  0  0  0  0  0  0  0  0
   28.8568  -21.8004   -5.8792 C   0  0  0  0  0  0  0  0  0  0  0  0
   28.2786  -21.8054   -4.4621 C   0  0  0  0  0  0  0  0  0  0  0  0
   28.2259  -20.3362   -4.1283 C   0  0  0  0  0  0  0  0  0  0  0  0
   28.0347  -19.6665   -5.4376 C   0  0  1  0  0  0  0  0  0  0  0  0
   28.8546  -18.4237   -5.5739 C   0  0  0  0  0  0  0  0  0  0  0  0
   28.5614  -17.2648   -4.9186 O   0  0  0  0  0  0  0  0  0  0  0  0
   29.8535  -18.4755   -6.3321 O   0  0  0  0  0  0  0  0  0  0  0  0
  2  3  2  0
  2  1  1  0
  4  2  1  0
  5  4  1  0
  6  5  1  0
  6  7  1  1
  8  6  1  0
  9  8  2  0
 10  8  1  0
 10 14  1  0
 11 10  1  0
 12 13  1  0
 12 11  1  0
 13 14  1  0
 14 15  1  1
 15 16  2  0
 15 17  1  0
 17 21  1  0
 18 17  1  0
 18 19  1  0
 19 20  1  0
 21 20  1  0
 22 23  1  0
 21 22  1  1
 24 22  2  0
M  END
$$$$
