QPP.pdb
     RDKit          3D

 24 25  0  0  1  0  0  0  0  0999 V2000
   23.6015  -19.5494  -14.0763 N   0  0  0  0  0  0  0  0  0  0  0  0
   23.0058  -19.6022  -12.7683 C   0  0  0  0  0  0  0  0  0  0  0  0
   21.7846  -19.4118  -12.6656 O   0  0  0  0  0  0  0  0  0  0  0  0
   23.8669  -19.8809  -11.6060 C   0  0  0  0  0  0  0  0  0  0  0  0
   25.3296  -19.9363  -11.8911 C   0  0  0  0  0  0  0  0  0  0  0  0
   25.9271  -21.3319  -11.7732 C   0  0  2  0  0  0  0  0  0  0  0  0
   24.8901  -22.3302  -11.9917 N   0  0  0  0  0  0  0  0  0  0  0  0
   26.5771  -21.5223  -10.4537 C   0  0  0  0  0  0  0  0  0  0  0  0
   25.8661  -21.9536   -9.5148 O   0  0  0  0  0  0  0  0  0  0  0  0
   27.9348  -21.2478  -10.2040 N   0  0  0  0  0  0  0  0  0  0  0  0
   28.9031  -20.8517  -11.1990 C   0  0  0  0  0  0  0  0  0  0  0  0
   30.1449  -21.5688  -10.6403 C   0  0  0  0  0  0  0  0  0  0  0  0
   30.0673  -21.0363   -9.2015 C   0  0  0  0  0  0  0  0  0  0  0  0
   28.6037  -21.3205   -8.9114 C   0  0  1  0  0  0  0  0  0  0  0  0
   28.1128  -20.3186   -7.9695 C   0  0  0  0  0  0  0  0  0  0  0  0
   27.4613  -19.2963   -8.3153 O   0  0  0  0  0  0  0  0  0  0  0  0
   28.3933  -20.5192   -6.5662 N   0  0  0  0  0  0  0  0  0  0  0  0
   28.9832  -21.6992   -5.9810 C   0  0  0  0  0  0  0  0  0  0  0  0
   28.4530  -21.7137   -4.5453 C   0  0  0  0  0  0  0  0  0  0  0  0
   28.3787  -20.2452   -4.2123 C   0  0  0  0  0  0  0  0  0  0  0  0
   28.1290  -19.5830   -5.5155 C   0  0  1  0  0  0  0  0  0  0  0  0
   28.9161  -18.3227   -5.6812 C   0  0  0  0  0  0  0  0  0  0  0  0
   28.5673  -17.1458   -5.0881 O   0  0  0  0  0  0  0  0  0  0  0  0
   29.9405  -18.3767   -6.4044 O   0  0  0  0  0  0  0  0  0  0  0  0
  2  3  2  0
  2  1  1  0
  4  2  1  0
  5  4  1  0
  6  5  1  0
  6  7  1  1
  8  6  1  0
  9  8  2  0
 10  8  1  0
 10 14  1  0
 11 10  1  0
 12 13  1  0
 12 11  1  0
 13 14  1  0
 14 15  1  1
 15 16  2  0
 15 17  1  0
 17 21  1  0
 18 17  1  0
 18 19  1  0
 19 20  1  0
 21 20  1  0
 22 23  1  0
 21 22  1  6
 24 22  2  0
M  END
$$$$
