QPP.pdb
     RDKit          3D

 24 25  0  0  1  0  0  0  0  0999 V2000
   20.3776  -10.9738  -22.3979 N   0  0  0  0  0  0  0  0  0  0  0  0
   20.6482  -11.1299  -20.9940 C   0  0  0  0  0  0  0  0  0  0  0  0
   20.5610  -10.1341  -20.2598 O   0  0  0  0  0  0  0  0  0  0  0  0
   21.0158  -12.4625  -20.4849 C   0  0  0  0  0  0  0  0  0  0  0  0
   22.4480  -12.6302  -20.1048 C   0  0  0  0  0  0  0  0  0  0  0  0
   22.6591  -13.4885  -18.8648 C   0  0  2  0  0  0  0  0  0  0  0  0
   21.7907  -14.6556  -18.9217 N   0  0  0  0  0  0  0  0  0  0  0  0
   22.4156  -12.7059  -17.6287 C   0  0  0  0  0  0  0  0  0  0  0  0
   21.2633  -12.7465  -17.1351 O   0  0  0  0  0  0  0  0  0  0  0  0
   23.3996  -11.9297  -16.9880 N   0  0  0  0  0  0  0  0  0  0  0  0
   24.7746  -11.8094  -17.4118 C   0  0  0  0  0  0  0  0  0  0  0  0
   25.4539  -11.7089  -16.0344 C   0  0  0  0  0  0  0  0  0  0  0  0
   24.5910  -10.5779  -15.4549 C   0  0  0  0  0  0  0  0  0  0  0  0
   23.2130  -11.1220  -15.7895 C   0  0  1  0  0  0  0  0  0  0  0  0
   22.3085   -9.9968  -16.0077 C   0  0  0  0  0  0  0  0  0  0  0  0
   22.0832   -9.4926  -17.1409 O   0  0  0  0  0  0  0  0  0  0  0  0
   21.6390   -9.4378  -14.8555 N   0  0  0  0  0  0  0  0  0  0  0  0
   21.7242   -9.9347  -13.5032 C   0  0  0  0  0  0  0  0  0  0  0  0
   20.4062   -9.5002  -12.8579 C   0  0  0  0  0  0  0  0  0  0  0  0
   20.1413   -8.1737  -13.5234 C   0  0  0  0  0  0  0  0  0  0  0  0
   20.7723   -8.2981  -14.8596 C   0  0  1  0  0  0  0  0  0  0  0  0
   21.4897   -7.0541  -15.2758 C   0  0  0  0  0  0  0  0  0  0  0  0
   20.8464   -5.9471  -15.7439 O   0  0  0  0  0  0  0  0  0  0  0  0
   22.7412   -7.0542  -15.1804 O   0  0  0  0  0  0  0  0  0  0  0  0
  2  3  2  0
  2  1  1  0
  4  2  1  0
  5  4  1  0
  6  5  1  0
  6  7  1  6
  8  6  1  0
  9  8  2  0
 10  8  1  0
 10 14  1  0
 11 10  1  0
 12 13  1  0
 12 11  1  0
 13 14  1  0
 14 15  1  6
 15 16  2  0
 15 17  1  0
 17 21  1  0
 18 17  1  0
 18 19  1  0
 19 20  1  0
 21 20  1  0
 22 23  1  0
 21 22  1  1
 24 22  2  0
M  END
$$$$
