QPP.pdb
     RDKit          3D

 24 25  0  0  1  0  0  0  0  0999 V2000
   24.1317  -18.9126  -10.0048 N   0  0  0  0  0  0  0  0  0  0  0  0
   23.3315  -19.7700  -10.8374 C   0  0  0  0  0  0  0  0  0  0  0  0
   22.1240  -19.8869  -10.5794 O   0  0  0  0  0  0  0  0  0  0  0  0
   23.9755  -20.4723  -11.9609 C   0  0  0  0  0  0  0  0  0  0  0  0
   25.4268  -20.1853  -12.1481 C   0  0  0  0  0  0  0  0  0  0  0  0
   26.3177  -21.4144  -12.0275 C   0  0  2  0  0  0  0  0  0  0  0  0
   25.5587  -22.6071  -12.3752 N   0  0  0  0  0  0  0  0  0  0  0  0
   26.8866  -21.5269  -10.6625 C   0  0  0  0  0  0  0  0  0  0  0  0
   26.1302  -21.9421   -9.7522 O   0  0  0  0  0  0  0  0  0  0  0  0
   28.2161  -21.1962  -10.3397 N   0  0  0  0  0  0  0  0  0  0  0  0
   29.2088  -20.7218  -11.2747 C   0  0  0  0  0  0  0  0  0  0  0  0
   30.4572  -21.3967  -10.6793 C   0  0  0  0  0  0  0  0  0  0  0  0
   30.2869  -20.9162   -9.2303 C   0  0  0  0  0  0  0  0  0  0  0  0
   28.8272  -21.2793   -9.0194 C   0  0  1  0  0  0  0  0  0  0  0  0
   28.2444  -20.3336   -8.0719 C   0  0  0  0  0  0  0  0  0  0  0  0
   27.5160  -19.3632   -8.4138 O   0  0  0  0  0  0  0  0  0  0  0  0
   28.5228  -20.5295   -6.6676 N   0  0  0  0  0  0  0  0  0  0  0  0
   29.2203  -21.6541   -6.0916 C   0  0  0  0  0  0  0  0  0  0  0  0
   28.6729  -21.7474   -4.6654 C   0  0  0  0  0  0  0  0  0  0  0  0
   28.4454  -20.3001   -4.3102 C   0  0  0  0  0  0  0  0  0  0  0  0
   28.1494  -19.6435   -5.6065 C   0  0  1  0  0  0  0  0  0  0  0  0
   28.8073  -18.3075   -5.7388 C   0  0  0  0  0  0  0  0  0  0  0  0
   28.3057  -17.1733   -5.1726 O   0  0  0  0  0  0  0  0  0  0  0  0
   29.8686  -18.2540   -6.4067 O   0  0  0  0  0  0  0  0  0  0  0  0
  2  3  2  0
  2  1  1  0
  4  2  1  0
  5  4  1  0
  6  5  1  0
  6  7  1  1
  8  6  1  0
  9  8  2  0
 10  8  1  0
 10 14  1  0
 11 10  1  0
 12 13  1  0
 12 11  1  0
 13 14  1  0
 14 15  1  1
 15 16  2  0
 15 17  1  0
 17 21  1  0
 18 17  1  0
 18 19  1  0
 19 20  1  0
 21 20  1  0
 22 23  1  0
 21 22  1  6
 24 22  2  0
M  END
$$$$
