FRI.pdb
     RDKit          3D

 31 31  0  0  1  0  0  0  0  0999 V2000
   27.3912  -20.6778  -15.5927 N   0  0  0  0  0  0  0  0  0  0  0  0
   28.0529  -20.9640  -14.3623 C   0  0  1  0  0  0  0  0  0  0  0  0
   29.4534  -20.4344  -14.2550 C   0  0  0  0  0  0  0  0  0  0  0  0
   30.0699  -20.8336  -12.9518 C   0  0  0  0  0  0  0  0  0  0  0  0
   29.9957  -19.9187  -11.9234 C   0  0  0  0  0  0  0  0  0  0  0  0
   30.5444  -20.2172  -10.6896 C   0  0  0  0  0  0  0  0  0  0  0  0
   31.1614  -21.4379  -10.5116 C   0  0  0  0  0  0  0  0  0  0  0  0
   31.2323  -22.3476  -11.5428 C   0  0  0  0  0  0  0  0  0  0  0  0
   30.6906  -22.0637  -12.7758 C   0  0  0  0  0  0  0  0  0  0  0  0
   27.2586  -20.3468  -13.2477 C   0  0  0  0  0  0  0  0  0  0  0  0
   27.0152  -19.1330  -13.2545 O   0  0  0  0  0  0  0  0  0  0  0  0
   22.3304  -20.3007  -15.7868 N   0  0  0  0  0  0  0  0  0  0  0  0
   21.9791  -21.4204  -14.9875 C   0  0  0  0  0  0  0  0  0  0  0  0
   21.5465  -22.5063  -15.5257 N   0  0  0  0  0  0  0  0  0  0  0  0
   22.0946  -21.3872  -13.5713 N   0  0  0  0  0  0  0  0  0  0  0  0
   22.5016  -20.1946  -12.9192 C   0  0  0  0  0  0  0  0  0  0  0  0
   23.9969  -20.0179  -12.7737 C   0  0  0  0  0  0  0  0  0  0  0  0
   24.4320  -20.6744  -11.4865 C   0  0  0  0  0  0  0  0  0  0  0  0
   25.8931  -20.5377  -11.2032 C   0  0  2  0  0  0  0  0  0  0  0  0
   26.7636  -21.0935  -12.1693 N   0  0  0  0  0  0  0  0  0  0  0  0
   26.3044  -20.9938   -9.8544 C   0  0  0  0  0  0  0  0  0  0  0  0
   26.5215  -22.2182   -9.6267 O   0  0  0  0  0  0  0  0  0  0  0  0
   21.2955  -23.3082  -14.9404 C   0  0  0  0  0  0  0  0  0  0  0  0
   29.1950  -19.8376   -4.8072 C   0  0  0  0  0  0  0  0  0  0  0  0
   27.7576  -20.1821   -5.2253 C   0  0  2  0  0  0  0  0  0  0  0  0
   27.4757  -19.6234   -6.5930 C   0  0  0  0  0  0  0  0  0  0  0  0
   26.7866  -18.3046   -6.4639 C   0  0  2  0  0  0  0  0  0  0  0  0
   26.7544  -20.6444   -7.4193 N   0  0  0  0  0  0  0  0  0  0  0  0
   26.4780  -20.1149   -8.7606 C   0  0  0  0  0  0  0  0  0  0  0  0
   25.4563  -20.9731   -6.8035 O   0  0  0  0  0  0  0  0  0  0  0  0
   24.4092  -20.4773   -7.2928 O   0  0  0  0  0  0  0  0  0  0  0  0
  2  1  1  6
  2 10  1  0
  3  2  1  0
  3  4  1  0
  4  9  2  0
  4  5  1  0
  5  6  2  0
  6  7  1  0
  8  7  2  0
  9  8  1  0
 10 11  2  0
 13 15  1  0
 13 12  1  0
 14 13  2  0
 16 15  1  0
 16 17  1  0
 19 18  1  6
 18 17  1  0
 20 19  1  0
 20 10  1  0
 21 19  1  0
 21 22  2  0
 23 24  1  0
 24 25  1  0
 25 26  1  6
 27 28  1  1
 27 25  1  0
 28 21  1  0
 29 31  1  0
 29 27  1  0
 30 29  2  0
M  END
$$$$
