FRI.pdb
     RDKit          3D

 31 31  0  0  1  0  0  0  0  0999 V2000
   26.3730  -22.2015  -11.9007 N   0  0  0  0  0  0  0  0  0  0  0  0
   25.6140  -21.4443  -10.9602 C   0  0  1  0  0  0  0  0  0  0  0  0
   26.1808  -20.0957  -10.6239 C   0  0  0  0  0  0  0  0  0  0  0  0
   27.3919  -20.2338   -9.7568 C   0  0  0  0  0  0  0  0  0  0  0  0
   27.1902  -20.1772   -8.3943 C   0  0  0  0  0  0  0  0  0  0  0  0
   28.2628  -20.2963   -7.5296 C   0  0  0  0  0  0  0  0  0  0  0  0
   29.5264  -20.4712   -8.0542 C   0  0  0  0  0  0  0  0  0  0  0  0
   29.7214  -20.5269   -9.4161 C   0  0  0  0  0  0  0  0  0  0  0  0
   28.6631  -20.4098  -10.2883 C   0  0  0  0  0  0  0  0  0  0  0  0
   24.2451  -21.2197  -11.5343 C   0  0  0  0  0  0  0  0  0  0  0  0
   24.0796  -21.2015  -12.7611 O   0  0  0  0  0  0  0  0  0  0  0  0
   17.8780  -24.2929   -6.8224 N   0  0  0  0  0  0  0  0  0  0  0  0
   18.3184  -25.1609   -7.8560 C   0  0  0  0  0  0  0  0  0  0  0  0
   17.7985  -26.3288   -8.0041 N   0  0  0  0  0  0  0  0  0  0  0  0
   19.3413  -24.7750   -8.7641 N   0  0  0  0  0  0  0  0  0  0  0  0
   19.5480  -23.4028   -9.0605 C   0  0  0  0  0  0  0  0  0  0  0  0
   20.6324  -23.1194  -10.0764 C   0  0  0  0  0  0  0  0  0  0  0  0
   20.7772  -21.6238  -10.2152 C   0  0  0  0  0  0  0  0  0  0  0  0
   21.7988  -21.2074  -11.2235 C   0  0  2  0  0  0  0  0  0  0  0  0
   23.1121  -21.0240  -10.7320 N   0  0  0  0  0  0  0  0  0  0  0  0
   21.4142  -20.0326  -12.0412 C   0  0  0  0  0  0  0  0  0  0  0  0
   21.3747  -18.8771  -11.5301 O   0  0  0  0  0  0  0  0  0  0  0  0
   18.1468  -26.9606   -8.7306 C   0  0  0  0  0  0  0  0  0  0  0  0
   21.9575  -17.4091  -17.4244 C   0  0  0  0  0  0  0  0  0  0  0  0
   21.0712  -17.5789  -16.1813 C   0  0  2  0  0  0  0  0  0  0  0  0
   21.4889  -18.8068  -15.4200 C   0  0  0  0  0  0  0  0  0  0  0  0
   21.4340  -19.9978  -16.3196 C   0  0  2  0  0  0  0  0  0  0  0  0
   20.6869  -18.9194  -14.1592 N   0  0  0  0  0  0  0  0  0  0  0  0
   21.0755  -20.1216  -13.4110 C   0  0  0  0  0  0  0  0  0  0  0  0
   19.2534  -19.0473  -14.4773 O   0  0  0  0  0  0  0  0  0  0  0  0
   18.6110  -18.0183  -14.8093 O   0  0  0  0  0  0  0  0  0  0  0  0
  2  1  1  6
  2 10  1  0
  3  2  1  0
  3  4  1  0
  4  9  2  0
  4  5  1  0
  5  6  2  0
  6  7  1  0
  8  7  2  0
  9  8  1  0
 10 11  2  0
 13 15  1  0
 13 12  1  0
 14 13  2  0
 16 15  1  0
 16 17  1  0
 19 18  1  1
 18 17  1  0
 20 19  1  0
 20 10  1  0
 21 19  1  0
 21 22  2  0
 23 24  1  0
 24 25  1  0
 25 26  1  1
 27 28  1  6
 27 25  1  0
 28 21  1  0
 29 31  1  0
 29 27  1  0
 30 29  2  0
M  END
$$$$
