FRI.pdb
     RDKit          3D

 31 31  0  0  1  0  0  0  0  0999 V2000
   27.3436  -18.3668   -8.5573 N   0  0  0  0  0  0  0  0  0  0  0  0
   27.2008  -19.7817   -8.6647 C   0  0  1  0  0  0  0  0  0  0  0  0
   26.7501  -20.4726   -7.4106 C   0  0  0  0  0  0  0  0  0  0  0  0
   27.7553  -20.2910   -6.3178 C   0  0  0  0  0  0  0  0  0  0  0  0
   27.2632  -20.0049   -5.0624 C   0  0  0  0  0  0  0  0  0  0  0  0
   28.1325  -19.8227   -4.0025 C   0  0  0  0  0  0  0  0  0  0  0  0
   29.4892  -19.9323   -4.2259 C   0  0  0  0  0  0  0  0  0  0  0  0
   29.9746  -20.2182   -5.4823 C   0  0  0  0  0  0  0  0  0  0  0  0
   29.1209  -20.4020   -6.5462 C   0  0  0  0  0  0  0  0  0  0  0  0
   26.1762  -20.0708   -9.7234 C   0  0  0  0  0  0  0  0  0  0  0  0
   25.1627  -19.3662   -9.8180 O   0  0  0  0  0  0  0  0  0  0  0  0
   25.1295  -25.4964  -14.8498 N   0  0  0  0  0  0  0  0  0  0  0  0
   24.6425  -24.6030  -15.8399 C   0  0  0  0  0  0  0  0  0  0  0  0
   23.5660  -24.8655  -16.4944 N   0  0  0  0  0  0  0  0  0  0  0  0
   25.3182  -23.3897  -16.1422 N   0  0  0  0  0  0  0  0  0  0  0  0
   26.2260  -22.8295  -15.2065 C   0  0  0  0  0  0  0  0  0  0  0  0
   25.6307  -21.8064  -14.2645 C   0  0  0  0  0  0  0  0  0  0  0  0
   26.0318  -22.1654  -12.8548 C   0  0  0  0  0  0  0  0  0  0  0  0
   25.5464  -21.1977  -11.8244 C   0  0  2  0  0  0  0  0  0  0  0  0
   26.3103  -21.1263  -10.6364 N   0  0  0  0  0  0  0  0  0  0  0  0
   24.1125  -21.3365  -11.4760 C   0  0  0  0  0  0  0  0  0  0  0  0
   23.7593  -21.9736  -10.4429 O   0  0  0  0  0  0  0  0  0  0  0  0
   23.2587  -24.2485  -17.2516 C   0  0  0  0  0  0  0  0  0  0  0  0
   18.8111  -18.3790  -11.6783 C   0  0  0  0  0  0  0  0  0  0  0  0
   19.5301  -19.7299  -11.5461 C   0  0  2  0  0  0  0  0  0  0  0  0
   20.9545  -19.5980  -12.0105 C   0  0  0  0  0  0  0  0  0  0  0  0
   20.9804  -19.0563  -13.4022 C   0  0  2  0  0  0  0  0  0  0  0  0
   21.6740  -20.8979  -11.8161 N   0  0  0  0  0  0  0  0  0  0  0  0
   23.0707  -20.7804  -12.2535 C   0  0  0  0  0  0  0  0  0  0  0  0
   21.0480  -21.9535  -12.6324 O   0  0  0  0  0  0  0  0  0  0  0  0
   20.0172  -22.5271  -12.1965 O   0  0  0  0  0  0  0  0  0  0  0  0
  2  1  1  1
  2 10  1  0
  3  2  1  0
  3  4  1  0
  4  9  2  0
  4  5  1  0
  5  6  2  0
  6  7  1  0
  8  7  2  0
  9  8  1  0
 10 11  2  0
 13 15  1  0
 13 12  1  0
 14 13  2  0
 16 15  1  0
 16 17  1  0
 19 18  1  6
 18 17  1  0
 20 19  1  0
 20 10  1  0
 21 19  1  0
 21 22  2  0
 23 24  1  0
 24 25  1  0
 25 26  1  1
 27 28  1  6
 27 25  1  0
 28 21  1  0
 29 31  1  0
 29 27  1  0
 30 29  2  0
M  END
$$$$
