FRI.pdb
     RDKit          3D

 31 31  0  0  1  0  0  0  0  0999 V2000
   28.6387  -20.5666   -8.7921 N   0  0  0  0  0  0  0  0  0  0  0  0
   27.2821  -20.6026   -8.3534 C   0  0  1  0  0  0  0  0  0  0  0  0
   26.9050  -19.5386   -7.3640 C   0  0  0  0  0  0  0  0  0  0  0  0
   27.6860  -19.6950   -6.0978 C   0  0  0  0  0  0  0  0  0  0  0  0
   27.3131  -20.7252   -5.2612 C   0  0  0  0  0  0  0  0  0  0  0  0
   27.9885  -20.9311   -4.0721 C   0  0  0  0  0  0  0  0  0  0  0  0
   29.0328  -20.0919   -3.7441 C   0  0  0  0  0  0  0  0  0  0  0  0
   29.4005  -19.0645   -4.5840 C   0  0  0  0  0  0  0  0  0  0  0  0
   28.7372  -18.8481   -5.7704 C   0  0  0  0  0  0  0  0  0  0  0  0
   26.3964  -20.4271   -9.5529 C   0  0  0  0  0  0  0  0  0  0  0  0
   26.5815  -19.4819  -10.3308 O   0  0  0  0  0  0  0  0  0  0  0  0
   23.6677  -20.3417  -15.2269 N   0  0  0  0  0  0  0  0  0  0  0  0
   24.0539  -21.4426  -16.0360 C   0  0  0  0  0  0  0  0  0  0  0  0
   23.4254  -21.7141  -17.1257 N   0  0  0  0  0  0  0  0  0  0  0  0
   25.1452  -22.2801  -15.6785 N   0  0  0  0  0  0  0  0  0  0  0  0
   25.5878  -22.3345  -14.3314 C   0  0  0  0  0  0  0  0  0  0  0  0
   24.5104  -22.6272  -13.3106 C   0  0  0  0  0  0  0  0  0  0  0  0
   25.1334  -22.5940  -11.9366 C   0  0  0  0  0  0  0  0  0  0  0  0
   24.7677  -21.3852  -11.1373 C   0  0  2  0  0  0  0  0  0  0  0  0
   25.3409  -21.3017   -9.8472 N   0  0  0  0  0  0  0  0  0  0  0  0
   23.3114  -21.1266  -11.0429 C   0  0  0  0  0  0  0  0  0  0  0  0
   22.6301  -21.6160  -10.0973 O   0  0  0  0  0  0  0  0  0  0  0  0
   23.7011  -22.5203  -17.6935 C   0  0  0  0  0  0  0  0  0  0  0  0
   20.5049  -17.6419  -14.6503 C   0  0  0  0  0  0  0  0  0  0  0  0
   20.9677  -18.9420  -13.9757 C   0  0  2  0  0  0  0  0  0  0  0  0
   20.7372  -18.8578  -12.4919 C   0  0  0  0  0  0  0  0  0  0  0  0
   21.3869  -17.6259  -11.9524 C   0  0  1  0  0  0  0  0  0  0  0  0
   21.1558  -20.1403  -11.8398 N   0  0  0  0  0  0  0  0  0  0  0  0
   22.6044  -20.3358  -11.9778 C   0  0  0  0  0  0  0  0  0  0  0  0
   20.4962  -21.2839  -12.4954 O   0  0  0  0  0  0  0  0  0  0  0  0
   21.1498  -21.9687  -13.3234 O   0  0  0  0  0  0  0  0  0  0  0  0
  2  1  1  6
  2 10  1  0
  3  2  1  0
  3  4  1  0
  4  9  2  0
  4  5  1  0
  5  6  2  0
  6  7  1  0
  8  7  2  0
  9  8  1  0
 10 11  2  0
 13 15  1  0
 13 12  1  0
 14 13  2  0
 16 15  1  0
 16 17  1  0
 19 18  1  1
 18 17  1  0
 20 19  1  0
 20 10  1  0
 21 19  1  0
 21 22  2  0
 23 24  1  0
 24 25  1  0
 25 26  1  1
 27 28  1  6
 27 25  1  0
 28 21  1  0
 29 31  1  0
 29 27  1  0
 30 29  2  0
M  END
$$$$
