FRI.pdb
     RDKit          3D

 31 31  0  0  1  0  0  0  0  0999 V2000
   28.4134  -21.6826  -12.6633 N   0  0  0  0  0  0  0  0  0  0  0  0
   27.1922  -21.5760  -11.9346 C   0  0  1  0  0  0  0  0  0  0  0  0
   27.0273  -20.3060  -11.1515 C   0  0  0  0  0  0  0  0  0  0  0  0
   27.8492  -20.3462   -9.9022 C   0  0  0  0  0  0  0  0  0  0  0  0
   27.1770  -20.1759   -8.7108 C   0  0  0  0  0  0  0  0  0  0  0  0
   27.8705  -20.1999   -7.5146 C   0  0  0  0  0  0  0  0  0  0  0  0
   29.2356  -20.3959   -7.5386 C   0  0  0  0  0  0  0  0  0  0  0  0
   29.9013  -20.5653   -8.7320 C   0  0  0  0  0  0  0  0  0  0  0  0
   29.2238  -20.5437   -9.9299 C   0  0  0  0  0  0  0  0  0  0  0  0
   26.0549  -21.6452  -12.9123 C   0  0  0  0  0  0  0  0  0  0  0  0
   26.1542  -21.1059  -14.0223 O   0  0  0  0  0  0  0  0  0  0  0  0
   20.5236  -26.8384  -16.6033 N   0  0  0  0  0  0  0  0  0  0  0  0
   21.4721  -27.4428  -15.7369 C   0  0  0  0  0  0  0  0  0  0  0  0
   21.8851  -28.6439  -15.9445 N   0  0  0  0  0  0  0  0  0  0  0  0
   22.0024  -26.7481  -14.6161 N   0  0  0  0  0  0  0  0  0  0  0  0
   21.6363  -25.3980  -14.3785 C   0  0  0  0  0  0  0  0  0  0  0  0
   22.6094  -24.3649  -14.9021 C   0  0  0  0  0  0  0  0  0  0  0  0
   23.6275  -24.0796  -13.8255 C   0  0  0  0  0  0  0  0  0  0  0  0
   23.9092  -22.6246  -13.6316 C   0  0  2  0  0  0  0  0  0  0  0  0
   24.8523  -22.3070  -12.6269 N   0  0  0  0  0  0  0  0  0  0  0  0
   22.7029  -21.7820  -13.4538 C   0  0  0  0  0  0  0  0  0  0  0  0
   22.2162  -21.5885  -12.3034 O   0  0  0  0  0  0  0  0  0  0  0  0
   22.4948  -29.1052  -15.2633 C   0  0  0  0  0  0  0  0  0  0  0  0
   22.0339  -17.5502  -14.6471 C   0  0  0  0  0  0  0  0  0  0  0  0
   20.6041  -17.9786  -15.0103 C   0  0  2  0  0  0  0  0  0  0  0  0
   20.5986  -19.4156  -15.4540 C   0  0  0  0  0  0  0  0  0  0  0  0
   19.3428  -19.7025  -16.2100 C   0  0  2  0  0  0  0  0  0  0  0  0
   20.8576  -20.3101  -14.2801 N   0  0  0  0  0  0  0  0  0  0  0  0
   22.0333  -21.1539  -14.5290 C   0  0  0  0  0  0  0  0  0  0  0  0
   19.7113  -21.2111  -14.0637 O   0  0  0  0  0  0  0  0  0  0  0  0
   19.6956  -22.3247  -14.6478 O   0  0  0  0  0  0  0  0  0  0  0  0
  2  1  1  6
  2 10  1  0
  3  2  1  0
  3  4  1  0
  4  9  2  0
  4  5  1  0
  5  6  2  0
  6  7  1  0
  8  7  2  0
  9  8  1  0
 10 11  2  0
 13 15  1  0
 13 12  1  0
 14 13  2  0
 16 15  1  0
 16 17  1  0
 19 18  1  1
 18 17  1  0
 20 19  1  0
 20 10  1  0
 21 19  1  0
 21 22  2  0
 23 24  1  0
 24 25  1  0
 25 26  1  1
 27 28  1  1
 27 25  1  0
 28 21  1  0
 29 31  1  0
 29 27  1  0
 30 29  2  0
M  END
$$$$
