FRI.pdb
     RDKit          3D

 31 31  0  0  1  0  0  0  0  0999 V2000
   22.5594  -21.4406  -14.9274 N   0  0  0  0  0  0  0  0  0  0  0  0
   23.4338  -20.3555  -14.6244 C   0  0  1  0  0  0  0  0  0  0  0  0
   22.7890  -19.1957  -13.9228 C   0  0  0  0  0  0  0  0  0  0  0  0
   21.8901  -18.4481  -14.8560 C   0  0  0  0  0  0  0  0  0  0  0  0
   22.4998  -17.6391  -15.7909 C   0  0  0  0  0  0  0  0  0  0  0  0
   21.7333  -16.9164  -16.6868 C   0  0  0  0  0  0  0  0  0  0  0  0
   20.3594  -17.0210  -16.6256 C   0  0  0  0  0  0  0  0  0  0  0  0
   19.7563  -17.8308  -15.6894 C   0  0  0  0  0  0  0  0  0  0  0  0
   20.5068  -18.5557  -14.7917 C   0  0  0  0  0  0  0  0  0  0  0  0
   24.5231  -20.8672  -13.7268 C   0  0  0  0  0  0  0  0  0  0  0  0
   24.2401  -21.5226  -12.7154 O   0  0  0  0  0  0  0  0  0  0  0  0
   31.8679  -21.2962  -10.6074 N   0  0  0  0  0  0  0  0  0  0  0  0
   32.2116  -22.2543  -11.5972 C   0  0  0  0  0  0  0  0  0  0  0  0
   33.0694  -23.1811  -11.3497 N   0  0  0  0  0  0  0  0  0  0  0  0
   31.6225  -22.2299  -12.8904 N   0  0  0  0  0  0  0  0  0  0  0  0
   30.7072  -21.2018  -13.2351 C   0  0  0  0  0  0  0  0  0  0  0  0
   29.3484  -21.3018  -12.5779 C   0  0  0  0  0  0  0  0  0  0  0  0
   28.2943  -20.9891  -13.6113 C   0  0  0  0  0  0  0  0  0  0  0  0
   26.8972  -21.0412  -13.0830 C   0  0  2  0  0  0  0  0  0  0  0  0
   25.8824  -20.6356  -13.9806 N   0  0  0  0  0  0  0  0  0  0  0  0
   26.7038  -20.3545  -11.7839 C   0  0  0  0  0  0  0  0  0  0  0  0
   26.6349  -19.0936  -11.7257 O   0  0  0  0  0  0  0  0  0  0  0  0
   33.3750  -23.8140  -12.0944 C   0  0  0  0  0  0  0  0  0  0  0  0
   26.1726  -18.2712   -7.3874 C   0  0  0  0  0  0  0  0  0  0  0  0
   25.4752  -19.6332   -7.2532 C   0  0  2  0  0  0  0  0  0  0  0  0
   25.3412  -20.2741   -8.6072 C   0  0  0  0  0  0  0  0  0  0  0  0
   24.6532  -21.5930   -8.4723 C   0  0  2  0  0  0  0  0  0  0  0  0
   26.6777  -20.3155   -9.2835 N   0  0  0  0  0  0  0  0  0  0  0  0
   26.5857  -21.0438  -10.5551 C   0  0  0  0  0  0  0  0  0  0  0  0
   27.6531  -21.0301   -8.4405 O   0  0  0  0  0  0  0  0  0  0  0  0
   28.0565  -20.4834   -7.3821 O   0  0  0  0  0  0  0  0  0  0  0  0
  2  1  1  1
  2 10  1  0
  3  2  1  0
  3  4  1  0
  4  9  2  0
  4  5  1  0
  5  6  2  0
  6  7  1  0
  8  7  2  0
  9  8  1  0
 10 11  2  0
 13 15  1  0
 13 12  1  0
 14 13  2  0
 16 15  1  0
 16 17  1  0
 19 18  1  6
 18 17  1  0
 20 19  1  0
 20 10  1  0
 21 19  1  0
 21 22  2  0
 23 24  1  0
 24 25  1  0
 25 26  1  1
 27 28  1  1
 27 25  1  0
 28 21  1  0
 29 31  1  0
 29 27  1  0
 30 29  2  0
M  END
$$$$
