FRI.pdb
     RDKit          3D

 31 31  0  0  1  0  0  0  0  0999 V2000
   22.5807  -19.3570  -18.6089 N   0  0  0  0  0  0  0  0  0  0  0  0
   23.5383  -18.7619  -17.7355 C   0  0  1  0  0  0  0  0  0  0  0  0
   22.9835  -17.7438  -16.7821 C   0  0  0  0  0  0  0  0  0  0  0  0
   22.4395  -16.5657  -17.5262 C   0  0  0  0  0  0  0  0  0  0  0  0
   21.0680  -16.4311  -17.5592 C   0  0  0  0  0  0  0  0  0  0  0  0
   20.4922  -15.3671  -18.2291 C   0  0  0  0  0  0  0  0  0  0  0  0
   21.3113  -14.4524  -18.8574 C   0  0  0  0  0  0  0  0  0  0  0  0
   22.6806  -14.5923  -18.8209 C   0  0  0  0  0  0  0  0  0  0  0  0
   23.2672  -15.6463  -18.1580 C   0  0  0  0  0  0  0  0  0  0  0  0
   24.1604  -19.8506  -16.9096 C   0  0  0  0  0  0  0  0  0  0  0  0
   23.4496  -20.7193  -16.3874 O   0  0  0  0  0  0  0  0  0  0  0  0
   30.0236  -23.4722  -16.3048 N   0  0  0  0  0  0  0  0  0  0  0  0
   29.6297  -23.6863  -17.6519 C   0  0  0  0  0  0  0  0  0  0  0  0
   29.5513  -24.8761  -18.1360 N   0  0  0  0  0  0  0  0  0  0  0  0
   29.3049  -22.6023  -18.5118 N   0  0  0  0  0  0  0  0  0  0  0  0
   29.3293  -21.2720  -18.0187 C   0  0  0  0  0  0  0  0  0  0  0  0
   27.9813  -20.7018  -17.6364 C   0  0  0  0  0  0  0  0  0  0  0  0
   27.4853  -21.4298  -16.4112 C   0  0  0  0  0  0  0  0  0  0  0  0
   26.1261  -20.9996  -15.9627 C   0  0  2  0  0  0  0  0  0  0  0  0
   25.5427  -19.9379  -16.6924 N   0  0  0  0  0  0  0  0  0  0  0  0
   26.0178  -20.7137  -14.5125 C   0  0  0  0  0  0  0  0  0  0  0  0
   26.5336  -19.6693  -14.0215 O   0  0  0  0  0  0  0  0  0  0  0  0
   29.3039  -25.0181  -19.1194 C   0  0  0  0  0  0  0  0  0  0  0  0
   22.7285  -19.7619   -9.8452 C   0  0  0  0  0  0  0  0  0  0  0  0
   24.0623  -20.3940  -10.2706 C   0  0  2  0  0  0  0  0  0  0  0  0
   24.0369  -20.6978  -11.7434 C   0  0  0  0  0  0  0  0  0  0  0  0
   22.8443  -21.5390  -12.0616 C   0  0  2  0  0  0  0  0  0  0  0  0
   25.3554  -21.2706  -12.1661 N   0  0  0  0  0  0  0  0  0  0  0  0
   25.3479  -21.5656  -13.6045 C   0  0  0  0  0  0  0  0  0  0  0  0
   25.6087  -22.5401  -11.4612 O   0  0  0  0  0  0  0  0  0  0  0  0
   25.8994  -22.5078  -10.2381 O   0  0  0  0  0  0  0  0  0  0  0  0
  2  1  1  1
  2 10  1  0
  3  2  1  0
  3  4  1  0
  4  9  2  0
  4  5  1  0
  5  6  2  0
  6  7  1  0
  8  7  2  0
  9  8  1  0
 10 11  2  0
 13 15  1  0
 13 12  1  0
 14 13  2  0
 16 15  1  0
 16 17  1  0
 19 18  1  6
 18 17  1  0
 20 19  1  0
 20 10  1  0
 21 19  1  0
 21 22  2  0
 23 24  1  0
 24 25  1  0
 25 26  1  6
 27 28  1  1
 27 25  1  0
 28 21  1  0
 29 31  1  0
 29 27  1  0
 30 29  2  0
M  END
$$$$
