FRI.pdb
     RDKit          3D

 31 31  0  0  1  0  0  0  0  0999 V2000
   24.2735  -15.1208  -17.9040 N   0  0  0  0  0  0  0  0  0  0  0  0
   24.8966  -16.0644  -17.0351 C   0  0  1  0  0  0  0  0  0  0  0  0
   25.3808  -15.5040  -15.7295 C   0  0  0  0  0  0  0  0  0  0  0  0
   26.4226  -14.4554  -15.9594 C   0  0  0  0  0  0  0  0  0  0  0  0
   27.6146  -14.8744  -16.5106 C   0  0  0  0  0  0  0  0  0  0  0  0
   28.6253  -13.9618  -16.7512 C   0  0  0  0  0  0  0  0  0  0  0  0
   28.4175  -12.6363  -16.4311 C   0  0  0  0  0  0  0  0  0  0  0  0
   27.2246  -12.2240  -15.8808 C   0  0  0  0  0  0  0  0  0  0  0  0
   26.2101  -13.1214  -15.6360 C   0  0  0  0  0  0  0  0  0  0  0  0
   23.8971  -17.1377  -16.7139 C   0  0  0  0  0  0  0  0  0  0  0  0
   22.6902  -16.8679  -16.6572 O   0  0  0  0  0  0  0  0  0  0  0  0
   25.1546  -23.3292  -13.0607 N   0  0  0  0  0  0  0  0  0  0  0  0
   24.3441  -23.9527  -14.0457 C   0  0  0  0  0  0  0  0  0  0  0  0
   23.4439  -24.8104  -13.7140 N   0  0  0  0  0  0  0  0  0  0  0  0
   24.4916  -23.6529  -15.4271 N   0  0  0  0  0  0  0  0  0  0  0  0
   25.4083  -22.6530  -15.8435 C   0  0  0  0  0  0  0  0  0  0  0  0
   24.9922  -21.2308  -15.5395 C   0  0  0  0  0  0  0  0  0  0  0  0
   23.8023  -20.8871  -16.4016 C   0  0  0  0  0  0  0  0  0  0  0  0
   23.3162  -19.4845  -16.2278 C   0  0  2  0  0  0  0  0  0  0  0  0
   24.2687  -18.4670  -16.4679 N   0  0  0  0  0  0  0  0  0  0  0  0
   22.6369  -19.2235  -14.9367 C   0  0  0  0  0  0  0  0  0  0  0  0
   23.3074  -18.9668  -13.8963 O   0  0  0  0  0  0  0  0  0  0  0  0
   22.8670  -25.2573  -14.4323 C   0  0  0  0  0  0  0  0  0  0  0  0
   19.6328  -15.3485  -14.1659 C   0  0  0  0  0  0  0  0  0  0  0  0
   20.5499  -16.5694  -13.9989 C   0  0  2  0  0  0  0  0  0  0  0  0
   19.7426  -17.7578  -13.5540 C   0  0  0  0  0  0  0  0  0  0  0  0
   19.0071  -17.4228  -12.2979 C   0  0  2  0  0  0  0  0  0  0  0  0
   20.6220  -18.9686  -13.4774 N   0  0  0  0  0  0  0  0  0  0  0  0
   21.2313  -19.2424  -14.7849 C   0  0  0  0  0  0  0  0  0  0  0  0
   19.8261  -20.1535  -13.1097 O   0  0  0  0  0  0  0  0  0  0  0  0
   19.4307  -20.9258  -14.0202 O   0  0  0  0  0  0  0  0  0  0  0  0
  2  1  1  6
  2 10  1  0
  3  2  1  0
  3  4  1  0
  4  9  2  0
  4  5  1  0
  5  6  2  0
  6  7  1  0
  8  7  2  0
  9  8  1  0
 10 11  2  0
 13 15  1  0
 13 12  1  0
 14 13  2  0
 16 15  1  0
 16 17  1  0
 19 18  1  1
 18 17  1  0
 20 19  1  0
 20 10  1  0
 21 19  1  0
 21 22  2  0
 23 24  1  0
 24 25  1  0
 25 26  1  6
 27 28  1  1
 27 25  1  0
 28 21  1  0
 29 31  1  0
 29 27  1  0
 30 29  2  0
M  END
$$$$
