FRI.pdb
     RDKit          3D

 31 31  0  0  1  0  0  0  0  0999 V2000
   26.3784  -18.4748   -7.8161 N   0  0  0  0  0  0  0  0  0  0  0  0
   27.1120  -19.5542   -8.3912 C   0  0  1  0  0  0  0  0  0  0  0  0
   27.2006  -20.7878   -7.5405 C   0  0  0  0  0  0  0  0  0  0  0  0
   28.1536  -20.5792   -6.4065 C   0  0  0  0  0  0  0  0  0  0  0  0
   29.4725  -20.9086   -6.6349 C   0  0  0  0  0  0  0  0  0  0  0  0
   30.4113  -20.7438   -5.6329 C   0  0  0  0  0  0  0  0  0  0  0  0
   30.0039  -20.2478   -4.4121 C   0  0  0  0  0  0  0  0  0  0  0  0
   28.6849  -19.9206   -4.1901 C   0  0  0  0  0  0  0  0  0  0  0  0
   27.7401  -20.0795   -5.1782 C   0  0  0  0  0  0  0  0  0  0  0  0
   26.4393  -19.9476   -9.6745 C   0  0  0  0  0  0  0  0  0  0  0  0
   25.2345  -19.7171   -9.8422 O   0  0  0  0  0  0  0  0  0  0  0  0
   25.9578  -23.7412  -16.0362 N   0  0  0  0  0  0  0  0  0  0  0  0
   26.5067  -22.8774  -17.0203 C   0  0  0  0  0  0  0  0  0  0  0  0
   26.0331  -22.8537  -18.2166 N   0  0  0  0  0  0  0  0  0  0  0  0
   27.5911  -22.0079  -16.7234 N   0  0  0  0  0  0  0  0  0  0  0  0
   28.0111  -21.8287  -15.3800 C   0  0  0  0  0  0  0  0  0  0  0  0
   26.9422  -21.3326  -14.4315 C   0  0  0  0  0  0  0  0  0  0  0  0
   27.5879  -21.0273  -13.1023 C   0  0  0  0  0  0  0  0  0  0  0  0
   26.6207  -20.6034  -12.0447 C   0  0  2  0  0  0  0  0  0  0  0  0
   27.1226  -20.5799  -10.7228 N   0  0  0  0  0  0  0  0  0  0  0  0
   25.3289  -21.3298  -12.0644 C   0  0  0  0  0  0  0  0  0  0  0  0
   25.2231  -22.4704  -11.5298 O   0  0  0  0  0  0  0  0  0  0  0  0
   26.4121  -22.2015  -18.9091 C   0  0  0  0  0  0  0  0  0  0  0  0
   20.7554  -19.6804  -10.3216 C   0  0  0  0  0  0  0  0  0  0  0  0
   21.9446  -20.5186  -10.8145 C   0  0  2  0  0  0  0  0  0  0  0  0
   21.7565  -20.8685  -12.2650 C   0  0  0  0  0  0  0  0  0  0  0  0
   20.4393  -21.5477  -12.4506 C   0  0  2  0  0  0  0  0  0  0  0  0
   22.9462  -21.6327  -12.7610 N   0  0  0  0  0  0  0  0  0  0  0  0
   24.1590  -20.8106  -12.6651 C   0  0  0  0  0  0  0  0  0  0  0  0
   22.7690  -21.9855  -14.1811 O   0  0  0  0  0  0  0  0  0  0  0  0
   22.9632  -21.1022  -15.0550 O   0  0  0  0  0  0  0  0  0  0  0  0
  2  1  1  1
  2 10  1  0
  3  2  1  0
  3  4  1  0
  4  9  2  0
  4  5  1  0
  5  6  2  0
  6  7  1  0
  8  7  2  0
  9  8  1  0
 10 11  2  0
 13 15  1  0
 13 12  1  0
 14 13  2  0
 16 15  1  0
 16 17  1  0
 19 18  1  6
 18 17  1  0
 20 19  1  0
 20 10  1  0
 21 19  1  0
 21 22  2  0
 23 24  1  0
 24 25  1  0
 25 26  1  6
 27 28  1  1
 27 25  1  0
 28 21  1  0
 29 31  1  0
 29 27  1  0
 30 29  2  0
M  END
$$$$
