EHA.pdb
     RDKit          3D

 25 25  0  0  1  0  0  0  0  0999 V2000
   12.5018  -19.0509   16.6322 N   0  0  0  0  0  0  0  0  0  0  0  0
   11.7838  -19.2484   17.8977 C   0  0  1  0  0  0  0  0  0  0  0  0
   12.5358  -20.2725   18.6572 C   0  0  0  0  0  0  0  0  0  0  0  0
   13.2304  -19.7794   19.8918 C   0  0  0  0  0  0  0  0  0  0  0  0
   14.0105  -20.8493   20.5363 C   0  0  0  0  0  0  0  0  0  0  0  0
   14.7075  -20.6252   21.5537 O   0  0  0  0  0  0  0  0  0  0  0  0
   11.5651  -17.9609   18.5838 C   0  0  0  0  0  0  0  0  0  0  0  0
   12.4042  -17.0279   18.5563 O   0  0  0  0  0  0  0  0  0  0  0  0
   13.9890  -22.1511   20.0206 O   0  0  0  0  0  0  0  0  0  0  0  0
   10.3745  -17.6783   19.3352 N   0  0  0  0  0  0  0  0  0  0  0  0
    9.9994  -16.3547   19.7878 C   0  0  1  0  0  0  0  0  0  0  0  0
    8.7484  -15.8791   19.0868 C   0  0  0  0  0  0  0  0  0  0  0  0
    8.3335  -14.5276   19.5048 C   0  0  0  0  0  0  0  0  0  0  0  0
    8.9336  -13.7639   20.4730 C   0  0  0  0  0  0  0  0  0  0  0  0
    8.2452  -12.6001   20.5421 N   0  0  0  0  0  0  0  0  0  0  0  0
    7.2511  -12.6151   19.6612 C   0  0  0  0  0  0  0  0  0  0  0  0
    7.3130  -13.8000   19.0301 N   0  0  0  0  0  0  0  0  0  0  0  0
    9.9309  -16.3630   21.2462 C   0  0  0  0  0  0  0  0  0  0  0  0
    9.2843  -17.2664   21.8762 O   0  0  0  0  0  0  0  0  0  0  0  0
    8.9284  -15.5933   23.8169 C   0  0  0  0  0  0  0  0  0  0  0  0
   10.4318  -15.4399   23.5358 C   0  0  2  0  0  0  0  0  0  0  0  0
   10.5624  -15.3901   22.0949 N   0  0  0  0  0  0  0  0  0  0  0  0
   11.1329  -16.6355   24.0385 C   0  0  0  0  0  0  0  0  0  0  0  0
   11.2330  -16.8685   25.2758 O   0  0  0  0  0  0  0  0  0  0  0  0
   11.7053  -17.5449   23.1705 O   0  0  0  0  0  0  0  0  0  0  0  0
  2  1  1  6
  2  7  1  0
  3  2  1  0
  4  3  1  0
  4  5  1  0
  5  9  1  0
  5  6  2  0
  7  8  2  0
  7 10  1  0
 10 11  1  0
 11 18  1  0
 11 12  1  6
 13 12  1  0
 13 14  2  0
 15 14  1  0
 16 15  1  0
 17 16  2  0
 17 13  1  0
 18 19  2  0
 21 20  1  6
 22 21  1  0
 22 18  1  0
 23 21  1  0
 23 25  1  0
 24 23  2  0
M  END
$$$$
