EHA.pdb
     RDKit          3D

 25 25  0  0  1  0  0  0  0  0999 V2000
   12.7318  -15.7711   17.2435 N   0  0  0  0  0  0  0  0  0  0  0  0
   11.7983  -16.4144   18.1767 C   0  0  1  0  0  0  0  0  0  0  0  0
   12.4930  -17.6033   18.7200 C   0  0  0  0  0  0  0  0  0  0  0  0
   13.4177  -17.3401   19.8713 C   0  0  0  0  0  0  0  0  0  0  0  0
   14.0738  -18.5759   20.3304 C   0  0  0  0  0  0  0  0  0  0  0  0
   14.8483  -18.5752   21.3160 O   0  0  0  0  0  0  0  0  0  0  0  0
   11.2963  -15.4451   19.1689 C   0  0  0  0  0  0  0  0  0  0  0  0
   12.0029  -14.5115   19.6211 O   0  0  0  0  0  0  0  0  0  0  0  0
   13.8432  -19.7885   19.6690 O   0  0  0  0  0  0  0  0  0  0  0  0
    9.9602  -15.4972   19.6924 N   0  0  0  0  0  0  0  0  0  0  0  0
    9.4396  -14.5678   20.6737 C   0  0  1  0  0  0  0  0  0  0  0  0
    8.0491  -14.1108   20.2996 C   0  0  0  0  0  0  0  0  0  0  0  0
    7.9381  -13.7037   18.8870 C   0  0  0  0  0  0  0  0  0  0  0  0
    8.2346  -12.4644   18.3799 C   0  0  0  0  0  0  0  0  0  0  0  0
    7.9967  -12.5147   17.0480 N   0  0  0  0  0  0  0  0  0  0  0  0
    7.5683  -13.7271   16.7153 C   0  0  0  0  0  0  0  0  0  0  0  0
    7.5356  -14.4490   17.8484 N   0  0  0  0  0  0  0  0  0  0  0  0
    9.5616  -15.1712   21.9976 C   0  0  0  0  0  0  0  0  0  0  0  0
    9.1666  -14.5585   23.0463 O   0  0  0  0  0  0  0  0  0  0  0  0
   10.0040  -18.4617   23.5551 C   0  0  0  0  0  0  0  0  0  0  0  0
   10.3298  -16.9601   23.5960 C   0  0  2  0  0  0  0  0  0  0  0  0
   10.1184  -16.4720   22.2496 N   0  0  0  0  0  0  0  0  0  0  0  0
   11.7517  -16.7924   23.9477 C   0  0  0  0  0  0  0  0  0  0  0  0
   12.1836  -17.0814   25.0989 O   0  0  0  0  0  0  0  0  0  0  0  0
   12.6629  -16.3127   23.0272 O   0  0  0  0  0  0  0  0  0  0  0  0
  2  1  1  6
  2  7  1  0
  3  2  1  0
  4  3  1  0
  4  5  1  0
  5  9  1  0
  5  6  2  0
  7  8  2  0
  7 10  1  0
 10 11  1  0
 11 18  1  0
 11 12  1  6
 13 12  1  0
 13 14  2  0
 15 14  1  0
 16 15  1  0
 17 16  2  0
 17 13  1  0
 18 19  2  0
 21 20  1  6
 22 21  1  0
 22 18  1  0
 23 21  1  0
 23 25  1  0
 24 23  2  0
M  END
$$$$
