EHA.pdb
     RDKit          3D

 25 25  0  0  1  0  0  0  0  0999 V2000
   12.3993  -19.8557   18.3288 N   0  0  0  0  0  0  0  0  0  0  0  0
   11.9942  -21.0623   19.0611 C   0  0  1  0  0  0  0  0  0  0  0  0
   13.2306  -21.8303   19.3308 C   0  0  0  0  0  0  0  0  0  0  0  0
   14.3775  -21.0346   19.8798 C   0  0  0  0  0  0  0  0  0  0  0  0
   15.5050  -21.9030   20.2582 C   0  0  0  0  0  0  0  0  0  0  0  0
   16.5575  -21.4287   20.7468 O   0  0  0  0  0  0  0  0  0  0  0  0
   11.1767  -20.7125   20.2382 C   0  0  0  0  0  0  0  0  0  0  0  0
   11.0681  -19.5361   20.6618 O   0  0  0  0  0  0  0  0  0  0  0  0
   15.4232  -23.2893   20.0784 O   0  0  0  0  0  0  0  0  0  0  0  0
   10.4431  -21.6929   20.9882 N   0  0  0  0  0  0  0  0  0  0  0  0
    9.6577  -21.3879   22.1663 C   0  0  1  0  0  0  0  0  0  0  0  0
    8.3528  -22.1490   22.1567 C   0  0  0  0  0  0  0  0  0  0  0  0
    7.3743  -21.6008   21.1998 C   0  0  0  0  0  0  0  0  0  0  0  0
    7.4662  -20.3933   20.5562 C   0  0  0  0  0  0  0  0  0  0  0  0
    6.3679  -20.2778   19.7729 N   0  0  0  0  0  0  0  0  0  0  0  0
    5.6072  -21.3585   19.9067 C   0  0  0  0  0  0  0  0  0  0  0  0
    6.2317  -22.1637   20.7829 N   0  0  0  0  0  0  0  0  0  0  0  0
   10.4904  -21.5946   23.3477 C   0  0  0  0  0  0  0  0  0  0  0  0
   11.2699  -22.6018   23.4436 O   0  0  0  0  0  0  0  0  0  0  0  0
   11.4498  -19.6628   26.4087 C   0  0  0  0  0  0  0  0  0  0  0  0
   11.3613  -20.9861   25.6316 C   0  0  2  0  0  0  0  0  0  0  0  0
   10.5192  -20.7168   24.4853 N   0  0  0  0  0  0  0  0  0  0  0  0
   10.7022  -21.9931   26.4831 C   0  0  0  0  0  0  0  0  0  0  0  0
    9.4716  -22.2517   26.3647 O   0  0  0  0  0  0  0  0  0  0  0  0
   11.4105  -22.6908   27.4420 O   0  0  0  0  0  0  0  0  0  0  0  0
  2  1  1  1
  2  7  1  0
  3  2  1  0
  4  3  1  0
  4  5  1  0
  5  9  1  0
  5  6  2  0
  7  8  2  0
  7 10  1  0
 10 11  1  0
 11 18  1  0
 11 12  1  1
 13 12  1  0
 13 14  2  0
 15 14  1  0
 16 15  1  0
 17 16  2  0
 17 13  1  0
 18 19  2  0
 21 20  1  1
 22 21  1  0
 22 18  1  0
 23 21  1  0
 23 25  1  0
 24 23  2  0
M  END
$$$$
