EHA.pdb
     RDKit          3D

 25 25  0  0  1  0  0  0  0  0999 V2000
   13.1052  -16.8476   20.7893 N   0  0  0  0  0  0  0  0  0  0  0  0
   12.0719  -17.4058   21.6706 C   0  0  1  0  0  0  0  0  0  0  0  0
   12.6759  -18.5777   22.3438 C   0  0  0  0  0  0  0  0  0  0  0  0
   13.0707  -18.3667   23.7754 C   0  0  0  0  0  0  0  0  0  0  0  0
   13.6766  -19.5784   24.3526 C   0  0  0  0  0  0  0  0  0  0  0  0
   13.5520  -19.8532   25.5692 O   0  0  0  0  0  0  0  0  0  0  0  0
   11.5164  -16.3634   22.5544 C   0  0  0  0  0  0  0  0  0  0  0  0
   12.1688  -15.3469   22.8958 O   0  0  0  0  0  0  0  0  0  0  0  0
   14.4109  -20.4567   23.5461 O   0  0  0  0  0  0  0  0  0  0  0  0
   10.1864  -16.4338   23.0910 N   0  0  0  0  0  0  0  0  0  0  0  0
    9.5861  -15.3951   23.9024 C   0  0  1  0  0  0  0  0  0  0  0  0
    8.0898  -15.3491   23.6997 C   0  0  0  0  0  0  0  0  0  0  0  0
    7.7008  -14.7102   22.4293 C   0  0  0  0  0  0  0  0  0  0  0  0
    8.5587  -14.2188   21.4788 C   0  0  0  0  0  0  0  0  0  0  0  0
    7.7960  -13.7207   20.4771 N   0  0  0  0  0  0  0  0  0  0  0  0
    6.5107  -13.8840   20.7696 C   0  0  0  0  0  0  0  0  0  0  0  0
    6.4619  -14.4911   21.9676 N   0  0  0  0  0  0  0  0  0  0  0  0
   10.0220  -15.5731   25.2845 C   0  0  0  0  0  0  0  0  0  0  0  0
   10.4298  -16.7054   25.7123 O   0  0  0  0  0  0  0  0  0  0  0  0
   10.3006  -13.4454   28.3777 C   0  0  0  0  0  0  0  0  0  0  0  0
   10.5128  -14.7655   27.6195 C   0  0  2  0  0  0  0  0  0  0  0  0
   10.0379  -14.5295   26.2725 N   0  0  0  0  0  0  0  0  0  0  0  0
    9.6808  -15.8103   28.2437 C   0  0  0  0  0  0  0  0  0  0  0  0
    8.5330  -16.0915   27.7979 O   0  0  0  0  0  0  0  0  0  0  0  0
   10.1299  -16.5199   29.3404 O   0  0  0  0  0  0  0  0  0  0  0  0
  2  1  1  1
  2  7  1  0
  3  2  1  0
  4  3  1  0
  4  5  1  0
  5  9  1  0
  5  6  2  0
  7  8  2  0
  7 10  1  0
 10 11  1  0
 11 18  1  0
 11 12  1  1
 13 12  1  0
 13 14  2  0
 15 14  1  0
 16 15  1  0
 17 16  2  0
 17 13  1  0
 18 19  2  0
 21 20  1  1
 22 21  1  0
 22 18  1  0
 23 21  1  0
 23 25  1  0
 24 23  2  0
M  END
$$$$
