EHA.pdb
     RDKit          3D

 25 25  0  0  1  0  0  0  0  0999 V2000
   10.7313  -18.1743   22.7620 N   0  0  0  0  0  0  0  0  0  0  0  0
   11.7039  -17.0797   22.8716 C   0  0  1  0  0  0  0  0  0  0  0  0
   12.2970  -16.9027   21.5270 C   0  0  0  0  0  0  0  0  0  0  0  0
   12.4145  -18.1513   20.7041 C   0  0  0  0  0  0  0  0  0  0  0  0
   13.8096  -18.4082   20.3089 C   0  0  0  0  0  0  0  0  0  0  0  0
   14.7246  -17.5963   20.5825 O   0  0  0  0  0  0  0  0  0  0  0  0
   11.0826  -15.8833   23.4705 C   0  0  0  0  0  0  0  0  0  0  0  0
   11.6856  -14.7875   23.5749 O   0  0  0  0  0  0  0  0  0  0  0  0
   14.1455  -19.5761   19.6129 O   0  0  0  0  0  0  0  0  0  0  0  0
    9.7399  -15.8827   23.9795 N   0  0  0  0  0  0  0  0  0  0  0  0
    9.0556  -14.6976   24.4536 C   0  0  1  0  0  0  0  0  0  0  0  0
    7.5999  -14.7173   24.0502 C   0  0  0  0  0  0  0  0  0  0  0  0
    7.4064  -14.6371   22.5908 C   0  0  0  0  0  0  0  0  0  0  0  0
    7.9421  -13.6883   21.7580 C   0  0  0  0  0  0  0  0  0  0  0  0
    7.5198  -13.9781   20.5047 N   0  0  0  0  0  0  0  0  0  0  0  0
    6.7501  -15.0604   20.5309 C   0  0  0  0  0  0  0  0  0  0  0  0
    6.6863  -15.4573   21.8132 N   0  0  0  0  0  0  0  0  0  0  0  0
    9.3030  -14.5583   25.8858 C   0  0  0  0  0  0  0  0  0  0  0  0
    8.5012  -13.9091   26.6388 O   0  0  0  0  0  0  0  0  0  0  0  0
    9.8639  -13.5954   28.3147 C   0  0  0  0  0  0  0  0  0  0  0  0
   10.6772  -14.8549   27.9760 C   0  0  2  0  0  0  0  0  0  0  0  0
   10.4340  -15.1182   26.5734 N   0  0  0  0  0  0  0  0  0  0  0  0
   10.1584  -15.9828   28.7712 C   0  0  0  0  0  0  0  0  0  0  0  0
   10.3357  -16.0444   30.0201 O   0  0  0  0  0  0  0  0  0  0  0  0
    9.4580  -17.0136   28.1755 O   0  0  0  0  0  0  0  0  0  0  0  0
  2  1  1  6
  2  7  1  0
  3  2  1  0
  4  3  1  0
  4  5  1  0
  5  9  1  0
  5  6  2  0
  7  8  2  0
  7 10  1  0
 10 11  1  0
 11 18  1  0
 11 12  1  1
 13 12  1  0
 13 14  2  0
 15 14  1  0
 16 15  1  0
 17 16  2  0
 17 13  1  0
 18 19  2  0
 21 20  1  1
 22 21  1  0
 22 18  1  0
 23 21  1  0
 23 25  1  0
 24 23  2  0
M  END
$$$$
