EHA.pdb
     RDKit          3D

 25 25  0  0  1  0  0  0  0  0999 V2000
   11.6675  -19.1979   22.4051 N   0  0  0  0  0  0  0  0  0  0  0  0
   12.6024  -18.0752   22.5510 C   0  0  1  0  0  0  0  0  0  0  0  0
   13.2015  -17.8456   21.2169 C   0  0  0  0  0  0  0  0  0  0  0  0
   12.3043  -18.1306   20.0491 C   0  0  0  0  0  0  0  0  0  0  0  0
   12.9591  -17.8007   18.7720 C   0  0  0  0  0  0  0  0  0  0  0  0
   14.1200  -17.3291   18.7376 O   0  0  0  0  0  0  0  0  0  0  0  0
   11.9368  -16.9149   23.1729 C   0  0  0  0  0  0  0  0  0  0  0  0
   12.5093  -15.8088   23.3281 O   0  0  0  0  0  0  0  0  0  0  0  0
   12.2918  -18.0094   17.5587 O   0  0  0  0  0  0  0  0  0  0  0  0
   10.5826  -16.9641   23.6478 N   0  0  0  0  0  0  0  0  0  0  0  0
    9.9031  -15.8467   24.2702 C   0  0  1  0  0  0  0  0  0  0  0  0
    8.4142  -15.9157   24.0241 C   0  0  0  0  0  0  0  0  0  0  0  0
    8.0309  -15.4455   22.6803 C   0  0  0  0  0  0  0  0  0  0  0  0
    8.8854  -14.9685   21.7196 C   0  0  0  0  0  0  0  0  0  0  0  0
    8.1303  -14.6479   20.6424 N   0  0  0  0  0  0  0  0  0  0  0  0
    6.8529  -14.9064   20.8985 C   0  0  0  0  0  0  0  0  0  0  0  0
    6.8014  -15.3948   22.1495 N   0  0  0  0  0  0  0  0  0  0  0  0
   10.2999  -15.7833   25.6739 C   0  0  0  0  0  0  0  0  0  0  0  0
   10.8988  -16.7591   26.2401 O   0  0  0  0  0  0  0  0  0  0  0  0
   10.1730  -13.2509   28.4553 C   0  0  0  0  0  0  0  0  0  0  0  0
   10.4929  -14.6549   27.9176 C   0  0  2  0  0  0  0  0  0  0  0  0
   10.0669  -14.6558   26.5341 N   0  0  0  0  0  0  0  0  0  0  0  0
    9.6934  -15.6427   28.6649 C   0  0  0  0  0  0  0  0  0  0  0  0
    8.5681  -16.0327   28.2443 O   0  0  0  0  0  0  0  0  0  0  0  0
   10.1494  -16.1776   29.8540 O   0  0  0  0  0  0  0  0  0  0  0  0
  2  1  1  6
  2  7  1  0
  3  2  1  0
  4  3  1  0
  4  5  1  0
  5  9  1  0
  5  6  2  0
  7  8  2  0
  7 10  1  0
 10 11  1  0
 11 18  1  0
 11 12  1  1
 13 12  1  0
 13 14  2  0
 15 14  1  0
 16 15  1  0
 17 16  2  0
 17 13  1  0
 18 19  2  0
 21 20  1  1
 22 21  1  0
 22 18  1  0
 23 21  1  0
 23 25  1  0
 24 23  2  0
M  END
$$$$
