EHA.pdb
     RDKit          3D

 25 25  0  0  1  0  0  0  0  0999 V2000
    9.4219  -18.2783   20.3346 N   0  0  0  0  0  0  0  0  0  0  0  0
   10.5869  -17.4333   20.6257 C   0  0  1  0  0  0  0  0  0  0  0  0
   11.2850  -17.2147   19.3387 C   0  0  0  0  0  0  0  0  0  0  0  0
   10.6215  -17.8150   18.1348 C   0  0  0  0  0  0  0  0  0  0  0  0
   11.4218  -17.6055   16.9165 C   0  0  0  0  0  0  0  0  0  0  0  0
   10.8986  -17.6457   15.7782 O   0  0  0  0  0  0  0  0  0  0  0  0
   10.1846  -16.2194   21.3611 C   0  0  0  0  0  0  0  0  0  0  0  0
   11.0070  -15.3430   21.7227 O   0  0  0  0  0  0  0  0  0  0  0  0
   12.7965  -17.3546   17.0062 O   0  0  0  0  0  0  0  0  0  0  0  0
    8.8204  -15.9494   21.7187 N   0  0  0  0  0  0  0  0  0  0  0  0
    8.3839  -14.7407   22.3867 C   0  0  1  0  0  0  0  0  0  0  0  0
    7.2410  -14.0941   21.6398 C   0  0  0  0  0  0  0  0  0  0  0  0
    7.5519  -13.8392   20.2214 C   0  0  0  0  0  0  0  0  0  0  0  0
    8.0651  -12.6769   19.7053 C   0  0  0  0  0  0  0  0  0  0  0  0
    8.1992  -12.8618   18.3708 N   0  0  0  0  0  0  0  0  0  0  0  0
    7.7920  -14.0835   18.0452 C   0  0  0  0  0  0  0  0  0  0  0  0
    7.3972  -14.6752   19.1854 N   0  0  0  0  0  0  0  0  0  0  0  0
    8.1146  -15.0537   23.7872 C   0  0  0  0  0  0  0  0  0  0  0  0
    7.6846  -14.1640   24.5964 O   0  0  0  0  0  0  0  0  0  0  0  0
    6.9686  -17.6374   25.8806 C   0  0  0  0  0  0  0  0  0  0  0  0
    8.0784  -16.5775   25.7927 C   0  0  2  0  0  0  0  0  0  0  0  0
    8.2980  -16.3501   24.3800 N   0  0  0  0  0  0  0  0  0  0  0  0
    9.3102  -17.1300   26.3852 C   0  0  0  0  0  0  0  0  0  0  0  0
   10.3122  -17.4174   25.6721 O   0  0  0  0  0  0  0  0  0  0  0  0
    9.4109  -17.3521   27.7448 O   0  0  0  0  0  0  0  0  0  0  0  0
  2  1  1  6
  2  7  1  0
  3  2  1  0
  4  3  1  0
  4  5  1  0
  5  9  1  0
  5  6  2  0
  7  8  2  0
  7 10  1  0
 10 11  1  0
 11 18  1  0
 11 12  1  6
 13 12  1  0
 13 14  2  0
 15 14  1  0
 16 15  1  0
 17 16  2  0
 17 13  1  0
 18 19  2  0
 21 20  1  6
 22 21  1  0
 22 18  1  0
 23 21  1  0
 23 25  1  0
 24 23  2  0
M  END
$$$$
