EHA.pdb
     RDKit          3D

 25 25  0  0  1  0  0  0  0  0999 V2000
   10.1881  -18.6961   21.1688 N   0  0  0  0  0  0  0  0  0  0  0  0
   11.1594  -17.6020   21.2938 C   0  0  1  0  0  0  0  0  0  0  0  0
   11.8373  -17.4844   19.9832 C   0  0  0  0  0  0  0  0  0  0  0  0
   10.9290  -17.3857   18.7935 C   0  0  0  0  0  0  0  0  0  0  0  0
   11.6882  -17.1620   17.5517 C   0  0  0  0  0  0  0  0  0  0  0  0
   12.5779  -17.9623   17.1786 O   0  0  0  0  0  0  0  0  0  0  0  0
   10.5098  -16.3787   21.8016 C   0  0  0  0  0  0  0  0  0  0  0  0
   11.1470  -15.3252   22.0458 O   0  0  0  0  0  0  0  0  0  0  0  0
   11.4287  -16.0401   16.7548 O   0  0  0  0  0  0  0  0  0  0  0  0
    9.0985  -16.3015   22.0548 N   0  0  0  0  0  0  0  0  0  0  0  0
    8.4220  -15.1016   22.5024 C   0  0  1  0  0  0  0  0  0  0  0  0
    7.2222  -14.8030   21.6343 C   0  0  0  0  0  0  0  0  0  0  0  0
    7.5891  -14.2707   20.3094 C   0  0  0  0  0  0  0  0  0  0  0  0
    8.8593  -13.9809   19.8810 C   0  0  0  0  0  0  0  0  0  0  0  0
    8.7534  -13.5185   18.6129 N   0  0  0  0  0  0  0  0  0  0  0  0
    7.4773  -13.5115   18.2443 C   0  0  0  0  0  0  0  0  0  0  0  0
    6.7712  -13.9740   19.2900 N   0  0  0  0  0  0  0  0  0  0  0  0
    8.1416  -15.2297   23.9295 C   0  0  0  0  0  0  0  0  0  0  0  0
    7.3186  -14.4501   24.5179 O   0  0  0  0  0  0  0  0  0  0  0  0
    6.8300  -16.8354   26.0700 C   0  0  0  0  0  0  0  0  0  0  0  0
    8.3000  -16.3948   26.1572 C   0  0  2  0  0  0  0  0  0  0  0  0
    8.7407  -16.2123   24.7904 N   0  0  0  0  0  0  0  0  0  0  0  0
    9.0852  -17.4807   26.7719 C   0  0  0  0  0  0  0  0  0  0  0  0
    9.8882  -18.1789   26.0916 O   0  0  0  0  0  0  0  0  0  0  0  0
    8.9694  -17.7720   28.1172 O   0  0  0  0  0  0  0  0  0  0  0  0
  2  1  1  6
  2  7  1  0
  3  2  1  0
  4  3  1  0
  4  5  1  0
  5  9  1  0
  5  6  2  0
  7  8  2  0
  7 10  1  0
 10 11  1  0
 11 18  1  0
 11 12  1  6
 13 12  1  0
 13 14  2  0
 15 14  1  0
 16 15  1  0
 17 16  2  0
 17 13  1  0
 18 19  2  0
 21 20  1  6
 22 21  1  0
 22 18  1  0
 23 21  1  0
 23 25  1  0
 24 23  2  0
M  END
$$$$
