TGN.pdb
     RDKit          3D

 20 19  0  0  1  0  0  0  0  0999 V2000
    9.9713  -10.2602   -9.6628 C   0  0  0  0  0  0  0  0  0  0  0  0
   11.2307   -9.7453   -9.0442 C   0  0  1  0  0  0  0  0  0  0  0  0
   11.7666  -10.6108   -8.0989 O   0  0  0  0  0  0  0  0  0  0  0  0
   12.2721   -9.3324  -10.0607 C   0  0  2  0  0  0  0  0  0  0  0  0
   12.7194  -10.4694  -10.8042 N   0  0  0  0  0  0  0  0  0  0  0  0
   13.3493   -8.5283   -9.4790 C   0  0  0  0  0  0  0  0  0  0  0  0
   13.0473   -7.4288   -8.9472 O   0  0  0  0  0  0  0  0  0  0  0  0
   14.7259   -8.8890   -9.4635 N   0  0  0  0  0  0  0  0  0  0  0  0
   15.7551   -8.0685   -8.8883 C   0  0  0  0  0  0  0  0  0  0  0  0
   15.9135   -6.7739   -9.5794 C   0  0  0  0  0  0  0  0  0  0  0  0
   15.5032   -6.6122  -10.7435 O   0  0  0  0  0  0  0  0  0  0  0  0
   16.9744   -1.8446  -10.2133 N   0  0  0  0  0  0  0  0  0  0  0  0
   17.3272   -2.1092   -8.8398 C   0  0  0  0  0  0  0  0  0  0  0  0
   17.6824   -1.1448   -8.1245 O   0  0  0  0  0  0  0  0  0  0  0  0
   17.2467   -3.4957   -8.3671 C   0  0  0  0  0  0  0  0  0  0  0  0
   16.7860   -4.4143   -9.4789 C   0  0  2  0  0  0  0  0  0  0  0  0
   16.5431   -5.7112   -8.8945 N   0  0  0  0  0  0  0  0  0  0  0  0
   17.9124   -4.5206  -10.4389 C   0  0  0  0  0  0  0  0  0  0  0  0
   18.0000   -3.6360  -11.5006 O   0  0  0  0  0  0  0  0  0  0  0  0
   18.8078   -5.4041  -10.3192 O   0  0  0  0  0  0  0  0  0  0  0  0
  2  1  1  6
  2  4  1  0
  3  2  1  0
  4  5  1  1
  6  8  1  0
  6  4  1  0
  7  6  2  0
  9 10  1  0
  9  8  1  0
 10 17  1  0
 11 10  2  0
 13 12  1  0
 14 13  2  0
 16 15  1  1
 15 13  1  0
 16 18  1  0
 17 16  1  0
 18 20  2  0
 18 19  1  0
M  END
$$$$
