TGN.pdb
     RDKit          3D

 20 19  0  0  1  0  0  0  0  0999 V2000
   18.8557  -11.1122  -14.2484 C   0  0  0  0  0  0  0  0  0  0  0  0
   19.1204  -10.8163  -15.6894 C   0  0  1  0  0  0  0  0  0  0  0  0
   18.2186  -11.4341  -16.5468 O   0  0  0  0  0  0  0  0  0  0  0  0
   19.2327   -9.3373  -15.9865 C   0  0  2  0  0  0  0  0  0  0  0  0
   19.2959   -9.1172  -17.3982 N   0  0  0  0  0  0  0  0  0  0  0  0
   20.2977   -8.6819  -15.2240 C   0  0  0  0  0  0  0  0  0  0  0  0
   20.1377   -8.5396  -13.9841 O   0  0  0  0  0  0  0  0  0  0  0  0
   21.5137   -8.1860  -15.7725 N   0  0  0  0  0  0  0  0  0  0  0  0
   22.5074   -7.4919  -15.0016 C   0  0  0  0  0  0  0  0  0  0  0  0
   22.2999   -6.0307  -14.9761 C   0  0  0  0  0  0  0  0  0  0  0  0
   21.5169   -5.5066  -14.1626 O   0  0  0  0  0  0  0  0  0  0  0  0
   23.2701   -1.1389  -15.9636 N   0  0  0  0  0  0  0  0  0  0  0  0
   23.9993   -1.8547  -16.9818 C   0  0  0  0  0  0  0  0  0  0  0  0
   24.7379   -1.1988  -17.7513 O   0  0  0  0  0  0  0  0  0  0  0  0
   23.8286   -3.3102  -17.0509 C   0  0  0  0  0  0  0  0  0  0  0  0
   22.8918   -3.7914  -15.9632 C   0  0  2  0  0  0  0  0  0  0  0  0
   23.0094   -5.2281  -15.8968 N   0  0  0  0  0  0  0  0  0  0  0  0
   21.5173   -3.4389  -16.3970 C   0  0  0  0  0  0  0  0  0  0  0  0
   20.9823   -2.2068  -16.0612 O   0  0  0  0  0  0  0  0  0  0  0  0
   20.8075   -4.2368  -17.0725 O   0  0  0  0  0  0  0  0  0  0  0  0
  2  1  1  1
  2  4  1  0
  3  2  1  0
  4  5  1  6
  6  8  1  0
  6  4  1  0
  7  6  2  0
  9 10  1  0
  9  8  1  0
 10 17  1  0
 11 10  2  0
 13 12  1  0
 14 13  2  0
 16 15  1  6
 15 13  1  0
 16 18  1  0
 17 16  1  0
 18 20  2  0
 18 19  1  0
M  END
$$$$
