TGN.pdb
     RDKit          3D

 20 19  0  0  1  0  0  0  0  0999 V2000
   20.3329  -14.2861  -18.5525 C   0  0  0  0  0  0  0  0  0  0  0  0
   21.2131  -13.1763  -18.0755 C   0  0  1  0  0  0  0  0  0  0  0  0
   21.7027  -12.3869  -19.1087 O   0  0  0  0  0  0  0  0  0  0  0  0
   20.5777  -12.3302  -16.9944 C   0  0  2  0  0  0  0  0  0  0  0  0
   19.4077  -11.6786  -17.4963 N   0  0  0  0  0  0  0  0  0  0  0  0
   21.5323  -11.4360  -16.3355 C   0  0  0  0  0  0  0  0  0  0  0  0
   22.5536  -11.9455  -15.8059 O   0  0  0  0  0  0  0  0  0  0  0  0
   21.4019  -10.0219  -16.2419 N   0  0  0  0  0  0  0  0  0  0  0  0
   22.2914   -9.1915  -15.4785 C   0  0  0  0  0  0  0  0  0  0  0  0
   21.9746   -7.7540  -15.5888 C   0  0  0  0  0  0  0  0  0  0  0  0
   21.6171   -7.2558  -16.6721 O   0  0  0  0  0  0  0  0  0  0  0  0
   21.0083   -2.9778  -14.6240 N   0  0  0  0  0  0  0  0  0  0  0  0
   19.9459   -3.9495  -14.7127 C   0  0  0  0  0  0  0  0  0  0  0  0
   18.7772   -3.5336  -14.8834 O   0  0  0  0  0  0  0  0  0  0  0  0
   20.3036   -5.3676  -14.5970 C   0  0  0  0  0  0  0  0  0  0  0  0
   21.7987   -5.5298  -14.4221 C   0  0  2  0  0  0  0  0  0  0  0  0
   22.0840   -6.9444  -14.4367 N   0  0  0  0  0  0  0  0  0  0  0  0
   22.1337   -4.9835  -13.0839 C   0  0  0  0  0  0  0  0  0  0  0  0
   22.4210   -5.8452  -12.0388 O   0  0  0  0  0  0  0  0  0  0  0  0
   22.1661   -3.7399  -12.8618 O   0  0  0  0  0  0  0  0  0  0  0  0
  2  1  1  6
  2  4  1  0
  3  2  1  0
  4  5  1  6
  6  8  1  0
  6  4  1  0
  7  6  2  0
  9 10  1  0
  9  8  1  0
 10 17  1  0
 11 10  2  0
 13 12  1  0
 14 13  2  0
 16 15  1  1
 15 13  1  0
 16 18  1  0
 17 16  1  0
 18 20  2  0
 18 19  1  0
M  END
$$$$
