TGN.pdb
     RDKit          3D

 20 19  0  0  1  0  0  0  0  0999 V2000
   17.9999  -13.4500  -19.6708 C   0  0  0  0  0  0  0  0  0  0  0  0
   17.5901  -13.3904  -18.2347 C   0  0  1  0  0  0  0  0  0  0  0  0
   16.6092  -14.3189  -17.9092 O   0  0  0  0  0  0  0  0  0  0  0  0
   18.7568  -13.4678  -17.2750 C   0  0  2  0  0  0  0  0  0  0  0  0
   18.2904  -13.6983  -15.9428 N   0  0  0  0  0  0  0  0  0  0  0  0
   19.6786  -12.3372  -17.4059 C   0  0  0  0  0  0  0  0  0  0  0  0
   20.4737  -12.3303  -18.3809 O   0  0  0  0  0  0  0  0  0  0  0  0
   19.7527  -11.2314  -16.5130 N   0  0  0  0  0  0  0  0  0  0  0  0
   20.6705  -10.1386  -16.6773 C   0  0  0  0  0  0  0  0  0  0  0  0
   20.4172   -9.0275  -15.7393 C   0  0  0  0  0  0  0  0  0  0  0  0
   19.4213   -9.0310  -14.9924 O   0  0  0  0  0  0  0  0  0  0  0  0
   21.3095   -4.7386  -13.1278 N   0  0  0  0  0  0  0  0  0  0  0  0
   22.4460   -4.8670  -14.0069 C   0  0  0  0  0  0  0  0  0  0  0  0
   23.3673   -4.0247  -13.9086 O   0  0  0  0  0  0  0  0  0  0  0  0
   22.4500   -5.9797  -14.9629 C   0  0  0  0  0  0  0  0  0  0  0  0
   21.2060   -6.8277  -14.8023 C   0  0  2  0  0  0  0  0  0  0  0  0
   21.3297   -7.9500  -15.7009 N   0  0  0  0  0  0  0  0  0  0  0  0
   20.0596   -5.9893  -15.2319 C   0  0  0  0  0  0  0  0  0  0  0  0
   19.2630   -5.3710  -14.2830 O   0  0  0  0  0  0  0  0  0  0  0  0
   19.7811   -5.8177  -16.4525 O   0  0  0  0  0  0  0  0  0  0  0  0
  2  1  1  6
  2  4  1  0
  3  2  1  0
  4  5  1  1
  6  8  1  0
  6  4  1  0
  7  6  2  0
  9 10  1  0
  9  8  1  0
 10 17  1  0
 11 10  2  0
 13 12  1  0
 14 13  2  0
 16 15  1  6
 15 13  1  0
 16 18  1  0
 17 16  1  0
 18 20  2  0
 18 19  1  0
M  END
$$$$
