TGN.pdb
     RDKit          3D

 20 19  0  0  1  0  0  0  0  0999 V2000
   13.3321  -14.8232  -16.3514 C   0  0  0  0  0  0  0  0  0  0  0  0
   14.5007  -15.1640  -15.4841 C   0  0  1  0  0  0  0  0  0  0  0  0
   14.5064  -16.4915  -15.0747 O   0  0  0  0  0  0  0  0  0  0  0  0
   15.8305  -14.7724  -16.0897 C   0  0  2  0  0  0  0  0  0  0  0  0
   16.9066  -15.3096  -15.3159 N   0  0  0  0  0  0  0  0  0  0  0  0
   15.9350  -13.3359  -16.3555 C   0  0  0  0  0  0  0  0  0  0  0  0
   15.1708  -12.8361  -17.2211 O   0  0  0  0  0  0  0  0  0  0  0  0
   16.8385  -12.4456  -15.7101 N   0  0  0  0  0  0  0  0  0  0  0  0
   16.8676  -11.0302  -15.9531 C   0  0  0  0  0  0  0  0  0  0  0  0
   17.8160  -10.3146  -15.0771 C   0  0  0  0  0  0  0  0  0  0  0  0
   18.0247  -10.6939  -13.9100 O   0  0  0  0  0  0  0  0  0  0  0  0
   21.6100   -7.3721  -13.6049 N   0  0  0  0  0  0  0  0  0  0  0  0
   21.9410   -8.1822  -14.7516 C   0  0  0  0  0  0  0  0  0  0  0  0
   23.1507   -8.3439  -15.0318 O   0  0  0  0  0  0  0  0  0  0  0  0
   20.8357   -8.7671  -15.5188 C   0  0  0  0  0  0  0  0  0  0  0  0
   19.5069   -8.4618  -14.8605 C   0  0  2  0  0  0  0  0  0  0  0  0
   18.4896   -9.1827  -15.5870 N   0  0  0  0  0  0  0  0  0  0  0  0
   19.2751   -7.0052  -15.0222 C   0  0  0  0  0  0  0  0  0  0  0  0
   19.5353   -6.1440  -13.9696 O   0  0  0  0  0  0  0  0  0  0  0  0
   18.8418   -6.5163  -16.1039 O   0  0  0  0  0  0  0  0  0  0  0  0
  2  1  1  6
  2  4  1  0
  3  2  1  0
  4  5  1  1
  6  8  1  0
  6  4  1  0
  7  6  2  0
  9 10  1  0
  9  8  1  0
 10 17  1  0
 11 10  2  0
 13 12  1  0
 14 13  2  0
 16 15  1  6
 15 13  1  0
 16 18  1  0
 17 16  1  0
 18 20  2  0
 18 19  1  0
M  END
$$$$
