TGN.pdb
     RDKit          3D

 20 19  0  0  1  0  0  0  0  0999 V2000
   19.6645  -13.9249  -20.7358 C   0  0  0  0  0  0  0  0  0  0  0  0
   20.0690  -12.5407  -20.3429 C   0  0  1  0  0  0  0  0  0  0  0  0
   19.0922  -11.8740  -19.6140 O   0  0  0  0  0  0  0  0  0  0  0  0
   21.4086  -12.4841  -19.6426 C   0  0  2  0  0  0  0  0  0  0  0  0
   21.3810  -13.2757  -18.4518 N   0  0  0  0  0  0  0  0  0  0  0  0
   21.8928  -11.1156  -19.4478 C   0  0  0  0  0  0  0  0  0  0  0  0
   22.3280  -10.4924  -20.4504 O   0  0  0  0  0  0  0  0  0  0  0  0
   21.9131  -10.4214  -18.2056 N   0  0  0  0  0  0  0  0  0  0  0  0
   22.3611   -9.0641  -18.0619 C   0  0  0  0  0  0  0  0  0  0  0  0
   21.5974   -8.3094  -17.0491 C   0  0  0  0  0  0  0  0  0  0  0  0
   20.3881   -8.5337  -16.8569 O   0  0  0  0  0  0  0  0  0  0  0  0
   20.7689   -5.3684  -13.0025 N   0  0  0  0  0  0  0  0  0  0  0  0
   22.1907   -5.2731  -13.2267 C   0  0  0  0  0  0  0  0  0  0  0  0
   22.8788   -4.6377  -12.3956 O   0  0  0  0  0  0  0  0  0  0  0  0
   22.7415   -5.9290  -14.4178 C   0  0  0  0  0  0  0  0  0  0  0  0
   21.6374   -6.5570  -15.2417 C   0  0  2  0  0  0  0  0  0  0  0  0
   22.2647   -7.3197  -16.2940 N   0  0  0  0  0  0  0  0  0  0  0  0
   20.8689   -5.4411  -15.8465 C   0  0  0  0  0  0  0  0  0  0  0  0
   21.0630   -5.1110  -17.1772 O   0  0  0  0  0  0  0  0  0  0  0  0
   20.0306   -4.7716  -15.1788 O   0  0  0  0  0  0  0  0  0  0  0  0
  2  1  1  1
  2  4  1  0
  3  2  1  0
  4  5  1  1
  6  8  1  0
  6  4  1  0
  7  6  2  0
  9 10  1  0
  9  8  1  0
 10 17  1  0
 11 10  2  0
 13 12  1  0
 14 13  2  0
 16 15  1  1
 15 13  1  0
 16 18  1  0
 17 16  1  0
 18 20  2  0
 18 19  1  0
M  END
$$$$
