TGN.pdb
     RDKit          3D

 20 19  0  0  1  0  0  0  0  0999 V2000
   17.0400  -11.7717  -17.2203 C   0  0  0  0  0  0  0  0  0  0  0  0
   17.4525  -12.9867  -16.4538 C   0  0  1  0  0  0  0  0  0  0  0  0
   16.5138  -14.0095  -16.5079 O   0  0  0  0  0  0  0  0  0  0  0  0
   18.8308  -13.4888  -16.8232 C   0  0  2  0  0  0  0  0  0  0  0  0
   19.0469  -14.7938  -16.2793 N   0  0  0  0  0  0  0  0  0  0  0  0
   19.8897  -12.5238  -16.5187 C   0  0  0  0  0  0  0  0  0  0  0  0
   20.3693  -12.5175  -15.3555 O   0  0  0  0  0  0  0  0  0  0  0  0
   20.4294  -11.5806  -17.4376 N   0  0  0  0  0  0  0  0  0  0  0  0
   21.4062  -10.5909  -17.0775 C   0  0  0  0  0  0  0  0  0  0  0  0
   20.8394   -9.4852  -16.2806 C   0  0  0  0  0  0  0  0  0  0  0  0
   19.6183   -9.4211  -16.0473 O   0  0  0  0  0  0  0  0  0  0  0  0
   20.7475   -5.2985  -13.3731 N   0  0  0  0  0  0  0  0  0  0  0  0
   22.1478   -5.5192  -13.6398 C   0  0  0  0  0  0  0  0  0  0  0  0
   22.9805   -4.7619  -13.0909 O   0  0  0  0  0  0  0  0  0  0  0  0
   22.5083   -6.6202  -14.5398 C   0  0  0  0  0  0  0  0  0  0  0  0
   21.2707   -7.3568  -15.0066 C   0  0  2  0  0  0  0  0  0  0  0  0
   21.7106   -8.4916  -15.7820 N   0  0  0  0  0  0  0  0  0  0  0  0
   20.5284   -6.4258  -15.8919 C   0  0  0  0  0  0  0  0  0  0  0  0
   19.4972   -5.6585  -15.3769 O   0  0  0  0  0  0  0  0  0  0  0  0
   20.8091   -6.3073  -17.1182 O   0  0  0  0  0  0  0  0  0  0  0  0
  2  1  1  6
  2  4  1  0
  3  2  1  0
  4  5  1  1
  6  8  1  0
  6  4  1  0
  7  6  2  0
  9 10  1  0
  9  8  1  0
 10 17  1  0
 11 10  2  0
 13 12  1  0
 14 13  2  0
 16 15  1  6
 15 13  1  0
 16 18  1  0
 17 16  1  0
 18 20  2  0
 18 19  1  0
M  END
$$$$
