TGN.pdb
     RDKit          3D

 20 19  0  0  1  0  0  0  0  0999 V2000
   17.5552  -13.4032  -17.9949 C   0  0  0  0  0  0  0  0  0  0  0  0
   18.2259  -12.2810  -17.2704 C   0  0  1  0  0  0  0  0  0  0  0  0
   18.5101  -11.1961  -18.0903 O   0  0  0  0  0  0  0  0  0  0  0  0
   17.4873  -11.8463  -16.0239 C   0  0  2  0  0  0  0  0  0  0  0  0
   16.1614  -11.4236  -16.3537 N   0  0  0  0  0  0  0  0  0  0  0  0
   18.2450  -10.8866  -15.2178 C   0  0  0  0  0  0  0  0  0  0  0  0
   19.3185  -11.2742  -14.6882 O   0  0  0  0  0  0  0  0  0  0  0  0
   17.8661   -9.5357  -14.9791 N   0  0  0  0  0  0  0  0  0  0  0  0
   18.6433   -8.6208  -14.1902 C   0  0  0  0  0  0  0  0  0  0  0  0
   19.3707   -7.6296  -15.0070 C   0  0  0  0  0  0  0  0  0  0  0  0
   18.7600   -6.8027  -15.7092 O   0  0  0  0  0  0  0  0  0  0  0  0
   20.6628   -4.5044  -14.2774 N   0  0  0  0  0  0  0  0  0  0  0  0
   21.9593   -4.9700  -13.8495 C   0  0  0  0  0  0  0  0  0  0  0  0
   22.5047   -4.3928  -12.8813 O   0  0  0  0  0  0  0  0  0  0  0  0
   22.5580   -6.0939  -14.5780 C   0  0  0  0  0  0  0  0  0  0  0  0
   21.5981   -6.6284  -15.6197 C   0  0  2  0  0  0  0  0  0  0  0  0
   20.7829   -7.6329  -14.9803 N   0  0  0  0  0  0  0  0  0  0  0  0
   22.4240   -7.2736  -16.6700 C   0  0  0  0  0  0  0  0  0  0  0  0
   22.4446   -8.6537  -16.7810 O   0  0  0  0  0  0  0  0  0  0  0  0
   23.1199   -6.5967  -17.4788 O   0  0  0  0  0  0  0  0  0  0  0  0
  2  1  1  6
  2  4  1  0
  3  2  1  0
  4  5  1  6
  6  8  1  0
  6  4  1  0
  7  6  2  0
  9 10  1  0
  9  8  1  0
 10 17  1  0
 11 10  2  0
 13 12  1  0
 14 13  2  0
 16 15  1  1
 15 13  1  0
 16 18  1  0
 17 16  1  0
 18 20  2  0
 18 19  1  0
M  END
$$$$
