TGN.pdb
     RDKit          3D

 20 19  0  0  1  0  0  0  0  0999 V2000
   12.7787   -7.1554   -7.6787 C   0  0  0  0  0  0  0  0  0  0  0  0
   13.6930   -7.5737   -8.7846 C   0  0  1  0  0  0  0  0  0  0  0  0
   13.4038   -6.9543   -9.9941 O   0  0  0  0  0  0  0  0  0  0  0  0
   15.1583   -7.4350   -8.4353 C   0  0  2  0  0  0  0  0  0  0  0  0
   15.4866   -6.0622   -8.2047 N   0  0  0  0  0  0  0  0  0  0  0  0
   16.0384   -8.1155   -9.3880 C   0  0  0  0  0  0  0  0  0  0  0  0
   16.0369   -9.3736   -9.4020 O   0  0  0  0  0  0  0  0  0  0  0  0
   16.9061   -7.4671  -10.3111 N   0  0  0  0  0  0  0  0  0  0  0  0
   17.7355   -8.1706  -11.2494 C   0  0  0  0  0  0  0  0  0  0  0  0
   18.4604   -7.2693  -12.1664 C   0  0  0  0  0  0  0  0  0  0  0  0
   18.0980   -6.0894  -12.3281 O   0  0  0  0  0  0  0  0  0  0  0  0
   22.1389   -5.7398  -15.3576 N   0  0  0  0  0  0  0  0  0  0  0  0
   22.3281   -7.1655  -15.2461 C   0  0  0  0  0  0  0  0  0  0  0  0
   23.2998   -7.6814  -15.8442 O   0  0  0  0  0  0  0  0  0  0  0  0
   21.3671   -7.9226  -14.4363 C   0  0  0  0  0  0  0  0  0  0  0  0
   20.3437   -6.9959  -13.8150 C   0  0  2  0  0  0  0  0  0  0  0  0
   19.5818   -7.7696  -12.8645 N   0  0  0  0  0  0  0  0  0  0  0  0
   19.4449   -6.5564  -14.9107 C   0  0  0  0  0  0  0  0  0  0  0  0
   18.4708   -7.4155  -15.3907 O   0  0  0  0  0  0  0  0  0  0  0  0
   19.5395   -5.4078  -15.4288 O   0  0  0  0  0  0  0  0  0  0  0  0
  2  1  1  1
  2  4  1  0
  3  2  1  0
  4  5  1  6
  6  8  1  0
  6  4  1  0
  7  6  2  0
  9 10  1  0
  9  8  1  0
 10 17  1  0
 11 10  2  0
 13 12  1  0
 14 13  2  0
 16 15  1  6
 15 13  1  0
 16 18  1  0
 17 16  1  0
 18 20  2  0
 18 19  1  0
M  END
$$$$
