MVP.pdb
     RDKit          3D

 23 23  0  0  1  0  0  0  0  0999 V2000
    5.9428  -11.8013   27.3168 C   0  0  0  0  0  0  0  0  0  0  0  0
    7.6226  -12.4523   27.3496 S   0  0  0  0  0  0  0  0  0  0  0  0
    7.7051  -14.1288   26.7090 C   0  0  0  0  0  0  0  0  0  0  0  0
    6.6774  -14.3648   25.6110 C   0  0  0  0  0  0  0  0  0  0  0  0
    6.8522  -15.7951   25.1561 C   0  0  2  0  0  0  0  0  0  0  0  0
    8.0802  -16.3242   25.7116 N   0  0  0  0  0  0  0  0  0  0  0  0
    6.9108  -15.8970   23.6675 C   0  0  0  0  0  0  0  0  0  0  0  0
    6.1960  -16.7057   23.0250 O   0  0  0  0  0  0  0  0  0  0  0  0
    8.1509  -13.3269   19.6202 C   0  0  0  0  0  0  0  0  0  0  0  0
    8.2770  -13.7098   21.0369 C   0  0  1  0  0  0  0  0  0  0  0  0
    7.5810  -12.6487   21.8826 C   0  0  0  0  0  0  0  0  0  0  0  0
    7.7626  -15.0809   21.4240 C   0  0  2  0  0  0  0  0  0  0  0  0
    7.7912  -15.0689   22.9224 N   0  0  0  0  0  0  0  0  0  0  0  0
    8.6178  -16.1925   21.0304 C   0  0  0  0  0  0  0  0  0  0  0  0
    9.5294  -16.5713   21.8503 O   0  0  0  0  0  0  0  0  0  0  0  0
    8.5407  -16.9070   19.8245 N   0  0  0  0  0  0  0  0  0  0  0  0
    7.6372  -16.6723   18.7226 C   0  0  0  0  0  0  0  0  0  0  0  0
    7.3096  -18.0730   18.2161 C   0  0  0  0  0  0  0  0  0  0  0  0
    8.2954  -18.9820   18.8750 C   0  0  0  0  0  0  0  0  0  0  0  0
    9.3374  -18.0824   19.4409 C   0  0  1  0  0  0  0  0  0  0  0  0
   10.3733  -17.6477   18.4980 C   0  0  0  0  0  0  0  0  0  0  0  0
   11.5217  -18.4028   18.2348 O   0  0  0  0  0  0  0  0  0  0  0  0
   10.2578  -16.5661   17.8890 O   0  0  0  0  0  0  0  0  0  0  0  0
  1  2  1  0
  2  3  1  0
  3  4  1  0
  4  5  1  0
  5  6  1  1
  7 13  1  0
  7  5  1  0
  8  7  2  0
 10  9  1  6
 10 12  1  0
 10 11  1  0
 12 13  1  1
 12 14  1  0
 14 16  1  0
 14 15  2  0
 16 20  1  0
 17 18  1  0
 17 16  1  0
 18 19  1  0
 19 20  1  0
 20 21  1  6
 21 22  1  0
 23 21  2  0
M  END
$$$$
