MVP.pdb
     RDKit          3D

 23 23  0  0  1  0  0  0  0  0999 V2000
    5.8528  -11.3177   26.2264 C   0  0  0  0  0  0  0  0  0  0  0  0
    7.0079  -12.1487   27.3317 S   0  0  0  0  0  0  0  0  0  0  0  0
    6.8009  -13.9331   27.3000 C   0  0  0  0  0  0  0  0  0  0  0  0
    7.5799  -14.5717   26.1587 C   0  0  0  0  0  0  0  0  0  0  0  0
    6.5647  -15.2543   25.2718 C   0  0  2  0  0  0  0  0  0  0  0  0
    5.9413  -16.3350   26.0067 N   0  0  0  0  0  0  0  0  0  0  0  0
    7.1955  -15.8091   24.0372 C   0  0  0  0  0  0  0  0  0  0  0  0
    7.4670  -17.0295   23.9168 O   0  0  0  0  0  0  0  0  0  0  0  0
    6.7028  -13.8454   20.4040 C   0  0  0  0  0  0  0  0  0  0  0  0
    8.0438  -14.3749   20.7057 C   0  0  1  0  0  0  0  0  0  0  0  0
    8.9146  -13.2216   21.1928 C   0  0  0  0  0  0  0  0  0  0  0  0
    8.1214  -15.5188   21.6956 C   0  0  2  0  0  0  0  0  0  0  0  0
    7.5121  -14.9588   22.9450 N   0  0  0  0  0  0  0  0  0  0  0  0
    9.4715  -15.9178   22.0698 C   0  0  0  0  0  0  0  0  0  0  0  0
    9.9764  -15.4110   23.1351 O   0  0  0  0  0  0  0  0  0  0  0  0
   10.2889  -16.8210   21.3722 N   0  0  0  0  0  0  0  0  0  0  0  0
   10.0120  -17.4553   20.1047 C   0  0  0  0  0  0  0  0  0  0  0  0
   10.6034  -18.8524   20.2602 C   0  0  0  0  0  0  0  0  0  0  0  0
   11.4435  -18.8008   21.4946 C   0  0  0  0  0  0  0  0  0  0  0  0
   11.5899  -17.3528   21.8061 C   0  0  1  0  0  0  0  0  0  0  0  0
   12.6434  -16.6525   21.0638 C   0  0  0  0  0  0  0  0  0  0  0  0
   13.9753  -16.6179   21.4917 O   0  0  0  0  0  0  0  0  0  0  0  0
   12.3758  -16.0529   20.0040 O   0  0  0  0  0  0  0  0  0  0  0  0
  1  2  1  0
  2  3  1  0
  3  4  1  0
  4  5  1  0
  5  6  1  1
  7 13  1  0
  7  5  1  0
  8  7  2  0
 10  9  1  1
 10 12  1  0
 10 11  1  0
 12 13  1  1
 12 14  1  0
 14 16  1  0
 14 15  2  0
 16 20  1  0
 17 18  1  0
 17 16  1  0
 18 19  1  0
 19 20  1  0
 20 21  1  6
 21 22  1  0
 23 21  2  0
M  END
$$$$
