MVP.pdb
     RDKit          3D

 23 23  0  0  1  0  0  0  0  0999 V2000
    5.7936  -12.2649   27.5510 C   0  0  0  0  0  0  0  0  0  0  0  0
    7.2361  -12.2051   26.4729 S   0  0  0  0  0  0  0  0  0  0  0  0
    8.0260  -13.8115   26.3195 C   0  0  0  0  0  0  0  0  0  0  0  0
    7.0762  -14.9446   26.6819 C   0  0  0  0  0  0  0  0  0  0  0  0
    6.2621  -15.2384   25.4433 C   0  0  2  0  0  0  0  0  0  0  0  0
    5.2470  -16.2201   25.7630 N   0  0  0  0  0  0  0  0  0  0  0  0
    7.1138  -15.7657   24.3358 C   0  0  0  0  0  0  0  0  0  0  0  0
    7.6483  -16.9012   24.3874 O   0  0  0  0  0  0  0  0  0  0  0  0
    6.5615  -14.1702   20.4962 C   0  0  0  0  0  0  0  0  0  0  0  0
    7.9298  -14.5141   20.9194 C   0  0  1  0  0  0  0  0  0  0  0  0
    8.6263  -13.2348   21.3708 C   0  0  0  0  0  0  0  0  0  0  0  0
    8.0683  -15.5708   21.9959 C   0  0  2  0  0  0  0  0  0  0  0  0
    7.3481  -14.9858   23.1727 N   0  0  0  0  0  0  0  0  0  0  0  0
    9.4305  -15.8063   22.4549 C   0  0  0  0  0  0  0  0  0  0  0  0
    9.8657  -15.1037   23.4366 O   0  0  0  0  0  0  0  0  0  0  0  0
   10.3300  -16.7448   21.9250 N   0  0  0  0  0  0  0  0  0  0  0  0
   10.1047  -17.6492   20.8218 C   0  0  0  0  0  0  0  0  0  0  0  0
   10.8441  -18.9175   21.2343 C   0  0  0  0  0  0  0  0  0  0  0  0
   11.6912  -18.5300   22.4025 C   0  0  0  0  0  0  0  0  0  0  0  0
   11.6863  -17.0416   22.4106 C   0  0  1  0  0  0  0  0  0  0  0  0
   12.6484  -16.4040   21.5056 C   0  0  0  0  0  0  0  0  0  0  0  0
   12.2908  -15.9143   20.2444 O   0  0  0  0  0  0  0  0  0  0  0  0
   13.8419  -16.2770   21.8423 O   0  0  0  0  0  0  0  0  0  0  0  0
  1  2  1  0
  2  3  1  0
  3  4  1  0
  4  5  1  0
  5  6  1  1
  7 13  1  0
  7  5  1  0
  8  7  2  0
 10  9  1  1
 10 12  1  0
 10 11  1  0
 12 13  1  1
 12 14  1  0
 14 16  1  0
 14 15  2  0
 16 20  1  0
 17 18  1  0
 17 16  1  0
 18 19  1  0
 19 20  1  0
 20 21  1  6
 21 22  1  0
 23 21  2  0
M  END
$$$$
