MVP.pdb
     RDKit          3D

 23 23  0  0  1  0  0  0  0  0999 V2000
   15.1306  -17.9069   22.6059 C   0  0  0  0  0  0  0  0  0  0  0  0
   13.8701  -19.1945   22.5995 S   0  0  0  0  0  0  0  0  0  0  0  0
   12.2626  -18.5571   22.1121 C   0  0  0  0  0  0  0  0  0  0  0  0
   12.3809  -17.2297   21.3765 C   0  0  0  0  0  0  0  0  0  0  0  0
   10.9711  -16.7426   21.1350 C   0  0  2  0  0  0  0  0  0  0  0  0
   10.9149  -16.0626   19.8580 N   0  0  0  0  0  0  0  0  0  0  0  0
   10.5217  -15.8022   22.2045 C   0  0  0  0  0  0  0  0  0  0  0  0
   10.8411  -14.5874   22.2027 O   0  0  0  0  0  0  0  0  0  0  0  0
    7.1242  -16.7148   24.1062 C   0  0  0  0  0  0  0  0  0  0  0  0
    7.7272  -15.3778   24.2413 C   0  0  1  0  0  0  0  0  0  0  0  0
    7.1138  -14.6978   25.4608 C   0  0  0  0  0  0  0  0  0  0  0  0
    9.2378  -15.3141   24.3347 C   0  0  2  0  0  0  0  0  0  0  0  0
    9.7067  -16.2617   23.2724 N   0  0  0  0  0  0  0  0  0  0  0  0
    9.7990  -15.8213   25.5795 C   0  0  0  0  0  0  0  0  0  0  0  0
   10.4699  -16.9143   25.5371 O   0  0  0  0  0  0  0  0  0  0  0  0
    9.6817  -15.2213   26.8432 N   0  0  0  0  0  0  0  0  0  0  0  0
    8.6742  -14.2822   27.2777 C   0  0  0  0  0  0  0  0  0  0  0  0
    9.4364  -13.3274   28.1904 C   0  0  0  0  0  0  0  0  0  0  0  0
   10.7551  -13.9806   28.4482 C   0  0  0  0  0  0  0  0  0  0  0  0
   10.5901  -15.3865   27.9881 C   0  0  1  0  0  0  0  0  0  0  0  0
    9.9563  -16.2936   28.9507 C   0  0  0  0  0  0  0  0  0  0  0  0
   10.6294  -16.8027   30.0670 O   0  0  0  0  0  0  0  0  0  0  0  0
    8.7703  -16.6461   28.7982 O   0  0  0  0  0  0  0  0  0  0  0  0
  1  2  1  0
  2  3  1  0
  3  4  1  0
  4  5  1  0
  5  6  1  6
  7 13  1  0
  7  5  1  0
  8  7  2  0
 10  9  1  1
 10 12  1  0
 10 11  1  0
 12 13  1  6
 12 14  1  0
 14 16  1  0
 14 15  2  0
 16 20  1  0
 17 18  1  0
 17 16  1  0
 18 19  1  0
 19 20  1  0
 20 21  1  1
 21 22  1  0
 23 21  2  0
M  END
$$$$
