MVP.pdb
     RDKit          3D

 23 23  0  0  1  0  0  0  0  0999 V2000
    9.6029  -14.2635   29.2164 C   0  0  0  0  0  0  0  0  0  0  0  0
   10.8741  -15.5399   29.1833 S   0  0  0  0  0  0  0  0  0  0  0  0
   10.1674  -17.1880   29.0719 C   0  0  0  0  0  0  0  0  0  0  0  0
    9.5117  -17.4308   27.7197 C   0  0  0  0  0  0  0  0  0  0  0  0
    8.0197  -17.3388   27.9405 C   0  0  2  0  0  0  0  0  0  0  0  0
    7.4922  -18.6651   28.1834 N   0  0  0  0  0  0  0  0  0  0  0  0
    7.3227  -16.7495   26.7587 C   0  0  0  0  0  0  0  0  0  0  0  0
    6.6655  -17.4530   25.9519 O   0  0  0  0  0  0  0  0  0  0  0  0
    5.8417  -12.9064   26.4958 C   0  0  0  0  0  0  0  0  0  0  0  0
    6.7967  -13.3104   25.4497 C   0  0  1  0  0  0  0  0  0  0  0  0
    8.1605  -12.7213   25.7941 C   0  0  0  0  0  0  0  0  0  0  0  0
    6.9397  -14.7959   25.1899 C   0  0  2  0  0  0  0  0  0  0  0  0
    7.3835  -15.3532   26.5083 N   0  0  0  0  0  0  0  0  0  0  0  0
    7.9881  -15.1570   24.2454 C   0  0  0  0  0  0  0  0  0  0  0  0
    9.0253  -15.7619   24.6984 O   0  0  0  0  0  0  0  0  0  0  0  0
    7.9760  -14.9095   22.8637 N   0  0  0  0  0  0  0  0  0  0  0  0
    7.1910  -13.9253   22.1561 C   0  0  0  0  0  0  0  0  0  0  0  0
    6.8252  -14.6223   20.8499 C   0  0  0  0  0  0  0  0  0  0  0  0
    7.6906  -15.8384   20.7844 C   0  0  0  0  0  0  0  0  0  0  0  0
    8.7306  -15.6334   21.8292 C   0  0  1  0  0  0  0  0  0  0  0  0
    9.8716  -14.8039   21.4275 C   0  0  0  0  0  0  0  0  0  0  0  0
   10.9487  -15.3056   20.6883 O   0  0  0  0  0  0  0  0  0  0  0  0
    9.9157  -13.5981   21.7409 O   0  0  0  0  0  0  0  0  0  0  0  0
  1  2  1  0
  2  3  1  0
  3  4  1  0
  4  5  1  0
  5  6  1  6
  7 13  1  0
  7  5  1  0
  8  7  2  0
 10  9  1  1
 10 12  1  0
 10 11  1  0
 12 13  1  1
 12 14  1  0
 14 16  1  0
 14 15  2  0
 16 20  1  0
 17 18  1  0
 17 16  1  0
 18 19  1  0
 19 20  1  0
 20 21  1  6
 21 22  1  0
 23 21  2  0
M  END
$$$$
