MVP.pdb
     RDKit          3D

 23 23  0  0  1  0  0  0  0  0999 V2000
    5.4246  -12.8696   26.7099 C   0  0  0  0  0  0  0  0  0  0  0  0
    7.1703  -13.1244   27.0759 S   0  0  0  0  0  0  0  0  0  0  0  0
    7.4649  -14.7088   27.8703 C   0  0  0  0  0  0  0  0  0  0  0  0
    8.1046  -15.7081   26.9167 C   0  0  0  0  0  0  0  0  0  0  0  0
    6.9722  -16.4166   26.2102 C   0  0  2  0  0  0  0  0  0  0  0  0
    6.7089  -17.6748   26.8766 N   0  0  0  0  0  0  0  0  0  0  0  0
    7.2985  -16.6862   24.7782 C   0  0  0  0  0  0  0  0  0  0  0  0
    7.3500  -17.8519   24.3132 O   0  0  0  0  0  0  0  0  0  0  0  0
    6.5208  -14.0126   21.7505 C   0  0  0  0  0  0  0  0  0  0  0  0
    7.8851  -14.5671   21.7788 C   0  0  1  0  0  0  0  0  0  0  0  0
    8.8146  -13.5189   22.3813 C   0  0  0  0  0  0  0  0  0  0  0  0
    8.0739  -15.8845   22.5021 C   0  0  2  0  0  0  0  0  0  0  0  0
    7.5644  -15.6146   23.8854 N   0  0  0  0  0  0  0  0  0  0  0  0
    9.4599  -16.2981   22.6750 C   0  0  0  0  0  0  0  0  0  0  0  0
   10.0263  -16.0526   23.8000 O   0  0  0  0  0  0  0  0  0  0  0  0
   10.2512  -16.9544   21.7192 N   0  0  0  0  0  0  0  0  0  0  0  0
    9.9529  -17.1514   20.3199 C   0  0  0  0  0  0  0  0  0  0  0  0
   10.5095  -18.5395   20.0214 C   0  0  0  0  0  0  0  0  0  0  0  0
   11.3559  -18.8979   21.1992 C   0  0  0  0  0  0  0  0  0  0  0  0
   11.5402  -17.6249   21.9483 C   0  0  1  0  0  0  0  0  0  0  0  0
   12.6078  -16.7508   21.4510 C   0  0  0  0  0  0  0  0  0  0  0  0
   13.9440  -16.8904   21.8429 O   0  0  0  0  0  0  0  0  0  0  0  0
   12.3492  -15.8356   20.6451 O   0  0  0  0  0  0  0  0  0  0  0  0
  1  2  1  0
  2  3  1  0
  3  4  1  0
  4  5  1  0
  5  6  1  1
  7 13  1  0
  7  5  1  0
  8  7  2  0
 10  9  1  1
 10 12  1  0
 10 11  1  0
 12 13  1  1
 12 14  1  0
 14 16  1  0
 14 15  2  0
 16 20  1  0
 17 18  1  0
 17 16  1  0
 18 19  1  0
 19 20  1  0
 20 21  1  6
 21 22  1  0
 23 21  2  0
M  END
$$$$
