MVP.pdb
     RDKit          3D

 23 23  0  0  1  0  0  0  0  0999 V2000
    6.9827  -11.6338   26.3191 C   0  0  0  0  0  0  0  0  0  0  0  0
    5.9881  -12.9448   27.0530 S   0  0  0  0  0  0  0  0  0  0  0  0
    7.0029  -14.2993   27.6558 C   0  0  0  0  0  0  0  0  0  0  0  0
    7.6983  -15.0336   26.5180 C   0  0  0  0  0  0  0  0  0  0  0  0
    6.6087  -15.5460   25.6051 C   0  0  2  0  0  0  0  0  0  0  0  0
    5.8568  -16.5748   26.2927 N   0  0  0  0  0  0  0  0  0  0  0  0
    7.1689  -16.1169   24.3441 C   0  0  0  0  0  0  0  0  0  0  0  0
    7.2430  -17.3552   24.1470 O   0  0  0  0  0  0  0  0  0  0  0  0
    6.6140  -14.3203   20.7725 C   0  0  0  0  0  0  0  0  0  0  0  0
    8.0033  -14.7390   21.0260 C   0  0  1  0  0  0  0  0  0  0  0  0
    8.8080  -13.5073   21.4274 C   0  0  0  0  0  0  0  0  0  0  0  0
    8.2120  -15.8342   22.0514 C   0  0  2  0  0  0  0  0  0  0  0  0
    7.6420  -15.2621   23.3138 N   0  0  0  0  0  0  0  0  0  0  0  0
    9.6044  -16.1332   22.3572 C   0  0  0  0  0  0  0  0  0  0  0  0
   10.1416  -15.5414   23.3613 O   0  0  0  0  0  0  0  0  0  0  0  0
   10.4316  -17.0232   21.6543 N   0  0  0  0  0  0  0  0  0  0  0  0
   10.1437  -17.6861   20.4040 C   0  0  0  0  0  0  0  0  0  0  0  0
   10.7800  -19.0624   20.5670 C   0  0  0  0  0  0  0  0  0  0  0  0
   11.6474  -18.9659   21.7797 C   0  0  0  0  0  0  0  0  0  0  0  0
   11.7579  -17.5092   22.0648 C   0  0  1  0  0  0  0  0  0  0  0  0
   12.7720  -16.7905   21.2862 C   0  0  0  0  0  0  0  0  0  0  0  0
   14.1020  -16.6701   21.7045 O   0  0  0  0  0  0  0  0  0  0  0  0
   12.4708  -16.2528   20.2026 O   0  0  0  0  0  0  0  0  0  0  0  0
  1  2  1  0
  2  3  1  0
  3  4  1  0
  4  5  1  0
  5  6  1  1
  7 13  1  0
  7  5  1  0
  8  7  2  0
 10  9  1  1
 10 12  1  0
 10 11  1  0
 12 13  1  1
 12 14  1  0
 14 16  1  0
 14 15  2  0
 16 20  1  0
 17 18  1  0
 17 16  1  0
 18 19  1  0
 19 20  1  0
 20 21  1  6
 21 22  1  0
 23 21  2  0
M  END
$$$$
