EIT.pdb
     RDKit          3D

 25 24  0  0  1  0  0  0  0  0999 V2000
   17.3478  -11.5656  -16.9487 N   0  0  0  0  0  0  0  0  0  0  0  0
   18.2115  -10.5469  -17.3998 C   0  0  1  0  0  0  0  0  0  0  0  0
   17.5364   -9.4568  -18.1413 C   0  0  0  0  0  0  0  0  0  0  0  0
   17.0314   -9.8829  -19.4701 C   0  0  0  0  0  0  0  0  0  0  0  0
   17.9812   -9.8084  -20.5826 C   0  0  0  0  0  0  0  0  0  0  0  0
   19.1866   -9.4884  -20.5272 O   0  0  0  0  0  0  0  0  0  0  0  0
   19.1090  -10.0189  -16.3238 C   0  0  0  0  0  0  0  0  0  0  0  0
   18.7276  -10.0224  -15.1036 O   0  0  0  0  0  0  0  0  0  0  0  0
   17.5511  -10.1237  -21.9043 O   0  0  0  0  0  0  0  0  0  0  0  0
   23.7965  -11.9513  -15.1451 C   0  0  0  0  0  0  0  0  0  0  0  0
   22.4558  -11.2627  -15.2724 C   0  0  0  0  0  0  0  0  0  0  0  0
   22.5095   -9.7734  -15.2664 C   0  0  2  0  0  0  0  0  0  0  0  0
   23.3525   -9.2312  -14.1151 C   0  0  0  0  0  0  0  0  0  0  0  0
   21.2648   -9.0329  -15.4885 C   0  0  2  0  0  0  0  0  0  0  0  0
   20.3848   -9.4942  -16.5122 N   0  0  0  0  0  0  0  0  0  0  0  0
   21.5027   -7.5764  -15.5445 C   0  0  0  0  0  0  0  0  0  0  0  0
   22.2445   -7.0592  -16.4564 O   0  0  0  0  0  0  0  0  0  0  0  0
   19.9984   -2.9437  -14.7591 C   0  0  0  0  0  0  0  0  0  0  0  0
   19.9014   -4.4107  -14.5209 C   0  0  1  0  0  0  0  0  0  0  0  0
   18.9098   -4.9565  -15.3355 O   0  0  0  0  0  0  0  0  0  0  0  0
   21.1794   -5.1790  -14.8049 C   0  0  2  0  0  0  0  0  0  0  0  0
   20.9687   -6.6125  -14.6482 N   0  0  0  0  0  0  0  0  0  0  0  0
   22.2666   -4.7673  -13.9080 C   0  0  0  0  0  0  0  0  0  0  0  0
   23.2030   -3.7830  -14.1693 O   0  0  0  0  0  0  0  0  0  0  0  0
   22.3827   -5.3550  -12.7784 O   0  0  0  0  0  0  0  0  0  0  0  0
  2  1  1  1
  3  2  1  0
  4  3  1  0
  5  4  1  0
  6  5  2  0
  7  2  1  0
  7  8  2  0
  9  5  1  0
 10 11  1  0
 11 12  1  0
 12 14  1  0
 12 13  1  1
 14 15  1  6
 15  7  1  0
 16 14  1  0
 17 16  2  0
 19 20  1  0
 19 18  1  6
 21 22  1  1
 21 19  1  0
 22 16  1  0
 23 21  1  0
 24 23  1  0
 25 23  2  0
M  END
$$$$
