EIT.pdb
     RDKit          3D

 25 24  0  0  1  0  0  0  0  0999 V2000
   18.9326  -12.5135  -17.7424 N   0  0  0  0  0  0  0  0  0  0  0  0
   19.3298  -11.1714  -17.9103 C   0  0  1  0  0  0  0  0  0  0  0  0
   18.2094  -10.2212  -18.0993 C   0  0  0  0  0  0  0  0  0  0  0  0
   17.3317  -10.5763  -19.2419 C   0  0  0  0  0  0  0  0  0  0  0  0
   16.1106  -11.3183  -18.9196 C   0  0  0  0  0  0  0  0  0  0  0  0
   15.2150  -11.6798  -19.7104 O   0  0  0  0  0  0  0  0  0  0  0  0
   20.2861  -10.7059  -16.8564 C   0  0  0  0  0  0  0  0  0  0  0  0
   19.9839  -10.8072  -15.6183 O   0  0  0  0  0  0  0  0  0  0  0  0
   15.8505  -11.7046  -17.5727 O   0  0  0  0  0  0  0  0  0  0  0  0
   23.6472  -12.5355  -14.8081 C   0  0  0  0  0  0  0  0  0  0  0  0
   23.8409  -11.7881  -16.1089 C   0  0  0  0  0  0  0  0  0  0  0  0
   23.7620  -10.3039  -16.0004 C   0  0  2  0  0  0  0  0  0  0  0  0
   24.6331   -9.7609  -14.8706 C   0  0  0  0  0  0  0  0  0  0  0  0
   22.4437   -9.6704  -16.0881 C   0  0  2  0  0  0  0  0  0  0  0  0
   21.5388  -10.1428  -17.0847 N   0  0  0  0  0  0  0  0  0  0  0  0
   22.5461   -8.1976  -16.0524 C   0  0  0  0  0  0  0  0  0  0  0  0
   23.3235   -7.5662  -16.8563 O   0  0  0  0  0  0  0  0  0  0  0  0
   20.4287   -5.4467  -17.1012 C   0  0  0  0  0  0  0  0  0  0  0  0
   20.7449   -5.1981  -15.6672 C   0  0  1  0  0  0  0  0  0  0  0  0
   19.6941   -5.6465  -14.8676 O   0  0  0  0  0  0  0  0  0  0  0  0
   22.0029   -5.8889  -15.1725 C   0  0  2  0  0  0  0  0  0  0  0  0
   21.8347   -7.3366  -15.1748 N   0  0  0  0  0  0  0  0  0  0  0  0
   22.3523   -5.4628  -13.8116 C   0  0  0  0  0  0  0  0  0  0  0  0
   22.7023   -4.1801  -13.4295 O   0  0  0  0  0  0  0  0  0  0  0  0
   22.3417   -6.3347  -12.8764 O   0  0  0  0  0  0  0  0  0  0  0  0
  2  1  1  1
  3  2  1  0
  4  3  1  0
  5  4  1  0
  6  5  2  0
  7  2  1  0
  7  8  2  0
  9  5  1  0
 10 11  1  0
 11 12  1  0
 12 14  1  0
 12 13  1  1
 14 15  1  6
 15  7  1  0
 16 14  1  0
 17 16  2  0
 19 20  1  0
 19 18  1  6
 21 22  1  1
 21 19  1  0
 22 16  1  0
 23 21  1  0
 24 23  1  0
 25 23  2  0
M  END
$$$$
