EIT.pdb
     RDKit          3D

 25 24  0  0  1  0  0  0  0  0999 V2000
   17.4978  -11.5613  -16.9419 N   0  0  0  0  0  0  0  0  0  0  0  0
   18.2658  -10.4217  -17.2560 C   0  0  1  0  0  0  0  0  0  0  0  0
   17.4679   -9.2275  -17.6183 C   0  0  0  0  0  0  0  0  0  0  0  0
   16.8471   -9.3284  -18.9623 C   0  0  0  0  0  0  0  0  0  0  0  0
   17.4601   -8.5281  -20.0250 C   0  0  0  0  0  0  0  0  0  0  0  0
   18.4623   -8.8210  -20.7091 O   0  0  0  0  0  0  0  0  0  0  0  0
   19.3023  -10.1089  -16.2217 C   0  0  0  0  0  0  0  0  0  0  0  0
   19.0615  -10.3115  -14.9825 O   0  0  0  0  0  0  0  0  0  0  0  0
   16.9029   -7.2628  -20.3708 O   0  0  0  0  0  0  0  0  0  0  0  0
   23.8839  -12.3220  -15.3713 C   0  0  0  0  0  0  0  0  0  0  0  0
   22.5950  -11.5393  -15.4893 C   0  0  0  0  0  0  0  0  0  0  0  0
   22.7426  -10.0611  -15.3705 C   0  0  2  0  0  0  0  0  0  0  0  0
   23.6554   -9.6636  -14.2134 C   0  0  0  0  0  0  0  0  0  0  0  0
   21.5405   -9.2316  -15.4879 C   0  0  2  0  0  0  0  0  0  0  0  0
   20.5711   -9.5927  -16.4704 N   0  0  0  0  0  0  0  0  0  0  0  0
   21.8737   -7.7930  -15.5068 C   0  0  0  0  0  0  0  0  0  0  0  0
   22.8160   -7.3393  -16.2520 O   0  0  0  0  0  0  0  0  0  0  0  0
   19.7993   -4.8870  -16.6515 C   0  0  0  0  0  0  0  0  0  0  0  0
   20.3103   -4.5746  -15.2879 C   0  0  1  0  0  0  0  0  0  0  0  0
   19.3237   -4.8463  -14.3406 O   0  0  0  0  0  0  0  0  0  0  0  0
   21.5418   -5.3641  -14.8826 C   0  0  2  0  0  0  0  0  0  0  0  0
   21.2284   -6.7810  -14.7472 N   0  0  0  0  0  0  0  0  0  0  0  0
   22.0941   -4.8855  -13.6091 C   0  0  0  0  0  0  0  0  0  0  0  0
   22.6379   -3.6339  -13.3817 O   0  0  0  0  0  0  0  0  0  0  0  0
   22.0857   -5.6756  -12.6039 O   0  0  0  0  0  0  0  0  0  0  0  0
  2  1  1  1
  3  2  1  0
  4  3  1  0
  5  4  1  0
  6  5  2  0
  7  2  1  0
  7  8  2  0
  9  5  1  0
 10 11  1  0
 11 12  1  0
 12 14  1  0
 12 13  1  1
 14 15  1  6
 15  7  1  0
 16 14  1  0
 17 16  2  0
 19 20  1  0
 19 18  1  6
 21 22  1  1
 21 19  1  0
 22 16  1  0
 23 21  1  0
 24 23  1  0
 25 23  2  0
M  END
$$$$
