EIT.pdb
     RDKit          3D

 25 24  0  0  1  0  0  0  0  0999 V2000
   27.8032  -22.6563  -15.9545 N   0  0  0  0  0  0  0  0  0  0  0  0
   27.3711  -21.4221  -15.4279 C   0  0  1  0  0  0  0  0  0  0  0  0
   27.0865  -20.3876  -16.4491 C   0  0  0  0  0  0  0  0  0  0  0  0
   28.2535  -20.0890  -17.3157 C   0  0  0  0  0  0  0  0  0  0  0  0
   27.9869  -19.9758  -18.7515 C   0  0  0  0  0  0  0  0  0  0  0  0
   27.2832  -19.1185  -19.3243 O   0  0  0  0  0  0  0  0  0  0  0  0
   26.2487  -21.5632  -14.4469 C   0  0  0  0  0  0  0  0  0  0  0  0
   25.3599  -22.4682  -14.6064 O   0  0  0  0  0  0  0  0  0  0  0  0
   28.5630  -20.9148  -19.6557 O   0  0  0  0  0  0  0  0  0  0  0  0
   26.9913  -20.7023   -9.0697 C   0  0  0  0  0  0  0  0  0  0  0  0
   26.5515  -21.2716  -10.4002 C   0  0  0  0  0  0  0  0  0  0  0  0
   25.3009  -20.6812  -10.9556 C   0  0  2  0  0  0  0  0  0  0  0  0
   24.1073  -20.8779  -10.0247 C   0  0  0  0  0  0  0  0  0  0  0  0
   24.9930  -20.9110  -12.3695 C   0  0  2  0  0  0  0  0  0  0  0  0
   26.0517  -20.7752  -13.3161 N   0  0  0  0  0  0  0  0  0  0  0  0
   23.7599  -20.2079  -12.7774 C   0  0  0  0  0  0  0  0  0  0  0  0
   23.6334  -18.9404  -12.6146 O   0  0  0  0  0  0  0  0  0  0  0  0
   22.3293  -19.5985  -16.1649 C   0  0  0  0  0  0  0  0  0  0  0  0
   21.2645  -20.2151  -15.3257 C   0  0  1  0  0  0  0  0  0  0  0  0
   21.2026  -21.5860  -15.5741 O   0  0  0  0  0  0  0  0  0  0  0  0
   21.4658  -20.0453  -13.8307 C   0  0  2  0  0  0  0  0  0  0  0  0
   22.6190  -20.8095  -13.3724 N   0  0  0  0  0  0  0  0  0  0  0  0
   20.2861  -20.4839  -13.0746 C   0  0  0  0  0  0  0  0  0  0  0  0
   19.0437  -19.8753  -13.0874 O   0  0  0  0  0  0  0  0  0  0  0  0
   20.3878  -21.5172  -12.3284 O   0  0  0  0  0  0  0  0  0  0  0  0
  2  1  1  6
  3  2  1  0
  4  3  1  0
  5  4  1  0
  6  5  2  0
  7  2  1  0
  7  8  2  0
  9  5  1  0
 10 11  1  0
 11 12  1  0
 12 14  1  0
 12 13  1  1
 14 15  1  6
 15  7  1  0
 16 14  1  0
 17 16  2  0
 19 20  1  0
 19 18  1  6
 21 22  1  1
 21 19  1  0
 22 16  1  0
 23 21  1  0
 24 23  1  0
 25 23  2  0
M  END
$$$$
