EIT.pdb
     RDKit          3D

 25 24  0  0  1  0  0  0  0  0999 V2000
   28.0641  -22.7746  -16.3322 N   0  0  0  0  0  0  0  0  0  0  0  0
   27.3146  -21.6165  -16.0421 C   0  0  1  0  0  0  0  0  0  0  0  0
   26.6678  -20.9956  -17.2211 C   0  0  0  0  0  0  0  0  0  0  0  0
   27.6386  -20.5624  -18.2565 C   0  0  0  0  0  0  0  0  0  0  0  0
   28.5088  -19.4381  -17.9041 C   0  0  0  0  0  0  0  0  0  0  0  0
   28.1586  -18.2964  -17.5405 O   0  0  0  0  0  0  0  0  0  0  0  0
   26.3511  -21.8086  -14.9122 C   0  0  0  0  0  0  0  0  0  0  0  0
   25.5667  -22.8180  -14.8952 O   0  0  0  0  0  0  0  0  0  0  0  0
   29.9245  -19.5930  -17.9590 O   0  0  0  0  0  0  0  0  0  0  0  0
   27.2678  -20.5948   -9.5417 C   0  0  0  0  0  0  0  0  0  0  0  0
   26.8259  -21.2405  -10.8362 C   0  0  0  0  0  0  0  0  0  0  0  0
   25.5848  -20.6707  -11.4328 C   0  0  2  0  0  0  0  0  0  0  0  0
   24.4171  -20.6761  -10.4498 C   0  0  0  0  0  0  0  0  0  0  0  0
   25.2169  -21.0785  -12.7912 C   0  0  2  0  0  0  0  0  0  0  0  0
   26.2037  -20.9641  -13.8151 N   0  0  0  0  0  0  0  0  0  0  0  0
   23.9064  -20.5248  -13.1877 C   0  0  0  0  0  0  0  0  0  0  0  0
   23.7190  -19.2572  -13.2715 O   0  0  0  0  0  0  0  0  0  0  0  0
   20.9894  -22.7528  -15.3441 C   0  0  0  0  0  0  0  0  0  0  0  0
   21.1158  -21.2689  -15.3389 C   0  0  1  0  0  0  0  0  0  0  0  0
   19.8970  -20.6901  -15.6912 O   0  0  0  0  0  0  0  0  0  0  0  0
   21.5154  -20.6773  -13.9992 C   0  0  2  0  0  0  0  0  0  0  0  0
   22.7491  -21.2815  -13.5124 N   0  0  0  0  0  0  0  0  0  0  0  0
   20.4691  -20.8761  -12.9884 C   0  0  0  0  0  0  0  0  0  0  0  0
   19.2335  -20.2541  -12.9688 O   0  0  0  0  0  0  0  0  0  0  0  0
   20.6934  -21.6904  -12.0285 O   0  0  0  0  0  0  0  0  0  0  0  0
  2  1  1  6
  3  2  1  0
  4  3  1  0
  5  4  1  0
  6  5  2  0
  7  2  1  0
  7  8  2  0
  9  5  1  0
 10 11  1  0
 11 12  1  0
 12 14  1  0
 12 13  1  1
 14 15  1  6
 15  7  1  0
 16 14  1  0
 17 16  2  0
 19 20  1  0
 19 18  1  1
 21 22  1  1
 21 19  1  0
 22 16  1  0
 23 21  1  0
 24 23  1  0
 25 23  2  0
M  END
$$$$
