EIT.pdb
     RDKit          3D

 25 24  0  0  1  0  0  0  0  0999 V2000
   21.1696  -13.7846  -18.9910 N   0  0  0  0  0  0  0  0  0  0  0  0
   21.4952  -12.4283  -19.1949 C   0  0  1  0  0  0  0  0  0  0  0  0
   20.4279  -11.6345  -19.8466 C   0  0  0  0  0  0  0  0  0  0  0  0
   20.1792  -12.0378  -21.2529 C   0  0  0  0  0  0  0  0  0  0  0  0
   21.1342  -11.5483  -22.2498 C   0  0  0  0  0  0  0  0  0  0  0  0
   22.0849  -12.1773  -22.7584 O   0  0  0  0  0  0  0  0  0  0  0  0
   22.0168  -11.7580  -17.9618 C   0  0  0  0  0  0  0  0  0  0  0  0
   21.4744  -11.9806  -16.8258 O   0  0  0  0  0  0  0  0  0  0  0  0
   21.0260  -10.2145  -22.7401 O   0  0  0  0  0  0  0  0  0  0  0  0
   27.0321  -11.9052  -16.1267 C   0  0  0  0  0  0  0  0  0  0  0  0
   25.5707  -11.7904  -16.4995 C   0  0  0  0  0  0  0  0  0  0  0  0
   25.0016  -10.4165  -16.4013 C   0  0  2  0  0  0  0  0  0  0  0  0
   25.4318   -9.7040  -15.1217 C   0  0  0  0  0  0  0  0  0  0  0  0
   23.5889  -10.2244  -16.7394 C   0  0  2  0  0  0  0  0  0  0  0  0
   23.0867  -10.8686  -17.9090 N   0  0  0  0  0  0  0  0  0  0  0  0
   23.1981   -8.8030  -16.6500 C   0  0  0  0  0  0  0  0  0  0  0  0
   23.7969   -7.9047  -17.3455 O   0  0  0  0  0  0  0  0  0  0  0  0
   20.2483   -7.0811  -17.8635 C   0  0  0  0  0  0  0  0  0  0  0  0
   20.3716   -6.7150  -16.4251 C   0  0  1  0  0  0  0  0  0  0  0  0
   19.5270   -7.5184  -15.6597 O   0  0  0  0  0  0  0  0  0  0  0  0
   21.7693   -6.8731  -15.8544 C   0  0  2  0  0  0  0  0  0  0  0  0
   22.1645   -8.2757  -15.8309 N   0  0  0  0  0  0  0  0  0  0  0  0
   21.8573   -6.3415  -14.4886 C   0  0  0  0  0  0  0  0  0  0  0  0
   21.8180   -5.0043  -14.1360 O   0  0  0  0  0  0  0  0  0  0  0  0
   21.9832   -7.1654  -13.5190 O   0  0  0  0  0  0  0  0  0  0  0  0
  2  1  1  1
  3  2  1  0
  4  3  1  0
  5  4  1  0
  6  5  2  0
  7  2  1  0
  7  8  2  0
  9  5  1  0
 10 11  1  0
 11 12  1  0
 12 14  1  0
 12 13  1  1
 14 15  1  6
 15  7  1  0
 16 14  1  0
 17 16  2  0
 19 20  1  0
 19 18  1  6
 21 22  1  1
 21 19  1  0
 22 16  1  0
 23 21  1  0
 24 23  1  0
 25 23  2  0
M  END
$$$$
