EIT.pdb
     RDKit          3D

 25 24  0  0  1  0  0  0  0  0999 V2000
   21.0777  -13.2118  -17.9658 N   0  0  0  0  0  0  0  0  0  0  0  0
   21.4376  -11.8861  -18.2827 C   0  0  1  0  0  0  0  0  0  0  0  0
   20.3363  -11.0718  -18.8465 C   0  0  0  0  0  0  0  0  0  0  0  0
   19.4690  -11.8325  -19.7798 C   0  0  0  0  0  0  0  0  0  0  0  0
   18.0750  -11.3937  -19.8783 C   0  0  0  0  0  0  0  0  0  0  0  0
   17.5080  -10.5186  -19.1919 O   0  0  0  0  0  0  0  0  0  0  0  0
   22.1350  -11.1828  -17.1599 C   0  0  0  0  0  0  0  0  0  0  0  0
   21.8036  -11.4134  -15.9468 O   0  0  0  0  0  0  0  0  0  0  0  0
   17.2112  -11.9877  -20.8437 O   0  0  0  0  0  0  0  0  0  0  0  0
   27.0874  -11.6266  -15.7447 C   0  0  0  0  0  0  0  0  0  0  0  0
   25.6183  -11.3584  -15.9850 C   0  0  0  0  0  0  0  0  0  0  0  0
   25.2296   -9.9198  -15.9683 C   0  0  2  0  0  0  0  0  0  0  0  0
   25.8367   -9.1720  -14.7841 C   0  0  0  0  0  0  0  0  0  0  0  0
   23.8297   -9.5757  -16.2309 C   0  0  2  0  0  0  0  0  0  0  0  0
   23.1621  -10.2525  -17.2946 N   0  0  0  0  0  0  0  0  0  0  0  0
   23.6267   -8.1132  -16.2593 C   0  0  0  0  0  0  0  0  0  0  0  0
   24.3401   -7.3583  -17.0146 O   0  0  0  0  0  0  0  0  0  0  0  0
   20.9072   -6.1308  -17.6381 C   0  0  0  0  0  0  0  0  0  0  0  0
   21.0819   -5.6739  -16.2314 C   0  0  1  0  0  0  0  0  0  0  0  0
   20.1488   -6.3065  -15.4105 O   0  0  0  0  0  0  0  0  0  0  0  0
   22.4524   -5.9587  -15.6441 C   0  0  2  0  0  0  0  0  0  0  0  0
   22.6670   -7.3930  -15.4993 N   0  0  0  0  0  0  0  0  0  0  0  0
   22.6169   -5.3280  -14.3285 C   0  0  0  0  0  0  0  0  0  0  0  0
   22.6705   -3.9675  -14.0837 O   0  0  0  0  0  0  0  0  0  0  0  0
   22.7239   -6.0795  -13.2995 O   0  0  0  0  0  0  0  0  0  0  0  0
  2  1  1  1
  3  2  1  0
  4  3  1  0
  5  4  1  0
  6  5  2  0
  7  2  1  0
  7  8  2  0
  9  5  1  0
 10 11  1  0
 11 12  1  0
 12 14  1  0
 12 13  1  1
 14 15  1  6
 15  7  1  0
 16 14  1  0
 17 16  2  0
 19 20  1  0
 19 18  1  6
 21 22  1  1
 21 19  1  0
 22 16  1  0
 23 21  1  0
 24 23  1  0
 25 23  2  0
M  END
$$$$
