FLG.pdb
     RDKit          3D

 24 24  0  0  1  0  0  0  0  0999 V2000
   27.5964  -36.3284   -7.4420 N   0  0  0  0  0  0  0  0  0  0  0  0
   28.3019  -35.1776   -6.9199 C   0  0  1  0  0  0  0  0  0  0  0  0
   27.3226  -34.1194   -6.4616 C   0  0  0  0  0  0  0  0  0  0  0  0
   26.6828  -33.5472   -7.6633 C   0  0  0  0  0  0  0  0  0  0  0  0
   27.3040  -32.5387   -8.3784 C   0  0  0  0  0  0  0  0  0  0  0  0
   26.7293  -31.9878   -9.5022 C   0  0  0  0  0  0  0  0  0  0  0  0
   25.5082  -32.4879   -9.8801 C   0  0  0  0  0  0  0  0  0  0  0  0
   24.8723  -33.4898   -9.1848 C   0  0  0  0  0  0  0  0  0  0  0  0
   25.4598  -34.0216   -8.0736 C   0  0  0  0  0  0  0  0  0  0  0  0
   29.1883  -35.6318   -5.8276 C   0  0  0  0  0  0  0  0  0  0  0  0
   28.8183  -36.5645   -5.0736 O   0  0  0  0  0  0  0  0  0  0  0  0
   35.0648  -34.7157   -3.8632 C   0  0  0  0  0  0  0  0  0  0  0  0
   33.7742  -35.4946   -3.8967 C   0  0  2  0  0  0  0  0  0  0  0  0
   34.0266  -36.9261   -4.4018 C   0  0  0  0  0  0  0  0  0  0  0  0
   32.7510  -34.8920   -4.7622 C   0  0  0  0  0  0  0  0  0  0  0  0
   31.3413  -35.3303   -4.6379 C   0  0  2  0  0  0  0  0  0  0  0  0
   30.4413  -34.9826   -5.6757 N   0  0  0  0  0  0  0  0  0  0  0  0
   30.7359  -35.0061   -3.3247 C   0  0  0  0  0  0  0  0  0  0  0  0
   30.1009  -33.9316   -3.2056 O   0  0  0  0  0  0  0  0  0  0  0  0
   30.8432  -35.8575   -2.1968 N   0  0  0  0  0  0  0  0  0  0  0  0
   30.1994  -35.4635   -0.9611 C   0  0  0  0  0  0  0  0  0  0  0  0
   30.4496  -36.4969    0.0494 C   0  0  0  0  0  0  0  0  0  0  0  0
   31.0209  -37.6022   -0.1960 O   0  0  0  0  0  0  0  0  0  0  0  0
   30.0470  -36.2789    1.3642 O   0  0  0  0  0  0  0  0  0  0  0  0
  2  1  1  1
  2  3  1  0
  4  3  1  0
  5  4  2  0
  6  5  1  0
  7  8  1  0
  7  6  2  0
  8  9  2  0
  9  4  1  0
 10 17  1  0
 10  2  1  0
 11 10  2  0
 13 12  1  6
 13 14  1  0
 16 15  1  6
 15 13  1  0
 16 17  1  0
 18 16  1  0
 19 18  2  0
 20 18  1  0
 21 20  1  0
 22 21  1  0
 23 22  2  0
 24 22  1  0
M  END
$$$$
