FLG.pdb
     RDKit          3D

 24 24  0  0  1  0  0  0  0  0999 V2000
   26.9006  -18.7661  -12.4526 N   0  0  0  0  0  0  0  0  0  0  0  0
   26.8544  -20.1737  -12.7863 C   0  0  1  0  0  0  0  0  0  0  0  0
   28.0577  -20.5604  -13.6179 C   0  0  0  0  0  0  0  0  0  0  0  0
   27.9550  -19.8574  -14.9126 C   0  0  0  0  0  0  0  0  0  0  0  0
   29.0887  -19.3783  -15.5447 C   0  0  0  0  0  0  0  0  0  0  0  0
   29.0209  -18.7194  -16.7523 C   0  0  0  0  0  0  0  0  0  0  0  0
   27.7726  -18.5603  -17.3001 C   0  0  0  0  0  0  0  0  0  0  0  0
   26.6322  -19.0282  -16.6898 C   0  0  0  0  0  0  0  0  0  0  0  0
   26.7223  -19.6784  -15.4932 C   0  0  0  0  0  0  0  0  0  0  0  0
   26.7697  -20.9470  -11.5295 C   0  0  0  0  0  0  0  0  0  0  0  0
   26.8830  -22.1967  -11.5593 O   0  0  0  0  0  0  0  0  0  0  0  0
   28.9859  -20.6418   -7.4793 C   0  0  0  0  0  0  0  0  0  0  0  0
   27.7885  -19.7696   -7.7601 C   0  0  2  0  0  0  0  0  0  0  0  0
   27.6217  -18.7170   -6.6500 C   0  0  0  0  0  0  0  0  0  0  0  0
   26.5287  -20.5202   -7.8536 C   0  0  0  0  0  0  0  0  0  0  0  0
   25.9672  -20.8380   -9.1873 C   0  0  2  0  0  0  0  0  0  0  0  0
   26.5603  -20.2309  -10.3220 N   0  0  0  0  0  0  0  0  0  0  0  0
   24.4942  -20.6920   -9.2576 C   0  0  0  0  0  0  0  0  0  0  0  0
   23.8051  -21.0865   -8.2873 O   0  0  0  0  0  0  0  0  0  0  0  0
   23.8295  -20.1256  -10.3739 N   0  0  0  0  0  0  0  0  0  0  0  0
   22.3865  -20.0101  -10.3423 C   0  0  0  0  0  0  0  0  0  0  0  0
   21.8397  -20.6178  -11.5602 C   0  0  0  0  0  0  0  0  0  0  0  0
   20.8864  -21.4542  -11.5666 O   0  0  0  0  0  0  0  0  0  0  0  0
   22.3794  -20.2748  -12.7969 O   0  0  0  0  0  0  0  0  0  0  0  0
  2  1  1  1
  2  3  1  0
  4  3  1  0
  5  4  2  0
  6  5  1  0
  7  8  1  0
  7  6  2  0
  8  9  2  0
  9  4  1  0
 10 17  1  0
 10  2  1  0
 11 10  2  0
 13 12  1  1
 13 14  1  0
 16 15  1  1
 15 13  1  0
 16 17  1  0
 18 16  1  0
 19 18  2  0
 20 18  1  0
 21 20  1  0
 22 21  1  0
 23 22  2  0
 24 22  1  0
M  END
$$$$
