FLG.pdb
     RDKit          3D

 24 24  0  0  1  0  0  0  0  0999 V2000
   26.8891  -21.3309   -7.7545 N   0  0  0  0  0  0  0  0  0  0  0  0
   26.2199  -20.0583   -7.9203 C   0  0  1  0  0  0  0  0  0  0  0  0
   27.0868  -18.9328   -7.4004 C   0  0  0  0  0  0  0  0  0  0  0  0
   27.6625  -19.3663   -6.1112 C   0  0  0  0  0  0  0  0  0  0  0  0
   29.0215  -19.2575   -5.8756 C   0  0  0  0  0  0  0  0  0  0  0  0
   29.5838  -19.6542   -4.6826 C   0  0  0  0  0  0  0  0  0  0  0  0
   28.7301  -20.1638   -3.7364 C   0  0  0  0  0  0  0  0  0  0  0  0
   27.3763  -20.2812   -3.9486 C   0  0  0  0  0  0  0  0  0  0  0  0
   26.8399  -19.8819   -5.1384 C   0  0  0  0  0  0  0  0  0  0  0  0
   25.8839  -19.8925   -9.3501 C   0  0  0  0  0  0  0  0  0  0  0  0
   25.4804  -18.7802   -9.7692 O   0  0  0  0  0  0  0  0  0  0  0  0
   28.5596  -19.4353  -12.8834 C   0  0  0  0  0  0  0  0  0  0  0  0
   28.5317  -20.8040  -12.2516 C   0  0  2  0  0  0  0  0  0  0  0  0
   29.5618  -21.7260  -12.9274 C   0  0  0  0  0  0  0  0  0  0  0  0
   27.2206  -21.4616  -12.3411 C   0  0  0  0  0  0  0  0  0  0  0  0
   26.0656  -20.8862  -11.6131 C   0  0  2  0  0  0  0  0  0  0  0  0
   26.0345  -21.0173  -10.2026 N   0  0  0  0  0  0  0  0  0  0  0  0
   24.7546  -21.2825  -12.1789 C   0  0  0  0  0  0  0  0  0  0  0  0
   24.5856  -21.1980  -13.4184 O   0  0  0  0  0  0  0  0  0  0  0  0
   23.6824  -21.7531  -11.3802 N   0  0  0  0  0  0  0  0  0  0  0  0
   22.4727  -22.2076  -12.0334 C   0  0  0  0  0  0  0  0  0  0  0  0
   21.4976  -21.1119  -12.0315 C   0  0  0  0  0  0  0  0  0  0  0  0
   20.2929  -21.2367  -12.4078 O   0  0  0  0  0  0  0  0  0  0  0  0
   21.8894  -19.8489  -11.5961 O   0  0  0  0  0  0  0  0  0  0  0  0
  2  1  1  6
  2  3  1  0
  4  3  1  0
  5  4  2  0
  6  5  1  0
  7  8  1  0
  7  6  2  0
  8  9  2  0
  9  4  1  0
 10 17  1  0
 10  2  1  0
 11 10  2  0
 13 12  1  6
 13 14  1  0
 16 15  1  6
 15 13  1  0
 16 17  1  0
 18 16  1  0
 19 18  2  0
 20 18  1  0
 21 20  1  0
 22 21  1  0
 23 22  2  0
 24 22  1  0
M  END
$$$$
