FLG.pdb
     RDKit          3D

 24 24  0  0  1  0  0  0  0  0999 V2000
   22.9196  -22.8247   -8.1003 N   0  0  0  0  0  0  0  0  0  0  0  0
   22.3475  -21.7264   -8.8495 C   0  0  1  0  0  0  0  0  0  0  0  0
   21.2357  -21.0700   -8.0609 C   0  0  0  0  0  0  0  0  0  0  0  0
   20.1711  -22.0741   -7.8620 C   0  0  0  0  0  0  0  0  0  0  0  0
   19.9956  -22.6786   -6.6298 C   0  0  0  0  0  0  0  0  0  0  0  0
   19.0108  -23.6177   -6.4175 C   0  0  0  0  0  0  0  0  0  0  0  0
   18.2100  -23.9263   -7.4887 C   0  0  0  0  0  0  0  0  0  0  0  0
   18.3662  -23.3383   -8.7222 C   0  0  0  0  0  0  0  0  0  0  0  0
   19.3487  -22.4098   -8.9106 C   0  0  0  0  0  0  0  0  0  0  0  0
   23.4309  -20.7789   -9.1860 C   0  0  0  0  0  0  0  0  0  0  0  0
   23.1468  -19.6050   -9.5277 O   0  0  0  0  0  0  0  0  0  0  0  0
   27.3122  -18.8620   -6.2102 C   0  0  0  0  0  0  0  0  0  0  0  0
   26.2982  -19.6197   -7.0295 C   0  0  2  0  0  0  0  0  0  0  0  0
   25.8101  -20.8607   -6.2617 C   0  0  0  0  0  0  0  0  0  0  0  0
   26.8183  -20.0754   -8.3260 C   0  0  0  0  0  0  0  0  0  0  0  0
   25.8706  -20.4085   -9.4149 C   0  0  2  0  0  0  0  0  0  0  0  0
   24.7692  -21.2452   -9.1071 N   0  0  0  0  0  0  0  0  0  0  0  0
   26.5349  -20.8935  -10.6477 C   0  0  0  0  0  0  0  0  0  0  0  0
   27.4683  -20.2123  -11.1341 O   0  0  0  0  0  0  0  0  0  0  0  0
   26.1613  -22.0942  -11.3016 N   0  0  0  0  0  0  0  0  0  0  0  0
   25.3724  -22.0129  -12.5130 C   0  0  0  0  0  0  0  0  0  0  0  0
   26.1431  -21.2865  -13.5278 C   0  0  0  0  0  0  0  0  0  0  0  0
   26.1362  -20.0244  -13.6517 O   0  0  0  0  0  0  0  0  0  0  0  0
   26.9381  -21.9986  -14.4217 O   0  0  0  0  0  0  0  0  0  0  0  0
  2  1  1  1
  2  3  1  0
  4  3  1  0
  5  4  2  0
  6  5  1  0
  7  8  1  0
  7  6  2  0
  8  9  2  0
  9  4  1  0
 10 17  1  0
 10  2  1  0
 11 10  2  0
 13 12  1  1
 13 14  1  0
 16 15  1  1
 15 13  1  0
 16 17  1  0
 18 16  1  0
 19 18  2  0
 20 18  1  0
 21 20  1  0
 22 21  1  0
 23 22  2  0
 24 22  1  0
M  END
$$$$
