FLG.pdb
     RDKit          3D

 24 24  0  0  1  0  0  0  0  0999 V2000
   19.8978  -13.6536  -18.0338 N   0  0  0  0  0  0  0  0  0  0  0  0
   20.4914  -12.3346  -18.0842 C   0  0  1  0  0  0  0  0  0  0  0  0
   19.4900  -11.3226  -18.5960 C   0  0  0  0  0  0  0  0  0  0  0  0
   19.1839  -11.6625  -20.0003 C   0  0  0  0  0  0  0  0  0  0  0  0
   17.9391  -12.1551  -20.3495 C   0  0  0  0  0  0  0  0  0  0  0  0
   17.6278  -12.4797  -21.6513 C   0  0  0  0  0  0  0  0  0  0  0  0
   18.6132  -12.2909  -22.5878 C   0  0  0  0  0  0  0  0  0  0  0  0
   19.8575  -11.8026  -22.2636 C   0  0  0  0  0  0  0  0  0  0  0  0
   20.1448  -11.4873  -20.9671 C   0  0  0  0  0  0  0  0  0  0  0  0
   20.9895  -11.9969  -16.7341 C   0  0  0  0  0  0  0  0  0  0  0  0
   20.3653  -12.3994  -15.7223 O   0  0  0  0  0  0  0  0  0  0  0  0
   23.9477  -13.5310  -14.2263 C   0  0  0  0  0  0  0  0  0  0  0  0
   24.5630  -12.6137  -15.2526 C   0  0  2  0  0  0  0  0  0  0  0  0
   26.0978  -12.6451  -15.1459 C   0  0  0  0  0  0  0  0  0  0  0  0
   24.1366  -11.2142  -15.1149 C   0  0  0  0  0  0  0  0  0  0  0  0
   22.7257  -10.8524  -15.3860 C   0  0  2  0  0  0  0  0  0  0  0  0
   22.1726  -11.2187  -16.6381 N   0  0  0  0  0  0  0  0  0  0  0  0
   22.4156   -9.4315  -15.1014 C   0  0  0  0  0  0  0  0  0  0  0  0
   22.7244   -8.9629  -13.9802 O   0  0  0  0  0  0  0  0  0  0  0  0
   21.7850   -8.5784  -16.0412 N   0  0  0  0  0  0  0  0  0  0  0  0
   21.6087   -7.1806  -15.7067 C   0  0  0  0  0  0  0  0  0  0  0  0
   20.2604   -6.9948  -15.1599 C   0  0  0  0  0  0  0  0  0  0  0  0
   19.7976   -5.8753  -14.7847 O   0  0  0  0  0  0  0  0  0  0  0  0
   19.4164   -8.0948  -15.0337 O   0  0  0  0  0  0  0  0  0  0  0  0
  2  1  1  1
  2  3  1  0
  4  3  1  0
  5  4  2  0
  6  5  1  0
  7  8  1  0
  7  6  2  0
  8  9  2  0
  9  4  1  0
 10 17  1  0
 10  2  1  0
 11 10  2  0
 13 12  1  1
 13 14  1  0
 16 15  1  6
 15 13  1  0
 16 17  1  0
 18 16  1  0
 19 18  2  0
 20 18  1  0
 21 20  1  0
 22 21  1  0
 23 22  2  0
 24 22  1  0
M  END
$$$$
