HVV.pdb
     RDKit          3D

 25 25  0  0  1  0  0  0  0  0999 V2000
    8.2928  -18.5415   19.7484 N   0  0  0  0  0  0  0  0  0  0  0  0
    8.9605  -17.4107   20.3532 C   0  0  1  0  0  0  0  0  0  0  0  0
    9.3780  -16.4074   19.3347 C   0  0  0  0  0  0  0  0  0  0  0  0
   10.6151  -16.8994   18.6787 C   0  0  0  0  0  0  0  0  0  0  0  0
   11.8108  -17.2909   19.2211 C   0  0  0  0  0  0  0  0  0  0  0  0
   12.6568  -17.6661   18.2301 N   0  0  0  0  0  0  0  0  0  0  0  0
   11.9957  -17.5110   17.0719 C   0  0  0  0  0  0  0  0  0  0  0  0
   10.7526  -17.0438   17.3505 N   0  0  0  0  0  0  0  0  0  0  0  0
    8.1441  -16.8866   21.4521 C   0  0  0  0  0  0  0  0  0  0  0  0
    7.0187  -16.4025   21.1638 O   0  0  0  0  0  0  0  0  0  0  0  0
    6.1711  -18.4254   23.6131 C   0  0  0  0  0  0  0  0  0  0  0  0
    7.0691  -17.6198   24.5159 C   0  0  1  0  0  0  0  0  0  0  0  0
    8.0991  -18.4063   25.2417 C   0  0  0  0  0  0  0  0  0  0  0  0
    7.5908  -16.3848   23.8058 C   0  0  2  0  0  0  0  0  0  0  0  0
    8.5255  -16.8844   22.8082 N   0  0  0  0  0  0  0  0  0  0  0  0
    8.2132  -15.4081   24.7020 C   0  0  0  0  0  0  0  0  0  0  0  0
    9.4756  -15.4548   24.9136 O   0  0  0  0  0  0  0  0  0  0  0  0
    6.7112  -11.8275   25.1728 C   0  0  0  0  0  0  0  0  0  0  0  0
    7.3856  -12.2189   26.4691 C   0  0  1  0  0  0  0  0  0  0  0  0
    6.3136  -12.4141   27.5119 C   0  0  0  0  0  0  0  0  0  0  0  0
    8.1979  -13.4829   26.3208 C   0  0  2  0  0  0  0  0  0  0  0  0
    7.5109  -14.3816   25.3752 N   0  0  0  0  0  0  0  0  0  0  0  0
    8.2804  -14.1335   27.6471 C   0  0  0  0  0  0  0  0  0  0  0  0
    9.0402  -13.6100   28.6719 O   0  0  0  0  0  0  0  0  0  0  0  0
    7.6449  -15.1921   27.8559 O   0  0  0  0  0  0  0  0  0  0  0  0
  2  1  1  6
  3  2  1  0
  3  4  1  0
  4  8  1  0
  5  4  2  0
  5  6  1  0
  6  7  1  0
  8  7  2  0
  9 10  2  0
  9  2  1  0
 12 11  1  6
 12 14  1  0
 13 12  1  0
 14 16  1  0
 14 15  1  6
 15  9  1  0
 16 22  1  0
 17 16  2  0
 19 18  1  6
 19 21  1  0
 20 19  1  0
 21 23  1  0
 21 22  1  6
 23 25  2  0
 23 24  1  0
M  END
$$$$
