HVV.pdb
     RDKit          3D

 25 25  0  0  1  0  0  0  0  0999 V2000
   10.9342  -16.8642   19.9816 N   0  0  0  0  0  0  0  0  0  0  0  0
   11.2978  -17.4907   21.2328 C   0  0  1  0  0  0  0  0  0  0  0  0
   12.7708  -17.4691   21.4527 C   0  0  0  0  0  0  0  0  0  0  0  0
   13.3892  -18.4728   20.5510 C   0  0  0  0  0  0  0  0  0  0  0  0
   13.3811  -19.8416   20.6095 C   0  0  0  0  0  0  0  0  0  0  0  0
   14.0833  -20.3441   19.5640 N   0  0  0  0  0  0  0  0  0  0  0  0
   14.5297  -19.2963   18.8531 C   0  0  0  0  0  0  0  0  0  0  0  0
   14.1043  -18.1588   19.4583 N   0  0  0  0  0  0  0  0  0  0  0  0
   10.4930  -16.9245   22.3194 C   0  0  0  0  0  0  0  0  0  0  0  0
   10.5356  -15.6781   22.4890 O   0  0  0  0  0  0  0  0  0  0  0  0
    6.8981  -17.4489   25.6176 C   0  0  0  0  0  0  0  0  0  0  0  0
    7.6079  -17.7695   24.3276 C   0  0  1  0  0  0  0  0  0  0  0  0
    6.7460  -17.7626   23.1180 C   0  0  0  0  0  0  0  0  0  0  0  0
    8.8942  -16.9753   24.2006 C   0  0  2  0  0  0  0  0  0  0  0  0
    9.6747  -17.6721   23.1888 N   0  0  0  0  0  0  0  0  0  0  0  0
    9.6274  -16.8349   25.4604 C   0  0  0  0  0  0  0  0  0  0  0  0
   10.5196  -17.6983   25.7753 O   0  0  0  0  0  0  0  0  0  0  0  0
   10.6808  -14.2401   29.6051 C   0  0  0  0  0  0  0  0  0  0  0  0
    9.8146  -14.4635   28.3853 C   0  0  1  0  0  0  0  0  0  0  0  0
    9.9453  -13.2546   27.4929 C   0  0  0  0  0  0  0  0  0  0  0  0
   10.2164  -15.7080   27.6308 C   0  0  2  0  0  0  0  0  0  0  0  0
    9.4251  -15.7878   26.3892 N   0  0  0  0  0  0  0  0  0  0  0  0
    9.9145  -16.8791   28.4832 C   0  0  0  0  0  0  0  0  0  0  0  0
    8.7304  -17.5772   28.3732 O   0  0  0  0  0  0  0  0  0  0  0  0
   10.7529  -17.2559   29.3337 O   0  0  0  0  0  0  0  0  0  0  0  0
  2  1  1  6
  3  2  1  0
  3  4  1  0
  4  8  1  0
  5  4  2  0
  5  6  1  0
  6  7  1  0
  8  7  2  0
  9 10  2  0
  9  2  1  0
 12 11  1  1
 12 14  1  0
 13 12  1  0
 14 16  1  0
 14 15  1  6
 15  9  1  0
 16 22  1  0
 17 16  2  0
 19 18  1  1
 19 21  1  0
 20 19  1  0
 21 23  1  0
 21 22  1  6
 23 25  2  0
 23 24  1  0
M  END
$$$$
