HVV.pdb
     RDKit          3D

 25 25  0  0  1  0  0  0  0  0999 V2000
   10.3764  -16.1776   20.2044 N   0  0  0  0  0  0  0  0  0  0  0  0
    9.6470  -16.8165   21.2769 C   0  0  1  0  0  0  0  0  0  0  0  0
   10.0522  -18.2394   21.4482 C   0  0  0  0  0  0  0  0  0  0  0  0
    9.5347  -19.0117   20.2912 C   0  0  0  0  0  0  0  0  0  0  0  0
    8.8505  -18.5931   19.1805 C   0  0  0  0  0  0  0  0  0  0  0  0
    8.5814  -19.6583   18.3857 N   0  0  0  0  0  0  0  0  0  0  0  0
    9.0939  -20.7396   18.9944 C   0  0  0  0  0  0  0  0  0  0  0  0
    9.6735  -20.3406   20.1546 N   0  0  0  0  0  0  0  0  0  0  0  0
    9.7264  -15.9917   22.4861 C   0  0  0  0  0  0  0  0  0  0  0  0
   10.8242  -15.4306   22.7391 O   0  0  0  0  0  0  0  0  0  0  0  0
    7.0460  -13.4356   23.7315 C   0  0  0  0  0  0  0  0  0  0  0  0
    7.5159  -14.3264   24.8523 C   0  0  1  0  0  0  0  0  0  0  0  0
    6.5071  -15.2973   25.3481 C   0  0  0  0  0  0  0  0  0  0  0  0
    8.8769  -14.9209   24.5428 C   0  0  2  0  0  0  0  0  0  0  0  0
    8.6644  -15.7800   23.3872 N   0  0  0  0  0  0  0  0  0  0  0  0
    9.4722  -15.6477   25.6661 C   0  0  0  0  0  0  0  0  0  0  0  0
    9.7408  -16.8943   25.5449 O   0  0  0  0  0  0  0  0  0  0  0  0
   11.4938  -13.4806   28.4627 C   0  0  0  0  0  0  0  0  0  0  0  0
   11.0077  -14.8094   28.9978 C   0  0  1  0  0  0  0  0  0  0  0  0
    9.8006  -14.5496   29.8641 C   0  0  0  0  0  0  0  0  0  0  0  0
   10.6490  -15.7659   27.8861 C   0  0  2  0  0  0  0  0  0  0  0  0
    9.7867  -15.0661   26.9162 N   0  0  0  0  0  0  0  0  0  0  0  0
    9.9051  -16.8995   28.4783 C   0  0  0  0  0  0  0  0  0  0  0  0
   10.5294  -17.8659   29.2385 O   0  0  0  0  0  0  0  0  0  0  0  0
    8.6707  -16.9936   28.2895 O   0  0  0  0  0  0  0  0  0  0  0  0
  2  1  1  6
  3  2  1  0
  3  4  1  0
  4  8  1  0
  5  4  2  0
  5  6  1  0
  6  7  1  0
  8  7  2  0
  9 10  2  0
  9  2  1  0
 12 11  1  6
 12 14  1  0
 13 12  1  0
 14 16  1  0
 14 15  1  6
 15  9  1  0
 16 22  1  0
 17 16  2  0
 19 18  1  6
 19 21  1  0
 20 19  1  0
 21 23  1  0
 21 22  1  6
 23 25  2  0
 23 24  1  0
M  END
$$$$
