HVV.pdb
     RDKit          3D

 25 25  0  0  1  0  0  0  0  0999 V2000
    9.4618  -18.8667   18.4358 N   0  0  0  0  0  0  0  0  0  0  0  0
    8.8775  -18.4107   19.6772 C   0  0  1  0  0  0  0  0  0  0  0  0
    9.1572  -19.3522   20.7970 C   0  0  0  0  0  0  0  0  0  0  0  0
    8.6240  -20.6866   20.4253 C   0  0  0  0  0  0  0  0  0  0  0  0
    7.3743  -21.0555   20.0017 C   0  0  0  0  0  0  0  0  0  0  0  0
    7.3483  -22.3925   19.7771 N   0  0  0  0  0  0  0  0  0  0  0  0
    8.5749  -22.8601   20.0582 C   0  0  0  0  0  0  0  0  0  0  0  0
    9.3483  -21.8172   20.4525 N   0  0  0  0  0  0  0  0  0  0  0  0
    9.2609  -17.0167   19.9192 C   0  0  0  0  0  0  0  0  0  0  0  0
   10.4897  -16.7505   19.9755 O   0  0  0  0  0  0  0  0  0  0  0  0
    6.4431  -14.0689   20.3542 C   0  0  0  0  0  0  0  0  0  0  0  0
    7.8271  -13.6557   19.9250 C   0  0  1  0  0  0  0  0  0  0  0  0
    8.1518  -12.2232   20.1455 C   0  0  0  0  0  0  0  0  0  0  0  0
    8.8705  -14.6331   20.4328 C   0  0  2  0  0  0  0  0  0  0  0  0
    8.3556  -15.9515   20.0936 N   0  0  0  0  0  0  0  0  0  0  0  0
    9.1518  -14.5043   21.8642 C   0  0  0  0  0  0  0  0  0  0  0  0
    9.7430  -13.4562   22.3032 O   0  0  0  0  0  0  0  0  0  0  0  0
    8.1404  -15.3384   26.5548 C   0  0  0  0  0  0  0  0  0  0  0  0
    7.8659  -15.3720   25.0676 C   0  0  1  0  0  0  0  0  0  0  0  0
    6.9532  -14.2180   24.7357 C   0  0  0  0  0  0  0  0  0  0  0  0
    9.1371  -15.2738   24.2589 C   0  0  2  0  0  0  0  0  0  0  0  0
    8.8118  -15.4748   22.8350 N   0  0  0  0  0  0  0  0  0  0  0  0
   10.0524  -16.3449   24.7109 C   0  0  0  0  0  0  0  0  0  0  0  0
   10.3627  -17.4259   23.9129 O   0  0  0  0  0  0  0  0  0  0  0  0
   10.5661  -16.2775   25.8509 O   0  0  0  0  0  0  0  0  0  0  0  0
  2  1  1  6
  3  2  1  0
  3  4  1  0
  4  8  1  0
  5  4  2  0
  5  6  1  0
  6  7  1  0
  8  7  2  0
  9 10  2  0
  9  2  1  0
 12 11  1  1
 12 14  1  0
 13 12  1  0
 14 16  1  0
 14 15  1  1
 15  9  1  0
 16 22  1  0
 17 16  2  0
 19 18  1  1
 19 21  1  0
 20 19  1  0
 21 23  1  0
 21 22  1  6
 23 25  2  0
 23 24  1  0
M  END
$$$$
