HVV.pdb
     RDKit          3D

 25 25  0  0  1  0  0  0  0  0999 V2000
    9.3478  -16.1008   20.2205 N   0  0  0  0  0  0  0  0  0  0  0  0
    8.8442  -16.7241   21.4240 C   0  0  1  0  0  0  0  0  0  0  0  0
    9.3840  -18.1011   21.5993 C   0  0  0  0  0  0  0  0  0  0  0  0
    8.7814  -18.9716   20.5591 C   0  0  0  0  0  0  0  0  0  0  0  0
    7.5087  -19.4659   20.4450 C   0  0  0  0  0  0  0  0  0  0  0  0
    7.4147  -20.2211   19.3227 N   0  0  0  0  0  0  0  0  0  0  0  0
    8.6219  -20.2009   18.7357 C   0  0  0  0  0  0  0  0  0  0  0  0
    9.4509  -19.4385   19.4926 N   0  0  0  0  0  0  0  0  0  0  0  0
    9.0401  -15.8236   22.5640 C   0  0  0  0  0  0  0  0  0  0  0  0
   10.2064  -15.4041   22.7828 O   0  0  0  0  0  0  0  0  0  0  0  0
    6.1516  -14.9357   25.6002 C   0  0  0  0  0  0  0  0  0  0  0  0
    7.0277  -13.8890   24.9619 C   0  0  1  0  0  0  0  0  0  0  0  0
    7.1336  -12.6135   25.7156 C   0  0  0  0  0  0  0  0  0  0  0  0
    8.3523  -14.4819   24.5196 C   0  0  2  0  0  0  0  0  0  0  0  0
    8.0195  -15.3924   23.4339 N   0  0  0  0  0  0  0  0  0  0  0  0
    9.0861  -15.1532   25.5946 C   0  0  0  0  0  0  0  0  0  0  0  0
    9.0970  -16.4327   25.6530 O   0  0  0  0  0  0  0  0  0  0  0  0
    9.8345  -13.4734   29.2636 C   0  0  0  0  0  0  0  0  0  0  0  0
   10.9955  -14.2726   28.7144 C   0  0  1  0  0  0  0  0  0  0  0  0
   11.6193  -15.0341   29.8572 C   0  0  0  0  0  0  0  0  0  0  0  0
   10.5568  -15.2314   27.6337 C   0  0  2  0  0  0  0  0  0  0  0  0
    9.8094  -14.4816   26.6075 N   0  0  0  0  0  0  0  0  0  0  0  0
    9.6689  -16.2420   28.2497 C   0  0  0  0  0  0  0  0  0  0  0  0
   10.1609  -17.3995   28.8151 O   0  0  0  0  0  0  0  0  0  0  0  0
    8.4315  -16.0502   28.2631 O   0  0  0  0  0  0  0  0  0  0  0  0
  2  1  1  6
  3  2  1  0
  3  4  1  0
  4  8  1  0
  5  4  2  0
  5  6  1  0
  6  7  1  0
  8  7  2  0
  9 10  2  0
  9  2  1  0
 12 11  1  1
 12 14  1  0
 13 12  1  0
 14 16  1  0
 14 15  1  6
 15  9  1  0
 16 22  1  0
 17 16  2  0
 19 18  1  1
 19 21  1  0
 20 19  1  0
 21 23  1  0
 21 22  1  6
 23 25  2  0
 23 24  1  0
M  END
$$$$
