HVV.pdb
     RDKit          3D

 25 25  0  0  1  0  0  0  0  0999 V2000
    8.5090  -16.1040   20.4722 N   0  0  0  0  0  0  0  0  0  0  0  0
    7.8361  -14.9954   21.1114 C   0  0  1  0  0  0  0  0  0  0  0  0
    6.7443  -14.4475   20.2593 C   0  0  0  0  0  0  0  0  0  0  0  0
    7.3283  -14.0551   18.9524 C   0  0  0  0  0  0  0  0  0  0  0  0
    8.0452  -12.9420   18.6001 C   0  0  0  0  0  0  0  0  0  0  0  0
    8.3744  -13.0119   17.2865 N   0  0  0  0  0  0  0  0  0  0  0  0
    7.8668  -14.1627   16.8170 C   0  0  0  0  0  0  0  0  0  0  0  0
    7.2306  -14.7944   17.8355 N   0  0  0  0  0  0  0  0  0  0  0  0
    7.4399  -15.3769   22.4702 C   0  0  0  0  0  0  0  0  0  0  0  0
    6.7285  -14.5671   23.1199 O   0  0  0  0  0  0  0  0  0  0  0  0
    8.5878  -18.9628   24.1169 C   0  0  0  0  0  0  0  0  0  0  0  0
    7.4292  -18.2367   24.7502 C   0  0  1  0  0  0  0  0  0  0  0  0
    7.1218  -18.6411   26.1460 C   0  0  0  0  0  0  0  0  0  0  0  0
    7.5356  -16.7399   24.5271 C   0  0  2  0  0  0  0  0  0  0  0  0
    7.7962  -16.5837   23.1037 N   0  0  0  0  0  0  0  0  0  0  0  0
    8.5612  -16.0928   25.3481 C   0  0  0  0  0  0  0  0  0  0  0  0
    9.7958  -16.2030   25.0250 O   0  0  0  0  0  0  0  0  0  0  0  0
    8.4620  -12.4136   26.5170 C   0  0  0  0  0  0  0  0  0  0  0  0
    8.8662  -13.2863   27.6846 C   0  0  1  0  0  0  0  0  0  0  0  0
    7.6615  -13.4610   28.5751 C   0  0  0  0  0  0  0  0  0  0  0  0
    9.3721  -14.6343   27.2302 C   0  0  2  0  0  0  0  0  0  0  0  0
    8.2911  -15.3291   26.5073 N   0  0  0  0  0  0  0  0  0  0  0  0
    9.7416  -15.4146   28.4318 C   0  0  0  0  0  0  0  0  0  0  0  0
   10.8525  -15.1080   29.1891 O   0  0  0  0  0  0  0  0  0  0  0  0
    9.0308  -16.3848   28.7804 O   0  0  0  0  0  0  0  0  0  0  0  0
  2  1  1  6
  3  2  1  0
  3  4  1  0
  4  8  1  0
  5  4  2  0
  5  6  1  0
  6  7  1  0
  8  7  2  0
  9 10  2  0
  9  2  1  0
 12 11  1  1
 12 14  1  0
 13 12  1  0
 14 16  1  0
 14 15  1  6
 15  9  1  0
 16 22  1  0
 17 16  2  0
 19 18  1  6
 19 21  1  0
 20 19  1  0
 21 23  1  0
 21 22  1  1
 23 25  2  0
 23 24  1  0
M  END
$$$$
