HVV.pdb
     RDKit          3D

 25 25  0  0  1  0  0  0  0  0999 V2000
    8.5701  -18.8902   20.3592 N   0  0  0  0  0  0  0  0  0  0  0  0
    8.0781  -18.3059   21.5868 C   0  0  1  0  0  0  0  0  0  0  0  0
    8.1967  -19.2495   22.7330 C   0  0  0  0  0  0  0  0  0  0  0  0
    7.2418  -20.3649   22.5165 C   0  0  0  0  0  0  0  0  0  0  0  0
    6.2636  -20.5235   21.5705 C   0  0  0  0  0  0  0  0  0  0  0  0
    5.6359  -21.7102   21.7621 N   0  0  0  0  0  0  0  0  0  0  0  0
    6.2171  -22.2931   22.8227 C   0  0  0  0  0  0  0  0  0  0  0  0
    7.1945  -21.4697   23.2787 N   0  0  0  0  0  0  0  0  0  0  0  0
    8.6961  -16.9922   21.7892 C   0  0  0  0  0  0  0  0  0  0  0  0
    9.9453  -16.9513   21.9373 O   0  0  0  0  0  0  0  0  0  0  0  0
    7.7318  -13.5758   20.0479 C   0  0  0  0  0  0  0  0  0  0  0  0
    7.8751  -13.4298   21.5408 C   0  0  1  0  0  0  0  0  0  0  0  0
    6.6086  -13.1660   22.2705 C   0  0  0  0  0  0  0  0  0  0  0  0
    8.7256  -14.5451   22.1190 C   0  0  2  0  0  0  0  0  0  0  0  0
    7.9955  -15.7707   21.8304 N   0  0  0  0  0  0  0  0  0  0  0  0
    9.0030  -14.3942   23.5490 C   0  0  0  0  0  0  0  0  0  0  0  0
   10.2157  -14.3480   23.9590 O   0  0  0  0  0  0  0  0  0  0  0  0
    7.6766  -11.8309   26.1414 C   0  0  0  0  0  0  0  0  0  0  0  0
    7.4667  -13.2344   26.6653 C   0  0  1  0  0  0  0  0  0  0  0  0
    6.0216  -13.6042   26.4416 C   0  0  0  0  0  0  0  0  0  0  0  0
    8.3672  -14.2319   25.9773 C   0  0  2  0  0  0  0  0  0  0  0  0
    8.0079  -14.2907   24.5485 N   0  0  0  0  0  0  0  0  0  0  0  0
    8.1423  -15.5567   26.5966 C   0  0  0  0  0  0  0  0  0  0  0  0
    8.5448  -15.8389   27.8850 O   0  0  0  0  0  0  0  0  0  0  0  0
    7.5701  -16.4560   25.9394 O   0  0  0  0  0  0  0  0  0  0  0  0
  2  1  1  6
  3  2  1  0
  3  4  1  0
  4  8  1  0
  5  4  2  0
  5  6  1  0
  6  7  1  0
  8  7  2  0
  9 10  2  0
  9  2  1  0
 12 11  1  6
 12 14  1  0
 13 12  1  0
 14 16  1  0
 14 15  1  1
 15  9  1  0
 16 22  1  0
 17 16  2  0
 19 18  1  6
 19 21  1  0
 20 19  1  0
 21 23  1  0
 21 22  1  6
 23 25  2  0
 23 24  1  0
M  END
$$$$
