HVV.pdb
     RDKit          3D

 25 25  0  0  1  0  0  0  0  0999 V2000
   10.0985  -16.8199   20.1135 N   0  0  0  0  0  0  0  0  0  0  0  0
   10.9045  -16.9993   21.3003 C   0  0  1  0  0  0  0  0  0  0  0  0
   12.2945  -16.5019   21.1034 C   0  0  0  0  0  0  0  0  0  0  0  0
   12.9943  -17.4327   20.1832 C   0  0  0  0  0  0  0  0  0  0  0  0
   13.0668  -18.8008   20.1921 C   0  0  0  0  0  0  0  0  0  0  0  0
   13.8238  -19.2214   19.1486 N   0  0  0  0  0  0  0  0  0  0  0  0
   14.2242  -18.1231   18.4884 C   0  0  0  0  0  0  0  0  0  0  0  0
   13.7164  -17.0362   19.1224 N   0  0  0  0  0  0  0  0  0  0  0  0
   10.2000  -16.4488   22.4620 C   0  0  0  0  0  0  0  0  0  0  0  0
   10.2723  -15.2070   22.6540 O   0  0  0  0  0  0  0  0  0  0  0  0
    7.5801  -18.6578   24.7438 C   0  0  0  0  0  0  0  0  0  0  0  0
    7.5206  -17.1522   24.7455 C   0  0  1  0  0  0  0  0  0  0  0  0
    6.7217  -16.5563   25.8468 C   0  0  0  0  0  0  0  0  0  0  0  0
    8.9011  -16.5512   24.5597 C   0  0  2  0  0  0  0  0  0  0  0  0
    9.4472  -17.2066   23.3804 N   0  0  0  0  0  0  0  0  0  0  0  0
    9.7726  -16.7038   25.7266 C   0  0  0  0  0  0  0  0  0  0  0  0
   10.6061  -17.6752   25.7738 O   0  0  0  0  0  0  0  0  0  0  0  0
   10.7333  -13.4891   28.1741 C   0  0  0  0  0  0  0  0  0  0  0  0
   10.6173  -14.8224   28.8792 C   0  0  1  0  0  0  0  0  0  0  0  0
    9.2680  -14.8790   29.5506 C   0  0  0  0  0  0  0  0  0  0  0  0
   10.7661  -15.9798   27.9211 C   0  0  2  0  0  0  0  0  0  0  0  0
    9.7701  -15.8363   26.8435 N   0  0  0  0  0  0  0  0  0  0  0  0
   10.5065  -17.2302   28.6682 C   0  0  0  0  0  0  0  0  0  0  0  0
   11.4297  -17.7643   29.5424 O   0  0  0  0  0  0  0  0  0  0  0  0
    9.4187  -17.8297   28.5093 O   0  0  0  0  0  0  0  0  0  0  0  0
  2  1  1  6
  3  2  1  0
  3  4  1  0
  4  8  1  0
  5  4  2  0
  5  6  1  0
  6  7  1  0
  8  7  2  0
  9 10  2  0
  9  2  1  0
 12 11  1  1
 12 14  1  0
 13 12  1  0
 14 16  1  0
 14 15  1  6
 15  9  1  0
 16 22  1  0
 17 16  2  0
 19 18  1  6
 19 21  1  0
 20 19  1  0
 21 23  1  0
 21 22  1  6
 23 25  2  0
 23 24  1  0
M  END
$$$$
