HVV.pdb
     RDKit          3D

 25 25  0  0  1  0  0  0  0  0999 V2000
    9.2610  -16.2472   20.6980 N   0  0  0  0  0  0  0  0  0  0  0  0
    8.5097  -16.6430   21.8681 C   0  0  1  0  0  0  0  0  0  0  0  0
    8.6578  -18.0975   22.1525 C   0  0  0  0  0  0  0  0  0  0  0  0
    8.0332  -18.8540   21.0387 C   0  0  0  0  0  0  0  0  0  0  0  0
    6.7458  -18.8408   20.5702 C   0  0  0  0  0  0  0  0  0  0  0  0
    6.6339  -19.7013   19.5281 N   0  0  0  0  0  0  0  0  0  0  0  0
    7.8446  -20.2514   19.3437 C   0  0  0  0  0  0  0  0  0  0  0  0
    8.6934  -19.7321   20.2662 N   0  0  0  0  0  0  0  0  0  0  0  0
    8.8308  -15.7496   22.9851 C   0  0  0  0  0  0  0  0  0  0  0  0
   10.0463  -15.5252   23.2223 O   0  0  0  0  0  0  0  0  0  0  0  0
    5.9650  -14.3816   25.7138 C   0  0  0  0  0  0  0  0  0  0  0  0
    7.1407  -13.5049   25.3676 C   0  0  1  0  0  0  0  0  0  0  0  0
    7.4366  -12.4331   26.3525 C   0  0  0  0  0  0  0  0  0  0  0  0
    8.3381  -14.3376   24.9501 C   0  0  2  0  0  0  0  0  0  0  0  0
    7.8794  -15.1228   23.8136 N   0  0  0  0  0  0  0  0  0  0  0  0
    8.8721  -15.1812   26.0215 C   0  0  0  0  0  0  0  0  0  0  0  0
    8.4188  -16.3686   26.1803 O   0  0  0  0  0  0  0  0  0  0  0  0
   12.7261  -14.6211   27.3442 C   0  0  0  0  0  0  0  0  0  0  0  0
   11.7728  -15.1143   28.4102 C   0  0  1  0  0  0  0  0  0  0  0  0
   11.3772  -13.9352   29.2635 C   0  0  0  0  0  0  0  0  0  0  0  0
   10.5432  -15.7544   27.8121 C   0  0  2  0  0  0  0  0  0  0  0  0
    9.8827  -14.7790   26.9254 N   0  0  0  0  0  0  0  0  0  0  0  0
    9.6282  -16.1127   28.9183 C   0  0  0  0  0  0  0  0  0  0  0  0
    9.8689  -17.1890   29.7461 O   0  0  0  0  0  0  0  0  0  0  0  0
    8.6014  -15.4243   29.1175 O   0  0  0  0  0  0  0  0  0  0  0  0
  2  1  1  6
  3  2  1  0
  3  4  1  0
  4  8  1  0
  5  4  2  0
  5  6  1  0
  6  7  1  0
  8  7  2  0
  9 10  2  0
  9  2  1  0
 12 11  1  1
 12 14  1  0
 13 12  1  0
 14 16  1  0
 14 15  1  6
 15  9  1  0
 16 22  1  0
 17 16  2  0
 19 18  1  6
 19 21  1  0
 20 19  1  0
 21 23  1  0
 21 22  1  6
 23 25  2  0
 23 24  1  0
M  END
$$$$
