HGC.pdb
     RDKit          3D

 21 21  0  0  1  0  0  0  0  0999 V2000
    5.2607  -18.8730   22.5746 N   0  0  0  0  0  0  0  0  0  0  0  0
    5.4021  -18.6162   21.1671 C   0  0  1  0  0  0  0  0  0  0  0  0
    4.1302  -18.0274   20.5870 C   0  0  0  0  0  0  0  0  0  0  0  0
    2.9946  -18.9384   20.7690 C   0  0  0  0  0  0  0  0  0  0  0  0
    1.9485  -18.7782   21.6315 C   0  0  0  0  0  0  0  0  0  0  0  0
    1.1200  -19.8274   21.4969 N   0  0  0  0  0  0  0  0  0  0  0  0
    1.6282  -20.6489   20.5609 C   0  0  0  0  0  0  0  0  0  0  0  0
    2.7785  -20.0968   20.1189 N   0  0  0  0  0  0  0  0  0  0  0  0
    6.5265  -17.7040   20.8653 C   0  0  0  0  0  0  0  0  0  0  0  0
    6.9496  -17.6379   19.6828 O   0  0  0  0  0  0  0  0  0  0  0  0
    7.1611  -16.8912   21.8432 N   0  0  0  0  0  0  0  0  0  0  0  0
    8.3386  -16.1037   21.4892 C   0  0  0  0  0  0  0  0  0  0  0  0
    8.8545  -15.3442   22.6343 C   0  0  0  0  0  0  0  0  0  0  0  0
    9.8807  -14.6356   22.4806 O   0  0  0  0  0  0  0  0  0  0  0  0
    8.2376  -15.3867   23.8887 N   0  0  0  0  0  0  0  0  0  0  0  0
    8.8385  -14.9788   25.1292 C   0  0  1  0  0  0  0  0  0  0  0  0
    7.8879  -14.2629   26.0509 C   0  0  0  0  0  0  0  0  0  0  0  0
    6.7502  -13.1825   25.1427 S   0  0  0  0  0  0  0  0  0  0  0  0
    9.4355  -16.1290   25.8625 C   0  0  0  0  0  0  0  0  0  0  0  0
    9.2950  -17.2910   25.4605 O   0  0  0  0  0  0  0  0  0  0  0  0
   10.1621  -15.8782   27.0195 O   0  0  0  0  0  0  0  0  0  0  0  0
  2  1  1  1
  3  2  1  0
  3  4  1  0
  4  5  2  0
  5  6  1  0
  7  6  1  0
  8  4  1  0
  8  7  2  0
  9  2  1  0
  9 10  2  0
 11  9  1  0
 12 11  1  0
 12 13  1  0
 13 15  1  0
 14 13  2  0
 15 16  1  0
 16 17  1  1
 17 18  1  0
 19 16  1  0
 19 21  1  0
 20 19  2  0
M  END
$$$$
