HGC.pdb
     RDKit          3D

 21 21  0  0  1  0  0  0  0  0999 V2000
    9.0538  -15.7043   20.0362 N   0  0  0  0  0  0  0  0  0  0  0  0
    8.4710  -14.5586   20.6802 C   0  0  1  0  0  0  0  0  0  0  0  0
    7.2331  -14.0857   19.9421 C   0  0  0  0  0  0  0  0  0  0  0  0
    7.5126  -13.8832   18.5160 C   0  0  0  0  0  0  0  0  0  0  0  0
    8.1696  -12.8265   17.9540 C   0  0  0  0  0  0  0  0  0  0  0  0
    8.2198  -13.0136   16.6244 N   0  0  0  0  0  0  0  0  0  0  0  0
    7.6034  -14.1743   16.3381 C   0  0  0  0  0  0  0  0  0  0  0  0
    7.1721  -14.7021   17.5038 N   0  0  0  0  0  0  0  0  0  0  0  0
    8.1099  -14.8208   22.0903 C   0  0  0  0  0  0  0  0  0  0  0  0
    7.6765  -13.8694   22.7894 O   0  0  0  0  0  0  0  0  0  0  0  0
    8.2256  -16.0968   22.7052 N   0  0  0  0  0  0  0  0  0  0  0  0
    7.8438  -16.2736   24.1034 C   0  0  0  0  0  0  0  0  0  0  0  0
    8.9273  -15.8967   25.0191 C   0  0  0  0  0  0  0  0  0  0  0  0
   10.0984  -15.8113   24.5719 O   0  0  0  0  0  0  0  0  0  0  0  0
    8.6936  -15.6306   26.3720 N   0  0  0  0  0  0  0  0  0  0  0  0
    9.7017  -15.3192   27.3482 C   0  0  1  0  0  0  0  0  0  0  0  0
    9.2127  -14.4196   28.4515 C   0  0  0  0  0  0  0  0  0  0  0  0
   10.5324  -14.0098   29.6249 S   0  0  0  0  0  0  0  0  0  0  0  0
   10.2826  -16.5468   27.9586 C   0  0  0  0  0  0  0  0  0  0  0  0
    9.5838  -17.5406   28.1942 O   0  0  0  0  0  0  0  0  0  0  0  0
   11.6374  -16.5630   28.2647 O   0  0  0  0  0  0  0  0  0  0  0  0
  2  1  1  6
  3  2  1  0
  3  4  1  0
  4  5  2  0
  5  6  1  0
  7  6  1  0
  8  4  1  0
  8  7  2  0
  9  2  1  0
  9 10  2  0
 11  9  1  0
 12 11  1  0
 12 13  1  0
 13 15  1  0
 14 13  2  0
 15 16  1  0
 16 17  1  1
 17 18  1  0
 19 16  1  0
 19 21  1  0
 20 19  2  0
M  END
$$$$
