HGC.pdb
     RDKit          3D

 21 21  0  0  1  0  0  0  0  0999 V2000
    7.7279  -19.5343   24.5427 N   0  0  0  0  0  0  0  0  0  0  0  0
    7.7992  -19.4311   23.1104 C   0  0  1  0  0  0  0  0  0  0  0  0
    6.4186  -19.5046   22.4863 C   0  0  0  0  0  0  0  0  0  0  0  0
    5.6384  -20.6085   23.0568 C   0  0  0  0  0  0  0  0  0  0  0  0
    5.9965  -21.4060   24.1054 C   0  0  0  0  0  0  0  0  0  0  0  0
    5.0129  -22.2958   24.3203 N   0  0  0  0  0  0  0  0  0  0  0  0
    4.0376  -22.0717   23.4216 C   0  0  0  0  0  0  0  0  0  0  0  0
    4.4284  -21.0349   22.6497 N   0  0  0  0  0  0  0  0  0  0  0  0
    8.4554  -18.1839   22.6618 C   0  0  0  0  0  0  0  0  0  0  0  0
    8.5880  -17.9818   21.4275 O   0  0  0  0  0  0  0  0  0  0  0  0
    8.9487  -17.1929   23.5530 N   0  0  0  0  0  0  0  0  0  0  0  0
    9.5451  -15.9676   23.0285 C   0  0  0  0  0  0  0  0  0  0  0  0
    9.9162  -15.0364   24.1007 C   0  0  0  0  0  0  0  0  0  0  0  0
   10.0906  -13.8243   23.8191 O   0  0  0  0  0  0  0  0  0  0  0  0
   10.0808  -15.4589   25.4236 N   0  0  0  0  0  0  0  0  0  0  0  0
    9.4514  -14.8688   26.5733 C   0  0  1  0  0  0  0  0  0  0  0  0
    8.0577  -14.3676   26.3048 C   0  0  0  0  0  0  0  0  0  0  0  0
    7.5958  -13.0204   27.4265 S   0  0  0  0  0  0  0  0  0  0  0  0
    9.4038  -15.8104   27.7258 C   0  0  0  0  0  0  0  0  0  0  0  0
    9.1116  -17.0030   27.5704 O   0  0  0  0  0  0  0  0  0  0  0  0
    9.6953  -15.3272   28.9950 O   0  0  0  0  0  0  0  0  0  0  0  0
  2  1  1  1
  3  2  1  0
  3  4  1  0
  4  5  2  0
  5  6  1  0
  7  6  1  0
  8  4  1  0
  8  7  2  0
  9  2  1  0
  9 10  2  0
 11  9  1  0
 12 11  1  0
 12 13  1  0
 13 15  1  0
 14 13  2  0
 15 16  1  0
 16 17  1  6
 17 18  1  0
 19 16  1  0
 19 21  1  0
 20 19  2  0
M  END
$$$$
