HGC.pdb
     RDKit          3D

 21 21  0  0  1  0  0  0  0  0999 V2000
    9.6842  -15.6463   20.2748 N   0  0  0  0  0  0  0  0  0  0  0  0
    8.6270  -14.7776   20.7162 C   0  0  1  0  0  0  0  0  0  0  0  0
    7.3913  -14.9347   19.8506 C   0  0  0  0  0  0  0  0  0  0  0  0
    7.6007  -14.3544   18.5194 C   0  0  0  0  0  0  0  0  0  0  0  0
    8.7438  -13.7719   18.0524 C   0  0  0  0  0  0  0  0  0  0  0  0
    8.5309  -13.3669   16.7891 N   0  0  0  0  0  0  0  0  0  0  0  0
    7.2685  -13.6854   16.4509 C   0  0  0  0  0  0  0  0  0  0  0  0
    6.7041  -14.2910   17.5177 N   0  0  0  0  0  0  0  0  0  0  0  0
    8.2495  -15.0120   22.1269 C   0  0  0  0  0  0  0  0  0  0  0  0
    7.5207  -14.1658   22.7054 O   0  0  0  0  0  0  0  0  0  0  0  0
    8.6667  -16.1479   22.8720 N   0  0  0  0  0  0  0  0  0  0  0  0
    8.2172  -16.3257   24.2499 C   0  0  0  0  0  0  0  0  0  0  0  0
    9.1546  -15.7348   25.2125 C   0  0  0  0  0  0  0  0  0  0  0  0
   10.3718  -15.6629   24.9093 O   0  0  0  0  0  0  0  0  0  0  0  0
    8.7322  -15.2507   26.4547 N   0  0  0  0  0  0  0  0  0  0  0  0
    9.5635  -14.5785   27.4157 C   0  0  1  0  0  0  0  0  0  0  0  0
    8.8467  -13.4967   28.1783 C   0  0  0  0  0  0  0  0  0  0  0  0
    7.8274  -12.4646   27.0909 S   0  0  0  0  0  0  0  0  0  0  0  0
   10.1652  -15.5286   28.3915 C   0  0  0  0  0  0  0  0  0  0  0  0
    9.7908  -16.7064   28.4572 O   0  0  0  0  0  0  0  0  0  0  0  0
   11.1659  -15.0705   29.2389 O   0  0  0  0  0  0  0  0  0  0  0  0
  2  1  1  6
  3  2  1  0
  3  4  1  0
  4  5  2  0
  5  6  1  0
  7  6  1  0
  8  4  1  0
  8  7  2  0
  9  2  1  0
  9 10  2  0
 11  9  1  0
 12 11  1  0
 12 13  1  0
 13 15  1  0
 14 13  2  0
 15 16  1  0
 16 17  1  1
 17 18  1  0
 19 16  1  0
 19 21  1  0
 20 19  2  0
M  END
$$$$
