HGC.pdb
     RDKit          3D

 21 21  0  0  1  0  0  0  0  0999 V2000
    9.8877  -16.5560   18.1195 N   0  0  0  0  0  0  0  0  0  0  0  0
    9.4522  -16.7258   19.4791 C   0  0  1  0  0  0  0  0  0  0  0  0
    7.9647  -16.4618   19.6151 C   0  0  0  0  0  0  0  0  0  0  0  0
    7.6322  -15.0898   19.2152 C   0  0  0  0  0  0  0  0  0  0  0  0
    8.4995  -14.1378   18.7619 C   0  0  0  0  0  0  0  0  0  0  0  0
    7.8053  -13.0169   18.5028 N   0  0  0  0  0  0  0  0  0  0  0  0
    6.5108  -13.2473   18.7862 C   0  0  0  0  0  0  0  0  0  0  0  0
    6.4123  -14.5213   19.2228 N   0  0  0  0  0  0  0  0  0  0  0  0
    9.7430  -18.0771   20.0052 C   0  0  0  0  0  0  0  0  0  0  0  0
   10.0662  -18.9835   19.1954 O   0  0  0  0  0  0  0  0  0  0  0  0
    9.6775  -18.4125   21.3846 N   0  0  0  0  0  0  0  0  0  0  0  0
   10.1081  -19.7316   21.8391 C   0  0  0  0  0  0  0  0  0  0  0  0
   11.4376  -19.6905   22.4596 C   0  0  0  0  0  0  0  0  0  0  0  0
   11.8819  -20.7272   23.0133 O   0  0  0  0  0  0  0  0  0  0  0  0
   12.2221  -18.5327   22.4521 N   0  0  0  0  0  0  0  0  0  0  0  0
   13.4849  -18.3751   23.1204 C   0  0  1  0  0  0  0  0  0  0  0  0
   14.2586  -17.1664   22.6665 C   0  0  0  0  0  0  0  0  0  0  0  0
   15.8587  -17.0326   23.5082 S   0  0  0  0  0  0  0  0  0  0  0  0
   13.3269  -18.3101   24.5995 C   0  0  0  0  0  0  0  0  0  0  0  0
   12.5059  -17.5481   25.1259 O   0  0  0  0  0  0  0  0  0  0  0  0
   14.1234  -19.1264   25.3924 O   0  0  0  0  0  0  0  0  0  0  0  0
  2  1  1  6
  3  2  1  0
  3  4  1  0
  4  5  2  0
  5  6  1  0
  7  6  1  0
  8  4  1  0
  8  7  2  0
  9  2  1  0
  9 10  2  0
 11  9  1  0
 12 11  1  0
 12 13  1  0
 13 15  1  0
 14 13  2  0
 15 16  1  0
 16 17  1  6
 17 18  1  0
 19 16  1  0
 19 21  1  0
 20 19  2  0
M  END
$$$$
