HGC.pdb
     RDKit          3D

 21 21  0  0  1  0  0  0  0  0999 V2000
    7.5344  -16.5255   20.8152 N   0  0  0  0  0  0  0  0  0  0  0  0
    8.8767  -16.0523   21.0184 C   0  0  1  0  0  0  0  0  0  0  0  0
    8.9963  -14.5795   20.6756 C   0  0  0  0  0  0  0  0  0  0  0  0
    8.5765  -14.3224   19.2934 C   0  0  0  0  0  0  0  0  0  0  0  0
    8.1908  -15.2513   18.3702 C   0  0  0  0  0  0  0  0  0  0  0  0
    7.8841  -14.6151   17.2272 N   0  0  0  0  0  0  0  0  0  0  0  0
    8.0706  -13.2963   17.4152 C   0  0  0  0  0  0  0  0  0  0  0  0
    8.4954  -13.1244   18.6854 N   0  0  0  0  0  0  0  0  0  0  0  0
    9.3475  -16.2550   22.4058 C   0  0  0  0  0  0  0  0  0  0  0  0
   10.5421  -15.9772   22.6844 O   0  0  0  0  0  0  0  0  0  0  0  0
    8.5205  -16.7496   23.4502 N   0  0  0  0  0  0  0  0  0  0  0  0
    9.0834  -16.9998   24.7741 C   0  0  0  0  0  0  0  0  0  0  0  0
    9.4413  -15.7535   25.4619 C   0  0  0  0  0  0  0  0  0  0  0  0
   10.5409  -15.2070   25.1954 O   0  0  0  0  0  0  0  0  0  0  0  0
    8.5952  -15.1586   26.4031 N   0  0  0  0  0  0  0  0  0  0  0  0
    8.9048  -13.9934   27.1858 C   0  0  1  0  0  0  0  0  0  0  0  0
    7.6952  -13.1749   27.5499 C   0  0  0  0  0  0  0  0  0  0  0  0
    6.5541  -12.9962   26.1525 S   0  0  0  0  0  0  0  0  0  0  0  0
    9.6365  -14.3411   28.4351 C   0  0  0  0  0  0  0  0  0  0  0  0
    9.7856  -15.5183   28.7869 O   0  0  0  0  0  0  0  0  0  0  0  0
   10.1570  -13.3138   29.2117 O   0  0  0  0  0  0  0  0  0  0  0  0
  2  1  1  1
  3  2  1  0
  3  4  1  0
  4  5  2  0
  5  6  1  0
  7  6  1  0
  8  4  1  0
  8  7  2  0
  9  2  1  0
  9 10  2  0
 11  9  1  0
 12 11  1  0
 12 13  1  0
 13 15  1  0
 14 13  2  0
 15 16  1  0
 16 17  1  1
 17 18  1  0
 19 16  1  0
 19 21  1  0
 20 19  2  0
M  END
$$$$
