HGC.pdb
     RDKit          3D

 21 21  0  0  1  0  0  0  0  0999 V2000
    7.3130  -16.2502   19.7213 N   0  0  0  0  0  0  0  0  0  0  0  0
    8.5600  -16.2259   20.4364 C   0  0  1  0  0  0  0  0  0  0  0  0
    9.3513  -14.9721   20.1156 C   0  0  0  0  0  0  0  0  0  0  0  0
    9.0162  -14.4621   18.7813 C   0  0  0  0  0  0  0  0  0  0  0  0
    9.8080  -14.4991   17.6697 C   0  0  0  0  0  0  0  0  0  0  0  0
    9.1400  -13.9320   16.6510 N   0  0  0  0  0  0  0  0  0  0  0  0
    7.9365  -13.5370   17.1035 C   0  0  0  0  0  0  0  0  0  0  0  0
    7.8678  -13.8657   18.4114 N   0  0  0  0  0  0  0  0  0  0  0  0
    8.3774  -16.3081   21.9018 C   0  0  0  0  0  0  0  0  0  0  0  0
    9.3930  -16.4519   22.6296 O   0  0  0  0  0  0  0  0  0  0  0  0
    7.1096  -16.2332   22.5395 N   0  0  0  0  0  0  0  0  0  0  0  0
    7.0126  -16.3438   23.9922 C   0  0  0  0  0  0  0  0  0  0  0  0
    7.7259  -15.2567   24.6734 C   0  0  0  0  0  0  0  0  0  0  0  0
    8.8031  -14.8357   24.1823 O   0  0  0  0  0  0  0  0  0  0  0  0
    7.2417  -14.6777   25.8507 N   0  0  0  0  0  0  0  0  0  0  0  0
    7.8726  -13.6099   26.5771 C   0  0  1  0  0  0  0  0  0  0  0  0
    6.8977  -12.6315   27.1754 C   0  0  0  0  0  0  0  0  0  0  0  0
    5.1970  -13.2575   27.1290 S   0  0  0  0  0  0  0  0  0  0  0  0
    8.7575  -14.1210   27.6601 C   0  0  0  0  0  0  0  0  0  0  0  0
    8.7381  -15.3113   27.9987 O   0  0  0  0  0  0  0  0  0  0  0  0
    9.6170  -13.2333   28.2945 O   0  0  0  0  0  0  0  0  0  0  0  0
  2  1  1  6
  3  2  1  0
  3  4  1  0
  4  5  2  0
  5  6  1  0
  7  6  1  0
  8  4  1  0
  8  7  2  0
  9  2  1  0
  9 10  2  0
 11  9  1  0
 12 11  1  0
 12 13  1  0
 13 15  1  0
 14 13  2  0
 15 16  1  0
 16 17  1  1
 17 18  1  0
 19 16  1  0
 19 21  1  0
 20 19  2  0
M  END
$$$$
