FDY.pdb
     RDKit          3D

 32 33  0  0  1  0  0  0  0  0999 V2000
   23.5229  -20.8847  -15.1424 N   0  0  0  0  0  0  0  0  0  0  0  0
   23.0025  -22.0578  -14.4807 C   0  0  1  0  0  0  0  0  0  0  0  0
   24.1725  -22.7519  -13.7977 C   0  0  0  0  0  0  0  0  0  0  0  0
   25.0523  -23.4467  -14.7561 C   0  0  0  0  0  0  0  0  0  0  0  0
   24.8396  -24.7221  -15.2039 C   0  0  0  0  0  0  0  0  0  0  0  0
   25.6674  -25.3530  -16.0954 C   0  0  0  0  0  0  0  0  0  0  0  0
   26.7796  -24.6748  -16.5745 C   0  0  0  0  0  0  0  0  0  0  0  0
   27.0186  -23.3895  -16.1410 C   0  0  0  0  0  0  0  0  0  0  0  0
   26.1664  -22.7805  -15.2423 C   0  0  0  0  0  0  0  0  0  0  0  0
   22.0395  -21.6880  -13.4154 C   0  0  0  0  0  0  0  0  0  0  0  0
   22.4140  -20.8822  -12.5337 O   0  0  0  0  0  0  0  0  0  0  0  0
   20.7149  -22.1969  -13.3392 N   0  0  0  0  0  0  0  0  0  0  0  0
   19.7733  -21.7924  -12.3350 C   0  0  1  0  0  0  0  0  0  0  0  0
   18.5543  -21.1528  -12.9131 C   0  0  0  0  0  0  0  0  0  0  0  0
   18.0580  -21.8334  -14.1334 C   0  0  0  0  0  0  0  0  0  0  0  0
   18.6566  -22.8169  -14.6356 O   0  0  0  0  0  0  0  0  0  0  0  0
   19.4177  -22.9510  -11.4416 C   0  0  0  0  0  0  0  0  0  0  0  0
   19.5249  -24.1337  -11.8901 O   0  0  0  0  0  0  0  0  0  0  0  0
   16.9040  -21.4114  -14.7777 O   0  0  0  0  0  0  0  0  0  0  0  0
   15.9517  -27.0879   -4.2904 O   0  0  0  0  0  0  0  0  0  0  0  0
   16.5255  -26.1679   -5.1679 C   0  0  0  0  0  0  0  0  0  0  0  0
   15.7726  -25.2238   -5.8332 C   0  0  0  0  0  0  0  0  0  0  0  0
   16.3159  -24.3072   -6.7022 C   0  0  0  0  0  0  0  0  0  0  0  0
   17.6724  -24.2957   -6.9494 C   0  0  0  0  0  0  0  0  0  0  0  0
   18.2795  -23.3300   -7.8888 C   0  0  0  0  0  0  0  0  0  0  0  0
   18.4509  -23.8621   -9.2905 C   0  0  2  0  0  0  0  0  0  0  0  0
   18.9701  -22.7773  -10.1264 N   0  0  0  0  0  0  0  0  0  0  0  0
   17.1281  -24.2426   -9.8207 C   0  0  0  0  0  0  0  0  0  0  0  0
   16.6808  -25.5506   -9.9446 O   0  0  0  0  0  0  0  0  0  0  0  0
   18.4462  -25.2378   -6.2898 C   0  0  0  0  0  0  0  0  0  0  0  0
   17.8801  -26.1466   -5.4232 C   0  0  0  0  0  0  0  0  0  0  0  0
   16.3305  -23.3497  -10.1946 O   0  0  0  0  0  0  0  0  0  0  0  0
  2  1  1  1
  3  2  1  0
  4  3  1  0
  4  9  1  0
  5  4  2  0
  6  5  1  0
  6  7  2  0
  7  8  1  0
  8  9  2  0
 10  2  1  0
 10 11  2  0
 12 10  1  0
 13 12  1  0
 13 14  1  6
 15 14  1  0
 15 19  1  0
 16 15  2  0
 17 13  1  0
 18 17  2  0
 20 21  1  0
 21 22  2  0
 22 23  1  0
 24 23  2  0
 24 25  1  0
 26 25  1  1
 26 28  1  0
 26 27  1  0
 27 17  1  0
 28 29  1  0
 30 24  1  0
 31 21  1  0
 31 30  2  0
 32 28  2  0
M  END
$$$$
