FDY.pdb
     RDKit          3D

 32 33  0  0  1  0  0  0  0  0999 V2000
   25.5991  -11.8243  -15.9033 N   0  0  0  0  0  0  0  0  0  0  0  0
   25.1155  -11.0924  -17.0502 C   0  0  1  0  0  0  0  0  0  0  0  0
   23.6751  -11.5222  -17.2902 C   0  0  0  0  0  0  0  0  0  0  0  0
   23.5798  -12.8805  -17.8571 C   0  0  0  0  0  0  0  0  0  0  0  0
   22.9470  -13.9245  -17.2392 C   0  0  0  0  0  0  0  0  0  0  0  0
   22.8675  -15.1811  -17.7805 C   0  0  0  0  0  0  0  0  0  0  0  0
   23.4540  -15.4181  -19.0159 C   0  0  0  0  0  0  0  0  0  0  0  0
   24.0979  -14.3856  -19.6610 C   0  0  0  0  0  0  0  0  0  0  0  0
   24.1614  -13.1305  -19.0903 C   0  0  0  0  0  0  0  0  0  0  0  0
   25.0912   -9.6341  -16.7827 C   0  0  0  0  0  0  0  0  0  0  0  0
   24.9427   -9.2524  -15.5998 O   0  0  0  0  0  0  0  0  0  0  0  0
   25.2269   -8.6451  -17.7940 N   0  0  0  0  0  0  0  0  0  0  0  0
   25.2433   -7.2368  -17.5198 C   0  0  1  0  0  0  0  0  0  0  0  0
   26.0940   -6.4731  -18.4802 C   0  0  0  0  0  0  0  0  0  0  0  0
   26.1995   -5.0311  -18.1512 C   0  0  0  0  0  0  0  0  0  0  0  0
   26.3559   -4.1567  -19.0394 O   0  0  0  0  0  0  0  0  0  0  0  0
   23.8419   -6.6888  -17.4674 C   0  0  0  0  0  0  0  0  0  0  0  0
   23.0295   -6.9772  -18.3993 O   0  0  0  0  0  0  0  0  0  0  0  0
   26.1298   -4.5819  -16.8404 O   0  0  0  0  0  0  0  0  0  0  0  0
   16.2635   -3.5661  -14.0563 O   0  0  0  0  0  0  0  0  0  0  0  0
   17.5750   -3.9956  -14.2585 C   0  0  0  0  0  0  0  0  0  0  0  0
   18.6495   -3.1376  -14.1578 C   0  0  0  0  0  0  0  0  0  0  0  0
   19.9503   -3.5380  -14.3525 C   0  0  0  0  0  0  0  0  0  0  0  0
   20.2396   -4.8496  -14.6648 C   0  0  0  0  0  0  0  0  0  0  0  0
   21.6276   -5.3028  -14.8920 C   0  0  0  0  0  0  0  0  0  0  0  0
   22.0380   -5.3190  -16.3442 C   0  0  2  0  0  0  0  0  0  0  0  0
   23.3934   -5.8678  -16.4256 N   0  0  0  0  0  0  0  0  0  0  0  0
   22.0858   -3.9310  -16.8412 C   0  0  0  0  0  0  0  0  0  0  0  0
   21.0531   -3.3098  -17.5296 O   0  0  0  0  0  0  0  0  0  0  0  0
   19.1722   -5.7275  -14.7707 C   0  0  0  0  0  0  0  0  0  0  0  0
   17.8768   -5.3039  -14.5711 C   0  0  0  0  0  0  0  0  0  0  0  0
   23.1135   -3.2386  -16.6470 O   0  0  0  0  0  0  0  0  0  0  0  0
  2  1  1  1
  3  2  1  0
  4  3  1  0
  4  9  1  0
  5  4  2  0
  6  5  1  0
  6  7  2  0
  7  8  1  0
  8  9  2  0
 10  2  1  0
 10 11  2  0
 12 10  1  0
 13 12  1  0
 13 14  1  6
 15 14  1  0
 15 19  1  0
 16 15  2  0
 17 13  1  0
 18 17  2  0
 20 21  1  0
 21 22  2  0
 22 23  1  0
 24 23  2  0
 24 25  1  0
 26 25  1  1
 26 28  1  0
 26 27  1  0
 27 17  1  0
 28 29  1  0
 30 24  1  0
 31 21  1  0
 31 30  2  0
 32 28  2  0
M  END
$$$$
