FDY.pdb
     RDKit          3D

 32 33  0  0  1  0  0  0  0  0999 V2000
   24.3947  -18.2339  -22.4068 N   0  0  0  0  0  0  0  0  0  0  0  0
   24.3545  -18.0313  -20.9778 C   0  0  1  0  0  0  0  0  0  0  0  0
   23.6440  -16.7089  -20.7254 C   0  0  0  0  0  0  0  0  0  0  0  0
   24.4006  -15.5548  -21.2459 C   0  0  0  0  0  0  0  0  0  0  0  0
   24.1502  -14.9566  -22.4508 C   0  0  0  0  0  0  0  0  0  0  0  0
   24.8632  -13.8841  -22.9195 C   0  0  0  0  0  0  0  0  0  0  0  0
   25.8924  -13.3709  -22.1424 C   0  0  0  0  0  0  0  0  0  0  0  0
   26.1668  -13.9533  -20.9248 C   0  0  0  0  0  0  0  0  0  0  0  0
   25.4310  -15.0327  -20.4796 C   0  0  0  0  0  0  0  0  0  0  0  0
   23.5530  -19.0853  -20.3105 C   0  0  0  0  0  0  0  0  0  0  0  0
   22.4844  -19.4477  -20.8526 O   0  0  0  0  0  0  0  0  0  0  0  0
   23.9298  -19.7076  -19.0898 N   0  0  0  0  0  0  0  0  0  0  0  0
   23.1665  -20.7535  -18.4716 C   0  0  1  0  0  0  0  0  0  0  0  0
   23.9783  -21.5781  -17.5280 C   0  0  0  0  0  0  0  0  0  0  0  0
   24.8609  -22.5536  -18.2124 C   0  0  0  0  0  0  0  0  0  0  0  0
   25.6642  -23.2817  -17.5780 O   0  0  0  0  0  0  0  0  0  0  0  0
   21.9412  -20.1923  -17.8003 C   0  0  0  0  0  0  0  0  0  0  0  0
   22.0446  -19.1314  -17.1110 O   0  0  0  0  0  0  0  0  0  0  0  0
   24.8378  -22.7059  -19.5912 O   0  0  0  0  0  0  0  0  0  0  0  0
   13.4158  -18.3452  -16.2038 O   0  0  0  0  0  0  0  0  0  0  0  0
   14.6603  -18.7106  -16.7167 C   0  0  0  0  0  0  0  0  0  0  0  0
   14.9713  -20.0192  -17.0191 C   0  0  0  0  0  0  0  0  0  0  0  0
   16.1907  -20.4029  -17.5255 C   0  0  0  0  0  0  0  0  0  0  0  0
   17.1777  -19.4684  -17.7573 C   0  0  0  0  0  0  0  0  0  0  0  0
   18.5010  -19.8561  -18.2884 C   0  0  0  0  0  0  0  0  0  0  0  0
   19.4805  -20.3015  -17.2303 C   0  0  2  0  0  0  0  0  0  0  0  0
   20.6824  -20.7963  -17.9053 N   0  0  0  0  0  0  0  0  0  0  0  0
   18.8923  -21.4271  -16.4802 C   0  0  0  0  0  0  0  0  0  0  0  0
   19.1069  -22.7652  -16.7798 O   0  0  0  0  0  0  0  0  0  0  0  0
   16.8838  -18.1469  -17.4591 C   0  0  0  0  0  0  0  0  0  0  0  0
   15.6549  -17.7856  -16.9526 C   0  0  0  0  0  0  0  0  0  0  0  0
   18.1425  -21.1950  -15.5017 O   0  0  0  0  0  0  0  0  0  0  0  0
  2  1  1  6
  3  2  1  0
  4  3  1  0
  4  9  1  0
  5  4  2  0
  6  5  1  0
  6  7  2  0
  7  8  1  0
  8  9  2  0
 10  2  1  0
 10 11  2  0
 12 10  1  0
 13 12  1  0
 13 14  1  1
 15 14  1  0
 15 19  1  0
 16 15  2  0
 17 13  1  0
 18 17  2  0
 20 21  1  0
 21 22  2  0
 22 23  1  0
 24 23  2  0
 24 25  1  0
 26 25  1  6
 26 28  1  0
 26 27  1  0
 27 17  1  0
 28 29  1  0
 30 24  1  0
 31 21  1  0
 31 30  2  0
 32 28  2  0
M  END
$$$$
