FDY.pdb
     RDKit          3D

 32 33  0  0  1  0  0  0  0  0999 V2000
   17.9201  -16.4336    7.0353 N   0  0  0  0  0  0  0  0  0  0  0  0
   17.3407  -17.2341    5.9826 C   0  0  1  0  0  0  0  0  0  0  0  0
   18.0099  -16.8243    4.6782 C   0  0  0  0  0  0  0  0  0  0  0  0
   17.5448  -15.5106    4.1952 C   0  0  0  0  0  0  0  0  0  0  0  0
   16.2722  -15.2636    3.7570 C   0  0  0  0  0  0  0  0  0  0  0  0
   15.8563  -14.0361    3.3114 C   0  0  0  0  0  0  0  0  0  0  0  0
   16.7617  -12.9842    3.2995 C   0  0  0  0  0  0  0  0  0  0  0  0
   18.0497  -13.2039    3.7350 C   0  0  0  0  0  0  0  0  0  0  0  0
   18.4391  -14.4517    4.1782 C   0  0  0  0  0  0  0  0  0  0  0  0
   17.6329  -18.6739    6.1831 C   0  0  0  0  0  0  0  0  0  0  0  0
   18.7307  -18.9886    6.6957 O   0  0  0  0  0  0  0  0  0  0  0  0
   16.7365  -19.7171    5.8259 N   0  0  0  0  0  0  0  0  0  0  0  0
   17.0361  -21.1084    6.0079 C   0  0  1  0  0  0  0  0  0  0  0  0
   15.9241  -21.8554    6.6673 C   0  0  0  0  0  0  0  0  0  0  0  0
   15.6908  -21.4400    8.0715 C   0  0  0  0  0  0  0  0  0  0  0  0
   14.5336  -21.2847    8.5348 O   0  0  0  0  0  0  0  0  0  0  0  0
   17.4285  -21.7436    4.7004 C   0  0  0  0  0  0  0  0  0  0  0  0
   16.8261  -21.3962    3.6384 O   0  0  0  0  0  0  0  0  0  0  0  0
   16.7464  -21.2034    8.9401 O   0  0  0  0  0  0  0  0  0  0  0  0
   21.8306  -27.2744   -0.8335 O   0  0  0  0  0  0  0  0  0  0  0  0
   21.4088  -26.4925    0.2418 C   0  0  0  0  0  0  0  0  0  0  0  0
   21.7407  -25.1588    0.3512 C   0  0  0  0  0  0  0  0  0  0  0  0
   21.3364  -24.3686    1.4013 C   0  0  0  0  0  0  0  0  0  0  0  0
   20.5619  -24.8932    2.4142 C   0  0  0  0  0  0  0  0  0  0  0  0
   20.1253  -24.0691    3.5604 C   0  0  0  0  0  0  0  0  0  0  0  0
   18.7778  -23.4170    3.3695 C   0  0  2  0  0  0  0  0  0  0  0  0
   18.4380  -22.7092    4.6059 N   0  0  0  0  0  0  0  0  0  0  0  0
   17.7647  -24.4689    3.1624 C   0  0  0  0  0  0  0  0  0  0  0  0
   17.1938  -25.2179    4.1818 O   0  0  0  0  0  0  0  0  0  0  0  0
   20.2180  -26.2329    2.3220 C   0  0  0  0  0  0  0  0  0  0  0  0
   20.6343  -27.0055    1.2604 C   0  0  0  0  0  0  0  0  0  0  0  0
   17.3717  -24.7301    2.0002 O   0  0  0  0  0  0  0  0  0  0  0  0
  2  1  1  1
  3  2  1  0
  4  3  1  0
  4  9  1  0
  5  4  2  0
  6  5  1  0
  6  7  2  0
  7  8  1  0
  8  9  2  0
 10  2  1  0
 10 11  2  0
 12 10  1  0
 13 12  1  0
 13 14  1  6
 15 14  1  0
 15 19  1  0
 16 15  2  0
 17 13  1  0
 18 17  2  0
 20 21  1  0
 21 22  2  0
 22 23  1  0
 24 23  2  0
 24 25  1  0
 26 25  1  1
 26 28  1  0
 26 27  1  0
 27 17  1  0
 28 29  1  0
 30 24  1  0
 31 21  1  0
 31 30  2  0
 32 28  2  0
M  END
$$$$
