VAH.pdb
     RDKit          3D

 23 23  0  0  1  0  0  0  0  0999 V2000
   18.2056  -12.3502  -14.9115 C   0  0  0  0  0  0  0  0  0  0  0  0
   16.9578  -12.5851  -15.7325 C   0  0  2  0  0  0  0  0  0  0  0  0
   16.3704  -13.9414  -15.4793 C   0  0  0  0  0  0  0  0  0  0  0  0
   17.2356  -12.3769  -17.2208 C   0  0  2  0  0  0  0  0  0  0  0  0
   18.0417  -13.4221  -17.7662 N   0  0  0  0  0  0  0  0  0  0  0  0
   17.9065  -11.0341  -17.3465 C   0  0  0  0  0  0  0  0  0  0  0  0
   19.1388  -10.8922  -17.1455 O   0  0  0  0  0  0  0  0  0  0  0  0
   16.7934   -7.5846  -18.5171 C   0  0  0  0  0  0  0  0  0  0  0  0
   17.7472   -8.5641  -17.8598 C   0  0  2  0  0  0  0  0  0  0  0  0
   17.1801   -9.8659  -17.6978 N   0  0  0  0  0  0  0  0  0  0  0  0
   18.2783   -7.9787  -16.6223 C   0  0  0  0  0  0  0  0  0  0  0  0
   17.6489   -8.1744  -15.5465 O   0  0  0  0  0  0  0  0  0  0  0  0
   19.4581   -7.1986  -16.5305 N   0  0  0  0  0  0  0  0  0  0  0  0
   19.9951   -6.5799  -15.3740 C   0  0  1  0  0  0  0  0  0  0  0  0
   21.4505   -6.7768  -15.1211 C   0  0  0  0  0  0  0  0  0  0  0  0
   21.8893   -8.1769  -14.9698 C   0  0  0  0  0  0  0  0  0  0  0  0
   21.1927   -9.3374  -14.9290 C   0  0  0  0  0  0  0  0  0  0  0  0
   22.0745  -10.3685  -14.7604 N   0  0  0  0  0  0  0  0  0  0  0  0
   23.2979   -9.8197  -14.7005 C   0  0  0  0  0  0  0  0  0  0  0  0
   23.1986   -8.4879  -14.8265 N   0  0  0  0  0  0  0  0  0  0  0  0
   19.7630   -5.0989  -15.3530 C   0  0  0  0  0  0  0  0  0  0  0  0
   19.3038   -4.3599  -16.4003 O   0  0  0  0  0  0  0  0  0  0  0  0
   20.0211   -4.5180  -14.2689 O   0  0  0  0  0  0  0  0  0  0  0  0
  2  4  1  0
  2  1  1  1
  2  3  1  0
  4  5  1  1
  6  4  1  0
  6  7  2  0
  9  8  1  1
  9 10  1  0
  9 11  1  0
 10  6  1  0
 11 13  1  0
 12 11  2  0
 13 14  1  0
 14 21  1  0
 14 15  1  6
 16 15  1  0
 17 16  2  0
 18 17  1  0
 19 18  1  0
 19 20  2  0
 20 16  1  0
 21 23  2  0
 21 22  1  0
M  END
$$$$
