VAH.pdb
     RDKit          3D

 23 23  0  0  1  0  0  0  0  0999 V2000
   27.3047  -14.1167  -17.9161 C   0  0  0  0  0  0  0  0  0  0  0  0
   26.0136  -14.2033  -17.1339 C   0  0  2  0  0  0  0  0  0  0  0  0
   25.8974  -15.5007  -16.3908 C   0  0  0  0  0  0  0  0  0  0  0  0
   24.8068  -13.9832  -18.0451 C   0  0  2  0  0  0  0  0  0  0  0  0
   24.8310  -12.6963  -18.6641 N   0  0  0  0  0  0  0  0  0  0  0  0
   23.5833  -14.1634  -17.1850 C   0  0  0  0  0  0  0  0  0  0  0  0
   23.0304  -13.1901  -16.6141 O   0  0  0  0  0  0  0  0  0  0  0  0
   20.6109  -14.8633  -16.9539 C   0  0  0  0  0  0  0  0  0  0  0  0
   21.7387  -15.6718  -16.3410 C   0  0  2  0  0  0  0  0  0  0  0  0
   22.9968  -15.4397  -16.9783 N   0  0  0  0  0  0  0  0  0  0  0  0
   21.3491  -17.0858  -16.2712 C   0  0  0  0  0  0  0  0  0  0  0  0
   21.2561  -17.7374  -17.3476 O   0  0  0  0  0  0  0  0  0  0  0  0
   21.0634  -17.7946  -15.0775 N   0  0  0  0  0  0  0  0  0  0  0  0
   20.7639  -19.1733  -14.9438 C   0  0  1  0  0  0  0  0  0  0  0  0
   21.6888  -19.9832  -14.1015 C   0  0  0  0  0  0  0  0  0  0  0  0
   23.1068  -19.9622  -14.5074 C   0  0  0  0  0  0  0  0  0  0  0  0
   23.7352  -19.3622  -15.5461 C   0  0  0  0  0  0  0  0  0  0  0  0
   25.0670  -19.6642  -15.4820 N   0  0  0  0  0  0  0  0  0  0  0  0
   25.2306  -20.4457  -14.4031 C   0  0  0  0  0  0  0  0  0  0  0  0
   24.0462  -20.6341  -13.8022 N   0  0  0  0  0  0  0  0  0  0  0  0
   19.3864  -19.4136  -14.4030 C   0  0  0  0  0  0  0  0  0  0  0  0
   18.7547  -20.6192  -14.3674 O   0  0  0  0  0  0  0  0  0  0  0  0
   18.7894  -18.4035  -13.9527 O   0  0  0  0  0  0  0  0  0  0  0  0
  2  4  1  0
  2  1  1  6
  2  3  1  0
  4  5  1  1
  6  4  1  0
  6  7  2  0
  9  8  1  6
  9 10  1  0
  9 11  1  0
 10  6  1  0
 11 13  1  0
 12 11  2  0
 13 14  1  0
 14 21  1  0
 14 15  1  1
 16 15  1  0
 17 16  2  0
 18 17  1  0
 19 18  1  0
 19 20  2  0
 20 16  1  0
 21 23  2  0
 21 22  1  0
M  END
$$$$
