VAH.pdb
     RDKit          3D

 23 23  0  0  1  0  0  0  0  0999 V2000
   25.1833  -12.7695  -18.3563 C   0  0  0  0  0  0  0  0  0  0  0  0
   23.9091  -13.4236  -17.8717 C   0  0  2  0  0  0  0  0  0  0  0  0
   23.8278  -14.8624  -18.2866 C   0  0  0  0  0  0  0  0  0  0  0  0
   22.6815  -12.6462  -18.3450 C   0  0  2  0  0  0  0  0  0  0  0  0
   22.5989  -12.5919  -19.7698 N   0  0  0  0  0  0  0  0  0  0  0  0
   22.7882  -11.2702  -17.7414 C   0  0  0  0  0  0  0  0  0  0  0  0
   22.7989  -11.0959  -16.4970 O   0  0  0  0  0  0  0  0  0  0  0  0
   23.0830   -7.7328  -19.1433 C   0  0  0  0  0  0  0  0  0  0  0  0
   22.8124   -8.7631  -18.0633 C   0  0  2  0  0  0  0  0  0  0  0  0
   22.8819  -10.1057  -18.5482 N   0  0  0  0  0  0  0  0  0  0  0  0
   21.5586   -8.4347  -17.3730 C   0  0  0  0  0  0  0  0  0  0  0  0
   20.4732   -8.8377  -17.8743 O   0  0  0  0  0  0  0  0  0  0  0  0
   21.4609   -7.6907  -16.1706 N   0  0  0  0  0  0  0  0  0  0  0  0
   20.2850   -7.3733  -15.4459 C   0  0  1  0  0  0  0  0  0  0  0  0
   19.8938   -8.3113  -14.3560 C   0  0  0  0  0  0  0  0  0  0  0  0
   19.3472   -9.6091  -14.7949 C   0  0  0  0  0  0  0  0  0  0  0  0
   19.1801  -10.1427  -16.0282 C   0  0  0  0  0  0  0  0  0  0  0  0
   18.6149  -11.3803  -15.8939 N   0  0  0  0  0  0  0  0  0  0  0  0
   18.4454  -11.5827  -14.5779 C   0  0  0  0  0  0  0  0  0  0  0  0
   18.8867  -10.5130  -13.8992 N   0  0  0  0  0  0  0  0  0  0  0  0
   20.3416   -6.0099  -14.8250 C   0  0  0  0  0  0  0  0  0  0  0  0
   19.3009   -5.3809  -14.2124 O   0  0  0  0  0  0  0  0  0  0  0  0
   21.4510   -5.4230  -14.8892 O   0  0  0  0  0  0  0  0  0  0  0  0
  2  4  1  0
  2  1  1  6
  2  3  1  0
  4  5  1  6
  6  4  1  0
  6  7  2  0
  9  8  1  6
  9 10  1  0
  9 11  1  0
 10  6  1  0
 11 13  1  0
 12 11  2  0
 13 14  1  0
 14 21  1  0
 14 15  1  1
 16 15  1  0
 17 16  2  0
 18 17  1  0
 19 18  1  0
 19 20  2  0
 20 16  1  0
 21 23  2  0
 21 22  1  0
M  END
$$$$
