VAH.pdb
     RDKit          3D

 23 23  0  0  1  0  0  0  0  0999 V2000
   14.0095   -2.9155  -17.1466 C   0  0  0  0  0  0  0  0  0  0  0  0
   13.5921   -4.0348  -16.2196 C   0  0  2  0  0  0  0  0  0  0  0  0
   12.1640   -3.8950  -15.7837 C   0  0  0  0  0  0  0  0  0  0  0  0
   14.5272   -4.1236  -15.0142 C   0  0  2  0  0  0  0  0  0  0  0  0
   14.4361   -2.9682  -14.1798 N   0  0  0  0  0  0  0  0  0  0  0  0
   15.9179   -4.3036  -15.5646 C   0  0  0  0  0  0  0  0  0  0  0  0
   16.2325   -5.3145  -16.2414 O   0  0  0  0  0  0  0  0  0  0  0  0
   18.9609   -2.0829  -15.9381 C   0  0  0  0  0  0  0  0  0  0  0  0
   18.2740   -3.4323  -15.8461 C   0  0  2  0  0  0  0  0  0  0  0  0
   16.9384   -3.3413  -15.3454 N   0  0  0  0  0  0  0  0  0  0  0  0
   19.1312   -4.3718  -15.1121 C   0  0  0  0  0  0  0  0  0  0  0  0
   19.0722   -4.3803  -13.8518 O   0  0  0  0  0  0  0  0  0  0  0  0
   20.0353   -5.2864  -15.7079 N   0  0  0  0  0  0  0  0  0  0  0  0
   20.9083   -6.1885  -15.0502 C   0  0  1  0  0  0  0  0  0  0  0  0
   21.4600   -7.3059  -15.8674 C   0  0  0  0  0  0  0  0  0  0  0  0
   22.3099   -8.2691  -15.1424 C   0  0  0  0  0  0  0  0  0  0  0  0
   22.6550   -8.3571  -13.8359 C   0  0  0  0  0  0  0  0  0  0  0  0
   23.4812   -9.4345  -13.6757 N   0  0  0  0  0  0  0  0  0  0  0  0
   23.6277   -9.9881  -14.8897 C   0  0  0  0  0  0  0  0  0  0  0  0
   22.9206   -9.2886  -15.7898 N   0  0  0  0  0  0  0  0  0  0  0  0
   22.0876   -5.5004  -14.4310 C   0  0  0  0  0  0  0  0  0  0  0  0
   22.5146   -5.6720  -13.1496 O   0  0  0  0  0  0  0  0  0  0  0  0
   22.7144   -4.7068  -15.1772 O   0  0  0  0  0  0  0  0  0  0  0  0
  2  4  1  0
  2  1  1  6
  2  3  1  0
  4  5  1  6
  6  4  1  0
  6  7  2  0
  9  8  1  1
  9 10  1  0
  9 11  1  0
 10  6  1  0
 11 13  1  0
 12 11  2  0
 13 14  1  0
 14 21  1  0
 14 15  1  6
 16 15  1  0
 17 16  2  0
 18 17  1  0
 19 18  1  0
 19 20  2  0
 20 16  1  0
 21 23  2  0
 21 22  1  0
M  END
$$$$
