VAH.pdb
     RDKit          3D

 23 23  0  0  1  0  0  0  0  0999 V2000
   19.9409  -17.2014  -18.4426 C   0  0  0  0  0  0  0  0  0  0  0  0
   20.3168  -16.0052  -17.5975 C   0  0  2  0  0  0  0  0  0  0  0  0
   20.7429  -14.8393  -18.4390 C   0  0  0  0  0  0  0  0  0  0  0  0
   21.3973  -16.3720  -16.5810 C   0  0  2  0  0  0  0  0  0  0  0  0
   21.0164  -17.4867  -15.7736 N   0  0  0  0  0  0  0  0  0  0  0  0
   21.6376  -15.1393  -15.7492 C   0  0  0  0  0  0  0  0  0  0  0  0
   20.7151  -14.6017  -15.0868 O   0  0  0  0  0  0  0  0  0  0  0  0
   24.6964  -13.0911  -14.7818 C   0  0  0  0  0  0  0  0  0  0  0  0
   23.2081  -13.3206  -14.9645 C   0  0  2  0  0  0  0  0  0  0  0  0
   22.9162  -14.5266  -15.6736 N   0  0  0  0  0  0  0  0  0  0  0  0
   22.5916  -12.1181  -15.5391 C   0  0  0  0  0  0  0  0  0  0  0  0
   22.6976  -11.9234  -16.7812 O   0  0  0  0  0  0  0  0  0  0  0  0
   21.8749  -11.1397  -14.8056 N   0  0  0  0  0  0  0  0  0  0  0  0
   21.2544   -9.9685  -15.3076 C   0  0  1  0  0  0  0  0  0  0  0  0
   19.9444   -9.5915  -14.7055 C   0  0  0  0  0  0  0  0  0  0  0  0
   19.3111   -8.3801  -15.2595 C   0  0  0  0  0  0  0  0  0  0  0  0
   19.4292   -7.7761  -16.4658 C   0  0  0  0  0  0  0  0  0  0  0  0
   18.6327   -6.6650  -16.4759 N   0  0  0  0  0  0  0  0  0  0  0  0
   18.0401   -6.6081  -15.2729 C   0  0  0  0  0  0  0  0  0  0  0  0
   18.4445   -7.6453  -14.5244 N   0  0  0  0  0  0  0  0  0  0  0  0
   22.1316   -8.7581  -15.1936 C   0  0  0  0  0  0  0  0  0  0  0  0
   21.9608   -7.5955  -15.8813 O   0  0  0  0  0  0  0  0  0  0  0  0
   23.0947   -8.8515  -14.3916 O   0  0  0  0  0  0  0  0  0  0  0  0
  2  4  1  0
  2  1  1  6
  2  3  1  0
  4  5  1  1
  6  4  1  0
  6  7  2  0
  9  8  1  6
  9 10  1  0
  9 11  1  0
 10  6  1  0
 11 13  1  0
 12 11  2  0
 13 14  1  0
 14 21  1  0
 14 15  1  1
 16 15  1  0
 17 16  2  0
 18 17  1  0
 19 18  1  0
 19 20  2  0
 20 16  1  0
 21 23  2  0
 21 22  1  0
M  END
$$$$
