VAH.pdb
     RDKit          3D

 23 23  0  0  1  0  0  0  0  0999 V2000
   17.2110  -10.5566  -21.8551 C   0  0  0  0  0  0  0  0  0  0  0  0
   16.8185   -9.9723  -20.5168 C   0  0  2  0  0  0  0  0  0  0  0  0
   16.0025   -8.7236  -20.6710 C   0  0  0  0  0  0  0  0  0  0  0  0
   18.0504   -9.7187  -19.6488 C   0  0  2  0  0  0  0  0  0  0  0  0
   18.9392  -10.8366  -19.6412 N   0  0  0  0  0  0  0  0  0  0  0  0
   17.5416   -9.4035  -18.2665 C   0  0  0  0  0  0  0  0  0  0  0  0
   16.7671   -8.4370  -18.0543 O   0  0  0  0  0  0  0  0  0  0  0  0
   17.5621  -11.1673  -14.9176 C   0  0  0  0  0  0  0  0  0  0  0  0
   17.4942   -9.9315  -15.7948 C   0  0  2  0  0  0  0  0  0  0  0  0
   17.9121  -10.1820  -17.1385 N   0  0  0  0  0  0  0  0  0  0  0  0
   18.2007   -8.8234  -15.1396 C   0  0  0  0  0  0  0  0  0  0  0  0
   17.8912   -8.5321  -13.9517 O   0  0  0  0  0  0  0  0  0  0  0  0
   19.2185   -8.0388  -15.7373 N   0  0  0  0  0  0  0  0  0  0  0  0
   20.0053   -7.0331  -15.1224 C   0  0  1  0  0  0  0  0  0  0  0  0
   21.4806   -7.1247  -15.3119 C   0  0  0  0  0  0  0  0  0  0  0  0
   22.0898   -8.4237  -14.9698 C   0  0  0  0  0  0  0  0  0  0  0  0
   21.6429   -9.4542  -14.2133 C   0  0  0  0  0  0  0  0  0  0  0  0
   22.5992  -10.4312  -14.2004 N   0  0  0  0  0  0  0  0  0  0  0  0
   23.6168   -9.9804  -14.9506 C   0  0  0  0  0  0  0  0  0  0  0  0
   23.3192   -8.7611  -15.4240 N   0  0  0  0  0  0  0  0  0  0  0  0
   19.6127   -5.6516  -15.5524 C   0  0  0  0  0  0  0  0  0  0  0  0
   20.1228   -4.4955  -15.0455 O   0  0  0  0  0  0  0  0  0  0  0  0
   18.7406   -5.5845  -16.4549 O   0  0  0  0  0  0  0  0  0  0  0  0
  2  4  1  0
  2  1  1  6
  2  3  1  0
  4  5  1  1
  6  4  1  0
  6  7  2  0
  9  8  1  1
  9 10  1  0
  9 11  1  0
 10  6  1  0
 11 13  1  0
 12 11  2  0
 13 14  1  0
 14 21  1  0
 14 15  1  6
 16 15  1  0
 17 16  2  0
 18 17  1  0
 19 18  1  0
 19 20  2  0
 20 16  1  0
 21 23  2  0
 21 22  1  0
M  END
$$$$
