VAH.pdb
     RDKit          3D

 23 23  0  0  1  0  0  0  0  0999 V2000
   21.4055  -10.6536  -20.1547 C   0  0  0  0  0  0  0  0  0  0  0  0
   22.3490  -11.8343  -20.2011 C   0  0  2  0  0  0  0  0  0  0  0  0
   22.4054  -12.4501  -21.5674 C   0  0  0  0  0  0  0  0  0  0  0  0
   21.9751  -12.8745  -19.1458 C   0  0  2  0  0  0  0  0  0  0  0  0
   20.7569  -13.5477  -19.4658 N   0  0  0  0  0  0  0  0  0  0  0  0
   21.8755  -12.1375  -17.8358 C   0  0  0  0  0  0  0  0  0  0  0  0
   20.8018  -11.6031  -17.4608 O   0  0  0  0  0  0  0  0  0  0  0  0
   24.2020  -11.5428  -14.8816 C   0  0  0  0  0  0  0  0  0  0  0  0
   23.0072  -11.2341  -15.7639 C   0  0  2  0  0  0  0  0  0  0  0  0
   22.9882  -12.0114  -16.9631 N   0  0  0  0  0  0  0  0  0  0  0  0
   22.9183   -9.7847  -15.9824 C   0  0  0  0  0  0  0  0  0  0  0  0
   23.3080   -9.3187  -17.0883 O   0  0  0  0  0  0  0  0  0  0  0  0
   22.4237   -8.8474  -15.0414 N   0  0  0  0  0  0  0  0  0  0  0  0
   22.2422   -7.4539  -15.2258 C   0  0  1  0  0  0  0  0  0  0  0  0
   21.3298   -7.0352  -16.3272 C   0  0  0  0  0  0  0  0  0  0  0  0
   21.1724   -5.5799  -16.5086 C   0  0  0  0  0  0  0  0  0  0  0  0
   20.1991   -4.7253  -16.1137 C   0  0  0  0  0  0  0  0  0  0  0  0
   20.5215   -3.4689  -16.5457 N   0  0  0  0  0  0  0  0  0  0  0  0
   21.6890   -3.5769  -17.1991 C   0  0  0  0  0  0  0  0  0  0  0  0
   22.0950   -4.8554  -17.1834 N   0  0  0  0  0  0  0  0  0  0  0  0
   21.7463   -6.7690  -13.9878 C   0  0  0  0  0  0  0  0  0  0  0  0
   22.1156   -5.5250  -13.5758 O   0  0  0  0  0  0  0  0  0  0  0  0
   20.9244   -7.4181  -13.2930 O   0  0  0  0  0  0  0  0  0  0  0  0
  2  4  1  0
  2  1  1  6
  2  3  1  0
  4  5  1  6
  6  4  1  0
  6  7  2  0
  9  8  1  6
  9 10  1  0
  9 11  1  0
 10  6  1  0
 11 13  1  0
 12 11  2  0
 13 14  1  0
 14 21  1  0
 14 15  1  6
 16 15  1  0
 17 16  2  0
 18 17  1  0
 19 18  1  0
 19 20  2  0
 20 16  1  0
 21 23  2  0
 21 22  1  0
M  END
$$$$
