VAH.pdb
     RDKit          3D

 23 23  0  0  1  0  0  0  0  0999 V2000
   17.5540  -12.4358  -18.0113 C   0  0  0  0  0  0  0  0  0  0  0  0
   18.5591  -13.0576  -17.0681 C   0  0  2  0  0  0  0  0  0  0  0  0
   18.3608  -14.5384  -16.9387 C   0  0  0  0  0  0  0  0  0  0  0  0
   18.5186  -12.3772  -15.7004 C   0  0  2  0  0  0  0  0  0  0  0  0
   17.2433  -12.5136  -15.0722 N   0  0  0  0  0  0  0  0  0  0  0  0
   18.8727  -10.9314  -15.9316 C   0  0  0  0  0  0  0  0  0  0  0  0
   19.9940  -10.5927  -16.3864 O   0  0  0  0  0  0  0  0  0  0  0  0
   16.9655   -7.6413  -15.7600 C   0  0  0  0  0  0  0  0  0  0  0  0
   18.2196   -8.4913  -15.8366 C   0  0  2  0  0  0  0  0  0  0  0  0
   17.9579   -9.8835  -15.6473 N   0  0  0  0  0  0  0  0  0  0  0  0
   19.2424   -7.9416  -14.9377 C   0  0  0  0  0  0  0  0  0  0  0  0
   19.2689   -8.3417  -13.7415 O   0  0  0  0  0  0  0  0  0  0  0  0
   20.2199   -6.9831  -15.3047 N   0  0  0  0  0  0  0  0  0  0  0  0
   21.2737   -6.4760  -14.5041 C   0  0  1  0  0  0  0  0  0  0  0  0
   22.6568   -6.8912  -14.8723 C   0  0  0  0  0  0  0  0  0  0  0  0
   23.0478   -6.6415  -16.2724 C   0  0  0  0  0  0  0  0  0  0  0  0
   22.3245   -6.6191  -17.4170 C   0  0  0  0  0  0  0  0  0  0  0  0
   23.1673   -6.3498  -18.4592 N   0  0  0  0  0  0  0  0  0  0  0  0
   24.3945   -6.2121  -17.9331 C   0  0  0  0  0  0  0  0  0  0  0  0
   24.3349   -6.3872  -16.6044 N   0  0  0  0  0  0  0  0  0  0  0  0
   21.2865   -4.9778  -14.4504 C   0  0  0  0  0  0  0  0  0  0  0  0
   22.0116   -4.2284  -13.5749 O   0  0  0  0  0  0  0  0  0  0  0  0
   20.5604   -4.3920  -15.2925 O   0  0  0  0  0  0  0  0  0  0  0  0
  2  4  1  0
  2  1  1  6
  2  3  1  0
  4  5  1  6
  6  4  1  0
  6  7  2  0
  9  8  1  1
  9 10  1  0
  9 11  1  0
 10  6  1  0
 11 13  1  0
 12 11  2  0
 13 14  1  0
 14 21  1  0
 14 15  1  6
 16 15  1  0
 17 16  2  0
 18 17  1  0
 19 18  1  0
 19 20  2  0
 20 16  1  0
 21 23  2  0
 21 22  1  0
M  END
$$$$
