VAH.pdb
     RDKit          3D

 23 23  0  0  1  0  0  0  0  0999 V2000
   27.2664  -16.2841  -16.3708 C   0  0  0  0  0  0  0  0  0  0  0  0
   26.5388  -15.1502  -17.0573 C   0  0  2  0  0  0  0  0  0  0  0  0
   27.3731  -13.9053  -17.1141 C   0  0  0  0  0  0  0  0  0  0  0  0
   25.1932  -14.8784  -16.3860 C   0  0  2  0  0  0  0  0  0  0  0  0
   25.3493  -14.3484  -15.0691 N   0  0  0  0  0  0  0  0  0  0  0  0
   24.4495  -16.1883  -16.3736 C   0  0  0  0  0  0  0  0  0  0  0  0
   24.1392  -16.7796  -17.4381 O   0  0  0  0  0  0  0  0  0  0  0  0
   24.0126  -19.0076  -14.0538 C   0  0  0  0  0  0  0  0  0  0  0  0
   23.3818  -18.0694  -15.0654 C   0  0  2  0  0  0  0  0  0  0  0  0
   24.0640  -16.8171  -15.1604 N   0  0  0  0  0  0  0  0  0  0  0  0
   21.9424  -17.9541  -14.7988 C   0  0  0  0  0  0  0  0  0  0  0  0
   21.5725  -17.5232  -13.6721 O   0  0  0  0  0  0  0  0  0  0  0  0
   20.9144  -18.2910  -15.7144 N   0  0  0  0  0  0  0  0  0  0  0  0
   19.5162  -18.1466  -15.5328 C   0  0  1  0  0  0  0  0  0  0  0  0
   18.8360  -17.1057  -16.3540 C   0  0  0  0  0  0  0  0  0  0  0  0
   19.2480  -15.7139  -16.0913 C   0  0  0  0  0  0  0  0  0  0  0  0
   18.7823  -14.7884  -15.2193 C   0  0  0  0  0  0  0  0  0  0  0  0
   19.5037  -13.6381  -15.3793 N   0  0  0  0  0  0  0  0  0  0  0  0
   20.3999  -13.8803  -16.3486 C   0  0  0  0  0  0  0  0  0  0  0  0
   20.2545  -15.1388  -16.7895 N   0  0  0  0  0  0  0  0  0  0  0  0
   18.7694  -19.4241  -15.7733 C   0  0  0  0  0  0  0  0  0  0  0  0
   17.4895  -19.6727  -15.3810 O   0  0  0  0  0  0  0  0  0  0  0  0
   19.3992  -20.3208  -16.3888 O   0  0  0  0  0  0  0  0  0  0  0  0
  2  4  1  0
  2  1  1  1
  2  3  1  0
  4  5  1  1
  6  4  1  0
  6  7  2  0
  9  8  1  1
  9 10  1  0
  9 11  1  0
 10  6  1  0
 11 13  1  0
 12 11  2  0
 13 14  1  0
 14 21  1  0
 14 15  1  6
 16 15  1  0
 17 16  2  0
 18 17  1  0
 19 18  1  0
 19 20  2  0
 20 16  1  0
 21 23  2  0
 21 22  1  0
M  END
$$$$
