VAH.pdb
     RDKit          3D

 23 23  0  0  1  0  0  0  0  0999 V2000
   18.1079  -12.2404  -18.5243 C   0  0  0  0  0  0  0  0  0  0  0  0
   18.9625  -11.2075  -17.8248 C   0  0  2  0  0  0  0  0  0  0  0  0
   18.2788   -9.8749  -17.7512 C   0  0  0  0  0  0  0  0  0  0  0  0
   20.3306  -11.0858  -18.4946 C   0  0  2  0  0  0  0  0  0  0  0  0
   21.0431  -12.3235  -18.4856 N   0  0  0  0  0  0  0  0  0  0  0  0
   21.0766  -10.0094  -17.7503 C   0  0  0  0  0  0  0  0  0  0  0  0
   21.5297  -10.2013  -16.5941 O   0  0  0  0  0  0  0  0  0  0  0  0
   22.3419   -6.5256  -18.6272 C   0  0  0  0  0  0  0  0  0  0  0  0
   21.9981   -7.6567  -17.6766 C   0  0  2  0  0  0  0  0  0  0  0  0
   21.3035   -8.7282  -18.3185 N   0  0  0  0  0  0  0  0  0  0  0  0
   21.3142   -7.1159  -16.4951 C   0  0  0  0  0  0  0  0  0  0  0  0
   20.0650   -6.9473  -16.5485 O   0  0  0  0  0  0  0  0  0  0  0  0
   21.9478   -6.7605  -15.2781 N   0  0  0  0  0  0  0  0  0  0  0  0
   21.3285   -6.3496  -14.0713 C   0  0  1  0  0  0  0  0  0  0  0  0
   22.0653   -6.6338  -12.8075 C   0  0  0  0  0  0  0  0  0  0  0  0
   21.3887   -6.2157  -11.5652 C   0  0  0  0  0  0  0  0  0  0  0  0
   20.1524   -5.7103  -11.3418 C   0  0  0  0  0  0  0  0  0  0  0  0
   20.0143   -5.4742  -10.0023 N   0  0  0  0  0  0  0  0  0  0  0  0
   21.1712   -5.8398   -9.4282 C   0  0  0  0  0  0  0  0  0  0  0  0
   22.0149   -6.2922  -10.3679 N   0  0  0  0  0  0  0  0  0  0  0  0
   21.0174   -4.8832  -14.0541 C   0  0  0  0  0  0  0  0  0  0  0  0
   19.8355   -4.3346  -13.6590 O   0  0  0  0  0  0  0  0  0  0  0  0
   21.9395   -4.1216  -14.4404 O   0  0  0  0  0  0  0  0  0  0  0  0
  2  4  1  0
  2  1  1  6
  2  3  1  0
  4  5  1  1
  6  4  1  0
  6  7  2  0
  9  8  1  6
  9 10  1  0
  9 11  1  0
 10  6  1  0
 11 13  1  0
 12 11  2  0
 13 14  1  0
 14 21  1  0
 14 15  1  1
 16 15  1  0
 17 16  2  0
 18 17  1  0
 19 18  1  0
 19 20  2  0
 20 16  1  0
 21 23  2  0
 21 22  1  0
M  END
$$$$
