NIH.pdb
     RDKit          3D

 27 27  0  0  1  0  0  0  0  0999 V2000
   37.4030   -8.3750  -12.5554 N   0  0  0  0  0  0  0  0  0  0  0  0
   36.8472   -7.1669  -13.0722 C   0  0  0  0  0  0  0  0  0  0  0  0
   36.8922   -6.1220  -12.4014 O   0  0  0  0  0  0  0  0  0  0  0  0
   36.2315   -7.1889  -14.3933 C   0  0  0  0  0  0  0  0  0  0  0  0
   36.1263   -8.6055  -14.9020 C   0  0  2  0  0  0  0  0  0  0  0  0
   37.4734   -9.1049  -15.1744 N   0  0  0  0  0  0  0  0  0  0  0  0
   35.3160   -8.6154  -16.1308 C   0  0  0  0  0  0  0  0  0  0  0  0
   35.8905   -8.4507  -17.2588 O   0  0  0  0  0  0  0  0  0  0  0  0
   32.3165  -12.5379  -17.3380 C   0  0  0  0  0  0  0  0  0  0  0  0
   33.1797  -11.3056  -17.3657 C   0  0  0  0  0  0  0  0  0  0  0  0
   32.2732  -10.0921  -17.2110 C   0  0  2  0  0  0  0  0  0  0  0  0
   31.2715  -10.1528  -18.3195 C   0  0  0  0  0  0  0  0  0  0  0  0
   33.1277   -8.8172  -17.2323 C   0  0  2  0  0  0  0  0  0  0  0  0
   33.9255   -8.8066  -16.0252 N   0  0  0  0  0  0  0  0  0  0  0  0
   32.2545   -7.5921  -17.1122 C   0  0  0  0  0  0  0  0  0  0  0  0
   31.4361   -7.4614  -16.1375 O   0  0  0  0  0  0  0  0  0  0  0  0
   32.2837   -6.5341  -18.0424 N   0  0  0  0  0  0  0  0  0  0  0  0
   31.3817   -5.3993  -17.8269 C   0  0  1  0  0  0  0  0  0  0  0  0
   32.1402   -4.1037  -17.8353 C   0  0  0  0  0  0  0  0  0  0  0  0
   31.1754   -2.9854  -17.8525 C   0  0  0  0  0  0  0  0  0  0  0  0
   30.4737   -2.5286  -16.7366 C   0  0  0  0  0  0  0  0  0  0  0  0
   29.6845   -1.5049  -17.0925 N   0  0  0  0  0  0  0  0  0  0  0  0
   29.8598   -1.2926  -18.4022 C   0  0  0  0  0  0  0  0  0  0  0  0
   30.7631   -2.1894  -18.8637 N   0  0  0  0  0  0  0  0  0  0  0  0
   30.3494   -5.5034  -18.8861 C   0  0  0  0  0  0  0  0  0  0  0  0
   30.5350   -6.0454  -20.0057 O   0  0  0  0  0  0  0  0  0  0  0  0
   29.0963   -4.9747  -18.6390 O   0  0  0  0  0  0  0  0  0  0  0  0
  2  1  1  0
  2  3  2  0
  4  5  1  0
  4  2  1  0
  5  7  1  0
  5  6  1  6
  7  8  2  0
  9 10  1  0
 10 11  1  0
 11 13  1  0
 11 12  1  6
 13 14  1  1
 14  7  1  0
 15 16  2  0
 15 13  1  0
 17 15  1  0
 18 25  1  0
 18 17  1  0
 18 19  1  6
 20 19  1  0
 21 20  2  0
 22 21  1  0
 23 22  1  0
 23 24  2  0
 24 20  1  0
 25 27  1  0
 26 25  2  0
M  END
$$$$
