NIH.pdb
     RDKit          3D

 27 27  0  0  1  0  0  0  0  0999 V2000
   29.0858  -18.2751  -16.3806 N   0  0  0  0  0  0  0  0  0  0  0  0
   28.1122  -18.9204  -17.1998 C   0  0  0  0  0  0  0  0  0  0  0  0
   28.1383  -18.7743  -18.4334 O   0  0  0  0  0  0  0  0  0  0  0  0
   27.0962  -19.7470  -16.5599 C   0  0  0  0  0  0  0  0  0  0  0  0
   27.6604  -20.4195  -15.3326 C   0  0  2  0  0  0  0  0  0  0  0  0
   28.6554  -21.4041  -15.7556 N   0  0  0  0  0  0  0  0  0  0  0  0
   26.5662  -21.0765  -14.5994 C   0  0  0  0  0  0  0  0  0  0  0  0
   26.1632  -22.2269  -14.9785 O   0  0  0  0  0  0  0  0  0  0  0  0
   26.4794  -20.3141   -9.2854 C   0  0  0  0  0  0  0  0  0  0  0  0
   26.3796  -20.9808  -10.6307 C   0  0  0  0  0  0  0  0  0  0  0  0
   25.0733  -20.5417  -11.2781 C   0  0  2  0  0  0  0  0  0  0  0  0
   23.9667  -21.0213  -10.3943 C   0  0  0  0  0  0  0  0  0  0  0  0
   25.0015  -21.1058  -12.7038 C   0  0  2  0  0  0  0  0  0  0  0  0
   25.9939  -20.4138  -13.4974 N   0  0  0  0  0  0  0  0  0  0  0  0
   23.6875  -20.7428  -13.3515 C   0  0  0  0  0  0  0  0  0  0  0  0
   23.2788  -19.5307  -13.3742 O   0  0  0  0  0  0  0  0  0  0  0  0
   22.8444  -21.6922  -13.9625 N   0  0  0  0  0  0  0  0  0  0  0  0
   21.5832  -21.2238  -14.5438 C   0  0  1  0  0  0  0  0  0  0  0  0
   21.1184  -22.1497  -15.6305 C   0  0  0  0  0  0  0  0  0  0  0  0
   19.8363  -21.6503  -16.1676 C   0  0  0  0  0  0  0  0  0  0  0  0
   19.2913  -20.3991  -15.8786 C   0  0  0  0  0  0  0  0  0  0  0  0
   18.1248  -20.2590  -16.5246 N   0  0  0  0  0  0  0  0  0  0  0  0
   17.9068  -21.3826  -17.2183 C   0  0  0  0  0  0  0  0  0  0  0  0
   18.9435  -22.2264  -17.0026 N   0  0  0  0  0  0  0  0  0  0  0  0
   20.6399  -21.1035  -13.4064 C   0  0  0  0  0  0  0  0  0  0  0  0
   20.6356  -21.8651  -12.4055 O   0  0  0  0  0  0  0  0  0  0  0  0
   19.6989  -20.0912  -13.4351 O   0  0  0  0  0  0  0  0  0  0  0  0
  2  1  1  0
  2  3  2  0
  4  5  1  0
  4  2  1  0
  5  7  1  0
  5  6  1  6
  7  8  2  0
  9 10  1  0
 10 11  1  0
 11 13  1  0
 11 12  1  1
 13 14  1  6
 14  7  1  0
 15 16  2  0
 15 13  1  0
 17 15  1  0
 18 25  1  0
 18 17  1  0
 18 19  1  6
 20 19  1  0
 21 20  2  0
 22 21  1  0
 23 22  1  0
 23 24  2  0
 24 20  1  0
 25 27  1  0
 26 25  2  0
M  END
$$$$
