NIH.pdb
     RDKit          3D

 27 27  0  0  1  0  0  0  0  0999 V2000
   16.6528  -15.4991  -12.9064 N   0  0  0  0  0  0  0  0  0  0  0  0
   17.2610  -14.6643  -13.8906 C   0  0  0  0  0  0  0  0  0  0  0  0
   18.3808  -14.9505  -14.3465 O   0  0  0  0  0  0  0  0  0  0  0  0
   16.5431  -13.4791  -14.3433 C   0  0  0  0  0  0  0  0  0  0  0  0
   15.2366  -13.3392  -13.6016 C   0  0  2  0  0  0  0  0  0  0  0  0
   14.2278  -14.1561  -14.2749 N   0  0  0  0  0  0  0  0  0  0  0  0
   14.8345  -11.9233  -13.6004 C   0  0  0  0  0  0  0  0  0  0  0  0
   14.2922  -11.4274  -14.6442 O   0  0  0  0  0  0  0  0  0  0  0  0
   11.9478  -10.0638   -9.7489 C   0  0  0  0  0  0  0  0  0  0  0  0
   12.5688  -10.2189  -11.1108 C   0  0  0  0  0  0  0  0  0  0  0  0
   13.9218   -9.5207  -11.0937 C   0  0  2  0  0  0  0  0  0  0  0  0
   13.6614   -8.0733  -10.8233 C   0  0  0  0  0  0  0  0  0  0  0  0
   14.6365   -9.7713  -12.4287 C   0  0  2  0  0  0  0  0  0  0  0  0
   15.0612  -11.1545  -12.4433 N   0  0  0  0  0  0  0  0  0  0  0  0
   15.9235   -8.9860  -12.4962 C   0  0  0  0  0  0  0  0  0  0  0  0
   16.8171   -9.1097  -11.5890 O   0  0  0  0  0  0  0  0  0  0  0  0
   16.2208   -8.0872  -13.5399 N   0  0  0  0  0  0  0  0  0  0  0  0
   17.4898   -7.3563  -13.4820 C   0  0  1  0  0  0  0  0  0  0  0  0
   18.4687   -7.9039  -14.4802 C   0  0  0  0  0  0  0  0  0  0  0  0
   19.6974   -7.0850  -14.4430 C   0  0  0  0  0  0  0  0  0  0  0  0
   19.9165   -6.0269  -13.5605 C   0  0  0  0  0  0  0  0  0  0  0  0
   21.1268   -5.4971  -13.7887 N   0  0  0  0  0  0  0  0  0  0  0  0
   21.6889   -6.1840  -14.7905 C   0  0  0  0  0  0  0  0  0  0  0  0
   20.8234   -7.1464  -15.1876 N   0  0  0  0  0  0  0  0  0  0  0  0
   17.1398   -5.9316  -13.6962 C   0  0  0  0  0  0  0  0  0  0  0  0
   16.0740   -5.5368  -14.2347 O   0  0  0  0  0  0  0  0  0  0  0  0
   18.0348   -4.9637  -13.2803 O   0  0  0  0  0  0  0  0  0  0  0  0
  2  1  1  0
  2  3  2  0
  4  5  1  0
  4  2  1  0
  5  7  1  0
  5  6  1  6
  7  8  2  0
  9 10  1  0
 10 11  1  0
 11 13  1  0
 11 12  1  6
 13 14  1  1
 14  7  1  0
 15 16  2  0
 15 13  1  0
 17 15  1  0
 18 25  1  0
 18 17  1  0
 18 19  1  6
 20 19  1  0
 21 20  2  0
 22 21  1  0
 23 22  1  0
 23 24  2  0
 24 20  1  0
 25 27  1  0
 26 25  2  0
M  END
$$$$
