NIH.pdb
     RDKit          3D

 27 27  0  0  1  0  0  0  0  0999 V2000
   20.4176  -17.8024  -18.2712 N   0  0  0  0  0  0  0  0  0  0  0  0
   19.6643  -16.6133  -18.0383 C   0  0  0  0  0  0  0  0  0  0  0  0
   18.6229  -16.3980  -18.6807 O   0  0  0  0  0  0  0  0  0  0  0  0
   20.1424  -15.6667  -17.0380 C   0  0  0  0  0  0  0  0  0  0  0  0
   21.4159  -16.1691  -16.4035 C   0  0  2  0  0  0  0  0  0  0  0  0
   21.0960  -17.3247  -15.5665 N   0  0  0  0  0  0  0  0  0  0  0  0
   22.0042  -15.0924  -15.5904 C   0  0  0  0  0  0  0  0  0  0  0  0
   21.6588  -14.9739  -14.3672 O   0  0  0  0  0  0  0  0  0  0  0  0
   27.0609  -14.4806  -15.2269 C   0  0  0  0  0  0  0  0  0  0  0  0
   25.5860  -14.4274  -14.9331 C   0  0  0  0  0  0  0  0  0  0  0  0
   25.0190  -13.1781  -15.5934 C   0  0  2  0  0  0  0  0  0  0  0  0
   25.7184  -12.0067  -14.9816 C   0  0  0  0  0  0  0  0  0  0  0  0
   23.4971  -13.1491  -15.3965 C   0  0  2  0  0  0  0  0  0  0  0  0
   22.9341  -14.2213  -16.1884 N   0  0  0  0  0  0  0  0  0  0  0  0
   22.9092  -11.8950  -15.9961 C   0  0  0  0  0  0  0  0  0  0  0  0
   23.1863  -11.5480  -17.1960 O   0  0  0  0  0  0  0  0  0  0  0  0
   22.0342  -11.0443  -15.2918 N   0  0  0  0  0  0  0  0  0  0  0  0
   21.5777   -9.8198  -15.9553 C   0  0  1  0  0  0  0  0  0  0  0  0
   20.0782   -9.7691  -16.0122 C   0  0  0  0  0  0  0  0  0  0  0  0
   19.6650   -8.4613  -16.5605 C   0  0  0  0  0  0  0  0  0  0  0  0
   19.9974   -7.9964  -17.8331 C   0  0  0  0  0  0  0  0  0  0  0  0
   19.4669   -6.7789  -18.0174 N   0  0  0  0  0  0  0  0  0  0  0  0
   18.8050   -6.4507  -16.9015 C   0  0  0  0  0  0  0  0  0  0  0  0
   18.9245   -7.4696  -16.0179 N   0  0  0  0  0  0  0  0  0  0  0  0
   22.1930   -8.7030  -15.1988 C   0  0  0  0  0  0  0  0  0  0  0  0
   22.3513   -8.6944  -13.9511 O   0  0  0  0  0  0  0  0  0  0  0  0
   22.6261   -7.5926  -15.8991 O   0  0  0  0  0  0  0  0  0  0  0  0
  2  1  1  0
  2  3  2  0
  4  5  1  0
  4  2  1  0
  5  7  1  0
  5  6  1  1
  7  8  2  0
  9 10  1  0
 10 11  1  0
 11 13  1  0
 11 12  1  1
 13 14  1  6
 14  7  1  0
 15 16  2  0
 15 13  1  0
 17 15  1  0
 18 25  1  0
 18 17  1  0
 18 19  1  1
 20 19  1  0
 21 20  2  0
 22 21  1  0
 23 22  1  0
 23 24  2  0
 24 20  1  0
 25 27  1  0
 26 25  2  0
M  END
$$$$
