NIH.pdb
     RDKit          3D

 27 27  0  0  1  0  0  0  0  0999 V2000
   27.7042  -12.8583  -18.9084 N   0  0  0  0  0  0  0  0  0  0  0  0
   26.5856  -13.7228  -19.1001 C   0  0  0  0  0  0  0  0  0  0  0  0
   26.7441  -14.8459  -19.6073 O   0  0  0  0  0  0  0  0  0  0  0  0
   25.2653  -13.2602  -18.6902 C   0  0  0  0  0  0  0  0  0  0  0  0
   25.3356  -11.8353  -18.1987 C   0  0  2  0  0  0  0  0  0  0  0  0
   26.1187  -11.8055  -16.9641 N   0  0  0  0  0  0  0  0  0  0  0  0
   23.9698  -11.3444  -17.9532 C   0  0  0  0  0  0  0  0  0  0  0  0
   23.1320  -11.3220  -18.9160 O   0  0  0  0  0  0  0  0  0  0  0  0
   19.3530  -11.7772  -14.9837 C   0  0  0  0  0  0  0  0  0  0  0  0
   20.3638  -10.6725  -14.8342 C   0  0  0  0  0  0  0  0  0  0  0  0
   21.7293  -11.2292  -15.2134 C   0  0  2  0  0  0  0  0  0  0  0  0
   22.5916  -11.1343  -13.9955 C   0  0  0  0  0  0  0  0  0  0  0  0
   22.2799  -10.4438  -16.4117 C   0  0  2  0  0  0  0  0  0  0  0  0
   23.6267  -10.9119  -16.6584 N   0  0  0  0  0  0  0  0  0  0  0  0
   22.4512   -8.9870  -16.0567 C   0  0  0  0  0  0  0  0  0  0  0  0
   23.4630   -8.5897  -15.3818 O   0  0  0  0  0  0  0  0  0  0  0  0
   21.5312   -7.9903  -16.4383 N   0  0  0  0  0  0  0  0  0  0  0  0
   21.7794   -6.6151  -15.9967 C   0  0  1  0  0  0  0  0  0  0  0  0
   21.3492   -5.6305  -17.0454 C   0  0  0  0  0  0  0  0  0  0  0  0
   21.5255   -4.2624  -16.5171 C   0  0  0  0  0  0  0  0  0  0  0  0
   22.3818   -3.3070  -17.0652 C   0  0  0  0  0  0  0  0  0  0  0  0
   22.3051   -2.1751  -16.3508 N   0  0  0  0  0  0  0  0  0  0  0  0
   21.4258   -2.3770  -15.3623 C   0  0  0  0  0  0  0  0  0  0  0  0
   20.9528   -3.6417  -15.4622 N   0  0  0  0  0  0  0  0  0  0  0  0
   21.0644   -6.4754  -14.7054 C   0  0  0  0  0  0  0  0  0  0  0  0
   19.9517   -7.0034  -14.4506 O   0  0  0  0  0  0  0  0  0  0  0  0
   21.6489   -5.7184  -13.7073 O   0  0  0  0  0  0  0  0  0  0  0  0
  2  1  1  0
  2  3  2  0
  4  5  1  0
  4  2  1  0
  5  7  1  0
  5  6  1  1
  7  8  2  0
  9 10  1  0
 10 11  1  0
 11 13  1  0
 11 12  1  1
 13 14  1  1
 14  7  1  0
 15 16  2  0
 15 13  1  0
 17 15  1  0
 18 25  1  0
 18 17  1  0
 18 19  1  6
 20 19  1  0
 21 20  2  0
 22 21  1  0
 23 22  1  0
 23 24  2  0
 24 20  1  0
 25 27  1  0
 26 25  2  0
M  END
$$$$
