NIH.pdb
     RDKit          3D

 27 27  0  0  1  0  0  0  0  0999 V2000
   29.5297  -19.4566  -16.3499 N   0  0  0  0  0  0  0  0  0  0  0  0
   28.1989  -19.1834  -16.7855 C   0  0  0  0  0  0  0  0  0  0  0  0
   27.9981  -18.3867  -17.7174 O   0  0  0  0  0  0  0  0  0  0  0  0
   27.0918  -19.8556  -16.1165 C   0  0  0  0  0  0  0  0  0  0  0  0
   27.6112  -20.8311  -15.0892 C   0  0  2  0  0  0  0  0  0  0  0  0
   28.2700  -21.9355  -15.7855 N   0  0  0  0  0  0  0  0  0  0  0  0
   26.4823  -21.3296  -14.2868 C   0  0  0  0  0  0  0  0  0  0  0  0
   25.8278  -22.3469  -14.6944 O   0  0  0  0  0  0  0  0  0  0  0  0
   26.8275  -20.5842   -8.9521 C   0  0  0  0  0  0  0  0  0  0  0  0
   26.5471  -21.2635  -10.2653 C   0  0  0  0  0  0  0  0  0  0  0  0
   25.2788  -20.6557  -10.8485 C   0  0  2  0  0  0  0  0  0  0  0  0
   24.1602  -21.0099   -9.9216 C   0  0  0  0  0  0  0  0  0  0  0  0
   25.0762  -21.1825  -12.2759 C   0  0  2  0  0  0  0  0  0  0  0  0
   26.1564  -20.6666  -13.0888 N   0  0  0  0  0  0  0  0  0  0  0  0
   23.8320  -20.5872  -12.8887 C   0  0  0  0  0  0  0  0  0  0  0  0
   23.6781  -19.3193  -12.9628 O   0  0  0  0  0  0  0  0  0  0  0  0
   22.7829  -21.3701  -13.4102 N   0  0  0  0  0  0  0  0  0  0  0  0
   21.6674  -20.6820  -14.0660 C   0  0  1  0  0  0  0  0  0  0  0  0
   21.5058  -21.1538  -15.4822 C   0  0  0  0  0  0  0  0  0  0  0  0
   20.3585  -20.4512  -16.0918 C   0  0  0  0  0  0  0  0  0  0  0  0
   19.6025  -19.4682  -15.4528 C   0  0  0  0  0  0  0  0  0  0  0  0
   18.6401  -19.0356  -16.2799 N   0  0  0  0  0  0  0  0  0  0  0  0
   18.7572  -19.7120  -17.4289 C   0  0  0  0  0  0  0  0  0  0  0  0
   19.7983  -20.5701  -17.3158 N   0  0  0  0  0  0  0  0  0  0  0  0
   20.4850  -20.9301  -13.2066 C   0  0  0  0  0  0  0  0  0  0  0  0
   20.3800  -21.8950  -12.4067 O   0  0  0  0  0  0  0  0  0  0  0  0
   19.4215  -20.0499  -13.2791 O   0  0  0  0  0  0  0  0  0  0  0  0
  2  1  1  0
  2  3  2  0
  4  5  1  0
  4  2  1  0
  5  7  1  0
  5  6  1  6
  7  8  2  0
  9 10  1  0
 10 11  1  0
 11 13  1  0
 11 12  1  1
 13 14  1  6
 14  7  1  0
 15 16  2  0
 15 13  1  0
 17 15  1  0
 18 25  1  0
 18 17  1  0
 18 19  1  6
 20 19  1  0
 21 20  2  0
 22 21  1  0
 23 22  1  0
 23 24  2  0
 24 20  1  0
 25 27  1  0
 26 25  2  0
M  END
$$$$
