NIH.pdb
     RDKit          3D

 27 27  0  0  1  0  0  0  0  0999 V2000
   24.9925  -23.4778  -12.3340 N   0  0  0  0  0  0  0  0  0  0  0  0
   24.5937  -23.5219  -13.7032 C   0  0  0  0  0  0  0  0  0  0  0  0
   23.8978  -24.4626  -14.1208 O   0  0  0  0  0  0  0  0  0  0  0  0
   25.0187  -22.4465  -14.5908 C   0  0  0  0  0  0  0  0  0  0  0  0
   25.8922  -21.4651  -13.8488 C   0  0  2  0  0  0  0  0  0  0  0  0
   26.0564  -21.9336  -12.4733 N   0  0  0  0  0  0  0  0  0  0  0  0
   25.2496  -20.1410  -13.8676 C   0  0  0  0  0  0  0  0  0  0  0  0
   24.6258  -19.7349  -12.8305 O   0  0  0  0  0  0  0  0  0  0  0  0
   28.1672  -16.8494  -16.3020 C   0  0  0  0  0  0  0  0  0  0  0  0
   27.1485  -17.0873  -15.2203 C   0  0  0  0  0  0  0  0  0  0  0  0
   25.7738  -17.1449  -15.8725 C   0  0  2  0  0  0  0  0  0  0  0  0
   25.3071  -15.7331  -16.0299 C   0  0  0  0  0  0  0  0  0  0  0  0
   24.8396  -18.0017  -15.0071 C   0  0  2  0  0  0  0  0  0  0  0  0
   25.3421  -19.3584  -15.0339 N   0  0  0  0  0  0  0  0  0  0  0  0
   23.4725  -18.0985  -15.6392 C   0  0  0  0  0  0  0  0  0  0  0  0
   23.3018  -18.7214  -16.7436 O   0  0  0  0  0  0  0  0  0  0  0  0
   22.3196  -17.5250  -15.0669 N   0  0  0  0  0  0  0  0  0  0  0  0
   21.0251  -17.8019  -15.6959 C   0  0  1  0  0  0  0  0  0  0  0  0
   20.1844  -18.6878  -14.8226 C   0  0  0  0  0  0  0  0  0  0  0  0
   18.8497  -18.8368  -15.4373 C   0  0  0  0  0  0  0  0  0  0  0  0
   18.4627  -18.2469  -16.6408 C   0  0  0  0  0  0  0  0  0  0  0  0
   17.1936  -18.5809  -16.9152 N   0  0  0  0  0  0  0  0  0  0  0  0
   16.7566  -19.3666  -15.9238 C   0  0  0  0  0  0  0  0  0  0  0  0
   17.7595  -19.5223  -15.0277 N   0  0  0  0  0  0  0  0  0  0  0  0
   20.4230  -16.4751  -15.9704 C   0  0  0  0  0  0  0  0  0  0  0  0
   19.7245  -16.2094  -16.9819 O   0  0  0  0  0  0  0  0  0  0  0  0
   20.6350  -15.4548  -15.0621 O   0  0  0  0  0  0  0  0  0  0  0  0
  2  1  1  0
  2  3  2  0
  4  5  1  0
  4  2  1  0
  5  7  1  0
  5  6  1  1
  7  8  2  0
  9 10  1  0
 10 11  1  0
 11 13  1  0
 11 12  1  1
 13 14  1  6
 14  7  1  0
 15 16  2  0
 15 13  1  0
 17 15  1  0
 18 25  1  0
 18 17  1  0
 18 19  1  1
 20 19  1  0
 21 20  2  0
 22 21  1  0
 23 22  1  0
 23 24  2  0
 24 20  1  0
 25 27  1  0
 26 25  2  0
M  END
$$$$
