MAH.pdb
     RDKit          3D

 24 24  0  0  1  0  0  0  0  0999 V2000
   14.3724  -13.7786   18.1795 C   0  0  0  0  0  0  0  0  0  0  0  0
   14.1228  -15.4489   17.5815 S   0  0  0  0  0  0  0  0  0  0  0  0
   12.4340  -16.0215   17.6222 C   0  0  0  0  0  0  0  0  0  0  0  0
   12.2223  -17.4436   17.2424 C   0  0  0  0  0  0  0  0  0  0  0  0
   10.8079  -17.9033   17.1954 C   0  0  2  0  0  0  0  0  0  0  0  0
    9.8796  -16.8651   16.8151 N   0  0  0  0  0  0  0  0  0  0  0  0
   10.4645  -18.4891   18.5208 C   0  0  0  0  0  0  0  0  0  0  0  0
   10.2988  -17.6918   19.4801 O   0  0  0  0  0  0  0  0  0  0  0  0
    9.5337  -21.7989   19.8929 C   0  0  0  0  0  0  0  0  0  0  0  0
    9.9079  -20.3592   20.0506 C   0  0  2  0  0  0  0  0  0  0  0  0
   10.3183  -19.8738   18.7493 N   0  0  0  0  0  0  0  0  0  0  0  0
   10.9215  -20.1047   21.0855 C   0  0  0  0  0  0  0  0  0  0  0  0
   12.0733  -19.7711   20.7093 O   0  0  0  0  0  0  0  0  0  0  0  0
   10.6705  -20.2146   22.4798 N   0  0  0  0  0  0  0  0  0  0  0  0
   11.7196  -20.0336   23.4836 C   0  0  1  0  0  0  0  0  0  0  0  0
   11.6661  -18.5779   23.9108 C   0  0  0  0  0  0  0  0  0  0  0  0
   12.3578  -17.7187   22.9184 C   0  0  0  0  0  0  0  0  0  0  0  0
   12.9941  -18.0858   21.7595 C   0  0  0  0  0  0  0  0  0  0  0  0
   13.4871  -17.0021   21.1701 N   0  0  0  0  0  0  0  0  0  0  0  0
   13.1691  -15.9463   21.9460 C   0  0  0  0  0  0  0  0  0  0  0  0
   12.4753  -16.3737   23.0230 N   0  0  0  0  0  0  0  0  0  0  0  0
   11.5749  -20.9711   24.5988 C   0  0  0  0  0  0  0  0  0  0  0  0
   10.4346  -21.4875   24.8334 O   0  0  0  0  0  0  0  0  0  0  0  0
   12.5986  -21.3538   25.4405 O   0  0  0  0  0  0  0  0  0  0  0  0
  2  3  1  0
  2  1  1  0
  4  5  1  0
  4  3  1  0
  5  6  1  1
  7  5  1  0
  7  8  2  0
 10  9  1  6
 10 12  1  0
 10 11  1  0
 11  7  1  0
 12 14  1  0
 13 12  2  0
 14 15  1  0
 15 22  1  0
 15 16  1  1
 17 16  1  0
 18 17  2  0
 19 18  1  0
 20 19  1  0
 20 21  2  0
 21 17  1  0
 22 23  2  0
 22 24  1  0
M  END
$$$$
