MAH.pdb
     RDKit          3D

 24 24  0  0  1  0  0  0  0  0999 V2000
    7.3282  -18.3642   19.8097 C   0  0  0  0  0  0  0  0  0  0  0  0
    6.9252  -17.1281   18.5771 S   0  0  0  0  0  0  0  0  0  0  0  0
    7.7893  -15.5774   18.7514 C   0  0  0  0  0  0  0  0  0  0  0  0
    8.2153  -15.2242   20.1316 C   0  0  0  0  0  0  0  0  0  0  0  0
    7.6866  -13.9417   20.6700 C   0  0  2  0  0  0  0  0  0  0  0  0
    8.1712  -12.7798   19.9635 N   0  0  0  0  0  0  0  0  0  0  0  0
    8.0113  -13.8773   22.1218 C   0  0  0  0  0  0  0  0  0  0  0  0
    9.1774  -13.5261   22.4388 O   0  0  0  0  0  0  0  0  0  0  0  0
    6.3163  -14.2943   25.3846 C   0  0  0  0  0  0  0  0  0  0  0  0
    7.5344  -14.3094   24.5163 C   0  0  2  0  0  0  0  0  0  0  0  0
    7.0887  -14.1863   23.1438 N   0  0  0  0  0  0  0  0  0  0  0  0
    8.4087  -15.4750   24.7161 C   0  0  0  0  0  0  0  0  0  0  0  0
    8.5382  -16.2819   23.7613 O   0  0  0  0  0  0  0  0  0  0  0  0
    9.1112  -15.7369   25.9231 N   0  0  0  0  0  0  0  0  0  0  0  0
    9.8855  -16.9607   26.1319 C   0  0  1  0  0  0  0  0  0  0  0  0
   10.4420  -16.8878   27.5424 C   0  0  0  0  0  0  0  0  0  0  0  0
   10.4388  -15.4870   28.0312 C   0  0  0  0  0  0  0  0  0  0  0  0
   10.1672  -14.3352   27.3366 C   0  0  0  0  0  0  0  0  0  0  0  0
   10.2853  -13.2945   28.1539 N   0  0  0  0  0  0  0  0  0  0  0  0
   10.6305  -13.7756   29.3652 C   0  0  0  0  0  0  0  0  0  0  0  0
   10.7279  -15.1211   29.3025 N   0  0  0  0  0  0  0  0  0  0  0  0
    9.0848  -18.1614   25.8855 C   0  0  0  0  0  0  0  0  0  0  0  0
    7.8335  -18.0432   25.6799 O   0  0  0  0  0  0  0  0  0  0  0  0
    9.5854  -19.4464   25.8557 O   0  0  0  0  0  0  0  0  0  0  0  0
  2  3  1  0
  2  1  1  0
  4  5  1  0
  4  3  1  0
  5  6  1  6
  7  5  1  0
  7  8  2  0
 10  9  1  1
 10 12  1  0
 10 11  1  0
 11  7  1  0
 12 14  1  0
 13 12  2  0
 14 15  1  0
 15 22  1  0
 15 16  1  1
 17 16  1  0
 18 17  2  0
 19 18  1  0
 20 19  1  0
 20 21  2  0
 21 17  1  0
 22 23  2  0
 22 24  1  0
M  END
$$$$
