MAH.pdb
     RDKit          3D

 24 24  0  0  1  0  0  0  0  0999 V2000
    6.3016  -11.1731   26.1836 C   0  0  0  0  0  0  0  0  0  0  0  0
    6.7106  -12.6664   27.0849 S   0  0  0  0  0  0  0  0  0  0  0  0
    5.9758  -14.1605   26.4449 C   0  0  0  0  0  0  0  0  0  0  0  0
    6.2688  -14.4682   25.0199 C   0  0  0  0  0  0  0  0  0  0  0  0
    6.5943  -15.8870   24.7118 C   0  0  2  0  0  0  0  0  0  0  0  0
    7.1272  -16.6116   25.8411 N   0  0  0  0  0  0  0  0  0  0  0  0
    7.5300  -15.9091   23.5536 C   0  0  0  0  0  0  0  0  0  0  0  0
    7.0829  -16.3343   22.4568 O   0  0  0  0  0  0  0  0  0  0  0  0
   10.5751  -15.4019   21.9741 C   0  0  0  0  0  0  0  0  0  0  0  0
    9.9215  -16.2664   23.0053 C   0  0  2  0  0  0  0  0  0  0  0  0
    8.8732  -15.4828   23.6253 N   0  0  0  0  0  0  0  0  0  0  0  0
   10.8477  -16.8395   23.9935 C   0  0  0  0  0  0  0  0  0  0  0  0
   10.6553  -16.5669   25.2052 O   0  0  0  0  0  0  0  0  0  0  0  0
   11.9420  -17.6802   23.6548 N   0  0  0  0  0  0  0  0  0  0  0  0
   12.5426  -18.6116   24.6103 C   0  0  1  0  0  0  0  0  0  0  0  0
   11.4111  -19.4629   25.1573 C   0  0  0  0  0  0  0  0  0  0  0  0
   11.0531  -19.0320   26.5312 C   0  0  0  0  0  0  0  0  0  0  0  0
   11.5686  -17.9959   27.2684 C   0  0  0  0  0  0  0  0  0  0  0  0
   10.9720  -17.9653   28.4550 N   0  0  0  0  0  0  0  0  0  0  0  0
   10.0793  -18.9755   28.4790 C   0  0  0  0  0  0  0  0  0  0  0  0
   10.1199  -19.6380   27.3029 N   0  0  0  0  0  0  0  0  0  0  0  0
   13.6185  -19.3972   24.0033 C   0  0  0  0  0  0  0  0  0  0  0  0
   13.4635  -19.8599   22.8269 O   0  0  0  0  0  0  0  0  0  0  0  0
   14.8207  -19.6864   24.6150 O   0  0  0  0  0  0  0  0  0  0  0  0
  2  3  1  0
  2  1  1  0
  4  5  1  0
  4  3  1  0
  5  6  1  1
  7  5  1  0
  7  8  2  0
 10  9  1  6
 10 12  1  0
 10 11  1  0
 11  7  1  0
 12 14  1  0
 13 12  2  0
 14 15  1  0
 15 22  1  0
 15 16  1  6
 17 16  1  0
 18 17  2  0
 19 18  1  0
 20 19  1  0
 20 21  2  0
 21 17  1  0
 22 23  2  0
 22 24  1  0
M  END
$$$$
