MAH.pdb
     RDKit          3D

 24 24  0  0  1  0  0  0  0  0999 V2000
    8.3298  -10.7861   22.8860 C   0  0  0  0  0  0  0  0  0  0  0  0
    7.5558  -11.9912   23.9623 S   0  0  0  0  0  0  0  0  0  0  0  0
    7.1616  -13.5504   23.1908 C   0  0  0  0  0  0  0  0  0  0  0  0
    7.7713  -13.7852   21.8550 C   0  0  0  0  0  0  0  0  0  0  0  0
    7.5007  -15.1119   21.2379 C   0  0  2  0  0  0  0  0  0  0  0  0
    6.0972  -15.4460   21.1885 N   0  0  0  0  0  0  0  0  0  0  0  0
    8.2844  -16.1386   21.9790 C   0  0  0  0  0  0  0  0  0  0  0  0
    7.7289  -16.6906   22.9640 O   0  0  0  0  0  0  0  0  0  0  0  0
   11.3915  -18.0707   21.5717 C   0  0  0  0  0  0  0  0  0  0  0  0
   10.3076  -17.4991   22.4299 C   0  0  2  0  0  0  0  0  0  0  0  0
    9.5998  -16.5166   21.6354 N   0  0  0  0  0  0  0  0  0  0  0  0
   10.7740  -16.9486   23.7114 C   0  0  0  0  0  0  0  0  0  0  0  0
   11.2790  -15.7977   23.7066 O   0  0  0  0  0  0  0  0  0  0  0  0
   10.6848  -17.6431   24.9478 N   0  0  0  0  0  0  0  0  0  0  0  0
   11.1586  -17.0689   26.2076 C   0  0  1  0  0  0  0  0  0  0  0  0
    9.9957  -17.1369   27.1810 C   0  0  0  0  0  0  0  0  0  0  0  0
    9.8698  -15.8629   27.9309 C   0  0  0  0  0  0  0  0  0  0  0  0
    9.6894  -14.5931   27.4434 C   0  0  0  0  0  0  0  0  0  0  0  0
    9.6368  -13.7388   28.4594 N   0  0  0  0  0  0  0  0  0  0  0  0
    9.7825  -14.4561   29.5918 C   0  0  0  0  0  0  0  0  0  0  0  0
    9.9265  -15.7622   29.2802 N   0  0  0  0  0  0  0  0  0  0  0  0
   12.3634  -17.7428   26.6950 C   0  0  0  0  0  0  0  0  0  0  0  0
   12.5506  -18.9689   26.4056 O   0  0  0  0  0  0  0  0  0  0  0  0
   13.3412  -17.1449   27.4627 O   0  0  0  0  0  0  0  0  0  0  0  0
  2  3  1  0
  2  1  1  0
  4  5  1  0
  4  3  1  0
  5  6  1  1
  7  5  1  0
  7  8  2  0
 10  9  1  6
 10 12  1  0
 10 11  1  0
 11  7  1  0
 12 14  1  0
 13 12  2  0
 14 15  1  0
 15 22  1  0
 15 16  1  1
 17 16  1  0
 18 17  2  0
 19 18  1  0
 20 19  1  0
 20 21  2  0
 21 17  1  0
 22 23  2  0
 22 24  1  0
M  END
$$$$
