MAH.pdb
     RDKit          3D

 24 24  0  0  1  0  0  0  0  0999 V2000
    7.5266  -10.7916   25.1744 C   0  0  0  0  0  0  0  0  0  0  0  0
    7.8365  -11.2628   23.4739 S   0  0  0  0  0  0  0  0  0  0  0  0
    7.4319  -12.9530   23.0724 C   0  0  0  0  0  0  0  0  0  0  0  0
    7.6555  -13.3548   21.6583 C   0  0  0  0  0  0  0  0  0  0  0  0
    7.3183  -14.7637   21.3187 C   0  0  2  0  0  0  0  0  0  0  0  0
    5.9129  -15.0655   21.4524 N   0  0  0  0  0  0  0  0  0  0  0  0
    8.1556  -15.6594   22.1638 C   0  0  0  0  0  0  0  0  0  0  0  0
    7.6131  -16.1727   23.1765 O   0  0  0  0  0  0  0  0  0  0  0  0
   11.4054  -17.3794   21.8723 C   0  0  0  0  0  0  0  0  0  0  0  0
   10.2069  -16.9596   22.6631 C   0  0  2  0  0  0  0  0  0  0  0  0
    9.5074  -15.9557   21.8882 N   0  0  0  0  0  0  0  0  0  0  0  0
   10.5094  -16.5001   24.0270 C   0  0  0  0  0  0  0  0  0  0  0  0
   10.4491  -15.2661   24.2574 O   0  0  0  0  0  0  0  0  0  0  0  0
   10.8638  -17.3708   25.0926 N   0  0  0  0  0  0  0  0  0  0  0  0
   10.3582  -17.1927   26.4541 C   0  0  1  0  0  0  0  0  0  0  0  0
    8.8448  -17.2762   26.3703 C   0  0  0  0  0  0  0  0  0  0  0  0
    8.2320  -15.9675   26.7068 C   0  0  0  0  0  0  0  0  0  0  0  0
    8.8514  -14.7856   27.0264 C   0  0  0  0  0  0  0  0  0  0  0  0
    7.9289  -13.8604   27.2669 N   0  0  0  0  0  0  0  0  0  0  0  0
    6.7251  -14.4451   27.1027 C   0  0  0  0  0  0  0  0  0  0  0  0
    6.8982  -15.7395   26.7585 N   0  0  0  0  0  0  0  0  0  0  0  0
   10.9420  -18.1613   27.3838 C   0  0  0  0  0  0  0  0  0  0  0  0
   11.3490  -17.7629   28.5229 O   0  0  0  0  0  0  0  0  0  0  0  0
   11.0923  -19.5075   27.1230 O   0  0  0  0  0  0  0  0  0  0  0  0
  2  3  1  0
  2  1  1  0
  4  5  1  0
  4  3  1  0
  5  6  1  1
  7  5  1  0
  7  8  2  0
 10  9  1  6
 10 12  1  0
 10 11  1  0
 11  7  1  0
 12 14  1  0
 13 12  2  0
 14 15  1  0
 15 22  1  0
 15 16  1  6
 17 16  1  0
 18 17  2  0
 19 18  1  0
 20 19  1  0
 20 21  2  0
 21 17  1  0
 22 23  2  0
 22 24  1  0
M  END
$$$$
