MAH.pdb
     RDKit          3D

 24 24  0  0  1  0  0  0  0  0999 V2000
    7.8086  -11.8301   19.8633 C   0  0  0  0  0  0  0  0  0  0  0  0
    7.2512  -13.5194   19.6501 S   0  0  0  0  0  0  0  0  0  0  0  0
    8.4753  -14.7688   19.9997 C   0  0  0  0  0  0  0  0  0  0  0  0
    9.5715  -14.3631   20.9189 C   0  0  0  0  0  0  0  0  0  0  0  0
   10.5934  -15.4033   21.2156 C   0  0  2  0  0  0  0  0  0  0  0  0
   10.7709  -16.3550   20.1446 N   0  0  0  0  0  0  0  0  0  0  0  0
   10.2179  -16.0745   22.4907 C   0  0  0  0  0  0  0  0  0  0  0  0
    9.9032  -15.3380   23.4612 O   0  0  0  0  0  0  0  0  0  0  0  0
    9.4552  -19.5000   23.6493 C   0  0  0  0  0  0  0  0  0  0  0  0
    9.7339  -18.0526   23.9050 C   0  0  2  0  0  0  0  0  0  0  0  0
   10.1982  -17.4752   22.6607 N   0  0  0  0  0  0  0  0  0  0  0  0
   10.6620  -17.7998   25.0175 C   0  0  0  0  0  0  0  0  0  0  0  0
   11.8746  -17.6197   24.7406 O   0  0  0  0  0  0  0  0  0  0  0  0
   10.2645  -17.7482   26.3807 N   0  0  0  0  0  0  0  0  0  0  0  0
   11.2291  -17.7484   27.4810 C   0  0  1  0  0  0  0  0  0  0  0  0
   10.6437  -16.8706   28.5725 C   0  0  0  0  0  0  0  0  0  0  0  0
   10.3013  -15.5308   28.0349 C   0  0  0  0  0  0  0  0  0  0  0  0
   10.4725  -15.0460   26.7627 C   0  0  0  0  0  0  0  0  0  0  0  0
   10.0379  -13.7916   26.7114 N   0  0  0  0  0  0  0  0  0  0  0  0
    9.5908  -13.4736   27.9430 C   0  0  0  0  0  0  0  0  0  0  0  0
    9.7473  -14.5338   28.7648 N   0  0  0  0  0  0  0  0  0  0  0  0
   11.5406  -19.1057   27.9328 C   0  0  0  0  0  0  0  0  0  0  0  0
   10.8719  -20.0849   27.4681 O   0  0  0  0  0  0  0  0  0  0  0  0
   12.5258  -19.4227   28.8449 O   0  0  0  0  0  0  0  0  0  0  0  0
  2  3  1  0
  2  1  1  0
  4  5  1  0
  4  3  1  0
  5  6  1  6
  7  5  1  0
  7  8  2  0
 10  9  1  6
 10 12  1  0
 10 11  1  0
 11  7  1  0
 12 14  1  0
 13 12  2  0
 14 15  1  0
 15 22  1  0
 15 16  1  1
 17 16  1  0
 18 17  2  0
 19 18  1  0
 20 19  1  0
 20 21  2  0
 21 17  1  0
 22 23  2  0
 22 24  1  0
M  END
$$$$
