TIF.pdb
     RDKit          3D

 27 27  0  0  1  0  0  0  0  0999 V2000
   32.1951  -23.4088  -10.9965 C   0  0  0  0  0  0  0  0  0  0  0  0
   30.9078  -22.6928  -11.2689 C   0  0  1  0  0  0  0  0  0  0  0  0
   30.3057  -22.4322  -10.0227 O   0  0  0  0  0  0  0  0  0  0  0  0
   31.0976  -21.3607  -11.9415 C   0  0  2  0  0  0  0  0  0  0  0  0
   32.0748  -20.6205  -11.1695 N   0  0  0  0  0  0  0  0  0  0  0  0
   29.8803  -20.5717  -12.0608 C   0  0  0  0  0  0  0  0  0  0  0  0
   29.5676  -19.6311  -11.2849 O   0  0  0  0  0  0  0  0  0  0  0  0
   28.2826  -18.6294  -16.8955 C   0  0  0  0  0  0  0  0  0  0  0  0
   28.5191  -18.9251  -15.4583 C   0  0  0  0  0  0  0  0  0  0  0  0
   27.4883  -19.7303  -14.7617 C   0  0  2  0  0  0  0  0  0  0  0  0
   26.1020  -19.1190  -14.8408 C   0  0  0  0  0  0  0  0  0  0  0  0
   27.7534  -20.0746  -13.3262 C   0  0  2  0  0  0  0  0  0  0  0  0
   28.9553  -20.8477  -13.1082 N   0  0  0  0  0  0  0  0  0  0  0  0
   26.5741  -20.7259  -12.6622 C   0  0  0  0  0  0  0  0  0  0  0  0
   26.2814  -21.9316  -12.9092 O   0  0  0  0  0  0  0  0  0  0  0  0
   25.7548  -20.0265  -11.7464 N   0  0  0  0  0  0  0  0  0  0  0  0
   24.6057  -20.6345  -11.0635 C   0  0  1  0  0  0  0  0  0  0  0  0
   24.2927  -19.9346   -9.7956 C   0  0  0  0  0  0  0  0  0  0  0  0
   25.4352  -19.9290   -8.8815 C   0  0  0  0  0  0  0  0  0  0  0  0
   26.1200  -18.7806   -8.5740 C   0  0  0  0  0  0  0  0  0  0  0  0
   27.2096  -18.7960   -7.6953 C   0  0  0  0  0  0  0  0  0  0  0  0
   27.5998  -19.9804   -7.1314 C   0  0  0  0  0  0  0  0  0  0  0  0
   26.9327  -21.1405   -7.4222 C   0  0  0  0  0  0  0  0  0  0  0  0
   25.8500  -21.1058   -8.2995 C   0  0  0  0  0  0  0  0  0  0  0  0
   23.4419  -20.7143  -11.9566 C   0  0  0  0  0  0  0  0  0  0  0  0
   22.3364  -21.4489  -11.5708 O   0  0  0  0  0  0  0  0  0  0  0  0
   23.4290  -20.1333  -13.0548 O   0  0  0  0  0  0  0  0  0  0  0  0
  2  3  1  0
  2  1  1  1
  4  5  1  1
  4  2  1  0
  6  4  1  0
  7  6  2  0
  9  8  1  0
 10  9  1  0
 10 11  1  1
 12 10  1  0
 12 13  1  6
 13  6  1  0
 14 12  1  0
 15 14  2  0
 16 14  1  0
 17 16  1  0
 17 18  1  1
 18 19  1  0
 19 20  2  0
 20 21  1  0
 22 21  2  0
 23 22  1  0
 24 19  1  0
 24 23  2  0
 25 17  1  0
 25 26  1  0
 27 25  2  0
M  END
$$$$
