TIF.pdb
     RDKit          3D

 27 27  0  0  1  0  0  0  0  0999 V2000
   11.9271   -7.9080  -16.1792 C   0  0  0  0  0  0  0  0  0  0  0  0
   13.3787   -7.6151  -16.4050 C   0  0  1  0  0  0  0  0  0  0  0  0
   14.0490   -8.8526  -16.4564 O   0  0  0  0  0  0  0  0  0  0  0  0
   13.6507   -6.9242  -17.7133 C   0  0  2  0  0  0  0  0  0  0  0  0
   13.1925   -7.8021  -18.7707 N   0  0  0  0  0  0  0  0  0  0  0  0
   15.0505   -6.5927  -17.9352 C   0  0  0  0  0  0  0  0  0  0  0  0
   15.8476   -7.2998  -18.6053 O   0  0  0  0  0  0  0  0  0  0  0  0
   16.6990   -1.4489  -18.9930 C   0  0  0  0  0  0  0  0  0  0  0  0
   16.6078   -2.9289  -18.8921 C   0  0  0  0  0  0  0  0  0  0  0  0
   17.2180   -3.5576  -17.6968 C   0  0  2  0  0  0  0  0  0  0  0  0
   18.7111   -3.3104  -17.5912 C   0  0  0  0  0  0  0  0  0  0  0  0
   16.9850   -5.0275  -17.5111 C   0  0  2  0  0  0  0  0  0  0  0  0
   15.5949   -5.4010  -17.3765 N   0  0  0  0  0  0  0  0  0  0  0  0
   17.8017   -5.6036  -16.3898 C   0  0  0  0  0  0  0  0  0  0  0  0
   17.5222   -5.3340  -15.1859 O   0  0  0  0  0  0  0  0  0  0  0  0
   18.9008   -6.4592  -16.6322 N   0  0  0  0  0  0  0  0  0  0  0  0
   19.7258   -7.0364  -15.5633 C   0  0  1  0  0  0  0  0  0  0  0  0
   20.2966   -8.3444  -15.9618 C   0  0  0  0  0  0  0  0  0  0  0  0
   21.1712   -8.8941  -14.9255 C   0  0  0  0  0  0  0  0  0  0  0  0
   22.5261   -9.0177  -15.1021 C   0  0  0  0  0  0  0  0  0  0  0  0
   23.3461   -9.5445  -14.0973 C   0  0  0  0  0  0  0  0  0  0  0  0
   22.7852   -9.9444  -12.9147 C   0  0  0  0  0  0  0  0  0  0  0  0
   21.4353   -9.8314  -12.7138 C   0  0  0  0  0  0  0  0  0  0  0  0
   20.6345   -9.3045  -13.7258 C   0  0  0  0  0  0  0  0  0  0  0  0
   20.7594   -6.0894  -15.1237 C   0  0  0  0  0  0  0  0  0  0  0  0
   21.0524   -5.9776  -13.7775 O   0  0  0  0  0  0  0  0  0  0  0  0
   21.3788   -5.3848  -15.9383 O   0  0  0  0  0  0  0  0  0  0  0  0
  2  3  1  0
  2  1  1  6
  4  5  1  6
  4  2  1  0
  6  4  1  0
  7  6  2  0
  9  8  1  0
 10  9  1  0
 10 11  1  6
 12 10  1  0
 12 13  1  1
 13  6  1  0
 14 12  1  0
 15 14  2  0
 16 14  1  0
 17 16  1  0
 17 18  1  6
 18 19  1  0
 19 20  2  0
 20 21  1  0
 22 21  2  0
 23 22  1  0
 24 19  1  0
 24 23  2  0
 25 17  1  0
 25 26  1  0
 27 25  2  0
M  END
$$$$
