TIF.pdb
     RDKit          3D

 27 27  0  0  1  0  0  0  0  0999 V2000
   28.7391  -18.7541  -16.5529 C   0  0  0  0  0  0  0  0  0  0  0  0
   27.5716  -19.2534  -15.7582 C   0  0  1  0  0  0  0  0  0  0  0  0
   26.5488  -19.5664  -16.6745 O   0  0  0  0  0  0  0  0  0  0  0  0
   27.8663  -20.5160  -14.9953 C   0  0  2  0  0  0  0  0  0  0  0  0
   28.1098  -21.5628  -15.9667 N   0  0  0  0  0  0  0  0  0  0  0  0
   26.8018  -20.9331  -14.0945 C   0  0  0  0  0  0  0  0  0  0  0  0
   25.9529  -21.8221  -14.3656 O   0  0  0  0  0  0  0  0  0  0  0  0
   27.8995  -20.5753   -8.7051 C   0  0  0  0  0  0  0  0  0  0  0  0
   27.3346  -21.0725   -9.9867 C   0  0  0  0  0  0  0  0  0  0  0  0
   26.0464  -20.4845  -10.4237 C   0  0  2  0  0  0  0  0  0  0  0  0
   24.8740  -20.9119   -9.5608 C   0  0  0  0  0  0  0  0  0  0  0  0
   25.6576  -20.6942  -11.8571 C   0  0  2  0  0  0  0  0  0  0  0  0
   26.6755  -20.3224  -12.8139 N   0  0  0  0  0  0  0  0  0  0  0  0
   24.3451  -20.0489  -12.1988 C   0  0  0  0  0  0  0  0  0  0  0  0
   24.2607  -18.7938  -12.3328 O   0  0  0  0  0  0  0  0  0  0  0  0
   23.1669  -20.8087  -12.3820 N   0  0  0  0  0  0  0  0  0  0  0  0
   22.0906  -20.4203  -13.3024 C   0  0  1  0  0  0  0  0  0  0  0  0
   22.5900  -20.2610  -14.6883 C   0  0  0  0  0  0  0  0  0  0  0  0
   21.5290  -19.8391  -15.6033 C   0  0  0  0  0  0  0  0  0  0  0  0
   21.4710  -20.2705  -16.9044 C   0  0  0  0  0  0  0  0  0  0  0  0
   20.4462  -19.8566  -17.7635 C   0  0  0  0  0  0  0  0  0  0  0  0
   19.4826  -19.0043  -17.2964 C   0  0  0  0  0  0  0  0  0  0  0  0
   19.5182  -18.5593  -16.0018 C   0  0  0  0  0  0  0  0  0  0  0  0
   20.5463  -18.9822  -15.1608 C   0  0  0  0  0  0  0  0  0  0  0  0
   20.9625  -21.3581  -13.2222 C   0  0  0  0  0  0  0  0  0  0  0  0
   21.1783  -22.7041  -13.4506 O   0  0  0  0  0  0  0  0  0  0  0  0
   19.8148  -20.9666  -12.9519 O   0  0  0  0  0  0  0  0  0  0  0  0
  2  3  1  0
  2  1  1  6
  4  5  1  6
  4  2  1  0
  6  4  1  0
  7  6  2  0
  9  8  1  0
 10  9  1  0
 10 11  1  1
 12 10  1  0
 12 13  1  6
 13  6  1  0
 14 12  1  0
 15 14  2  0
 16 14  1  0
 17 16  1  0
 17 18  1  6
 18 19  1  0
 19 20  2  0
 20 21  1  0
 22 21  2  0
 23 22  1  0
 24 19  1  0
 24 23  2  0
 25 17  1  0
 25 26  1  0
 27 25  2  0
M  END
$$$$
