TIF.pdb
     RDKit          3D

 27 27  0  0  1  0  0  0  0  0999 V2000
   28.8823  -21.5692  -13.9447 C   0  0  0  0  0  0  0  0  0  0  0  0
   28.4873  -20.9000  -15.2254 C   0  0  1  0  0  0  0  0  0  0  0  0
   29.0741  -21.6328  -16.2752 O   0  0  0  0  0  0  0  0  0  0  0  0
   27.0031  -20.9113  -15.4705 C   0  0  2  0  0  0  0  0  0  0  0  0
   26.7552  -20.1328  -16.6668 N   0  0  0  0  0  0  0  0  0  0  0  0
   26.2114  -20.3740  -14.3737 C   0  0  0  0  0  0  0  0  0  0  0  0
   25.9055  -19.1592  -14.2503 O   0  0  0  0  0  0  0  0  0  0  0  0
   22.2436  -19.4324  -13.6316 C   0  0  0  0  0  0  0  0  0  0  0  0
   22.7293  -20.8350  -13.5546 C   0  0  0  0  0  0  0  0  0  0  0  0
   23.4743  -21.2197  -12.3327 C   0  0  2  0  0  0  0  0  0  0  0  0
   22.7886  -20.7772  -11.0537 C   0  0  0  0  0  0  0  0  0  0  0  0
   24.9097  -20.7923  -12.2517 C   0  0  2  0  0  0  0  0  0  0  0  0
   25.7314  -21.2431  -13.3524 N   0  0  0  0  0  0  0  0  0  0  0  0
   25.5428  -21.1445  -10.9360 C   0  0  0  0  0  0  0  0  0  0  0  0
   25.6196  -22.3503  -10.5612 O   0  0  0  0  0  0  0  0  0  0  0  0
   26.0713  -20.1551  -10.0752 N   0  0  0  0  0  0  0  0  0  0  0  0
   26.5973  -20.4476   -8.7358 C   0  0  1  0  0  0  0  0  0  0  0  0
   27.5525  -19.4078   -8.2866 C   0  0  0  0  0  0  0  0  0  0  0  0
   28.0098  -19.6450   -6.9171 C   0  0  0  0  0  0  0  0  0  0  0  0
   28.9293  -20.6163   -6.6111 C   0  0  0  0  0  0  0  0  0  0  0  0
   29.3555  -20.8262   -5.2944 C   0  0  0  0  0  0  0  0  0  0  0  0
   28.8448  -20.0470   -4.2917 C   0  0  0  0  0  0  0  0  0  0  0  0
   27.9257  -19.0710   -4.5712 C   0  0  0  0  0  0  0  0  0  0  0  0
   27.5132  -18.8764   -5.8884 C   0  0  0  0  0  0  0  0  0  0  0  0
   25.5067  -20.6539   -7.7732 C   0  0  0  0  0  0  0  0  0  0  0  0
   25.6446  -21.6070   -6.7818 O   0  0  0  0  0  0  0  0  0  0  0  0
   24.4596  -19.9875   -7.8305 O   0  0  0  0  0  0  0  0  0  0  0  0
  2  3  1  0
  2  1  1  1
  4  5  1  6
  4  2  1  0
  6  4  1  0
  7  6  2  0
  9  8  1  0
 10  9  1  0
 10 11  1  1
 12 10  1  0
 12 13  1  6
 13  6  1  0
 14 12  1  0
 15 14  2  0
 16 14  1  0
 17 16  1  0
 17 18  1  1
 18 19  1  0
 19 20  2  0
 20 21  1  0
 22 21  2  0
 23 22  1  0
 24 19  1  0
 24 23  2  0
 25 17  1  0
 25 26  1  0
 27 25  2  0
M  END
$$$$
