TIF.pdb
     RDKit          3D

 27 27  0  0  1  0  0  0  0  0999 V2000
   28.2500  -18.4661  -17.5421 C   0  0  0  0  0  0  0  0  0  0  0  0
   27.1969  -19.1576  -16.7316 C   0  0  1  0  0  0  0  0  0  0  0  0
   26.3331  -19.8033  -17.6373 O   0  0  0  0  0  0  0  0  0  0  0  0
   27.7473  -20.2259  -15.8266 C   0  0  2  0  0  0  0  0  0  0  0  0
   28.4019  -21.2094  -16.6650 N   0  0  0  0  0  0  0  0  0  0  0  0
   26.7458  -20.8859  -15.0020 C   0  0  0  0  0  0  0  0  0  0  0  0
   26.3316  -22.0588  -15.1948 O   0  0  0  0  0  0  0  0  0  0  0  0
   27.3642  -21.2523   -9.7964 C   0  0  0  0  0  0  0  0  0  0  0  0
   26.9327  -21.3514  -11.2152 C   0  0  0  0  0  0  0  0  0  0  0  0
   25.6090  -20.7776  -11.5542 C   0  0  2  0  0  0  0  0  0  0  0  0
   24.4737  -21.3865  -10.7531 C   0  0  0  0  0  0  0  0  0  0  0  0
   25.2107  -20.8014  -13.0000 C   0  0  2  0  0  0  0  0  0  0  0  0
   26.1712  -20.1972  -13.8956 N   0  0  0  0  0  0  0  0  0  0  0  0
   23.8390  -20.2340  -13.2296 C   0  0  0  0  0  0  0  0  0  0  0  0
   23.5561  -19.0610  -12.8495 O   0  0  0  0  0  0  0  0  0  0  0  0
   22.8228  -20.9786  -13.8713 N   0  0  0  0  0  0  0  0  0  0  0  0
   21.4772  -20.4511  -14.1313 C   0  0  1  0  0  0  0  0  0  0  0  0
   21.1095  -20.5773  -15.5611 C   0  0  0  0  0  0  0  0  0  0  0  0
   21.9762  -19.7684  -16.4187 C   0  0  0  0  0  0  0  0  0  0  0  0
   23.1143  -20.2747  -16.9937 C   0  0  0  0  0  0  0  0  0  0  0  0
   23.9294  -19.4846  -17.8129 C   0  0  0  0  0  0  0  0  0  0  0  0
   23.5842  -18.1807  -18.0451 C   0  0  0  0  0  0  0  0  0  0  0  0
   22.4531  -17.6517  -17.4828 C   0  0  0  0  0  0  0  0  0  0  0  0
   21.6537  -18.4536  -16.6697 C   0  0  0  0  0  0  0  0  0  0  0  0
   20.4850  -21.0742  -13.2449 C   0  0  0  0  0  0  0  0  0  0  0  0
   19.2300  -20.5080  -13.1230 O   0  0  0  0  0  0  0  0  0  0  0  0
   20.7498  -22.1031  -12.6007 O   0  0  0  0  0  0  0  0  0  0  0  0
  2  3  1  0
  2  1  1  6
  4  5  1  6
  4  2  1  0
  6  4  1  0
  7  6  2  0
  9  8  1  0
 10  9  1  0
 10 11  1  1
 12 10  1  0
 12 13  1  6
 13  6  1  0
 14 12  1  0
 15 14  2  0
 16 14  1  0
 17 16  1  0
 17 18  1  6
 18 19  1  0
 19 20  2  0
 20 21  1  0
 22 21  2  0
 23 22  1  0
 24 19  1  0
 24 23  2  0
 25 17  1  0
 25 26  1  0
 27 25  2  0
M  END
$$$$
