TIF.pdb
     RDKit          3D

 27 27  0  0  1  0  0  0  0  0999 V2000
   26.3689  -24.3236  -19.0184 C   0  0  0  0  0  0  0  0  0  0  0  0
   26.4186  -23.5021  -17.7668 C   0  0  1  0  0  0  0  0  0  0  0  0
   26.3741  -24.3972  -16.6804 O   0  0  0  0  0  0  0  0  0  0  0  0
   27.6913  -22.7132  -17.6218 C   0  0  2  0  0  0  0  0  0  0  0  0
   28.7920  -23.6542  -17.6657 N   0  0  0  0  0  0  0  0  0  0  0  0
   27.7746  -21.9315  -16.3969 C   0  0  0  0  0  0  0  0  0  0  0  0
   28.5737  -22.1745  -15.4552 O   0  0  0  0  0  0  0  0  0  0  0  0
   27.7414  -16.5330  -16.5773 C   0  0  0  0  0  0  0  0  0  0  0  0
   27.9594  -17.9074  -16.0555 C   0  0  0  0  0  0  0  0  0  0  0  0
   26.8495  -18.5148  -15.2839 C   0  0  2  0  0  0  0  0  0  0  0  0
   26.5993  -17.8235  -13.9568 C   0  0  0  0  0  0  0  0  0  0  0  0
   26.9345  -19.9890  -15.0210 C   0  0  2  0  0  0  0  0  0  0  0  0
   26.9152  -20.8110  -16.2100 N   0  0  0  0  0  0  0  0  0  0  0  0
   25.9055  -20.4587  -14.0327 C   0  0  0  0  0  0  0  0  0  0  0  0
   24.7029  -20.6272  -14.3870 O   0  0  0  0  0  0  0  0  0  0  0  0
   26.2360  -20.7278  -12.6846 N   0  0  0  0  0  0  0  0  0  0  0  0
   25.2642  -21.2132  -11.6965 C   0  0  1  0  0  0  0  0  0  0  0  0
   25.9366  -21.7814  -10.5047 C   0  0  0  0  0  0  0  0  0  0  0  0
   26.0702  -20.7936   -9.4335 C   0  0  0  0  0  0  0  0  0  0  0  0
   26.9316  -19.7295   -9.5233 C   0  0  0  0  0  0  0  0  0  0  0  0
   27.0432  -18.7941   -8.4879 C   0  0  0  0  0  0  0  0  0  0  0  0
   26.2779  -18.9437   -7.3632 C   0  0  0  0  0  0  0  0  0  0  0  0
   25.4106  -19.9974   -7.2493 C   0  0  0  0  0  0  0  0  0  0  0  0
   25.3128  -20.9190   -8.2905 C   0  0  0  0  0  0  0  0  0  0  0  0
   24.3002  -20.1624  -11.3430 C   0  0  0  0  0  0  0  0  0  0  0  0
   23.0340  -20.5155  -10.9159 O   0  0  0  0  0  0  0  0  0  0  0  0
   24.5994  -18.9589  -11.4191 O   0  0  0  0  0  0  0  0  0  0  0  0
  2  3  1  0
  2  1  1  6
  4  5  1  1
  4  2  1  0
  6  4  1  0
  7  6  2  0
  9  8  1  0
 10  9  1  0
 10 11  1  1
 12 10  1  0
 12 13  1  6
 13  6  1  0
 14 12  1  0
 15 14  2  0
 16 14  1  0
 17 16  1  0
 17 18  1  1
 18 19  1  0
 19 20  2  0
 20 21  1  0
 22 21  2  0
 23 22  1  0
 24 19  1  0
 24 23  2  0
 25 17  1  0
 25 26  1  0
 27 25  2  0
M  END
$$$$
