TIF.pdb
     RDKit          3D

 27 27  0  0  1  0  0  0  0  0999 V2000
   23.6601  -21.3339  -20.5289 C   0  0  0  0  0  0  0  0  0  0  0  0
   24.1329  -20.8398  -19.1961 C   0  0  1  0  0  0  0  0  0  0  0  0
   24.4120  -21.9732  -18.4082 O   0  0  0  0  0  0  0  0  0  0  0  0
   25.4080  -20.0453  -19.2732 C   0  0  2  0  0  0  0  0  0  0  0  0
   26.3705  -20.8403  -20.0082 N   0  0  0  0  0  0  0  0  0  0  0  0
   25.9683  -19.6861  -17.9788 C   0  0  0  0  0  0  0  0  0  0  0  0
   26.9829  -20.2311  -17.4709 O   0  0  0  0  0  0  0  0  0  0  0  0
   26.2913  -14.8755  -14.0622 C   0  0  0  0  0  0  0  0  0  0  0  0
   26.3432  -16.3363  -14.3308 C   0  0  0  0  0  0  0  0  0  0  0  0
   25.7530  -16.8040  -15.6072 C   0  0  2  0  0  0  0  0  0  0  0  0
   24.3091  -16.3748  -15.7877 C   0  0  0  0  0  0  0  0  0  0  0  0
   25.8301  -18.2749  -15.8903 C   0  0  2  0  0  0  0  0  0  0  0  0
   25.3612  -18.6571  -17.2033 N   0  0  0  0  0  0  0  0  0  0  0  0
   25.1667  -19.1023  -14.8267 C   0  0  0  0  0  0  0  0  0  0  0  0
   23.9403  -19.3998  -14.9144 O   0  0  0  0  0  0  0  0  0  0  0  0
   25.8774  -19.5756  -13.6998 N   0  0  0  0  0  0  0  0  0  0  0  0
   25.2869  -20.4571  -12.6846 C   0  0  1  0  0  0  0  0  0  0  0  0
   26.0935  -21.6853  -12.4938 C   0  0  0  0  0  0  0  0  0  0  0  0
   26.2122  -22.4554  -13.7323 C   0  0  0  0  0  0  0  0  0  0  0  0
   27.2019  -22.2141  -14.6513 C   0  0  0  0  0  0  0  0  0  0  0  0
   27.2996  -22.9636  -15.8295 C   0  0  0  0  0  0  0  0  0  0  0  0
   26.3895  -23.9571  -16.0699 C   0  0  0  0  0  0  0  0  0  0  0  0
   25.3921  -24.2175  -15.1683 C   0  0  0  0  0  0  0  0  0  0  0  0
   25.3107  -23.4608  -14.0004 C   0  0  0  0  0  0  0  0  0  0  0  0
   25.0647  -19.7364  -11.4237 C   0  0  0  0  0  0  0  0  0  0  0  0
   24.2186  -20.2739  -10.4720 O   0  0  0  0  0  0  0  0  0  0  0  0
   25.6231  -18.6508  -11.1928 O   0  0  0  0  0  0  0  0  0  0  0  0
  2  3  1  0
  2  1  1  6
  4  5  1  1
  4  2  1  0
  6  4  1  0
  7  6  2  0
  9  8  1  0
 10  9  1  0
 10 11  1  1
 12 10  1  0
 12 13  1  6
 13  6  1  0
 14 12  1  0
 15 14  2  0
 16 14  1  0
 17 16  1  0
 17 18  1  1
 18 19  1  0
 19 20  2  0
 20 21  1  0
 22 21  2  0
 23 22  1  0
 24 19  1  0
 24 23  2  0
 25 17  1  0
 25 26  1  0
 27 25  2  0
M  END
$$$$
