TIF.pdb
     RDKit          3D

 27 27  0  0  1  0  0  0  0  0999 V2000
   29.0948  -18.3869  -16.5714 C   0  0  0  0  0  0  0  0  0  0  0  0
   27.9118  -19.0013  -15.8881 C   0  0  1  0  0  0  0  0  0  0  0  0
   26.9332  -19.2275  -16.8753 O   0  0  0  0  0  0  0  0  0  0  0  0
   28.2109  -20.3377  -15.2653 C   0  0  2  0  0  0  0  0  0  0  0  0
   28.6196  -21.2307  -16.3304 N   0  0  0  0  0  0  0  0  0  0  0  0
   27.0910  -20.9268  -14.5461 C   0  0  0  0  0  0  0  0  0  0  0  0
   26.4062  -21.8933  -14.9717 O   0  0  0  0  0  0  0  0  0  0  0  0
   25.1525  -21.4684   -8.6383 C   0  0  0  0  0  0  0  0  0  0  0  0
   24.8978  -21.5282  -10.1014 C   0  0  0  0  0  0  0  0  0  0  0  0
   25.9271  -20.9321  -10.9853 C   0  0  2  0  0  0  0  0  0  0  0  0
   26.2545  -19.4935  -10.6315 C   0  0  0  0  0  0  0  0  0  0  0  0
   25.6688  -20.9910  -12.4616 C   0  0  2  0  0  0  0  0  0  0  0  0
   26.7112  -20.4072  -13.2754 N   0  0  0  0  0  0  0  0  0  0  0  0
   24.3260  -20.4310  -12.8347 C   0  0  0  0  0  0  0  0  0  0  0  0
   24.1370  -19.1806  -12.8680 O   0  0  0  0  0  0  0  0  0  0  0  0
   23.2339  -21.2682  -13.1594 N   0  0  0  0  0  0  0  0  0  0  0  0
   21.8926  -20.7601  -13.4740 C   0  0  1  0  0  0  0  0  0  0  0  0
   21.5494  -20.9741  -14.8994 C   0  0  0  0  0  0  0  0  0  0  0  0
   22.2014  -19.9941  -15.7685 C   0  0  0  0  0  0  0  0  0  0  0  0
   23.4249  -20.2267  -16.3440 C   0  0  0  0  0  0  0  0  0  0  0  0
   24.0312  -19.2768  -17.1744 C   0  0  0  0  0  0  0  0  0  0  0  0
   23.3908  -18.0918  -17.4172 C   0  0  0  0  0  0  0  0  0  0  0  0
   22.1688  -17.8356  -16.8546 C   0  0  0  0  0  0  0  0  0  0  0  0
   21.5804  -18.7934  -16.0303 C   0  0  0  0  0  0  0  0  0  0  0  0
   20.8859  -21.3297  -12.5681 C   0  0  0  0  0  0  0  0  0  0  0  0
   19.5870  -20.8590  -12.6110 O   0  0  0  0  0  0  0  0  0  0  0  0
   21.1771  -22.2290  -11.7618 O   0  0  0  0  0  0  0  0  0  0  0  0
  2  3  1  0
  2  1  1  6
  4  5  1  6
  4  2  1  0
  6  4  1  0
  7  6  2  0
  9  8  1  0
 10  9  1  0
 10 11  1  1
 12 10  1  0
 12 13  1  6
 13  6  1  0
 14 12  1  0
 15 14  2  0
 16 14  1  0
 17 16  1  0
 17 18  1  6
 18 19  1  0
 19 20  2  0
 20 21  1  0
 22 21  2  0
 23 22  1  0
 24 19  1  0
 24 23  2  0
 25 17  1  0
 25 26  1  0
 27 25  2  0
M  END
$$$$
