GIR.pdb
     RDKit          3D

 24 23  0  0  1  0  0  0  0  0999 V2000
   26.7441  -22.0225  -14.5623 N   0  0  0  0  0  0  0  0  0  0  0  0
   25.4336  -22.2390  -15.1001 C   0  0  0  0  0  0  0  0  0  0  0  0
   24.4168  -21.4058  -14.4072 C   0  0  0  0  0  0  0  0  0  0  0  0
   24.6731  -20.8596  -13.3211 O   0  0  0  0  0  0  0  0  0  0  0  0
   22.1752  -17.3123  -16.4027 C   0  0  0  0  0  0  0  0  0  0  0  0
   22.6473  -18.3232  -15.3806 C   0  0  0  0  0  0  0  0  0  0  0  0
   21.5541  -19.3248  -15.0641 C   0  0  2  0  0  0  0  0  0  0  0  0
   20.4216  -18.6118  -14.3570 C   0  0  0  0  0  0  0  0  0  0  0  0
   22.0702  -20.4823  -14.2533 C   0  0  2  0  0  0  0  0  0  0  0  0
   23.1054  -21.2025  -14.9659 N   0  0  0  0  0  0  0  0  0  0  0  0
   20.9670  -21.4110  -13.8556 C   0  0  0  0  0  0  0  0  0  0  0  0
   20.3034  -21.9649  -14.7573 O   0  0  0  0  0  0  0  0  0  0  0  0
   18.5420  -24.8521   -6.5188 N   0  0  0  0  0  0  0  0  0  0  0  0
   17.5540  -25.3936   -7.3857 C   0  0  0  0  0  0  0  0  0  0  0  0
   16.4299  -25.8112   -6.8890 N   0  0  0  0  0  0  0  0  0  0  0  0
   17.7614  -25.4910   -8.7808 N   0  0  0  0  0  0  0  0  0  0  0  0
   19.0305  -24.9689   -9.3964 C   0  0  0  0  0  0  0  0  0  0  0  0
   18.6931  -23.6345   -9.9098 C   0  0  0  0  0  0  0  0  0  0  0  0
   19.6339  -22.7734  -10.6299 C   0  0  0  0  0  0  0  0  0  0  0  0
   19.5399  -22.5443  -12.0646 C   0  0  2  0  0  0  0  0  0  0  0  0
   20.6677  -21.6682  -12.5123 N   0  0  0  0  0  0  0  0  0  0  0  0
   18.2997  -21.7926  -12.4604 C   0  0  0  0  0  0  0  0  0  0  0  0
   17.2731  -22.5183  -13.1437 O   0  0  0  0  0  0  0  0  0  0  0  0
   18.0399  -20.6085  -12.2701 O   0  0  0  0  0  0  0  0  0  0  0  0
  2  1  1  0
  3  2  1  0
  4  3  2  0
  5  6  1  0
  6  7  1  0
  7  9  1  0
  7  8  1  1
  9 10  1  6
 10  3  1  0
 11 21  1  0
 11  9  1  0
 12 11  2  0
 13 14  1  0
 14 15  2  0
 16 14  1  0
 17 16  1  0
 18 17  1  0
 19 18  1  0
 20 19  1  1
 20 21  1  0
 22 20  1  0
 22 23  1  0
 24 22  2  0
M  END
$$$$
