GIR.pdb
     RDKit          3D

 24 23  0  0  1  0  0  0  0  0999 V2000
   26.2933  -24.2059  -16.3280 N   0  0  0  0  0  0  0  0  0  0  0  0
   25.1246  -23.3911  -16.4813 C   0  0  0  0  0  0  0  0  0  0  0  0
   24.5681  -22.9850  -15.1646 C   0  0  0  0  0  0  0  0  0  0  0  0
   25.3019  -22.5101  -14.2816 O   0  0  0  0  0  0  0  0  0  0  0  0
   24.0284  -19.0238  -15.9648 C   0  0  0  0  0  0  0  0  0  0  0  0
   23.9480  -20.3357  -15.2151 C   0  0  0  0  0  0  0  0  0  0  0  0
   22.5085  -20.7880  -15.0673 C   0  0  2  0  0  0  0  0  0  0  0  0
   21.7002  -19.6671  -14.4500 C   0  0  0  0  0  0  0  0  0  0  0  0
   22.3976  -22.0559  -14.2652 C   0  0  2  0  0  0  0  0  0  0  0  0
   23.1667  -23.1264  -14.8659 N   0  0  0  0  0  0  0  0  0  0  0  0
   20.9718  -22.4726  -14.0888 C   0  0  0  0  0  0  0  0  0  0  0  0
   20.2100  -22.4156  -15.0771 O   0  0  0  0  0  0  0  0  0  0  0  0
   16.8231  -24.9828   -7.6347 N   0  0  0  0  0  0  0  0  0  0  0  0
   18.2132  -25.2358   -7.7908 C   0  0  0  0  0  0  0  0  0  0  0  0
   19.0220  -24.9803   -6.8082 N   0  0  0  0  0  0  0  0  0  0  0  0
   18.7434  -25.7606   -8.9918 N   0  0  0  0  0  0  0  0  0  0  0  0
   17.8262  -26.1507  -10.1181 C   0  0  0  0  0  0  0  0  0  0  0  0
   17.8614  -25.0214  -11.0570 C   0  0  0  0  0  0  0  0  0  0  0  0
   19.0953  -24.4285  -11.5772 C   0  0  0  0  0  0  0  0  0  0  0  0
   19.0960  -23.4494  -12.6548 C   0  0  2  0  0  0  0  0  0  0  0  0
   20.4810  -22.9189  -12.8558 N   0  0  0  0  0  0  0  0  0  0  0  0
   18.2685  -22.2331  -12.3451 C   0  0  0  0  0  0  0  0  0  0  0  0
   16.8607  -22.3081  -12.5895 O   0  0  0  0  0  0  0  0  0  0  0  0
   18.6467  -21.1552  -11.8970 O   0  0  0  0  0  0  0  0  0  0  0  0
  2  1  1  0
  3  2  1  0
  4  3  2  0
  5  6  1  0
  6  7  1  0
  7  9  1  0
  7  8  1  1
  9 10  1  6
 10  3  1  0
 11 21  1  0
 11  9  1  0
 12 11  2  0
 13 14  1  0
 14 15  2  0
 16 14  1  0
 17 16  1  0
 18 17  1  0
 19 18  1  0
 20 19  1  1
 20 21  1  0
 22 20  1  0
 22 23  1  0
 24 22  2  0
M  END
$$$$
