GIR.pdb
     RDKit          3D

 24 23  0  0  1  0  0  0  0  0999 V2000
   12.1388  -11.4133   -8.9675 N   0  0  0  0  0  0  0  0  0  0  0  0
   13.4972  -11.0513   -9.2456 C   0  0  0  0  0  0  0  0  0  0  0  0
   13.6504   -9.5797   -9.3839 C   0  0  0  0  0  0  0  0  0  0  0  0
   12.8752   -8.9226  -10.0987 O   0  0  0  0  0  0  0  0  0  0  0  0
   12.9377   -5.8755   -7.2126 C   0  0  0  0  0  0  0  0  0  0  0  0
   14.0558   -6.7634   -6.7115 C   0  0  0  0  0  0  0  0  0  0  0  0
   15.2398   -6.7299   -7.6577 C   0  0  2  0  0  0  0  0  0  0  0  0
   15.6263   -5.2890   -7.9133 C   0  0  0  0  0  0  0  0  0  0  0  0
   14.9543   -7.4615   -8.9410 C   0  0  2  0  0  0  0  0  0  0  0  0
   14.6965   -8.8661   -8.6987 N   0  0  0  0  0  0  0  0  0  0  0  0
   16.0667   -7.2972   -9.9275 C   0  0  0  0  0  0  0  0  0  0  0  0
   17.2220   -7.6191   -9.5784 O   0  0  0  0  0  0  0  0  0  0  0  0
   17.2184   -9.4734  -18.4708 N   0  0  0  0  0  0  0  0  0  0  0  0
   18.2662   -8.6139  -18.0416 C   0  0  0  0  0  0  0  0  0  0  0  0
   19.2444   -8.3473  -18.8521 N   0  0  0  0  0  0  0  0  0  0  0  0
   18.2738   -8.0378  -16.7505 N   0  0  0  0  0  0  0  0  0  0  0  0
   17.1700   -8.3465  -15.7766 C   0  0  0  0  0  0  0  0  0  0  0  0
   17.4350   -7.4982  -14.6069 C   0  0  0  0  0  0  0  0  0  0  0  0
   16.6183   -7.5032  -13.3912 C   0  0  0  0  0  0  0  0  0  0  0  0
   16.9147   -6.6499  -12.2493 C   0  0  2  0  0  0  0  0  0  0  0  0
   15.8423   -6.7969  -11.2157 N   0  0  0  0  0  0  0  0  0  0  0  0
   16.9092   -5.1861  -12.5915 C   0  0  0  0  0  0  0  0  0  0  0  0
   18.1246   -4.6153  -13.0858 O   0  0  0  0  0  0  0  0  0  0  0  0
   15.9774   -4.3925  -12.5040 O   0  0  0  0  0  0  0  0  0  0  0  0
  2  1  1  0
  3  2  1  0
  4  3  2  0
  5  6  1  0
  6  7  1  0
  7  9  1  0
  7  8  1  6
  9 10  1  1
 10  3  1  0
 11 21  1  0
 11  9  1  0
 12 11  2  0
 13 14  1  0
 14 15  2  0
 16 14  1  0
 17 16  1  0
 18 17  1  0
 19 18  1  0
 20 19  1  6
 20 21  1  0
 22 20  1  0
 22 23  1  0
 24 22  2  0
M  END
$$$$
