GIR.pdb
     RDKit          3D

 24 23  0  0  1  0  0  0  0  0999 V2000
   25.6076  -25.9329  -16.0772 N   0  0  0  0  0  0  0  0  0  0  0  0
   25.7799  -24.7431  -16.8571 C   0  0  0  0  0  0  0  0  0  0  0  0
   25.4896  -23.5232  -16.0597 C   0  0  0  0  0  0  0  0  0  0  0  0
   25.1441  -23.6073  -14.8692 O   0  0  0  0  0  0  0  0  0  0  0  0
   28.7614  -19.4178  -16.4595 C   0  0  0  0  0  0  0  0  0  0  0  0
   27.7590  -20.4595  -16.0126 C   0  0  0  0  0  0  0  0  0  0  0  0
   26.3413  -19.9385  -16.1434 C   0  0  2  0  0  0  0  0  0  0  0  0
   26.1648  -18.7520  -15.2206 C   0  0  0  0  0  0  0  0  0  0  0  0
   25.3215  -21.0097  -15.8676 C   0  0  2  0  0  0  0  0  0  0  0  0
   25.5974  -22.2074  -16.6341 N   0  0  0  0  0  0  0  0  0  0  0  0
   23.9309  -20.5275  -16.1346 C   0  0  0  0  0  0  0  0  0  0  0  0
   23.6425  -20.1588  -17.2927 O   0  0  0  0  0  0  0  0  0  0  0  0
   21.0275  -24.1306  -13.0438 N   0  0  0  0  0  0  0  0  0  0  0  0
   20.2039  -24.7725  -14.0083 C   0  0  0  0  0  0  0  0  0  0  0  0
   20.4265  -26.0149  -14.3112 N   0  0  0  0  0  0  0  0  0  0  0  0
   19.1432  -24.0933  -14.6507 N   0  0  0  0  0  0  0  0  0  0  0  0
   18.8216  -22.6708  -14.2831 C   0  0  0  0  0  0  0  0  0  0  0  0
   19.7319  -21.8458  -15.0885 C   0  0  0  0  0  0  0  0  0  0  0  0
   20.6504  -20.8536  -14.5256 C   0  0  0  0  0  0  0  0  0  0  0  0
   21.5430  -20.0578  -15.3561 C   0  0  2  0  0  0  0  0  0  0  0  0
   22.9599  -20.4818  -15.1270 N   0  0  0  0  0  0  0  0  0  0  0  0
   21.5262  -18.5962  -15.0049 C   0  0  0  0  0  0  0  0  0  0  0  0
   20.7560  -17.7225  -15.8361 O   0  0  0  0  0  0  0  0  0  0  0  0
   22.0977  -18.0352  -14.0752 O   0  0  0  0  0  0  0  0  0  0  0  0
  2  1  1  0
  3  2  1  0
  4  3  2  0
  5  6  1  0
  6  7  1  0
  7  9  1  0
  7  8  1  1
  9 10  1  6
 10  3  1  0
 11 21  1  0
 11  9  1  0
 12 11  2  0
 13 14  1  0
 14 15  2  0
 16 14  1  0
 17 16  1  0
 18 17  1  0
 19 18  1  0
 20 19  1  1
 20 21  1  0
 22 20  1  0
 22 23  1  0
 24 22  2  0
M  END
$$$$
