GIR.pdb
     RDKit          3D

 24 23  0  0  1  0  0  0  0  0999 V2000
   28.6799  -20.3999  -15.0106 N   0  0  0  0  0  0  0  0  0  0  0  0
   28.6133  -19.9755  -13.6435 C   0  0  0  0  0  0  0  0  0  0  0  0
   27.5256  -20.6732  -12.9097 C   0  0  0  0  0  0  0  0  0  0  0  0
   27.1637  -21.8147  -13.2410 O   0  0  0  0  0  0  0  0  0  0  0  0
   26.9152  -19.7540   -7.5897 C   0  0  0  0  0  0  0  0  0  0  0  0
   26.9080  -20.5148   -8.8977 C   0  0  0  0  0  0  0  0  0  0  0  0
   25.6456  -20.2257   -9.6858 C   0  0  2  0  0  0  0  0  0  0  0  0
   24.4665  -20.8576   -8.9777 C   0  0  0  0  0  0  0  0  0  0  0  0
   25.7523  -20.6974  -11.1104 C   0  0  2  0  0  0  0  0  0  0  0  0
   26.8556  -20.0555  -11.7950 N   0  0  0  0  0  0  0  0  0  0  0  0
   24.4756  -20.4801  -11.8592 C   0  0  0  0  0  0  0  0  0  0  0  0
   24.1207  -19.3068  -12.0994 O   0  0  0  0  0  0  0  0  0  0  0  0
   21.4872  -26.1528  -17.3106 N   0  0  0  0  0  0  0  0  0  0  0  0
   22.2588  -25.9797  -16.1293 C   0  0  0  0  0  0  0  0  0  0  0  0
   23.3225  -26.7019  -15.9511 N   0  0  0  0  0  0  0  0  0  0  0  0
   21.8993  -25.0384  -15.1375 N   0  0  0  0  0  0  0  0  0  0  0  0
   20.6964  -24.1566  -15.3305 C   0  0  0  0  0  0  0  0  0  0  0  0
   21.0514  -22.8733  -14.7098 C   0  0  0  0  0  0  0  0  0  0  0  0
   22.2134  -22.6795  -13.8397 C   0  0  0  0  0  0  0  0  0  0  0  0
   22.5138  -21.3998  -13.2135 C   0  0  2  0  0  0  0  0  0  0  0  0
   23.6820  -21.5500  -12.2900 N   0  0  0  0  0  0  0  0  0  0  0  0
   21.4015  -20.8993  -12.3348 C   0  0  0  0  0  0  0  0  0  0  0  0
   20.4502  -20.0015  -12.9145 O   0  0  0  0  0  0  0  0  0  0  0  0
   21.1916  -21.1650  -11.1553 O   0  0  0  0  0  0  0  0  0  0  0  0
  2  1  1  0
  3  2  1  0
  4  3  2  0
  5  6  1  0
  6  7  1  0
  7  9  1  0
  7  8  1  1
  9 10  1  6
 10  3  1  0
 11 21  1  0
 11  9  1  0
 12 11  2  0
 13 14  1  0
 14 15  2  0
 16 14  1  0
 17 16  1  0
 18 17  1  0
 19 18  1  0
 20 19  1  1
 20 21  1  0
 22 20  1  0
 22 23  1  0
 24 22  2  0
M  END
$$$$
