GIR.pdb
     RDKit          3D

 24 23  0  0  1  0  0  0  0  0999 V2000
   23.4224  -20.6734   -9.0507 N   0  0  0  0  0  0  0  0  0  0  0  0
   24.4298  -21.5292   -9.6039 C   0  0  0  0  0  0  0  0  0  0  0  0
   25.4270  -20.7577  -10.3903 C   0  0  0  0  0  0  0  0  0  0  0  0
   25.3948  -19.5159  -10.4172 O   0  0  0  0  0  0  0  0  0  0  0  0
   30.5750  -22.0543  -10.1181 C   0  0  0  0  0  0  0  0  0  0  0  0
   29.2455  -21.3475  -10.2679 C   0  0  0  0  0  0  0  0  0  0  0  0
   28.8252  -21.2866  -11.7233 C   0  0  2  0  0  0  0  0  0  0  0  0
   29.8724  -20.5257  -12.5076 C   0  0  0  0  0  0  0  0  0  0  0  0
   27.4597  -20.6771  -11.8886 C   0  0  2  0  0  0  0  0  0  0  0  0
   26.4607  -21.4171  -11.1452 N   0  0  0  0  0  0  0  0  0  0  0  0
   27.0716  -20.5790  -13.3300 C   0  0  0  0  0  0  0  0  0  0  0  0
   26.9046  -21.6367  -13.9731 O   0  0  0  0  0  0  0  0  0  0  0  0
   21.5134  -20.2022  -16.7746 N   0  0  0  0  0  0  0  0  0  0  0  0
   21.4220  -18.8712  -17.2652 C   0  0  0  0  0  0  0  0  0  0  0  0
   20.5834  -18.5989  -18.2177 N   0  0  0  0  0  0  0  0  0  0  0  0
   22.2226  -17.8294  -16.7428 N   0  0  0  0  0  0  0  0  0  0  0  0
   23.2244  -18.1150  -15.6580 C   0  0  0  0  0  0  0  0  0  0  0  0
   24.5088  -17.6253  -16.1762 C   0  0  0  0  0  0  0  0  0  0  0  0
   25.7973  -17.8570  -15.5198 C   0  0  0  0  0  0  0  0  0  0  0  0
   26.3587  -19.1900  -15.3526 C   0  0  2  0  0  0  0  0  0  0  0  0
   26.8943  -19.3431  -13.9636 N   0  0  0  0  0  0  0  0  0  0  0  0
   27.5429  -19.4455  -16.2428 C   0  0  0  0  0  0  0  0  0  0  0  0
   27.3069  -20.1124  -17.4865 O   0  0  0  0  0  0  0  0  0  0  0  0
   28.7169  -19.1500  -16.0429 O   0  0  0  0  0  0  0  0  0  0  0  0
  2  1  1  0
  3  2  1  0
  4  3  2  0
  5  6  1  0
  6  7  1  0
  7  9  1  0
  7  8  1  6
  9 10  1  1
 10  3  1  0
 11 21  1  0
 11  9  1  0
 12 11  2  0
 13 14  1  0
 14 15  2  0
 16 14  1  0
 17 16  1  0
 18 17  1  0
 19 18  1  0
 20 19  1  1
 20 21  1  0
 22 20  1  0
 22 23  1  0
 24 22  2  0
M  END
$$$$
