DFK.pdb
     RDKit          3D

 29 29  0  0  1  0  0  0  0  0999 V2000
   28.8878  -30.8333  -19.5968 N   0  0  0  0  0  0  0  0  0  0  0  0
   27.6793  -30.2653  -18.9062 C   0  0  1  0  0  0  0  0  0  0  0  0
   26.7230  -30.0383  -20.0342 C   0  0  0  0  0  0  0  0  0  0  0  0
   26.7842  -28.7786  -20.7450 C   0  0  0  0  0  0  0  0  0  0  0  0
   27.7070  -27.9598  -20.8346 O   0  0  0  0  0  0  0  0  0  0  0  0
   27.2783  -31.3397  -17.9670 C   0  0  0  0  0  0  0  0  0  0  0  0
   27.2581  -32.5564  -18.3658 O   0  0  0  0  0  0  0  0  0  0  0  0
   25.5951  -28.4302  -21.4502 O   0  0  0  0  0  0  0  0  0  0  0  0
   26.9207  -31.0488  -16.6380 N   0  0  0  0  0  0  0  0  0  0  0  0
   26.4810  -32.0816  -15.7134 C   0  0  1  0  0  0  0  0  0  0  0  0
   27.4362  -32.2337  -14.5619 C   0  0  0  0  0  0  0  0  0  0  0  0
   28.6516  -32.9760  -14.9159 C   0  0  0  0  0  0  0  0  0  0  0  0
   28.6802  -34.3501  -14.9198 C   0  0  0  0  0  0  0  0  0  0  0  0
   29.8427  -35.0527  -15.2588 C   0  0  0  0  0  0  0  0  0  0  0  0
   30.9838  -34.3545  -15.5961 C   0  0  0  0  0  0  0  0  0  0  0  0
   30.9601  -32.9800  -15.5936 C   0  0  0  0  0  0  0  0  0  0  0  0
   29.7999  -32.2965  -15.2552 C   0  0  0  0  0  0  0  0  0  0  0  0
   25.1215  -31.7723  -15.1995 C   0  0  0  0  0  0  0  0  0  0  0  0
   24.9181  -30.6428  -14.6866 O   0  0  0  0  0  0  0  0  0  0  0  0
   24.0449  -32.6804  -15.2568 N   0  0  0  0  0  0  0  0  0  0  0  0
   22.7002  -32.3996  -14.7545 C   0  0  1  0  0  0  0  0  0  0  0  0
   21.6677  -32.6874  -15.7836 C   0  0  0  0  0  0  0  0  0  0  0  0
   20.3213  -32.1847  -15.3524 C   0  0  0  0  0  0  0  0  0  0  0  0
   19.2234  -32.5399  -16.3146 C   0  0  0  0  0  0  0  0  0  0  0  0
   17.9189  -31.9375  -15.8740 C   0  0  0  0  0  0  0  0  0  0  0  0
   16.8778  -32.3787  -16.8022 N   0  0  0  0  0  0  0  0  0  0  0  0
   22.4575  -33.0874  -13.4828 C   0  0  0  0  0  0  0  0  0  0  0  0
   21.4396  -32.6965  -12.7993 O   0  0  0  0  0  0  0  0  0  0  0  0
   23.1733  -34.1016  -12.9190 O   0  0  0  0  0  0  0  0  0  0  0  0
  2  1  1  6
  3  2  1  0
  4  3  1  0
  5  4  2  0
  6  2  1  0
  6  7  2  0
  8  4  1  0
  9  6  1  0
 10  9  1  0
 11 12  1  0
 10 11  1  1
 12 13  2  0
 12 17  1  0
 13 14  1  0
 14 15  2  0
 16 15  1  0
 17 16  2  0
 18 19  2  0
 18 10  1  0
 20 18  1  0
 21 20  1  0
 21 22  1  6
 23 22  1  0
 24 23  1  0
 25 24  1  0
 25 26  1  0
 27 21  1  0
 28 27  2  0
 29 27  1  0
M  END
$$$$
