DFK.pdb
     RDKit          3D

 29 29  0  0  1  0  0  0  0  0999 V2000
   28.2703  -22.0344  -13.6167 N   0  0  0  0  0  0  0  0  0  0  0  0
   28.1693  -20.6820  -12.9678 C   0  0  1  0  0  0  0  0  0  0  0  0
   27.0921  -20.0091  -13.7586 C   0  0  0  0  0  0  0  0  0  0  0  0
   27.4060  -19.5465  -15.0940 C   0  0  0  0  0  0  0  0  0  0  0  0
   28.2282  -18.7027  -15.4708 O   0  0  0  0  0  0  0  0  0  0  0  0
   27.7993  -20.9951  -11.5670 C   0  0  0  0  0  0  0  0  0  0  0  0
   27.0144  -21.9769  -11.3221 O   0  0  0  0  0  0  0  0  0  0  0  0
   26.6486  -20.1604  -16.1342 O   0  0  0  0  0  0  0  0  0  0  0  0
   28.2983  -20.2337  -10.4947 N   0  0  0  0  0  0  0  0  0  0  0  0
   27.9261  -20.5063   -9.1155 C   0  0  1  0  0  0  0  0  0  0  0  0
   28.8791  -19.8588   -8.1491 C   0  0  0  0  0  0  0  0  0  0  0  0
   28.4285  -19.9389   -6.7547 C   0  0  0  0  0  0  0  0  0  0  0  0
   28.5089  -21.1092   -6.0386 C   0  0  0  0  0  0  0  0  0  0  0  0
   28.0777  -21.1794   -4.7084 C   0  0  0  0  0  0  0  0  0  0  0  0
   27.5616  -20.0529   -4.1019 C   0  0  0  0  0  0  0  0  0  0  0  0
   27.4792  -18.8800   -4.8142 C   0  0  0  0  0  0  0  0  0  0  0  0
   27.9106  -18.8253   -6.1328 C   0  0  0  0  0  0  0  0  0  0  0  0
   26.5430  -20.0329   -8.8488 C   0  0  0  0  0  0  0  0  0  0  0  0
   26.2724  -18.8242   -9.0629 O   0  0  0  0  0  0  0  0  0  0  0  0
   25.5157  -20.8695   -8.3674 N   0  0  0  0  0  0  0  0  0  0  0  0
   24.0936  -20.5284   -8.3920 C   0  0  1  0  0  0  0  0  0  0  0  0
   23.4911  -20.8181   -9.7190 C   0  0  0  0  0  0  0  0  0  0  0  0
   22.0374  -20.4472   -9.7442 C   0  0  0  0  0  0  0  0  0  0  0  0
   21.3511  -20.8381  -11.0224 C   0  0  0  0  0  0  0  0  0  0  0  0
   19.9410  -20.3187  -11.0455 C   0  0  0  0  0  0  0  0  0  0  0  0
   19.3083  -20.7759  -12.2827 N   0  0  0  0  0  0  0  0  0  0  0  0
   23.3791  -21.1638   -7.2808 C   0  0  0  0  0  0  0  0  0  0  0  0
   22.1202  -20.9148   -7.1852 O   0  0  0  0  0  0  0  0  0  0  0  0
   23.8745  -21.9972   -6.3221 O   0  0  0  0  0  0  0  0  0  0  0  0
  2  1  1  6
  3  2  1  0
  4  3  1  0
  5  4  2  0
  6  2  1  0
  6  7  2  0
  8  4  1  0
  9  6  1  0
 10  9  1  0
 11 12  1  0
 10 11  1  1
 12 13  2  0
 12 17  1  0
 13 14  1  0
 14 15  2  0
 16 15  1  0
 17 16  2  0
 18 19  2  0
 18 10  1  0
 20 18  1  0
 21 20  1  0
 21 22  1  6
 23 22  1  0
 24 23  1  0
 25 24  1  0
 25 26  1  0
 27 21  1  0
 28 27  2  0
 29 27  1  0
M  END
$$$$
