DFK.pdb
     RDKit          3D

 29 29  0  0  1  0  0  0  0  0999 V2000
   28.3083  -21.8000  -14.7071 N   0  0  0  0  0  0  0  0  0  0  0  0
   27.4685  -20.5679  -14.5146 C   0  0  1  0  0  0  0  0  0  0  0  0
   26.9886  -20.2681  -15.8996 C   0  0  0  0  0  0  0  0  0  0  0  0
   27.8501  -19.5022  -16.7754 C   0  0  0  0  0  0  0  0  0  0  0  0
   28.3324  -18.3727  -16.6281 O   0  0  0  0  0  0  0  0  0  0  0  0
   26.4081  -21.0124  -13.5791 C   0  0  0  0  0  0  0  0  0  0  0  0
   25.9192  -22.1911  -13.6878 O   0  0  0  0  0  0  0  0  0  0  0  0
   28.1945  -20.1531  -17.9962 O   0  0  0  0  0  0  0  0  0  0  0  0
   25.9274  -20.1626  -12.5667 N   0  0  0  0  0  0  0  0  0  0  0  0
   24.9264  -20.5968  -11.6052 C   0  0  1  0  0  0  0  0  0  0  0  0
   24.9765  -19.7738  -10.3475 C   0  0  0  0  0  0  0  0  0  0  0  0
   26.1067  -20.1196   -9.4775 C   0  0  0  0  0  0  0  0  0  0  0  0
   26.6508  -21.3817   -9.4720 C   0  0  0  0  0  0  0  0  0  0  0  0
   27.7292  -21.7054   -8.6400 C   0  0  0  0  0  0  0  0  0  0  0  0
   28.2583  -20.7404   -7.8081 C   0  0  0  0  0  0  0  0  0  0  0  0
   27.7174  -19.4766   -7.8101 C   0  0  0  0  0  0  0  0  0  0  0  0
   26.6479  -19.1699   -8.6406 C   0  0  0  0  0  0  0  0  0  0  0  0
   23.5675  -20.5192  -12.2012 C   0  0  0  0  0  0  0  0  0  0  0  0
   23.2058  -19.4367  -12.7281 O   0  0  0  0  0  0  0  0  0  0  0  0
   22.6599  -21.5978  -12.2072 N   0  0  0  0  0  0  0  0  0  0  0  0
   21.2927  -21.5236  -12.7217 C   0  0  1  0  0  0  0  0  0  0  0  0
   20.6169  -22.8451  -12.6531 C   0  0  0  0  0  0  0  0  0  0  0  0
   19.2406  -22.7789  -13.2470 C   0  0  0  0  0  0  0  0  0  0  0  0
   18.5512  -24.1132  -13.2882 C   0  0  0  0  0  0  0  0  0  0  0  0
   17.2213  -24.0001  -13.9792 C   0  0  0  0  0  0  0  0  0  0  0  0
   16.5744  -25.3115  -13.9377 N   0  0  0  0  0  0  0  0  0  0  0  0
   20.5384  -20.4528  -12.0633 C   0  0  0  0  0  0  0  0  0  0  0  0
   19.8357  -19.6888  -12.8239 O   0  0  0  0  0  0  0  0  0  0  0  0
   20.4777  -20.1539  -10.7344 O   0  0  0  0  0  0  0  0  0  0  0  0
  2  1  1  6
  3  2  1  0
  4  3  1  0
  5  4  2  0
  6  2  1  0
  6  7  2  0
  8  4  1  0
  9  6  1  0
 10  9  1  0
 11 12  1  0
 10 11  1  1
 12 13  2  0
 12 17  1  0
 13 14  1  0
 14 15  2  0
 16 15  1  0
 17 16  2  0
 18 19  2  0
 18 10  1  0
 20 18  1  0
 21 20  1  0
 21 22  1  1
 23 22  1  0
 24 23  1  0
 25 24  1  0
 25 26  1  0
 27 21  1  0
 28 27  2  0
 29 27  1  0
M  END
$$$$
