DFK.pdb
     RDKit          3D

 29 29  0  0  1  0  0  0  0  0999 V2000
   27.3934  -19.9272  -13.8294 N   0  0  0  0  0  0  0  0  0  0  0  0
   26.7023  -21.2593  -13.7393 C   0  0  1  0  0  0  0  0  0  0  0  0
   27.7129  -22.2019  -14.3126 C   0  0  0  0  0  0  0  0  0  0  0  0
   28.0514  -22.0782  -15.7147 C   0  0  0  0  0  0  0  0  0  0  0  0
   28.7934  -22.7741  -16.4183 O   0  0  0  0  0  0  0  0  0  0  0  0
   26.4590  -21.4274  -12.2868 C   0  0  0  0  0  0  0  0  0  0  0  0
   26.0874  -22.5659  -11.8332 O   0  0  0  0  0  0  0  0  0  0  0  0
   27.4321  -20.9835  -16.3862 O   0  0  0  0  0  0  0  0  0  0  0  0
   26.6324  -20.3571  -11.3909 N   0  0  0  0  0  0  0  0  0  0  0  0
   26.3389  -20.4828   -9.9721 C   0  0  1  0  0  0  0  0  0  0  0  0
   26.9959  -19.3904   -9.1743 C   0  0  0  0  0  0  0  0  0  0  0  0
   27.0387  -19.6742   -7.7351 C   0  0  0  0  0  0  0  0  0  0  0  0
   26.1329  -19.1171   -6.8645 C   0  0  0  0  0  0  0  0  0  0  0  0
   26.1786  -19.3919   -5.4925 C   0  0  0  0  0  0  0  0  0  0  0  0
   27.1511  -20.2386   -5.0018 C   0  0  0  0  0  0  0  0  0  0  0  0
   28.0593  -20.7983   -5.8688 C   0  0  0  0  0  0  0  0  0  0  0  0
   28.0019  -20.5166   -7.2272 C   0  0  0  0  0  0  0  0  0  0  0  0
   24.8710  -20.4577   -9.7425 C   0  0  0  0  0  0  0  0  0  0  0  0
   24.1551  -19.7770  -10.5199 O   0  0  0  0  0  0  0  0  0  0  0  0
   24.2370  -21.1585   -8.6966 N   0  0  0  0  0  0  0  0  0  0  0  0
   22.7914  -21.3555   -8.5920 C   0  0  1  0  0  0  0  0  0  0  0  0
   22.4490  -22.2559   -7.4608 C   0  0  0  0  0  0  0  0  0  0  0  0
   20.9873  -22.5951   -7.4643 C   0  0  0  0  0  0  0  0  0  0  0  0
   20.6085  -23.5828   -6.3974 C   0  0  0  0  0  0  0  0  0  0  0  0
   19.1486  -23.9275   -6.4904 C   0  0  0  0  0  0  0  0  0  0  0  0
   18.8458  -24.9084   -5.4483 N   0  0  0  0  0  0  0  0  0  0  0  0
   22.0859  -20.0714   -8.5438 C   0  0  0  0  0  0  0  0  0  0  0  0
   22.7348  -19.0733   -8.0551 O   0  0  0  0  0  0  0  0  0  0  0  0
   20.8175  -19.7866   -8.9548 O   0  0  0  0  0  0  0  0  0  0  0  0
  2  1  1  1
  3  2  1  0
  4  3  1  0
  5  4  2  0
  6  2  1  0
  6  7  2  0
  8  4  1  0
  9  6  1  0
 10  9  1  0
 11 12  1  0
 10 11  1  1
 12 13  2  0
 12 17  1  0
 13 14  1  0
 14 15  2  0
 16 15  1  0
 17 16  2  0
 18 19  2  0
 18 10  1  0
 20 18  1  0
 21 20  1  0
 21 22  1  1
 23 22  1  0
 24 23  1  0
 25 24  1  0
 25 26  1  0
 27 21  1  0
 28 27  2  0
 29 27  1  0
M  END
$$$$
