DFK.pdb
     RDKit          3D

 29 29  0  0  1  0  0  0  0  0999 V2000
   24.6919  -12.0506  -19.9044 N   0  0  0  0  0  0  0  0  0  0  0  0
   24.4468  -10.6018  -20.2222 C   0  0  1  0  0  0  0  0  0  0  0  0
   23.4687  -10.6662  -21.3526 C   0  0  0  0  0  0  0  0  0  0  0  0
   23.9455  -11.0925  -22.6514 C   0  0  0  0  0  0  0  0  0  0  0  0
   25.0512  -10.9361  -23.1834 O   0  0  0  0  0  0  0  0  0  0  0  0
   23.8924  -10.0577  -18.9598 C   0  0  0  0  0  0  0  0  0  0  0  0
   23.2499  -10.8287  -18.1644 O   0  0  0  0  0  0  0  0  0  0  0  0
   22.9906  -11.8022  -23.4368 O   0  0  0  0  0  0  0  0  0  0  0  0
   24.0616   -8.7048  -18.6138 N   0  0  0  0  0  0  0  0  0  0  0  0
   23.6145   -8.1732  -17.3361 C   0  0  1  0  0  0  0  0  0  0  0  0
   24.7679   -7.6613  -16.5181 C   0  0  0  0  0  0  0  0  0  0  0  0
   25.6474   -8.7302  -16.0304 C   0  0  0  0  0  0  0  0  0  0  0  0
   26.8715   -8.9737  -16.6060 C   0  0  0  0  0  0  0  0  0  0  0  0
   27.7063   -9.9946  -16.1360 C   0  0  0  0  0  0  0  0  0  0  0  0
   27.2947  -10.7733  -15.0742 C   0  0  0  0  0  0  0  0  0  0  0  0
   26.0711  -10.5335  -14.4952 C   0  0  0  0  0  0  0  0  0  0  0  0
   25.2536   -9.5174  -14.9719 C   0  0  0  0  0  0  0  0  0  0  0  0
   22.6260   -7.0837  -17.5455 C   0  0  0  0  0  0  0  0  0  0  0  0
   22.9701   -6.0864  -18.2291 O   0  0  0  0  0  0  0  0  0  0  0  0
   21.3194   -7.1092  -17.0171 N   0  0  0  0  0  0  0  0  0  0  0  0
   20.2757   -6.1396  -17.3487 C   0  0  1  0  0  0  0  0  0  0  0  0
   18.9567   -6.8024  -17.5192 C   0  0  0  0  0  0  0  0  0  0  0  0
   17.8902   -5.8027  -17.8576 C   0  0  0  0  0  0  0  0  0  0  0  0
   16.5535   -6.4342  -18.1257 C   0  0  0  0  0  0  0  0  0  0  0  0
   15.5427   -5.3901  -18.5085 C   0  0  0  0  0  0  0  0  0  0  0  0
   15.2542   -4.5808  -17.3245 N   0  0  0  0  0  0  0  0  0  0  0  0
   20.2499   -5.0398  -16.3798 C   0  0  0  0  0  0  0  0  0  0  0  0
   20.4000   -5.3566  -15.1416 O   0  0  0  0  0  0  0  0  0  0  0  0
   20.0884   -3.7068  -16.6166 O   0  0  0  0  0  0  0  0  0  0  0  0
  2  1  1  1
  3  2  1  0
  4  3  1  0
  5  4  2  0
  6  2  1  0
  6  7  2  0
  8  4  1  0
  9  6  1  0
 10  9  1  0
 11 12  1  0
 10 11  1  6
 12 13  2  0
 12 17  1  0
 13 14  1  0
 14 15  2  0
 16 15  1  0
 17 16  2  0
 18 19  2  0
 18 10  1  0
 20 18  1  0
 21 20  1  0
 21 22  1  1
 23 22  1  0
 24 23  1  0
 25 24  1  0
 25 26  1  0
 27 21  1  0
 28 27  2  0
 29 27  1  0
M  END
$$$$
