DFK.pdb
     RDKit          3D

 29 29  0  0  1  0  0  0  0  0999 V2000
   28.3442  -20.6028  -17.2256 N   0  0  0  0  0  0  0  0  0  0  0  0
   27.5775  -21.8887  -17.3624 C   0  0  1  0  0  0  0  0  0  0  0  0
   28.6357  -22.8714  -17.7534 C   0  0  0  0  0  0  0  0  0  0  0  0
   29.3561  -22.6510  -18.9897 C   0  0  0  0  0  0  0  0  0  0  0  0
   28.9651  -22.1823  -20.0655 O   0  0  0  0  0  0  0  0  0  0  0  0
   27.0107  -22.1013  -16.0093 C   0  0  0  0  0  0  0  0  0  0  0  0
   26.6989  -23.2842  -15.6306 O   0  0  0  0  0  0  0  0  0  0  0  0
   30.7289  -23.0347  -18.9597 O   0  0  0  0  0  0  0  0  0  0  0  0
   26.8104  -21.0248  -15.1265 N   0  0  0  0  0  0  0  0  0  0  0  0
   26.0907  -21.1788  -13.8722 C   0  0  1  0  0  0  0  0  0  0  0  0
   26.5306  -20.1616  -12.8557 C   0  0  0  0  0  0  0  0  0  0  0  0
   25.8306  -20.2898  -11.5723 C   0  0  0  0  0  0  0  0  0  0  0  0
   26.3450  -21.0429  -10.5441 C   0  0  0  0  0  0  0  0  0  0  0  0
   25.6727  -21.1611   -9.3217 C   0  0  0  0  0  0  0  0  0  0  0  0
   24.4698  -20.5098   -9.1429 C   0  0  0  0  0  0  0  0  0  0  0  0
   23.9513  -19.7554  -10.1684 C   0  0  0  0  0  0  0  0  0  0  0  0
   24.6291  -19.6472  -11.3754 C   0  0  0  0  0  0  0  0  0  0  0  0
   24.6265  -21.0619  -14.0971 C   0  0  0  0  0  0  0  0  0  0  0  0
   24.2067  -20.1376  -14.8385 O   0  0  0  0  0  0  0  0  0  0  0  0
   23.6808  -21.9348  -13.5220 N   0  0  0  0  0  0  0  0  0  0  0  0
   22.2397  -21.8651  -13.7621 C   0  0  1  0  0  0  0  0  0  0  0  0
   21.6880  -23.1949  -14.1298 C   0  0  0  0  0  0  0  0  0  0  0  0
   20.2444  -23.0897  -14.5251 C   0  0  0  0  0  0  0  0  0  0  0  0
   19.6304  -24.4158  -14.8742 C   0  0  0  0  0  0  0  0  0  0  0  0
   18.2453  -24.2281  -15.4264 C   0  0  0  0  0  0  0  0  0  0  0  0
   17.7148  -25.5445  -15.7806 N   0  0  0  0  0  0  0  0  0  0  0  0
   21.5455  -21.2431  -12.6307 C   0  0  0  0  0  0  0  0  0  0  0  0
   21.8601  -21.6655  -11.4565 O   0  0  0  0  0  0  0  0  0  0  0  0
   20.5995  -20.2615  -12.6540 O   0  0  0  0  0  0  0  0  0  0  0  0
  2  1  1  1
  3  2  1  0
  4  3  1  0
  5  4  2  0
  6  2  1  0
  6  7  2  0
  8  4  1  0
  9  6  1  0
 10  9  1  0
 11 12  1  0
 10 11  1  1
 12 13  2  0
 12 17  1  0
 13 14  1  0
 14 15  2  0
 16 15  1  0
 17 16  2  0
 18 19  2  0
 18 10  1  0
 20 18  1  0
 21 20  1  0
 21 22  1  1
 23 22  1  0
 24 23  1  0
 25 24  1  0
 25 26  1  0
 27 21  1  0
 28 27  2  0
 29 27  1  0
M  END
$$$$
