DFK.pdb
     RDKit          3D

 29 29  0  0  1  0  0  0  0  0999 V2000
   29.0325  -20.8088  -14.7313 N   0  0  0  0  0  0  0  0  0  0  0  0
   27.9521  -19.8265  -14.3738 C   0  0  1  0  0  0  0  0  0  0  0  0
   27.4655  -19.3607  -15.7098 C   0  0  0  0  0  0  0  0  0  0  0  0
   28.3221  -18.4920  -16.4892 C   0  0  0  0  0  0  0  0  0  0  0  0
   28.9239  -18.7096  -17.5477 O   0  0  0  0  0  0  0  0  0  0  0  0
   26.9760  -20.6440  -13.6148 C   0  0  0  0  0  0  0  0  0  0  0  0
   26.6761  -21.8190  -14.0265 O   0  0  0  0  0  0  0  0  0  0  0  0
   28.4974  -17.1835  -15.9510 O   0  0  0  0  0  0  0  0  0  0  0  0
   26.3715  -20.1543  -12.4430 N   0  0  0  0  0  0  0  0  0  0  0  0
   25.3867  -20.9263  -11.7018 C   0  0  1  0  0  0  0  0  0  0  0  0
   25.3075  -20.4855  -10.2663 C   0  0  0  0  0  0  0  0  0  0  0  0
   26.5534  -20.7120   -9.5246 C   0  0  0  0  0  0  0  0  0  0  0  0
   27.4260  -21.7152   -9.8726 C   0  0  0  0  0  0  0  0  0  0  0  0
   28.6133  -21.9260   -9.1613 C   0  0  0  0  0  0  0  0  0  0  0  0
   28.9161  -21.1121   -8.0894 C   0  0  0  0  0  0  0  0  0  0  0  0
   28.0464  -20.1073   -7.7375 C   0  0  0  0  0  0  0  0  0  0  0  0
   26.8724  -19.9099   -8.4520 C   0  0  0  0  0  0  0  0  0  0  0  0
   24.0491  -20.8065  -12.3376 C   0  0  0  0  0  0  0  0  0  0  0  0
   23.6690  -19.6720  -12.7231 O   0  0  0  0  0  0  0  0  0  0  0  0
   23.1814  -21.9003  -12.5319 N   0  0  0  0  0  0  0  0  0  0  0  0
   21.8832  -21.8158  -13.2005 C   0  0  1  0  0  0  0  0  0  0  0  0
   21.3884  -23.1610  -13.5923 C   0  0  0  0  0  0  0  0  0  0  0  0
   20.1247  -23.0585  -14.3949 C   0  0  0  0  0  0  0  0  0  0  0  0
   19.6397  -24.3864  -14.9034 C   0  0  0  0  0  0  0  0  0  0  0  0
   18.3640  -24.2211  -15.6805 C   0  0  0  0  0  0  0  0  0  0  0  0
   17.9510  -25.5391  -16.1624 N   0  0  0  0  0  0  0  0  0  0  0  0
   20.9222  -21.0580  -12.3935 C   0  0  0  0  0  0  0  0  0  0  0  0
   21.0376  -21.1545  -11.1154 O   0  0  0  0  0  0  0  0  0  0  0  0
   19.9095  -20.2509  -12.8198 O   0  0  0  0  0  0  0  0  0  0  0  0
  2  1  1  6
  3  2  1  0
  4  3  1  0
  5  4  2  0
  6  2  1  0
  6  7  2  0
  8  4  1  0
  9  6  1  0
 10  9  1  0
 11 12  1  0
 10 11  1  1
 12 13  2  0
 12 17  1  0
 13 14  1  0
 14 15  2  0
 16 15  1  0
 17 16  2  0
 18 19  2  0
 18 10  1  0
 20 18  1  0
 21 20  1  0
 21 22  1  1
 23 22  1  0
 24 23  1  0
 25 24  1  0
 25 26  1  0
 27 21  1  0
 28 27  2  0
 29 27  1  0
M  END
$$$$
