GWM.pdb
     RDKit          3D

 27 28  0  0  1  0  0  0  0  0999 V2000
   27.9794  -24.2327  -16.2360 N   0  0  0  0  0  0  0  0  0  0  0  0
   27.5900  -22.8776  -16.0008 C   0  0  0  0  0  0  0  0  0  0  0  0
   26.6502  -22.7382  -14.8588 C   0  0  0  0  0  0  0  0  0  0  0  0
   25.9620  -23.7408  -14.4925 O   0  0  0  0  0  0  0  0  0  0  0  0
   26.4760  -21.5326  -14.1446 N   0  0  0  0  0  0  0  0  0  0  0  0
   25.5068  -21.3623  -13.0972 C   0  0  1  0  0  0  0  0  0  0  0  0
   25.8689  -20.2543  -12.1444 C   0  0  0  0  0  0  0  0  0  0  0  0
   27.0374  -20.5678  -11.3126 C   0  0  0  0  0  0  0  0  0  0  0  0
   28.2626  -20.9563  -11.7985 C   0  0  0  0  0  0  0  0  0  0  0  0
   29.0823  -21.1558  -10.7678 N   0  0  0  0  0  0  0  0  0  0  0  0
   28.4317  -20.9094   -9.6090 C   0  0  0  0  0  0  0  0  0  0  0  0
   28.7915  -20.9585   -8.2761 C   0  0  0  0  0  0  0  0  0  0  0  0
   27.8866  -20.6442   -7.2837 C   0  0  0  0  0  0  0  0  0  0  0  0
   26.6003  -20.2745   -7.6306 C   0  0  0  0  0  0  0  0  0  0  0  0
   26.2029  -20.2133   -8.9467 C   0  0  0  0  0  0  0  0  0  0  0  0
   27.1310  -20.5347   -9.9421 C   0  0  0  0  0  0  0  0  0  0  0  0
   24.1455  -21.1108  -13.6099 C   0  0  0  0  0  0  0  0  0  0  0  0
   23.9382  -20.1780  -14.4141 O   0  0  0  0  0  0  0  0  0  0  0  0
   19.5306  -24.9340  -11.5921 C   0  0  0  0  0  0  0  0  0  0  0  0
   18.6892  -24.4286  -13.0937 S   0  0  0  0  0  0  0  0  0  0  0  0
   19.4974  -22.9630  -13.8481 C   0  0  0  0  0  0  0  0  0  0  0  0
   20.8707  -22.8898  -13.2773 C   0  0  0  0  0  0  0  0  0  0  0  0
   21.7044  -21.7383  -13.7351 C   0  0  2  0  0  0  0  0  0  0  0  0
   23.0614  -21.9194  -13.1994 N   0  0  0  0  0  0  0  0  0  0  0  0
   21.1881  -20.4837  -13.1103 C   0  0  0  0  0  0  0  0  0  0  0  0
   20.5989  -19.5893  -13.7795 O   0  0  0  0  0  0  0  0  0  0  0  0
   21.3210  -20.2151  -11.7510 O   0  0  0  0  0  0  0  0  0  0  0  0
  2  3  1  0
  2  1  1  0
  3  4  2  0
  5  6  1  0
  5  3  1  0
  6  7  1  1
  8  7  1  0
  8 16  1  0
  9  8  2  0
 10  9  1  0
 10 11  1  0
 11 12  1  0
 11 16  2  0
 12 13  2  0
 13 14  1  0
 15 14  2  0
 16 15  1  0
 17  6  1  0
 17 18  2  0
 19 20  1  0
 21 20  1  0
 22 21  1  0
 23 24  1  0
 23 22  1  1
 24 17  1  0
 25 23  1  0
 26 25  2  0
 27 25  1  0
M  END
$$$$
