GWM.pdb
     RDKit          3D

 27 28  0  0  1  0  0  0  0  0999 V2000
   27.7583  -18.1801  -15.5779 N   0  0  0  0  0  0  0  0  0  0  0  0
   27.9669  -19.3295  -14.7541 C   0  0  0  0  0  0  0  0  0  0  0  0
   27.1199  -19.3249  -13.5337 C   0  0  0  0  0  0  0  0  0  0  0  0
   27.0428  -18.2684  -12.8331 O   0  0  0  0  0  0  0  0  0  0  0  0
   26.3825  -20.4487  -13.1011 N   0  0  0  0  0  0  0  0  0  0  0  0
   25.5107  -20.4354  -11.9586 C   0  0  1  0  0  0  0  0  0  0  0  0
   24.2161  -21.1627  -12.2066 C   0  0  0  0  0  0  0  0  0  0  0  0
   23.2014  -20.3272  -12.8607 C   0  0  0  0  0  0  0  0  0  0  0  0
   23.2058  -19.9890  -14.1926 C   0  0  0  0  0  0  0  0  0  0  0  0
   22.1418  -19.2264  -14.4388 N   0  0  0  0  0  0  0  0  0  0  0  0
   21.4307  -19.0495  -13.3031 C   0  0  0  0  0  0  0  0  0  0  0  0
   20.2713  -18.3657  -12.9923 C   0  0  0  0  0  0  0  0  0  0  0  0
   19.7699  -18.3640  -11.7074 C   0  0  0  0  0  0  0  0  0  0  0  0
   20.4397  -19.0581  -10.7168 C   0  0  0  0  0  0  0  0  0  0  0  0
   21.5975  -19.7515  -10.9857 C   0  0  0  0  0  0  0  0  0  0  0  0
   22.0941  -19.7444  -12.2929 C   0  0  0  0  0  0  0  0  0  0  0  0
   26.1402  -21.0019  -10.7494 C   0  0  0  0  0  0  0  0  0  0  0  0
   26.7139  -22.1102  -10.7990 O   0  0  0  0  0  0  0  0  0  0  0  0
   29.3453  -19.1873   -3.8274 C   0  0  0  0  0  0  0  0  0  0  0  0
   28.6650  -18.8080   -5.4435 S   0  0  0  0  0  0  0  0  0  0  0  0
   27.6924  -20.2183   -6.1036 C   0  0  0  0  0  0  0  0  0  0  0  0
   27.2353  -19.8236   -7.4646 C   0  0  0  0  0  0  0  0  0  0  0  0
   26.5764  -20.8980   -8.2661 C   0  0  2  0  0  0  0  0  0  0  0  0
   26.1027  -20.3006   -9.5230 N   0  0  0  0  0  0  0  0  0  0  0  0
   25.3487  -21.3572   -7.5498 C   0  0  0  0  0  0  0  0  0  0  0  0
   25.3969  -21.9179   -6.4193 O   0  0  0  0  0  0  0  0  0  0  0  0
   24.0707  -21.1990   -8.0783 O   0  0  0  0  0  0  0  0  0  0  0  0
  2  3  1  0
  2  1  1  0
  3  4  2  0
  5  6  1  0
  5  3  1  0
  6  7  1  6
  8  7  1  0
  8 16  1  0
  9  8  2  0
 10  9  1  0
 10 11  1  0
 11 12  1  0
 11 16  2  0
 12 13  2  0
 13 14  1  0
 15 14  2  0
 16 15  1  0
 17  6  1  0
 17 18  2  0
 19 20  1  0
 21 20  1  0
 22 21  1  0
 23 24  1  0
 23 22  1  1
 24 17  1  0
 25 23  1  0
 26 25  2  0
 27 25  1  0
M  END
$$$$
