GWM.pdb
     RDKit          3D

 27 28  0  0  1  0  0  0  0  0999 V2000
   28.3705  -22.2910  -15.8883 N   0  0  0  0  0  0  0  0  0  0  0  0
   27.8813  -21.1986  -15.1069 C   0  0  0  0  0  0  0  0  0  0  0  0
   26.9274  -21.6269  -14.0517 C   0  0  0  0  0  0  0  0  0  0  0  0
   26.4111  -22.7856  -14.1119 O   0  0  0  0  0  0  0  0  0  0  0  0
   26.5560  -20.8039  -12.9660 N   0  0  0  0  0  0  0  0  0  0  0  0
   25.5052  -21.1329  -12.0424 C   0  0  1  0  0  0  0  0  0  0  0  0
   25.6966  -20.4945  -10.6925 C   0  0  0  0  0  0  0  0  0  0  0  0
   26.9147  -20.9460  -10.0086 C   0  0  0  0  0  0  0  0  0  0  0  0
   27.8554  -21.7842  -10.5569 C   0  0  0  0  0  0  0  0  0  0  0  0
   28.8210  -21.9801   -9.6605 N   0  0  0  0  0  0  0  0  0  0  0  0
   28.5448  -21.2928   -8.5301 C   0  0  0  0  0  0  0  0  0  0  0  0
   29.1867  -21.1426   -7.3160 C   0  0  0  0  0  0  0  0  0  0  0  0
   28.6488  -20.3539   -6.3205 C   0  0  0  0  0  0  0  0  0  0  0  0
   27.4487  -19.7045   -6.5433 C   0  0  0  0  0  0  0  0  0  0  0  0
   26.7783  -19.8284   -7.7387 C   0  0  0  0  0  0  0  0  0  0  0  0
   27.3356  -20.6313   -8.7389 C   0  0  0  0  0  0  0  0  0  0  0  0
   24.1651  -20.7702  -12.5446 C   0  0  0  0  0  0  0  0  0  0  0  0
   23.9307  -19.6048  -12.9276 O   0  0  0  0  0  0  0  0  0  0  0  0
   19.9360  -25.5400  -13.4864 C   0  0  0  0  0  0  0  0  0  0  0  0
   19.3815  -24.3564  -14.7152 S   0  0  0  0  0  0  0  0  0  0  0  0
   19.8700  -22.6463  -14.2599 C   0  0  0  0  0  0  0  0  0  0  0  0
   21.2283  -22.7351  -13.6563 C   0  0  0  0  0  0  0  0  0  0  0  0
   21.8234  -21.4429  -13.2016 C   0  0  2  0  0  0  0  0  0  0  0  0
   23.1323  -21.7334  -12.5987 N   0  0  0  0  0  0  0  0  0  0  0  0
   20.9866  -20.8822  -12.0986 C   0  0  0  0  0  0  0  0  0  0  0  0
   21.1595  -21.2044  -10.8898 O   0  0  0  0  0  0  0  0  0  0  0  0
   19.9616  -19.9687  -12.3271 O   0  0  0  0  0  0  0  0  0  0  0  0
  2  3  1  0
  2  1  1  0
  3  4  2  0
  5  6  1  0
  5  3  1  0
  6  7  1  1
  8  7  1  0
  8 16  1  0
  9  8  2  0
 10  9  1  0
 10 11  1  0
 11 12  1  0
 11 16  2  0
 12 13  2  0
 13 14  1  0
 15 14  2  0
 16 15  1  0
 17  6  1  0
 17 18  2  0
 19 20  1  0
 21 20  1  0
 22 21  1  0
 23 24  1  0
 23 22  1  1
 24 17  1  0
 25 23  1  0
 26 25  2  0
 27 25  1  0
M  END
$$$$
