GWM.pdb
     RDKit          3D

 27 28  0  0  1  0  0  0  0  0999 V2000
   28.0016  -24.7242  -16.4200 N   0  0  0  0  0  0  0  0  0  0  0  0
   27.7765  -23.3134  -16.3740 C   0  0  0  0  0  0  0  0  0  0  0  0
   26.8340  -22.9153  -15.2969 C   0  0  0  0  0  0  0  0  0  0  0  0
   26.1510  -23.8079  -14.7056 O   0  0  0  0  0  0  0  0  0  0  0  0
   26.6516  -21.5767  -14.8859 N   0  0  0  0  0  0  0  0  0  0  0  0
   25.7313  -21.1800  -13.8558 C   0  0  1  0  0  0  0  0  0  0  0  0
   26.2030  -19.9744  -13.0874 C   0  0  0  0  0  0  0  0  0  0  0  0
   27.1747  -20.3039  -12.0372 C   0  0  0  0  0  0  0  0  0  0  0  0
   28.4953  -20.6106  -12.2609 C   0  0  0  0  0  0  0  0  0  0  0  0
   29.0775  -20.8537  -11.0878 N   0  0  0  0  0  0  0  0  0  0  0  0
   28.1761  -20.7161  -10.0902 C   0  0  0  0  0  0  0  0  0  0  0  0
   28.2359  -20.8482   -8.7164 C   0  0  0  0  0  0  0  0  0  0  0  0
   27.1198  -20.6401   -7.9331 C   0  0  0  0  0  0  0  0  0  0  0  0
   25.9239  -20.2941   -8.5344 C   0  0  0  0  0  0  0  0  0  0  0  0
   25.8229  -20.1526   -9.8995 C   0  0  0  0  0  0  0  0  0  0  0  0
   26.9627  -20.3666  -10.6810 C   0  0  0  0  0  0  0  0  0  0  0  0
   24.3761  -20.9036  -14.3721 C   0  0  0  0  0  0  0  0  0  0  0  0
   24.2226  -20.1979  -15.3910 O   0  0  0  0  0  0  0  0  0  0  0  0
   19.9227  -25.2512  -14.4312 C   0  0  0  0  0  0  0  0  0  0  0  0
   18.8518  -23.9170  -13.8913 S   0  0  0  0  0  0  0  0  0  0  0  0
   19.5990  -22.2784  -14.2476 C   0  0  0  0  0  0  0  0  0  0  0  0
   21.0442  -22.3827  -13.9044 C   0  0  0  0  0  0  0  0  0  0  0  0
   21.8729  -21.1777  -14.2073 C   0  0  2  0  0  0  0  0  0  0  0  0
   23.2374  -21.4319  -13.7227 N   0  0  0  0  0  0  0  0  0  0  0  0
   21.3679  -20.0241  -13.4038 C   0  0  0  0  0  0  0  0  0  0  0  0
   20.6432  -19.1190  -13.9042 O   0  0  0  0  0  0  0  0  0  0  0  0
   21.6611  -19.8683  -12.0521 O   0  0  0  0  0  0  0  0  0  0  0  0
  2  3  1  0
  2  1  1  0
  3  4  2  0
  5  6  1  0
  5  3  1  0
  6  7  1  6
  8  7  1  0
  8 16  1  0
  9  8  2  0
 10  9  1  0
 10 11  1  0
 11 12  1  0
 11 16  2  0
 12 13  2  0
 13 14  1  0
 15 14  2  0
 16 15  1  0
 17  6  1  0
 17 18  2  0
 19 20  1  0
 21 20  1  0
 22 21  1  0
 23 24  1  0
 23 22  1  1
 24 17  1  0
 25 23  1  0
 26 25  2  0
 27 25  1  0
M  END
$$$$
