GWM.pdb
     RDKit          3D

 27 28  0  0  1  0  0  0  0  0999 V2000
   28.4932  -21.7475  -14.4388 N   0  0  0  0  0  0  0  0  0  0  0  0
   28.1970  -20.7102  -13.5009 C   0  0  0  0  0  0  0  0  0  0  0  0
   27.2615  -21.1488  -12.4335 C   0  0  0  0  0  0  0  0  0  0  0  0
   26.5522  -22.1865  -12.6147 O   0  0  0  0  0  0  0  0  0  0  0  0
   27.1140  -20.4649  -11.2069 N   0  0  0  0  0  0  0  0  0  0  0  0
   26.0015  -20.6585  -10.3178 C   0  0  1  0  0  0  0  0  0  0  0  0
   26.2129  -20.0151   -8.9733 C   0  0  0  0  0  0  0  0  0  0  0  0
   27.4459  -20.4568   -8.3100 C   0  0  0  0  0  0  0  0  0  0  0  0
   28.3783  -21.2967   -8.8699 C   0  0  0  0  0  0  0  0  0  0  0  0
   29.3623  -21.4818   -7.9914 N   0  0  0  0  0  0  0  0  0  0  0  0
   29.1064  -20.7856   -6.8615 C   0  0  0  0  0  0  0  0  0  0  0  0
   29.7719  -20.6228   -5.6619 C   0  0  0  0  0  0  0  0  0  0  0  0
   29.2515  -19.8272   -4.6627 C   0  0  0  0  0  0  0  0  0  0  0  0
   28.0450  -19.1836   -4.8669 C   0  0  0  0  0  0  0  0  0  0  0  0
   27.3513  -19.3199   -6.0476 C   0  0  0  0  0  0  0  0  0  0  0  0
   27.8911  -20.1298   -7.0518 C   0  0  0  0  0  0  0  0  0  0  0  0
   24.7274  -20.1647  -10.8766 C   0  0  0  0  0  0  0  0  0  0  0  0
   24.6887  -19.0777  -11.4905 O   0  0  0  0  0  0  0  0  0  0  0  0
   23.0070  -22.8312  -15.6634 C   0  0  0  0  0  0  0  0  0  0  0  0
   21.8708  -21.4879  -15.3127 S   0  0  0  0  0  0  0  0  0  0  0  0
   21.2043  -21.6086  -13.6063 C   0  0  0  0  0  0  0  0  0  0  0  0
   22.3773  -21.6473  -12.6899 C   0  0  0  0  0  0  0  0  0  0  0  0
   22.3515  -20.6716  -11.5594 C   0  0  2  0  0  0  0  0  0  0  0  0
   23.5377  -20.9124  -10.7251 N   0  0  0  0  0  0  0  0  0  0  0  0
   21.1768  -20.9684  -10.6859 C   0  0  0  0  0  0  0  0  0  0  0  0
   21.2385  -21.7889   -9.7278 O   0  0  0  0  0  0  0  0  0  0  0  0
   19.9369  -20.3627  -10.8678 O   0  0  0  0  0  0  0  0  0  0  0  0
  2  3  1  0
  2  1  1  0
  3  4  2  0
  5  6  1  0
  5  3  1  0
  6  7  1  1
  8  7  1  0
  8 16  1  0
  9  8  2  0
 10  9  1  0
 10 11  1  0
 11 12  1  0
 11 16  2  0
 12 13  2  0
 13 14  1  0
 15 14  2  0
 16 15  1  0
 17  6  1  0
 17 18  2  0
 19 20  1  0
 21 20  1  0
 22 21  1  0
 23 24  1  0
 23 22  1  6
 24 17  1  0
 25 23  1  0
 26 25  2  0
 27 25  1  0
M  END
$$$$
