GWM.pdb
     RDKit          3D

 27 28  0  0  1  0  0  0  0  0999 V2000
   25.9118  -24.6324  -15.4764 N   0  0  0  0  0  0  0  0  0  0  0  0
   26.3405  -23.3630  -14.9782 C   0  0  0  0  0  0  0  0  0  0  0  0
   25.7484  -23.0332  -13.6563 C   0  0  0  0  0  0  0  0  0  0  0  0
   25.2400  -23.9603  -12.9528 O   0  0  0  0  0  0  0  0  0  0  0  0
   25.7185  -21.7239  -13.1283 N   0  0  0  0  0  0  0  0  0  0  0  0
   25.1586  -21.3967  -11.8458 C   0  0  1  0  0  0  0  0  0  0  0  0
   25.8572  -20.2386  -11.1846 C   0  0  0  0  0  0  0  0  0  0  0  0
   27.0656  -20.6364  -10.4517 C   0  0  0  0  0  0  0  0  0  0  0  0
   28.1392  -21.2893  -11.0078 C   0  0  0  0  0  0  0  0  0  0  0  0
   29.0507  -21.4899  -10.0575 N   0  0  0  0  0  0  0  0  0  0  0  0
   28.6090  -20.9863   -8.8836 C   0  0  0  0  0  0  0  0  0  0  0  0
   29.1345  -20.9217   -7.6076 C   0  0  0  0  0  0  0  0  0  0  0  0
   28.4318  -20.3299   -6.5788 C   0  0  0  0  0  0  0  0  0  0  0  0
   27.1826  -19.7937   -6.8308 C   0  0  0  0  0  0  0  0  0  0  0  0
   26.6244  -19.8378   -8.0878 C   0  0  0  0  0  0  0  0  0  0  0  0
   27.3483  -20.4410   -9.1212 C   0  0  0  0  0  0  0  0  0  0  0  0
   23.7146  -21.0961  -11.9095 C   0  0  0  0  0  0  0  0  0  0  0  0
   23.2278  -20.5597  -12.9269 O   0  0  0  0  0  0  0  0  0  0  0  0
   17.1327  -23.2983   -8.0371 C   0  0  0  0  0  0  0  0  0  0  0  0
   18.9096  -23.2125   -8.2686 S   0  0  0  0  0  0  0  0  0  0  0  0
   19.3401  -22.2213   -9.7528 C   0  0  0  0  0  0  0  0  0  0  0  0
   20.8261  -22.1381   -9.7962 C   0  0  0  0  0  0  0  0  0  0  0  0
   21.4010  -21.3679  -10.9394 C   0  0  2  0  0  0  0  0  0  0  0  0
   22.8659  -21.4100  -10.8239 N   0  0  0  0  0  0  0  0  0  0  0  0
   21.0262  -19.9291  -10.7955 C   0  0  0  0  0  0  0  0  0  0  0  0
   19.9067  -19.4824  -11.1724 O   0  0  0  0  0  0  0  0  0  0  0  0
   21.8832  -18.9847  -10.2377 O   0  0  0  0  0  0  0  0  0  0  0  0
  2  3  1  0
  2  1  1  0
  3  4  2  0
  5  6  1  0
  5  3  1  0
  6  7  1  6
  8  7  1  0
  8 16  1  0
  9  8  2  0
 10  9  1  0
 10 11  1  0
 11 12  1  0
 11 16  2  0
 12 13  2  0
 13 14  1  0
 15 14  2  0
 16 15  1  0
 17  6  1  0
 17 18  2  0
 19 20  1  0
 21 20  1  0
 22 21  1  0
 23 24  1  0
 23 22  1  1
 24 17  1  0
 25 23  1  0
 26 25  2  0
 27 25  1  0
M  END
$$$$
