GWM.pdb
     RDKit          3D

 27 28  0  0  1  0  0  0  0  0999 V2000
   28.9260  -23.0040  -16.8027 N   0  0  0  0  0  0  0  0  0  0  0  0
   28.1318  -21.8340  -16.5941 C   0  0  0  0  0  0  0  0  0  0  0  0
   27.3086  -21.9091  -15.3598 C   0  0  0  0  0  0  0  0  0  0  0  0
   26.7134  -22.9938  -15.0732 O   0  0  0  0  0  0  0  0  0  0  0  0
   27.1478  -20.8234  -14.4713 N   0  0  0  0  0  0  0  0  0  0  0  0
   26.3609  -20.8890  -13.2705 C   0  0  1  0  0  0  0  0  0  0  0  0
   26.8040  -19.8954  -12.2299 C   0  0  0  0  0  0  0  0  0  0  0  0
   27.6666  -20.4860  -11.1990 C   0  0  0  0  0  0  0  0  0  0  0  0
   28.8665  -21.1088  -11.4450 C   0  0  0  0  0  0  0  0  0  0  0  0
   29.3745  -21.5212  -10.2847 N   0  0  0  0  0  0  0  0  0  0  0  0
   28.5415  -21.1877   -9.2740 C   0  0  0  0  0  0  0  0  0  0  0  0
   28.5727  -21.3667   -7.9046 C   0  0  0  0  0  0  0  0  0  0  0  0
   27.5487  -20.9055   -7.1040 C   0  0  0  0  0  0  0  0  0  0  0  0
   26.4753  -20.2543   -7.6831 C   0  0  0  0  0  0  0  0  0  0  0  0
   26.4067  -20.0561   -9.0432 C   0  0  0  0  0  0  0  0  0  0  0  0
   27.4522  -20.5291   -9.8424 C   0  0  0  0  0  0  0  0  0  0  0  0
   24.9186  -20.6940  -13.5179 C   0  0  0  0  0  0  0  0  0  0  0  0
   24.5242  -19.7422  -14.2240 O   0  0  0  0  0  0  0  0  0  0  0  0
   18.4100  -25.0234  -14.1494 C   0  0  0  0  0  0  0  0  0  0  0  0
   20.1295  -24.7539  -13.7147 S   0  0  0  0  0  0  0  0  0  0  0  0
   20.5289  -22.9628  -13.6590 C   0  0  0  0  0  0  0  0  0  0  0  0
   21.9989  -22.8581  -13.4462 C   0  0  0  0  0  0  0  0  0  0  0  0
   22.5324  -21.4750  -13.2644 C   0  0  2  0  0  0  0  0  0  0  0  0
   23.9672  -21.5784  -12.9612 N   0  0  0  0  0  0  0  0  0  0  0  0
   21.9068  -20.8664  -12.0523 C   0  0  0  0  0  0  0  0  0  0  0  0
   22.4940  -20.8319  -10.9348 O   0  0  0  0  0  0  0  0  0  0  0  0
   20.6366  -20.2972  -12.0715 O   0  0  0  0  0  0  0  0  0  0  0  0
  2  3  1  0
  2  1  1  0
  3  4  2  0
  5  6  1  0
  5  3  1  0
  6  7  1  1
  8  7  1  0
  8 16  1  0
  9  8  2  0
 10  9  1  0
 10 11  1  0
 11 12  1  0
 11 16  2  0
 12 13  2  0
 13 14  1  0
 15 14  2  0
 16 15  1  0
 17  6  1  0
 17 18  2  0
 19 20  1  0
 21 20  1  0
 22 21  1  0
 23 24  1  0
 23 22  1  1
 24 17  1  0
 25 23  1  0
 26 25  2  0
 27 25  1  0
M  END
$$$$
