GWM.pdb
     RDKit          3D

 27 28  0  0  1  0  0  0  0  0999 V2000
   28.4785  -21.4203  -15.3239 N   0  0  0  0  0  0  0  0  0  0  0  0
   27.9087  -20.4377  -14.4561 C   0  0  0  0  0  0  0  0  0  0  0  0
   26.9450  -21.0165  -13.4848 C   0  0  0  0  0  0  0  0  0  0  0  0
   26.4334  -22.1551  -13.7183 O   0  0  0  0  0  0  0  0  0  0  0  0
   26.5592  -20.3604  -12.2954 N   0  0  0  0  0  0  0  0  0  0  0  0
   25.5792  -20.8816  -11.3824 C   0  0  1  0  0  0  0  0  0  0  0  0
   25.7644  -20.3724   -9.9778 C   0  0  0  0  0  0  0  0  0  0  0  0
   27.0849  -20.6883   -9.4192 C   0  0  0  0  0  0  0  0  0  0  0  0
   28.0141  -21.5035  -10.0193 C   0  0  0  0  0  0  0  0  0  0  0  0
   29.0906  -21.5650   -9.2372 N   0  0  0  0  0  0  0  0  0  0  0  0
   28.8992  -20.8107   -8.1321 C   0  0  0  0  0  0  0  0  0  0  0  0
   29.6668  -20.5242   -7.0198 C   0  0  0  0  0  0  0  0  0  0  0  0
   29.1929  -19.6969   -6.0232 C   0  0  0  0  0  0  0  0  0  0  0  0
   27.9299  -19.1469   -6.1413 C   0  0  0  0  0  0  0  0  0  0  0  0
   27.1344  -19.4076   -7.2335 C   0  0  0  0  0  0  0  0  0  0  0  0
   27.6280  -20.2482   -8.2361 C   0  0  0  0  0  0  0  0  0  0  0  0
   24.1933  -20.5965  -11.8034 C   0  0  0  0  0  0  0  0  0  0  0  0
   23.7862  -19.4177  -11.8718 O   0  0  0  0  0  0  0  0  0  0  0  0
   20.7667  -24.4222  -16.3369 C   0  0  0  0  0  0  0  0  0  0  0  0
   19.9166  -24.2970  -14.7621 S   0  0  0  0  0  0  0  0  0  0  0  0
   20.1841  -22.6527  -13.9906 C   0  0  0  0  0  0  0  0  0  0  0  0
   21.5423  -22.6812  -13.3811 C   0  0  0  0  0  0  0  0  0  0  0  0
   21.9998  -21.4059  -12.7527 C   0  0  2  0  0  0  0  0  0  0  0  0
   23.3109  -21.6497  -12.1339 N   0  0  0  0  0  0  0  0  0  0  0  0
   21.0806  -21.0598  -11.6272 C   0  0  0  0  0  0  0  0  0  0  0  0
   20.0311  -20.3785  -11.7981 O   0  0  0  0  0  0  0  0  0  0  0  0
   21.3177  -21.4635  -10.3163 O   0  0  0  0  0  0  0  0  0  0  0  0
  2  3  1  0
  2  1  1  0
  3  4  2  0
  5  6  1  0
  5  3  1  0
  6  7  1  1
  8  7  1  0
  8 16  1  0
  9  8  2  0
 10  9  1  0
 10 11  1  0
 11 12  1  0
 11 16  2  0
 12 13  2  0
 13 14  1  0
 15 14  2  0
 16 15  1  0
 17  6  1  0
 17 18  2  0
 19 20  1  0
 21 20  1  0
 22 21  1  0
 23 24  1  0
 23 22  1  1
 24 17  1  0
 25 23  1  0
 26 25  2  0
 27 25  1  0
M  END
$$$$
