GWM.pdb
     RDKit          3D

 27 28  0  0  1  0  0  0  0  0999 V2000
   25.5141  -25.7031  -15.3459 N   0  0  0  0  0  0  0  0  0  0  0  0
   25.6714  -24.2848  -15.4285 C   0  0  0  0  0  0  0  0  0  0  0  0
   25.2058  -23.5814  -14.2057 C   0  0  0  0  0  0  0  0  0  0  0  0
   24.5788  -24.2323  -13.3134 O   0  0  0  0  0  0  0  0  0  0  0  0
   25.4249  -22.2056  -13.9754 N   0  0  0  0  0  0  0  0  0  0  0  0
   24.9119  -21.4994  -12.8336 C   0  0  1  0  0  0  0  0  0  0  0  0
   25.7129  -20.2683  -12.5032 C   0  0  0  0  0  0  0  0  0  0  0  0
   26.9079  -20.5561  -11.7003 C   0  0  0  0  0  0  0  0  0  0  0  0
   28.1318  -20.9080  -12.2165 C   0  0  0  0  0  0  0  0  0  0  0  0
   28.9797  -21.0927  -11.2059 N   0  0  0  0  0  0  0  0  0  0  0  0
   28.3491  -20.8721  -10.0310 C   0  0  0  0  0  0  0  0  0  0  0  0
   28.7400  -20.9209   -8.7069 C   0  0  0  0  0  0  0  0  0  0  0  0
   27.8497  -20.6381   -7.6921 C   0  0  0  0  0  0  0  0  0  0  0  0
   26.5465  -20.3007   -8.0072 C   0  0  0  0  0  0  0  0  0  0  0  0
   26.1179  -20.2409   -9.3136 C   0  0  0  0  0  0  0  0  0  0  0  0
   27.0315  -20.5302  -10.3320 C   0  0  0  0  0  0  0  0  0  0  0  0
   23.4970  -21.1079  -12.9888 C   0  0  0  0  0  0  0  0  0  0  0  0
   23.0820  -20.6675  -14.0814 O   0  0  0  0  0  0  0  0  0  0  0  0
   17.9660  -24.4479  -10.4750 C   0  0  0  0  0  0  0  0  0  0  0  0
   18.3693  -22.8759   -9.7105 S   0  0  0  0  0  0  0  0  0  0  0  0
   18.9714  -21.6665  -10.9537 C   0  0  0  0  0  0  0  0  0  0  0  0
   20.4558  -21.7804  -10.9783 C   0  0  0  0  0  0  0  0  0  0  0  0
   21.1470  -21.0345  -12.0722 C   0  0  2  0  0  0  0  0  0  0  0  0
   22.5952  -21.2257  -11.9070 N   0  0  0  0  0  0  0  0  0  0  0  0
   20.9098  -19.5710  -11.8899 C   0  0  0  0  0  0  0  0  0  0  0  0
   21.7329  -18.8234  -11.2911 O   0  0  0  0  0  0  0  0  0  0  0  0
   19.7681  -18.9329  -12.3661 O   0  0  0  0  0  0  0  0  0  0  0  0
  2  3  1  0
  2  1  1  0
  3  4  2  0
  5  6  1  0
  5  3  1  0
  6  7  1  6
  8  7  1  0
  8 16  1  0
  9  8  2  0
 10  9  1  0
 10 11  1  0
 11 12  1  0
 11 16  2  0
 12 13  2  0
 13 14  1  0
 15 14  2  0
 16 15  1  0
 17  6  1  0
 17 18  2  0
 19 20  1  0
 21 20  1  0
 22 21  1  0
 23 24  1  0
 23 22  1  1
 24 17  1  0
 25 23  1  0
 26 25  2  0
 27 25  1  0
M  END
$$$$
