GWM.pdb
     RDKit          3D

 27 28  0  0  1  0  0  0  0  0999 V2000
   27.7062  -23.7967  -17.2754 N   0  0  0  0  0  0  0  0  0  0  0  0
   27.7133  -22.4739  -16.7337 C   0  0  0  0  0  0  0  0  0  0  0  0
   27.0532  -22.3919  -15.4054 C   0  0  0  0  0  0  0  0  0  0  0  0
   26.1399  -23.2239  -15.1114 O   0  0  0  0  0  0  0  0  0  0  0  0
   27.3899  -21.4239  -14.4340 N   0  0  0  0  0  0  0  0  0  0  0  0
   26.6347  -21.2101  -13.2301 C   0  0  1  0  0  0  0  0  0  0  0  0
   27.3097  -20.2549  -12.2822 C   0  0  0  0  0  0  0  0  0  0  0  0
   26.7449  -20.2912  -10.9275 C   0  0  0  0  0  0  0  0  0  0  0  0
   25.4149  -20.1176  -10.6290 C   0  0  0  0  0  0  0  0  0  0  0  0
   25.2618  -20.2135   -9.3093 N   0  0  0  0  0  0  0  0  0  0  0  0
   26.4575  -20.4464   -8.7237 C   0  0  0  0  0  0  0  0  0  0  0  0
   26.8686  -20.6254   -7.4171 C   0  0  0  0  0  0  0  0  0  0  0  0
   28.1950  -20.8518   -7.1141 C   0  0  0  0  0  0  0  0  0  0  0  0
   29.1256  -20.9001   -8.1354 C   0  0  0  0  0  0  0  0  0  0  0  0
   28.7565  -20.7268   -9.4497 C   0  0  0  0  0  0  0  0  0  0  0  0
   27.4082  -20.4980   -9.7420 C   0  0  0  0  0  0  0  0  0  0  0  0
   25.2663  -20.7208  -13.4901 C   0  0  0  0  0  0  0  0  0  0  0  0
   25.0874  -19.6075  -14.0272 O   0  0  0  0  0  0  0  0  0  0  0  0
   21.0267  -24.7980  -15.2696 C   0  0  0  0  0  0  0  0  0  0  0  0
   20.2090  -23.2732  -15.7438 S   0  0  0  0  0  0  0  0  0  0  0  0
   20.7129  -21.8822  -14.6567 C   0  0  0  0  0  0  0  0  0  0  0  0
   22.1508  -22.0917  -14.3315 C   0  0  0  0  0  0  0  0  0  0  0  0
   22.7684  -21.0738  -13.4298 C   0  0  2  0  0  0  0  0  0  0  0  0
   24.1435  -21.5026  -13.1360 N   0  0  0  0  0  0  0  0  0  0  0  0
   22.0531  -21.0860  -12.1186 C   0  0  0  0  0  0  0  0  0  0  0  0
   22.4419  -21.7891  -11.1442 O   0  0  0  0  0  0  0  0  0  0  0  0
   20.9118  -20.3252  -11.8816 O   0  0  0  0  0  0  0  0  0  0  0  0
  2  3  1  0
  2  1  1  0
  3  4  2  0
  5  6  1  0
  5  3  1  0
  6  7  1  1
  8  7  1  0
  8 16  1  0
  9  8  2  0
 10  9  1  0
 10 11  1  0
 11 12  1  0
 11 16  2  0
 12 13  2  0
 13 14  1  0
 15 14  2  0
 16 15  1  0
 17  6  1  0
 17 18  2  0
 19 20  1  0
 21 20  1  0
 22 21  1  0
 23 24  1  0
 23 22  1  6
 24 17  1  0
 25 23  1  0
 26 25  2  0
 27 25  1  0
M  END
$$$$
