DIR.pdb
     RDKit          3D

 28 27  0  0  1  0  0  0  0  0999 V2000
   19.3474  -21.4486  -12.2235 N   0  0  0  0  0  0  0  0  0  0  0  0
   20.4452  -22.1640  -12.8234 C   0  0  1  0  0  0  0  0  0  0  0  0
   20.0903  -22.6528  -14.2199 C   0  0  0  0  0  0  0  0  0  0  0  0
   19.3471  -23.9119  -14.1081 C   0  0  0  0  0  0  0  0  0  0  0  0
   19.0384  -24.3627  -12.9969 O   0  0  0  0  0  0  0  0  0  0  0  0
   21.5840  -21.2082  -12.9990 C   0  0  0  0  0  0  0  0  0  0  0  0
   21.4488  -20.2027  -13.7549 O   0  0  0  0  0  0  0  0  0  0  0  0
   18.9992  -24.5849  -15.2812 O   0  0  0  0  0  0  0  0  0  0  0  0
   25.9309  -21.5153   -9.3511 C   0  0  0  0  0  0  0  0  0  0  0  0
   25.1384  -21.6443  -10.6234 C   0  0  0  0  0  0  0  0  0  0  0  0
   24.5560  -20.3595  -11.0858 C   0  0  2  0  0  0  0  0  0  0  0  0
   23.5575  -19.8634  -10.0501 C   0  0  0  0  0  0  0  0  0  0  0  0
   23.8785  -20.4468  -12.4541 C   0  0  2  0  0  0  0  0  0  0  0  0
   22.7954  -21.4283  -12.3272 N   0  0  0  0  0  0  0  0  0  0  0  0
   24.8338  -20.9164  -13.4954 C   0  0  0  0  0  0  0  0  0  0  0  0
   25.2729  -22.1209  -13.3783 O   0  0  0  0  0  0  0  0  0  0  0  0
   27.7131  -26.0565  -16.7470 N   0  0  0  0  0  0  0  0  0  0  0  0
   26.3048  -25.9750  -16.5822 C   0  0  0  0  0  0  0  0  0  0  0  0
   25.6863  -26.9891  -16.0792 N   0  0  0  0  0  0  0  0  0  0  0  0
   25.5293  -24.8404  -16.9385 N   0  0  0  0  0  0  0  0  0  0  0  0
   26.0345  -23.8310  -17.8737 C   0  0  0  0  0  0  0  0  0  0  0  0
   26.6750  -22.6826  -17.1117 C   0  0  0  0  0  0  0  0  0  0  0  0
   25.6883  -21.9922  -16.2212 C   0  0  0  0  0  0  0  0  0  0  0  0
   26.2897  -20.7940  -15.5173 C   0  0  2  0  0  0  0  0  0  0  0  0
   25.3088  -20.2026  -14.5912 N   0  0  0  0  0  0  0  0  0  0  0  0
   26.6452  -19.8147  -16.5711 C   0  0  0  0  0  0  0  0  0  0  0  0
   27.5850  -20.0970  -17.3502 O   0  0  0  0  0  0  0  0  0  0  0  0
   25.9999  -18.6043  -16.7466 O   0  0  0  0  0  0  0  0  0  0  0  0
  2  1  1  6
  2  3  1  0
  4  3  1  0
  5  4  2  0
  6  2  1  0
  7  6  2  0
  8  4  1  0
  9 10  1  0
 10 11  1  0
 11 12  1  1
 13 11  1  0
 13 14  1  1
 14  6  1  0
 15 13  1  0
 16 15  2  0
 18 19  2  0
 18 17  1  0
 20 18  1  0
 21 20  1  0
 22 21  1  0
 22 23  1  0
 24 23  1  6
 24 25  1  0
 25 15  1  0
 26 24  1  0
 26 28  1  0
 27 26  2  0
M  END
$$$$
