DIR.pdb
     RDKit          3D

 28 27  0  0  1  0  0  0  0  0999 V2000
   26.5215  -13.9514  -16.4010 N   0  0  0  0  0  0  0  0  0  0  0  0
   26.5265  -13.2468  -17.6582 C   0  0  1  0  0  0  0  0  0  0  0  0
   25.1117  -13.0102  -18.1658 C   0  0  0  0  0  0  0  0  0  0  0  0
   24.5065  -14.3020  -18.5054 C   0  0  0  0  0  0  0  0  0  0  0  0
   23.2771  -14.4463  -18.4789 O   0  0  0  0  0  0  0  0  0  0  0  0
   27.1138  -11.8890  -17.4292 C   0  0  0  0  0  0  0  0  0  0  0  0
   26.6719  -11.1638  -16.4913 O   0  0  0  0  0  0  0  0  0  0  0  0
   25.3491  -15.3587  -18.8574 O   0  0  0  0  0  0  0  0  0  0  0  0
   32.3011  -11.3570  -17.1624 C   0  0  0  0  0  0  0  0  0  0  0  0
   30.8178  -11.1439  -17.0276 C   0  0  0  0  0  0  0  0  0  0  0  0
   30.2517  -10.2674  -18.0836 C   0  0  2  0  0  0  0  0  0  0  0  0
   30.9208   -8.9026  -18.0102 C   0  0  0  0  0  0  0  0  0  0  0  0
   28.7336  -10.1021  -17.9992 C   0  0  2  0  0  0  0  0  0  0  0  0
   28.1501  -11.4242  -18.2523 N   0  0  0  0  0  0  0  0  0  0  0  0
   28.2403   -9.1523  -19.0344 C   0  0  0  0  0  0  0  0  0  0  0  0
   28.4709   -9.4622  -20.2625 O   0  0  0  0  0  0  0  0  0  0  0  0
   21.9864   -2.9767  -19.4721 N   0  0  0  0  0  0  0  0  0  0  0  0
   22.0860   -4.3825  -19.6483 C   0  0  0  0  0  0  0  0  0  0  0  0
   21.0385   -5.1036  -19.4319 N   0  0  0  0  0  0  0  0  0  0  0  0
   23.2734   -5.0488  -20.0502 N   0  0  0  0  0  0  0  0  0  0  0  0
   24.5273   -4.3190  -20.2593 C   0  0  0  0  0  0  0  0  0  0  0  0
   25.6265   -5.2759  -20.6909 C   0  0  0  0  0  0  0  0  0  0  0  0
   26.0191   -6.2026  -19.5817 C   0  0  0  0  0  0  0  0  0  0  0  0
   27.1872   -7.0888  -19.9596 C   0  0  2  0  0  0  0  0  0  0  0  0
   27.5504   -7.9614  -18.8299 N   0  0  0  0  0  0  0  0  0  0  0  0
   28.3174   -6.1879  -20.2869 C   0  0  0  0  0  0  0  0  0  0  0  0
   28.3004   -5.5918  -21.3889 O   0  0  0  0  0  0  0  0  0  0  0  0
   29.3927   -5.9651  -19.4466 O   0  0  0  0  0  0  0  0  0  0  0  0
  2  1  1  1
  2  3  1  0
  4  3  1  0
  5  4  2  0
  6  2  1  0
  7  6  2  0
  8  4  1  0
  9 10  1  0
 10 11  1  0
 11 12  1  1
 13 11  1  0
 13 14  1  6
 14  6  1  0
 15 13  1  0
 16 15  2  0
 18 19  2  0
 18 17  1  0
 20 18  1  0
 21 20  1  0
 22 21  1  0
 22 23  1  0
 24 23  1  1
 24 25  1  0
 25 15  1  0
 26 24  1  0
 26 28  1  0
 27 26  2  0
M  END
$$$$
