DIR.pdb
     RDKit          3D

 28 27  0  0  1  0  0  0  0  0999 V2000
   28.3636  -21.8883  -15.2047 N   0  0  0  0  0  0  0  0  0  0  0  0
   27.7371  -20.7606  -14.5623 C   0  0  1  0  0  0  0  0  0  0  0  0
   27.0536  -19.8552  -15.5763 C   0  0  0  0  0  0  0  0  0  0  0  0
   28.0784  -19.1124  -16.3168 C   0  0  0  0  0  0  0  0  0  0  0  0
   28.8280  -19.6970  -17.1100 O   0  0  0  0  0  0  0  0  0  0  0  0
   26.6495  -21.2763  -13.6722 C   0  0  0  0  0  0  0  0  0  0  0  0
   25.9533  -22.2665  -14.0406 O   0  0  0  0  0  0  0  0  0  0  0  0
   28.1854  -17.7362  -16.1044 O   0  0  0  0  0  0  0  0  0  0  0  0
   27.1277  -20.2937   -8.3179 C   0  0  0  0  0  0  0  0  0  0  0  0
   26.7638  -21.0538   -9.5644 C   0  0  0  0  0  0  0  0  0  0  0  0
   25.5136  -20.5710  -10.2031 C   0  0  2  0  0  0  0  0  0  0  0  0
   24.3308  -20.9241   -9.3131 C   0  0  0  0  0  0  0  0  0  0  0  0
   25.2848  -21.1279  -11.6089 C   0  0  2  0  0  0  0  0  0  0  0  0
   26.4046  -20.6628  -12.4349 N   0  0  0  0  0  0  0  0  0  0  0  0
   24.0133  -20.6130  -12.1881 C   0  0  0  0  0  0  0  0  0  0  0  0
   23.9447  -19.3451  -12.4005 O   0  0  0  0  0  0  0  0  0  0  0  0
   22.4921  -23.5548  -16.7066 N   0  0  0  0  0  0  0  0  0  0  0  0
   22.7663  -22.5227  -17.6430 C   0  0  0  0  0  0  0  0  0  0  0  0
   23.7172  -22.7046  -18.4955 N   0  0  0  0  0  0  0  0  0  0  0  0
   22.0553  -21.2952  -17.7006 N   0  0  0  0  0  0  0  0  0  0  0  0
   20.8758  -21.0539  -16.8645 C   0  0  0  0  0  0  0  0  0  0  0  0
   21.2823  -20.3798  -15.5644 C   0  0  0  0  0  0  0  0  0  0  0  0
   21.3289  -21.3542  -14.4280 C   0  0  0  0  0  0  0  0  0  0  0  0
   21.6999  -20.6919  -13.1179 C   0  0  2  0  0  0  0  0  0  0  0  0
   22.8827  -21.3468  -12.5335 N   0  0  0  0  0  0  0  0  0  0  0  0
   20.5356  -20.8511  -12.2151 C   0  0  0  0  0  0  0  0  0  0  0  0
   19.4644  -20.2782  -12.5223 O   0  0  0  0  0  0  0  0  0  0  0  0
   20.5606  -21.5961  -11.0504 O   0  0  0  0  0  0  0  0  0  0  0  0
  2  1  1  6
  2  3  1  0
  4  3  1  0
  5  4  2  0
  6  2  1  0
  7  6  2  0
  8  4  1  0
  9 10  1  0
 10 11  1  0
 11 12  1  1
 13 11  1  0
 13 14  1  6
 14  6  1  0
 15 13  1  0
 16 15  2  0
 18 19  2  0
 18 17  1  0
 20 18  1  0
 21 20  1  0
 22 21  1  0
 22 23  1  0
 24 23  1  6
 24 25  1  0
 25 15  1  0
 26 24  1  0
 26 28  1  0
 27 26  2  0
M  END
$$$$
