DIR.pdb
     RDKit          3D

 28 27  0  0  1  0  0  0  0  0999 V2000
   17.4528  -26.0656   -6.4570 N   0  0  0  0  0  0  0  0  0  0  0  0
   17.1056  -25.6763   -5.1135 C   0  0  1  0  0  0  0  0  0  0  0  0
   15.6167  -25.3894   -4.9876 C   0  0  0  0  0  0  0  0  0  0  0  0
   15.3237  -24.1064   -5.6344 C   0  0  0  0  0  0  0  0  0  0  0  0
   16.2187  -23.4748   -6.2115 O   0  0  0  0  0  0  0  0  0  0  0  0
   17.3794  -26.8356   -4.2068 C   0  0  0  0  0  0  0  0  0  0  0  0
   17.1685  -28.0147   -4.6142 O   0  0  0  0  0  0  0  0  0  0  0  0
   14.0159  -23.6191   -5.5823 O   0  0  0  0  0  0  0  0  0  0  0  0
   21.9014  -27.6294   -1.8258 C   0  0  0  0  0  0  0  0  0  0  0  0
   20.5266  -27.8631   -2.3907 C   0  0  0  0  0  0  0  0  0  0  0  0
   19.4399  -27.6358   -1.4052 C   0  0  2  0  0  0  0  0  0  0  0  0
   19.5933  -28.6231   -0.2574 C   0  0  0  0  0  0  0  0  0  0  0  0
   18.0352  -27.7506   -1.9991 C   0  0  2  0  0  0  0  0  0  0  0  0
   17.8679  -26.6135   -2.9109 N   0  0  0  0  0  0  0  0  0  0  0  0
   16.9963  -27.6711   -0.9353 C   0  0  0  0  0  0  0  0  0  0  0  0
   16.9506  -26.5823   -0.2498 O   0  0  0  0  0  0  0  0  0  0  0  0
   13.7636  -28.3479   -4.2216 N   0  0  0  0  0  0  0  0  0  0  0  0
   14.2519  -29.5835   -3.7197 C   0  0  0  0  0  0  0  0  0  0  0  0
   15.1027  -30.2417   -4.4319 N   0  0  0  0  0  0  0  0  0  0  0  0
   13.8603  -30.1441   -2.4756 N   0  0  0  0  0  0  0  0  0  0  0  0
   12.6749  -29.6643   -1.7591 C   0  0  0  0  0  0  0  0  0  0  0  0
   13.0705  -28.6173   -0.7310 C   0  0  0  0  0  0  0  0  0  0  0  0
   13.8832  -29.2114    0.3780 C   0  0  0  0  0  0  0  0  0  0  0  0
   15.1926  -28.4802    0.5862 C   0  0  2  0  0  0  0  0  0  0  0  0
   16.0586  -28.6409   -0.5944 N   0  0  0  0  0  0  0  0  0  0  0  0
   15.8371  -29.0897    1.7733 C   0  0  0  0  0  0  0  0  0  0  0  0
   15.2874  -28.9392    2.8892 O   0  0  0  0  0  0  0  0  0  0  0  0
   17.0124  -29.8167    1.7231 O   0  0  0  0  0  0  0  0  0  0  0  0
  2  1  1  6
  2  3  1  0
  4  3  1  0
  5  4  2  0
  6  2  1  0
  7  6  2  0
  8  4  1  0
  9 10  1  0
 10 11  1  0
 11 12  1  1
 13 11  1  0
 13 14  1  6
 14  6  1  0
 15 13  1  0
 16 15  2  0
 18 19  2  0
 18 17  1  0
 20 18  1  0
 21 20  1  0
 22 21  1  0
 22 23  1  0
 24 23  1  6
 24 25  1  0
 25 15  1  0
 26 24  1  0
 26 28  1  0
 27 26  2  0
M  END
$$$$
