DIR.pdb
     RDKit          3D

 28 27  0  0  1  0  0  0  0  0999 V2000
   25.1669  -21.8953  -14.7128 N   0  0  0  0  0  0  0  0  0  0  0  0
   23.7575  -22.1539  -14.8675 C   0  0  1  0  0  0  0  0  0  0  0  0
   23.3747  -23.5042  -14.2800 C   0  0  0  0  0  0  0  0  0  0  0  0
   24.0879  -24.5586  -15.0080 C   0  0  0  0  0  0  0  0  0  0  0  0
   24.7727  -24.2829  -16.0020 O   0  0  0  0  0  0  0  0  0  0  0  0
   23.0061  -21.1315  -14.0731 C   0  0  0  0  0  0  0  0  0  0  0  0
   23.4126  -20.8102  -12.9189 O   0  0  0  0  0  0  0  0  0  0  0  0
   23.9746  -25.8740  -14.5527 O   0  0  0  0  0  0  0  0  0  0  0  0
   21.4929  -16.7135  -16.4065 C   0  0  0  0  0  0  0  0  0  0  0  0
   21.8677  -17.6501  -15.2902 C   0  0  0  0  0  0  0  0  0  0  0  0
   20.7159  -18.4209  -14.7582 C   0  0  2  0  0  0  0  0  0  0  0  0
   19.7635  -17.4686  -14.0498 C   0  0  0  0  0  0  0  0  0  0  0  0
   21.1162  -19.5505  -13.8081 C   0  0  2  0  0  0  0  0  0  0  0  0
   21.8558  -20.5331  -14.6080 N   0  0  0  0  0  0  0  0  0  0  0  0
   19.9153  -20.2105  -13.2254 C   0  0  0  0  0  0  0  0  0  0  0  0
   19.3260  -19.5945  -12.2606 O   0  0  0  0  0  0  0  0  0  0  0  0
   12.9038  -20.4295  -15.8176 N   0  0  0  0  0  0  0  0  0  0  0  0
   12.7041  -20.5418  -14.4159 C   0  0  0  0  0  0  0  0  0  0  0  0
   11.7923  -19.8136  -13.8659 N   0  0  0  0  0  0  0  0  0  0  0  0
   13.4494  -21.4106  -13.5761 N   0  0  0  0  0  0  0  0  0  0  0  0
   14.5041  -22.2754  -14.1128 C   0  0  0  0  0  0  0  0  0  0  0  0
   15.6887  -22.3118  -13.1612 C   0  0  0  0  0  0  0  0  0  0  0  0
   16.9329  -21.7853  -13.8077 C   0  0  0  0  0  0  0  0  0  0  0  0
   18.1526  -21.9500  -12.9257 C   0  0  2  0  0  0  0  0  0  0  0  0
   19.3477  -21.4225  -13.6061 N   0  0  0  0  0  0  0  0  0  0  0  0
   18.3092  -23.4033  -12.6818 C   0  0  0  0  0  0  0  0  0  0  0  0
   19.3441  -23.9676  -13.1069 O   0  0  0  0  0  0  0  0  0  0  0  0
   17.3791  -24.1761  -12.0112 O   0  0  0  0  0  0  0  0  0  0  0  0
  2  1  1  1
  2  3  1  0
  4  3  1  0
  5  4  2  0
  6  2  1  0
  7  6  2  0
  8  4  1  0
  9 10  1  0
 10 11  1  0
 11 12  1  1
 13 11  1  0
 13 14  1  6
 14  6  1  0
 15 13  1  0
 16 15  2  0
 18 19  2  0
 18 17  1  0
 20 18  1  0
 21 20  1  0
 22 21  1  0
 22 23  1  0
 24 23  1  6
 24 25  1  0
 25 15  1  0
 26 24  1  0
 26 28  1  0
 27 26  2  0
M  END
$$$$
