NTA.pdb
     RDKit          3D

 21 20  0  0  1  0  0  0  0  0999 V2000
   15.9243  -11.6569  -17.5085 N   0  0  0  0  0  0  0  0  0  0  0  0
   15.9123  -10.8249  -16.3717 C   0  0  0  0  0  0  0  0  0  0  0  0
   14.8377  -10.4065  -15.8753 O   0  0  0  0  0  0  0  0  0  0  0  0
   17.2120  -10.4388  -15.7523 C   0  0  0  0  0  0  0  0  0  0  0  0
   18.3704  -10.9776  -16.5896 C   0  0  2  0  0  0  0  0  0  0  0  0
   18.3589  -12.4210  -16.4649 N   0  0  0  0  0  0  0  0  0  0  0  0
   19.6105  -10.3774  -16.0766 C   0  0  0  0  0  0  0  0  0  0  0  0
   20.3154  -10.8980  -15.1747 O   0  0  0  0  0  0  0  0  0  0  0  0
   22.8140   -9.7127  -17.6081 C   0  0  0  0  0  0  0  0  0  0  0  0
   22.2228   -8.3922  -17.2347 C   0  0  1  0  0  0  0  0  0  0  0  0
   21.7465   -7.7313  -18.3580 O   0  0  0  0  0  0  0  0  0  0  0  0
   21.2241   -8.4565  -16.1199 C   0  0  2  0  0  0  0  0  0  0  0  0
   20.0511   -9.1392  -16.6203 N   0  0  0  0  0  0  0  0  0  0  0  0
   20.8843   -7.1858  -15.5091 C   0  0  0  0  0  0  0  0  0  0  0  0
   19.8737   -6.5754  -15.9482 O   0  0  0  0  0  0  0  0  0  0  0  0
   21.7206   -4.9944  -12.5752 C   0  0  0  0  0  0  0  0  0  0  0  0
   21.2704   -5.2269  -14.0119 C   0  0  2  0  0  0  0  0  0  0  0  0
   21.5840   -6.5566  -14.4562 N   0  0  0  0  0  0  0  0  0  0  0  0
   21.7776   -4.1692  -14.8726 C   0  0  0  0  0  0  0  0  0  0  0  0
   21.2488   -2.8971  -14.8174 O   0  0  0  0  0  0  0  0  0  0  0  0
   22.7040   -4.4031  -15.6766 O   0  0  0  0  0  0  0  0  0  0  0  0
  1  2  1  0
  2  3  2  0
  4  2  1  0
  4  5  1  0
  5  6  1  1
  7  5  1  0
  7 13  1  0
  8  7  2  0
 10  9  1  6
 10 12  1  0
 10 11  1  0
 12 13  1  6
 12 14  1  0
 14 15  2  0
 17 16  1  1
 17 19  1  0
 18 14  1  0
 18 17  1  0
 19 20  1  0
 21 19  2  0
M  END
$$$$
