NTA.pdb
     RDKit          3D

 21 20  0  0  1  0  0  0  0  0999 V2000
   20.4374  -19.8300  -12.6253 N   0  0  0  0  0  0  0  0  0  0  0  0
   20.6039  -20.3190  -13.9359 C   0  0  0  0  0  0  0  0  0  0  0  0
   20.5670  -21.5485  -14.1879 O   0  0  0  0  0  0  0  0  0  0  0  0
   20.8287  -19.3447  -15.0414 C   0  0  0  0  0  0  0  0  0  0  0  0
   20.8583  -17.9221  -14.4860 C   0  0  2  0  0  0  0  0  0  0  0  0
   19.6983  -17.7675  -13.6318 N   0  0  0  0  0  0  0  0  0  0  0  0
   20.8451  -16.9957  -15.6275 C   0  0  0  0  0  0  0  0  0  0  0  0
   21.7048  -17.0085  -16.5452 O   0  0  0  0  0  0  0  0  0  0  0  0
   18.2355  -16.8083  -18.1341 C   0  0  0  0  0  0  0  0  0  0  0  0
   18.3249  -15.4658  -17.4841 C   0  0  1  0  0  0  0  0  0  0  0  0
   17.2626  -15.2692  -16.6133 O   0  0  0  0  0  0  0  0  0  0  0  0
   19.6569  -15.1665  -16.8674 C   0  0  2  0  0  0  0  0  0  0  0  0
   19.8091  -16.0251  -15.7132 N   0  0  0  0  0  0  0  0  0  0  0  0
   19.8948  -13.7751  -16.5347 C   0  0  0  0  0  0  0  0  0  0  0  0
   19.7237  -13.4204  -15.3382 O   0  0  0  0  0  0  0  0  0  0  0  0
   21.1014  -10.5593  -18.1385 C   0  0  0  0  0  0  0  0  0  0  0  0
   20.5207  -11.4073  -17.0140 C   0  0  2  0  0  0  0  0  0  0  0  0
   20.3051  -12.7647  -17.4319 N   0  0  0  0  0  0  0  0  0  0  0  0
   19.3471  -10.7567  -16.4517 C   0  0  0  0  0  0  0  0  0  0  0  0
   19.4687   -9.8318  -15.4365 O   0  0  0  0  0  0  0  0  0  0  0  0
   18.2084  -11.0307  -16.8851 O   0  0  0  0  0  0  0  0  0  0  0  0
  1  2  1  0
  2  3  2  0
  4  2  1  0
  4  5  1  0
  5  6  1  1
  7  5  1  0
  7 13  1  0
  8  7  2  0
 10  9  1  1
 10 12  1  0
 10 11  1  0
 12 13  1  1
 12 14  1  0
 14 15  2  0
 17 16  1  6
 17 19  1  0
 18 14  1  0
 18 17  1  0
 19 20  1  0
 21 19  2  0
M  END
$$$$
