NTA.pdb
     RDKit          3D

 21 20  0  0  1  0  0  0  0  0999 V2000
   16.3868  -12.3779  -16.3510 N   0  0  0  0  0  0  0  0  0  0  0  0
   16.5003  -11.4774  -15.2736 C   0  0  0  0  0  0  0  0  0  0  0  0
   15.5669  -11.3190  -14.4489 O   0  0  0  0  0  0  0  0  0  0  0  0
   17.7626  -10.6998  -15.1192 C   0  0  0  0  0  0  0  0  0  0  0  0
   18.6706  -10.9328  -16.3251 C   0  0  2  0  0  0  0  0  0  0  0  0
   19.0638  -12.3272  -16.3069 N   0  0  0  0  0  0  0  0  0  0  0  0
   19.8182  -10.0219  -16.2039 C   0  0  0  0  0  0  0  0  0  0  0  0
   20.9304  -10.3622  -15.7258 O   0  0  0  0  0  0  0  0  0  0  0  0
   21.4737   -8.3634  -19.0102 C   0  0  0  0  0  0  0  0  0  0  0  0
   20.9832   -7.3011  -18.0809 C   0  0  1  0  0  0  0  0  0  0  0  0
   19.8652   -6.6675  -18.6046 O   0  0  0  0  0  0  0  0  0  0  0  0
   20.7947   -7.7575  -16.6666 C   0  0  2  0  0  0  0  0  0  0  0  0
   19.6788   -8.6778  -16.6474 N   0  0  0  0  0  0  0  0  0  0  0  0
   20.6358   -6.7029  -15.6838 C   0  0  0  0  0  0  0  0  0  0  0  0
   19.4845   -6.2171  -15.5254 O   0  0  0  0  0  0  0  0  0  0  0  0
   22.4602   -5.1496  -12.7937 C   0  0  0  0  0  0  0  0  0  0  0  0
   21.4021   -5.1467  -13.8896 C   0  0  2  0  0  0  0  0  0  0  0  0
   21.6584   -6.1595  -14.8757 N   0  0  0  0  0  0  0  0  0  0  0  0
   21.2461   -3.8052  -14.4309 C   0  0  0  0  0  0  0  0  0  0  0  0
   20.6824   -2.7985  -13.6762 O   0  0  0  0  0  0  0  0  0  0  0  0
   21.6236   -3.5486  -15.5933 O   0  0  0  0  0  0  0  0  0  0  0  0
  1  2  1  0
  2  3  2  0
  4  2  1  0
  4  5  1  0
  5  6  1  1
  7  5  1  0
  7 13  1  0
  8  7  2  0
 10  9  1  6
 10 12  1  0
 10 11  1  0
 12 13  1  6
 12 14  1  0
 14 15  2  0
 17 16  1  1
 17 19  1  0
 18 14  1  0
 18 17  1  0
 19 20  1  0
 21 19  2  0
M  END
$$$$
