NTA.pdb
     RDKit          3D

 21 20  0  0  1  0  0  0  0  0999 V2000
   24.4168  -13.9853  -16.1115 N   0  0  0  0  0  0  0  0  0  0  0  0
   25.1852  -12.8120  -15.9795 C   0  0  0  0  0  0  0  0  0  0  0  0
   26.4008  -12.8546  -15.6679 O   0  0  0  0  0  0  0  0  0  0  0  0
   24.5293  -11.4949  -16.2177 C   0  0  0  0  0  0  0  0  0  0  0  0
   23.0337  -11.6919  -16.4576 C   0  0  2  0  0  0  0  0  0  0  0  0
   22.8903  -12.4967  -17.6539 N   0  0  0  0  0  0  0  0  0  0  0  0
   22.4237  -10.3615  -16.5969 C   0  0  0  0  0  0  0  0  0  0  0  0
   22.4375   -9.6970  -17.6645 O   0  0  0  0  0  0  0  0  0  0  0  0
   18.8345   -9.7732  -15.8464 C   0  0  0  0  0  0  0  0  0  0  0  0
   19.6474   -8.8240  -15.0272 C   0  0  1  0  0  0  0  0  0  0  0  0
   19.6558   -9.2079  -13.6938 O   0  0  0  0  0  0  0  0  0  0  0  0
   21.0164   -8.5545  -15.5726 C   0  0  2  0  0  0  0  0  0  0  0  0
   21.7784   -9.7798  -15.4708 N   0  0  0  0  0  0  0  0  0  0  0  0
   21.7196   -7.4355  -14.9753 C   0  0  0  0  0  0  0  0  0  0  0  0
   22.3951   -7.6549  -13.9351 O   0  0  0  0  0  0  0  0  0  0  0  0
   22.4901   -3.7898  -15.6561 C   0  0  0  0  0  0  0  0  0  0  0  0
   22.4927   -5.0674  -14.8264 C   0  0  2  0  0  0  0  0  0  0  0  0
   21.7219   -6.1061  -15.4515 N   0  0  0  0  0  0  0  0  0  0  0  0
   22.1068   -4.7738  -13.4546 C   0  0  0  0  0  0  0  0  0  0  0  0
   20.8965   -5.2029  -12.9526 O   0  0  0  0  0  0  0  0  0  0  0  0
   22.8725   -4.1255  -12.7112 O   0  0  0  0  0  0  0  0  0  0  0  0
  1  2  1  0
  2  3  2  0
  4  2  1  0
  4  5  1  0
  5  6  1  6
  7  5  1  0
  7 13  1  0
  8  7  2  0
 10  9  1  6
 10 12  1  0
 10 11  1  0
 12 13  1  1
 12 14  1  0
 14 15  2  0
 17 16  1  6
 17 19  1  0
 18 14  1  0
 18 17  1  0
 19 20  1  0
 21 19  2  0
M  END
$$$$
