NTA.pdb
     RDKit          3D

 21 20  0  0  1  0  0  0  0  0999 V2000
   15.2767   -4.5435   -7.8521 N   0  0  0  0  0  0  0  0  0  0  0  0
   14.5768   -5.7653   -7.8106 C   0  0  0  0  0  0  0  0  0  0  0  0
   13.3428   -5.8079   -7.5828 O   0  0  0  0  0  0  0  0  0  0  0  0
   15.3292   -7.0307   -8.0440 C   0  0  0  0  0  0  0  0  0  0  0  0
   14.8122   -7.7210   -9.3047 C   0  0  2  0  0  0  0  0  0  0  0  0
   13.9089   -8.7721   -8.8822 N   0  0  0  0  0  0  0  0  0  0  0  0
   15.9751   -8.2390  -10.0401 C   0  0  0  0  0  0  0  0  0  0  0  0
   16.6725   -9.2088   -9.6470 O   0  0  0  0  0  0  0  0  0  0  0  0
   15.9664   -9.7483  -13.3750 C   0  0  0  0  0  0  0  0  0  0  0  0
   16.8157   -8.5195  -13.4154 C   0  0  1  0  0  0  0  0  0  0  0  0
   16.1418   -7.4760  -14.0338 O   0  0  0  0  0  0  0  0  0  0  0  0
   17.4111   -8.1375  -12.0949 C   0  0  2  0  0  0  0  0  0  0  0  0
   16.3447   -7.6198  -11.2659 N   0  0  0  0  0  0  0  0  0  0  0  0
   18.5345   -7.2222  -12.1555 C   0  0  0  0  0  0  0  0  0  0  0  0
   18.3016   -5.9956  -11.9891 O   0  0  0  0  0  0  0  0  0  0  0  0
   22.2950   -7.2311  -12.6257 C   0  0  0  0  0  0  0  0  0  0  0  0
   20.9132   -6.5921  -12.5712 C   0  0  2  0  0  0  0  0  0  0  0  0
   19.8823   -7.5752  -12.3857 N   0  0  0  0  0  0  0  0  0  0  0  0
   20.7175   -5.7244  -13.7226 C   0  0  0  0  0  0  0  0  0  0  0  0
   21.1851   -4.4274  -13.7191 O   0  0  0  0  0  0  0  0  0  0  0  0
   20.1196   -6.1474  -14.7341 O   0  0  0  0  0  0  0  0  0  0  0  0
  1  2  1  0
  2  3  2  0
  4  2  1  0
  4  5  1  0
  5  6  1  1
  7  5  1  0
  7 13  1  0
  8  7  2  0
 10  9  1  1
 10 12  1  0
 10 11  1  0
 12 13  1  1
 12 14  1  0
 14 15  2  0
 17 16  1  6
 17 19  1  0
 18 14  1  0
 18 17  1  0
 19 20  1  0
 21 19  2  0
M  END
$$$$
