NTA.pdb
     RDKit          3D

 21 20  0  0  1  0  0  0  0  0999 V2000
   12.4490   -8.1268  -13.7871 N   0  0  0  0  0  0  0  0  0  0  0  0
   13.5447   -7.9685  -14.6583 C   0  0  0  0  0  0  0  0  0  0  0  0
   13.4341   -7.3548  -15.7480 O   0  0  0  0  0  0  0  0  0  0  0  0
   14.8613   -8.5473  -14.2667 C   0  0  0  0  0  0  0  0  0  0  0  0
   15.5654   -9.1219  -15.4944 C   0  0  2  0  0  0  0  0  0  0  0  0
   15.0682  -10.4692  -15.6866 N   0  0  0  0  0  0  0  0  0  0  0  0
   17.0125   -9.0864  -15.2379 C   0  0  0  0  0  0  0  0  0  0  0  0
   17.6241   -9.9614  -14.5731 O   0  0  0  0  0  0  0  0  0  0  0  0
   19.6897   -9.5340  -17.4691 C   0  0  0  0  0  0  0  0  0  0  0  0
   19.8432   -8.1478  -16.9328 C   0  0  1  0  0  0  0  0  0  0  0  0
   19.4545   -7.2090  -17.8778 O   0  0  0  0  0  0  0  0  0  0  0  0
   19.2118   -7.9317  -15.5916 C   0  0  2  0  0  0  0  0  0  0  0  0
   17.7777   -8.0091  -15.7641 N   0  0  0  0  0  0  0  0  0  0  0  0
   19.6035   -6.7168  -14.9032 C   0  0  0  0  0  0  0  0  0  0  0  0
   18.9072   -5.6845  -15.0929 O   0  0  0  0  0  0  0  0  0  0  0  0
   22.0112   -5.4265  -12.3063 C   0  0  0  0  0  0  0  0  0  0  0  0
   21.1473   -5.2940  -13.5540 C   0  0  2  0  0  0  0  0  0  0  0  0
   20.7035   -6.5751  -14.0290 N   0  0  0  0  0  0  0  0  0  0  0  0
   21.8306   -4.4854  -14.5521 C   0  0  0  0  0  0  0  0  0  0  0  0
   21.9795   -3.1256  -14.3804 O   0  0  0  0  0  0  0  0  0  0  0  0
   22.2932   -5.0176  -15.5828 O   0  0  0  0  0  0  0  0  0  0  0  0
  1  2  1  0
  2  3  2  0
  4  2  1  0
  4  5  1  0
  5  6  1  1
  7  5  1  0
  7 13  1  0
  8  7  2  0
 10  9  1  6
 10 12  1  0
 10 11  1  0
 12 13  1  6
 12 14  1  0
 14 15  2  0
 17 16  1  1
 17 19  1  0
 18 14  1  0
 18 17  1  0
 19 20  1  0
 21 19  2  0
M  END
$$$$
