NTA.pdb
     RDKit          3D

 21 20  0  0  1  0  0  0  0  0999 V2000
   23.4297  -14.2874  -18.1203 N   0  0  0  0  0  0  0  0  0  0  0  0
   22.0955  -14.1888  -18.5616 C   0  0  0  0  0  0  0  0  0  0  0  0
   21.4972  -15.1694  -19.0684 O   0  0  0  0  0  0  0  0  0  0  0  0
   21.3877  -12.8849  -18.4186 C   0  0  0  0  0  0  0  0  0  0  0  0
   22.3164  -11.8534  -17.7809 C   0  0  2  0  0  0  0  0  0  0  0  0
   22.6827  -12.3530  -16.4712 N   0  0  0  0  0  0  0  0  0  0  0  0
   21.5894  -10.5773  -17.7143 C   0  0  0  0  0  0  0  0  0  0  0  0
   21.1757   -9.9574  -18.7273 O   0  0  0  0  0  0  0  0  0  0  0  0
   18.3450   -9.7012  -16.4847 C   0  0  0  0  0  0  0  0  0  0  0  0
   19.3400   -8.9849  -15.6306 C   0  0  1  0  0  0  0  0  0  0  0  0
   19.4664   -9.6063  -14.3963 O   0  0  0  0  0  0  0  0  0  0  0  0
   20.6555   -8.7277  -16.2995 C   0  0  2  0  0  0  0  0  0  0  0  0
   21.3318   -9.9985  -16.4410 N   0  0  0  0  0  0  0  0  0  0  0  0
   21.5016   -7.7394  -15.6586 C   0  0  0  0  0  0  0  0  0  0  0  0
   22.3831   -8.1517  -14.8589 O   0  0  0  0  0  0  0  0  0  0  0  0
   22.2651   -4.0407  -15.7272 C   0  0  0  0  0  0  0  0  0  0  0  0
   22.2453   -5.4254  -15.0924 C   0  0  2  0  0  0  0  0  0  0  0  0
   21.4339   -6.3413  -15.8452 N   0  0  0  0  0  0  0  0  0  0  0  0
   21.8920   -5.3253  -13.6845 C   0  0  0  0  0  0  0  0  0  0  0  0
   20.7224   -5.8778  -13.2073 O   0  0  0  0  0  0  0  0  0  0  0  0
   22.6493   -4.7338  -12.8869 O   0  0  0  0  0  0  0  0  0  0  0  0
  1  2  1  0
  2  3  2  0
  4  2  1  0
  4  5  1  0
  5  6  1  1
  7  5  1  0
  7 13  1  0
  8  7  2  0
 10  9  1  6
 10 12  1  0
 10 11  1  0
 12 13  1  1
 12 14  1  0
 14 15  2  0
 17 16  1  6
 17 19  1  0
 18 14  1  0
 18 17  1  0
 19 20  1  0
 21 19  2  0
M  END
$$$$
