LYP.pdb
     RDKit          3D

 28 29  0  0  1  0  0  0  0  0999 V2000
   26.4910  -19.2343  -16.4159 C   0  0  0  0  0  0  0  0  0  0  0  0
   27.0525  -20.0703  -15.2883 C   0  0  1  0  0  0  0  0  0  0  0  0
   28.5647  -19.9936  -15.2796 C   0  0  0  0  0  0  0  0  0  0  0  0
   26.5548  -19.6119  -13.9408 C   0  0  0  0  0  0  0  0  0  0  0  0
   27.4111  -20.2830  -12.8881 C   0  0  2  0  0  0  0  0  0  0  0  0
   27.4095  -21.7034  -12.9901 N   0  0  0  0  0  0  0  0  0  0  0  0
   26.9971  -19.8760  -11.5243 C   0  0  0  0  0  0  0  0  0  0  0  0
   26.6667  -18.6948  -11.2391 O   0  0  0  0  0  0  0  0  0  0  0  0
   20.5451  -19.8044  -11.6561 O   0  0  0  0  0  0  0  0  0  0  0  0
   21.6824  -20.1785  -10.9722 C   0  0  0  0  0  0  0  0  0  0  0  0
   22.5318  -21.1177  -11.5090 C   0  0  0  0  0  0  0  0  0  0  0  0
   23.6714  -21.4965  -10.8299 C   0  0  0  0  0  0  0  0  0  0  0  0
   24.0180  -20.9705   -9.6053 C   0  0  0  0  0  0  0  0  0  0  0  0
   25.2338  -21.3721   -8.8766 C   0  0  0  0  0  0  0  0  0  0  0  0
   26.4487  -20.5080   -9.1854 C   0  0  2  0  0  0  0  0  0  0  0  0
   26.9662  -20.8508  -10.4812 N   0  0  0  0  0  0  0  0  0  0  0  0
   27.4869  -20.5597   -8.1604 C   0  0  0  0  0  0  0  0  0  0  0  0
   28.2964  -21.5659   -8.2156 O   0  0  0  0  0  0  0  0  0  0  0  0
   23.1477  -20.0172   -9.0696 C   0  0  0  0  0  0  0  0  0  0  0  0
   22.0104  -19.6399   -9.7484 C   0  0  0  0  0  0  0  0  0  0  0  0
   27.7438  -19.6643   -7.1021 N   0  0  0  0  0  0  0  0  0  0  0  0
   27.1107  -18.4083   -6.8394 C   0  0  0  0  0  0  0  0  0  0  0  0
   27.6105  -17.9874   -5.4443 C   0  0  0  0  0  0  0  0  0  0  0  0
   29.0339  -18.5574   -5.5126 C   0  0  0  0  0  0  0  0  0  0  0  0
   28.7411  -19.9236   -6.0673 C   0  0  1  0  0  0  0  0  0  0  0  0
   28.1787  -20.8051   -5.0101 C   0  0  0  0  0  0  0  0  0  0  0  0
   26.9629  -21.1158   -5.0430 O   0  0  0  0  0  0  0  0  0  0  0  0
   28.9823  -21.2802   -3.9993 O   0  0  0  0  0  0  0  0  0  0  0  0
  2  1  1  6
  2  4  1  0
  3  2  1  0
  5  4  1  0
  5  6  1  1
  7  5  1  0
  7  8  2  0
  9 10  1  0
 10 11  2  0
 11 12  1  0
 13 12  2  0
 13 14  1  0
 15 14  1  1
 15 16  1  0
 16  7  1  0
 17 15  1  0
 18 17  2  0
 19 13  1  0
 20 10  1  0
 20 19  2  0
 21 17  1  0
 22 21  1  0
 22 23  1  0
 23 24  1  0
 25 21  1  0
 25 24  1  0
 25 26  1  1
 27 26  2  0
 28 26  1  0
M  END
$$$$
