LYP.pdb
     RDKit          3D

 28 29  0  0  1  0  0  0  0  0999 V2000
   19.3342  -21.8392  -12.0926 C   0  0  0  0  0  0  0  0  0  0  0  0
   20.3412  -21.9895  -13.2102 C   0  0  1  0  0  0  0  0  0  0  0  0
   19.6500  -21.9091  -14.5550 C   0  0  0  0  0  0  0  0  0  0  0  0
   21.4009  -20.9178  -13.1661 C   0  0  0  0  0  0  0  0  0  0  0  0
   22.2580  -21.0754  -14.4039 C   0  0  2  0  0  0  0  0  0  0  0  0
   22.6080  -22.4297  -14.6712 N   0  0  0  0  0  0  0  0  0  0  0  0
   23.4841  -20.2474  -14.3131 C   0  0  0  0  0  0  0  0  0  0  0  0
   23.4519  -19.0092  -14.0863 O   0  0  0  0  0  0  0  0  0  0  0  0
   25.5547  -20.2962   -8.0468 O   0  0  0  0  0  0  0  0  0  0  0  0
   25.9015  -20.3835   -9.3784 C   0  0  0  0  0  0  0  0  0  0  0  0
   25.8368  -21.5933  -10.0295 C   0  0  0  0  0  0  0  0  0  0  0  0
   26.1825  -21.6875  -11.3619 C   0  0  0  0  0  0  0  0  0  0  0  0
   26.6021  -20.6039  -12.1008 C   0  0  0  0  0  0  0  0  0  0  0  0
   26.9722  -20.6999  -13.5236 C   0  0  0  0  0  0  0  0  0  0  0  0
   25.9570  -20.0686  -14.4664 C   0  0  2  0  0  0  0  0  0  0  0  0
   24.7604  -20.8638  -14.4873 N   0  0  0  0  0  0  0  0  0  0  0  0
   26.4686  -19.8306  -15.8127 C   0  0  0  0  0  0  0  0  0  0  0  0
   26.2753  -20.7749  -16.6739 O   0  0  0  0  0  0  0  0  0  0  0  0
   26.6639  -19.3800  -11.4290 C   0  0  0  0  0  0  0  0  0  0  0  0
   26.3187  -19.2871  -10.0990 C   0  0  0  0  0  0  0  0  0  0  0  0
   27.1533  -18.7091  -16.3238 N   0  0  0  0  0  0  0  0  0  0  0  0
   27.6539  -17.5801  -15.6013 C   0  0  0  0  0  0  0  0  0  0  0  0
   28.5089  -16.7973  -16.6161 C   0  0  0  0  0  0  0  0  0  0  0  0
   27.6914  -17.0704  -17.8861 C   0  0  0  0  0  0  0  0  0  0  0  0
   27.4702  -18.5502  -17.7404 C   0  0  1  0  0  0  0  0  0  0  0  0
   28.7083  -19.2980  -18.0850 C   0  0  0  0  0  0  0  0  0  0  0  0
   29.3737  -19.8498  -17.1748 O   0  0  0  0  0  0  0  0  0  0  0  0
   29.1265  -19.3877  -19.3928 O   0  0  0  0  0  0  0  0  0  0  0  0
  2  1  1  1
  2  4  1  0
  3  2  1  0
  5  4  1  0
  5  6  1  1
  7  5  1  0
  7  8  2  0
  9 10  1  0
 10 11  2  0
 11 12  1  0
 13 12  2  0
 13 14  1  0
 15 14  1  1
 15 16  1  0
 16  7  1  0
 17 15  1  0
 18 17  2  0
 19 13  1  0
 20 10  1  0
 20 19  2  0
 21 17  1  0
 22 21  1  0
 22 23  1  0
 23 24  1  0
 25 21  1  0
 25 24  1  0
 25 26  1  1
 27 26  2  0
 28 26  1  0
M  END
$$$$
