LYP.pdb
     RDKit          3D

 28 29  0  0  1  0  0  0  0  0999 V2000
   28.7103  -18.4886  -15.5845 C   0  0  0  0  0  0  0  0  0  0  0  0
   27.4349  -19.1729  -16.0211 C   0  0  1  0  0  0  0  0  0  0  0  0
   27.7534  -20.3993  -16.8499 C   0  0  0  0  0  0  0  0  0  0  0  0
   26.5953  -19.6090  -14.8470 C   0  0  0  0  0  0  0  0  0  0  0  0
   27.5395  -20.1090  -13.7744 C   0  0  2  0  0  0  0  0  0  0  0  0
   27.7840  -21.5096  -13.8552 N   0  0  0  0  0  0  0  0  0  0  0  0
   27.0423  -19.7623  -12.4217 C   0  0  0  0  0  0  0  0  0  0  0  0
   26.7273  -18.5878  -12.0945 O   0  0  0  0  0  0  0  0  0  0  0  0
   20.8713  -19.8048  -13.6708 O   0  0  0  0  0  0  0  0  0  0  0  0
   21.8690  -20.1777  -12.7953 C   0  0  0  0  0  0  0  0  0  0  0  0
   22.6338  -21.2908  -13.0557 C   0  0  0  0  0  0  0  0  0  0  0  0
   23.6337  -21.6695  -12.1837 C   0  0  0  0  0  0  0  0  0  0  0  0
   23.9187  -20.9737  -11.0300 C   0  0  0  0  0  0  0  0  0  0  0  0
   24.9852  -21.3744  -10.0961 C   0  0  0  0  0  0  0  0  0  0  0  0
   26.2419  -20.5206  -10.1958 C   0  0  2  0  0  0  0  0  0  0  0  0
   26.9093  -20.7901  -11.4393 N   0  0  0  0  0  0  0  0  0  0  0  0
   27.1454  -20.6633   -9.0581 C   0  0  0  0  0  0  0  0  0  0  0  0
   27.8294  -21.7587   -9.0040 O   0  0  0  0  0  0  0  0  0  0  0  0
   23.1353  -19.8445  -10.7757 C   0  0  0  0  0  0  0  0  0  0  0  0
   22.1375  -19.4675  -11.6468 C   0  0  0  0  0  0  0  0  0  0  0  0
   27.3882  -19.7732   -7.9920 N   0  0  0  0  0  0  0  0  0  0  0  0
   26.8196  -18.4771   -7.7816 C   0  0  0  0  0  0  0  0  0  0  0  0
   27.2521  -18.0717   -6.3596 C   0  0  0  0  0  0  0  0  0  0  0  0
   28.6381  -18.7303   -6.3289 C   0  0  0  0  0  0  0  0  0  0  0  0
   28.2969  -20.0820   -6.8913 C   0  0  1  0  0  0  0  0  0  0  0  0
   27.6118  -20.9140   -5.8671 C   0  0  0  0  0  0  0  0  0  0  0  0
   28.2471  -21.3023   -4.8565 O   0  0  0  0  0  0  0  0  0  0  0  0
   26.2888  -21.2592   -6.0214 O   0  0  0  0  0  0  0  0  0  0  0  0
  2  1  1  1
  2  4  1  0
  3  2  1  0
  5  4  1  0
  5  6  1  1
  7  5  1  0
  7  8  2  0
  9 10  1  0
 10 11  2  0
 11 12  1  0
 13 12  2  0
 13 14  1  0
 15 14  1  1
 15 16  1  0
 16  7  1  0
 17 15  1  0
 18 17  2  0
 19 13  1  0
 20 10  1  0
 20 19  2  0
 21 17  1  0
 22 21  1  0
 22 23  1  0
 23 24  1  0
 25 21  1  0
 25 24  1  0
 25 26  1  1
 27 26  2  0
 28 26  1  0
M  END
$$$$
