LYP.pdb
     RDKit          3D

 28 29  0  0  1  0  0  0  0  0999 V2000
   24.3329  -11.5503  -23.9278 C   0  0  0  0  0  0  0  0  0  0  0  0
   24.1290  -11.5683  -22.4299 C   0  0  1  0  0  0  0  0  0  0  0  0
   25.4387  -11.8508  -21.7244 C   0  0  0  0  0  0  0  0  0  0  0  0
   23.5960  -10.2552  -21.9148 C   0  0  0  0  0  0  0  0  0  0  0  0
   23.4421  -10.3849  -20.4143 C   0  0  2  0  0  0  0  0  0  0  0  0
   22.7422  -11.5624  -20.0251 N   0  0  0  0  0  0  0  0  0  0  0  0
   22.7763   -9.1911  -19.8409 C   0  0  0  0  0  0  0  0  0  0  0  0
   23.2283   -8.0251  -19.9886 O   0  0  0  0  0  0  0  0  0  0  0  0
   16.3563   -3.8304  -17.2199 O   0  0  0  0  0  0  0  0  0  0  0  0
   17.0986   -4.9147  -17.6374 C   0  0  0  0  0  0  0  0  0  0  0  0
   17.1805   -6.0386  -16.8489 C   0  0  0  0  0  0  0  0  0  0  0  0
   17.9216   -7.1270  -17.2608 C   0  0  0  0  0  0  0  0  0  0  0  0
   18.6062   -7.1528  -18.4553 C   0  0  0  0  0  0  0  0  0  0  0  0
   19.3988   -8.3126  -18.8991 C   0  0  0  0  0  0  0  0  0  0  0  0
   20.8820   -8.2042  -18.5729 C   0  0  2  0  0  0  0  0  0  0  0  0
   21.5734   -9.3533  -19.0887 N   0  0  0  0  0  0  0  0  0  0  0  0
   21.1620   -7.9992  -17.1549 C   0  0  0  0  0  0  0  0  0  0  0  0
   21.1865   -9.0601  -16.4170 O   0  0  0  0  0  0  0  0  0  0  0  0
   18.5159   -6.0054  -19.2483 C   0  0  0  0  0  0  0  0  0  0  0  0
   17.7758   -4.9196  -18.8360 C   0  0  0  0  0  0  0  0  0  0  0  0
   21.4131   -6.8001  -16.4573 N   0  0  0  0  0  0  0  0  0  0  0  0
   21.3881   -5.4637  -16.9681 C   0  0  0  0  0  0  0  0  0  0  0  0
   21.4980   -4.5549  -15.7290 C   0  0  0  0  0  0  0  0  0  0  0  0
   22.4150   -5.4309  -14.8644 C   0  0  0  0  0  0  0  0  0  0  0  0
   21.7391   -6.7628  -15.0343 C   0  0  1  0  0  0  0  0  0  0  0  0
   20.5008   -6.8265  -14.2137 C   0  0  0  0  0  0  0  0  0  0  0  0
   19.3821   -6.6908  -14.7667 O   0  0  0  0  0  0  0  0  0  0  0  0
   20.5753   -7.0330  -12.8554 O   0  0  0  0  0  0  0  0  0  0  0  0
  2  1  1  6
  2  4  1  0
  3  2  1  0
  5  4  1  0
  5  6  1  6
  7  5  1  0
  7  8  2  0
  9 10  1  0
 10 11  2  0
 11 12  1  0
 13 12  2  0
 13 14  1  0
 15 14  1  1
 15 16  1  0
 16  7  1  0
 17 15  1  0
 18 17  2  0
 19 13  1  0
 20 10  1  0
 20 19  2  0
 21 17  1  0
 22 21  1  0
 22 23  1  0
 23 24  1  0
 25 21  1  0
 25 24  1  0
 25 26  1  1
 27 26  2  0
 28 26  1  0
M  END
$$$$
