LYP.pdb
     RDKit          3D

 28 29  0  0  1  0  0  0  0  0999 V2000
   20.1057  -21.7300  -16.3614 C   0  0  0  0  0  0  0  0  0  0  0  0
   20.7954  -20.3852  -16.3222 C   0  0  1  0  0  0  0  0  0  0  0  0
   20.1835  -19.4505  -17.3443 C   0  0  0  0  0  0  0  0  0  0  0  0
   20.6855  -19.7313  -14.9680 C   0  0  0  0  0  0  0  0  0  0  0  0
   21.3558  -20.6470  -13.9659 C   0  0  2  0  0  0  0  0  0  0  0  0
   20.6835  -20.6882  -12.7112 N   0  0  0  0  0  0  0  0  0  0  0  0
   22.7750  -20.2697  -13.7641 C   0  0  0  0  0  0  0  0  0  0  0  0
   23.1208  -19.1520  -13.2983 O   0  0  0  0  0  0  0  0  0  0  0  0
   24.4821  -19.9348   -7.5253 O   0  0  0  0  0  0  0  0  0  0  0  0
   24.7921  -20.3763   -8.7941 C   0  0  0  0  0  0  0  0  0  0  0  0
   23.9198  -21.1968   -9.4707 C   0  0  0  0  0  0  0  0  0  0  0  0
   24.2240  -21.6421  -10.7406 C   0  0  0  0  0  0  0  0  0  0  0  0
   25.3891  -21.3007  -11.3903 C   0  0  0  0  0  0  0  0  0  0  0  0
   25.7180  -21.7739  -12.7461 C   0  0  0  0  0  0  0  0  0  0  0  0
   25.1811  -20.8804  -13.8558 C   0  0  2  0  0  0  0  0  0  0  0  0
   23.8028  -21.2000  -14.1064 N   0  0  0  0  0  0  0  0  0  0  0  0
   25.9738  -20.9182  -15.0811 C   0  0  0  0  0  0  0  0  0  0  0  0
   25.6575  -21.8313  -15.9396 O   0  0  0  0  0  0  0  0  0  0  0  0
   26.2678  -20.4667  -10.6934 C   0  0  0  0  0  0  0  0  0  0  0  0
   25.9631  -20.0228   -9.4258 C   0  0  0  0  0  0  0  0  0  0  0  0
   27.0497  -20.0971  -15.4756 N   0  0  0  0  0  0  0  0  0  0  0  0
   27.7242  -19.0996  -14.7026 C   0  0  0  0  0  0  0  0  0  0  0  0
   28.9512  -18.6977  -15.5432 C   0  0  0  0  0  0  0  0  0  0  0  0
   28.3434  -18.8394  -16.9455 C   0  0  0  0  0  0  0  0  0  0  0  0
   27.6603  -20.1706  -16.8002 C   0  0  1  0  0  0  0  0  0  0  0  0
   28.6547  -21.2747  -16.8555 C   0  0  0  0  0  0  0  0  0  0  0  0
   28.9488  -21.8982  -15.8065 O   0  0  0  0  0  0  0  0  0  0  0  0
   29.2519  -21.6150  -18.0475 O   0  0  0  0  0  0  0  0  0  0  0  0
  2  1  1  1
  2  4  1  0
  3  2  1  0
  5  4  1  0
  5  6  1  1
  7  5  1  0
  7  8  2  0
  9 10  1  0
 10 11  2  0
 11 12  1  0
 13 12  2  0
 13 14  1  0
 15 14  1  1
 15 16  1  0
 16  7  1  0
 17 15  1  0
 18 17  2  0
 19 13  1  0
 20 10  1  0
 20 19  2  0
 21 17  1  0
 22 21  1  0
 22 23  1  0
 23 24  1  0
 25 21  1  0
 25 24  1  0
 25 26  1  1
 27 26  2  0
 28 26  1  0
M  END
$$$$
