LYP.pdb
     RDKit          3D

 28 29  0  0  1  0  0  0  0  0999 V2000
   21.3509  -13.3643  -18.5592 C   0  0  0  0  0  0  0  0  0  0  0  0
   21.5016  -14.8686  -18.5558 C   0  0  1  0  0  0  0  0  0  0  0  0
   21.7330  -15.3770  -19.9631 C   0  0  0  0  0  0  0  0  0  0  0  0
   22.6588  -15.3202  -17.7010 C   0  0  0  0  0  0  0  0  0  0  0  0
   22.7442  -16.8276  -17.8119 C   0  0  2  0  0  0  0  0  0  0  0  0
   21.4794  -17.4690  -17.6816 N   0  0  0  0  0  0  0  0  0  0  0  0
   23.6945  -17.3828  -16.8190 C   0  0  0  0  0  0  0  0  0  0  0  0
   24.8696  -16.9497  -16.6879 O   0  0  0  0  0  0  0  0  0  0  0  0
   26.6354  -21.5610   -9.6249 O   0  0  0  0  0  0  0  0  0  0  0  0
   25.8464  -21.0633  -10.6402 C   0  0  0  0  0  0  0  0  0  0  0  0
   25.4280  -21.8904  -11.6564 C   0  0  0  0  0  0  0  0  0  0  0  0
   24.6384  -21.3987  -12.6754 C   0  0  0  0  0  0  0  0  0  0  0  0
   24.2324  -20.0842  -12.7348 C   0  0  0  0  0  0  0  0  0  0  0  0
   23.3895  -19.5549  -13.8209 C   0  0  0  0  0  0  0  0  0  0  0  0
   24.1804  -19.0009  -14.9980 C   0  0  2  0  0  0  0  0  0  0  0  0
   23.2757  -18.4518  -15.9699 N   0  0  0  0  0  0  0  0  0  0  0  0
   25.0971  -19.9644  -15.6001 C   0  0  0  0  0  0  0  0  0  0  0  0
   24.5748  -20.8170  -16.4192 O   0  0  0  0  0  0  0  0  0  0  0  0
   24.6634  -19.2531  -11.6971 C   0  0  0  0  0  0  0  0  0  0  0  0
   25.4515  -19.7450  -10.6805 C   0  0  0  0  0  0  0  0  0  0  0  0
   26.4880  -20.1083  -15.4200 N   0  0  0  0  0  0  0  0  0  0  0  0
   27.3330  -19.4078  -14.5020 C   0  0  0  0  0  0  0  0  0  0  0  0
   28.6923  -20.1296  -14.5721 C   0  0  0  0  0  0  0  0  0  0  0  0
   28.6891  -20.5124  -16.0584 C   0  0  0  0  0  0  0  0  0  0  0  0
   27.2935  -21.0567  -16.1844 C   0  0  1  0  0  0  0  0  0  0  0  0
   27.2085  -22.4149  -15.5854 C   0  0  0  0  0  0  0  0  0  0  0  0
   26.6602  -22.5664  -14.4663 O   0  0  0  0  0  0  0  0  0  0  0  0
   27.7263  -23.5028  -16.2498 O   0  0  0  0  0  0  0  0  0  0  0  0
  2  1  1  6
  2  4  1  0
  3  2  1  0
  5  4  1  0
  5  6  1  1
  7  5  1  0
  7  8  2  0
  9 10  1  0
 10 11  2  0
 11 12  1  0
 13 12  2  0
 13 14  1  0
 15 14  1  1
 15 16  1  0
 16  7  1  0
 17 15  1  0
 18 17  2  0
 19 13  1  0
 20 10  1  0
 20 19  2  0
 21 17  1  0
 22 21  1  0
 22 23  1  0
 23 24  1  0
 25 21  1  0
 25 24  1  0
 25 26  1  1
 27 26  2  0
 28 26  1  0
M  END
$$$$
