LYP.pdb
     RDKit          3D

 28 29  0  0  1  0  0  0  0  0999 V2000
   19.3860  -18.2513   -0.1771 C   0  0  0  0  0  0  0  0  0  0  0  0
   18.3549  -18.4392    0.9124 C   0  0  1  0  0  0  0  0  0  0  0  0
   18.1278  -19.9134    1.1728 C   0  0  0  0  0  0  0  0  0  0  0  0
   18.7773  -17.7965    2.2093 C   0  0  0  0  0  0  0  0  0  0  0  0
   17.8050  -18.2488    3.2780 C   0  0  2  0  0  0  0  0  0  0  0  0
   16.4638  -17.8469    3.0180 N   0  0  0  0  0  0  0  0  0  0  0  0
   18.2231  -17.7700    4.6171 C   0  0  0  0  0  0  0  0  0  0  0  0
   19.3860  -17.9441    5.0679 O   0  0  0  0  0  0  0  0  0  0  0  0
   20.2865  -10.9440    5.4134 O   0  0  0  0  0  0  0  0  0  0  0  0
   19.4923  -12.0020    5.8019 C   0  0  0  0  0  0  0  0  0  0  0  0
   19.5963  -12.5106    7.0756 C   0  0  0  0  0  0  0  0  0  0  0  0
   18.8046  -13.5692    7.4706 C   0  0  0  0  0  0  0  0  0  0  0  0
   17.8864  -14.1648    6.6349 C   0  0  0  0  0  0  0  0  0  0  0  0
   17.0390  -15.2954    7.0524 C   0  0  0  0  0  0  0  0  0  0  0  0
   17.6495  -16.6600    6.7640 C   0  0  2  0  0  0  0  0  0  0  0  0
   17.2812  -17.0819    5.4408 N   0  0  0  0  0  0  0  0  0  0  0  0
   17.3263  -17.6752    7.7621 C   0  0  0  0  0  0  0  0  0  0  0  0
   16.2828  -18.3999    7.5244 O   0  0  0  0  0  0  0  0  0  0  0  0
   17.7893  -13.6399    5.3433 C   0  0  0  0  0  0  0  0  0  0  0  0
   18.5801  -12.5832    4.9501 C   0  0  0  0  0  0  0  0  0  0  0  0
   17.9903  -17.9892    8.9655 N   0  0  0  0  0  0  0  0  0  0  0  0
   19.1579  -17.3694    9.5132 C   0  0  0  0  0  0  0  0  0  0  0  0
   19.2919  -17.9456   10.9358 C   0  0  0  0  0  0  0  0  0  0  0  0
   18.7666  -19.3639   10.6752 C   0  0  0  0  0  0  0  0  0  0  0  0
   17.5385  -19.0431    9.8697 C   0  0  1  0  0  0  0  0  0  0  0  0
   16.4527  -18.5422   10.7534 C   0  0  0  0  0  0  0  0  0  0  0  0
   15.8647  -19.3377   11.5262 O   0  0  0  0  0  0  0  0  0  0  0  0
   16.0905  -17.2150   10.7279 O   0  0  0  0  0  0  0  0  0  0  0  0
  2  1  1  6
  2  4  1  0
  3  2  1  0
  5  4  1  0
  5  6  1  6
  7  5  1  0
  7  8  2  0
  9 10  1  0
 10 11  2  0
 11 12  1  0
 13 12  2  0
 13 14  1  0
 15 14  1  1
 15 16  1  0
 16  7  1  0
 17 15  1  0
 18 17  2  0
 19 13  1  0
 20 10  1  0
 20 19  2  0
 21 17  1  0
 22 21  1  0
 22 23  1  0
 23 24  1  0
 25 21  1  0
 25 24  1  0
 25 26  1  1
 27 26  2  0
 28 26  1  0
M  END
$$$$
