LYP.pdb
     RDKit          3D

 28 29  0  0  1  0  0  0  0  0999 V2000
   15.2876  -16.7016    4.6685 C   0  0  0  0  0  0  0  0  0  0  0  0
   15.2903  -17.3642    3.3096 C   0  0  1  0  0  0  0  0  0  0  0  0
   16.7079  -17.5073    2.7972 C   0  0  0  0  0  0  0  0  0  0  0  0
   14.6676  -18.7369    3.3473 C   0  0  0  0  0  0  0  0  0  0  0  0
   14.2449  -19.0828    1.9354 C   0  0  2  0  0  0  0  0  0  0  0  0
   13.1219  -18.3296    1.4889 N   0  0  0  0  0  0  0  0  0  0  0  0
   13.9638  -20.5321    1.8022 C   0  0  0  0  0  0  0  0  0  0  0  0
   12.8431  -21.0346    2.0798 O   0  0  0  0  0  0  0  0  0  0  0  0
   11.5412  -22.5470   -4.2394 O   0  0  0  0  0  0  0  0  0  0  0  0
   12.4332  -22.7564   -3.2092 C   0  0  0  0  0  0  0  0  0  0  0  0
   13.7160  -22.2683   -3.2984 C   0  0  0  0  0  0  0  0  0  0  0  0
   14.6136  -22.4744   -2.2710 C   0  0  0  0  0  0  0  0  0  0  0  0
   14.2874  -23.1634   -1.1242 C   0  0  0  0  0  0  0  0  0  0  0  0
   15.2426  -23.3860   -0.0248 C   0  0  0  0  0  0  0  0  0  0  0  0
   14.7799  -22.8268    1.3135 C   0  0  2  0  0  0  0  0  0  0  0  0
   14.9947  -21.4064    1.3417 N   0  0  0  0  0  0  0  0  0  0  0  0
   15.3818  -23.4851    2.4692 C   0  0  0  0  0  0  0  0  0  0  0  0
   16.5705  -23.0959    2.7950 O   0  0  0  0  0  0  0  0  0  0  0  0
   12.9815  -23.6548   -1.0446 C   0  0  0  0  0  0  0  0  0  0  0  0
   12.0864  -23.4484   -2.0707 C   0  0  0  0  0  0  0  0  0  0  0  0
   14.8545  -24.4977    3.2964 N   0  0  0  0  0  0  0  0  0  0  0  0
   13.5508  -25.0852    3.2451 C   0  0  0  0  0  0  0  0  0  0  0  0
   13.6097  -26.2852    4.2094 C   0  0  0  0  0  0  0  0  0  0  0  0
   14.5605  -25.7039    5.2648 C   0  0  0  0  0  0  0  0  0  0  0  0
   15.6205  -25.1249    4.3699 C   0  0  1  0  0  0  0  0  0  0  0  0
   16.4906  -26.2025    3.8290 C   0  0  0  0  0  0  0  0  0  0  0  0
   17.2076  -26.8728    4.6115 O   0  0  0  0  0  0  0  0  0  0  0  0
   16.5132  -26.4676    2.4789 O   0  0  0  0  0  0  0  0  0  0  0  0
  2  1  1  1
  2  4  1  0
  3  2  1  0
  5  4  1  0
  5  6  1  1
  7  5  1  0
  7  8  2  0
  9 10  1  0
 10 11  2  0
 11 12  1  0
 13 12  2  0
 13 14  1  0
 15 14  1  6
 15 16  1  0
 16  7  1  0
 17 15  1  0
 18 17  2  0
 19 13  1  0
 20 10  1  0
 20 19  2  0
 21 17  1  0
 22 21  1  0
 22 23  1  0
 23 24  1  0
 25 21  1  0
 25 24  1  0
 25 26  1  6
 27 26  2  0
 28 26  1  0
M  END
$$$$
