LYP.pdb
     RDKit          3D

 28 29  0  0  1  0  0  0  0  0999 V2000
   19.1255  -19.5798  -17.1674 C   0  0  0  0  0  0  0  0  0  0  0  0
   19.5588  -20.3254  -15.9256 C   0  0  1  0  0  0  0  0  0  0  0  0
   20.2089  -21.6401  -16.3017 C   0  0  0  0  0  0  0  0  0  0  0  0
   20.5467  -19.5346  -15.1056 C   0  0  0  0  0  0  0  0  0  0  0  0
   21.0402  -20.4371  -13.9949 C   0  0  2  0  0  0  0  0  0  0  0  0
   20.2318  -20.3740  -12.8242 N   0  0  0  0  0  0  0  0  0  0  0  0
   22.4500  -20.1366  -13.6496 C   0  0  0  0  0  0  0  0  0  0  0  0
   22.7954  -19.0731  -13.0706 O   0  0  0  0  0  0  0  0  0  0  0  0
   25.0302  -19.8084   -7.2772 O   0  0  0  0  0  0  0  0  0  0  0  0
   25.1053  -20.2925   -8.5660 C   0  0  0  0  0  0  0  0  0  0  0  0
   24.0151  -20.9078   -9.1357 C   0  0  0  0  0  0  0  0  0  0  0  0
   24.0835  -21.3944  -10.4249 C   0  0  0  0  0  0  0  0  0  0  0  0
   25.2183  -21.2958  -11.1987 C   0  0  0  0  0  0  0  0  0  0  0  0
   25.2960  -21.8141  -12.5756 C   0  0  0  0  0  0  0  0  0  0  0  0
   24.8385  -20.8190  -13.6332 C   0  0  2  0  0  0  0  0  0  0  0  0
   23.4689  -21.0810  -13.9800 N   0  0  0  0  0  0  0  0  0  0  0  0
   25.6943  -20.7771  -14.8151 C   0  0  0  0  0  0  0  0  0  0  0  0
   25.4031  -21.6066  -15.7626 O   0  0  0  0  0  0  0  0  0  0  0  0
   26.3197  -20.6689  -10.6097 C   0  0  0  0  0  0  0  0  0  0  0  0
   26.2502  -20.1835   -9.3227 C   0  0  0  0  0  0  0  0  0  0  0  0
   26.8087  -19.9561  -15.0834 N   0  0  0  0  0  0  0  0  0  0  0  0
   27.4688  -19.0510  -14.1933 C   0  0  0  0  0  0  0  0  0  0  0  0
   28.7455  -18.6125  -14.9358 C   0  0  0  0  0  0  0  0  0  0  0  0
   28.2045  -18.6120  -16.3721 C   0  0  0  0  0  0  0  0  0  0  0  0
   27.4820  -19.9303  -16.3790 C   0  0  1  0  0  0  0  0  0  0  0  0
   28.4500  -21.0538  -16.4862 C   0  0  0  0  0  0  0  0  0  0  0  0
   29.0213  -21.2784  -17.5812 O   0  0  0  0  0  0  0  0  0  0  0  0
   28.7215  -21.8458  -15.3943 O   0  0  0  0  0  0  0  0  0  0  0  0
  2  1  1  6
  2  4  1  0
  3  2  1  0
  5  4  1  0
  5  6  1  1
  7  5  1  0
  7  8  2  0
  9 10  1  0
 10 11  2  0
 11 12  1  0
 13 12  2  0
 13 14  1  0
 15 14  1  1
 15 16  1  0
 16  7  1  0
 17 15  1  0
 18 17  2  0
 19 13  1  0
 20 10  1  0
 20 19  2  0
 21 17  1  0
 22 21  1  0
 22 23  1  0
 23 24  1  0
 25 21  1  0
 25 24  1  0
 25 26  1  1
 27 26  2  0
 28 26  1  0
M  END
$$$$
