LYP.pdb
     RDKit          3D

 28 29  0  0  1  0  0  0  0  0999 V2000
   20.2962  -18.6215  -14.7976 C   0  0  0  0  0  0  0  0  0  0  0  0
   21.1092  -19.7639  -14.2323 C   0  0  1  0  0  0  0  0  0  0  0  0
   21.1909  -20.8969  -15.2335 C   0  0  0  0  0  0  0  0  0  0  0  0
   22.5157  -19.3429  -13.8890 C   0  0  0  0  0  0  0  0  0  0  0  0
   23.2222  -20.5497  -13.3090 C   0  0  2  0  0  0  0  0  0  0  0  0
   22.3438  -21.4304  -12.6158 N   0  0  0  0  0  0  0  0  0  0  0  0
   24.3322  -20.1403  -12.4160 C   0  0  0  0  0  0  0  0  0  0  0  0
   25.1808  -19.2693  -12.7431 O   0  0  0  0  0  0  0  0  0  0  0  0
   29.1979  -18.9847   -5.1646 O   0  0  0  0  0  0  0  0  0  0  0  0
   28.2141  -19.3544   -6.0571 C   0  0  0  0  0  0  0  0  0  0  0  0
   27.8668  -20.6785   -6.1904 C   0  0  0  0  0  0  0  0  0  0  0  0
   26.8832  -21.0552   -7.0816 C   0  0  0  0  0  0  0  0  0  0  0  0
   26.2076  -20.1513   -7.8708 C   0  0  0  0  0  0  0  0  0  0  0  0
   25.1568  -20.5489   -8.8238 C   0  0  0  0  0  0  0  0  0  0  0  0
   25.5730  -20.4270  -10.2832 C   0  0  2  0  0  0  0  0  0  0  0  0
   24.4576  -20.7485  -11.1301 N   0  0  0  0  0  0  0  0  0  0  0  0
   26.7546  -21.2116  -10.6286 C   0  0  0  0  0  0  0  0  0  0  0  0
   26.5875  -22.4903  -10.7154 O   0  0  0  0  0  0  0  0  0  0  0  0
   26.5688  -18.8088   -7.7269 C   0  0  0  0  0  0  0  0  0  0  0  0
   27.5507  -18.4340   -6.8370 C   0  0  0  0  0  0  0  0  0  0  0  0
   28.0716  -20.7787  -10.8851 N   0  0  0  0  0  0  0  0  0  0  0  0
   28.5886  -19.4463  -10.8159 C   0  0  0  0  0  0  0  0  0  0  0  0
   30.1153  -19.5970  -10.9578 C   0  0  0  0  0  0  0  0  0  0  0  0
   30.1542  -20.7892  -11.9236 C   0  0  0  0  0  0  0  0  0  0  0  0
   29.1470  -21.6905  -11.2658 C   0  0  1  0  0  0  0  0  0  0  0  0
   29.7341  -22.3361  -10.0619 C   0  0  0  0  0  0  0  0  0  0  0  0
   29.3283  -22.0064   -8.9207 O   0  0  0  0  0  0  0  0  0  0  0  0
   30.7169  -23.2901  -10.1926 O   0  0  0  0  0  0  0  0  0  0  0  0
  2  1  1  6
  2  4  1  0
  3  2  1  0
  5  4  1  0
  5  6  1  1
  7  5  1  0
  7  8  2  0
  9 10  1  0
 10 11  2  0
 11 12  1  0
 13 12  2  0
 13 14  1  0
 15 14  1  1
 15 16  1  0
 16  7  1  0
 17 15  1  0
 18 17  2  0
 19 13  1  0
 20 10  1  0
 20 19  2  0
 21 17  1  0
 22 21  1  0
 22 23  1  0
 23 24  1  0
 25 21  1  0
 25 24  1  0
 25 26  1  1
 27 26  2  0
 28 26  1  0
M  END
$$$$
