TFH.pdb
     RDKit          3D

 29 30  0  0  1  0  0  0  0  0999 V2000
   46.4336  -11.3386   -5.0440 C   0  0  0  0  0  0  0  0  0  0  0  0
   45.2066  -10.7628   -5.7312 C   0  0  1  0  0  0  0  0  0  0  0  0
   45.4831   -9.4848   -6.2363 O   0  0  0  0  0  0  0  0  0  0  0  0
   44.9074  -11.6647   -6.9074 C   0  0  2  0  0  0  0  0  0  0  0  0
   46.0382  -11.7279   -7.8054 N   0  0  0  0  0  0  0  0  0  0  0  0
   43.7193  -11.2372   -7.6630 C   0  0  0  0  0  0  0  0  0  0  0  0
   43.8675  -10.5653   -8.7118 O   0  0  0  0  0  0  0  0  0  0  0  0
   42.3876  -11.5393   -7.2784 N   0  0  0  0  0  0  0  0  0  0  0  0
   41.2161  -10.9554   -7.9154 C   0  0  1  0  0  0  0  0  0  0  0  0
   40.0872  -11.9238   -7.8187 C   0  0  0  0  0  0  0  0  0  0  0  0
   38.7788  -11.4180   -8.2196 C   0  0  0  0  0  0  0  0  0  0  0  0
   37.8917  -10.9426   -7.3033 C   0  0  0  0  0  0  0  0  0  0  0  0
   36.6677  -10.4744   -7.7233 C   0  0  0  0  0  0  0  0  0  0  0  0
   36.2895  -10.4633   -9.0499 C   0  0  0  0  0  0  0  0  0  0  0  0
   37.2233  -10.9556   -9.9422 C   0  0  0  0  0  0  0  0  0  0  0  0
   38.4497  -11.4280   -9.5514 C   0  0  0  0  0  0  0  0  0  0  0  0
   40.9303   -9.6056   -7.4217 C   0  0  0  0  0  0  0  0  0  0  0  0
   40.8793   -9.4196   -6.1828 O   0  0  0  0  0  0  0  0  0  0  0  0
   40.7068   -8.4903   -8.2854 N   0  0  0  0  0  0  0  0  0  0  0  0
   40.3546   -7.1659   -7.7765 C   0  0  1  0  0  0  0  0  0  0  0  0
   41.6318   -6.5684   -7.2542 C   0  0  0  0  0  0  0  0  0  0  0  0
   41.4548   -5.1773   -6.7669 C   0  0  0  0  0  0  0  0  0  0  0  0
   40.4800   -4.6951   -5.9249 C   0  0  0  0  0  0  0  0  0  0  0  0
   40.7183   -3.3674   -5.7653 N   0  0  0  0  0  0  0  0  0  0  0  0
   41.8078   -3.0766   -6.4969 C   0  0  0  0  0  0  0  0  0  0  0  0
   42.2728   -4.1676   -7.1163 N   0  0  0  0  0  0  0  0  0  0  0  0
   39.7966   -6.3493   -8.8641 C   0  0  0  0  0  0  0  0  0  0  0  0
   39.8077   -6.7166  -10.0617 O   0  0  0  0  0  0  0  0  0  0  0  0
   39.2257   -5.1108   -8.5787 O   0  0  0  0  0  0  0  0  0  0  0  0
  2  1  1  6
  2  3  1  0
  4  5  1  6
  4  2  1  0
  6  4  1  0
  7  6  2  0
  8  6  1  0
  9  8  1  0
  9 10  1  1
 10 11  1  0
 11 16  1  0
 12 11  2  0
 12 13  1  0
 13 14  2  0
 14 15  1  0
 16 15  2  0
 17 18  2  0
 17  9  1  0
 19 17  1  0
 20 19  1  0
 21 22  1  0
 20 21  1  6
 22 23  2  0
 24 23  1  0
 25 24  1  0
 26 25  2  0
 26 22  1  0
 27 29  1  0
 27 20  1  0
 28 27  2  0
M  END
$$$$
