TFH.pdb
     RDKit          3D

 29 30  0  0  1  0  0  0  0  0999 V2000
   27.3180  -19.9164  -17.8095 C   0  0  0  0  0  0  0  0  0  0  0  0
   27.8536  -21.2861  -18.1921 C   0  0  1  0  0  0  0  0  0  0  0  0
   28.8553  -21.1656  -19.1652 O   0  0  0  0  0  0  0  0  0  0  0  0
   28.4911  -21.8630  -16.9483 C   0  0  2  0  0  0  0  0  0  0  0  0
   28.9890  -23.1966  -17.1990 N   0  0  0  0  0  0  0  0  0  0  0  0
   27.5675  -21.9041  -15.8036 C   0  0  0  0  0  0  0  0  0  0  0  0
   26.6507  -22.7600  -15.7847 O   0  0  0  0  0  0  0  0  0  0  0  0
   27.6439  -21.0226  -14.6948 N   0  0  0  0  0  0  0  0  0  0  0  0
   26.7086  -21.0524  -13.5797 C   0  0  1  0  0  0  0  0  0  0  0  0
   27.3707  -20.4562  -12.3848 C   0  0  0  0  0  0  0  0  0  0  0  0
   26.5865  -20.4604  -11.1545 C   0  0  0  0  0  0  0  0  0  0  0  0
   26.7909  -21.3958  -10.1870 C   0  0  0  0  0  0  0  0  0  0  0  0
   26.0294  -21.3643   -9.0412 C   0  0  0  0  0  0  0  0  0  0  0  0
   25.0528  -20.4152   -8.8215 C   0  0  0  0  0  0  0  0  0  0  0  0
   24.8824  -19.4873   -9.8316 C   0  0  0  0  0  0  0  0  0  0  0  0
   25.6267  -19.4952  -10.9830 C   0  0  0  0  0  0  0  0  0  0  0  0
   25.4078  -20.4763  -13.9304 C   0  0  0  0  0  0  0  0  0  0  0  0
   25.3829  -19.3819  -14.5417 O   0  0  0  0  0  0  0  0  0  0  0  0
   24.1651  -21.1026  -13.6087 N   0  0  0  0  0  0  0  0  0  0  0  0
   22.8775  -20.5293  -13.9963 C   0  0  1  0  0  0  0  0  0  0  0  0
   22.7798  -20.6975  -15.4873 C   0  0  0  0  0  0  0  0  0  0  0  0
   21.4889  -20.2090  -16.0344 C   0  0  0  0  0  0  0  0  0  0  0  0
   20.8272  -19.0439  -15.7243 C   0  0  0  0  0  0  0  0  0  0  0  0
   19.6901  -19.0265  -16.4671 N   0  0  0  0  0  0  0  0  0  0  0  0
   19.6842  -20.1556  -17.1965 C   0  0  0  0  0  0  0  0  0  0  0  0
   20.7735  -20.8914  -16.9472 N   0  0  0  0  0  0  0  0  0  0  0  0
   21.7904  -21.2448  -13.3127 C   0  0  0  0  0  0  0  0  0  0  0  0
   20.6963  -20.7043  -13.0293 O   0  0  0  0  0  0  0  0  0  0  0  0
   21.9575  -22.5806  -12.9536 O   0  0  0  0  0  0  0  0  0  0  0  0
  2  1  1  1
  2  3  1  0
  4  5  1  6
  4  2  1  0
  6  4  1  0
  7  6  2  0
  8  6  1  0
  9  8  1  0
  9 10  1  1
 10 11  1  0
 11 16  1  0
 12 11  2  0
 12 13  1  0
 13 14  2  0
 14 15  1  0
 16 15  2  0
 17 18  2  0
 17  9  1  0
 19 17  1  0
 20 19  1  0
 21 22  1  0
 20 21  1  6
 22 23  2  0
 24 23  1  0
 25 24  1  0
 26 25  2  0
 26 22  1  0
 27 29  1  0
 27 20  1  0
 28 27  2  0
M  END
$$$$
