TFH.pdb
     RDKit          3D

 29 30  0  0  1  0  0  0  0  0999 V2000
   20.8722  -12.9221  -20.1565 C   0  0  0  0  0  0  0  0  0  0  0  0
   20.9552  -14.4025  -19.8236 C   0  0  1  0  0  0  0  0  0  0  0  0
   20.9297  -15.1701  -20.9962 O   0  0  0  0  0  0  0  0  0  0  0  0
   22.2973  -14.6217  -19.1625 C   0  0  2  0  0  0  0  0  0  0  0  0
   22.5195  -16.0268  -18.9072 N   0  0  0  0  0  0  0  0  0  0  0  0
   22.4369  -13.8778  -17.9006 C   0  0  0  0  0  0  0  0  0  0  0  0
   21.8406  -14.2887  -16.8764 O   0  0  0  0  0  0  0  0  0  0  0  0
   23.2170  -12.7014  -17.7592 N   0  0  0  0  0  0  0  0  0  0  0  0
   23.3652  -11.9830  -16.5018 C   0  0  1  0  0  0  0  0  0  0  0  0
   24.8116  -11.9379  -16.1449 C   0  0  0  0  0  0  0  0  0  0  0  0
   25.4515  -13.2292  -15.9174 C   0  0  0  0  0  0  0  0  0  0  0  0
   26.2627  -13.7930  -16.8537 C   0  0  0  0  0  0  0  0  0  0  0  0
   26.8469  -15.0127  -16.5994 C   0  0  0  0  0  0  0  0  0  0  0  0
   26.6471  -15.7036  -15.4222 C   0  0  0  0  0  0  0  0  0  0  0  0
   25.8162  -15.0913  -14.5030 C   0  0  0  0  0  0  0  0  0  0  0  0
   25.2213  -13.8770  -14.7301 C   0  0  0  0  0  0  0  0  0  0  0  0
   22.6814  -10.6871  -16.5187 C   0  0  0  0  0  0  0  0  0  0  0  0
   22.9204   -9.8963  -17.4619 O   0  0  0  0  0  0  0  0  0  0  0  0
   21.7543  -10.2812  -15.5108 N   0  0  0  0  0  0  0  0  0  0  0  0
   21.0302   -9.0132  -15.5800 C   0  0  1  0  0  0  0  0  0  0  0  0
   19.7116   -9.2500  -14.8972 C   0  0  0  0  0  0  0  0  0  0  0  0
   18.7523   -9.9964  -15.7498 C   0  0  0  0  0  0  0  0  0  0  0  0
   18.9147  -10.3916  -17.0570 C   0  0  0  0  0  0  0  0  0  0  0  0
   17.7761  -11.0386  -17.4178 N   0  0  0  0  0  0  0  0  0  0  0  0
   16.9638  -11.0235  -16.3469 C   0  0  0  0  0  0  0  0  0  0  0  0
   17.5408  -10.3921  -15.3181 N   0  0  0  0  0  0  0  0  0  0  0  0
   21.7989   -7.9654  -14.8929 C   0  0  0  0  0  0  0  0  0  0  0  0
   22.7401   -8.2206  -14.1064 O   0  0  0  0  0  0  0  0  0  0  0  0
   21.4887   -6.6241  -15.1075 O   0  0  0  0  0  0  0  0  0  0  0  0
  2  1  1  6
  2  3  1  0
  4  5  1  1
  4  2  1  0
  6  4  1  0
  7  6  2  0
  8  6  1  0
  9  8  1  0
  9 10  1  6
 10 11  1  0
 11 16  1  0
 12 11  2  0
 12 13  1  0
 13 14  2  0
 14 15  1  0
 16 15  2  0
 17 18  2  0
 17  9  1  0
 19 17  1  0
 20 19  1  0
 21 22  1  0
 20 21  1  1
 22 23  2  0
 24 23  1  0
 25 24  1  0
 26 25  2  0
 26 22  1  0
 27 29  1  0
 27 20  1  0
 28 27  2  0
M  END
$$$$
