TFH.pdb
     RDKit          3D

 29 30  0  0  1  0  0  0  0  0999 V2000
   25.8635  -19.4246  -14.6699 C   0  0  0  0  0  0  0  0  0  0  0  0
   25.5473  -19.8162  -13.2360 C   0  0  1  0  0  0  0  0  0  0  0  0
   24.3520  -20.5461  -13.1802 O   0  0  0  0  0  0  0  0  0  0  0  0
   26.6631  -20.7303  -12.7822 C   0  0  2  0  0  0  0  0  0  0  0  0
   26.6508  -21.9656  -13.5325 N   0  0  0  0  0  0  0  0  0  0  0  0
   26.5932  -21.0418  -11.3458 C   0  0  0  0  0  0  0  0  0  0  0  0
   26.0764  -22.1234  -10.9765 O   0  0  0  0  0  0  0  0  0  0  0  0
   27.0810  -20.1839  -10.3268 N   0  0  0  0  0  0  0  0  0  0  0  0
   26.9545  -20.4728   -8.9056 C   0  0  1  0  0  0  0  0  0  0  0  0
   28.0051  -19.7147   -8.1687 C   0  0  0  0  0  0  0  0  0  0  0  0
   28.0442  -19.9212   -6.7249 C   0  0  0  0  0  0  0  0  0  0  0  0
   28.4706  -21.0973   -6.1885 C   0  0  0  0  0  0  0  0  0  0  0  0
   28.4919  -21.2512   -4.8212 C   0  0  0  0  0  0  0  0  0  0  0  0
   28.0957  -20.2550   -3.9531 C   0  0  0  0  0  0  0  0  0  0  0  0
   27.6712  -19.0801   -4.5445 C   0  0  0  0  0  0  0  0  0  0  0  0
   27.6397  -18.8997   -5.9033 C   0  0  0  0  0  0  0  0  0  0  0  0
   25.5851  -20.2828   -8.4200 C   0  0  0  0  0  0  0  0  0  0  0  0
   25.0363  -19.1695   -8.5969 O   0  0  0  0  0  0  0  0  0  0  0  0
   24.8447  -21.3066   -7.7540 N   0  0  0  0  0  0  0  0  0  0  0  0
   23.4968  -21.0838   -7.2340 C   0  0  1  0  0  0  0  0  0  0  0  0
   22.5923  -21.9903   -8.0221 C   0  0  0  0  0  0  0  0  0  0  0  0
   22.2048  -21.4119   -9.3334 C   0  0  0  0  0  0  0  0  0  0  0  0
   22.5421  -20.1811   -9.8462 C   0  0  0  0  0  0  0  0  0  0  0  0
   21.9576  -20.0897  -11.0690 N   0  0  0  0  0  0  0  0  0  0  0  0
   21.2922  -21.2404  -11.2694 C   0  0  0  0  0  0  0  0  0  0  0  0
   21.4303  -22.0611  -10.2218 N   0  0  0  0  0  0  0  0  0  0  0  0
   23.4570  -21.4145   -5.8022 C   0  0  0  0  0  0  0  0  0  0  0  0
   24.4028  -21.9860   -5.2120 O   0  0  0  0  0  0  0  0  0  0  0  0
   22.3324  -21.0899   -5.0464 O   0  0  0  0  0  0  0  0  0  0  0  0
  2  1  1  6
  2  3  1  0
  4  5  1  6
  4  2  1  0
  6  4  1  0
  7  6  2  0
  8  6  1  0
  9  8  1  0
  9 10  1  1
 10 11  1  0
 11 16  1  0
 12 11  2  0
 12 13  1  0
 13 14  2  0
 14 15  1  0
 16 15  2  0
 17 18  2  0
 17  9  1  0
 19 17  1  0
 20 19  1  0
 21 22  1  0
 20 21  1  6
 22 23  2  0
 24 23  1  0
 25 24  1  0
 26 25  2  0
 26 22  1  0
 27 29  1  0
 27 20  1  0
 28 27  2  0
M  END
$$$$
