TFH.pdb
     RDKit          3D

 29 30  0  0  1  0  0  0  0  0999 V2000
   21.0826  -12.5766  -18.9077 C   0  0  0  0  0  0  0  0  0  0  0  0
   21.3323  -13.7131  -17.9303 C   0  0  1  0  0  0  0  0  0  0  0  0
   21.1081  -14.9501  -18.5504 O   0  0  0  0  0  0  0  0  0  0  0  0
   22.7960  -13.6474  -17.5567 C   0  0  2  0  0  0  0  0  0  0  0  0
   23.1509  -14.7406  -16.6803 N   0  0  0  0  0  0  0  0  0  0  0  0
   23.1603  -12.3772  -16.9094 C   0  0  0  0  0  0  0  0  0  0  0  0
   22.9046  -12.2126  -15.6925 O   0  0  0  0  0  0  0  0  0  0  0  0
   23.7952  -11.3015  -17.5818 N   0  0  0  0  0  0  0  0  0  0  0  0
   24.0939  -10.0244  -16.9502 C   0  0  1  0  0  0  0  0  0  0  0  0
   25.5451   -9.7329  -17.1246 C   0  0  0  0  0  0  0  0  0  0  0  0
   26.4637  -10.6748  -16.4938 C   0  0  0  0  0  0  0  0  0  0  0  0
   26.6520  -10.6860  -15.1459 C   0  0  0  0  0  0  0  0  0  0  0  0
   27.5278  -11.5908  -14.5907 C   0  0  0  0  0  0  0  0  0  0  0  0
   28.2360  -12.5022  -15.3463 C   0  0  0  0  0  0  0  0  0  0  0  0
   28.0113  -12.4522  -16.7092 C   0  0  0  0  0  0  0  0  0  0  0  0
   27.1449  -11.5616  -17.2887 C   0  0  0  0  0  0  0  0  0  0  0  0
   23.1828   -8.9627  -17.3860 C   0  0  0  0  0  0  0  0  0  0  0  0
   23.1019   -8.7087  -18.6111 O   0  0  0  0  0  0  0  0  0  0  0  0
   22.3814   -8.2023  -16.4806 N   0  0  0  0  0  0  0  0  0  0  0  0
   21.3996   -7.2217  -16.9404 C   0  0  1  0  0  0  0  0  0  0  0  0
   20.3911   -7.0927  -15.8325 C   0  0  0  0  0  0  0  0  0  0  0  0
   19.3020   -6.1380  -16.1592 C   0  0  0  0  0  0  0  0  0  0  0  0
   19.0012   -5.5865  -17.3827 C   0  0  0  0  0  0  0  0  0  0  0  0
   17.9307   -4.7717  -17.1955 N   0  0  0  0  0  0  0  0  0  0  0  0
   17.6103   -4.8430  -15.8920 C   0  0  0  0  0  0  0  0  0  0  0  0
   18.4352   -5.6717  -15.2416 N   0  0  0  0  0  0  0  0  0  0  0  0
   22.0659   -5.9371  -17.1990 C   0  0  0  0  0  0  0  0  0  0  0  0
   22.9471   -5.4663  -16.4431 O   0  0  0  0  0  0  0  0  0  0  0  0
   21.7218   -5.1915  -18.3247 O   0  0  0  0  0  0  0  0  0  0  0  0
  2  1  1  6
  2  3  1  0
  4  5  1  1
  4  2  1  0
  6  4  1  0
  7  6  2  0
  8  6  1  0
  9  8  1  0
  9 10  1  6
 10 11  1  0
 11 16  1  0
 12 11  2  0
 12 13  1  0
 13 14  2  0
 14 15  1  0
 16 15  2  0
 17 18  2  0
 17  9  1  0
 19 17  1  0
 20 19  1  0
 21 22  1  0
 20 21  1  1
 22 23  2  0
 24 23  1  0
 25 24  1  0
 26 25  2  0
 26 22  1  0
 27 29  1  0
 27 20  1  0
 28 27  2  0
M  END
$$$$
