TFH.pdb
     RDKit          3D

 29 30  0  0  1  0  0  0  0  0999 V2000
   25.1076  -11.8299  -21.3655 C   0  0  0  0  0  0  0  0  0  0  0  0
   24.1958  -11.4172  -20.2220 C   0  0  1  0  0  0  0  0  0  0  0  0
   22.9198  -11.0957  -20.7050 O   0  0  0  0  0  0  0  0  0  0  0  0
   24.0541  -12.6262  -19.3250 C   0  0  2  0  0  0  0  0  0  0  0  0
   23.4014  -13.7096  -20.0245 N   0  0  0  0  0  0  0  0  0  0  0  0
   23.3070  -12.3337  -18.0916 C   0  0  0  0  0  0  0  0  0  0  0  0
   22.0538  -12.3852  -18.1059 O   0  0  0  0  0  0  0  0  0  0  0  0
   23.9200  -11.9897  -16.8594 N   0  0  0  0  0  0  0  0  0  0  0  0
   23.1723  -11.6921  -15.6464 C   0  0  1  0  0  0  0  0  0  0  0  0
   23.8914  -12.2865  -14.4840 C   0  0  0  0  0  0  0  0  0  0  0  0
   24.0446  -13.7372  -14.5046 C   0  0  0  0  0  0  0  0  0  0  0  0
   25.2597  -14.3188  -14.6995 C   0  0  0  0  0  0  0  0  0  0  0  0
   25.3609  -15.6912  -14.7120 C   0  0  0  0  0  0  0  0  0  0  0  0
   24.2727  -16.5201  -14.5338 C   0  0  0  0  0  0  0  0  0  0  0  0
   23.0613  -15.8836  -14.3397 C   0  0  0  0  0  0  0  0  0  0  0  0
   22.9318  -14.5187  -14.3225 C   0  0  0  0  0  0  0  0  0  0  0  0
   22.8533  -10.2669  -15.5262 C   0  0  0  0  0  0  0  0  0  0  0  0
   23.7849   -9.4342  -15.6294 O   0  0  0  0  0  0  0  0  0  0  0  0
   21.5301   -9.7805  -15.2967 N   0  0  0  0  0  0  0  0  0  0  0  0
   21.2356   -8.3562  -15.1501 C   0  0  1  0  0  0  0  0  0  0  0  0
   20.7116   -7.9009  -16.4840 C   0  0  0  0  0  0  0  0  0  0  0  0
   20.4234   -6.4449  -16.5183 C   0  0  0  0  0  0  0  0  0  0  0  0
   20.6198   -5.5214  -15.5181 C   0  0  0  0  0  0  0  0  0  0  0  0
   20.2082   -4.3212  -16.0032 N   0  0  0  0  0  0  0  0  0  0  0  0
   19.7800   -4.5351  -17.2593 C   0  0  0  0  0  0  0  0  0  0  0  0
   19.9029   -5.8249  -17.5931 N   0  0  0  0  0  0  0  0  0  0  0  0
   20.2300   -8.1640  -14.0952 C   0  0  0  0  0  0  0  0  0  0  0  0
   19.6114   -9.1167  -13.5669 O   0  0  0  0  0  0  0  0  0  0  0  0
   19.9333   -6.8791  -13.6455 O   0  0  0  0  0  0  0  0  0  0  0  0
  2  1  1  6
  2  3  1  0
  4  5  1  6
  4  2  1  0
  6  4  1  0
  7  6  2  0
  8  6  1  0
  9  8  1  0
  9 10  1  1
 10 11  1  0
 11 16  1  0
 12 11  2  0
 12 13  1  0
 13 14  2  0
 14 15  1  0
 16 15  2  0
 17 18  2  0
 17  9  1  0
 19 17  1  0
 20 19  1  0
 21 22  1  0
 20 21  1  6
 22 23  2  0
 24 23  1  0
 25 24  1  0
 26 25  2  0
 26 22  1  0
 27 29  1  0
 27 20  1  0
 28 27  2  0
M  END
$$$$
