TFH.pdb
     RDKit          3D

 29 30  0  0  1  0  0  0  0  0999 V2000
   21.3139  -23.2623  -12.6451 C   0  0  0  0  0  0  0  0  0  0  0  0
   22.4327  -22.4162  -13.2297 C   0  0  1  0  0  0  0  0  0  0  0  0
   22.1600  -22.1013  -14.5681 O   0  0  0  0  0  0  0  0  0  0  0  0
   22.4477  -21.1213  -12.4490 C   0  0  2  0  0  0  0  0  0  0  0  0
   21.2266  -20.3788  -12.6645 N   0  0  0  0  0  0  0  0  0  0  0  0
   23.5951  -20.2657  -12.7905 C   0  0  0  0  0  0  0  0  0  0  0  0
   23.4406  -19.3304  -13.6119 O   0  0  0  0  0  0  0  0  0  0  0  0
   24.8933  -20.4292  -12.2425 N   0  0  0  0  0  0  0  0  0  0  0  0
   26.0851  -19.8089  -12.8028 C   0  0  1  0  0  0  0  0  0  0  0  0
   26.7837  -19.0549  -11.7234 C   0  0  0  0  0  0  0  0  0  0  0  0
   26.5534  -19.5305  -10.3635 C   0  0  0  0  0  0  0  0  0  0  0  0
   27.1936  -20.6296   -9.8791 C   0  0  0  0  0  0  0  0  0  0  0  0
   26.9480  -21.0451   -8.5904 C   0  0  0  0  0  0  0  0  0  0  0  0
   26.0698  -20.3909   -7.7514 C   0  0  0  0  0  0  0  0  0  0  0  0
   25.4443  -19.2812   -8.2877 C   0  0  0  0  0  0  0  0  0  0  0  0
   25.6703  -18.8453   -9.5679 C   0  0  0  0  0  0  0  0  0  0  0  0
   26.9150  -20.7657  -13.5395 C   0  0  0  0  0  0  0  0  0  0  0  0
   27.1177  -21.8954  -13.0349 O   0  0  0  0  0  0  0  0  0  0  0  0
   27.5051  -20.4725  -14.8068 N   0  0  0  0  0  0  0  0  0  0  0  0
   27.9074  -21.5207  -15.7429 C   0  0  1  0  0  0  0  0  0  0  0  0
   26.9758  -22.6756  -15.4987 C   0  0  0  0  0  0  0  0  0  0  0  0
   27.2625  -23.8371  -16.3779 C   0  0  0  0  0  0  0  0  0  0  0  0
   28.2554  -23.9567  -17.3220 C   0  0  0  0  0  0  0  0  0  0  0  0
   28.1256  -25.1898  -17.8767 N   0  0  0  0  0  0  0  0  0  0  0  0
   27.0804  -25.7806  -17.2722 C   0  0  0  0  0  0  0  0  0  0  0  0
   26.5395  -24.9717  -16.3539 N   0  0  0  0  0  0  0  0  0  0  0  0
   27.7851  -21.0272  -17.1222 C   0  0  0  0  0  0  0  0  0  0  0  0
   28.7268  -21.0792  -17.9467 O   0  0  0  0  0  0  0  0  0  0  0  0
   26.5825  -20.4737  -17.5567 O   0  0  0  0  0  0  0  0  0  0  0  0
  2  1  1  1
  2  3  1  0
  4  5  1  6
  4  2  1  0
  6  4  1  0
  7  6  2  0
  8  6  1  0
  9  8  1  0
  9 10  1  1
 10 11  1  0
 11 16  1  0
 12 11  2  0
 12 13  1  0
 13 14  2  0
 14 15  1  0
 16 15  2  0
 17 18  2  0
 17  9  1  0
 19 17  1  0
 20 19  1  0
 21 22  1  0
 20 21  1  6
 22 23  2  0
 24 23  1  0
 25 24  1  0
 26 25  2  0
 26 22  1  0
 27 29  1  0
 27 20  1  0
 28 27  2  0
M  END
$$$$
