TFH.pdb
     RDKit          3D

 29 30  0  0  1  0  0  0  0  0999 V2000
   27.3453  -18.5784  -13.2956 C   0  0  0  0  0  0  0  0  0  0  0  0
   27.3574  -19.8374  -14.1465 C   0  0  1  0  0  0  0  0  0  0  0  0
   27.8728  -19.5620  -15.4206 O   0  0  0  0  0  0  0  0  0  0  0  0
   28.3015  -20.8060  -13.4707 C   0  0  2  0  0  0  0  0  0  0  0  0
   28.4204  -22.0253  -14.2377 N   0  0  0  0  0  0  0  0  0  0  0  0
   27.8854  -21.1414  -12.0997 C   0  0  0  0  0  0  0  0  0  0  0  0
   26.9192  -21.9220  -11.9248 O   0  0  0  0  0  0  0  0  0  0  0  0
   28.5159  -20.6314  -10.9357 N   0  0  0  0  0  0  0  0  0  0  0  0
   27.9573  -20.7619   -9.5978 C   0  0  1  0  0  0  0  0  0  0  0  0
   28.9324  -20.2068   -8.6167 C   0  0  0  0  0  0  0  0  0  0  0  0
   28.4650  -20.1139   -7.2378 C   0  0  0  0  0  0  0  0  0  0  0  0
   27.8512  -18.9920   -6.7717 C   0  0  0  0  0  0  0  0  0  0  0  0
   27.4252  -18.9452   -5.4640 C   0  0  0  0  0  0  0  0  0  0  0  0
   27.5926  -19.9974   -4.5877 C   0  0  0  0  0  0  0  0  0  0  0  0
   28.2206  -21.1139   -5.1068 C   0  0  0  0  0  0  0  0  0  0  0  0
   28.6550  -21.1876   -6.4052 C   0  0  0  0  0  0  0  0  0  0  0  0
   26.5984  -20.2208   -9.5081 C   0  0  0  0  0  0  0  0  0  0  0  0
   26.4050  -19.0291   -9.8465 O   0  0  0  0  0  0  0  0  0  0  0  0
   25.4823  -20.9871   -9.0530 N   0  0  0  0  0  0  0  0  0  0  0  0
   24.1193  -20.4587   -9.0534 C   0  0  1  0  0  0  0  0  0  0  0  0
   23.5694  -20.7287  -10.4266 C   0  0  0  0  0  0  0  0  0  0  0  0
   22.1523  -20.3090  -10.5677 C   0  0  0  0  0  0  0  0  0  0  0  0
   21.3412  -19.7400   -9.6138 C   0  0  0  0  0  0  0  0  0  0  0  0
   20.1318  -19.5335  -10.1968 N   0  0  0  0  0  0  0  0  0  0  0  0
   20.2306  -19.9714  -11.4638 C   0  0  0  0  0  0  0  0  0  0  0  0
   21.4559  -20.4487  -11.7106 N   0  0  0  0  0  0  0  0  0  0  0  0
   23.3230  -21.1408   -8.0231 C   0  0  0  0  0  0  0  0  0  0  0  0
   23.7907  -22.0455   -7.2935 O   0  0  0  0  0  0  0  0  0  0  0  0
   21.9897  -20.7859   -7.8289 O   0  0  0  0  0  0  0  0  0  0  0  0
  2  1  1  1
  2  3  1  0
  4  5  1  6
  4  2  1  0
  6  4  1  0
  7  6  2  0
  8  6  1  0
  9  8  1  0
  9 10  1  1
 10 11  1  0
 11 16  1  0
 12 11  2  0
 12 13  1  0
 13 14  2  0
 14 15  1  0
 16 15  2  0
 17 18  2  0
 17  9  1  0
 19 17  1  0
 20 19  1  0
 21 22  1  0
 20 21  1  6
 22 23  2  0
 24 23  1  0
 25 24  1  0
 26 25  2  0
 26 22  1  0
 27 29  1  0
 27 20  1  0
 28 27  2  0
M  END
$$$$
