MEW.pdb
     RDKit          3D

 32 33  0  0  1  0  0  0  0  0999 V2000
    7.3382  -11.5547   19.2006 C   0  0  0  0  0  0  0  0  0  0  0  0
    7.6307  -12.5951   17.7452 S   0  0  0  0  0  0  0  0  0  0  0  0
    8.8466  -13.8702   18.1277 C   0  0  0  0  0  0  0  0  0  0  0  0
    8.8913  -14.1068   19.6308 C   0  0  0  0  0  0  0  0  0  0  0  0
   10.0722  -15.0091   19.9190 C   0  0  2  0  0  0  0  0  0  0  0  0
   10.3259  -15.8888   18.8170 N   0  0  0  0  0  0  0  0  0  0  0  0
    9.8501  -15.7704   21.1959 C   0  0  0  0  0  0  0  0  0  0  0  0
    9.5124  -15.1526   22.2338 O   0  0  0  0  0  0  0  0  0  0  0  0
   10.0052  -17.1590   21.2799 N   0  0  0  0  0  0  0  0  0  0  0  0
    9.9932  -17.9373   22.4515 C   0  0  1  0  0  0  0  0  0  0  0  0
   10.4774  -19.3510   22.3550 C   0  0  0  0  0  0  0  0  0  0  0  0
   10.0940  -20.0720   23.6486 C   0  0  0  0  0  0  0  0  0  0  0  0
   10.5461  -21.4794   23.5897 C   0  0  0  0  0  0  0  0  0  0  0  0
   11.1766  -21.8794   22.5742 O   0  0  0  0  0  0  0  0  0  0  0  0
   10.5758  -17.2696   23.6150 C   0  0  0  0  0  0  0  0  0  0  0  0
   11.6866  -16.6488   23.5610 O   0  0  0  0  0  0  0  0  0  0  0  0
   10.2721  -22.3301   24.6436 O   0  0  0  0  0  0  0  0  0  0  0  0
    9.8880  -17.3041   24.8637 N   0  0  0  0  0  0  0  0  0  0  0  0
   10.5032  -16.7268   26.0682 C   0  0  1  0  0  0  0  0  0  0  0  0
   10.0812  -15.2776   26.1446 C   0  0  0  0  0  0  0  0  0  0  0  0
    8.6292  -15.1029   26.1625 C   0  0  0  0  0  0  0  0  0  0  0  0
    7.7092  -16.1120   26.0031 C   0  0  0  0  0  0  0  0  0  0  0  0
    6.4898  -15.5830   26.0762 N   0  0  0  0  0  0  0  0  0  0  0  0
    6.5873  -14.2484   26.2801 C   0  0  0  0  0  0  0  0  0  0  0  0
    5.6392  -13.2507   26.4275 C   0  0  0  0  0  0  0  0  0  0  0  0
    6.0233  -11.9450   26.6301 C   0  0  0  0  0  0  0  0  0  0  0  0
    7.3607  -11.6397   26.6848 C   0  0  0  0  0  0  0  0  0  0  0  0
    8.3025  -12.6071   26.5420 C   0  0  0  0  0  0  0  0  0  0  0  0
    7.9239  -13.9193   26.3385 C   0  0  0  0  0  0  0  0  0  0  0  0
   10.1037  -17.5236   27.2151 C   0  0  0  0  0  0  0  0  0  0  0  0
   10.6868  -17.3379   28.4516 O   0  0  0  0  0  0  0  0  0  0  0  0
    9.2156  -18.4011   27.1029 O   0  0  0  0  0  0  0  0  0  0  0  0
  2  1  1  0
  3  2  1  0
  4  3  1  0
  5  4  1  0
  5  6  1  6
  7  9  1  0
  7  5  1  0
  8  7  2  0
 10  9  1  0
 10 11  1  6
 11 12  1  0
 12 13  1  0
 13 14  2  0
 13 17  1  0
 15 10  1  0
 16 15  2  0
 18 15  1  0
 19 30  1  0
 19 18  1  0
 19 20  1  1
 21 20  1  0
 21 29  1  0
 22 23  1  0
 22 21  2  0
 23 24  1  0
 24 29  2  0
 24 25  1  0
 25 26  2  0
 26 27  1  0
 28 27  2  0
 29 28  1  0
 30 31  1  0
 32 30  2  0
M  END
$$$$
