MEW.pdb
     RDKit          3D

 32 33  0  0  1  0  0  0  0  0999 V2000
    6.8588  -11.6504   16.9992 C   0  0  0  0  0  0  0  0  0  0  0  0
    6.6596  -12.9576   18.2393 S   0  0  0  0  0  0  0  0  0  0  0  0
    8.2723  -13.4941   18.8406 C   0  0  0  0  0  0  0  0  0  0  0  0
    8.0941  -14.5051   19.9646 C   0  0  0  0  0  0  0  0  0  0  0  0
    9.4719  -14.9611   20.3951 C   0  0  2  0  0  0  0  0  0  0  0  0
   10.1710  -15.5774   19.3069 N   0  0  0  0  0  0  0  0  0  0  0  0
    9.3727  -15.8795   21.5810 C   0  0  0  0  0  0  0  0  0  0  0  0
    8.6410  -15.5629   22.5491 O   0  0  0  0  0  0  0  0  0  0  0  0
   10.0705  -17.0907   21.6542 N   0  0  0  0  0  0  0  0  0  0  0  0
   10.0655  -18.0008   22.7268 C   0  0  1  0  0  0  0  0  0  0  0  0
   10.6109  -19.3733   22.4798 C   0  0  0  0  0  0  0  0  0  0  0  0
   10.8313  -19.5311   20.9742 C   0  0  0  0  0  0  0  0  0  0  0  0
   11.3481  -20.8865   20.6837 C   0  0  0  0  0  0  0  0  0  0  0  0
   10.6514  -21.6727   19.9871 O   0  0  0  0  0  0  0  0  0  0  0  0
   10.5937  -17.4516   23.9750 C   0  0  0  0  0  0  0  0  0  0  0  0
   11.6838  -16.7948   24.0250 O   0  0  0  0  0  0  0  0  0  0  0  0
   12.5808  -21.2685   21.1778 O   0  0  0  0  0  0  0  0  0  0  0  0
    9.8742  -17.6483   25.1905 N   0  0  0  0  0  0  0  0  0  0  0  0
   10.2616  -16.9238   26.4101 C   0  0  1  0  0  0  0  0  0  0  0  0
    9.9095  -15.4684   26.2058 C   0  0  0  0  0  0  0  0  0  0  0  0
    8.4706  -15.2379   26.0813 C   0  0  0  0  0  0  0  0  0  0  0  0
    7.5400  -16.1998   25.7664 C   0  0  0  0  0  0  0  0  0  0  0  0
    6.3381  -15.6281   25.7421 N   0  0  0  0  0  0  0  0  0  0  0  0
    6.4573  -14.3117   26.0341 C   0  0  0  0  0  0  0  0  0  0  0  0
    5.5325  -13.2873   26.1400 C   0  0  0  0  0  0  0  0  0  0  0  0
    5.9358  -12.0109   26.4592 C   0  0  0  0  0  0  0  0  0  0  0  0
    7.2690  -11.7620   26.6722 C   0  0  0  0  0  0  0  0  0  0  0  0
    8.1880  -12.7562   26.5720 C   0  0  0  0  0  0  0  0  0  0  0  0
    7.7902  -14.0392   26.2522 C   0  0  0  0  0  0  0  0  0  0  0  0
    9.5963  -17.5431   27.5432 C   0  0  0  0  0  0  0  0  0  0  0  0
    8.7728  -18.6374   27.3771 O   0  0  0  0  0  0  0  0  0  0  0  0
    9.7588  -17.0922   28.7014 O   0  0  0  0  0  0  0  0  0  0  0  0
  2  1  1  0
  3  2  1  0
  4  3  1  0
  5  4  1  0
  5  6  1  6
  7  9  1  0
  7  5  1  0
  8  7  2  0
 10  9  1  0
 10 11  1  6
 11 12  1  0
 12 13  1  0
 13 14  2  0
 13 17  1  0
 15 10  1  0
 16 15  2  0
 18 15  1  0
 19 30  1  0
 19 18  1  0
 19 20  1  6
 21 20  1  0
 21 29  1  0
 22 23  1  0
 22 21  2  0
 23 24  1  0
 24 29  2  0
 24 25  1  0
 25 26  2  0
 26 27  1  0
 28 27  2  0
 29 28  1  0
 30 31  1  0
 32 30  2  0
M  END
$$$$
