MEW.pdb
     RDKit          3D

 32 33  0  0  1  0  0  0  0  0999 V2000
    8.4205  -11.7833   20.6002 C   0  0  0  0  0  0  0  0  0  0  0  0
    7.7475  -12.6940   19.1847 S   0  0  0  0  0  0  0  0  0  0  0  0
    6.4416  -13.8114   19.7292 C   0  0  0  0  0  0  0  0  0  0  0  0
    6.9069  -14.5937   20.9493 C   0  0  0  0  0  0  0  0  0  0  0  0
    7.1876  -16.0134   20.5052 C   0  0  2  0  0  0  0  0  0  0  0  0
    5.9719  -16.6989   20.1812 N   0  0  0  0  0  0  0  0  0  0  0  0
    7.9730  -16.7456   21.5571 C   0  0  0  0  0  0  0  0  0  0  0  0
    7.3754  -17.2429   22.5412 O   0  0  0  0  0  0  0  0  0  0  0  0
    9.3624  -16.9000   21.4864 N   0  0  0  0  0  0  0  0  0  0  0  0
   10.1870  -17.5377   22.4310 C   0  0  1  0  0  0  0  0  0  0  0  0
   11.5384  -17.9981   21.9795 C   0  0  0  0  0  0  0  0  0  0  0  0
   12.1562  -18.8287   23.1058 C   0  0  0  0  0  0  0  0  0  0  0  0
   12.7313  -20.0739   22.5514 C   0  0  0  0  0  0  0  0  0  0  0  0
   13.6938  -19.9976   21.7412 O   0  0  0  0  0  0  0  0  0  0  0  0
   10.2811  -16.8338   23.7095 C   0  0  0  0  0  0  0  0  0  0  0  0
   10.7371  -15.6485   23.8046 O   0  0  0  0  0  0  0  0  0  0  0  0
   12.2075  -21.2958   22.9283 O   0  0  0  0  0  0  0  0  0  0  0  0
    9.8500  -17.4832   24.9037 N   0  0  0  0  0  0  0  0  0  0  0  0
   10.0806  -16.8588   26.2149 C   0  0  1  0  0  0  0  0  0  0  0  0
    8.7618  -16.8507   26.9531 C   0  0  0  0  0  0  0  0  0  0  0  0
    7.8202  -15.8586   26.4350 C   0  0  0  0  0  0  0  0  0  0  0  0
    6.6625  -16.1481   25.7523 C   0  0  0  0  0  0  0  0  0  0  0  0
    6.0634  -15.0016   25.4380 N   0  0  0  0  0  0  0  0  0  0  0  0
    6.8012  -13.9645   25.8989 C   0  0  0  0  0  0  0  0  0  0  0  0
    6.6286  -12.5923   25.8412 C   0  0  0  0  0  0  0  0  0  0  0  0
    7.5546  -11.7464   26.4074 C   0  0  0  0  0  0  0  0  0  0  0  0
    8.6554  -12.2780   27.0323 C   0  0  0  0  0  0  0  0  0  0  0  0
    8.8386  -13.6217   27.0970 C   0  0  0  0  0  0  0  0  0  0  0  0
    7.9134  -14.4761   26.5310 C   0  0  0  0  0  0  0  0  0  0  0  0
   11.1368  -17.5902   26.8928 C   0  0  0  0  0  0  0  0  0  0  0  0
   11.6209  -17.1753   28.1163 O   0  0  0  0  0  0  0  0  0  0  0  0
   11.6320  -18.6191   26.3759 O   0  0  0  0  0  0  0  0  0  0  0  0
  2  1  1  0
  3  2  1  0
  4  3  1  0
  5  4  1  0
  5  6  1  1
  7  9  1  0
  7  5  1  0
  8  7  2  0
 10  9  1  0
 10 11  1  6
 11 12  1  0
 12 13  1  0
 13 14  2  0
 13 17  1  0
 15 10  1  0
 16 15  2  0
 18 15  1  0
 19 30  1  0
 19 18  1  0
 19 20  1  1
 21 20  1  0
 21 29  1  0
 22 23  1  0
 22 21  2  0
 23 24  1  0
 24 29  2  0
 24 25  1  0
 25 26  2  0
 26 27  1  0
 28 27  2  0
 29 28  1  0
 30 31  1  0
 32 30  2  0
M  END
$$$$
