MEW.pdb
     RDKit          3D

 32 33  0  0  1  0  0  0  0  0999 V2000
    8.2547  -11.7704   19.6718 C   0  0  0  0  0  0  0  0  0  0  0  0
    6.7296  -12.7493   19.7171 S   0  0  0  0  0  0  0  0  0  0  0  0
    7.1216  -14.5088   19.7394 C   0  0  0  0  0  0  0  0  0  0  0  0
    7.7550  -14.8799   21.0729 C   0  0  0  0  0  0  0  0  0  0  0  0
    8.1047  -16.3519   21.0217 C   0  0  2  0  0  0  0  0  0  0  0  0
    6.9235  -17.1559   20.9169 N   0  0  0  0  0  0  0  0  0  0  0  0
    8.9318  -16.7355   22.2168 C   0  0  0  0  0  0  0  0  0  0  0  0
    8.3962  -17.3549   23.1668 O   0  0  0  0  0  0  0  0  0  0  0  0
   10.2936  -16.4283   22.3185 N   0  0  0  0  0  0  0  0  0  0  0  0
   11.1551  -16.7653   23.3783 C   0  0  1  0  0  0  0  0  0  0  0  0
   12.6286  -16.6271   23.1506 C   0  0  0  0  0  0  0  0  0  0  0  0
   13.3530  -17.3634   24.2789 C   0  0  0  0  0  0  0  0  0  0  0  0
   14.8136  -17.3189   24.0483 C   0  0  0  0  0  0  0  0  0  0  0  0
   15.2498  -17.3607   22.8665 O   0  0  0  0  0  0  0  0  0  0  0  0
   10.7735  -16.1810   24.6635 C   0  0  0  0  0  0  0  0  0  0  0  0
   10.8561  -14.9317   24.8972 O   0  0  0  0  0  0  0  0  0  0  0  0
   15.6736  -17.2324   25.1265 O   0  0  0  0  0  0  0  0  0  0  0  0
   10.2881  -17.0262   25.7044 N   0  0  0  0  0  0  0  0  0  0  0  0
   10.2312  -16.5409   27.0913 C   0  0  1  0  0  0  0  0  0  0  0  0
    8.8063  -16.6974   27.5700 C   0  0  0  0  0  0  0  0  0  0  0  0
    7.8527  -15.8933   26.8063 C   0  0  0  0  0  0  0  0  0  0  0  0
    6.9364  -16.3921   25.9108 C   0  0  0  0  0  0  0  0  0  0  0  0
    6.2422  -15.3728   25.4097 N   0  0  0  0  0  0  0  0  0  0  0  0
    6.6814  -14.2146   25.9556 C   0  0  0  0  0  0  0  0  0  0  0  0
    6.3043  -12.8941   25.7824 C   0  0  0  0  0  0  0  0  0  0  0  0
    6.9326  -11.8896   26.4822 C   0  0  0  0  0  0  0  0  0  0  0  0
    7.9408  -12.2104   27.3571 C   0  0  0  0  0  0  0  0  0  0  0  0
    8.3220  -13.5009   27.5378 C   0  0  0  0  0  0  0  0  0  0  0  0
    7.6957  -14.5137   26.8389 C   0  0  0  0  0  0  0  0  0  0  0  0
   11.2064  -17.2776   27.8764 C   0  0  0  0  0  0  0  0  0  0  0  0
   11.4790  -16.9316   29.1838 O   0  0  0  0  0  0  0  0  0  0  0  0
   11.8231  -18.2483   27.3779 O   0  0  0  0  0  0  0  0  0  0  0  0
  2  1  1  0
  3  2  1  0
  4  3  1  0
  5  4  1  0
  5  6  1  1
  7  9  1  0
  7  5  1  0
  8  7  2  0
 10  9  1  0
 10 11  1  6
 11 12  1  0
 12 13  1  0
 13 14  2  0
 13 17  1  0
 15 10  1  0
 16 15  2  0
 18 15  1  0
 19 30  1  0
 19 18  1  0
 19 20  1  1
 21 20  1  0
 21 29  1  0
 22 23  1  0
 22 21  2  0
 23 24  1  0
 24 29  2  0
 24 25  1  0
 25 26  2  0
 26 27  1  0
 28 27  2  0
 29 28  1  0
 30 31  1  0
 32 30  2  0
M  END
$$$$
