CPP.pdb
     RDKit          3D

 21 22  0  0  1  0  0  0  0  0999 V2000
   12.2608  -16.6789   21.1791 N   0  0  0  0  0  0  0  0  0  0  0  0
   10.8249  -16.8383   21.3336 C   0  0  1  0  0  0  0  0  0  0  0  0
   10.6102  -18.1683   22.0328 C   0  0  0  0  0  0  0  0  0  0  0  0
   11.3546  -17.9908   23.6958 S   0  0  0  0  0  0  0  0  0  0  0  0
   10.2453  -15.7128   22.1149 C   0  0  0  0  0  0  0  0  0  0  0  0
   11.0314  -15.0151   22.8261 O   0  0  0  0  0  0  0  0  0  0  0  0
    8.8720  -15.3981   22.0928 N   0  0  0  0  0  0  0  0  0  0  0  0
    7.8323  -16.0129   21.2633 C   0  0  0  0  0  0  0  0  0  0  0  0
    6.8485  -14.8887   21.0313 C   0  0  0  0  0  0  0  0  0  0  0  0
    6.9049  -14.0993   22.2908 C   0  0  0  0  0  0  0  0  0  0  0  0
    8.2365  -14.3832   22.9076 C   0  0  1  0  0  0  0  0  0  0  0  0
    8.0766  -14.8787   24.2973 C   0  0  0  0  0  0  0  0  0  0  0  0
    8.2504  -16.0887   24.5457 O   0  0  0  0  0  0  0  0  0  0  0  0
    7.7309  -13.9844   25.3265 N   0  0  0  0  0  0  0  0  0  0  0  0
    7.2730  -12.6074   25.0637 C   0  0  0  0  0  0  0  0  0  0  0  0
    6.5557  -12.2316   26.3331 C   0  0  0  0  0  0  0  0  0  0  0  0
    7.5109  -12.8165   27.3731 C   0  0  0  0  0  0  0  0  0  0  0  0
    7.7407  -14.1973   26.7691 C   0  0  1  0  0  0  0  0  0  0  0  0
    6.5506  -15.0063   27.1911 C   0  0  0  0  0  0  0  0  0  0  0  0
    6.6375  -15.6667   28.3894 O   0  0  0  0  0  0  0  0  0  0  0  0
    5.5060  -15.1002   26.5088 O   0  0  0  0  0  0  0  0  0  0  0  0
  2  1  1  1
  3  2  1  0
  4  3  1  0
  5  2  1  0
  6  5  2  0
  7  8  1  0
  7  5  1  0
  9 10  1  0
  9  8  1  0
 10 11  1  0
 11  7  1  0
 11 12  1  1
 12 13  2  0
 14 12  1  0
 14 15  1  0
 16 15  1  0
 17 16  1  0
 18 17  1  0
 18 14  1  0
 19 20  1  0
 18 19  1  6
 21 19  2  0
M  END
$$$$
