CPP.pdb
     RDKit          3D

 21 22  0  0  1  0  0  0  0  0999 V2000
    6.5671  -18.2661   27.5958 N   0  0  0  0  0  0  0  0  0  0  0  0
    7.2959  -17.0141   27.4837 C   0  0  1  0  0  0  0  0  0  0  0  0
    8.7712  -17.3703   27.4928 C   0  0  0  0  0  0  0  0  0  0  0  0
    9.6750  -15.7788   27.5334 S   0  0  0  0  0  0  0  0  0  0  0  0
    6.9188  -16.2881   26.2412 C   0  0  0  0  0  0  0  0  0  0  0  0
    6.3522  -16.9463   25.3159 O   0  0  0  0  0  0  0  0  0  0  0  0
    7.1652  -14.9128   26.0583 N   0  0  0  0  0  0  0  0  0  0  0  0
    7.6917  -13.9651   27.0440 C   0  0  0  0  0  0  0  0  0  0  0  0
    7.0390  -12.6552   26.6651 C   0  0  0  0  0  0  0  0  0  0  0  0
    6.9262  -12.7280   25.1837 C   0  0  0  0  0  0  0  0  0  0  0  0
    6.9313  -14.1805   24.8307 C   0  0  1  0  0  0  0  0  0  0  0  0
    8.0064  -14.4792   23.8522 C   0  0  0  0  0  0  0  0  0  0  0  0
    9.0787  -14.9799   24.2460 O   0  0  0  0  0  0  0  0  0  0  0  0
    7.8121  -14.1977   22.4877 N   0  0  0  0  0  0  0  0  0  0  0  0
    6.7088  -13.3498   21.9993 C   0  0  0  0  0  0  0  0  0  0  0  0
    7.1797  -12.9184   20.6357 C   0  0  0  0  0  0  0  0  0  0  0  0
    7.7739  -14.2294   20.1217 C   0  0  0  0  0  0  0  0  0  0  0  0
    8.5948  -14.6391   21.3392 C   0  0  1  0  0  0  0  0  0  0  0  0
    9.8653  -13.8498   21.2317 C   0  0  0  0  0  0  0  0  0  0  0  0
    9.9812  -12.7414   22.0302 O   0  0  0  0  0  0  0  0  0  0  0  0
   10.8017  -14.1556   20.4602 O   0  0  0  0  0  0  0  0  0  0  0  0
  2  1  1  6
  3  2  1  0
  4  3  1  0
  5  2  1  0
  6  5  2  0
  7  8  1  0
  7  5  1  0
  9 10  1  0
  9  8  1  0
 10 11  1  0
 11  7  1  0
 11 12  1  6
 12 13  2  0
 14 12  1  0
 14 15  1  0
 16 15  1  0
 17 16  1  0
 18 17  1  0
 18 14  1  0
 19 20  1  0
 18 19  1  6
 21 19  2  0
M  END
$$$$
