CPP.pdb
     RDKit          3D

 21 22  0  0  1  0  0  0  0  0999 V2000
    8.1765  -14.3604   20.9436 N   0  0  0  0  0  0  0  0  0  0  0  0
    7.4518  -14.7548   22.1396 C   0  0  1  0  0  0  0  0  0  0  0  0
    7.2345  -16.2536   22.0390 C   0  0  0  0  0  0  0  0  0  0  0  0
    6.4819  -16.7629   23.6282 S   0  0  0  0  0  0  0  0  0  0  0  0
    8.2135  -14.3964   23.3660 C   0  0  0  0  0  0  0  0  0  0  0  0
    9.4805  -14.3782   23.2957 O   0  0  0  0  0  0  0  0  0  0  0  0
    7.5857  -14.0799   24.5872 N   0  0  0  0  0  0  0  0  0  0  0  0
    6.1472  -14.0413   24.8634 C   0  0  0  0  0  0  0  0  0  0  0  0
    6.0138  -12.9645   25.9161 C   0  0  0  0  0  0  0  0  0  0  0  0
    7.2672  -13.0827   26.7085 C   0  0  0  0  0  0  0  0  0  0  0  0
    8.2745  -13.7269   25.8114 C   0  0  1  0  0  0  0  0  0  0  0  0
    8.8371  -14.9460   26.4436 C   0  0  0  0  0  0  0  0  0  0  0  0
    8.4822  -16.0714   26.0395 O   0  0  0  0  0  0  0  0  0  0  0  0
    9.7662  -14.8280   27.4931 N   0  0  0  0  0  0  0  0  0  0  0  0
    9.9553  -13.5775   28.2516 C   0  0  0  0  0  0  0  0  0  0  0  0
   10.6081  -14.0403   29.5272 C   0  0  0  0  0  0  0  0  0  0  0  0
   11.5963  -15.0669   28.9744 C   0  0  0  0  0  0  0  0  0  0  0  0
   10.6765  -15.8328   28.0302 C   0  0  1  0  0  0  0  0  0  0  0  0
    9.9380  -16.7978   28.9089 C   0  0  0  0  0  0  0  0  0  0  0  0
   10.6319  -17.8929   29.3550 O   0  0  0  0  0  0  0  0  0  0  0  0
    8.7418  -16.6467   29.2431 O   0  0  0  0  0  0  0  0  0  0  0  0
  2  1  1  6
  3  2  1  0
  4  3  1  0
  5  2  1  0
  6  5  2  0
  7  8  1  0
  7  5  1  0
  9 10  1  0
  9  8  1  0
 10 11  1  0
 11  7  1  0
 11 12  1  1
 12 13  2  0
 14 12  1  0
 14 15  1  0
 16 15  1  0
 17 16  1  0
 18 17  1  0
 18 14  1  0
 19 20  1  0
 18 19  1  1
 21 19  2  0
M  END
$$$$
