CPP.pdb
     RDKit          3D

 21 22  0  0  1  0  0  0  0  0999 V2000
   12.1829  -16.4338   20.8374 N   0  0  0  0  0  0  0  0  0  0  0  0
   10.8174  -16.7534   21.2172 C   0  0  1  0  0  0  0  0  0  0  0  0
   10.8826  -18.0356   22.0268 C   0  0  0  0  0  0  0  0  0  0  0  0
   11.4240  -17.5460   23.7057 S   0  0  0  0  0  0  0  0  0  0  0  0
   10.2095  -15.6449   22.0011 C   0  0  0  0  0  0  0  0  0  0  0  0
   10.9893  -14.8335   22.5878 O   0  0  0  0  0  0  0  0  0  0  0  0
    8.8163  -15.4663   22.1134 N   0  0  0  0  0  0  0  0  0  0  0  0
    7.7648  -16.2277   21.4339 C   0  0  0  0  0  0  0  0  0  0  0  0
    6.6522  -15.2200   21.2549 C   0  0  0  0  0  0  0  0  0  0  0  0
    6.7575  -14.3541   22.4599 C   0  0  0  0  0  0  0  0  0  0  0  0
    8.1679  -14.4701   22.9411 C   0  0  1  0  0  0  0  0  0  0  0  0
    8.2044  -14.8939   24.3629 C   0  0  0  0  0  0  0  0  0  0  0  0
    8.5618  -16.0531   24.6532 O   0  0  0  0  0  0  0  0  0  0  0  0
    7.8373  -13.9888   25.3752 N   0  0  0  0  0  0  0  0  0  0  0  0
    7.2280  -12.6771   25.0871 C   0  0  0  0  0  0  0  0  0  0  0  0
    6.5590  -12.3121   26.3858 C   0  0  0  0  0  0  0  0  0  0  0  0
    7.6324  -12.7508   27.3816 C   0  0  0  0  0  0  0  0  0  0  0  0
    7.9603  -14.1302   26.8214 C   0  0  1  0  0  0  0  0  0  0  0  0
    6.8865  -15.0297   27.3568 C   0  0  0  0  0  0  0  0  0  0  0  0
    7.1097  -15.6098   28.5787 O   0  0  0  0  0  0  0  0  0  0  0  0
    5.8199  -15.2660   26.7468 O   0  0  0  0  0  0  0  0  0  0  0  0
  2  1  1  1
  3  2  1  0
  4  3  1  0
  5  2  1  0
  6  5  2  0
  7  8  1  0
  7  5  1  0
  9 10  1  0
  9  8  1  0
 10 11  1  0
 11  7  1  0
 11 12  1  1
 12 13  2  0
 14 12  1  0
 14 15  1  0
 16 15  1  0
 17 16  1  0
 18 17  1  0
 18 14  1  0
 19 20  1  0
 18 19  1  1
 21 19  2  0
M  END
$$$$
