CPP.pdb
     RDKit          3D

 21 22  0  0  1  0  0  0  0  0999 V2000
   11.6267  -16.4012   20.2567 N   0  0  0  0  0  0  0  0  0  0  0  0
   10.5899  -16.8827   21.1535 C   0  0  1  0  0  0  0  0  0  0  0  0
   11.2311  -17.9487   22.0231 C   0  0  0  0  0  0  0  0  0  0  0  0
    9.9293  -18.5040   23.1843 S   0  0  0  0  0  0  0  0  0  0  0  0
   10.0371  -15.7714   21.9735 C   0  0  0  0  0  0  0  0  0  0  0  0
   10.8562  -15.0080   22.5708 O   0  0  0  0  0  0  0  0  0  0  0  0
    8.6537  -15.5393   22.1080 N   0  0  0  0  0  0  0  0  0  0  0  0
    7.5625  -16.2680   21.4558 C   0  0  0  0  0  0  0  0  0  0  0  0
    6.4853  -15.2212   21.2847 C   0  0  0  0  0  0  0  0  0  0  0  0
    6.6445  -14.3469   22.4776 C   0  0  0  0  0  0  0  0  0  0  0  0
    8.0580  -14.5106   22.9354 C   0  0  1  0  0  0  0  0  0  0  0  0
    8.1040  -14.9199   24.3611 C   0  0  0  0  0  0  0  0  0  0  0  0
    8.4512  -16.0801   24.6599 O   0  0  0  0  0  0  0  0  0  0  0  0
    7.7574  -14.0003   25.3675 N   0  0  0  0  0  0  0  0  0  0  0  0
    7.1383  -12.6946   25.0732 C   0  0  0  0  0  0  0  0  0  0  0  0
    6.4978  -12.3112   26.3810 C   0  0  0  0  0  0  0  0  0  0  0  0
    7.5945  -12.7320   27.3588 C   0  0  0  0  0  0  0  0  0  0  0  0
    7.9134  -14.1191   26.8125 C   0  0  1  0  0  0  0  0  0  0  0  0
    6.8544  -15.0128   27.3858 C   0  0  0  0  0  0  0  0  0  0  0  0
    7.0788  -15.5229   28.6384 O   0  0  0  0  0  0  0  0  0  0  0  0
    5.7990  -15.3044   26.7804 O   0  0  0  0  0  0  0  0  0  0  0  0
  2  1  1  6
  3  2  1  0
  4  3  1  0
  5  2  1  0
  6  5  2  0
  7  8  1  0
  7  5  1  0
  9 10  1  0
  9  8  1  0
 10 11  1  0
 11  7  1  0
 11 12  1  1
 12 13  2  0
 14 12  1  0
 14 15  1  0
 16 15  1  0
 17 16  1  0
 18 17  1  0
 18 14  1  0
 19 20  1  0
 18 19  1  1
 21 19  2  0
M  END
$$$$
