CPP.pdb
     RDKit          3D

 21 22  0  0  1  0  0  0  0  0999 V2000
    6.2903  -18.1857   24.3063 N   0  0  0  0  0  0  0  0  0  0  0  0
    6.8386  -16.8514   24.4800 C   0  0  1  0  0  0  0  0  0  0  0  0
    8.1864  -17.0223   25.1566 C   0  0  0  0  0  0  0  0  0  0  0  0
    9.0697  -18.3125   24.2046 S   0  0  0  0  0  0  0  0  0  0  0  0
    6.9706  -16.1557   23.1718 C   0  0  0  0  0  0  0  0  0  0  0  0
    6.5424  -16.7503   22.1356 O   0  0  0  0  0  0  0  0  0  0  0  0
    7.5465  -14.8759   23.0444 N   0  0  0  0  0  0  0  0  0  0  0  0
    8.0555  -14.0193   24.1187 C   0  0  0  0  0  0  0  0  0  0  0  0
    7.7999  -12.6185   23.6107 C   0  0  0  0  0  0  0  0  0  0  0  0
    7.9802  -12.7342   22.1387 C   0  0  0  0  0  0  0  0  0  0  0  0
    7.7370  -14.1685   21.7950 C   0  0  1  0  0  0  0  0  0  0  0  0
    8.8968  -14.7374   21.0646 C   0  0  0  0  0  0  0  0  0  0  0  0
    9.7384  -15.4227   21.6793 O   0  0  0  0  0  0  0  0  0  0  0  0
    9.0421  -14.5025   19.6853 N   0  0  0  0  0  0  0  0  0  0  0  0
    8.1590  -13.5893   18.9363 C   0  0  0  0  0  0  0  0  0  0  0  0
    8.9627  -13.2599   17.7063 C   0  0  0  0  0  0  0  0  0  0  0  0
    9.5363  -14.6373   17.3749 C   0  0  0  0  0  0  0  0  0  0  0  0
   10.0206  -15.0582   18.7578 C   0  0  1  0  0  0  0  0  0  0  0  0
   11.3487  -14.3820   18.9243 C   0  0  0  0  0  0  0  0  0  0  0  0
   12.4473  -15.0317   18.4238 O   0  0  0  0  0  0  0  0  0  0  0  0
   11.4905  -13.2743   19.4885 O   0  0  0  0  0  0  0  0  0  0  0  0
  2  1  1  6
  3  2  1  0
  4  3  1  0
  5  2  1  0
  6  5  2  0
  7  8  1  0
  7  5  1  0
  9 10  1  0
  9  8  1  0
 10 11  1  0
 11  7  1  0
 11 12  1  1
 12 13  2  0
 14 12  1  0
 14 15  1  0
 16 15  1  0
 17 16  1  0
 18 17  1  0
 18 14  1  0
 19 20  1  0
 18 19  1  1
 21 19  2  0
M  END
$$$$
