CPP.pdb
     RDKit          3D

 21 22  0  0  1  0  0  0  0  0999 V2000
    8.3376  -14.3561   20.8512 N   0  0  0  0  0  0  0  0  0  0  0  0
    7.4402  -14.4739   21.9879 C   0  0  1  0  0  0  0  0  0  0  0  0
    6.9395  -15.9066   21.9968 C   0  0  0  0  0  0  0  0  0  0  0  0
    8.4244  -16.9597   22.1896 S   0  0  0  0  0  0  0  0  0  0  0  0
    8.1399  -14.1338   23.2559 C   0  0  0  0  0  0  0  0  0  0  0  0
    9.4011  -13.9967   23.2214 O   0  0  0  0  0  0  0  0  0  0  0  0
    7.4601  -13.9605   24.4779 N   0  0  0  0  0  0  0  0  0  0  0  0
    6.0168  -14.0531   24.7133 C   0  0  0  0  0  0  0  0  0  0  0  0
    5.7743  -13.0732   25.8387 C   0  0  0  0  0  0  0  0  0  0  0  0
    7.0138  -13.1555   26.6570 C   0  0  0  0  0  0  0  0  0  0  0  0
    8.0897  -13.6504   25.7449 C   0  0  1  0  0  0  0  0  0  0  0  0
    8.7308  -14.8677   26.3013 C   0  0  0  0  0  0  0  0  0  0  0  0
    8.4682  -15.9838   25.8101 O   0  0  0  0  0  0  0  0  0  0  0  0
    9.6302  -14.7585   27.3773 N   0  0  0  0  0  0  0  0  0  0  0  0
    9.7496  -13.5361   28.1937 C   0  0  0  0  0  0  0  0  0  0  0  0
   10.3921  -14.0280   29.4636 C   0  0  0  0  0  0  0  0  0  0  0  0
   11.4347  -14.9878   28.8911 C   0  0  0  0  0  0  0  0  0  0  0  0
   10.5694  -15.7480   27.8924 C   0  0  1  0  0  0  0  0  0  0  0  0
    9.8523  -16.7805   28.7101 C   0  0  0  0  0  0  0  0  0  0  0  0
    8.5283  -16.5519   28.9827 O   0  0  0  0  0  0  0  0  0  0  0  0
   10.4017  -17.8178   29.1433 O   0  0  0  0  0  0  0  0  0  0  0  0
  2  1  1  6
  3  2  1  0
  4  3  1  0
  5  2  1  0
  6  5  2  0
  7  8  1  0
  7  5  1  0
  9 10  1  0
  9  8  1  0
 10 11  1  0
 11  7  1  0
 11 12  1  1
 12 13  2  0
 14 12  1  0
 14 15  1  0
 16 15  1  0
 17 16  1  0
 18 17  1  0
 18 14  1  0
 19 20  1  0
 18 19  1  1
 21 19  2  0
M  END
$$$$
