CPP.pdb
     RDKit          3D

 21 22  0  0  1  0  0  0  0  0999 V2000
    8.3036  -14.0299   20.8840 N   0  0  0  0  0  0  0  0  0  0  0  0
    7.4281  -14.1454   22.0378 C   0  0  1  0  0  0  0  0  0  0  0  0
    6.8775  -15.5597   22.0230 C   0  0  0  0  0  0  0  0  0  0  0  0
    8.2937  -16.6572   22.3986 S   0  0  0  0  0  0  0  0  0  0  0  0
    8.1671  -13.8621   23.2974 C   0  0  0  0  0  0  0  0  0  0  0  0
    9.4304  -13.7578   23.2356 O   0  0  0  0  0  0  0  0  0  0  0  0
    7.5220  -13.7071   24.5405 N   0  0  0  0  0  0  0  0  0  0  0  0
    6.0801  -13.7172   24.8012 C   0  0  0  0  0  0  0  0  0  0  0  0
    5.9229  -12.7821   25.9786 C   0  0  0  0  0  0  0  0  0  0  0  0
    7.1685  -12.9866   26.7657 C   0  0  0  0  0  0  0  0  0  0  0  0
    8.1930  -13.5036   25.8078 C   0  0  1  0  0  0  0  0  0  0  0  0
    8.7619  -14.7869   26.2896 C   0  0  0  0  0  0  0  0  0  0  0  0
    8.4041  -15.8585   25.7610 O   0  0  0  0  0  0  0  0  0  0  0  0
    9.7003  -14.7897   27.3375 N   0  0  0  0  0  0  0  0  0  0  0  0
    9.9462  -13.6108   28.1887 C   0  0  0  0  0  0  0  0  0  0  0  0
   10.5847  -14.1981   29.4195 C   0  0  0  0  0  0  0  0  0  0  0  0
   11.5255  -15.2195   28.7812 C   0  0  0  0  0  0  0  0  0  0  0  0
   10.5693  -15.8705   27.7881 C   0  0  1  0  0  0  0  0  0  0  0  0
    9.7946  -16.8687   28.5958 C   0  0  0  0  0  0  0  0  0  0  0  0
   10.4315  -18.0386   28.9203 O   0  0  0  0  0  0  0  0  0  0  0  0
    8.6175  -16.6805   28.9761 O   0  0  0  0  0  0  0  0  0  0  0  0
  2  1  1  6
  3  2  1  0
  4  3  1  0
  5  2  1  0
  6  5  2  0
  7  8  1  0
  7  5  1  0
  9 10  1  0
  9  8  1  0
 10 11  1  0
 11  7  1  0
 11 12  1  1
 12 13  2  0
 14 12  1  0
 14 15  1  0
 16 15  1  0
 17 16  1  0
 18 17  1  0
 18 14  1  0
 19 20  1  0
 18 19  1  1
 21 19  2  0
M  END
$$$$
