CPP.pdb
     RDKit          3D

 21 22  0  0  1  0  0  0  0  0999 V2000
   11.7289  -14.7257   19.4190 N   0  0  0  0  0  0  0  0  0  0  0  0
   10.7407  -15.4943   20.1566 C   0  0  1  0  0  0  0  0  0  0  0  0
   11.4921  -16.6224   20.8396 C   0  0  0  0  0  0  0  0  0  0  0  0
   10.2340  -17.5842   21.7580 S   0  0  0  0  0  0  0  0  0  0  0  0
   10.0290  -14.6384   21.1435 C   0  0  0  0  0  0  0  0  0  0  0  0
   10.7122  -13.7969   21.8035 O   0  0  0  0  0  0  0  0  0  0  0  0
    8.6408  -14.7279   21.3679 N   0  0  0  0  0  0  0  0  0  0  0  0
    7.6790  -15.5782   20.6614 C   0  0  0  0  0  0  0  0  0  0  0  0
    6.4001  -14.7726   20.6911 C   0  0  0  0  0  0  0  0  0  0  0  0
    6.4610  -14.0540   21.9921 C   0  0  0  0  0  0  0  0  0  0  0  0
    7.9070  -13.9719   22.3618 C   0  0  1  0  0  0  0  0  0  0  0  0
    8.1382  -14.5508   23.7086 C   0  0  0  0  0  0  0  0  0  0  0  0
    8.6217  -15.6958   23.8142 O   0  0  0  0  0  0  0  0  0  0  0  0
    7.8126  -13.8079   24.8578 N   0  0  0  0  0  0  0  0  0  0  0  0
    7.1060  -12.5150   24.7957 C   0  0  0  0  0  0  0  0  0  0  0  0
    6.5369  -12.3633   26.1815 C   0  0  0  0  0  0  0  0  0  0  0  0
    7.7188  -12.8498   27.0196 C   0  0  0  0  0  0  0  0  0  0  0  0
    8.0732  -14.1219   26.2578 C   0  0  1  0  0  0  0  0  0  0  0  0
    7.1051  -15.1529   26.7564 C   0  0  0  0  0  0  0  0  0  0  0  0
    7.4398  -15.8189   27.9070 O   0  0  0  0  0  0  0  0  0  0  0  0
    6.0293  -15.4230   26.1773 O   0  0  0  0  0  0  0  0  0  0  0  0
  2  1  1  1
  3  2  1  0
  4  3  1  0
  5  2  1  0
  6  5  2  0
  7  8  1  0
  7  5  1  0
  9 10  1  0
  9  8  1  0
 10 11  1  0
 11  7  1  0
 11 12  1  1
 12 13  2  0
 14 12  1  0
 14 15  1  0
 16 15  1  0
 17 16  1  0
 18 17  1  0
 18 14  1  0
 19 20  1  0
 18 19  1  1
 21 19  2  0
M  END
$$$$
