CPP.pdb
     RDKit          3D

 21 22  0  0  1  0  0  0  0  0999 V2000
   37.9795  -53.6149   -7.0677 N   0  0  0  0  0  0  0  0  0  0  0  0
   38.8407  -54.7726   -6.8962 C   0  0  1  0  0  0  0  0  0  0  0  0
   40.1488  -54.4455   -7.5928 C   0  0  0  0  0  0  0  0  0  0  0  0
   40.8833  -53.0519   -6.6601 S   0  0  0  0  0  0  0  0  0  0  0  0
   39.0515  -55.0702   -5.4540 C   0  0  0  0  0  0  0  0  0  0  0  0
   39.7792  -56.0650   -5.1517 O   0  0  0  0  0  0  0  0  0  0  0  0
   38.4793  -54.2959   -4.4250 N   0  0  0  0  0  0  0  0  0  0  0  0
   37.9778  -54.7676   -3.1316 C   0  0  0  0  0  0  0  0  0  0  0  0
   36.8491  -53.8128   -2.8158 C   0  0  0  0  0  0  0  0  0  0  0  0
   37.3013  -52.5206   -3.3975 C   0  0  0  0  0  0  0  0  0  0  0  0
   38.2819  -52.8619   -4.4728 C   0  0  1  0  0  0  0  0  0  0  0  0
   39.5733  -52.1668   -4.2457 C   0  0  0  0  0  0  0  0  0  0  0  0
   40.5914  -52.8306   -3.9653 O   0  0  0  0  0  0  0  0  0  0  0  0
   39.6442  -50.7656   -4.3477 N   0  0  0  0  0  0  0  0  0  0  0  0
   39.2821  -49.8675   -3.2354 C   0  0  0  0  0  0  0  0  0  0  0  0
   39.9764  -48.5790   -3.5891 C   0  0  0  0  0  0  0  0  0  0  0  0
   39.6985  -48.5194   -5.0909 C   0  0  0  0  0  0  0  0  0  0  0  0
   40.0617  -49.9479   -5.4806 C   0  0  1  0  0  0  0  0  0  0  0  0
   41.5560  -49.9455   -5.6074 C   0  0  0  0  0  0  0  0  0  0  0  0
   42.2700  -49.4103   -4.5666 O   0  0  0  0  0  0  0  0  0  0  0  0
   42.1624  -50.4020   -6.6020 O   0  0  0  0  0  0  0  0  0  0  0  0
  2  1  1  1
  3  2  1  0
  4  3  1  0
  5  2  1  0
  6  5  2  0
  7  8  1  0
  7  5  1  0
  9 10  1  0
  9  8  1  0
 10 11  1  0
 11  7  1  0
 11 12  1  1
 12 13  2  0
 14 12  1  0
 14 15  1  0
 16 15  1  0
 17 16  1  0
 18 17  1  0
 18 14  1  0
 19 20  1  0
 18 19  1  1
 21 19  2  0
M  END
$$$$
