NRF.pdb
     RDKit          3D

 31 31  0  0  1  0  0  0  0  0999 V2000
   26.5397  -22.7996  -19.4411 N   0  0  0  0  0  0  0  0  0  0  0  0
   26.1649  -23.8620  -18.6037 C   0  0  0  0  0  0  0  0  0  0  0  0
   26.1887  -25.0712  -18.9497 O   0  0  0  0  0  0  0  0  0  0  0  0
   25.7095  -23.5790  -17.2255 C   0  0  0  0  0  0  0  0  0  0  0  0
   25.7634  -22.1114  -16.8676 C   0  0  2  0  0  0  0  0  0  0  0  0
   27.0806  -21.5630  -16.8583 N   0  0  0  0  0  0  0  0  0  0  0  0
   25.0042  -21.8955  -15.6188 C   0  0  0  0  0  0  0  0  0  0  0  0
   23.8859  -22.4356  -15.4188 O   0  0  0  0  0  0  0  0  0  0  0  0
   28.4762  -22.7061   -9.8342 N   0  0  0  0  0  0  0  0  0  0  0  0
   29.1483  -21.5493  -10.2987 C   0  0  0  0  0  0  0  0  0  0  0  0
   30.3219  -21.7335  -10.8322 N   0  0  0  0  0  0  0  0  0  0  0  0
   28.6191  -20.2460  -10.2095 N   0  0  0  0  0  0  0  0  0  0  0  0
   27.2286  -19.9186  -10.5217 C   0  0  0  0  0  0  0  0  0  0  0  0
   26.7251  -20.7047  -11.6857 C   0  0  0  0  0  0  0  0  0  0  0  0
   25.3941  -20.3040  -12.1447 C   0  0  0  0  0  0  0  0  0  0  0  0
   24.7457  -20.8968  -13.3214 C   0  0  2  0  0  0  0  0  0  0  0  0
   25.4725  -21.0573  -14.5375 N   0  0  0  0  0  0  0  0  0  0  0  0
   23.4406  -20.2470  -13.6671 C   0  0  0  0  0  0  0  0  0  0  0  0
   23.3987  -19.0934  -14.1566 O   0  0  0  0  0  0  0  0  0  0  0  0
   30.9304  -20.9550  -11.1580 N   0  0  0  0  0  0  0  0  0  0  0  0
   22.1984  -20.9081  -13.4563 C   0  0  1  0  0  0  0  0  0  0  0  0
   20.9148  -20.2084  -13.5800 C   0  0  0  0  0  0  0  0  0  0  0  0
   20.2873  -20.4991  -14.9179 C   0  0  0  0  0  0  0  0  0  0  0  0
   21.0125  -19.8733  -16.0409 C   0  0  0  0  0  0  0  0  0  0  0  0
   21.9278  -20.5638  -16.8130 C   0  0  0  0  0  0  0  0  0  0  0  0
   22.5434  -19.9084  -17.8511 C   0  0  0  0  0  0  0  0  0  0  0  0
   22.3015  -18.5994  -18.1687 C   0  0  0  0  0  0  0  0  0  0  0  0
   21.3895  -17.9143  -17.3976 C   0  0  0  0  0  0  0  0  0  0  0  0
   20.7629  -18.5437  -16.3587 C   0  0  0  0  0  0  0  0  0  0  0  0
   20.0333  -20.5220  -12.4400 O   0  0  0  0  0  0  0  0  0  0  0  0
   20.4415  -21.4403  -11.4643 O   0  0  0  0  0  0  0  0  0  0  0  0
  2  1  1  0
  3  2  2  0
  4  2  1  0
  5  4  1  0
  5  6  1  1
  7  8  2  0
  7  5  1  0
  9 10  1  0
 10 12  1  0
 10 11  2  0
 12 13  1  0
 14 13  1  0
 15 14  1  0
 16 15  1  1
 16 17  1  0
 17  7  1  0
 18 16  1  0
 19 18  2  0
 20 18  1  0
 21 20  1  0
 22 23  1  0
 21 22  1  1
 23 28  2  0
 24 25  2  0
 24 23  1  0
 25 26  1  0
 26 27  2  0
 28 27  1  0
 29 21  1  0
 29 30  1  0
 31 29  2  0
M  END
$$$$
