NRF.pdb
     RDKit          3D

 31 31  0  0  1  0  0  0  0  0999 V2000
   20.7823  -16.5775  -17.0982 N   0  0  0  0  0  0  0  0  0  0  0  0
   21.1737  -16.5990  -15.7504 C   0  0  0  0  0  0  0  0  0  0  0  0
   20.9850  -15.6480  -14.9489 O   0  0  0  0  0  0  0  0  0  0  0  0
   21.8512  -17.7957  -15.2063 C   0  0  0  0  0  0  0  0  0  0  0  0
   22.1403  -18.8467  -16.2534 C   0  0  2  0  0  0  0  0  0  0  0  0
   20.9795  -19.5207  -16.7371 N   0  0  0  0  0  0  0  0  0  0  0  0
   23.2009  -19.7438  -15.7505 C   0  0  0  0  0  0  0  0  0  0  0  0
   22.9494  -20.7001  -14.9729 O   0  0  0  0  0  0  0  0  0  0  0  0
   29.4561  -24.5483  -16.7534 N   0  0  0  0  0  0  0  0  0  0  0  0
   28.9795  -24.0649  -17.9963 C   0  0  0  0  0  0  0  0  0  0  0  0
   28.7912  -24.9514  -18.9315 N   0  0  0  0  0  0  0  0  0  0  0  0
   28.7099  -22.7064  -18.2581 N   0  0  0  0  0  0  0  0  0  0  0  0
   28.7522  -21.6650  -17.2325 C   0  0  0  0  0  0  0  0  0  0  0  0
   27.5864  -20.7397  -17.3381 C   0  0  0  0  0  0  0  0  0  0  0  0
   26.3496  -21.2711  -16.7629 C   0  0  0  0  0  0  0  0  0  0  0  0
   25.5826  -20.5623  -15.7307 C   0  0  2  0  0  0  0  0  0  0  0  0
   24.5965  -19.6014  -16.1015 N   0  0  0  0  0  0  0  0  0  0  0  0
   26.4463  -19.9296  -14.6825 C   0  0  0  0  0  0  0  0  0  0  0  0
   26.7880  -18.7258  -14.7619 O   0  0  0  0  0  0  0  0  0  0  0  0
   28.4981  -24.7078  -19.8997 N   0  0  0  0  0  0  0  0  0  0  0  0
   26.9134  -20.6640  -13.5569 C   0  0  2  0  0  0  0  0  0  0  0  0
   27.8116  -20.0707  -12.5601 C   0  0  0  0  0  0  0  0  0  0  0  0
   27.0665  -19.0734  -11.7124 C   0  0  0  0  0  0  0  0  0  0  0  0
   26.1262  -19.7097  -10.7692 C   0  0  0  0  0  0  0  0  0  0  0  0
   24.9113  -20.2339  -11.1691 C   0  0  0  0  0  0  0  0  0  0  0  0
   24.1055  -20.8254  -10.2272 C   0  0  0  0  0  0  0  0  0  0  0  0
   24.4381  -20.9271   -8.9037 C   0  0  0  0  0  0  0  0  0  0  0  0
   25.6488  -20.4039   -8.5085 C   0  0  0  0  0  0  0  0  0  0  0  0
   26.4692  -19.8101   -9.4262 C   0  0  0  0  0  0  0  0  0  0  0  0
   28.4879  -21.1181  -11.7724 O   0  0  0  0  0  0  0  0  0  0  0  0
   29.5500  -20.7858  -10.9217 O   0  0  0  0  0  0  0  0  0  0  0  0
  2  1  1  0
  3  2  2  0
  4  2  1  0
  5  4  1  0
  5  6  1  1
  7  8  2  0
  7  5  1  0
  9 10  1  0
 10 12  1  0
 10 11  2  0
 12 13  1  0
 14 13  1  0
 15 14  1  0
 16 15  1  6
 16 17  1  0
 17  7  1  0
 18 16  1  0
 19 18  2  0
 20 18  1  0
 21 20  1  0
 22 23  1  0
 21 22  1  6
 23 28  2  0
 24 25  2  0
 24 23  1  0
 25 26  1  0
 26 27  2  0
 28 27  1  0
 29 21  1  0
 29 30  1  0
 31 29  2  0
M  END
$$$$
