NRF.pdb
     RDKit          3D

 31 31  0  0  1  0  0  0  0  0999 V2000
   25.1783  -25.4970  -16.9584 N   0  0  0  0  0  0  0  0  0  0  0  0
   26.2234  -25.7466  -16.0552 C   0  0  0  0  0  0  0  0  0  0  0  0
   26.6375  -26.8973  -15.7606 O   0  0  0  0  0  0  0  0  0  0  0  0
   26.9009  -24.6117  -15.3916 C   0  0  0  0  0  0  0  0  0  0  0  0
   26.2339  -23.2810  -15.6543 C   0  0  2  0  0  0  0  0  0  0  0  0
   26.4200  -22.7887  -16.9805 N   0  0  0  0  0  0  0  0  0  0  0  0
   26.6246  -22.3322  -14.5914 C   0  0  0  0  0  0  0  0  0  0  0  0
   27.8274  -22.0334  -14.3762 O   0  0  0  0  0  0  0  0  0  0  0  0
   26.3937  -15.4401  -15.0819 N   0  0  0  0  0  0  0  0  0  0  0  0
   25.2459  -15.8765  -15.7875 C   0  0  0  0  0  0  0  0  0  0  0  0
   25.2117  -15.6125  -17.0623 N   0  0  0  0  0  0  0  0  0  0  0  0
   24.1703  -16.5621  -15.1878 N   0  0  0  0  0  0  0  0  0  0  0  0
   24.2916  -17.3173  -13.9415 C   0  0  0  0  0  0  0  0  0  0  0  0
   25.1520  -18.5246  -14.1101 C   0  0  0  0  0  0  0  0  0  0  0  0
   25.2810  -19.3383  -12.9001 C   0  0  0  0  0  0  0  0  0  0  0  0
   26.0367  -20.5968  -12.8636 C   0  0  2  0  0  0  0  0  0  0  0  0
   25.6741  -21.6774  -13.7202 N   0  0  0  0  0  0  0  0  0  0  0  0
   26.1858  -21.1568  -11.4819 C   0  0  0  0  0  0  0  0  0  0  0  0
   25.3831  -22.0112  -11.0370 O   0  0  0  0  0  0  0  0  0  0  0  0
   24.3946  -15.8285  -17.6692 N   0  0  0  0  0  0  0  0  0  0  0  0
   27.2401  -20.7456  -10.6193 C   0  0  2  0  0  0  0  0  0  0  0  0
   27.1510  -20.8859   -9.1616 C   0  0  0  0  0  0  0  0  0  0  0  0
   28.2846  -20.1515   -8.4952 C   0  0  0  0  0  0  0  0  0  0  0  0
   28.2232  -20.2155   -7.0218 C   0  0  0  0  0  0  0  0  0  0  0  0
   28.7756  -21.2557   -6.2982 C   0  0  0  0  0  0  0  0  0  0  0  0
   28.6889  -21.2255   -4.9279 C   0  0  0  0  0  0  0  0  0  0  0  0
   28.0819  -20.2166   -4.2304 C   0  0  0  0  0  0  0  0  0  0  0  0
   27.5326  -19.1821   -4.9541 C   0  0  0  0  0  0  0  0  0  0  0  0
   27.6054  -19.1881   -6.3188 C   0  0  0  0  0  0  0  0  0  0  0  0
   25.8212  -20.4748   -8.6743 O   0  0  0  0  0  0  0  0  0  0  0  0
   25.1288  -21.2736   -7.7552 O   0  0  0  0  0  0  0  0  0  0  0  0
  2  1  1  0
  3  2  2  0
  4  2  1  0
  5  4  1  0
  5  6  1  6
  7  8  2  0
  7  5  1  0
  9 10  1  0
 10 12  1  0
 10 11  2  0
 12 13  1  0
 14 13  1  0
 15 14  1  0
 16 15  1  1
 16 17  1  0
 17  7  1  0
 18 16  1  0
 19 18  2  0
 20 18  1  0
 21 20  1  0
 22 23  1  0
 21 22  1  6
 23 28  2  0
 24 25  2  0
 24 23  1  0
 25 26  1  0
 26 27  2  0
 28 27  1  0
 29 21  1  0
 29 30  1  0
 31 29  2  0
M  END
$$$$
