NRF.pdb
     RDKit          3D

 31 31  0  0  1  0  0  0  0  0999 V2000
   12.3947  -20.1159   -4.2674 N   0  0  0  0  0  0  0  0  0  0  0  0
   12.3684  -21.1014   -3.2681 C   0  0  0  0  0  0  0  0  0  0  0  0
   12.0124  -20.8883   -2.0806 O   0  0  0  0  0  0  0  0  0  0  0  0
   12.7773  -22.4842   -3.5963 C   0  0  0  0  0  0  0  0  0  0  0  0
   13.2266  -22.6505   -5.0298 C   0  0  2  0  0  0  0  0  0  0  0  0
   12.2127  -22.3696   -5.9935 N   0  0  0  0  0  0  0  0  0  0  0  0
   13.8614  -23.9759   -5.1814 C   0  0  0  0  0  0  0  0  0  0  0  0
   13.3232  -24.8987   -5.8456 O   0  0  0  0  0  0  0  0  0  0  0  0
   17.3606  -23.2769  -11.1992 N   0  0  0  0  0  0  0  0  0  0  0  0
   18.3651  -23.9430  -10.4555 C   0  0  0  0  0  0  0  0  0  0  0  0
   19.5704  -23.9113  -10.9476 N   0  0  0  0  0  0  0  0  0  0  0  0
   18.1239  -24.6203   -9.2432 N   0  0  0  0  0  0  0  0  0  0  0  0
   16.7839  -24.8792   -8.7184 C   0  0  0  0  0  0  0  0  0  0  0  0
   16.6807  -24.5266   -7.2722 C   0  0  0  0  0  0  0  0  0  0  0  0
   16.2423  -25.6323   -6.4189 C   0  0  0  0  0  0  0  0  0  0  0  0
   15.8915  -25.4555   -5.0039 C   0  0  2  0  0  0  0  0  0  0  0  0
   15.1340  -24.3215   -4.5880 N   0  0  0  0  0  0  0  0  0  0  0  0
   17.0701  -25.5631   -4.0850 C   0  0  0  0  0  0  0  0  0  0  0  0
   18.0496  -24.7875   -4.1911 O   0  0  0  0  0  0  0  0  0  0  0  0
   20.3895  -24.3537  -10.4830 N   0  0  0  0  0  0  0  0  0  0  0  0
   17.1281  -26.5450   -3.0569 C   0  0  2  0  0  0  0  0  0  0  0  0
   18.2753  -26.6525   -2.1488 C   0  0  0  0  0  0  0  0  0  0  0  0
   17.8475  -27.2492   -0.8338 C   0  0  0  0  0  0  0  0  0  0  0  0
   18.9183  -27.2292    0.1819 C   0  0  0  0  0  0  0  0  0  0  0  0
   18.9662  -26.2897    1.1947 C   0  0  0  0  0  0  0  0  0  0  0  0
   19.9889  -26.3563    2.1090 C   0  0  0  0  0  0  0  0  0  0  0  0
   20.9726  -27.3072    2.0755 C   0  0  0  0  0  0  0  0  0  0  0  0
   20.9222  -28.2413    1.0654 C   0  0  0  0  0  0  0  0  0  0  0  0
   19.9147  -28.1972    0.1429 C   0  0  0  0  0  0  0  0  0  0  0  0
   19.3855  -27.3826   -2.7886 O   0  0  0  0  0  0  0  0  0  0  0  0
   20.7043  -26.9355   -2.6365 O   0  0  0  0  0  0  0  0  0  0  0  0
  2  1  1  0
  3  2  2  0
  4  2  1  0
  5  4  1  0
  5  6  1  6
  7  8  2  0
  7  5  1  0
  9 10  1  0
 10 12  1  0
 10 11  2  0
 12 13  1  0
 14 13  1  0
 15 14  1  0
 16 15  1  6
 16 17  1  0
 17  7  1  0
 18 16  1  0
 19 18  2  0
 20 18  1  0
 21 20  1  0
 22 23  1  0
 21 22  1  6
 23 28  2  0
 24 25  2  0
 24 23  1  0
 25 26  1  0
 26 27  2  0
 28 27  1  0
 29 21  1  0
 29 30  1  0
 31 29  2  0
M  END
$$$$
