NRF.pdb
     RDKit          3D

 31 31  0  0  1  0  0  0  0  0999 V2000
   23.7256  -14.6435  -22.4497 N   0  0  0  0  0  0  0  0  0  0  0  0
   24.0024  -13.3239  -22.8404 C   0  0  0  0  0  0  0  0  0  0  0  0
   24.5473  -13.0138  -23.9309 O   0  0  0  0  0  0  0  0  0  0  0  0
   23.6451  -12.2063  -21.9401 C   0  0  0  0  0  0  0  0  0  0  0  0
   22.6084  -11.2751  -22.5255 C   0  0  2  0  0  0  0  0  0  0  0  0
   23.0616  -10.5409  -23.6619 N   0  0  0  0  0  0  0  0  0  0  0  0
   22.0503  -10.4394  -21.4426 C   0  0  0  0  0  0  0  0  0  0  0  0
   22.5930   -9.3613  -21.0881 O   0  0  0  0  0  0  0  0  0  0  0  0
   15.6207  -10.3592  -16.7751 N   0  0  0  0  0  0  0  0  0  0  0  0
   15.6949   -8.9704  -16.5081 C   0  0  0  0  0  0  0  0  0  0  0  0
   15.0523   -8.5449  -15.4584 N   0  0  0  0  0  0  0  0  0  0  0  0
   16.4108   -8.0555  -17.3063 N   0  0  0  0  0  0  0  0  0  0  0  0
   17.1313   -8.4379  -18.5200 C   0  0  0  0  0  0  0  0  0  0  0  0
   18.3039   -9.3082  -18.2138 C   0  0  0  0  0  0  0  0  0  0  0  0
   18.8825   -9.9635  -19.3880 C   0  0  0  0  0  0  0  0  0  0  0  0
   20.3227   -9.9562  -19.6752 C   0  0  2  0  0  0  0  0  0  0  0  0
   20.8533  -10.7836  -20.7080 N   0  0  0  0  0  0  0  0  0  0  0  0
   21.1692  -10.1690  -18.4574 C   0  0  0  0  0  0  0  0  0  0  0  0
   21.4713  -11.3225  -18.0695 O   0  0  0  0  0  0  0  0  0  0  0  0
   15.0324   -7.5466  -15.1658 N   0  0  0  0  0  0  0  0  0  0  0  0
   21.6650   -9.0764  -17.6924 C   0  0  2  0  0  0  0  0  0  0  0  0
   22.6736   -9.2571  -16.6424 C   0  0  0  0  0  0  0  0  0  0  0  0
   23.8803   -9.9704  -17.1933 C   0  0  0  0  0  0  0  0  0  0  0  0
   24.9796  -10.0798  -16.2145 C   0  0  0  0  0  0  0  0  0  0  0  0
   25.0941  -11.1438  -15.3395 C   0  0  0  0  0  0  0  0  0  0  0  0
   26.1600  -11.1749  -14.4740 C   0  0  0  0  0  0  0  0  0  0  0  0
   27.1243  -10.2050  -14.4266 C   0  0  0  0  0  0  0  0  0  0  0  0
   27.0073   -9.1465  -15.2992 C   0  0  0  0  0  0  0  0  0  0  0  0
   25.9560   -9.0919  -16.1707 C   0  0  0  0  0  0  0  0  0  0  0  0
   22.9980   -7.9708  -15.9983 O   0  0  0  0  0  0  0  0  0  0  0  0
   22.9103   -6.7762  -16.7245 O   0  0  0  0  0  0  0  0  0  0  0  0
  2  1  1  0
  3  2  2  0
  4  2  1  0
  5  4  1  0
  5  6  1  6
  7  8  2  0
  7  5  1  0
  9 10  1  0
 10 12  1  0
 10 11  2  0
 12 13  1  0
 14 13  1  0
 15 14  1  0
 16 15  1  1
 16 17  1  0
 17  7  1  0
 18 16  1  0
 19 18  2  0
 20 18  1  0
 21 20  1  0
 22 23  1  0
 21 22  1  6
 23 28  2  0
 24 25  2  0
 24 23  1  0
 25 26  1  0
 26 27  2  0
 28 27  1  0
 29 21  1  0
 29 30  1  0
 31 29  2  0
M  END
$$$$
