GQN.pdb
     RDKit          3D

 22 21  0  0  1  0  0  0  0  0999 V2000
   22.6141  -15.9549  -15.9686 N   0  0  0  0  0  0  0  0  0  0  0  0
   23.4128  -15.1963  -16.9236 C   0  0  0  0  0  0  0  0  0  0  0  0
   23.9012  -13.9446  -16.2891 C   0  0  0  0  0  0  0  0  0  0  0  0
   23.4549  -13.4779  -15.2252 O   0  0  0  0  0  0  0  0  0  0  0  0
   29.4567  -11.2880  -17.5463 N   0  0  0  0  0  0  0  0  0  0  0  0
   28.8714  -10.3852  -16.6188 C   0  0  0  0  0  0  0  0  0  0  0  0
   29.5054   -9.4572  -16.0922 O   0  0  0  0  0  0  0  0  0  0  0  0
   27.4399  -10.5713  -16.2743 C   0  0  0  0  0  0  0  0  0  0  0  0
   26.9077  -11.8776  -16.8796 C   0  0  0  0  0  0  0  0  0  0  0  0
   25.4542  -11.9695  -16.4757 C   0  0  2  0  0  0  0  0  0  0  0  0
   24.9437  -13.2321  -16.9346 N   0  0  0  0  0  0  0  0  0  0  0  0
   24.6627  -10.8162  -16.9519 C   0  0  0  0  0  0  0  0  0  0  0  0
   24.2485  -10.7461  -18.1310 O   0  0  0  0  0  0  0  0  0  0  0  0
   20.5575   -6.8396  -15.4743 N   0  0  0  0  0  0  0  0  0  0  0  0
   21.9495   -6.8394  -15.7853 C   0  0  0  0  0  0  0  0  0  0  0  0
   22.4129   -5.8173  -16.3348 O   0  0  0  0  0  0  0  0  0  0  0  0
   22.7522   -8.0263  -15.4462 C   0  0  0  0  0  0  0  0  0  0  0  0
   23.5484   -8.6218  -16.5448 C   0  0  2  0  0  0  0  0  0  0  0  0
   24.3579   -9.7598  -16.0676 N   0  0  0  0  0  0  0  0  0  0  0  0
   24.4416   -7.6583  -17.2568 C   0  0  0  0  0  0  0  0  0  0  0  0
   23.9128   -6.9917  -18.3679 O   0  0  0  0  0  0  0  0  0  0  0  0
   25.6075   -7.3863  -16.9623 O   0  0  0  0  0  0  0  0  0  0  0  0
  2  1  1  0
  2  3  1  0
  3  4  2  0
  3 11  1  0
  6  5  1  0
  6  7  2  0
  8  6  1  0
  9  8  1  0
 10 12  1  0
 10  9  1  6
 11 10  1  0
 12 13  2  0
 15 14  1  0
 16 15  2  0
 17 15  1  0
 18 17  1  1
 19 12  1  0
 19 18  1  0
 20 21  1  0
 20 18  1  0
 22 20  2  0
M  END
$$$$
