GQN.pdb
     RDKit          3D

 22 21  0  0  1  0  0  0  0  0999 V2000
   27.3702  -18.5171  -15.3869 N   0  0  0  0  0  0  0  0  0  0  0  0
   26.3215  -18.3106  -14.3953 C   0  0  0  0  0  0  0  0  0  0  0  0
   25.4267  -19.4962  -14.3549 C   0  0  0  0  0  0  0  0  0  0  0  0
   25.2101  -20.2441  -15.3257 O   0  0  0  0  0  0  0  0  0  0  0  0
   25.8831  -20.5365   -9.8765 N   0  0  0  0  0  0  0  0  0  0  0  0
   26.4727  -21.4001  -10.8378 C   0  0  0  0  0  0  0  0  0  0  0  0
   27.6976  -21.5858  -10.9134 O   0  0  0  0  0  0  0  0  0  0  0  0
   25.5736  -22.1041  -11.7858 C   0  0  0  0  0  0  0  0  0  0  0  0
   24.1401  -21.5694  -11.6637 C   0  0  0  0  0  0  0  0  0  0  0  0
   23.8353  -20.8740  -12.9704 C   0  0  2  0  0  0  0  0  0  0  0  0
   24.7749  -19.7987  -13.1322 N   0  0  0  0  0  0  0  0  0  0  0  0
   22.4279  -20.4327  -13.0594 C   0  0  0  0  0  0  0  0  0  0  0  0
   22.0984  -19.2432  -12.8517 O   0  0  0  0  0  0  0  0  0  0  0  0
   17.6480  -19.8172  -14.7307 N   0  0  0  0  0  0  0  0  0  0  0  0
   18.8478  -19.4224  -15.3933 C   0  0  0  0  0  0  0  0  0  0  0  0
   18.7340  -18.6610  -16.3776 O   0  0  0  0  0  0  0  0  0  0  0  0
   20.1359  -19.9261  -14.8880 C   0  0  0  0  0  0  0  0  0  0  0  0
   20.0745  -20.8796  -13.7555 C   0  0  2  0  0  0  0  0  0  0  0  0
   21.4187  -21.3634  -13.3855 N   0  0  0  0  0  0  0  0  0  0  0  0
   19.1829  -22.0571  -13.9832 C   0  0  0  0  0  0  0  0  0  0  0  0
   19.4744  -22.8828  -15.0749 O   0  0  0  0  0  0  0  0  0  0  0  0
   18.2084  -22.3801  -13.3007 O   0  0  0  0  0  0  0  0  0  0  0  0
  2  1  1  0
  2  3  1  0
  3  4  2  0
  3 11  1  0
  6  5  1  0
  6  7  2  0
  8  6  1  0
  9  8  1  0
 10 12  1  0
 10  9  1  1
 11 10  1  0
 12 13  2  0
 15 14  1  0
 16 15  2  0
 17 15  1  0
 18 17  1  6
 19 12  1  0
 19 18  1  0
 20 21  1  0
 20 18  1  0
 22 20  2  0
M  END
$$$$
