GQN.pdb
     RDKit          3D

 22 21  0  0  1  0  0  0  0  0999 V2000
   19.6342  -12.5547  -21.3291 N   0  0  0  0  0  0  0  0  0  0  0  0
   20.4728  -11.7398  -20.4582 C   0  0  0  0  0  0  0  0  0  0  0  0
   19.6527  -11.1735  -19.3561 C   0  0  0  0  0  0  0  0  0  0  0  0
   18.9098  -10.1820  -19.4737 O   0  0  0  0  0  0  0  0  0  0  0  0
   17.8156  -14.6211  -14.6513 N   0  0  0  0  0  0  0  0  0  0  0  0
   16.9914  -14.2421  -15.7444 C   0  0  0  0  0  0  0  0  0  0  0  0
   15.9704  -14.8702  -16.0662 O   0  0  0  0  0  0  0  0  0  0  0  0
   17.3796  -13.0416  -16.5259 C   0  0  0  0  0  0  0  0  0  0  0  0
   18.7226  -12.4889  -16.0290 C   0  0  0  0  0  0  0  0  0  0  0  0
   19.0474  -11.3077  -16.9141 C   0  0  2  0  0  0  0  0  0  0  0  0
   19.7181  -11.8005  -18.0857 N   0  0  0  0  0  0  0  0  0  0  0  0
   19.8142  -10.2641  -16.2027 C   0  0  0  0  0  0  0  0  0  0  0  0
   21.0480  -10.1302  -16.3652 O   0  0  0  0  0  0  0  0  0  0  0  0
   22.5423   -6.0553  -15.1297 N   0  0  0  0  0  0  0  0  0  0  0  0
   21.1193   -6.1515  -15.1308 C   0  0  0  0  0  0  0  0  0  0  0  0
   20.4796   -5.1788  -14.6768 O   0  0  0  0  0  0  0  0  0  0  0  0
   20.4914   -7.3739  -15.6596 C   0  0  0  0  0  0  0  0  0  0  0  0
   19.9126   -8.3044  -14.6623 C   0  0  2  0  0  0  0  0  0  0  0  0
   19.1535   -9.3889  -15.3146 N   0  0  0  0  0  0  0  0  0  0  0  0
   19.0410   -7.6529  -13.6381 C   0  0  0  0  0  0  0  0  0  0  0  0
   19.6737   -7.0476  -12.5464 O   0  0  0  0  0  0  0  0  0  0  0  0
   17.8098   -7.5917  -13.6568 O   0  0  0  0  0  0  0  0  0  0  0  0
  2  1  1  0
  2  3  1  0
  3  4  2  0
  3 11  1  0
  6  5  1  0
  6  7  2  0
  8  6  1  0
  9  8  1  0
 10 12  1  0
 10  9  1  1
 11 10  1  0
 12 13  2  0
 15 14  1  0
 16 15  2  0
 17 15  1  0
 18 17  1  6
 19 12  1  0
 19 18  1  0
 20 21  1  0
 20 18  1  0
 22 20  2  0
M  END
$$$$
