GQN.pdb
     RDKit          3D

 22 21  0  0  1  0  0  0  0  0999 V2000
   21.6184  -15.6992  -17.9380 N   0  0  0  0  0  0  0  0  0  0  0  0
   21.8933  -14.4308  -18.6022 C   0  0  0  0  0  0  0  0  0  0  0  0
   22.3113  -13.4176  -17.5990 C   0  0  0  0  0  0  0  0  0  0  0  0
   21.7124  -13.2017  -16.5296 O   0  0  0  0  0  0  0  0  0  0  0  0
   28.1154  -11.0996  -17.2135 N   0  0  0  0  0  0  0  0  0  0  0  0
   27.4179  -10.3239  -16.2493 C   0  0  0  0  0  0  0  0  0  0  0  0
   27.9870   -9.5215  -15.4924 O   0  0  0  0  0  0  0  0  0  0  0  0
   25.9462  -10.4902  -16.1542 C   0  0  0  0  0  0  0  0  0  0  0  0
   25.4539  -11.5141  -17.1862 C   0  0  0  0  0  0  0  0  0  0  0  0
   23.9546  -11.5989  -17.0160 C   0  0  2  0  0  0  0  0  0  0  0  0
   23.4676  -12.6438  -17.8740 N   0  0  0  0  0  0  0  0  0  0  0  0
   23.2868  -10.3011  -17.2459 C   0  0  0  0  0  0  0  0  0  0  0  0
   23.2421   -9.7778  -18.3821 O   0  0  0  0  0  0  0  0  0  0  0  0
   20.2775   -6.1924  -17.0600 N   0  0  0  0  0  0  0  0  0  0  0  0
   19.7457   -7.2300  -16.2386 C   0  0  0  0  0  0  0  0  0  0  0  0
   18.5454   -7.1366  -15.9039 O   0  0  0  0  0  0  0  0  0  0  0  0
   20.6276   -8.3385  -15.8362 C   0  0  0  0  0  0  0  0  0  0  0  0
   21.9935   -8.3384  -16.4104 C   0  0  2  0  0  0  0  0  0  0  0  0
   22.6796   -9.6223  -16.1681 N   0  0  0  0  0  0  0  0  0  0  0  0
   22.8681   -7.2253  -15.9314 C   0  0  0  0  0  0  0  0  0  0  0  0
   24.0801   -7.5750  -15.3255 O   0  0  0  0  0  0  0  0  0  0  0  0
   22.6301   -6.0186  -16.0172 O   0  0  0  0  0  0  0  0  0  0  0  0
  2  1  1  0
  2  3  1  0
  3  4  2  0
  3 11  1  0
  6  5  1  0
  6  7  2  0
  8  6  1  0
  9  8  1  0
 10 12  1  0
 10  9  1  6
 11 10  1  0
 12 13  2  0
 15 14  1  0
 16 15  2  0
 17 15  1  0
 18 17  1  1
 19 12  1  0
 19 18  1  0
 20 21  1  0
 20 18  1  0
 22 20  2  0
M  END
$$$$
