GQN.pdb
     RDKit          3D

 22 21  0  0  1  0  0  0  0  0999 V2000
   10.3016  -11.6553   -9.6434 N   0  0  0  0  0  0  0  0  0  0  0  0
   10.7583  -10.8692  -10.7832 C   0  0  0  0  0  0  0  0  0  0  0  0
   12.2329  -10.6985  -10.7184 C   0  0  0  0  0  0  0  0  0  0  0  0
   12.9111  -10.8495   -9.6859 O   0  0  0  0  0  0  0  0  0  0  0  0
   17.1949  -12.0091  -13.3719 N   0  0  0  0  0  0  0  0  0  0  0  0
   16.0783  -12.8649  -13.1754 C   0  0  0  0  0  0  0  0  0  0  0  0
   16.1878  -14.0947  -13.0483 O   0  0  0  0  0  0  0  0  0  0  0  0
   14.7293  -12.2485  -13.1217 C   0  0  0  0  0  0  0  0  0  0  0  0
   14.8283  -10.7253  -13.2830 C   0  0  0  0  0  0  0  0  0  0  0  0
   14.3356  -10.1295  -11.9844 C   0  0  2  0  0  0  0  0  0  0  0  0
   12.9160  -10.3401  -11.9085 N   0  0  0  0  0  0  0  0  0  0  0  0
   14.7204   -8.7110  -11.8331 C   0  0  0  0  0  0  0  0  0  0  0  0
   14.0301   -7.7877  -12.3208 O   0  0  0  0  0  0  0  0  0  0  0  0
   15.5025   -7.6552   -7.5953 N   0  0  0  0  0  0  0  0  0  0  0  0
   15.5326   -6.6361   -8.5927 C   0  0  0  0  0  0  0  0  0  0  0  0
   14.6118   -5.7915   -8.5758 O   0  0  0  0  0  0  0  0  0  0  0  0
   16.6313   -6.6352   -9.5730 C   0  0  0  0  0  0  0  0  0  0  0  0
   16.2678   -6.9531  -10.9738 C   0  0  2  0  0  0  0  0  0  0  0  0
   15.8923   -8.3724  -11.1239 N   0  0  0  0  0  0  0  0  0  0  0  0
   17.3234   -6.6237  -11.9790 C   0  0  0  0  0  0  0  0  0  0  0  0
   17.7203   -5.2854  -12.0796 O   0  0  0  0  0  0  0  0  0  0  0  0
   17.8874   -7.4175  -12.7351 O   0  0  0  0  0  0  0  0  0  0  0  0
  2  1  1  0
  2  3  1  0
  3  4  2  0
  3 11  1  0
  6  5  1  0
  6  7  2  0
  8  6  1  0
  9  8  1  0
 10 12  1  0
 10  9  1  6
 11 10  1  0
 12 13  2  0
 15 14  1  0
 16 15  2  0
 17 15  1  0
 18 17  1  1
 19 12  1  0
 19 18  1  0
 20 21  1  0
 20 18  1  0
 22 20  2  0
M  END
$$$$
