GQN.pdb
     RDKit          3D

 22 21  0  0  1  0  0  0  0  0999 V2000
   21.1877  -20.5942  -12.3564 N   0  0  0  0  0  0  0  0  0  0  0  0
   22.1625  -21.4444  -13.0292 C   0  0  0  0  0  0  0  0  0  0  0  0
   23.3758  -20.6535  -13.3612 C   0  0  0  0  0  0  0  0  0  0  0  0
   23.3850  -19.6725  -14.1270 O   0  0  0  0  0  0  0  0  0  0  0  0
   25.1347  -21.8400  -10.3713 N   0  0  0  0  0  0  0  0  0  0  0  0
   25.7129  -20.5787  -10.0668 C   0  0  0  0  0  0  0  0  0  0  0  0
   25.4102  -19.9270   -9.0548 O   0  0  0  0  0  0  0  0  0  0  0  0
   26.7205  -20.0291  -11.0076 C   0  0  0  0  0  0  0  0  0  0  0  0
   26.9213  -20.9806  -12.1952 C   0  0  0  0  0  0  0  0  0  0  0  0
   25.8910  -20.5896  -13.2294 C   0  0  2  0  0  0  0  0  0  0  0  0
   24.6057  -21.0381  -12.7690 N   0  0  0  0  0  0  0  0  0  0  0  0
   26.2297  -21.0871  -14.5788 C   0  0  0  0  0  0  0  0  0  0  0  0
   25.7829  -22.1742  -15.0091 O   0  0  0  0  0  0  0  0  0  0  0  0
   23.9181  -19.2346  -19.0292 N   0  0  0  0  0  0  0  0  0  0  0  0
   24.8132  -20.1634  -18.4207 C   0  0  0  0  0  0  0  0  0  0  0  0
   25.0795  -21.2040  -19.0593 O   0  0  0  0  0  0  0  0  0  0  0  0
   25.3664  -19.8495  -17.0927 C   0  0  0  0  0  0  0  0  0  0  0  0
   26.7783  -20.2323  -16.8573 C   0  0  2  0  0  0  0  0  0  0  0  0
   27.0767  -20.3294  -15.4152 N   0  0  0  0  0  0  0  0  0  0  0  0
   27.7814  -19.3291  -17.4985 C   0  0  0  0  0  0  0  0  0  0  0  0
   27.6825  -17.9604  -17.2239 O   0  0  0  0  0  0  0  0  0  0  0  0
   28.6971  -19.6690  -18.2507 O   0  0  0  0  0  0  0  0  0  0  0  0
  2  1  1  0
  2  3  1  0
  3  4  2  0
  3 11  1  0
  6  5  1  0
  6  7  2  0
  8  6  1  0
  9  8  1  0
 10 12  1  0
 10  9  1  1
 11 10  1  0
 12 13  2  0
 15 14  1  0
 16 15  2  0
 17 15  1  0
 18 17  1  1
 19 12  1  0
 19 18  1  0
 20 21  1  0
 20 18  1  0
 22 20  2  0
M  END
$$$$
