GQN.pdb
     RDKit          3D

 22 21  0  0  1  0  0  0  0  0999 V2000
   15.5605  -12.4722  -14.2723 N   0  0  0  0  0  0  0  0  0  0  0  0
   15.5191  -11.0150  -14.2499 C   0  0  0  0  0  0  0  0  0  0  0  0
   16.7229  -10.4670  -14.9271 C   0  0  0  0  0  0  0  0  0  0  0  0
   17.8161  -11.0574  -14.9993 O   0  0  0  0  0  0  0  0  0  0  0  0
   16.6958   -7.8189  -20.1836 N   0  0  0  0  0  0  0  0  0  0  0  0
   16.8265   -9.1749  -19.7809 C   0  0  0  0  0  0  0  0  0  0  0  0
   16.6737  -10.1263  -20.5632 O   0  0  0  0  0  0  0  0  0  0  0  0
   17.1604   -9.4508  -18.3614 C   0  0  0  0  0  0  0  0  0  0  0  0
   17.2781   -8.1391  -17.5730 C   0  0  0  0  0  0  0  0  0  0  0  0
   17.7203   -8.5215  -16.1794 C   0  0  2  0  0  0  0  0  0  0  0  0
   16.6241   -9.1879  -15.5317 N   0  0  0  0  0  0  0  0  0  0  0  0
   18.2311   -7.3661  -15.4130 C   0  0  0  0  0  0  0  0  0  0  0  0
   17.4931   -6.7109  -14.6430 O   0  0  0  0  0  0  0  0  0  0  0  0
   21.4137   -3.7491  -13.3917 N   0  0  0  0  0  0  0  0  0  0  0  0
   21.8772   -5.0823  -13.1868 C   0  0  0  0  0  0  0  0  0  0  0  0
   22.7971   -5.2472  -12.3574 O   0  0  0  0  0  0  0  0  0  0  0  0
   21.2548   -6.1752  -13.9527 C   0  0  0  0  0  0  0  0  0  0  0  0
   20.0811   -5.8160  -14.7826 C   0  0  2  0  0  0  0  0  0  0  0  0
   19.5819   -6.9791  -15.5415 N   0  0  0  0  0  0  0  0  0  0  0  0
   20.3142   -4.6845  -15.7306 C   0  0  0  0  0  0  0  0  0  0  0  0
   20.0435   -3.3918  -15.2680 O   0  0  0  0  0  0  0  0  0  0  0  0
   20.7260   -4.7734  -16.8893 O   0  0  0  0  0  0  0  0  0  0  0  0
  2  1  1  0
  2  3  1  0
  3  4  2  0
  3 11  1  0
  6  5  1  0
  6  7  2  0
  8  6  1  0
  9  8  1  0
 10 12  1  0
 10  9  1  6
 11 10  1  0
 12 13  2  0
 15 14  1  0
 16 15  2  0
 17 15  1  0
 18 17  1  6
 19 12  1  0
 19 18  1  0
 20 21  1  0
 20 18  1  0
 22 20  2  0
M  END
$$$$
