GQN.pdb
     RDKit          3D

 22 21  0  0  1  0  0  0  0  0999 V2000
   13.1245  -13.3438  -14.2013 N   0  0  0  0  0  0  0  0  0  0  0  0
   13.2751  -11.9410  -14.5691 C   0  0  0  0  0  0  0  0  0  0  0  0
   14.4704  -11.3699  -13.8963 C   0  0  0  0  0  0  0  0  0  0  0  0
   15.0594  -11.9061  -12.9400 O   0  0  0  0  0  0  0  0  0  0  0  0
   18.8452   -7.9709  -16.3013 N   0  0  0  0  0  0  0  0  0  0  0  0
   19.0179   -7.6137  -14.9373 C   0  0  0  0  0  0  0  0  0  0  0  0
   20.0558   -7.0868  -14.5064 O   0  0  0  0  0  0  0  0  0  0  0  0
   17.9014   -7.8880  -13.9988 C   0  0  0  0  0  0  0  0  0  0  0  0
   16.7348   -8.5613  -14.7347 C   0  0  0  0  0  0  0  0  0  0  0  0
   15.9916   -9.3713  -13.6976 C   0  0  2  0  0  0  0  0  0  0  0  0
   14.9764  -10.1332  -14.3715 N   0  0  0  0  0  0  0  0  0  0  0  0
   15.4578   -8.5334  -12.6039 C   0  0  0  0  0  0  0  0  0  0  0  0
   14.2484   -8.2152  -12.5509 O   0  0  0  0  0  0  0  0  0  0  0  0
   14.7730   -6.3164   -8.0005 N   0  0  0  0  0  0  0  0  0  0  0  0
   14.2321   -7.5519   -8.4646 C   0  0  0  0  0  0  0  0  0  0  0  0
   13.3531   -8.0924   -7.7599 O   0  0  0  0  0  0  0  0  0  0  0  0
   14.7318   -8.1140   -9.7305 C   0  0  0  0  0  0  0  0  0  0  0  0
   15.7624   -7.3236  -10.4437 C   0  0  2  0  0  0  0  0  0  0  0  0
   16.3201   -8.0725  -11.5866 N   0  0  0  0  0  0  0  0  0  0  0  0
   16.8872   -6.8491   -9.5818 C   0  0  0  0  0  0  0  0  0  0  0  0
   16.7644   -5.5798   -9.0054 O   0  0  0  0  0  0  0  0  0  0  0  0
   17.9218   -7.4674   -9.3225 O   0  0  0  0  0  0  0  0  0  0  0  0
  2  1  1  0
  2  3  1  0
  3  4  2  0
  3 11  1  0
  6  5  1  0
  6  7  2  0
  8  6  1  0
  9  8  1  0
 10 12  1  0
 10  9  1  6
 11 10  1  0
 12 13  2  0
 15 14  1  0
 16 15  2  0
 17 15  1  0
 18 17  1  1
 19 12  1  0
 19 18  1  0
 20 21  1  0
 20 18  1  0
 22 20  2  0
M  END
$$$$
