GQN.pdb
     RDKit          3D

 22 21  0  0  1  0  0  0  0  0999 V2000
   21.3084  -13.3735  -18.8843 N   0  0  0  0  0  0  0  0  0  0  0  0
   22.1351  -12.1727  -18.8665 C   0  0  0  0  0  0  0  0  0  0  0  0
   22.4055  -11.7687  -17.4624 C   0  0  0  0  0  0  0  0  0  0  0  0
   21.7399  -12.1508  -16.4827 O   0  0  0  0  0  0  0  0  0  0  0  0
   27.9283  -10.6351  -15.3772 N   0  0  0  0  0  0  0  0  0  0  0  0
   27.2235  -11.8325  -15.6722 C   0  0  0  0  0  0  0  0  0  0  0  0
   27.7820  -12.9376  -15.7588 O   0  0  0  0  0  0  0  0  0  0  0  0
   25.7572  -11.7436  -15.8834 C   0  0  0  0  0  0  0  0  0  0  0  0
   25.2849  -10.2882  -15.7632 C   0  0  0  0  0  0  0  0  0  0  0  0
   23.7835  -10.3152  -15.9340 C   0  0  2  0  0  0  0  0  0  0  0  0
   23.4919  -10.8904  -17.2182 N   0  0  0  0  0  0  0  0  0  0  0  0
   23.1702   -8.9847  -15.7416 C   0  0  0  0  0  0  0  0  0  0  0  0
   23.0091   -8.1917  -16.6966 O   0  0  0  0  0  0  0  0  0  0  0  0
   21.0640   -4.6469  -14.1947 N   0  0  0  0  0  0  0  0  0  0  0  0
   22.3535   -4.8218  -14.7787 C   0  0  0  0  0  0  0  0  0  0  0  0
   22.9385   -3.7977  -15.1914 O   0  0  0  0  0  0  0  0  0  0  0  0
   22.9163   -6.1800  -14.8616 C   0  0  0  0  0  0  0  0  0  0  0  0
   22.0999   -7.2706  -14.2789 C   0  0  2  0  0  0  0  0  0  0  0  0
   22.7504   -8.5835  -14.4556 N   0  0  0  0  0  0  0  0  0  0  0  0
   20.7031   -7.3489  -14.8042 C   0  0  0  0  0  0  0  0  0  0  0  0
   20.4309   -8.3306  -15.7637 O   0  0  0  0  0  0  0  0  0  0  0  0
   19.7560   -6.6316  -14.4748 O   0  0  0  0  0  0  0  0  0  0  0  0
  2  1  1  0
  2  3  1  0
  3  4  2  0
  3 11  1  0
  6  5  1  0
  6  7  2  0
  8  6  1  0
  9  8  1  0
 10 12  1  0
 10  9  1  6
 11 10  1  0
 12 13  2  0
 15 14  1  0
 16 15  2  0
 17 15  1  0
 18 17  1  6
 19 12  1  0
 19 18  1  0
 20 21  1  0
 20 18  1  0
 22 20  2  0
M  END
$$$$
