GQN.pdb
     RDKit          3D

 22 21  0  0  1  0  0  0  0  0999 V2000
   26.7873  -27.5035  -16.3625 N   0  0  0  0  0  0  0  0  0  0  0  0
   25.8732  -26.5347  -16.9554 C   0  0  0  0  0  0  0  0  0  0  0  0
   25.5326  -25.4880  -15.9573 C   0  0  0  0  0  0  0  0  0  0  0  0
   25.3245  -25.7113  -14.7508 O   0  0  0  0  0  0  0  0  0  0  0  0
   27.6414  -19.9483  -16.9323 N   0  0  0  0  0  0  0  0  0  0  0  0
   28.2804  -21.1135  -16.4305 C   0  0  0  0  0  0  0  0  0  0  0  0
   29.5146  -21.2371  -16.3856 O   0  0  0  0  0  0  0  0  0  0  0  0
   27.4232  -22.2223  -15.9423 C   0  0  0  0  0  0  0  0  0  0  0  0
   25.9403  -21.8403  -16.0466 C   0  0  0  0  0  0  0  0  0  0  0  0
   25.1600  -23.0313  -15.5401 C   0  0  2  0  0  0  0  0  0  0  0  0
   25.4375  -24.1454  -16.4045 N   0  0  0  0  0  0  0  0  0  0  0  0
   23.7164  -22.7450  -15.4083 C   0  0  0  0  0  0  0  0  0  0  0  0
   22.9068  -23.0172  -16.3233 O   0  0  0  0  0  0  0  0  0  0  0  0
   18.9151  -22.5866  -12.3127 N   0  0  0  0  0  0  0  0  0  0  0  0
   19.8722  -21.5549  -12.5451 C   0  0  0  0  0  0  0  0  0  0  0  0
   19.4546  -20.3772  -12.5493 O   0  0  0  0  0  0  0  0  0  0  0  0
   21.2795  -21.9291  -12.7636 C   0  0  0  0  0  0  0  0  0  0  0  0
   21.7981  -21.7745  -14.1430 C   0  0  2  0  0  0  0  0  0  0  0  0
   23.2228  -22.1501  -14.2279 N   0  0  0  0  0  0  0  0  0  0  0  0
   21.6233  -20.4082  -14.7223 C   0  0  0  0  0  0  0  0  0  0  0  0
   20.4848  -20.1820  -15.5041 O   0  0  0  0  0  0  0  0  0  0  0  0
   22.3855  -19.4497  -14.5798 O   0  0  0  0  0  0  0  0  0  0  0  0
  2  1  1  0
  2  3  1  0
  3  4  2  0
  3 11  1  0
  6  5  1  0
  6  7  2  0
  8  6  1  0
  9  8  1  0
 10 12  1  0
 10  9  1  6
 11 10  1  0
 12 13  2  0
 15 14  1  0
 16 15  2  0
 17 15  1  0
 18 17  1  1
 19 12  1  0
 19 18  1  0
 20 21  1  0
 20 18  1  0
 22 20  2  0
M  END
$$$$
