GQN.pdb
     RDKit          3D

 22 21  0  0  1  0  0  0  0  0999 V2000
   12.3805  -11.1968   -9.2113 N   0  0  0  0  0  0  0  0  0  0  0  0
   13.5278  -10.5462   -8.5897 C   0  0  0  0  0  0  0  0  0  0  0  0
   13.6317   -9.1436   -9.0692 C   0  0  0  0  0  0  0  0  0  0  0  0
   13.0277   -8.6955  -10.0608 O   0  0  0  0  0  0  0  0  0  0  0  0
   13.7379   -4.2119   -5.6646 N   0  0  0  0  0  0  0  0  0  0  0  0
   14.1023   -3.6464   -6.9157 C   0  0  0  0  0  0  0  0  0  0  0  0
   14.1176   -2.4225   -7.1215 O   0  0  0  0  0  0  0  0  0  0  0  0
   14.4785   -4.5704   -8.0145 C   0  0  0  0  0  0  0  0  0  0  0  0
   14.4979   -6.0209   -7.5131 C   0  0  0  0  0  0  0  0  0  0  0  0
   14.7025   -6.8878   -8.7341 C   0  0  2  0  0  0  0  0  0  0  0  0
   14.4730   -8.2544   -8.3532 N   0  0  0  0  0  0  0  0  0  0  0  0
   16.0228   -6.6746   -9.3621 C   0  0  0  0  0  0  0  0  0  0  0  0
   17.0879   -6.8857   -8.7393 O   0  0  0  0  0  0  0  0  0  0  0  0
   20.1344   -6.8963  -11.2598 N   0  0  0  0  0  0  0  0  0  0  0  0
   19.2050   -7.7889  -11.8712 C   0  0  0  0  0  0  0  0  0  0  0  0
   19.6386   -8.9005  -12.2424 O   0  0  0  0  0  0  0  0  0  0  0  0
   17.8059   -7.3577  -12.0287 C   0  0  0  0  0  0  0  0  0  0  0  0
   17.4209   -6.0999  -11.3465 C   0  0  2  0  0  0  0  0  0  0  0  0
   16.1018   -6.2220  -10.6962 N   0  0  0  0  0  0  0  0  0  0  0  0
   17.4156   -4.8927  -12.2272 C   0  0  0  0  0  0  0  0  0  0  0  0
   18.6507   -4.3006  -12.5142 O   0  0  0  0  0  0  0  0  0  0  0  0
   16.4255   -4.3602  -12.7333 O   0  0  0  0  0  0  0  0  0  0  0  0
  2  1  1  0
  2  3  1  0
  3  4  2  0
  3 11  1  0
  6  5  1  0
  6  7  2  0
  8  6  1  0
  9  8  1  0
 10 12  1  0
 10  9  1  1
 11 10  1  0
 12 13  2  0
 15 14  1  0
 16 15  2  0
 17 15  1  0
 18 17  1  6
 19 12  1  0
 19 18  1  0
 20 21  1  0
 20 18  1  0
 22 20  2  0
M  END
$$$$
