YNF.pdb
     RDKit          3D

 32 33  0  0  1  0  0  0  0  0999 V2000
    8.2199  -12.5301   16.6276 O   0  0  0  0  0  0  0  0  0  0  0  0
    8.0960  -13.1419   17.8733 C   0  0  0  0  0  0  0  0  0  0  0  0
    7.1009  -12.7285   18.7341 C   0  0  0  0  0  0  0  0  0  0  0  0
    6.9553  -13.3103   19.9633 C   0  0  0  0  0  0  0  0  0  0  0  0
    7.7941  -14.3308   20.3922 C   0  0  0  0  0  0  0  0  0  0  0  0
    7.6097  -14.9377   21.7301 C   0  0  0  0  0  0  0  0  0  0  0  0
    7.5365  -16.4633   21.6149 C   0  0  2  0  0  0  0  0  0  0  0  0
    6.2217  -16.8424   21.1888 N   0  0  0  0  0  0  0  0  0  0  0  0
    7.9172  -17.0837   22.9105 C   0  0  0  0  0  0  0  0  0  0  0  0
    7.0777  -17.0681   23.8465 O   0  0  0  0  0  0  0  0  0  0  0  0
    8.7764  -14.7231   19.5153 C   0  0  0  0  0  0  0  0  0  0  0  0
    8.9452  -14.1536   18.2707 C   0  0  0  0  0  0  0  0  0  0  0  0
   12.8064  -19.4740   23.6293 N   0  0  0  0  0  0  0  0  0  0  0  0
   11.4242  -19.4811   23.3545 C   0  0  0  0  0  0  0  0  0  0  0  0
   11.0925  -19.4802   22.1271 O   0  0  0  0  0  0  0  0  0  0  0  0
   10.3368  -19.4892   24.3297 C   0  0  0  0  0  0  0  0  0  0  0  0
    9.5770  -18.1881   24.4029 C   0  0  2  0  0  0  0  0  0  0  0  0
    9.1873  -17.6891   23.1244 N   0  0  0  0  0  0  0  0  0  0  0  0
   10.3270  -17.1642   25.1972 C   0  0  0  0  0  0  0  0  0  0  0  0
   11.2280  -16.4620   24.6588 O   0  0  0  0  0  0  0  0  0  0  0  0
   10.0647  -16.9424   26.5617 N   0  0  0  0  0  0  0  0  0  0  0  0
   10.8361  -16.0465   27.4043 C   0  0  1  0  0  0  0  0  0  0  0  0
   10.9120  -14.6676   26.8444 C   0  0  0  0  0  0  0  0  0  0  0  0
    9.6219  -13.9436   26.7872 C   0  0  0  0  0  0  0  0  0  0  0  0
    9.2285  -13.0418   27.7477 C   0  0  0  0  0  0  0  0  0  0  0  0
    8.0200  -12.4047   27.6291 C   0  0  0  0  0  0  0  0  0  0  0  0
    7.1554  -12.6161   26.5849 C   0  0  0  0  0  0  0  0  0  0  0  0
    7.5708  -13.5272   25.6303 C   0  0  0  0  0  0  0  0  0  0  0  0
    8.7761  -14.1762   25.7287 C   0  0  0  0  0  0  0  0  0  0  0  0
   10.3477  -16.0519   28.8011 C   0  0  0  0  0  0  0  0  0  0  0  0
    9.2958  -16.7398   29.0387 O   0  0  0  0  0  0  0  0  0  0  0  0
   10.9337  -15.3847   29.8402 O   0  0  0  0  0  0  0  0  0  0  0  0
  2  3  2  0
  2  1  1  0
  4  3  1  0
  5  4  2  0
  6  5  1  0
  7  6  1  0
  7  8  1  1
  9  7  1  0
  9 10  2  0
 11  5  1  0
 11 12  2  0
 12  2  1  0
 13 14  1  0
 14 16  1  0
 14 15  2  0
 17 16  1  6
 17 18  1  0
 18  9  1  0
 19 21  1  0
 19 17  1  0
 20 19  2  0
 22 21  1  0
 22 30  1  0
 22 23  1  6
 24 23  1  0
 25 24  2  0
 26 25  1  0
 27 26  2  0
 27 28  1  0
 28 29  2  0
 29 24  1  0
 30 32  1  0
 31 30  2  0
M  END
$$$$
