YNF.pdb
     RDKit          3D

 32 33  0  0  1  0  0  0  0  0999 V2000
    0.6697  -21.1370   19.5426 O   0  0  0  0  0  0  0  0  0  0  0  0
    1.8044  -20.3304   19.6007 C   0  0  0  0  0  0  0  0  0  0  0  0
    2.3534  -19.8498   18.4303 C   0  0  0  0  0  0  0  0  0  0  0  0
    3.4670  -19.0561   18.4562 C   0  0  0  0  0  0  0  0  0  0  0  0
    4.0855  -18.7044   19.6490 C   0  0  0  0  0  0  0  0  0  0  0  0
    5.2910  -17.8447   19.6411 C   0  0  0  0  0  0  0  0  0  0  0  0
    5.8180  -17.6571   21.0670 C   0  0  2  0  0  0  0  0  0  0  0  0
    4.8330  -16.9687   21.8479 N   0  0  0  0  0  0  0  0  0  0  0  0
    7.1199  -16.9414   21.0313 C   0  0  0  0  0  0  0  0  0  0  0  0
    8.0713  -17.4693   20.4011 O   0  0  0  0  0  0  0  0  0  0  0  0
    3.5181  -19.1967   20.7995 C   0  0  0  0  0  0  0  0  0  0  0  0
    2.3961  -19.9984   20.8016 C   0  0  0  0  0  0  0  0  0  0  0  0
    7.1243  -12.7549   19.4295 N   0  0  0  0  0  0  0  0  0  0  0  0
    8.1505  -13.6200   19.8595 C   0  0  0  0  0  0  0  0  0  0  0  0
    8.6436  -14.3929   18.9786 O   0  0  0  0  0  0  0  0  0  0  0  0
    8.7045  -13.7205   21.2073 C   0  0  0  0  0  0  0  0  0  0  0  0
    8.6189  -15.1063   21.7972 C   0  0  2  0  0  0  0  0  0  0  0  0
    7.3229  -15.6909   21.6796 N   0  0  0  0  0  0  0  0  0  0  0  0
    9.1153  -15.1277   23.2096 C   0  0  0  0  0  0  0  0  0  0  0  0
   10.2045  -14.5691   23.5200 O   0  0  0  0  0  0  0  0  0  0  0  0
    8.3993  -15.7637   24.2404 N   0  0  0  0  0  0  0  0  0  0  0  0
    8.8408  -15.8234   25.6222 C   0  0  1  0  0  0  0  0  0  0  0  0
    7.7374  -15.5372   26.5821 C   0  0  0  0  0  0  0  0  0  0  0  0
    7.2432  -14.1416   26.5693 C   0  0  0  0  0  0  0  0  0  0  0  0
    7.9974  -13.0785   27.0070 C   0  0  0  0  0  0  0  0  0  0  0  0
    7.4765  -11.8106   26.9635 C   0  0  0  0  0  0  0  0  0  0  0  0
    6.2169  -11.5285   26.4986 C   0  0  0  0  0  0  0  0  0  0  0  0
    5.4755  -12.6125   26.0635 C   0  0  0  0  0  0  0  0  0  0  0  0
    5.9767  -13.8898   26.0978 C   0  0  0  0  0  0  0  0  0  0  0  0
    9.5219  -17.1016   25.9250 C   0  0  0  0  0  0  0  0  0  0  0  0
   10.0016  -17.2312   27.1037 O   0  0  0  0  0  0  0  0  0  0  0  0
    9.6710  -18.1389   25.0474 O   0  0  0  0  0  0  0  0  0  0  0  0
  2  3  2  0
  2  1  1  0
  4  3  1  0
  5  4  2  0
  6  5  1  0
  7  6  1  0
  7  8  1  1
  9  7  1  0
  9 10  2  0
 11  5  1  0
 11 12  2  0
 12  2  1  0
 13 14  1  0
 14 16  1  0
 14 15  2  0
 17 16  1  1
 17 18  1  0
 18  9  1  0
 19 21  1  0
 19 17  1  0
 20 19  2  0
 22 21  1  0
 22 30  1  0
 22 23  1  1
 24 23  1  0
 25 24  2  0
 26 25  1  0
 27 26  2  0
 27 28  1  0
 28 29  2  0
 29 24  1  0
 30 32  1  0
 31 30  2  0
M  END
$$$$
