YNF.pdb
     RDKit          3D

 32 33  0  0  1  0  0  0  0  0999 V2000
    6.9750  -12.1115   17.2285 O   0  0  0  0  0  0  0  0  0  0  0  0
    7.2545  -12.7885   18.4138 C   0  0  0  0  0  0  0  0  0  0  0  0
    6.3345  -13.6865   18.9131 C   0  0  0  0  0  0  0  0  0  0  0  0
    6.5814  -14.3654   20.0745 C   0  0  0  0  0  0  0  0  0  0  0  0
    7.7560  -14.1813   20.7925 C   0  0  0  0  0  0  0  0  0  0  0  0
    7.9906  -14.9314   22.0473 C   0  0  0  0  0  0  0  0  0  0  0  0
    8.8684  -16.1571   21.7763 C   0  0  2  0  0  0  0  0  0  0  0  0
    8.1991  -17.0219   20.8500 N   0  0  0  0  0  0  0  0  0  0  0  0
    9.1930  -16.8357   23.0579 C   0  0  0  0  0  0  0  0  0  0  0  0
    8.2501  -17.3426   23.7176 O   0  0  0  0  0  0  0  0  0  0  0  0
    8.6547  -13.2814   20.2728 C   0  0  0  0  0  0  0  0  0  0  0  0
    8.4309  -12.5839   19.1043 C   0  0  0  0  0  0  0  0  0  0  0  0
   12.9951  -18.9568   22.4188 N   0  0  0  0  0  0  0  0  0  0  0  0
   12.1303  -19.2238   23.4991 C   0  0  0  0  0  0  0  0  0  0  0  0
   11.3649  -20.2313   23.3741 O   0  0  0  0  0  0  0  0  0  0  0  0
   12.0222  -18.4661   24.7432 C   0  0  0  0  0  0  0  0  0  0  0  0
   10.8145  -17.5641   24.8019 C   0  0  2  0  0  0  0  0  0  0  0  0
   10.5222  -16.9303   23.5578 N   0  0  0  0  0  0  0  0  0  0  0  0
   10.9286  -16.5746   25.9197 C   0  0  0  0  0  0  0  0  0  0  0  0
   11.7058  -15.5834   25.8282 O   0  0  0  0  0  0  0  0  0  0  0  0
   10.1845  -16.7039   27.1069 N   0  0  0  0  0  0  0  0  0  0  0  0
   10.3638  -15.8626   28.2764 C   0  0  1  0  0  0  0  0  0  0  0  0
    9.1447  -15.0662   28.5935 C   0  0  0  0  0  0  0  0  0  0  0  0
    8.7068  -14.1403   27.5245 C   0  0  0  0  0  0  0  0  0  0  0  0
    7.7466  -14.4709   26.5974 C   0  0  0  0  0  0  0  0  0  0  0  0
    7.3873  -13.5617   25.6357 C   0  0  0  0  0  0  0  0  0  0  0  0
    7.9401  -12.3099   25.5375 C   0  0  0  0  0  0  0  0  0  0  0  0
    8.9039  -11.9982   26.4798 C   0  0  0  0  0  0  0  0  0  0  0  0
    9.2789  -12.8924   27.4511 C   0  0  0  0  0  0  0  0  0  0  0  0
   10.8376  -16.6397   29.4430 C   0  0  0  0  0  0  0  0  0  0  0  0
   10.8496  -17.9127   29.3182 O   0  0  0  0  0  0  0  0  0  0  0  0
   11.2586  -16.1011   30.6267 O   0  0  0  0  0  0  0  0  0  0  0  0
  2  3  2  0
  2  1  1  0
  4  3  1  0
  5  4  2  0
  6  5  1  0
  7  6  1  0
  7  8  1  6
  9  7  1  0
  9 10  2  0
 11  5  1  0
 11 12  2  0
 12  2  1  0
 13 14  1  0
 14 16  1  0
 14 15  2  0
 17 16  1  6
 17 18  1  0
 18  9  1  0
 19 21  1  0
 19 17  1  0
 20 19  2  0
 22 21  1  0
 22 30  1  0
 22 23  1  1
 24 23  1  0
 25 24  2  0
 26 25  1  0
 27 26  2  0
 27 28  1  0
 28 29  2  0
 29 24  1  0
 30 32  1  0
 31 30  2  0
M  END
$$$$
