YNF.pdb
     RDKit          3D

 32 33  0  0  1  0  0  0  0  0999 V2000
   14.4788  -21.7567   16.0468 O   0  0  0  0  0  0  0  0  0  0  0  0
   13.8890  -20.6705   16.6899 C   0  0  0  0  0  0  0  0  0  0  0  0
   13.7392  -20.6955   18.0607 C   0  0  0  0  0  0  0  0  0  0  0  0
   13.1637  -19.6439   18.7191 C   0  0  0  0  0  0  0  0  0  0  0  0
   12.7106  -18.5186   18.0428 C   0  0  0  0  0  0  0  0  0  0  0  0
   12.0906  -17.3984   18.7866 C   0  0  0  0  0  0  0  0  0  0  0  0
   10.6103  -17.6912   19.0494 C   0  0  2  0  0  0  0  0  0  0  0  0
    9.9103  -17.7451   17.8000 N   0  0  0  0  0  0  0  0  0  0  0  0
   10.0522  -16.6689   19.9723 C   0  0  0  0  0  0  0  0  0  0  0  0
    9.8213  -15.5198   19.5170 O   0  0  0  0  0  0  0  0  0  0  0  0
   12.8721  -18.5198   16.6784 C   0  0  0  0  0  0  0  0  0  0  0  0
   13.4488  -19.5664   15.9900 C   0  0  0  0  0  0  0  0  0  0  0  0
    7.0225  -14.6770   20.6040 N   0  0  0  0  0  0  0  0  0  0  0  0
    6.7221  -15.6756   21.5521 C   0  0  0  0  0  0  0  0  0  0  0  0
    5.5020  -16.0223   21.6397 O   0  0  0  0  0  0  0  0  0  0  0  0
    7.6634  -16.3513   22.4414 C   0  0  0  0  0  0  0  0  0  0  0  0
    9.1067  -16.0010   22.1772 C   0  0  2  0  0  0  0  0  0  0  0  0
    9.7728  -16.9449   21.3403 N   0  0  0  0  0  0  0  0  0  0  0  0
    9.8513  -15.7637   23.4543 C   0  0  0  0  0  0  0  0  0  0  0  0
   11.0270  -16.1989   23.6070 O   0  0  0  0  0  0  0  0  0  0  0  0
    9.2810  -15.0547   24.5276 N   0  0  0  0  0  0  0  0  0  0  0  0
    9.3182  -15.4994   25.9091 C   0  0  1  0  0  0  0  0  0  0  0  0
    8.0795  -15.1369   26.6542 C   0  0  0  0  0  0  0  0  0  0  0  0
    7.7402  -13.6958   26.6402 C   0  0  0  0  0  0  0  0  0  0  0  0
    6.5036  -13.2236   26.2682 C   0  0  0  0  0  0  0  0  0  0  0  0
    6.2577  -11.8746   26.2818 C   0  0  0  0  0  0  0  0  0  0  0  0
    7.1927  -10.9414   26.6527 C   0  0  0  0  0  0  0  0  0  0  0  0
    8.4297  -11.4383   27.0229 C   0  0  0  0  0  0  0  0  0  0  0  0
    8.6977  -12.7843   27.0169 C   0  0  0  0  0  0  0  0  0  0  0  0
    9.6247  -16.9433   26.0118 C   0  0  0  0  0  0  0  0  0  0  0  0
   10.0469  -17.3614   27.1447 O   0  0  0  0  0  0  0  0  0  0  0  0
    9.4892  -17.8489   24.9969 O   0  0  0  0  0  0  0  0  0  0  0  0
  2  3  2  0
  2  1  1  0
  4  3  1  0
  5  4  2  0
  6  5  1  0
  7  6  1  0
  7  8  1  6
  9  7  1  0
  9 10  2  0
 11  5  1  0
 11 12  2  0
 12  2  1  0
 13 14  1  0
 14 16  1  0
 14 15  2  0
 17 16  1  1
 17 18  1  0
 18  9  1  0
 19 21  1  0
 19 17  1  0
 20 19  2  0
 22 21  1  0
 22 30  1  0
 22 23  1  6
 24 23  1  0
 25 24  2  0
 26 25  1  0
 27 26  2  0
 27 28  1  0
 28 29  2  0
 29 24  1  0
 30 32  1  0
 31 30  2  0
M  END
$$$$
