YNF.pdb
     RDKit          3D

 32 33  0  0  1  0  0  0  0  0999 V2000
    8.9400  -11.7837   18.4333 O   0  0  0  0  0  0  0  0  0  0  0  0
    8.3327  -12.8877   19.0281 C   0  0  0  0  0  0  0  0  0  0  0  0
    7.7559  -12.7533   20.2736 C   0  0  0  0  0  0  0  0  0  0  0  0
    7.1529  -13.8194   20.8821 C   0  0  0  0  0  0  0  0  0  0  0  0
    7.0964  -15.0689   20.2784 C   0  0  0  0  0  0  0  0  0  0  0  0
    6.4372  -16.2025   20.9660 C   0  0  0  0  0  0  0  0  0  0  0  0
    7.0279  -16.3889   22.3669 C   0  0  2  0  0  0  0  0  0  0  0  0
    6.8455  -15.1837   23.1207 N   0  0  0  0  0  0  0  0  0  0  0  0
    8.4563  -16.7849   22.2611 C   0  0  0  0  0  0  0  0  0  0  0  0
    8.7231  -17.9457   21.8582 O   0  0  0  0  0  0  0  0  0  0  0  0
    7.6785  -15.1749   19.0384 C   0  0  0  0  0  0  0  0  0  0  0  0
    8.2928  -14.1164   18.4026 C   0  0  0  0  0  0  0  0  0  0  0  0
   11.3910  -14.2762   19.9475 N   0  0  0  0  0  0  0  0  0  0  0  0
   11.4892  -15.5088   20.6238 C   0  0  0  0  0  0  0  0  0  0  0  0
   11.1918  -16.5465   19.9522 O   0  0  0  0  0  0  0  0  0  0  0  0
   11.8955  -15.7172   22.0112 C   0  0  0  0  0  0  0  0  0  0  0  0
   10.8394  -16.3802   22.8602 C   0  0  2  0  0  0  0  0  0  0  0  0
    9.5212  -15.9024   22.5969 N   0  0  0  0  0  0  0  0  0  0  0  0
   11.1822  -16.3002   24.3154 C   0  0  0  0  0  0  0  0  0  0  0  0
   12.3762  -16.4292   24.7058 O   0  0  0  0  0  0  0  0  0  0  0  0
   10.2013  -16.0810   25.3001 N   0  0  0  0  0  0  0  0  0  0  0  0
   10.4836  -15.9635   26.7193 C   0  0  1  0  0  0  0  0  0  0  0  0
   10.2809  -14.5760   27.2240 C   0  0  0  0  0  0  0  0  0  0  0  0
    8.9652  -13.9788   26.9011 C   0  0  0  0  0  0  0  0  0  0  0  0
    8.2575  -14.3002   25.7669 C   0  0  0  0  0  0  0  0  0  0  0  0
    7.0421  -13.7099   25.5327 C   0  0  0  0  0  0  0  0  0  0  0  0
    6.4725  -12.7944   26.3812 C   0  0  0  0  0  0  0  0  0  0  0  0
    7.2014  -12.4856   27.5158 C   0  0  0  0  0  0  0  0  0  0  0  0
    8.4196  -13.0642   27.7704 C   0  0  0  0  0  0  0  0  0  0  0  0
    9.7282  -16.9582   27.5125 C   0  0  0  0  0  0  0  0  0  0  0  0
   10.0168  -17.0397   28.7561 O   0  0  0  0  0  0  0  0  0  0  0  0
    8.7569  -17.7830   27.0177 O   0  0  0  0  0  0  0  0  0  0  0  0
  2  3  2  0
  2  1  1  0
  4  3  1  0
  5  4  2  0
  6  5  1  0
  7  6  1  0
  7  8  1  1
  9  7  1  0
  9 10  2  0
 11  5  1  0
 11 12  2  0
 12  2  1  0
 13 14  1  0
 14 16  1  0
 14 15  2  0
 17 16  1  6
 17 18  1  0
 18  9  1  0
 19 21  1  0
 19 17  1  0
 20 19  2  0
 22 21  1  0
 22 30  1  0
 22 23  1  1
 24 23  1  0
 25 24  2  0
 26 25  1  0
 27 26  2  0
 27 28  1  0
 28 29  2  0
 29 24  1  0
 30 32  1  0
 31 30  2  0
M  END
$$$$
