YNF.pdb
     RDKit          3D

 32 33  0  0  1  0  0  0  0  0999 V2000
    7.5839  -13.1012   15.7541 O   0  0  0  0  0  0  0  0  0  0  0  0
    7.8739  -13.7257   16.9654 C   0  0  0  0  0  0  0  0  0  0  0  0
    7.4350  -13.1561   18.1423 C   0  0  0  0  0  0  0  0  0  0  0  0
    7.7048  -13.7462   19.3463 C   0  0  0  0  0  0  0  0  0  0  0  0
    8.4243  -14.9309   19.4340 C   0  0  0  0  0  0  0  0  0  0  0  0
    8.7004  -15.5422   20.7541 C   0  0  0  0  0  0  0  0  0  0  0  0
    9.0531  -17.0236   20.5892 C   0  0  2  0  0  0  0  0  0  0  0  0
    7.8542  -17.7704   20.3465 N   0  0  0  0  0  0  0  0  0  0  0  0
    9.7896  -17.5010   21.7884 C   0  0  0  0  0  0  0  0  0  0  0  0
    9.1973  -18.2787   22.5792 O   0  0  0  0  0  0  0  0  0  0  0  0
    8.8494  -15.4766   18.2468 C   0  0  0  0  0  0  0  0  0  0  0  0
    8.5912  -14.9026   17.0198 C   0  0  0  0  0  0  0  0  0  0  0  0
   13.8928  -18.9935   21.6029 N   0  0  0  0  0  0  0  0  0  0  0  0
   13.9267  -17.6769   22.1047 C   0  0  0  0  0  0  0  0  0  0  0  0
   14.6206  -16.8394   21.4463 O   0  0  0  0  0  0  0  0  0  0  0  0
   13.2500  -17.1763   23.2984 C   0  0  0  0  0  0  0  0  0  0  0  0
   11.7632  -17.4312   23.3055 C   0  0  2  0  0  0  0  0  0  0  0  0
   11.1296  -17.1115   22.0679 N   0  0  0  0  0  0  0  0  0  0  0  0
   11.1006  -16.7524   24.4639 C   0  0  0  0  0  0  0  0  0  0  0  0
   11.4691  -16.9892   25.6484 O   0  0  0  0  0  0  0  0  0  0  0  0
   10.0507  -15.8325   24.2863 N   0  0  0  0  0  0  0  0  0  0  0  0
    9.3358  -15.1921   25.3755 C   0  0  1  0  0  0  0  0  0  0  0  0
    8.4340  -14.1053   24.8993 C   0  0  0  0  0  0  0  0  0  0  0  0
    7.6649  -13.4198   25.9625 C   0  0  0  0  0  0  0  0  0  0  0  0
    6.2932  -13.3254   25.9490 C   0  0  0  0  0  0  0  0  0  0  0  0
    5.6453  -12.6778   26.9695 C   0  0  0  0  0  0  0  0  0  0  0  0
    6.2967  -12.1025   28.0312 C   0  0  0  0  0  0  0  0  0  0  0  0
    7.6761  -12.2089   28.0246 C   0  0  0  0  0  0  0  0  0  0  0  0
    8.3452  -12.8526   27.0138 C   0  0  0  0  0  0  0  0  0  0  0  0
    8.6207  -16.1778   26.2160 C   0  0  0  0  0  0  0  0  0  0  0  0
    7.8456  -16.9947   25.6091 O   0  0  0  0  0  0  0  0  0  0  0  0
    8.7295  -16.2764   27.5750 O   0  0  0  0  0  0  0  0  0  0  0  0
  2  3  2  0
  2  1  1  0
  4  3  1  0
  5  4  2  0
  6  5  1  0
  7  6  1  0
  7  8  1  1
  9  7  1  0
  9 10  2  0
 11  5  1  0
 11 12  2  0
 12  2  1  0
 13 14  1  0
 14 16  1  0
 14 15  2  0
 17 16  1  6
 17 18  1  0
 18  9  1  0
 19 21  1  0
 19 17  1  0
 20 19  2  0
 22 21  1  0
 22 30  1  0
 22 23  1  6
 24 23  1  0
 25 24  2  0
 26 25  1  0
 27 26  2  0
 27 28  1  0
 28 29  2  0
 29 24  1  0
 30 32  1  0
 31 30  2  0
M  END
$$$$
