ERH.pdb
     RDKit          3D

 31 31  0  0  1  0  0  0  0  0999 V2000
    9.1965  -18.8575   21.3604 N   0  0  0  0  0  0  0  0  0  0  0  0
   10.4648  -18.2386   21.0690 C   0  0  1  0  0  0  0  0  0  0  0  0
   10.8930  -18.2982   19.6411 C   0  0  0  0  0  0  0  0  0  0  0  0
   10.1479  -17.4262   18.6988 C   0  0  0  0  0  0  0  0  0  0  0  0
   10.4977  -17.5042   17.2868 C   0  0  0  0  0  0  0  0  0  0  0  0
   11.4308  -18.3442   17.0015 O   0  0  0  0  0  0  0  0  0  0  0  0
   10.4362  -16.8588   21.6048 C   0  0  0  0  0  0  0  0  0  0  0  0
   11.5015  -16.2553   21.8764 O   0  0  0  0  0  0  0  0  0  0  0  0
    9.9652  -16.8014   16.2378 O   0  0  0  0  0  0  0  0  0  0  0  0
    7.1059  -12.8944   17.8582 N   0  0  0  0  0  0  0  0  0  0  0  0
    8.4402  -13.3591   17.7092 C   0  0  0  0  0  0  0  0  0  0  0  0
    8.9590  -13.5712   16.5575 N   0  0  0  0  0  0  0  0  0  0  0  0
    9.2615  -13.6094   18.8565 N   0  0  0  0  0  0  0  0  0  0  0  0
    8.9793  -14.7622   19.6803 C   0  0  0  0  0  0  0  0  0  0  0  0
    7.7055  -14.5186   20.4420 C   0  0  0  0  0  0  0  0  0  0  0  0
    7.9767  -14.0892   21.8720 C   0  0  0  0  0  0  0  0  0  0  0  0
    9.2064  -14.8207   22.4243 C   0  0  2  0  0  0  0  0  0  0  0  0
    9.2190  -16.1288   21.8464 N   0  0  0  0  0  0  0  0  0  0  0  0
    9.0727  -14.7942   23.8849 C   0  0  0  0  0  0  0  0  0  0  0  0
    8.4756  -13.8118   24.3869 O   0  0  0  0  0  0  0  0  0  0  0  0
    9.8312  -14.0909   16.3925 N   0  0  0  0  0  0  0  0  0  0  0  0
    9.5812  -15.8194   24.7648 C   0  0  1  0  0  0  0  0  0  0  0  0
    9.2976  -15.7369   26.1754 C   0  0  0  0  0  0  0  0  0  0  0  0
    7.8569  -15.6625   26.4900 C   0  0  0  0  0  0  0  0  0  0  0  0
    7.2327  -14.3671   26.6269 C   0  0  0  0  0  0  0  0  0  0  0  0
    7.7338  -13.1129   26.8044 N   0  0  0  0  0  0  0  0  0  0  0  0
    6.7253  -12.1905   26.8520 C   0  0  0  0  0  0  0  0  0  0  0  0
    5.6050  -12.9087   26.6998 N   0  0  0  0  0  0  0  0  0  0  0  0
    5.8719  -14.2101   26.5628 C   0  0  0  0  0  0  0  0  0  0  0  0
   10.0315  -16.7586   26.9567 O   0  0  0  0  0  0  0  0  0  0  0  0
    9.9962  -16.7190   28.3144 O   0  0  0  0  0  0  0  0  0  0  0  0
  2  1  1  6
  3  2  1  0
  3  4  1  0
  4  5  1  0
  5  9  1  0
  6  5  2  0
  7  2  1  0
  8  7  2  0
 10 11  1  0
 11 12  2  0
 13 14  1  0
 13 11  1  0
 14 15  1  0
 16 15  1  0
 17 16  1  6
 17 18  1  0
 18  7  1  0
 19 21  1  0
 19 17  1  0
 20 19  2  0
 22 21  1  0
 22 29  1  0
 22 23  1  1
 23 24  1  0
 24 28  1  0
 24 25  2  0
 25 26  1  0
 27 26  1  0
 28 27  2  0
 29 30  1  0
 31 29  2  0
M  END
$$$$
