ERH.pdb
     RDKit          3D

 31 31  0  0  1  0  0  0  0  0999 V2000
   11.4767  -18.5661   20.4275 N   0  0  0  0  0  0  0  0  0  0  0  0
   10.8840  -18.6680   21.7369 C   0  0  1  0  0  0  0  0  0  0  0  0
   11.5922  -19.5693   22.6917 C   0  0  0  0  0  0  0  0  0  0  0  0
   10.9807  -19.7053   24.0376 C   0  0  0  0  0  0  0  0  0  0  0  0
   10.4656  -21.0144   24.4157 C   0  0  0  0  0  0  0  0  0  0  0  0
   10.7020  -21.3632   25.6322 O   0  0  0  0  0  0  0  0  0  0  0  0
   10.7012  -17.2974   22.2660 C   0  0  0  0  0  0  0  0  0  0  0  0
   11.6910  -16.5615   22.4929 O   0  0  0  0  0  0  0  0  0  0  0  0
    9.7714  -21.9108   23.6459 O   0  0  0  0  0  0  0  0  0  0  0  0
    7.7604  -12.1542   18.9328 N   0  0  0  0  0  0  0  0  0  0  0  0
    7.9742  -13.3655   18.2219 C   0  0  0  0  0  0  0  0  0  0  0  0
    8.4564  -13.3785   17.0354 N   0  0  0  0  0  0  0  0  0  0  0  0
    7.6539  -14.6298   18.8154 N   0  0  0  0  0  0  0  0  0  0  0  0
    7.0626  -14.6538   20.1333 C   0  0  0  0  0  0  0  0  0  0  0  0
    8.0852  -14.1951   21.1362 C   0  0  0  0  0  0  0  0  0  0  0  0
    7.9018  -14.8753   22.4804 C   0  0  0  0  0  0  0  0  0  0  0  0
    9.2495  -15.3802   23.0106 C   0  0  2  0  0  0  0  0  0  0  0  0
    9.4114  -16.7247   22.5509 N   0  0  0  0  0  0  0  0  0  0  0  0
    9.1938  -15.2309   24.4689 C   0  0  0  0  0  0  0  0  0  0  0  0
    8.7100  -14.1635   24.9165 O   0  0  0  0  0  0  0  0  0  0  0  0
    8.6690  -14.2286   16.4967 N   0  0  0  0  0  0  0  0  0  0  0  0
    9.6569  -16.2276   25.4048 C   0  0  1  0  0  0  0  0  0  0  0  0
    9.4531  -16.0136   26.8153 C   0  0  0  0  0  0  0  0  0  0  0  0
    8.0646  -15.6572   27.1693 C   0  0  0  0  0  0  0  0  0  0  0  0
    7.5866  -14.3238   26.8863 C   0  0  0  0  0  0  0  0  0  0  0  0
    8.1308  -13.0882   27.0672 N   0  0  0  0  0  0  0  0  0  0  0  0
    7.2864  -12.1151   26.6089 C   0  0  0  0  0  0  0  0  0  0  0  0
    6.2217  -12.7837   26.1469 N   0  0  0  0  0  0  0  0  0  0  0  0
    6.3683  -14.1027   26.2969 C   0  0  0  0  0  0  0  0  0  0  0  0
   10.0214  -17.1065   27.6372 O   0  0  0  0  0  0  0  0  0  0  0  0
   10.6390  -18.1528   27.0289 O   0  0  0  0  0  0  0  0  0  0  0  0
  2  1  1  6
  3  2  1  0
  3  4  1  0
  4  5  1  0
  5  9  1  0
  6  5  2  0
  7  2  1  0
  8  7  2  0
 10 11  1  0
 11 12  2  0
 13 14  1  0
 13 11  1  0
 14 15  1  0
 16 15  1  0
 17 16  1  6
 17 18  1  0
 18  7  1  0
 19 21  1  0
 19 17  1  0
 20 19  2  0
 22 21  1  0
 22 29  1  0
 22 23  1  1
 23 24  1  0
 24 28  1  0
 24 25  2  0
 25 26  1  0
 27 26  1  0
 28 27  2  0
 29 30  1  0
 31 29  2  0
M  END
$$$$
