ERH.pdb
     RDKit          3D

 31 31  0  0  1  0  0  0  0  0999 V2000
    5.5782  -18.8998   21.6558 N   0  0  0  0  0  0  0  0  0  0  0  0
    6.3109  -18.9106   22.8965 C   0  0  1  0  0  0  0  0  0  0  0  0
    6.2663  -20.1945   23.6551 C   0  0  0  0  0  0  0  0  0  0  0  0
    6.0816  -21.4252   22.8459 C   0  0  0  0  0  0  0  0  0  0  0  0
    6.8628  -22.5984   23.2138 C   0  0  0  0  0  0  0  0  0  0  0  0
    6.5876  -23.6671   22.5508 O   0  0  0  0  0  0  0  0  0  0  0  0
    7.6914  -18.4534   22.6185 C   0  0  0  0  0  0  0  0  0  0  0  0
    8.3927  -19.0259   21.7506 O   0  0  0  0  0  0  0  0  0  0  0  0
    7.8406  -22.7050   24.1680 O   0  0  0  0  0  0  0  0  0  0  0  0
    8.2957  -12.8590   17.3579 N   0  0  0  0  0  0  0  0  0  0  0  0
    8.3496  -14.2787   17.3654 C   0  0  0  0  0  0  0  0  0  0  0  0
    7.9127  -14.9784   16.3855 N   0  0  0  0  0  0  0  0  0  0  0  0
    8.9014  -14.9852   18.4833 N   0  0  0  0  0  0  0  0  0  0  0  0
    9.2750  -14.2422   19.6647 C   0  0  0  0  0  0  0  0  0  0  0  0
    9.8561  -15.1919   20.6759 C   0  0  0  0  0  0  0  0  0  0  0  0
    8.7750  -15.9472   21.4268 C   0  0  0  0  0  0  0  0  0  0  0  0
    9.3465  -16.5589   22.7119 C   0  0  2  0  0  0  0  0  0  0  0  0
    8.3125  -17.3500   23.3036 N   0  0  0  0  0  0  0  0  0  0  0  0
    9.8031  -15.4305   23.5306 C   0  0  0  0  0  0  0  0  0  0  0  0
   10.9495  -14.9792   23.2941 O   0  0  0  0  0  0  0  0  0  0  0  0
    7.9556  -16.0046   16.3310 N   0  0  0  0  0  0  0  0  0  0  0  0
    9.0199  -14.8183   24.5773 C   0  0  2  0  0  0  0  0  0  0  0  0
    9.3621  -15.0787   25.9528 C   0  0  0  0  0  0  0  0  0  0  0  0
    8.2088  -15.0277   26.8735 C   0  0  0  0  0  0  0  0  0  0  0  0
    7.3712  -13.8510   26.8874 C   0  0  0  0  0  0  0  0  0  0  0  0
    7.4442  -12.6558   26.2379 N   0  0  0  0  0  0  0  0  0  0  0  0
    6.3823  -11.8596   26.5675 C   0  0  0  0  0  0  0  0  0  0  0  0
    5.6652  -12.5944   27.4277 N   0  0  0  0  0  0  0  0  0  0  0  0
    6.2267  -13.7873   27.6402 C   0  0  0  0  0  0  0  0  0  0  0  0
   10.1987  -16.2912   26.1038 O   0  0  0  0  0  0  0  0  0  0  0  0
   10.9860  -16.4313   27.2023 O   0  0  0  0  0  0  0  0  0  0  0  0
  2  1  1  6
  3  2  1  0
  3  4  1  0
  4  5  1  0
  5  9  1  0
  6  5  2  0
  7  2  1  0
  8  7  2  0
 10 11  1  0
 11 12  2  0
 13 14  1  0
 13 11  1  0
 14 15  1  0
 16 15  1  0
 17 16  1  6
 17 18  1  0
 18  7  1  0
 19 21  1  0
 19 17  1  0
 20 19  2  0
 22 21  1  0
 22 29  1  0
 22 23  1  6
 23 24  1  0
 24 28  1  0
 24 25  2  0
 25 26  1  0
 27 26  1  0
 28 27  2  0
 29 30  1  0
 31 29  2  0
M  END
$$$$
