ERH.pdb
     RDKit          3D

 31 31  0  0  1  0  0  0  0  0999 V2000
   14.3044  -15.7984   12.7481 N   0  0  0  0  0  0  0  0  0  0  0  0
   13.6800  -16.6388   13.7381 C   0  0  1  0  0  0  0  0  0  0  0  0
   14.4032  -17.9058   14.0504 C   0  0  0  0  0  0  0  0  0  0  0  0
   15.6776  -18.1270   13.3220 C   0  0  0  0  0  0  0  0  0  0  0  0
   16.0593  -19.5027   13.0322 C   0  0  0  0  0  0  0  0  0  0  0  0
   15.3853  -20.4003   13.6626 O   0  0  0  0  0  0  0  0  0  0  0  0
   13.4163  -15.8149   14.9396 C   0  0  0  0  0  0  0  0  0  0  0  0
   14.1813  -14.8704   15.2486 O   0  0  0  0  0  0  0  0  0  0  0  0
   17.0365  -19.9542   12.1842 O   0  0  0  0  0  0  0  0  0  0  0  0
    6.1511  -14.1458   20.5426 N   0  0  0  0  0  0  0  0  0  0  0  0
    7.2744  -13.3860   20.1193 C   0  0  0  0  0  0  0  0  0  0  0  0
    7.1569  -12.1847   19.6903 N   0  0  0  0  0  0  0  0  0  0  0  0
    8.5936  -13.9441   20.1582 N   0  0  0  0  0  0  0  0  0  0  0  0
    8.9503  -14.9628   19.1978 C   0  0  0  0  0  0  0  0  0  0  0  0
   10.3196  -14.6626   18.6529 C   0  0  0  0  0  0  0  0  0  0  0  0
   10.7309  -15.6562   17.5821 C   0  0  0  0  0  0  0  0  0  0  0  0
   12.1229  -15.3095   17.0394 C   0  0  2  0  0  0  0  0  0  0  0  0
   12.2950  -16.0306   15.8164 N   0  0  0  0  0  0  0  0  0  0  0  0
   13.0720  -15.6623   18.1008 C   0  0  0  0  0  0  0  0  0  0  0  0
   14.1745  -16.1438   17.7453 O   0  0  0  0  0  0  0  0  0  0  0  0
    7.9379  -11.5942   19.3753 N   0  0  0  0  0  0  0  0  0  0  0  0
   12.8138  -15.4892   19.5105 C   0  0  2  0  0  0  0  0  0  0  0  0
   13.9071  -15.1547   20.3878 C   0  0  0  0  0  0  0  0  0  0  0  0
   14.8205  -14.1327   19.8386 C   0  0  0  0  0  0  0  0  0  0  0  0
   15.9485  -14.5534   19.0404 C   0  0  0  0  0  0  0  0  0  0  0  0
   16.3560  -15.7703   18.5836 N   0  0  0  0  0  0  0  0  0  0  0  0
   17.4929  -15.6501   17.8331 C   0  0  0  0  0  0  0  0  0  0  0  0
   17.7658  -14.3389   17.8434 N   0  0  0  0  0  0  0  0  0  0  0  0
   16.8645  -13.6561   18.5541 C   0  0  0  0  0  0  0  0  0  0  0  0
   13.4534  -14.8752   21.7695 O   0  0  0  0  0  0  0  0  0  0  0  0
   14.3719  -14.6512   22.7455 O   0  0  0  0  0  0  0  0  0  0  0  0
  2  1  1  6
  3  2  1  0
  3  4  1  0
  4  5  1  0
  5  9  1  0
  6  5  2  0
  7  2  1  0
  8  7  2  0
 10 11  1  0
 11 12  2  0
 13 14  1  0
 13 11  1  0
 14 15  1  0
 16 15  1  0
 17 16  1  1
 17 18  1  0
 18  7  1  0
 19 21  1  0
 19 17  1  0
 20 19  2  0
 22 21  1  0
 22 29  1  0
 22 23  1  6
 23 24  1  0
 24 28  1  0
 24 25  2  0
 25 26  1  0
 27 26  1  0
 28 27  2  0
 29 30  1  0
 31 29  2  0
M  END
$$$$
