ERH.pdb
     RDKit          3D

 31 31  0  0  1  0  0  0  0  0999 V2000
    9.5133  -16.7183   16.2210 N   0  0  0  0  0  0  0  0  0  0  0  0
    9.4436  -16.4833   17.6409 C   0  0  1  0  0  0  0  0  0  0  0  0
    8.1609  -16.8780   18.2928 C   0  0  0  0  0  0  0  0  0  0  0  0
    7.6685  -18.2455   17.9910 C   0  0  0  0  0  0  0  0  0  0  0  0
    6.4745  -18.7023   18.6894 C   0  0  0  0  0  0  0  0  0  0  0  0
    6.6814  -19.1878   19.8637 O   0  0  0  0  0  0  0  0  0  0  0  0
   10.6269  -17.1133   18.2693 C   0  0  0  0  0  0  0  0  0  0  0  0
   11.1650  -18.1217   17.7532 O   0  0  0  0  0  0  0  0  0  0  0  0
    5.1747  -18.6819   18.2558 O   0  0  0  0  0  0  0  0  0  0  0  0
   17.3028  -13.0176   18.2580 N   0  0  0  0  0  0  0  0  0  0  0  0
   16.6442  -13.6459   17.1672 C   0  0  0  0  0  0  0  0  0  0  0  0
   17.0149  -13.4619   15.9551 N   0  0  0  0  0  0  0  0  0  0  0  0
   15.5288  -14.5179   17.3885 N   0  0  0  0  0  0  0  0  0  0  0  0
   15.1292  -14.8114   18.7454 C   0  0  0  0  0  0  0  0  0  0  0  0
   14.0583  -15.8672   18.7221 C   0  0  0  0  0  0  0  0  0  0  0  0
   13.4780  -16.1128   20.1027 C   0  0  0  0  0  0  0  0  0  0  0  0
   12.4095  -17.2115   20.0442 C   0  0  2  0  0  0  0  0  0  0  0  0
   11.2298  -16.6290   19.4837 N   0  0  0  0  0  0  0  0  0  0  0  0
   12.2595  -17.7055   21.4172 C   0  0  0  0  0  0  0  0  0  0  0  0
   11.9373  -16.8685   22.2943 O   0  0  0  0  0  0  0  0  0  0  0  0
   16.5481  -13.8621   15.1305 N   0  0  0  0  0  0  0  0  0  0  0  0
   12.4580  -19.0801   21.8111 C   0  0  2  0  0  0  0  0  0  0  0  0
   12.3179  -19.4389   23.1998 C   0  0  0  0  0  0  0  0  0  0  0  0
   13.4349  -18.9796   24.0493 C   0  0  0  0  0  0  0  0  0  0  0  0
   14.7921  -19.2035   23.6085 C   0  0  0  0  0  0  0  0  0  0  0  0
   15.3194  -19.7383   22.4720 N   0  0  0  0  0  0  0  0  0  0  0  0
   16.6860  -19.7098   22.5120 C   0  0  0  0  0  0  0  0  0  0  0  0
   16.9764  -19.1478   23.6926 N   0  0  0  0  0  0  0  0  0  0  0  0
   15.8700  -18.8336   24.3714 C   0  0  0  0  0  0  0  0  0  0  0  0
   10.9785  -19.1030   23.7345 O   0  0  0  0  0  0  0  0  0  0  0  0
   10.6693  -19.4203   25.0190 O   0  0  0  0  0  0  0  0  0  0  0  0
  2  1  1  6
  3  2  1  0
  3  4  1  0
  4  5  1  0
  5  9  1  0
  6  5  2  0
  7  2  1  0
  8  7  2  0
 10 11  1  0
 11 12  2  0
 13 14  1  0
 13 11  1  0
 14 15  1  0
 16 15  1  0
 17 16  1  1
 17 18  1  0
 18  7  1  0
 19 21  1  0
 19 17  1  0
 20 19  2  0
 22 21  1  0
 22 29  1  0
 22 23  1  6
 23 24  1  0
 24 28  1  0
 24 25  2  0
 25 26  1  0
 27 26  1  0
 28 27  2  0
 29 30  1  0
 31 29  2  0
M  END
$$$$
