YQC.pdb
     RDKit          3D

 28 28  0  0  1  0  0  0  0  0999 V2000
   29.5434  -20.5868   -5.9072 O   0  0  0  0  0  0  0  0  0  0  0  0
   28.6393  -20.4635   -6.9518 C   0  0  0  0  0  0  0  0  0  0  0  0
   27.5615  -19.6001   -6.8887 C   0  0  0  0  0  0  0  0  0  0  0  0
   26.6959  -19.5109   -7.9415 C   0  0  0  0  0  0  0  0  0  0  0  0
   26.8469  -20.2571   -9.0924 C   0  0  0  0  0  0  0  0  0  0  0  0
   25.9034  -20.1453  -10.2132 C   0  0  0  0  0  0  0  0  0  0  0  0
   26.3319  -21.1512  -11.2794 C   0  0  2  0  0  0  0  0  0  0  0  0
   27.6921  -20.8382  -11.6276 N   0  0  0  0  0  0  0  0  0  0  0  0
   25.4773  -21.0304  -12.4823 C   0  0  0  0  0  0  0  0  0  0  0  0
   25.9557  -20.4613  -13.4983 O   0  0  0  0  0  0  0  0  0  0  0  0
   27.9256  -21.1310   -9.1736 C   0  0  0  0  0  0  0  0  0  0  0  0
   28.7883  -21.2133   -8.1123 C   0  0  0  0  0  0  0  0  0  0  0  0
   25.4544  -24.2676  -15.6015 N   0  0  0  0  0  0  0  0  0  0  0  0
   24.5928  -24.7071  -14.5427 C   0  0  0  0  0  0  0  0  0  0  0  0
   24.7171  -25.8884  -14.1256 O   0  0  0  0  0  0  0  0  0  0  0  0
   23.5829  -23.8386  -13.9364 C   0  0  0  0  0  0  0  0  0  0  0  0
   23.4344  -22.4898  -14.5331 C   0  0  0  0  0  0  0  0  0  0  0  0
   23.2690  -21.3591  -13.5542 C   0  0  2  0  0  0  0  0  0  0  0  0
   24.1662  -21.5568  -12.4393 N   0  0  0  0  0  0  0  0  0  0  0  0
   21.8722  -21.2260  -13.0766 C   0  0  0  0  0  0  0  0  0  0  0  0
   21.2494  -22.1225  -12.4597 O   0  0  0  0  0  0  0  0  0  0  0  0
   21.1920  -20.0080  -13.3314 N   0  0  0  0  0  0  0  0  0  0  0  0
   19.8765  -19.7028  -12.8562 C   0  0  1  0  0  0  0  0  0  0  0  0
   19.5392  -18.2359  -12.9199 C   0  0  0  0  0  0  0  0  0  0  0  0
   20.1900  -17.5964  -14.4914 S   0  0  0  0  0  0  0  0  0  0  0  0
   18.8758  -20.4710  -13.6350 C   0  0  0  0  0  0  0  0  0  0  0  0
   19.2057  -21.1645  -14.7935 O   0  0  0  0  0  0  0  0  0  0  0  0
   17.6832  -20.5163  -13.2621 O   0  0  0  0  0  0  0  0  0  0  0  0
  2  1  1  0
  3  2  2  0
  4  3  1  0
  5 11  1  0
  5  4  2  0
  6  7  1  0
  6  5  1  0
  7  9  1  0
  7  8  1  6
  9 10  2  0
 11 12  2  0
 12  2  1  0
 14 13  1  0
 14 16  1  0
 15 14  2  0
 17 16  1  0
 18 17  1  6
 19  9  1  0
 19 18  1  0
 20 18  1  0
 20 21  2  0
 22 20  1  0
 23 22  1  0
 23 26  1  0
 23 24  1  6
 25 24  1  0
 26 27  1  0
 28 26  2  0
M  END
$$$$
