YQC.pdb
     RDKit          3D

 28 28  0  0  1  0  0  0  0  0999 V2000
   23.2608  -21.9522   -8.3498 O   0  0  0  0  0  0  0  0  0  0  0  0
   24.1051  -21.4785   -9.3431 C   0  0  0  0  0  0  0  0  0  0  0  0
   25.4791  -21.6029   -9.2562 C   0  0  0  0  0  0  0  0  0  0  0  0
   26.2727  -21.1216  -10.2584 C   0  0  0  0  0  0  0  0  0  0  0  0
   25.7595  -20.5027  -11.3798 C   0  0  0  0  0  0  0  0  0  0  0  0
   26.6319  -19.9921  -12.4461 C   0  0  0  0  0  0  0  0  0  0  0  0
   26.2029  -20.6577  -13.7520 C   0  0  2  0  0  0  0  0  0  0  0  0
   26.8092  -21.9620  -13.7758 N   0  0  0  0  0  0  0  0  0  0  0  0
   26.6773  -19.8748  -14.9156 C   0  0  0  0  0  0  0  0  0  0  0  0
   27.7321  -20.2467  -15.4938 O   0  0  0  0  0  0  0  0  0  0  0  0
   24.3792  -20.3687  -11.4843 C   0  0  0  0  0  0  0  0  0  0  0  0
   23.5917  -20.8547  -10.4739 C   0  0  0  0  0  0  0  0  0  0  0  0
   27.0965  -18.5799  -21.4490 N   0  0  0  0  0  0  0  0  0  0  0  0
   26.7825  -19.0769  -20.1409 C   0  0  0  0  0  0  0  0  0  0  0  0
   26.4607  -20.2885  -20.0258 O   0  0  0  0  0  0  0  0  0  0  0  0
   26.8219  -18.2323  -18.9464 C   0  0  0  0  0  0  0  0  0  0  0  0
   26.4779  -18.8927  -17.6647 C   0  0  0  0  0  0  0  0  0  0  0  0
   26.3486  -17.9797  -16.4756 C   0  0  2  0  0  0  0  0  0  0  0  0
   25.9295  -18.7480  -15.3262 N   0  0  0  0  0  0  0  0  0  0  0  0
   25.4065  -16.8622  -16.7221 C   0  0  0  0  0  0  0  0  0  0  0  0
   24.1634  -16.9954  -16.8154 O   0  0  0  0  0  0  0  0  0  0  0  0
   25.9411  -15.5562  -16.8622 N   0  0  0  0  0  0  0  0  0  0  0  0
   25.1508  -14.3688  -16.9848 C   0  0  1  0  0  0  0  0  0  0  0  0
   25.7786  -13.1593  -16.3424 C   0  0  0  0  0  0  0  0  0  0  0  0
   26.1887  -13.6053  -14.6292 S   0  0  0  0  0  0  0  0  0  0  0  0
   24.8956  -14.0869  -18.4178 C   0  0  0  0  0  0  0  0  0  0  0  0
   25.4893  -14.8198  -19.4386 O   0  0  0  0  0  0  0  0  0  0  0  0
   24.1231  -13.1626  -18.7528 O   0  0  0  0  0  0  0  0  0  0  0  0
  2  1  1  0
  3  2  2  0
  4  3  1  0
  5 11  1  0
  5  4  2  0
  6  7  1  0
  6  5  1  0
  7  9  1  0
  7  8  1  6
  9 10  2  0
 11 12  2  0
 12  2  1  0
 14 13  1  0
 14 16  1  0
 15 14  2  0
 17 16  1  0
 18 17  1  6
 19  9  1  0
 19 18  1  0
 20 18  1  0
 20 21  2  0
 22 20  1  0
 23 22  1  0
 23 26  1  0
 23 24  1  6
 25 24  1  0
 26 27  1  0
 28 26  2  0
M  END
$$$$
