YQC.pdb
     RDKit          3D

 28 28  0  0  1  0  0  0  0  0999 V2000
   32.1669  -22.2529  -10.1942 O   0  0  0  0  0  0  0  0  0  0  0  0
   31.0396  -21.6713  -10.7552 C   0  0  0  0  0  0  0  0  0  0  0  0
   31.1269  -20.7295  -11.7633 C   0  0  0  0  0  0  0  0  0  0  0  0
   29.9899  -20.1826  -12.2867 C   0  0  0  0  0  0  0  0  0  0  0  0
   28.7285  -20.5314  -11.8492 C   0  0  0  0  0  0  0  0  0  0  0  0
   27.5185  -19.9303  -12.4266 C   0  0  0  0  0  0  0  0  0  0  0  0
   27.0535  -20.8331  -13.5671 C   0  0  2  0  0  0  0  0  0  0  0  0
   28.0960  -20.8258  -14.5584 N   0  0  0  0  0  0  0  0  0  0  0  0
   25.8034  -20.3131  -14.1661 C   0  0  0  0  0  0  0  0  0  0  0  0
   25.8946  -19.4808  -15.1064 O   0  0  0  0  0  0  0  0  0  0  0  0
   28.6214  -21.4775  -10.8356 C   0  0  0  0  0  0  0  0  0  0  0  0
   29.7677  -22.0202  -10.3171 C   0  0  0  0  0  0  0  0  0  0  0  0
   25.8609  -20.0518  -17.0652 N   0  0  0  0  0  0  0  0  0  0  0  0
   24.5746  -19.5669  -17.4736 C   0  0  0  0  0  0  0  0  0  0  0  0
   24.5264  -18.7092  -18.3938 O   0  0  0  0  0  0  0  0  0  0  0  0
   23.3276  -20.0295  -16.8630 C   0  0  0  0  0  0  0  0  0  0  0  0
   23.4606  -21.0333  -15.7804 C   0  0  0  0  0  0  0  0  0  0  0  0
   23.3430  -20.4991  -14.3786 C   0  0  2  0  0  0  0  0  0  0  0  0
   24.5660  -20.7709  -13.6593 N   0  0  0  0  0  0  0  0  0  0  0  0
   22.1804  -21.0655  -13.6545 C   0  0  0  0  0  0  0  0  0  0  0  0
   21.6434  -22.1639  -13.9324 O   0  0  0  0  0  0  0  0  0  0  0  0
   21.6366  -20.3208  -12.5771 N   0  0  0  0  0  0  0  0  0  0  0  0
   20.6484  -20.8185  -11.6687 C   0  0  1  0  0  0  0  0  0  0  0  0
   20.6411  -20.1088  -10.3398 C   0  0  0  0  0  0  0  0  0  0  0  0
   22.2621  -20.3862   -9.5669 S   0  0  0  0  0  0  0  0  0  0  0  0
   19.3056  -20.7140  -12.2885 C   0  0  0  0  0  0  0  0  0  0  0  0
   18.1793  -21.3079  -11.7311 O   0  0  0  0  0  0  0  0  0  0  0  0
   19.1476  -20.0752  -13.3516 O   0  0  0  0  0  0  0  0  0  0  0  0
  2  1  1  0
  3  2  2  0
  4  3  1  0
  5 11  1  0
  5  4  2  0
  6  7  1  0
  6  5  1  0
  7  9  1  0
  7  8  1  6
  9 10  2  0
 11 12  2  0
 12  2  1  0
 14 13  1  0
 14 16  1  0
 15 14  2  0
 17 16  1  0
 18 17  1  6
 19  9  1  0
 19 18  1  0
 20 18  1  0
 20 21  2  0
 22 20  1  0
 23 22  1  0
 23 26  1  0
 23 24  1  1
 25 24  1  0
 26 27  1  0
 28 26  2  0
M  END
$$$$
