YQC.pdb
     RDKit          3D

 28 28  0  0  1  0  0  0  0  0999 V2000
   30.4808  -10.0650  -17.8186 O   0  0  0  0  0  0  0  0  0  0  0  0
   29.3232  -10.7429  -18.1710 C   0  0  0  0  0  0  0  0  0  0  0  0
   28.6679  -10.5009  -19.3638 C   0  0  0  0  0  0  0  0  0  0  0  0
   27.5304  -11.1923  -19.6701 C   0  0  0  0  0  0  0  0  0  0  0  0
   26.9897  -12.1429  -18.8285 C   0  0  0  0  0  0  0  0  0  0  0  0
   25.7647  -12.8750  -19.1779 C   0  0  0  0  0  0  0  0  0  0  0  0
   26.1054  -14.3636  -19.1949 C   0  0  2  0  0  0  0  0  0  0  0  0
   27.0974  -14.5542  -20.2192 N   0  0  0  0  0  0  0  0  0  0  0  0
   24.9056  -15.1685  -19.5181 C   0  0  0  0  0  0  0  0  0  0  0  0
   24.5768  -15.2887  -20.7274 O   0  0  0  0  0  0  0  0  0  0  0  0
   27.6357  -12.3995  -17.6239 C   0  0  0  0  0  0  0  0  0  0  0  0
   28.7759  -11.7008  -17.3259 C   0  0  0  0  0  0  0  0  0  0  0  0
   23.2017  -20.5491  -16.9760 N   0  0  0  0  0  0  0  0  0  0  0  0
   22.0807  -20.1457  -17.7743 C   0  0  0  0  0  0  0  0  0  0  0  0
   21.1408  -20.9669  -17.9388 O   0  0  0  0  0  0  0  0  0  0  0  0
   21.9926  -18.8254  -18.3993 C   0  0  0  0  0  0  0  0  0  0  0  0
   23.1095  -17.8916  -18.1196 C   0  0  0  0  0  0  0  0  0  0  0  0
   22.9863  -16.5251  -18.7375 C   0  0  2  0  0  0  0  0  0  0  0  0
   24.1832  -15.7653  -18.4599 N   0  0  0  0  0  0  0  0  0  0  0  0
   21.7880  -15.7956  -18.2592 C   0  0  0  0  0  0  0  0  0  0  0  0
   21.7410  -15.1402  -17.1914 O   0  0  0  0  0  0  0  0  0  0  0  0
   20.6166  -15.8387  -19.0574 N   0  0  0  0  0  0  0  0  0  0  0  0
   19.4020  -15.1474  -18.7472 C   0  0  1  0  0  0  0  0  0  0  0  0
   18.8457  -14.3598  -19.9047 C   0  0  0  0  0  0  0  0  0  0  0  0
   19.8132  -12.8271  -20.0340 S   0  0  0  0  0  0  0  0  0  0  0  0
   18.3834  -16.1175  -18.2787 C   0  0  0  0  0  0  0  0  0  0  0  0
   17.6528  -15.9257  -17.1119 O   0  0  0  0  0  0  0  0  0  0  0  0
   18.1498  -17.1558  -18.9348 O   0  0  0  0  0  0  0  0  0  0  0  0
  2  1  1  0
  3  2  2  0
  4  3  1  0
  5 11  1  0
  5  4  2  0
  6  7  1  0
  6  5  1  0
  7  9  1  0
  7  8  1  6
  9 10  2  0
 11 12  2  0
 12  2  1  0
 14 13  1  0
 14 16  1  0
 15 14  2  0
 17 16  1  0
 18 17  1  1
 19  9  1  0
 19 18  1  0
 20 18  1  0
 20 21  2  0
 22 20  1  0
 23 22  1  0
 23 26  1  0
 23 24  1  6
 25 24  1  0
 26 27  1  0
 28 26  2  0
M  END
$$$$
