YQC.pdb
     RDKit          3D

 28 28  0  0  1  0  0  0  0  0999 V2000
   19.6899  -12.5254  -16.2056 O   0  0  0  0  0  0  0  0  0  0  0  0
   18.9611  -11.5567  -15.5315 C   0  0  0  0  0  0  0  0  0  0  0  0
   17.7056  -11.1605  -15.9530 C   0  0  0  0  0  0  0  0  0  0  0  0
   17.0233  -10.2025  -15.2584 C   0  0  0  0  0  0  0  0  0  0  0  0
   17.5366   -9.5960  -14.1302 C   0  0  0  0  0  0  0  0  0  0  0  0
   16.7852   -8.5673  -13.3981 C   0  0  0  0  0  0  0  0  0  0  0  0
   16.2152   -9.2194  -12.1403 C   0  0  2  0  0  0  0  0  0  0  0  0
   15.3008  -10.2409  -12.5760 N   0  0  0  0  0  0  0  0  0  0  0  0
   15.4853   -8.2238  -11.3229 C   0  0  0  0  0  0  0  0  0  0  0  0
   14.4357   -7.7168  -11.7987 O   0  0  0  0  0  0  0  0  0  0  0  0
   18.7986   -9.9821  -13.6915 C   0  0  0  0  0  0  0  0  0  0  0  0
   19.4749  -10.9438  -14.3951 C   0  0  0  0  0  0  0  0  0  0  0  0
   12.1535   -6.9675   -8.2864 N   0  0  0  0  0  0  0  0  0  0  0  0
   12.5827   -8.3311   -8.1724 C   0  0  0  0  0  0  0  0  0  0  0  0
   11.7129   -9.2377   -8.2527 O   0  0  0  0  0  0  0  0  0  0  0  0
   13.9834   -8.7020   -7.9670 C   0  0  0  0  0  0  0  0  0  0  0  0
   14.9547   -7.5842   -7.9003 C   0  0  0  0  0  0  0  0  0  0  0  0
   15.2942   -6.9369   -9.2157 C   0  0  2  0  0  0  0  0  0  0  0  0
   15.9954   -7.8862  -10.0488 N   0  0  0  0  0  0  0  0  0  0  0  0
   16.0990   -5.7038   -9.0465 C   0  0  0  0  0  0  0  0  0  0  0  0
   17.2679   -5.6811   -8.5935 O   0  0  0  0  0  0  0  0  0  0  0  0
   15.5135   -4.4673   -9.4198 N   0  0  0  0  0  0  0  0  0  0  0  0
   16.1952   -3.2087   -9.3887 C   0  0  1  0  0  0  0  0  0  0  0  0
   16.3823   -2.5922  -10.7505 C   0  0  0  0  0  0  0  0  0  0  0  0
   17.3410   -3.7671  -11.7518 S   0  0  0  0  0  0  0  0  0  0  0  0
   15.4546   -2.2634   -8.5193 C   0  0  0  0  0  0  0  0  0  0  0  0
   16.0026   -1.0604   -8.0897 O   0  0  0  0  0  0  0  0  0  0  0  0
   14.2927   -2.5290   -8.1415 O   0  0  0  0  0  0  0  0  0  0  0  0
  2  1  1  0
  3  2  2  0
  4  3  1  0
  5 11  1  0
  5  4  2  0
  6  7  1  0
  6  5  1  0
  7  9  1  0
  7  8  1  6
  9 10  2  0
 11 12  2  0
 12  2  1  0
 14 13  1  0
 14 16  1  0
 15 14  2  0
 17 16  1  0
 18 17  1  1
 19  9  1  0
 19 18  1  0
 20 18  1  0
 20 21  2  0
 22 20  1  0
 23 22  1  0
 23 26  1  0
 23 24  1  6
 25 24  1  0
 26 27  1  0
 28 26  2  0
M  END
$$$$
