YQC.pdb
     RDKit          3D

 28 28  0  0  1  0  0  0  0  0999 V2000
    5.5646  -16.2109  -20.3961 O   0  0  0  0  0  0  0  0  0  0  0  0
    6.7387  -16.4523  -19.6982 C   0  0  0  0  0  0  0  0  0  0  0  0
    6.7589  -16.5796  -18.3219 C   0  0  0  0  0  0  0  0  0  0  0  0
    7.9386  -16.8172  -17.6757 C   0  0  0  0  0  0  0  0  0  0  0  0
    9.1398  -16.9395  -18.3437 C   0  0  0  0  0  0  0  0  0  0  0  0
   10.3975  -17.1951  -17.6284 C   0  0  0  0  0  0  0  0  0  0  0  0
   10.6917  -15.9733  -16.7607 C   0  0  2  0  0  0  0  0  0  0  0  0
   11.0326  -14.8981  -17.6537 N   0  0  0  0  0  0  0  0  0  0  0  0
   11.8328  -16.2400  -15.8559 C   0  0  0  0  0  0  0  0  0  0  0  0
   12.9864  -15.9128  -16.2395 O   0  0  0  0  0  0  0  0  0  0  0  0
    9.1386  -16.8143  -19.7288 C   0  0  0  0  0  0  0  0  0  0  0  0
    7.9502  -16.5760  -20.3677 C   0  0  0  0  0  0  0  0  0  0  0  0
   11.3281  -17.1927   -9.5388 N   0  0  0  0  0  0  0  0  0  0  0  0
   11.2092  -16.0189  -10.3540 C   0  0  0  0  0  0  0  0  0  0  0  0
   10.6858  -14.9924   -9.8469 O   0  0  0  0  0  0  0  0  0  0  0  0
   11.6698  -15.9734  -11.7424 C   0  0  0  0  0  0  0  0  0  0  0  0
   12.1740  -17.2475  -12.3080 C   0  0  0  0  0  0  0  0  0  0  0  0
   12.6766  -17.1775  -13.7246 C   0  0  2  0  0  0  0  0  0  0  0  0
   11.5798  -16.8480  -14.6053 N   0  0  0  0  0  0  0  0  0  0  0  0
   13.3253  -18.4385  -14.1560 C   0  0  0  0  0  0  0  0  0  0  0  0
   12.7595  -19.3251  -14.8385 O   0  0  0  0  0  0  0  0  0  0  0  0
   14.6730  -18.6611  -13.7747 N   0  0  0  0  0  0  0  0  0  0  0  0
   15.4641  -19.7703  -14.2145 C   0  0  1  0  0  0  0  0  0  0  0  0
   16.6253  -19.3721  -15.0878 C   0  0  0  0  0  0  0  0  0  0  0  0
   17.5710  -20.8797  -15.4551 S   0  0  0  0  0  0  0  0  0  0  0  0
   15.9683  -20.5189  -13.0383 C   0  0  0  0  0  0  0  0  0  0  0  0
   16.0521  -21.9061  -13.0178 O   0  0  0  0  0  0  0  0  0  0  0  0
   16.3394  -19.9090  -12.0119 O   0  0  0  0  0  0  0  0  0  0  0  0
  2  1  1  0
  3  2  2  0
  4  3  1  0
  5 11  1  0
  5  4  2  0
  6  7  1  0
  6  5  1  0
  7  9  1  0
  7  8  1  6
  9 10  2  0
 11 12  2  0
 12  2  1  0
 14 13  1  0
 14 16  1  0
 15 14  2  0
 17 16  1  0
 18 17  1  1
 19  9  1  0
 19 18  1  0
 20 18  1  0
 20 21  2  0
 22 20  1  0
 23 22  1  0
 23 26  1  0
 23 24  1  1
 25 24  1  0
 26 27  1  0
 28 26  2  0
M  END
$$$$
