YQC.pdb
     RDKit          3D

 28 28  0  0  1  0  0  0  0  0999 V2000
   15.5319  -16.3421  -13.6247 O   0  0  0  0  0  0  0  0  0  0  0  0
   16.7944  -16.9123  -13.6947 C   0  0  0  0  0  0  0  0  0  0  0  0
   16.9867  -18.2780  -13.6007 C   0  0  0  0  0  0  0  0  0  0  0  0
   18.2483  -18.7963  -13.6749 C   0  0  0  0  0  0  0  0  0  0  0  0
   19.3671  -18.0062  -13.8428 C   0  0  0  0  0  0  0  0  0  0  0  0
   20.7154  -18.5850  -13.9199 C   0  0  0  0  0  0  0  0  0  0  0  0
   21.1388  -18.5753  -15.3872 C   0  0  2  0  0  0  0  0  0  0  0  0
   20.3198  -19.5441  -16.0656 N   0  0  0  0  0  0  0  0  0  0  0  0
   22.5629  -18.9572  -15.5206 C   0  0  0  0  0  0  0  0  0  0  0  0
   22.8743  -20.1651  -15.3496 O   0  0  0  0  0  0  0  0  0  0  0  0
   19.1927  -16.6299  -13.9393 C   0  0  0  0  0  0  0  0  0  0  0  0
   17.9233  -16.1197  -13.8638 C   0  0  0  0  0  0  0  0  0  0  0  0
   26.5379  -17.9977  -18.9490 N   0  0  0  0  0  0  0  0  0  0  0  0
   27.5020  -17.7766  -17.9107 C   0  0  0  0  0  0  0  0  0  0  0  0
   28.7110  -18.0253  -18.1581 O   0  0  0  0  0  0  0  0  0  0  0  0
   27.1326  -17.2777  -16.5854 C   0  0  0  0  0  0  0  0  0  0  0  0
   25.6854  -17.0658  -16.3444 C   0  0  0  0  0  0  0  0  0  0  0  0
   24.9143  -18.2796  -15.9012 C   0  0  2  0  0  0  0  0  0  0  0  0
   23.5085  -17.9542  -15.8328 N   0  0  0  0  0  0  0  0  0  0  0  0
   25.3878  -18.8041  -14.5982 C   0  0  0  0  0  0  0  0  0  0  0  0
   25.1845  -18.2422  -13.4960 O   0  0  0  0  0  0  0  0  0  0  0  0
   26.1182  -20.0196  -14.5927 N   0  0  0  0  0  0  0  0  0  0  0  0
   26.6647  -20.6283  -13.4178 C   0  0  1  0  0  0  0  0  0  0  0  0
   25.6248  -20.9949  -12.3912 C   0  0  0  0  0  0  0  0  0  0  0  0
   26.4731  -21.8824  -11.0515 S   0  0  0  0  0  0  0  0  0  0  0  0
   27.4303  -21.8403  -13.7958 C   0  0  0  0  0  0  0  0  0  0  0  0
   26.9781  -22.7382  -14.7557 O   0  0  0  0  0  0  0  0  0  0  0  0
   28.5263  -22.0921  -13.2494 O   0  0  0  0  0  0  0  0  0  0  0  0
  2  1  1  0
  3  2  2  0
  4  3  1  0
  5 11  1  0
  5  4  2  0
  6  7  1  0
  6  5  1  0
  7  9  1  0
  7  8  1  6
  9 10  2  0
 11 12  2  0
 12  2  1  0
 14 13  1  0
 14 16  1  0
 15 14  2  0
 17 16  1  0
 18 17  1  1
 19  9  1  0
 19 18  1  0
 20 18  1  0
 20 21  2  0
 22 20  1  0
 23 22  1  0
 23 26  1  0
 23 24  1  1
 25 24  1  0
 26 27  1  0
 28 26  2  0
M  END
$$$$
