YQC.pdb
     RDKit          3D

 28 28  0  0  1  0  0  0  0  0999 V2000
   26.0239  -15.7614  -22.4404 O   0  0  0  0  0  0  0  0  0  0  0  0
   25.2765  -14.6557  -22.0628 C   0  0  0  0  0  0  0  0  0  0  0  0
   24.0203  -14.4089  -22.5845 C   0  0  0  0  0  0  0  0  0  0  0  0
   23.3194  -13.3071  -22.1839 C   0  0  0  0  0  0  0  0  0  0  0  0
   23.8140  -12.4066  -21.2626 C   0  0  0  0  0  0  0  0  0  0  0  0
   23.0427  -11.2276  -20.8459 C   0  0  0  0  0  0  0  0  0  0  0  0
   22.2756  -11.6018  -19.5794 C   0  0  2  0  0  0  0  0  0  0  0  0
   21.4323  -12.7178  -19.9152 N   0  0  0  0  0  0  0  0  0  0  0  0
   21.4349  -10.4703  -19.1267 C   0  0  0  0  0  0  0  0  0  0  0  0
   20.4791  -10.1070  -19.8613 O   0  0  0  0  0  0  0  0  0  0  0  0
   25.0763  -12.6390  -20.7271 C   0  0  0  0  0  0  0  0  0  0  0  0
   25.7715  -13.7468  -21.1353 C   0  0  0  0  0  0  0  0  0  0  0  0
   17.3298   -9.3117  -15.2792 N   0  0  0  0  0  0  0  0  0  0  0  0
   18.2565  -10.4053  -15.3203 C   0  0  0  0  0  0  0  0  0  0  0  0
   18.0933  -11.3547  -14.5098 O   0  0  0  0  0  0  0  0  0  0  0  0
   19.3755  -10.4552  -16.2621 C   0  0  0  0  0  0  0  0  0  0  0  0
   19.5036   -9.3061  -17.1898 C   0  0  0  0  0  0  0  0  0  0  0  0
   20.9006   -8.7850  -17.3925 C   0  0  2  0  0  0  0  0  0  0  0  0
   21.7395   -9.8487  -17.8944 N   0  0  0  0  0  0  0  0  0  0  0  0
   21.4758   -8.2149  -16.1510 C   0  0  0  0  0  0  0  0  0  0  0  0
   22.0863   -8.8844  -15.2844 O   0  0  0  0  0  0  0  0  0  0  0  0
   21.3286   -6.8228  -15.9244 N   0  0  0  0  0  0  0  0  0  0  0  0
   21.8314   -6.1341  -14.7744 C   0  0  1  0  0  0  0  0  0  0  0  0
   22.0713   -4.6655  -15.0099 C   0  0  0  0  0  0  0  0  0  0  0  0
   22.5987   -3.9407  -13.4293 S   0  0  0  0  0  0  0  0  0  0  0  0
   20.8888   -6.3023  -13.6425 C   0  0  0  0  0  0  0  0  0  0  0  0
   21.3005   -6.7369  -12.3881 O   0  0  0  0  0  0  0  0  0  0  0  0
   19.6726   -6.0522  -13.7896 O   0  0  0  0  0  0  0  0  0  0  0  0
  2  1  1  0
  3  2  2  0
  4  3  1  0
  5 11  1  0
  5  4  2  0
  6  7  1  0
  6  5  1  0
  7  9  1  0
  7  8  1  6
  9 10  2  0
 11 12  2  0
 12  2  1  0
 14 13  1  0
 14 16  1  0
 15 14  2  0
 17 16  1  0
 18 17  1  1
 19  9  1  0
 19 18  1  0
 20 18  1  0
 20 21  2  0
 22 20  1  0
 23 22  1  0
 23 26  1  0
 23 24  1  6
 25 24  1  0
 26 27  1  0
 28 26  2  0
M  END
$$$$
