RDY.pdb
     RDKit          3D

 32 32  0  0  1  0  0  0  0  0999 V2000
    8.7968  -14.1969   16.5232 N   0  0  0  0  0  0  0  0  0  0  0  0
    7.4605  -13.7238   16.5692 C   0  0  0  0  0  0  0  0  0  0  0  0
    6.6776  -13.7191   15.5129 N   0  0  0  0  0  0  0  0  0  0  0  0
    6.8679  -13.2108   17.7445 N   0  0  0  0  0  0  0  0  0  0  0  0
    7.5662  -13.0445   18.9874 C   0  0  0  0  0  0  0  0  0  0  0  0
    8.2842  -14.2457   19.4888 C   0  0  0  0  0  0  0  0  0  0  0  0
    8.0419  -14.6749   20.8788 C   0  0  0  0  0  0  0  0  0  0  0  0
    9.1646  -14.4808   21.8452 C   0  0  2  0  0  0  0  0  0  0  0  0
   10.4591  -14.4566   21.1734 N   0  0  0  0  0  0  0  0  0  0  0  0
    9.1798  -15.5342   22.8966 C   0  0  0  0  0  0  0  0  0  0  0  0
    8.1878  -15.8124   23.6130 O   0  0  0  0  0  0  0  0  0  0  0  0
    5.7357  -13.3024   15.6608 N   0  0  0  0  0  0  0  0  0  0  0  0
   10.3726  -16.3074   23.1479 C   0  0  1  0  0  0  0  0  0  0  0  0
   10.4150  -17.2545   24.2431 C   0  0  0  0  0  0  0  0  0  0  0  0
   11.5395  -18.2247   23.9862 C   0  0  0  0  0  0  0  0  0  0  0  0
   11.1574  -19.3104   23.0574 O   0  0  0  0  0  0  0  0  0  0  0  0
   10.0065  -19.4886   22.5925 C   0  0  0  0  0  0  0  0  0  0  0  0
   10.5948  -16.5234   25.5325 O   0  0  0  0  0  0  0  0  0  0  0  0
   11.5202  -15.6796   25.6450 O   0  0  0  0  0  0  0  0  0  0  0  0
   12.1287  -20.2402   22.6347 O   0  0  0  0  0  0  0  0  0  0  0  0
    6.8696  -11.3711   25.1726 C   0  0  0  0  0  0  0  0  0  0  0  0
    7.3525  -12.3938   25.9993 C   0  0  0  0  0  0  0  0  0  0  0  0
    8.4788  -12.2139   26.7717 C   0  0  0  0  0  0  0  0  0  0  0  0
    8.9619  -13.2337   27.5975 C   0  0  0  0  0  0  0  0  0  0  0  0
    8.2967  -14.4356   27.6351 C   0  0  0  0  0  0  0  0  0  0  0  0
    8.7982  -15.5134   28.5018 C   0  0  2  0  0  0  0  0  0  0  0  0
   10.0127  -16.2059   27.9640 N   0  0  0  0  0  0  0  0  0  0  0  0
    9.7642  -16.7372   26.6461 C   0  0  0  0  0  0  0  0  0  0  0  0
   10.4539  -17.2814   28.9097 O   0  0  0  0  0  0  0  0  0  0  0  0
   10.5393  -18.5806   28.4773 C   0  0  0  0  0  0  0  0  0  0  0  0
    7.1616  -14.5897   26.8445 C   0  0  0  0  0  0  0  0  0  0  0  0
    6.6731  -13.5967   26.0269 O   0  0  0  0  0  0  0  0  0  0  0  0
  2  3  2  0
  2  1  1  0
  4  2  1  0
  5  4  1  0
  6  5  1  0
  7  6  1  0
  8  7  1  0
  8  9  1  6
 10 11  2  0
 10  8  1  0
 12 10  1  0
 13 17  1  0
 13 12  1  0
 13 14  1  1
 15 16  2  0
 15 14  1  0
 17 18  2  0
 19 15  1  0
 20 21  1  0
 21 31  2  0
 22 23  2  0
 22 21  1  0
 23 24  1  0
 24 25  1  0
 24 30  2  0
 26 25  1  6
 27 26  1  0
 27 17  1  0
 28 26  1  0
 29 28  1  0
 31 30  1  0
 32 28  2  0
M  END
$$$$
