RDY.pdb
     RDKit          3D

 32 32  0  0  1  0  0  0  0  0999 V2000
    9.2031  -13.3329   17.2669 N   0  0  0  0  0  0  0  0  0  0  0  0
    7.9393  -13.4775   17.8944 C   0  0  0  0  0  0  0  0  0  0  0  0
    7.5190  -12.6556   18.8306 N   0  0  0  0  0  0  0  0  0  0  0  0
    7.0382  -14.5176   17.5751 N   0  0  0  0  0  0  0  0  0  0  0  0
    7.2250  -15.8870   17.9626 C   0  0  0  0  0  0  0  0  0  0  0  0
    6.5298  -16.3045   19.2086 C   0  0  0  0  0  0  0  0  0  0  0  0
    7.3211  -16.9690   20.2608 C   0  0  0  0  0  0  0  0  0  0  0  0
    8.4465  -16.1825   20.8499 C   0  0  2  0  0  0  0  0  0  0  0  0
    9.3824  -15.7278   19.8279 N   0  0  0  0  0  0  0  0  0  0  0  0
    9.1879  -16.9610   21.8793 C   0  0  0  0  0  0  0  0  0  0  0  0
    8.6281  -17.5799   22.8165 O   0  0  0  0  0  0  0  0  0  0  0  0
    6.5325  -12.7933   19.1315 N   0  0  0  0  0  0  0  0  0  0  0  0
   10.6288  -17.0422   21.8456 C   0  0  1  0  0  0  0  0  0  0  0  0
   11.3488  -17.7341   22.8950 C   0  0  0  0  0  0  0  0  0  0  0  0
   12.6895  -18.1555   22.3502 C   0  0  0  0  0  0  0  0  0  0  0  0
   13.5487  -18.7903   23.3731 O   0  0  0  0  0  0  0  0  0  0  0  0
   13.1576  -19.6205   24.2276 C   0  0  0  0  0  0  0  0  0  0  0  0
   11.4871  -16.8400   24.0827 O   0  0  0  0  0  0  0  0  0  0  0  0
   12.2166  -15.8184   24.0104 O   0  0  0  0  0  0  0  0  0  0  0  0
   14.9196  -18.4677   23.4297 O   0  0  0  0  0  0  0  0  0  0  0  0
    6.1071  -11.4099   27.8286 C   0  0  0  0  0  0  0  0  0  0  0  0
    6.8622  -12.3873   27.1676 C   0  0  0  0  0  0  0  0  0  0  0  0
    8.2372  -12.4026   27.2504 C   0  0  0  0  0  0  0  0  0  0  0  0
    8.9922  -13.3776   26.5912 C   0  0  0  0  0  0  0  0  0  0  0  0
    8.3453  -14.3357   25.8485 C   0  0  0  0  0  0  0  0  0  0  0  0
    9.1324  -15.3654   25.1523 C   0  0  2  0  0  0  0  0  0  0  0  0
   10.0845  -16.1033   26.0428 N   0  0  0  0  0  0  0  0  0  0  0  0
   10.8289  -17.0901   25.2993 C   0  0  0  0  0  0  0  0  0  0  0  0
    9.3426  -16.7285   27.1849 O   0  0  0  0  0  0  0  0  0  0  0  0
    9.0599  -18.0708   27.1648 C   0  0  0  0  0  0  0  0  0  0  0  0
    6.9556  -14.2964   25.7822 C   0  0  0  0  0  0  0  0  0  0  0  0
    6.1979  -13.3444   26.4246 O   0  0  0  0  0  0  0  0  0  0  0  0
  2  3  2  0
  2  1  1  0
  4  2  1  0
  5  4  1  0
  6  5  1  0
  7  6  1  0
  8  7  1  0
  8  9  1  6
 10 11  2  0
 10  8  1  0
 12 10  1  0
 13 17  1  0
 13 12  1  0
 13 14  1  6
 15 16  2  0
 15 14  1  0
 17 18  2  0
 19 15  1  0
 20 21  1  0
 21 31  2  0
 22 23  2  0
 22 21  1  0
 23 24  1  0
 24 25  1  0
 24 30  2  0
 26 25  1  6
 27 26  1  0
 27 17  1  0
 28 26  1  0
 29 28  1  0
 31 30  1  0
 32 28  2  0
M  END
$$$$
