RDY.pdb
     RDKit          3D

 32 32  0  0  1  0  0  0  0  0999 V2000
    7.3451  -12.5617   16.4652 N   0  0  0  0  0  0  0  0  0  0  0  0
    7.5561  -13.4791   15.4042 C   0  0  0  0  0  0  0  0  0  0  0  0
    7.9674  -13.0988   14.2147 N   0  0  0  0  0  0  0  0  0  0  0  0
    7.3317  -14.8678   15.5342 N   0  0  0  0  0  0  0  0  0  0  0  0
    7.8662  -15.6701   16.5976 C   0  0  0  0  0  0  0  0  0  0  0  0
    8.9549  -15.0435   17.3927 C   0  0  0  0  0  0  0  0  0  0  0  0
    9.0226  -15.3361   18.8366 C   0  0  0  0  0  0  0  0  0  0  0  0
   10.2059  -16.1175   19.3070 C   0  0  2  0  0  0  0  0  0  0  0  0
   10.4594  -17.2782   18.4609 N   0  0  0  0  0  0  0  0  0  0  0  0
   10.0490  -16.5663   20.7174 C   0  0  0  0  0  0  0  0  0  0  0  0
    9.6279  -15.8245   21.6379 O   0  0  0  0  0  0  0  0  0  0  0  0
    8.0192  -13.8540   13.5009 N   0  0  0  0  0  0  0  0  0  0  0  0
   10.3844  -17.9165   21.1027 C   0  0  1  0  0  0  0  0  0  0  0  0
   10.2109  -18.3522   22.4732 C   0  0  0  0  0  0  0  0  0  0  0  0
    9.7349  -19.7823   22.4583 C   0  0  0  0  0  0  0  0  0  0  0  0
    9.6824  -20.3818   23.8092 O   0  0  0  0  0  0  0  0  0  0  0  0
    8.8244  -20.1135   24.6835 C   0  0  0  0  0  0  0  0  0  0  0  0
   11.4984  -18.2023   23.2145 O   0  0  0  0  0  0  0  0  0  0  0  0
   12.1868  -19.2211   23.4774 O   0  0  0  0  0  0  0  0  0  0  0  0
   10.6511  -21.3332   24.1877 O   0  0  0  0  0  0  0  0  0  0  0  0
    9.9871  -14.3436   30.7200 C   0  0  0  0  0  0  0  0  0  0  0  0
   10.1225  -14.7602   29.3894 C   0  0  0  0  0  0  0  0  0  0  0  0
   10.1022  -13.8531   28.3529 C   0  0  0  0  0  0  0  0  0  0  0  0
   10.2372  -14.2674   27.0242 C   0  0  0  0  0  0  0  0  0  0  0  0
   10.3927  -15.6056   26.7534 C   0  0  0  0  0  0  0  0  0  0  0  0
   10.5360  -16.0497   25.3582 C   0  0  1  0  0  0  0  0  0  0  0  0
   11.9267  -16.4748   24.9989 N   0  0  0  0  0  0  0  0  0  0  0  0
   11.9861  -16.9545   23.6398 C   0  0  0  0  0  0  0  0  0  0  0  0
   12.4138  -17.5128   25.9638 O   0  0  0  0  0  0  0  0  0  0  0  0
   13.5627  -17.2950   26.6813 C   0  0  0  0  0  0  0  0  0  0  0  0
   10.4097  -16.4999   27.8198 C   0  0  0  0  0  0  0  0  0  0  0  0
   10.2783  -16.1089   29.1324 O   0  0  0  0  0  0  0  0  0  0  0  0
  2  3  2  0
  2  1  1  0
  4  2  1  0
  5  4  1  0
  6  5  1  0
  7  6  1  0
  8  7  1  0
  8  9  1  6
 10 11  2  0
 10  8  1  0
 12 10  1  0
 13 17  1  0
 13 12  1  0
 13 14  1  1
 15 16  2  0
 15 14  1  0
 17 18  2  0
 19 15  1  0
 20 21  1  0
 21 31  2  0
 22 23  2  0
 22 21  1  0
 23 24  1  0
 24 25  1  0
 24 30  2  0
 26 25  1  6
 27 26  1  0
 27 17  1  0
 28 26  1  0
 29 28  1  0
 31 30  1  0
 32 28  2  0
M  END
$$$$
