RDY.pdb
     RDKit          3D

 32 32  0  0  1  0  0  0  0  0999 V2000
    8.6385  -14.2549   18.8469 N   0  0  0  0  0  0  0  0  0  0  0  0
    8.3061  -13.1213   19.6319 C   0  0  0  0  0  0  0  0  0  0  0  0
    8.7352  -11.9127   19.3419 N   0  0  0  0  0  0  0  0  0  0  0  0
    7.5010  -13.1989   20.7901 N   0  0  0  0  0  0  0  0  0  0  0  0
    7.4959  -14.3177   21.6892 C   0  0  0  0  0  0  0  0  0  0  0  0
    6.3185  -15.2198   21.5886 C   0  0  0  0  0  0  0  0  0  0  0  0
    6.5583  -16.6679   21.4458 C   0  0  0  0  0  0  0  0  0  0  0  0
    7.3715  -17.3209   22.5155 C   0  0  2  0  0  0  0  0  0  0  0  0
    7.1959  -16.6643   23.8060 N   0  0  0  0  0  0  0  0  0  0  0  0
    8.8199  -17.3461   22.1736 C   0  0  0  0  0  0  0  0  0  0  0  0
    9.2898  -16.8682   21.1127 O   0  0  0  0  0  0  0  0  0  0  0  0
    8.4212  -11.1629   19.9914 N   0  0  0  0  0  0  0  0  0  0  0  0
    9.7794  -17.9397   23.0741 C   0  0  2  0  0  0  0  0  0  0  0  0
   10.9926  -17.2299   23.4244 C   0  0  0  0  0  0  0  0  0  0  0  0
   11.1619  -16.0801   22.4646 C   0  0  0  0  0  0  0  0  0  0  0  0
   12.4420  -16.1351   21.7261 O   0  0  0  0  0  0  0  0  0  0  0  0
   13.1726  -17.1493   21.6257 C   0  0  0  0  0  0  0  0  0  0  0  0
   10.9109  -16.7647   24.8408 O   0  0  0  0  0  0  0  0  0  0  0  0
   11.8581  -16.0998   25.3325 O   0  0  0  0  0  0  0  0  0  0  0  0
   12.9176  -14.9825   21.0687 O   0  0  0  0  0  0  0  0  0  0  0  0
    6.8037  -11.5445   24.5302 C   0  0  0  0  0  0  0  0  0  0  0  0
    7.1769  -12.6949   25.2371 C   0  0  0  0  0  0  0  0  0  0  0  0
    6.3006  -13.7445   25.4040 C   0  0  0  0  0  0  0  0  0  0  0  0
    6.6718  -14.8935   26.1093 C   0  0  0  0  0  0  0  0  0  0  0  0
    7.9354  -14.9714   26.6437 C   0  0  0  0  0  0  0  0  0  0  0  0
    8.3338  -16.1771   27.3866 C   0  0  2  0  0  0  0  0  0  0  0  0
    9.7110  -16.6640   27.0548 N   0  0  0  0  0  0  0  0  0  0  0  0
    9.8061  -17.0394   25.6652 C   0  0  0  0  0  0  0  0  0  0  0  0
   10.0849  -17.8039   27.9530 O   0  0  0  0  0  0  0  0  0  0  0  0
   10.3378  -19.0420   27.4187 C   0  0  0  0  0  0  0  0  0  0  0  0
    8.8000  -13.8963   26.4597 C   0  0  0  0  0  0  0  0  0  0  0  0
    8.4508  -12.7590   25.7686 O   0  0  0  0  0  0  0  0  0  0  0  0
  2  3  2  0
  2  1  1  0
  4  2  1  0
  5  4  1  0
  6  5  1  0
  7  6  1  0
  8  7  1  0
  8  9  1  1
 10 11  2  0
 10  8  1  0
 12 10  1  0
 13 17  1  0
 13 12  1  0
 13 14  1  6
 15 16  2  0
 15 14  1  0
 17 18  2  0
 19 15  1  0
 20 21  1  0
 21 31  2  0
 22 23  2  0
 22 21  1  0
 23 24  1  0
 24 25  1  0
 24 30  2  0
 26 25  1  6
 27 26  1  0
 27 17  1  0
 28 26  1  0
 29 28  1  0
 31 30  1  0
 32 28  2  0
M  END
$$$$
