RDY.pdb
     RDKit          3D

 32 32  0  0  1  0  0  0  0  0999 V2000
    6.9392  -13.1142   17.2811 N   0  0  0  0  0  0  0  0  0  0  0  0
    7.6303  -12.7713   18.4713 C   0  0  0  0  0  0  0  0  0  0  0  0
    7.1150  -11.9739   19.3809 N   0  0  0  0  0  0  0  0  0  0  0  0
    8.9268  -13.2463   18.7702 N   0  0  0  0  0  0  0  0  0  0  0  0
    9.3140  -13.7678   20.0501 C   0  0  0  0  0  0  0  0  0  0  0  0
    8.4125  -14.8009   20.6245 C   0  0  0  0  0  0  0  0  0  0  0  0
    8.7361  -15.3487   21.9550 C   0  0  0  0  0  0  0  0  0  0  0  0
    8.7873  -16.8372   22.0722 C   0  0  2  0  0  0  0  0  0  0  0  0
    7.5167  -17.4531   21.7067 N   0  0  0  0  0  0  0  0  0  0  0  0
    9.1641  -17.2729   23.4446 C   0  0  0  0  0  0  0  0  0  0  0  0
    8.3320  -17.6500   24.3049 O   0  0  0  0  0  0  0  0  0  0  0  0
    7.6901  -11.8498   20.2391 N   0  0  0  0  0  0  0  0  0  0  0  0
   10.5461  -17.2816   23.8616 C   0  0  2  0  0  0  0  0  0  0  0  0
   10.9138  -17.7813   25.1706 C   0  0  0  0  0  0  0  0  0  0  0  0
   12.2862  -18.3968   25.0737 C   0  0  0  0  0  0  0  0  0  0  0  0
   12.6716  -19.1309   26.2983 O   0  0  0  0  0  0  0  0  0  0  0  0
   11.9374  -19.2933   27.3018 C   0  0  0  0  0  0  0  0  0  0  0  0
   10.8729  -16.6666   26.1631 O   0  0  0  0  0  0  0  0  0  0  0  0
   11.4968  -15.6008   25.9272 O   0  0  0  0  0  0  0  0  0  0  0  0
   13.9535  -19.7099   26.3896 O   0  0  0  0  0  0  0  0  0  0  0  0
    6.8662  -12.5960   23.9732 C   0  0  0  0  0  0  0  0  0  0  0  0
    7.3680  -13.2160   25.1249 C   0  0  0  0  0  0  0  0  0  0  0  0
    8.3365  -12.6114   25.8955 C   0  0  0  0  0  0  0  0  0  0  0  0
    8.8382  -13.2290   27.0453 C   0  0  0  0  0  0  0  0  0  0  0  0
    8.3524  -14.4621   27.4084 C   0  0  0  0  0  0  0  0  0  0  0  0
    8.8746  -15.1184   28.6171 C   0  0  2  0  0  0  0  0  0  0  0  0
   10.2099  -15.7688   28.4228 N   0  0  0  0  0  0  0  0  0  0  0  0
   10.1574  -16.7534   27.3699 C   0  0  0  0  0  0  0  0  0  0  0  0
   10.6806  -16.3740   29.7104 O   0  0  0  0  0  0  0  0  0  0  0  0
   10.8801  -15.5769   30.8090 C   0  0  0  0  0  0  0  0  0  0  0  0
    7.3742  -15.0497   26.6116 C   0  0  0  0  0  0  0  0  0  0  0  0
    6.8698  -14.4557   25.4776 O   0  0  0  0  0  0  0  0  0  0  0  0
  2  3  2  0
  2  1  1  0
  4  2  1  0
  5  4  1  0
  6  5  1  0
  7  6  1  0
  8  7  1  0
  8  9  1  1
 10 11  2  0
 10  8  1  0
 12 10  1  0
 13 17  1  0
 13 12  1  0
 13 14  1  6
 15 16  2  0
 15 14  1  0
 17 18  2  0
 19 15  1  0
 20 21  1  0
 21 31  2  0
 22 23  2  0
 22 21  1  0
 23 24  1  0
 24 25  1  0
 24 30  2  0
 26 25  1  6
 27 26  1  0
 27 17  1  0
 28 26  1  0
 29 28  1  0
 31 30  1  0
 32 28  2  0
M  END
$$$$
