RDY.pdb
     RDKit          3D

 32 32  0  0  1  0  0  0  0  0999 V2000
    7.4225  -14.2744   14.7896 N   0  0  0  0  0  0  0  0  0  0  0  0
    7.5734  -15.0217   15.9856 C   0  0  0  0  0  0  0  0  0  0  0  0
    8.3342  -16.0917   16.0570 N   0  0  0  0  0  0  0  0  0  0  0  0
    6.9130  -14.6867   17.1886 N   0  0  0  0  0  0  0  0  0  0  0  0
    7.1135  -13.4543   17.8967 C   0  0  0  0  0  0  0  0  0  0  0  0
    8.3121  -13.4033   18.7746 C   0  0  0  0  0  0  0  0  0  0  0  0
    8.3733  -14.3213   19.9272 C   0  0  0  0  0  0  0  0  0  0  0  0
    9.5867  -14.2284   20.7939 C   0  0  2  0  0  0  0  0  0  0  0  0
   10.8161  -14.3578   20.0198 N   0  0  0  0  0  0  0  0  0  0  0  0
    9.5781  -15.2546   21.8719 C   0  0  0  0  0  0  0  0  0  0  0  0
    8.6291  -15.4036   22.6792 O   0  0  0  0  0  0  0  0  0  0  0  0
    8.3672  -16.5510   16.9901 N   0  0  0  0  0  0  0  0  0  0  0  0
   10.6952  -16.1527   22.0432 C   0  0  1  0  0  0  0  0  0  0  0  0
   10.7065  -17.1096   23.1307 C   0  0  0  0  0  0  0  0  0  0  0  0
   11.6377  -18.2355   22.7606 C   0  0  0  0  0  0  0  0  0  0  0  0
   11.2001  -18.9655   21.5511 O   0  0  0  0  0  0  0  0  0  0  0  0
   11.7825  -18.9346   20.4411 C   0  0  0  0  0  0  0  0  0  0  0  0
   11.1281  -16.4310   24.3921 O   0  0  0  0  0  0  0  0  0  0  0  0
   12.0873  -15.6183   24.3703 O   0  0  0  0  0  0  0  0  0  0  0  0
   10.0444  -19.7709   21.6029 O   0  0  0  0  0  0  0  0  0  0  0  0
    5.6656  -12.3827   26.3951 C   0  0  0  0  0  0  0  0  0  0  0  0
    6.9551  -12.9208   26.4964 C   0  0  0  0  0  0  0  0  0  0  0  0
    7.6922  -12.7922   27.6530 C   0  0  0  0  0  0  0  0  0  0  0  0
    8.9793  -13.3289   27.7556 C   0  0  0  0  0  0  0  0  0  0  0  0
    9.5138  -13.9958   26.6796 C   0  0  0  0  0  0  0  0  0  0  0  0
   10.8672  -14.5639   26.7797 C   0  0  1  0  0  0  0  0  0  0  0  0
   10.8899  -16.0586   26.8733 N   0  0  0  0  0  0  0  0  0  0  0  0
   10.4925  -16.6613   25.6245 C   0  0  0  0  0  0  0  0  0  0  0  0
   10.0164  -16.5177   28.0012 O   0  0  0  0  0  0  0  0  0  0  0  0
   10.3282  -16.1742   29.2922 C   0  0  0  0  0  0  0  0  0  0  0  0
    8.7469  -14.1108   25.5238 C   0  0  0  0  0  0  0  0  0  0  0  0
    7.4792  -13.5889   25.4064 O   0  0  0  0  0  0  0  0  0  0  0  0
  2  3  2  0
  2  1  1  0
  4  2  1  0
  5  4  1  0
  6  5  1  0
  7  6  1  0
  8  7  1  0
  8  9  1  6
 10 11  2  0
 10  8  1  0
 12 10  1  0
 13 17  1  0
 13 12  1  0
 13 14  1  1
 15 16  2  0
 15 14  1  0
 17 18  2  0
 19 15  1  0
 20 21  1  0
 21 31  2  0
 22 23  2  0
 22 21  1  0
 23 24  1  0
 24 25  1  0
 24 30  2  0
 26 25  1  6
 27 26  1  0
 27 17  1  0
 28 26  1  0
 29 28  1  0
 31 30  1  0
 32 28  2  0
M  END
$$$$
