RDY.pdb
     RDKit          3D

 32 32  0  0  1  0  0  0  0  0999 V2000
    7.4216  -11.9822   18.2962 N   0  0  0  0  0  0  0  0  0  0  0  0
    8.1399  -13.1581   18.6322 C   0  0  0  0  0  0  0  0  0  0  0  0
    8.7011  -13.9252   17.7237 N   0  0  0  0  0  0  0  0  0  0  0  0
    8.3006  -13.6057   19.9625 N   0  0  0  0  0  0  0  0  0  0  0  0
    7.4742  -13.1809   21.0564 C   0  0  0  0  0  0  0  0  0  0  0  0
    6.6391  -14.2397   21.6821 C   0  0  0  0  0  0  0  0  0  0  0  0
    7.2532  -15.0943   22.7153 C   0  0  0  0  0  0  0  0  0  0  0  0
    7.7117  -16.4478   22.2793 C   0  0  2  0  0  0  0  0  0  0  0  0
    6.5954  -17.3737   22.1246 N   0  0  0  0  0  0  0  0  0  0  0  0
    8.7012  -17.0299   23.2266 C   0  0  0  0  0  0  0  0  0  0  0  0
    8.3985  -17.8476   24.1291 O   0  0  0  0  0  0  0  0  0  0  0  0
    9.2089  -14.7539   18.0952 N   0  0  0  0  0  0  0  0  0  0  0  0
   10.0969  -16.6696   23.1479 C   0  0  2  0  0  0  0  0  0  0  0  0
   11.0414  -17.1788   24.1210 C   0  0  0  0  0  0  0  0  0  0  0  0
   12.4200  -17.1279   23.5138 C   0  0  0  0  0  0  0  0  0  0  0  0
   13.4226  -17.8702   24.3080 O   0  0  0  0  0  0  0  0  0  0  0  0
   13.1767  -18.5210   25.3513 C   0  0  0  0  0  0  0  0  0  0  0  0
   10.9554  -16.3716   25.3742 O   0  0  0  0  0  0  0  0  0  0  0  0
   11.3270  -15.1704   25.3668 O   0  0  0  0  0  0  0  0  0  0  0  0
   14.7715  -17.8749   23.8989 O   0  0  0  0  0  0  0  0  0  0  0  0
    6.6029  -12.1734   24.7437 C   0  0  0  0  0  0  0  0  0  0  0  0
    7.2290  -13.0689   25.6203 C   0  0  0  0  0  0  0  0  0  0  0  0
    8.1085  -12.6261   26.5836 C   0  0  0  0  0  0  0  0  0  0  0  0
    8.7341  -13.5188   27.4594 C   0  0  0  0  0  0  0  0  0  0  0  0
    8.4627  -14.8616   27.3524 C   0  0  0  0  0  0  0  0  0  0  0  0
    9.1163  -15.8074   28.2705 C   0  0  2  0  0  0  0  0  0  0  0  0
   10.4970  -16.2048   27.8468 N   0  0  0  0  0  0  0  0  0  0  0  0
   10.4704  -16.8998   26.5831 C   0  0  0  0  0  0  0  0  0  0  0  0
   11.1433  -17.0375   28.9120 O   0  0  0  0  0  0  0  0  0  0  0  0
   11.5690  -18.3092   28.6228 C   0  0  0  0  0  0  0  0  0  0  0  0
    7.5702  -15.2811   26.3703 C   0  0  0  0  0  0  0  0  0  0  0  0
    6.9462  -14.4162   25.5010 O   0  0  0  0  0  0  0  0  0  0  0  0
  2  3  2  0
  2  1  1  0
  4  2  1  0
  5  4  1  0
  6  5  1  0
  7  6  1  0
  8  7  1  0
  8  9  1  1
 10 11  2  0
 10  8  1  0
 12 10  1  0
 13 17  1  0
 13 12  1  0
 13 14  1  6
 15 16  2  0
 15 14  1  0
 17 18  2  0
 19 15  1  0
 20 21  1  0
 21 31  2  0
 22 23  2  0
 22 21  1  0
 23 24  1  0
 24 25  1  0
 24 30  2  0
 26 25  1  6
 27 26  1  0
 27 17  1  0
 28 26  1  0
 29 28  1  0
 31 30  1  0
 32 28  2  0
M  END
$$$$
