RDY.pdb
     RDKit          3D

 32 32  0  0  1  0  0  0  0  0999 V2000
    9.1215  -14.4408   17.4543 N   0  0  0  0  0  0  0  0  0  0  0  0
    8.8673  -13.3395   18.3113 C   0  0  0  0  0  0  0  0  0  0  0  0
    8.8082  -12.1022   17.8704 N   0  0  0  0  0  0  0  0  0  0  0  0
    8.6695  -13.4795   19.7030 N   0  0  0  0  0  0  0  0  0  0  0  0
    8.5706  -14.7437   20.3754 C   0  0  0  0  0  0  0  0  0  0  0  0
    7.6553  -15.7353   19.7518 C   0  0  0  0  0  0  0  0  0  0  0  0
    8.2272  -17.0048   19.2657 C   0  0  0  0  0  0  0  0  0  0  0  0
    7.9301  -18.2261   20.0733 C   0  0  2  0  0  0  0  0  0  0  0  0
    6.4955  -18.4266   20.2439 N   0  0  0  0  0  0  0  0  0  0  0  0
    8.5789  -18.1772   21.4119 C   0  0  0  0  0  0  0  0  0  0  0  0
    7.9443  -18.2460   22.4924 O   0  0  0  0  0  0  0  0  0  0  0  0
    8.6450  -11.3787   18.6002 N   0  0  0  0  0  0  0  0  0  0  0  0
   10.0112  -18.0441   21.5322 C   0  0  2  0  0  0  0  0  0  0  0  0
   10.6455  -18.0947   22.8336 C   0  0  0  0  0  0  0  0  0  0  0  0
   11.9892  -18.7599   22.6794 C   0  0  0  0  0  0  0  0  0  0  0  0
   12.7116  -18.8941   23.9629 O   0  0  0  0  0  0  0  0  0  0  0  0
   12.1967  -19.2677   25.0435 C   0  0  0  0  0  0  0  0  0  0  0  0
   10.7688  -16.7130   23.3860 O   0  0  0  0  0  0  0  0  0  0  0  0
   11.8606  -16.3378   23.8842 O   0  0  0  0  0  0  0  0  0  0  0  0
   14.0865  -18.5896   24.0241 O   0  0  0  0  0  0  0  0  0  0  0  0
    5.6270  -11.7704   28.6731 C   0  0  0  0  0  0  0  0  0  0  0  0
    6.1506  -12.5444   27.6294 C   0  0  0  0  0  0  0  0  0  0  0  0
    6.8883  -11.9708   26.6173 C   0  0  0  0  0  0  0  0  0  0  0  0
    7.4116  -12.7422   25.5750 C   0  0  0  0  0  0  0  0  0  0  0  0
    7.1824  -14.0970   25.5652 C   0  0  0  0  0  0  0  0  0  0  0  0
    7.7300  -14.9157   24.4724 C   0  0  2  0  0  0  0  0  0  0  0  0
    9.2152  -15.0984   24.5397 N   0  0  0  0  0  0  0  0  0  0  0  0
    9.7039  -15.7957   23.3753 C   0  0  0  0  0  0  0  0  0  0  0  0
    9.5895  -15.8167   25.8006 O   0  0  0  0  0  0  0  0  0  0  0  0
    9.1201  -17.0850   26.0312 C   0  0  0  0  0  0  0  0  0  0  0  0
    6.4339  -14.6500   26.6002 C   0  0  0  0  0  0  0  0  0  0  0  0
    5.9121  -13.9055   27.6330 O   0  0  0  0  0  0  0  0  0  0  0  0
  2  3  2  0
  2  1  1  0
  4  2  1  0
  5  4  1  0
  6  5  1  0
  7  6  1  0
  8  7  1  0
  8  9  1  1
 10 11  2  0
 10  8  1  0
 12 10  1  0
 13 17  1  0
 13 12  1  0
 13 14  1  6
 15 16  2  0
 15 14  1  0
 17 18  2  0
 19 15  1  0
 20 21  1  0
 21 31  2  0
 22 23  2  0
 22 21  1  0
 23 24  1  0
 24 25  1  0
 24 30  2  0
 26 25  1  6
 27 26  1  0
 27 17  1  0
 28 26  1  0
 29 28  1  0
 31 30  1  0
 32 28  2  0
M  END
$$$$
