RDY.pdb
     RDKit          3D

 32 32  0  0  1  0  0  0  0  0999 V2000
    8.6144  -14.7739   15.8977 N   0  0  0  0  0  0  0  0  0  0  0  0
    7.8778  -13.6402   16.3264 C   0  0  0  0  0  0  0  0  0  0  0  0
    7.2519  -12.8468   15.4852 N   0  0  0  0  0  0  0  0  0  0  0  0
    7.7663  -13.2656   17.6840 N   0  0  0  0  0  0  0  0  0  0  0  0
    8.3492  -14.0024   18.7692 C   0  0  0  0  0  0  0  0  0  0  0  0
    7.4089  -14.8437   19.5553 C   0  0  0  0  0  0  0  0  0  0  0  0
    7.4085  -14.7055   21.0236 C   0  0  0  0  0  0  0  0  0  0  0  0
    8.7352  -14.7932   21.7050 C   0  0  2  0  0  0  0  0  0  0  0  0
    9.7409  -15.4185   20.8535 N   0  0  0  0  0  0  0  0  0  0  0  0
    8.6505  -15.5399   22.9898 C   0  0  0  0  0  0  0  0  0  0  0  0
    7.8325  -15.2623   23.8999 O   0  0  0  0  0  0  0  0  0  0  0  0
    6.8299  -11.9953   15.9091 N   0  0  0  0  0  0  0  0  0  0  0  0
    9.5325  -16.6514   23.2556 C   0  0  1  0  0  0  0  0  0  0  0  0
    9.4612  -17.3581   24.5181 C   0  0  0  0  0  0  0  0  0  0  0  0
   10.1590  -18.6845   24.3579 C   0  0  0  0  0  0  0  0  0  0  0  0
    9.6717  -19.7058   25.3100 O   0  0  0  0  0  0  0  0  0  0  0  0
    8.7940  -19.5143   26.1849 C   0  0  0  0  0  0  0  0  0  0  0  0
   10.0826  -16.5290   25.5932 O   0  0  0  0  0  0  0  0  0  0  0  0
   11.1792  -15.9524   25.3783 O   0  0  0  0  0  0  0  0  0  0  0  0
   10.2063  -21.0094   25.2680 O   0  0  0  0  0  0  0  0  0  0  0  0
    6.6695  -11.4939   24.3718 C   0  0  0  0  0  0  0  0  0  0  0  0
    7.2661  -12.2593   25.3821 C   0  0  0  0  0  0  0  0  0  0  0  0
    6.5543  -13.2251   26.0590 C   0  0  0  0  0  0  0  0  0  0  0  0
    7.1485  -13.9899   27.0676 C   0  0  0  0  0  0  0  0  0  0  0  0
    8.4672  -13.7697   27.3851 C   0  0  0  0  0  0  0  0  0  0  0  0
    9.0999  -14.5706   28.4447 C   0  0  2  0  0  0  0  0  0  0  0  0
   10.0677  -15.5931   27.9332 N   0  0  0  0  0  0  0  0  0  0  0  0
    9.4897  -16.3593   26.8563 C   0  0  0  0  0  0  0  0  0  0  0  0
   10.5178  -16.4820   29.0526 O   0  0  0  0  0  0  0  0  0  0  0  0
   11.2107  -15.9520   30.1115 C   0  0  0  0  0  0  0  0  0  0  0  0
    9.1623  -12.7878   26.6851 C   0  0  0  0  0  0  0  0  0  0  0  0
    8.5928  -12.0268   25.6903 O   0  0  0  0  0  0  0  0  0  0  0  0
  2  3  2  0
  2  1  1  0
  4  2  1  0
  5  4  1  0
  6  5  1  0
  7  6  1  0
  8  7  1  0
  8  9  1  6
 10 11  2  0
 10  8  1  0
 12 10  1  0
 13 17  1  0
 13 12  1  0
 13 14  1  1
 15 16  2  0
 15 14  1  0
 17 18  2  0
 19 15  1  0
 20 21  1  0
 21 31  2  0
 22 23  2  0
 22 21  1  0
 23 24  1  0
 24 25  1  0
 24 30  2  0
 26 25  1  6
 27 26  1  0
 27 17  1  0
 28 26  1  0
 29 28  1  0
 31 30  1  0
 32 28  2  0
M  END
$$$$
