WGR.pdb
     RDKit          3D

 30 31  0  0  1  0  0  0  0  0999 V2000
   24.5570  -19.3695  -12.2951 N   0  0  0  0  0  0  0  0  0  0  0  0
   25.1152  -20.6324  -12.7894 C   0  0  1  0  0  0  0  0  0  0  0  0
   25.2406  -21.6724  -11.7327 C   0  0  0  0  0  0  0  0  0  0  0  0
   25.8598  -21.0783  -10.5261 C   0  0  0  0  0  0  0  0  0  0  0  0
   25.2842  -20.4162   -9.4681 C   0  0  0  0  0  0  0  0  0  0  0  0
   26.2030  -20.0700   -8.5627 N   0  0  0  0  0  0  0  0  0  0  0  0
   27.3946  -20.5154   -9.0434 C   0  0  0  0  0  0  0  0  0  0  0  0
   28.6710  -20.4396   -8.5214 C   0  0  0  0  0  0  0  0  0  0  0  0
   29.7490  -20.9712   -9.1803 C   0  0  0  0  0  0  0  0  0  0  0  0
   29.5543  -21.5932  -10.3883 C   0  0  0  0  0  0  0  0  0  0  0  0
   28.3019  -21.6857  -10.9353 C   0  0  0  0  0  0  0  0  0  0  0  0
   27.2138  -21.1403  -10.2521 C   0  0  0  0  0  0  0  0  0  0  0  0
   24.1970  -21.1582  -13.8610 C   0  0  0  0  0  0  0  0  0  0  0  0
   22.9636  -20.9916  -13.8944 O   0  0  0  0  0  0  0  0  0  0  0  0
   24.8064  -21.9128  -14.9201 N   0  0  0  0  0  0  0  0  0  0  0  0
   24.5935  -21.4735  -16.2683 C   0  0  0  0  0  0  0  0  0  0  0  0
   25.7294  -20.8594  -16.9430 C   0  0  0  0  0  0  0  0  0  0  0  0
   25.5950  -20.5881  -18.1928 O   0  0  0  0  0  0  0  0  0  0  0  0
   25.1099  -17.0533  -17.2882 N   0  0  0  0  0  0  0  0  0  0  0  0
   24.8783  -16.5036  -15.9986 C   0  0  0  0  0  0  0  0  0  0  0  0
   23.8280  -15.7382  -15.9024 N   0  0  0  0  0  0  0  0  0  0  0  0
   25.7355  -16.7777  -14.9056 N   0  0  0  0  0  0  0  0  0  0  0  0
   26.6991  -17.8580  -14.9746 C   0  0  0  0  0  0  0  0  0  0  0  0
   27.6625  -17.6521  -16.1338 C   0  0  0  0  0  0  0  0  0  0  0  0
   28.6418  -18.7794  -16.2517 C   0  0  0  0  0  0  0  0  0  0  0  0
   28.0603  -19.8916  -17.0478 C   0  0  2  0  0  0  0  0  0  0  0  0
   26.9559  -20.5500  -16.3215 N   0  0  0  0  0  0  0  0  0  0  0  0
   29.0882  -20.9187  -17.4053 C   0  0  0  0  0  0  0  0  0  0  0  0
   28.9108  -22.0903  -17.0427 O   0  0  0  0  0  0  0  0  0  0  0  0
   30.2144  -20.5866  -18.1208 O   0  0  0  0  0  0  0  0  0  0  0  0
  2  1  1  1
  2  3  1  0
  3  4  1  0
  4 12  1  0
  4  5  2  0
  5  6  1  0
  7  8  2  0
  7  6  1  0
  9  8  1  0
 10  9  2  0
 11 10  1  0
 11 12  2  0
 12  7  1  0
 13 14  2  0
 13  2  1  0
 15 13  1  0
 16 15  1  0
 17 16  1  0
 18 17  2  0
 20 19  1  0
 21 20  2  0
 22 20  1  0
 23 24  1  0
 23 22  1  0
 26 25  1  1
 25 24  1  0
 26 27  1  0
 27 17  1  0
 28 26  1  0
 29 28  2  0
 30 28  1  0
M  END
$$$$
