WGR.pdb
     RDKit          3D

 30 31  0  0  1  0  0  0  0  0999 V2000
   24.6921  -18.6760  -18.6206 N   0  0  0  0  0  0  0  0  0  0  0  0
   25.6094  -18.7217  -17.4771 C   0  0  1  0  0  0  0  0  0  0  0  0
   24.9207  -18.5786  -16.1659 C   0  0  0  0  0  0  0  0  0  0  0  0
   24.5376  -17.1631  -15.9613 C   0  0  0  0  0  0  0  0  0  0  0  0
   23.3008  -16.5994  -15.7571 C   0  0  0  0  0  0  0  0  0  0  0  0
   23.3994  -15.2793  -15.5806 N   0  0  0  0  0  0  0  0  0  0  0  0
   24.7234  -14.9830  -15.6726 C   0  0  0  0  0  0  0  0  0  0  0  0
   25.3958  -13.7815  -15.5643 C   0  0  0  0  0  0  0  0  0  0  0  0
   26.7592  -13.7082  -15.6851 C   0  0  0  0  0  0  0  0  0  0  0  0
   27.4726  -14.8571  -15.9200 C   0  0  0  0  0  0  0  0  0  0  0  0
   26.8376  -16.0656  -16.0336 C   0  0  0  0  0  0  0  0  0  0  0  0
   25.4489  -16.1244  -15.9074 C   0  0  0  0  0  0  0  0  0  0  0  0
   26.3110  -20.0541  -17.4976 C   0  0  0  0  0  0  0  0  0  0  0  0
   25.9073  -21.0686  -18.0959 O   0  0  0  0  0  0  0  0  0  0  0  0
   27.5403  -20.1477  -16.7611 N   0  0  0  0  0  0  0  0  0  0  0  0
   28.1260  -21.4453  -16.5910 C   0  0  0  0  0  0  0  0  0  0  0  0
   27.5368  -22.2998  -15.5686 C   0  0  0  0  0  0  0  0  0  0  0  0
   27.6240  -23.5710  -15.7423 O   0  0  0  0  0  0  0  0  0  0  0  0
   21.6161  -22.2090  -13.9887 N   0  0  0  0  0  0  0  0  0  0  0  0
   21.6298  -21.2616  -12.9297 C   0  0  0  0  0  0  0  0  0  0  0  0
   20.7868  -21.4971  -11.9641 N   0  0  0  0  0  0  0  0  0  0  0  0
   22.5031  -20.1474  -12.9364 N   0  0  0  0  0  0  0  0  0  0  0  0
   23.9263  -20.3222  -12.7259 C   0  0  0  0  0  0  0  0  0  0  0  0
   24.2612  -21.7841  -12.4708 C   0  0  0  0  0  0  0  0  0  0  0  0
   25.7299  -21.9913  -12.2620 C   0  0  0  0  0  0  0  0  0  0  0  0
   26.3157  -22.7433  -13.4022 C   0  0  2  0  0  0  0  0  0  0  0  0
   26.8800  -21.8279  -14.4143 N   0  0  0  0  0  0  0  0  0  0  0  0
   25.3087  -23.6340  -14.0594 C   0  0  0  0  0  0  0  0  0  0  0  0
   24.6234  -23.1770  -14.9852 O   0  0  0  0  0  0  0  0  0  0  0  0
   25.1329  -24.9367  -13.6560 O   0  0  0  0  0  0  0  0  0  0  0  0
  2  1  1  6
  2  3  1  0
  3  4  1  0
  4 12  1  0
  4  5  2  0
  5  6  1  0
  7  8  2  0
  7  6  1  0
  9  8  1  0
 10  9  2  0
 11 10  1  0
 11 12  2  0
 12  7  1  0
 13 14  2  0
 13  2  1  0
 15 13  1  0
 16 15  1  0
 17 16  1  0
 18 17  2  0
 20 19  1  0
 21 20  2  0
 22 20  1  0
 23 24  1  0
 23 22  1  0
 26 25  1  1
 25 24  1  0
 26 27  1  0
 27 17  1  0
 28 26  1  0
 29 28  2  0
 30 28  1  0
M  END
$$$$
