WGR.pdb
     RDKit          3D

 30 31  0  0  1  0  0  0  0  0999 V2000
   24.2082  -21.1357   -8.4112 N   0  0  0  0  0  0  0  0  0  0  0  0
   25.2104  -20.1797   -8.8937 C   0  0  1  0  0  0  0  0  0  0  0  0
   26.6007  -20.5407   -8.5055 C   0  0  0  0  0  0  0  0  0  0  0  0
   26.6993  -20.6099   -7.0299 C   0  0  0  0  0  0  0  0  0  0  0  0
   26.0394  -21.4163   -6.1335 C   0  0  0  0  0  0  0  0  0  0  0  0
   26.4504  -21.1807   -4.8847 N   0  0  0  0  0  0  0  0  0  0  0  0
   27.3926  -20.2043   -4.9742 C   0  0  0  0  0  0  0  0  0  0  0  0
   28.1515  -19.5815   -4.0028 C   0  0  0  0  0  0  0  0  0  0  0  0
   29.0654  -18.6100   -4.3187 C   0  0  0  0  0  0  0  0  0  0  0  0
   29.2292  -18.2476   -5.6324 C   0  0  0  0  0  0  0  0  0  0  0  0
   28.4926  -18.8443   -6.6212 C   0  0  0  0  0  0  0  0  0  0  0  0
   27.5665  -19.8327   -6.2841 C   0  0  0  0  0  0  0  0  0  0  0  0
   25.1348  -20.1469  -10.3974 C   0  0  0  0  0  0  0  0  0  0  0  0
   25.7781  -19.3741  -11.1316 O   0  0  0  0  0  0  0  0  0  0  0  0
   24.2429  -21.0850  -11.0195 N   0  0  0  0  0  0  0  0  0  0  0  0
   24.1109  -21.0435  -12.4466 C   0  0  0  0  0  0  0  0  0  0  0  0
   25.1384  -21.7297  -13.2185 C   0  0  0  0  0  0  0  0  0  0  0  0
   26.0455  -22.3607  -12.5605 O   0  0  0  0  0  0  0  0  0  0  0  0
   22.6288  -19.4448  -16.0950 N   0  0  0  0  0  0  0  0  0  0  0  0
   22.4935  -19.7032  -17.4857 C   0  0  0  0  0  0  0  0  0  0  0  0
   21.8614  -18.7854  -18.1613 N   0  0  0  0  0  0  0  0  0  0  0  0
   23.0143  -20.8775  -18.0807 N   0  0  0  0  0  0  0  0  0  0  0  0
   23.5940  -21.9253  -17.2644 C   0  0  0  0  0  0  0  0  0  0  0  0
   25.1004  -21.9974  -17.4639 C   0  0  0  0  0  0  0  0  0  0  0  0
   25.7244  -23.0645  -16.6179 C   0  0  0  0  0  0  0  0  0  0  0  0
   26.2533  -22.4839  -15.3560 C   0  0  2  0  0  0  0  0  0  0  0  0
   25.2046  -21.7433  -14.6262 N   0  0  0  0  0  0  0  0  0  0  0  0
   27.4111  -21.5692  -15.6050 C   0  0  0  0  0  0  0  0  0  0  0  0
   27.1957  -20.3549  -15.7260 O   0  0  0  0  0  0  0  0  0  0  0  0
   28.6959  -22.0495  -15.7017 O   0  0  0  0  0  0  0  0  0  0  0  0
  2  1  1  6
  2  3  1  0
  3  4  1  0
  4 12  1  0
  4  5  2  0
  5  6  1  0
  7  8  2  0
  7  6  1  0
  9  8  1  0
 10  9  2  0
 11 10  1  0
 11 12  2  0
 12  7  1  0
 13 14  2  0
 13  2  1  0
 15 13  1  0
 16 15  1  0
 17 16  1  0
 18 17  2  0
 20 19  1  0
 21 20  2  0
 22 20  1  0
 23 24  1  0
 23 22  1  0
 26 25  1  6
 25 24  1  0
 26 27  1  0
 27 17  1  0
 28 26  1  0
 29 28  2  0
 30 28  1  0
M  END
$$$$
