WGR.pdb
     RDKit          3D

 30 31  0  0  1  0  0  0  0  0999 V2000
   27.2650  -21.7234  -10.5286 N   0  0  0  0  0  0  0  0  0  0  0  0
   26.5014  -21.1310   -9.4254 C   0  0  1  0  0  0  0  0  0  0  0  0
   27.1230  -19.8946   -8.8787 C   0  0  0  0  0  0  0  0  0  0  0  0
   28.3000  -20.2557   -8.0562 C   0  0  0  0  0  0  0  0  0  0  0  0
   29.4571  -20.9115   -8.4029 C   0  0  0  0  0  0  0  0  0  0  0  0
   30.2864  -21.0033   -7.3601 N   0  0  0  0  0  0  0  0  0  0  0  0
   29.6549  -20.3966   -6.3198 C   0  0  0  0  0  0  0  0  0  0  0  0
   30.0474  -20.1941   -5.0112 C   0  0  0  0  0  0  0  0  0  0  0  0
   29.2445  -19.5395   -4.1137 C   0  0  0  0  0  0  0  0  0  0  0  0
   28.0204  -19.0750   -4.5261 C   0  0  0  0  0  0  0  0  0  0  0  0
   27.5993  -19.2591   -5.8166 C   0  0  0  0  0  0  0  0  0  0  0  0
   28.4286  -19.9267   -6.7192 C   0  0  0  0  0  0  0  0  0  0  0  0
   25.1320  -20.7798   -9.9444 C   0  0  0  0  0  0  0  0  0  0  0  0
   24.2330  -20.2294   -9.2820 O   0  0  0  0  0  0  0  0  0  0  0  0
   24.8546  -21.1159  -11.3128 N   0  0  0  0  0  0  0  0  0  0  0  0
   23.5490  -20.8212  -11.8269 C   0  0  0  0  0  0  0  0  0  0  0  0
   23.3490  -21.0193  -13.2564 C   0  0  0  0  0  0  0  0  0  0  0  0
   24.3847  -21.3118  -13.9603 O   0  0  0  0  0  0  0  0  0  0  0  0
   21.1751  -25.7134  -12.6117 N   0  0  0  0  0  0  0  0  0  0  0  0
   19.8702  -25.6861  -13.1734 C   0  0  0  0  0  0  0  0  0  0  0  0
   18.9161  -26.0826  -12.3790 N   0  0  0  0  0  0  0  0  0  0  0  0
   19.6384  -25.2555  -14.5020 N   0  0  0  0  0  0  0  0  0  0  0  0
   20.6956  -24.6310  -15.2718 C   0  0  0  0  0  0  0  0  0  0  0  0
   20.8128  -23.1526  -14.9326 C   0  0  0  0  0  0  0  0  0  0  0  0
   21.8407  -22.4663  -15.7787 C   0  0  0  0  0  0  0  0  0  0  0  0
   21.9770  -21.0418  -15.3771 C   0  0  2  0  0  0  0  0  0  0  0  0
   22.1065  -20.9082  -13.9122 N   0  0  0  0  0  0  0  0  0  0  0  0
   20.8167  -20.2181  -15.8402 C   0  0  0  0  0  0  0  0  0  0  0  0
   20.0983  -19.6708  -14.9915 O   0  0  0  0  0  0  0  0  0  0  0  0
   20.5373  -20.0615  -17.1773 O   0  0  0  0  0  0  0  0  0  0  0  0
  2  1  1  6
  2  3  1  0
  3  4  1  0
  4 12  1  0
  4  5  2  0
  5  6  1  0
  7  8  2  0
  7  6  1  0
  9  8  1  0
 10  9  2  0
 11 10  1  0
 11 12  2  0
 12  7  1  0
 13 14  2  0
 13  2  1  0
 15 13  1  0
 16 15  1  0
 17 16  1  0
 18 17  2  0
 20 19  1  0
 21 20  2  0
 22 20  1  0
 23 24  1  0
 23 22  1  0
 26 25  1  1
 25 24  1  0
 26 27  1  0
 27 17  1  0
 28 26  1  0
 29 28  2  0
 30 28  1  0
M  END
$$$$
