WGR.pdb
     RDKit          3D

 30 31  0  0  1  0  0  0  0  0999 V2000
   26.3914  -22.5769  -11.4732 N   0  0  0  0  0  0  0  0  0  0  0  0
   25.7081  -21.2855  -11.3447 C   0  0  1  0  0  0  0  0  0  0  0  0
   26.6420  -20.1276  -11.3146 C   0  0  0  0  0  0  0  0  0  0  0  0
   27.7758  -20.4309  -10.4121 C   0  0  0  0  0  0  0  0  0  0  0  0
   29.0292  -20.9188  -10.6951 C   0  0  0  0  0  0  0  0  0  0  0  0
   29.7674  -21.0149   -9.5863 N   0  0  0  0  0  0  0  0  0  0  0  0
   28.9779  -20.5819   -8.5673 C   0  0  0  0  0  0  0  0  0  0  0  0
   29.2254  -20.4602   -7.2140 C   0  0  0  0  0  0  0  0  0  0  0  0
   28.2733  -19.9857   -6.3497 C   0  0  0  0  0  0  0  0  0  0  0  0
   27.0442  -19.6235   -6.8418 C   0  0  0  0  0  0  0  0  0  0  0  0
   26.7646  -19.7320   -8.1784 C   0  0  0  0  0  0  0  0  0  0  0  0
   27.7447  -20.2160   -9.0463 C   0  0  0  0  0  0  0  0  0  0  0  0
   24.7948  -21.1233  -12.5310 C   0  0  0  0  0  0  0  0  0  0  0  0
   24.8747  -21.7701  -13.5919 O   0  0  0  0  0  0  0  0  0  0  0  0
   23.7563  -20.1381  -12.4162 N   0  0  0  0  0  0  0  0  0  0  0  0
   22.6459  -20.2221  -13.3195 C   0  0  0  0  0  0  0  0  0  0  0  0
   21.4686  -20.9363  -12.8437 C   0  0  0  0  0  0  0  0  0  0  0  0
   20.4644  -21.0137  -13.6434 O   0  0  0  0  0  0  0  0  0  0  0  0
   16.1589  -24.1719   -6.8734 N   0  0  0  0  0  0  0  0  0  0  0  0
   16.8505  -25.1803   -7.5973 C   0  0  0  0  0  0  0  0  0  0  0  0
   16.0932  -26.0922   -8.1389 N   0  0  0  0  0  0  0  0  0  0  0  0
   18.2614  -25.1804   -7.7142 N   0  0  0  0  0  0  0  0  0  0  0  0
   18.9766  -23.9619   -8.0364 C   0  0  0  0  0  0  0  0  0  0  0  0
   19.1611  -23.8228   -9.5401 C   0  0  0  0  0  0  0  0  0  0  0  0
   20.3618  -22.9943   -9.8802 C   0  0  0  0  0  0  0  0  0  0  0  0
   20.1356  -22.2464  -11.1444 C   0  0  2  0  0  0  0  0  0  0  0  0
   21.3583  -21.5387  -11.5744 N   0  0  0  0  0  0  0  0  0  0  0  0
   19.0205  -21.2568  -11.0154 C   0  0  0  0  0  0  0  0  0  0  0  0
   19.2175  -20.2183  -10.3684 O   0  0  0  0  0  0  0  0  0  0  0  0
   17.7941  -21.4794  -11.5958 O   0  0  0  0  0  0  0  0  0  0  0  0
  2  1  1  6
  2  3  1  0
  3  4  1  0
  4 12  1  0
  4  5  2  0
  5  6  1  0
  7  8  2  0
  7  6  1  0
  9  8  1  0
 10  9  2  0
 11 10  1  0
 11 12  2  0
 12  7  1  0
 13 14  2  0
 13  2  1  0
 15 13  1  0
 16 15  1  0
 17 16  1  0
 18 17  2  0
 20 19  1  0
 21 20  2  0
 22 20  1  0
 23 24  1  0
 23 22  1  0
 26 25  1  1
 25 24  1  0
 26 27  1  0
 27 17  1  0
 28 26  1  0
 29 28  2  0
 30 28  1  0
M  END
$$$$
