WGR.pdb
     RDKit          3D

 30 31  0  0  1  0  0  0  0  0999 V2000
   24.7405  -20.3525   -9.2450 N   0  0  0  0  0  0  0  0  0  0  0  0
   26.1981  -20.1988   -9.3007 C   0  0  1  0  0  0  0  0  0  0  0  0
   26.9269  -21.2164   -8.4961 C   0  0  0  0  0  0  0  0  0  0  0  0
   26.9134  -20.8202   -7.0695 C   0  0  0  0  0  0  0  0  0  0  0  0
   25.9171  -20.9263   -6.1287 C   0  0  0  0  0  0  0  0  0  0  0  0
   26.3310  -20.4786   -4.9404 N   0  0  0  0  0  0  0  0  0  0  0  0
   27.6177  -20.0751   -5.1151 C   0  0  0  0  0  0  0  0  0  0  0  0
   28.5304  -19.5378   -4.2287 C   0  0  0  0  0  0  0  0  0  0  0  0
   29.8004  -19.2028   -4.6205 C   0  0  0  0  0  0  0  0  0  0  0  0
   30.1731  -19.4059   -5.9259 C   0  0  0  0  0  0  0  0  0  0  0  0
   29.2929  -19.9362   -6.8317 C   0  0  0  0  0  0  0  0  0  0  0  0
   28.0034  -20.2732   -6.4175 C   0  0  0  0  0  0  0  0  0  0  0  0
   26.6254  -20.3404  -10.7378 C   0  0  0  0  0  0  0  0  0  0  0  0
   27.7839  -20.5884  -11.1208 O   0  0  0  0  0  0  0  0  0  0  0  0
   25.6056  -20.1696  -11.7343 N   0  0  0  0  0  0  0  0  0  0  0  0
   25.9817  -20.3009  -13.1117 C   0  0  0  0  0  0  0  0  0  0  0  0
   25.2912  -21.3259  -13.8832 C   0  0  0  0  0  0  0  0  0  0  0  0
   25.8488  -22.4824  -13.9567 O   0  0  0  0  0  0  0  0  0  0  0  0
   19.9857  -24.5199  -11.2387 N   0  0  0  0  0  0  0  0  0  0  0  0
   19.6626  -23.1382  -11.1640 C   0  0  0  0  0  0  0  0  0  0  0  0
   18.8983  -22.8007  -10.1639 N   0  0  0  0  0  0  0  0  0  0  0  0
   20.1450  -22.2065  -12.1147 N   0  0  0  0  0  0  0  0  0  0  0  0
   20.7423  -22.6584  -13.3554 C   0  0  0  0  0  0  0  0  0  0  0  0
   21.3183  -21.4878  -14.1378 C   0  0  0  0  0  0  0  0  0  0  0  0
   21.9274  -21.9289  -15.4332 C   0  0  0  0  0  0  0  0  0  0  0  0
   23.3711  -22.2319  -15.2519 C   0  0  2  0  0  0  0  0  0  0  0  0
   24.0653  -21.1328  -14.5512 N   0  0  0  0  0  0  0  0  0  0  0  0
   24.0563  -22.4858  -16.5578 C   0  0  0  0  0  0  0  0  0  0  0  0
   24.0021  -23.6228  -17.0477 O   0  0  0  0  0  0  0  0  0  0  0  0
   24.7384  -21.4890  -17.2148 O   0  0  0  0  0  0  0  0  0  0  0  0
  2  1  1  6
  2  3  1  0
  3  4  1  0
  4 12  1  0
  4  5  2  0
  5  6  1  0
  7  8  2  0
  7  6  1  0
  9  8  1  0
 10  9  2  0
 11 10  1  0
 11 12  2  0
 12  7  1  0
 13 14  2  0
 13  2  1  0
 15 13  1  0
 16 15  1  0
 17 16  1  0
 18 17  2  0
 20 19  1  0
 21 20  2  0
 22 20  1  0
 23 24  1  0
 23 22  1  0
 26 25  1  6
 25 24  1  0
 26 27  1  0
 27 17  1  0
 28 26  1  0
 29 28  2  0
 30 28  1  0
M  END
$$$$
