WGR.pdb
     RDKit          3D

 30 31  0  0  1  0  0  0  0  0999 V2000
   26.6981  -22.4685  -11.4921 N   0  0  0  0  0  0  0  0  0  0  0  0
   26.6260  -21.0306  -11.7720 C   0  0  1  0  0  0  0  0  0  0  0  0
   27.9521  -20.3571  -11.7297 C   0  0  0  0  0  0  0  0  0  0  0  0
   28.6499  -20.7187  -10.4749 C   0  0  0  0  0  0  0  0  0  0  0  0
   29.7802  -21.4747  -10.2745 C   0  0  0  0  0  0  0  0  0  0  0  0
   30.0976  -21.5272   -8.9783 N   0  0  0  0  0  0  0  0  0  0  0  0
   29.1560  -20.7925   -8.3280 C   0  0  0  0  0  0  0  0  0  0  0  0
   28.9961  -20.5013   -6.9875 C   0  0  0  0  0  0  0  0  0  0  0  0
   27.9618  -19.7207   -6.5406 C   0  0  0  0  0  0  0  0  0  0  0  0
   27.0633  -19.2173   -7.4481 C   0  0  0  0  0  0  0  0  0  0  0  0
   27.1917  -19.4868   -8.7849 C   0  0  0  0  0  0  0  0  0  0  0  0
   28.2507  -20.2825   -9.2249 C   0  0  0  0  0  0  0  0  0  0  0  0
   26.0521  -20.8544  -13.1531 C   0  0  0  0  0  0  0  0  0  0  0  0
   26.6205  -21.1769  -14.2128 O   0  0  0  0  0  0  0  0  0  0  0  0
   24.7463  -20.2629  -13.2389 N   0  0  0  0  0  0  0  0  0  0  0  0
   24.2003  -20.0232  -14.5428 C   0  0  0  0  0  0  0  0  0  0  0  0
   23.1440  -20.9239  -14.9851 C   0  0  0  0  0  0  0  0  0  0  0  0
   22.4913  -20.5910  -16.0420 O   0  0  0  0  0  0  0  0  0  0  0  0
   17.4827  -23.4759  -10.4826 N   0  0  0  0  0  0  0  0  0  0  0  0
   18.5485  -23.5882   -9.5496 C   0  0  0  0  0  0  0  0  0  0  0  0
   18.4656  -24.5996   -8.7321 N   0  0  0  0  0  0  0  0  0  0  0  0
   19.6177  -22.6606   -9.5229 N   0  0  0  0  0  0  0  0  0  0  0  0
   19.7011  -21.6000  -10.5070 C   0  0  0  0  0  0  0  0  0  0  0  0
   19.9130  -22.1696  -11.9016 C   0  0  0  0  0  0  0  0  0  0  0  0
   21.2841  -21.8687  -12.4244 C   0  0  0  0  0  0  0  0  0  0  0  0
   21.4293  -22.3653  -13.8176 C   0  0  2  0  0  0  0  0  0  0  0  0
   22.7916  -22.1228  -14.3335 N   0  0  0  0  0  0  0  0  0  0  0  0
   20.4387  -21.7305  -14.7423 C   0  0  0  0  0  0  0  0  0  0  0  0
   19.5715  -22.4435  -15.2669 O   0  0  0  0  0  0  0  0  0  0  0  0
   20.4758  -20.3837  -15.0170 O   0  0  0  0  0  0  0  0  0  0  0  0
  2  1  1  6
  2  3  1  0
  3  4  1  0
  4 12  1  0
  4  5  2  0
  5  6  1  0
  7  8  2  0
  7  6  1  0
  9  8  1  0
 10  9  2  0
 11 10  1  0
 11 12  2  0
 12  7  1  0
 13 14  2  0
 13  2  1  0
 15 13  1  0
 16 15  1  0
 17 16  1  0
 18 17  2  0
 20 19  1  0
 21 20  2  0
 22 20  1  0
 23 24  1  0
 23 22  1  0
 26 25  1  1
 25 24  1  0
 26 27  1  0
 27 17  1  0
 28 26  1  0
 29 28  2  0
 30 28  1  0
M  END
$$$$
