WGR.pdb
     RDKit          3D

 30 31  0  0  1  0  0  0  0  0999 V2000
   27.1443  -20.3304  -11.8699 N   0  0  0  0  0  0  0  0  0  0  0  0
   25.8843  -20.7250  -11.2313 C   0  0  1  0  0  0  0  0  0  0  0  0
   25.8175  -20.3615   -9.7900 C   0  0  0  0  0  0  0  0  0  0  0  0
   27.0884  -20.7330   -9.1276 C   0  0  0  0  0  0  0  0  0  0  0  0
   27.9795  -21.7384   -9.4181 C   0  0  0  0  0  0  0  0  0  0  0  0
   29.0261  -21.7050   -8.5891 N   0  0  0  0  0  0  0  0  0  0  0  0
   28.8085  -20.6599   -7.7467 C   0  0  0  0  0  0  0  0  0  0  0  0
   29.5626  -20.1617   -6.7023 C   0  0  0  0  0  0  0  0  0  0  0  0
   29.1529  -19.0741   -5.9757 C   0  0  0  0  0  0  0  0  0  0  0  0
   27.9640  -18.4664   -6.2939 C   0  0  0  0  0  0  0  0  0  0  0  0
   27.1909  -18.9347   -7.3232 C   0  0  0  0  0  0  0  0  0  0  0  0
   27.6218  -20.0426   -8.0546 C   0  0  0  0  0  0  0  0  0  0  0  0
   24.7609  -20.0222  -11.9469 C   0  0  0  0  0  0  0  0  0  0  0  0
   24.8075  -18.8586  -12.3873 O   0  0  0  0  0  0  0  0  0  0  0  0
   23.5445  -20.7645  -12.1247 N   0  0  0  0  0  0  0  0  0  0  0  0
   22.4832  -20.1496  -12.8673 C   0  0  0  0  0  0  0  0  0  0  0  0
   21.2340  -20.8936  -12.9606 C   0  0  0  0  0  0  0  0  0  0  0  0
   21.2530  -22.1242  -12.5877 O   0  0  0  0  0  0  0  0  0  0  0  0
   18.6835  -16.2973  -15.5449 N   0  0  0  0  0  0  0  0  0  0  0  0
   18.1885  -16.7936  -16.7809 C   0  0  0  0  0  0  0  0  0  0  0  0
   18.5886  -16.1462  -17.8388 N   0  0  0  0  0  0  0  0  0  0  0  0
   17.3241  -17.9131  -16.8430 N   0  0  0  0  0  0  0  0  0  0  0  0
   16.9307  -18.6113  -15.6355 C   0  0  0  0  0  0  0  0  0  0  0  0
   18.0679  -19.4774  -15.1149 C   0  0  0  0  0  0  0  0  0  0  0  0
   17.6328  -20.3398  -13.9701 C   0  0  0  0  0  0  0  0  0  0  0  0
   18.7728  -21.1502  -13.4677 C   0  0  2  0  0  0  0  0  0  0  0  0
   20.0187  -20.3583  -13.4324 N   0  0  0  0  0  0  0  0  0  0  0  0
   18.9973  -22.3735  -14.2998 C   0  0  0  0  0  0  0  0  0  0  0  0
   19.7478  -22.2958  -15.2829 O   0  0  0  0  0  0  0  0  0  0  0  0
   18.3900  -23.5689  -13.9951 O   0  0  0  0  0  0  0  0  0  0  0  0
  2  1  1  6
  2  3  1  0
  3  4  1  0
  4 12  1  0
  4  5  2  0
  5  6  1  0
  7  8  2  0
  7  6  1  0
  9  8  1  0
 10  9  2  0
 11 10  1  0
 11 12  2  0
 12  7  1  0
 13 14  2  0
 13  2  1  0
 15 13  1  0
 16 15  1  0
 17 16  1  0
 18 17  2  0
 20 19  1  0
 21 20  2  0
 22 20  1  0
 23 24  1  0
 23 22  1  0
 26 25  1  6
 25 24  1  0
 26 27  1  0
 27 17  1  0
 28 26  1  0
 29 28  2  0
 30 28  1  0
M  END
$$$$
