SYR.pdb
     RDKit          3D

 30 30  0  0  1  0  0  0  0  0999 V2000
   28.9013  -20.2841  -18.5492 O   0  0  0  0  0  0  0  0  0  0  0  0
   27.9928  -20.8218  -17.6628 C   0  0  0  0  0  0  0  0  0  0  0  0
   28.6834  -21.6817  -16.5986 C   0  0  2  0  0  0  0  0  0  0  0  0
   29.0504  -22.9375  -17.2077 N   0  0  0  0  0  0  0  0  0  0  0  0
   27.6518  -21.8961  -15.5322 C   0  0  0  0  0  0  0  0  0  0  0  0
   27.3509  -23.0688  -15.1996 O   0  0  0  0  0  0  0  0  0  0  0  0
   22.6794  -20.5806   -8.3310 O   0  0  0  0  0  0  0  0  0  0  0  0
   23.5787  -20.4514   -9.3956 C   0  0  0  0  0  0  0  0  0  0  0  0
   24.9018  -20.8212   -9.2812 C   0  0  0  0  0  0  0  0  0  0  0  0
   25.8108  -20.7063  -10.3102 C   0  0  0  0  0  0  0  0  0  0  0  0
   25.3829  -20.1985  -11.5124 C   0  0  0  0  0  0  0  0  0  0  0  0
   26.3487  -20.0740  -12.6247 C   0  0  0  0  0  0  0  0  0  0  0  0
   26.0642  -20.9977  -13.7867 C   0  0  2  0  0  0  0  0  0  0  0  0
   26.9943  -20.8287  -14.8756 N   0  0  0  0  0  0  0  0  0  0  0  0
   24.6663  -20.8653  -14.2049 C   0  0  0  0  0  0  0  0  0  0  0  0
   24.2711  -19.8573  -14.8264 O   0  0  0  0  0  0  0  0  0  0  0  0
   24.0747  -19.8168  -11.6737 C   0  0  0  0  0  0  0  0  0  0  0  0
   23.1947  -19.9472  -10.6200 C   0  0  0  0  0  0  0  0  0  0  0  0
   24.6525  -26.3337  -16.0730 N   0  0  0  0  0  0  0  0  0  0  0  0
   23.3573  -26.3618  -16.6818 C   0  0  0  0  0  0  0  0  0  0  0  0
   22.7406  -27.4872  -16.7564 N   0  0  0  0  0  0  0  0  0  0  0  0
   22.7942  -25.1550  -17.1824 N   0  0  0  0  0  0  0  0  0  0  0  0
   23.4651  -23.9239  -16.8500 C   0  0  0  0  0  0  0  0  0  0  0  0
   22.5088  -22.7814  -16.6272 C   0  0  0  0  0  0  0  0  0  0  0  0
   21.8386  -22.8550  -15.2711 C   0  0  0  0  0  0  0  0  0  0  0  0
   22.3108  -21.7719  -14.3681 C   0  0  2  0  0  0  0  0  0  0  0  0
   23.6615  -21.8495  -13.9451 N   0  0  0  0  0  0  0  0  0  0  0  0
   21.4475  -21.6804  -13.1627 C   0  0  0  0  0  0  0  0  0  0  0  0
   21.7843  -22.1897  -12.0658 O   0  0  0  0  0  0  0  0  0  0  0  0
   20.2302  -21.0206  -13.2188 O   0  0  0  0  0  0  0  0  0  0  0  0
  1  2  1  0
  3  4  1  6
  3  2  1  0
  5  3  1  0
  6  5  2  0
  8  9  2  0
  8  7  1  0
 10  9  1  0
 11 10  2  0
 12 11  1  0
 13 12  1  1
 13 14  1  0
 14  5  1  0
 15 27  1  0
 15 13  1  0
 16 15  2  0
 17 11  1  0
 17 18  2  0
 18  8  1  0
 20 19  1  0
 21 20  2  0
 22 20  1  0
 23 22  1  0
 24 25  1  0
 24 23  1  0
 26 25  1  1
 26 27  1  0
 28 26  1  0
 28 30  1  0
 29 28  2  0
M  END
$$$$
