SYR.pdb
     RDKit          3D

 30 30  0  0  1  0  0  0  0  0999 V2000
   28.5727  -20.5854  -19.4208 O   0  0  0  0  0  0  0  0  0  0  0  0
   27.7579  -21.0772  -18.4238 C   0  0  0  0  0  0  0  0  0  0  0  0
   28.5680  -21.7725  -17.3242 C   0  0  2  0  0  0  0  0  0  0  0  0
   28.9970  -23.0549  -17.8281 N   0  0  0  0  0  0  0  0  0  0  0  0
   27.6141  -21.9491  -16.1812 C   0  0  0  0  0  0  0  0  0  0  0  0
   26.9606  -23.0172  -16.0896 O   0  0  0  0  0  0  0  0  0  0  0  0
   23.5120  -20.7526   -8.3919 O   0  0  0  0  0  0  0  0  0  0  0  0
   24.3495  -20.6187   -9.5052 C   0  0  0  0  0  0  0  0  0  0  0  0
   25.5470  -21.2947   -9.6021 C   0  0  0  0  0  0  0  0  0  0  0  0
   26.3927  -21.1839  -10.6841 C   0  0  0  0  0  0  0  0  0  0  0  0
   26.0295  -20.3601  -11.7213 C   0  0  0  0  0  0  0  0  0  0  0  0
   26.9273  -20.2362  -12.8891 C   0  0  0  0  0  0  0  0  0  0  0  0
   26.5374  -21.1153  -14.0552 C   0  0  2  0  0  0  0  0  0  0  0  0
   27.4130  -20.9590  -15.1901 N   0  0  0  0  0  0  0  0  0  0  0  0
   25.1262  -20.9098  -14.3910 C   0  0  0  0  0  0  0  0  0  0  0  0
   24.7621  -19.9355  -15.0814 O   0  0  0  0  0  0  0  0  0  0  0  0
   24.8464  -19.6667  -11.6698 C   0  0  0  0  0  0  0  0  0  0  0  0
   24.0266  -19.8038  -10.5694 C   0  0  0  0  0  0  0  0  0  0  0  0
   18.9255  -23.9397  -10.9688 N   0  0  0  0  0  0  0  0  0  0  0  0
   17.9543  -23.5297  -11.9371 C   0  0  0  0  0  0  0  0  0  0  0  0
   16.8083  -23.1232  -11.5200 N   0  0  0  0  0  0  0  0  0  0  0  0
   18.2813  -23.5829  -13.3206 N   0  0  0  0  0  0  0  0  0  0  0  0
   19.6540  -23.8524  -13.6663 C   0  0  0  0  0  0  0  0  0  0  0  0
   20.4929  -22.6031  -13.7368 C   0  0  0  0  0  0  0  0  0  0  0  0
   21.8831  -22.8791  -14.2702 C   0  0  0  0  0  0  0  0  0  0  0  0
   22.7062  -21.6416  -14.3183 C   0  0  2  0  0  0  0  0  0  0  0  0
   24.0731  -21.7811  -13.9695 N   0  0  0  0  0  0  0  0  0  0  0  0
   22.1111  -20.5823  -13.4637 C   0  0  0  0  0  0  0  0  0  0  0  0
   21.1918  -19.8345  -13.8782 O   0  0  0  0  0  0  0  0  0  0  0  0
   22.5620  -20.3894  -12.1676 O   0  0  0  0  0  0  0  0  0  0  0  0
  1  2  1  0
  3  4  1  6
  3  2  1  0
  5  3  1  0
  6  5  2  0
  8  9  2  0
  8  7  1  0
 10  9  1  0
 11 10  2  0
 12 11  1  0
 13 12  1  1
 13 14  1  0
 14  5  1  0
 15 27  1  0
 15 13  1  0
 16 15  2  0
 17 11  1  0
 17 18  2  0
 18  8  1  0
 20 19  1  0
 21 20  2  0
 22 20  1  0
 23 22  1  0
 24 25  1  0
 24 23  1  0
 26 25  1  1
 26 27  1  0
 28 26  1  0
 28 30  1  0
 29 28  2  0
M  END
$$$$
