SYR.pdb
     RDKit          3D

 30 30  0  0  1  0  0  0  0  0999 V2000
   24.3202  -10.9208  -22.6820 O   0  0  0  0  0  0  0  0  0  0  0  0
   23.9148  -10.2231  -21.5645 C   0  0  0  0  0  0  0  0  0  0  0  0
   24.8018  -10.5320  -20.3534 C   0  0  2  0  0  0  0  0  0  0  0  0
   24.5554  -11.8971  -19.9554 N   0  0  0  0  0  0  0  0  0  0  0  0
   24.3543   -9.5830  -19.2826 C   0  0  0  0  0  0  0  0  0  0  0  0
   23.4760   -9.9535  -18.4654 O   0  0  0  0  0  0  0  0  0  0  0  0
   28.0556  -11.7684  -14.9224 O   0  0  0  0  0  0  0  0  0  0  0  0
   27.4889  -10.6174  -15.4816 C   0  0  0  0  0  0  0  0  0  0  0  0
   26.3506  -10.0389  -14.9619 C   0  0  0  0  0  0  0  0  0  0  0  0
   25.7692   -8.9067  -15.4894 C   0  0  0  0  0  0  0  0  0  0  0  0
   26.3484   -8.3207  -16.5883 C   0  0  0  0  0  0  0  0  0  0  0  0
   25.7352   -7.1035  -17.1607 C   0  0  0  0  0  0  0  0  0  0  0  0
   24.5559   -7.3808  -18.0645 C   0  0  2  0  0  0  0  0  0  0  0  0
   24.8801   -8.2761  -19.1473 N   0  0  0  0  0  0  0  0  0  0  0  0
   23.9659   -6.1207  -18.5235 C   0  0  0  0  0  0  0  0  0  0  0  0
   24.5851   -5.3621  -19.2978 O   0  0  0  0  0  0  0  0  0  0  0  0
   27.4825   -8.8607  -17.1407 C   0  0  0  0  0  0  0  0  0  0  0  0
   28.0350   -9.9950  -16.5839 C   0  0  0  0  0  0  0  0  0  0  0  0
   16.2797   -6.0716  -20.8550 N   0  0  0  0  0  0  0  0  0  0  0  0
   16.9174   -6.5434  -19.6634 C   0  0  0  0  0  0  0  0  0  0  0  0
   16.2006   -7.1479  -18.7842 N   0  0  0  0  0  0  0  0  0  0  0  0
   18.3133   -6.3324  -19.4874 N   0  0  0  0  0  0  0  0  0  0  0  0
   19.0230   -5.6744  -20.5551 C   0  0  0  0  0  0  0  0  0  0  0  0
   20.4713   -5.4248  -20.2245 C   0  0  0  0  0  0  0  0  0  0  0  0
   20.6339   -4.5575  -18.9937 C   0  0  0  0  0  0  0  0  0  0  0  0
   22.0581   -4.4609  -18.5769 C   0  0  2  0  0  0  0  0  0  0  0  0
   22.6676   -5.6624  -18.1359 N   0  0  0  0  0  0  0  0  0  0  0  0
   22.2258   -3.4346  -17.5162 C   0  0  0  0  0  0  0  0  0  0  0  0
   22.7687   -3.7008  -16.4160 O   0  0  0  0  0  0  0  0  0  0  0  0
   21.7808   -2.1376  -17.7168 O   0  0  0  0  0  0  0  0  0  0  0  0
  1  2  1  0
  3  4  1  1
  3  2  1  0
  5  3  1  0
  6  5  2  0
  8  9  2  0
  8  7  1  0
 10  9  1  0
 11 10  2  0
 12 11  1  0
 13 12  1  6
 13 14  1  0
 14  5  1  0
 15 27  1  0
 15 13  1  0
 16 15  2  0
 17 11  1  0
 17 18  2  0
 18  8  1  0
 20 19  1  0
 21 20  2  0
 22 20  1  0
 23 22  1  0
 24 25  1  0
 24 23  1  0
 26 25  1  1
 26 27  1  0
 28 26  1  0
 28 30  1  0
 29 28  2  0
M  END
$$$$
