SYR.pdb
     RDKit          3D

 30 30  0  0  1  0  0  0  0  0999 V2000
   21.0845  -19.8202  -20.2380 O   0  0  0  0  0  0  0  0  0  0  0  0
   21.4198  -20.7583  -19.2854 C   0  0  0  0  0  0  0  0  0  0  0  0
   22.8537  -20.5629  -18.7807 C   0  0  2  0  0  0  0  0  0  0  0  0
   23.7416  -21.2695  -19.6723 N   0  0  0  0  0  0  0  0  0  0  0  0
   22.8801  -21.1796  -17.4145 C   0  0  0  0  0  0  0  0  0  0  0  0
   23.2385  -22.3766  -17.2909 O   0  0  0  0  0  0  0  0  0  0  0  0
   28.8925  -19.8635  -16.3071 O   0  0  0  0  0  0  0  0  0  0  0  0
   27.6064  -19.9343  -15.7596 C   0  0  0  0  0  0  0  0  0  0  0  0
   26.7289  -18.8728  -15.8203 C   0  0  0  0  0  0  0  0  0  0  0  0
   25.4573  -18.9116  -15.2913 C   0  0  0  0  0  0  0  0  0  0  0  0
   25.0376  -20.0630  -14.6712 C   0  0  0  0  0  0  0  0  0  0  0  0
   23.6739  -20.1173  -14.1031 C   0  0  0  0  0  0  0  0  0  0  0  0
   22.7115  -20.9634  -14.9048 C   0  0  2  0  0  0  0  0  0  0  0  0
   22.5166  -20.4697  -16.2454 N   0  0  0  0  0  0  0  0  0  0  0  0
   21.4550  -21.1300  -14.1700 C   0  0  0  0  0  0  0  0  0  0  0  0
   20.6169  -20.2069  -14.1065 O   0  0  0  0  0  0  0  0  0  0  0  0
   25.8761  -21.1459  -14.5864 C   0  0  0  0  0  0  0  0  0  0  0  0
   27.1419  -21.0684  -15.1282 C   0  0  0  0  0  0  0  0  0  0  0  0
   17.8925  -27.5021   -8.9561 N   0  0  0  0  0  0  0  0  0  0  0  0
   16.8879  -26.4839   -9.0123 C   0  0  0  0  0  0  0  0  0  0  0  0
   15.7350  -26.7329   -8.5012 N   0  0  0  0  0  0  0  0  0  0  0  0
   17.1907  -25.2367   -9.6263 N   0  0  0  0  0  0  0  0  0  0  0  0
   18.3986  -25.1600  -10.4083 C   0  0  0  0  0  0  0  0  0  0  0  0
   18.5295  -23.8560  -11.1510 C   0  0  0  0  0  0  0  0  0  0  0  0
   19.8436  -23.7542  -11.8970 C   0  0  0  0  0  0  0  0  0  0  0  0
   19.9347  -22.4898  -12.6744 C   0  0  2  0  0  0  0  0  0  0  0  0
   21.0892  -22.3289  -13.4810 N   0  0  0  0  0  0  0  0  0  0  0  0
   19.8242  -21.3123  -11.7756 C   0  0  0  0  0  0  0  0  0  0  0  0
   20.8141  -20.8612  -11.1491 O   0  0  0  0  0  0  0  0  0  0  0  0
   18.6074  -20.6719  -11.6030 O   0  0  0  0  0  0  0  0  0  0  0  0
  1  2  1  0
  3  4  1  6
  3  2  1  0
  5  3  1  0
  6  5  2  0
  8  9  2  0
  8  7  1  0
 10  9  1  0
 11 10  2  0
 12 11  1  0
 13 12  1  1
 13 14  1  0
 14  5  1  0
 15 27  1  0
 15 13  1  0
 16 15  2  0
 17 11  1  0
 17 18  2  0
 18  8  1  0
 20 19  1  0
 21 20  2  0
 22 20  1  0
 23 22  1  0
 24 25  1  0
 24 23  1  0
 26 25  1  1
 26 27  1  0
 28 26  1  0
 28 30  1  0
 29 28  2  0
M  END
$$$$
