SYR.pdb
     RDKit          3D

 30 30  0  0  1  0  0  0  0  0999 V2000
   27.0923  -21.3550  -16.6648 O   0  0  0  0  0  0  0  0  0  0  0  0
   25.8196  -20.9953  -16.2767 C   0  0  0  0  0  0  0  0  0  0  0  0
   24.8990  -20.7861  -17.4841 C   0  0  2  0  0  0  0  0  0  0  0  0
   25.2680  -19.5430  -18.1175 N   0  0  0  0  0  0  0  0  0  0  0  0
   23.5147  -20.6961  -16.9158 C   0  0  0  0  0  0  0  0  0  0  0  0
   23.0699  -19.5760  -16.5639 O   0  0  0  0  0  0  0  0  0  0  0  0
   18.7162  -20.5535  -21.9595 O   0  0  0  0  0  0  0  0  0  0  0  0
   19.1325  -21.0738  -20.7288 C   0  0  0  0  0  0  0  0  0  0  0  0
   18.3292  -21.0294  -19.6093 C   0  0  0  0  0  0  0  0  0  0  0  0
   18.7102  -21.5326  -18.3846 C   0  0  0  0  0  0  0  0  0  0  0  0
   19.9515  -22.1085  -18.2673 C   0  0  0  0  0  0  0  0  0  0  0  0
   20.3696  -22.6551  -16.9589 C   0  0  0  0  0  0  0  0  0  0  0  0
   21.3424  -21.7725  -16.2111 C   0  0  2  0  0  0  0  0  0  0  0  0
   22.6767  -21.8252  -16.7552 N   0  0  0  0  0  0  0  0  0  0  0  0
   21.2984  -22.0755  -14.7784 C   0  0  0  0  0  0  0  0  0  0  0  0
   21.9610  -23.0178  -14.2971 O   0  0  0  0  0  0  0  0  0  0  0  0
   20.7863  -22.1758  -19.3543 C   0  0  0  0  0  0  0  0  0  0  0  0
   20.3690  -21.6608  -20.5637 C   0  0  0  0  0  0  0  0  0  0  0  0
   26.3138  -20.4352   -9.1964 N   0  0  0  0  0  0  0  0  0  0  0  0
   26.0430  -21.1133  -10.4276 C   0  0  0  0  0  0  0  0  0  0  0  0
   27.0355  -21.5615  -11.1105 N   0  0  0  0  0  0  0  0  0  0  0  0
   24.6958  -21.2709  -10.8568 N   0  0  0  0  0  0  0  0  0  0  0  0
   23.6688  -20.6601  -10.0515 C   0  0  0  0  0  0  0  0  0  0  0  0
   22.2793  -21.0292  -10.5015 C   0  0  0  0  0  0  0  0  0  0  0  0
   22.1248  -20.9406  -12.0054 C   0  0  0  0  0  0  0  0  0  0  0  0
   20.7469  -21.2980  -12.4356 C   0  0  2  0  0  0  0  0  0  0  0  0
   20.5153  -21.3408  -13.8335 N   0  0  0  0  0  0  0  0  0  0  0  0
   19.7518  -20.3798  -11.8245 C   0  0  0  0  0  0  0  0  0  0  0  0
   19.0796  -19.5758  -12.5155 O   0  0  0  0  0  0  0  0  0  0  0  0
   19.5368  -20.3873  -10.4555 O   0  0  0  0  0  0  0  0  0  0  0  0
  1  2  1  0
  3  4  1  1
  3  2  1  0
  5  3  1  0
  6  5  2  0
  8  9  2  0
  8  7  1  0
 10  9  1  0
 11 10  2  0
 12 11  1  0
 13 12  1  6
 13 14  1  0
 14  5  1  0
 15 27  1  0
 15 13  1  0
 16 15  2  0
 17 11  1  0
 17 18  2  0
 18  8  1  0
 20 19  1  0
 21 20  2  0
 22 20  1  0
 23 22  1  0
 24 25  1  0
 24 23  1  0
 26 25  1  6
 26 27  1  0
 28 26  1  0
 28 30  1  0
 29 28  2  0
M  END
$$$$
