SYR.pdb
     RDKit          3D

 30 30  0  0  1  0  0  0  0  0999 V2000
   31.3939  -22.2309  -18.6232 O   0  0  0  0  0  0  0  0  0  0  0  0
   30.4960  -22.5374  -17.6234 C   0  0  0  0  0  0  0  0  0  0  0  0
   29.1099  -21.9493  -17.9094 C   0  0  2  0  0  0  0  0  0  0  0  0
   29.2636  -20.5323  -18.1359 N   0  0  0  0  0  0  0  0  0  0  0  0
   28.3095  -22.1993  -16.6667 C   0  0  0  0  0  0  0  0  0  0  0  0
   28.0759  -23.3825  -16.3176 O   0  0  0  0  0  0  0  0  0  0  0  0
   24.1203  -20.8724   -8.9394 O   0  0  0  0  0  0  0  0  0  0  0  0
   24.8735  -20.7110  -10.1079 C   0  0  0  0  0  0  0  0  0  0  0  0
   24.3405  -20.1453  -11.2465 C   0  0  0  0  0  0  0  0  0  0  0  0
   25.0558  -19.9728  -12.4113 C   0  0  0  0  0  0  0  0  0  0  0  0
   26.3660  -20.3832  -12.4457 C   0  0  0  0  0  0  0  0  0  0  0  0
   27.1443  -20.1998  -13.6891 C   0  0  0  0  0  0  0  0  0  0  0  0
   27.0413  -21.3613  -14.6509 C   0  0  2  0  0  0  0  0  0  0  0  0
   27.7994  -21.1544  -15.8599 N   0  0  0  0  0  0  0  0  0  0  0  0
   25.6344  -21.6796  -14.9073 C   0  0  0  0  0  0  0  0  0  0  0  0
   24.9435  -20.9789  -15.6756 O   0  0  0  0  0  0  0  0  0  0  0  0
   26.9401  -20.9518  -11.3366 C   0  0  0  0  0  0  0  0  0  0  0  0
   26.1915  -21.1076  -10.1890 C   0  0  0  0  0  0  0  0  0  0  0  0
   20.9439  -28.7958  -16.0498 N   0  0  0  0  0  0  0  0  0  0  0  0
   22.3249  -28.4852  -15.8367 C   0  0  0  0  0  0  0  0  0  0  0  0
   23.2104  -29.3228  -16.2450 N   0  0  0  0  0  0  0  0  0  0  0  0
   22.6754  -27.2698  -15.1856 N   0  0  0  0  0  0  0  0  0  0  0  0
   21.5981  -26.4391  -14.7103 C   0  0  0  0  0  0  0  0  0  0  0  0
   21.8997  -24.9682  -14.8320 C   0  0  0  0  0  0  0  0  0  0  0  0
   23.3482  -24.6554  -14.5197 C   0  0  0  0  0  0  0  0  0  0  0  0
   23.6314  -23.2004  -14.6379 C   0  0  2  0  0  0  0  0  0  0  0  0
   24.9491  -22.7877  -14.3171 N   0  0  0  0  0  0  0  0  0  0  0  0
   22.6804  -22.4122  -13.8127 C   0  0  0  0  0  0  0  0  0  0  0  0
   21.7039  -21.8087  -14.3210 O   0  0  0  0  0  0  0  0  0  0  0  0
   22.8490  -22.3215  -12.4402 O   0  0  0  0  0  0  0  0  0  0  0  0
  1  2  1  0
  3  4  1  1
  3  2  1  0
  5  3  1  0
  6  5  2  0
  8  9  2  0
  8  7  1  0
 10  9  1  0
 11 10  2  0
 12 11  1  0
 13 12  1  1
 13 14  1  0
 14  5  1  0
 15 27  1  0
 15 13  1  0
 16 15  2  0
 17 11  1  0
 17 18  2  0
 18  8  1  0
 20 19  1  0
 21 20  2  0
 22 20  1  0
 23 22  1  0
 24 25  1  0
 24 23  1  0
 26 25  1  1
 26 27  1  0
 28 26  1  0
 28 30  1  0
 29 28  2  0
M  END
$$$$
