YAS.pdb
     RDKit          3D

 24 24  0  0  1  0  0  0  0  0999 V2000
   10.2332  -14.5653   31.0011 O   0  0  0  0  0  0  0  0  0  0  0  0
    9.9694  -14.6754   29.6292 C   0  0  0  0  0  0  0  0  0  0  0  0
   10.2913  -15.8264   28.9423 C   0  0  0  0  0  0  0  0  0  0  0  0
   10.0285  -15.9353   27.5768 C   0  0  0  0  0  0  0  0  0  0  0  0
    9.4443  -14.9103   26.8689 C   0  0  0  0  0  0  0  0  0  0  0  0
    9.1704  -15.0364   25.4085 C   0  0  0  0  0  0  0  0  0  0  0  0
    7.7464  -15.4885   25.1568 C   0  0  2  0  0  0  0  0  0  0  0  0
    7.4955  -16.7388   25.8488 N   0  0  0  0  0  0  0  0  0  0  0  0
    7.3994  -15.6397   23.7445 C   0  0  0  0  0  0  0  0  0  0  0  0
    7.0305  -16.7311   23.2952 O   0  0  0  0  0  0  0  0  0  0  0  0
    9.1255  -13.7637   27.5607 C   0  0  0  0  0  0  0  0  0  0  0  0
    9.3849  -13.6466   28.9264 C   0  0  0  0  0  0  0  0  0  0  0  0
    7.2767  -13.2539   20.7801 C   0  0  0  0  0  0  0  0  0  0  0  0
    7.2505  -14.6286   21.4403 C   0  0  2  0  0  0  0  0  0  0  0  0
    7.4800  -14.5262   22.8618 N   0  0  0  0  0  0  0  0  0  0  0  0
    8.2320  -15.4895   20.7394 C   0  0  0  0  0  0  0  0  0  0  0  0
    8.1565  -15.6568   19.4829 O   0  0  0  0  0  0  0  0  0  0  0  0
   12.2949  -16.1355   19.2817 O   0  0  0  0  0  0  0  0  0  0  0  0
   11.1964  -15.5919   19.9453 C   0  0  0  0  0  0  0  0  0  0  0  0
   10.4476  -16.6787   20.6905 C   0  0  2  0  0  0  0  0  0  0  0  0
    9.2966  -16.1724   21.3782 N   0  0  0  0  0  0  0  0  0  0  0  0
   11.4081  -17.4062   21.5302 C   0  0  0  0  0  0  0  0  0  0  0  0
   11.2548  -17.4542   22.7639 O   0  0  0  0  0  0  0  0  0  0  0  0
   12.4825  -18.0368   20.9433 O   0  0  0  0  0  0  0  0  0  0  0  0
  1  2  1  0
  2 12  2  0
  2  3  1  0
  3  4  2  0
  4  5  1  0
  5  6  1  0
  7  6  1  0
  7  8  1  1
  9  7  1  0
  9 10  2  0
 11  5  2  0
 12 11  1  0
 14 13  1  6
 14 15  1  0
 14 16  1  0
 15  9  1  0
 16 17  2  0
 19 18  1  0
 20 19  1  1
 21 16  1  0
 21 20  1  0
 22 20  1  0
 22 24  1  0
 23 22  2  0
M  END
$$$$
