YAS.pdb
     RDKit          3D

 24 24  0  0  1  0  0  0  0  0999 V2000
    5.9812  -11.1667   28.6008 O   0  0  0  0  0  0  0  0  0  0  0  0
    6.5289  -11.8481   27.5057 C   0  0  0  0  0  0  0  0  0  0  0  0
    7.6060  -12.6925   27.6710 C   0  0  0  0  0  0  0  0  0  0  0  0
    8.1507  -13.3705   26.5805 C   0  0  0  0  0  0  0  0  0  0  0  0
    7.6408  -13.2254   25.3109 C   0  0  0  0  0  0  0  0  0  0  0  0
    8.2327  -13.9529   24.1516 C   0  0  0  0  0  0  0  0  0  0  0  0
    7.2216  -14.8872   23.5190 C   0  0  2  0  0  0  0  0  0  0  0  0
    6.9958  -16.0298   24.3842 N   0  0  0  0  0  0  0  0  0  0  0  0
    7.5840  -15.3571   22.1826 C   0  0  0  0  0  0  0  0  0  0  0  0
    8.0515  -16.4893   22.0134 O   0  0  0  0  0  0  0  0  0  0  0  0
    6.5654  -12.3808   25.1526 C   0  0  0  0  0  0  0  0  0  0  0  0
    6.0145  -11.6990   26.2379 C   0  0  0  0  0  0  0  0  0  0  0  0
    7.7751  -13.7303   18.7616 C   0  0  0  0  0  0  0  0  0  0  0  0
    7.7015  -14.9296   19.7012 C   0  0  2  0  0  0  0  0  0  0  0  0
    7.4011  -14.5140   21.0507 N   0  0  0  0  0  0  0  0  0  0  0  0
    8.9717  -15.6827   19.5792 C   0  0  0  0  0  0  0  0  0  0  0  0
   10.0679  -15.1552   19.9432 O   0  0  0  0  0  0  0  0  0  0  0  0
    9.1078  -19.7640   18.7044 O   0  0  0  0  0  0  0  0  0  0  0  0
   10.1761  -19.1675   19.3718 C   0  0  0  0  0  0  0  0  0  0  0  0
   10.3095  -17.7176   18.9507 C   0  0  2  0  0  0  0  0  0  0  0  0
    9.0741  -17.0009   19.0696 N   0  0  0  0  0  0  0  0  0  0  0  0
   10.9285  -17.6806   17.6193 C   0  0  0  0  0  0  0  0  0  0  0  0
   10.3360  -17.1456   16.6650 O   0  0  0  0  0  0  0  0  0  0  0  0
   12.1716  -18.2426   17.4321 O   0  0  0  0  0  0  0  0  0  0  0  0
  1  2  1  0
  2 12  2  0
  2  3  1  0
  3  4  2  0
  4  5  1  0
  5  6  1  0
  7  6  1  0
  7  8  1  1
  9  7  1  0
  9 10  2  0
 11  5  2  0
 12 11  1  0
 14 13  1  6
 14 15  1  0
 14 16  1  0
 15  9  1  0
 16 17  2  0
 19 18  1  0
 20 19  1  6
 21 16  1  0
 21 20  1  0
 22 20  1  0
 22 24  1  0
 23 22  2  0
M  END
$$$$
