YAS.pdb
     RDKit          3D

 24 24  0  0  1  0  0  0  0  0999 V2000
    5.3913  -10.5711   27.2327 O   0  0  0  0  0  0  0  0  0  0  0  0
    6.0788  -11.6935   26.7519 C   0  0  0  0  0  0  0  0  0  0  0  0
    6.9509  -11.5814   25.6903 C   0  0  0  0  0  0  0  0  0  0  0  0
    7.6350  -12.6990   25.2123 C   0  0  0  0  0  0  0  0  0  0  0  0
    7.4687  -13.9436   25.7745 C   0  0  0  0  0  0  0  0  0  0  0  0
    8.2030  -15.1324   25.2536 C   0  0  0  0  0  0  0  0  0  0  0  0
    7.3594  -15.9024   24.2582 C   0  0  2  0  0  0  0  0  0  0  0  0
    6.4766  -16.8150   24.9605 N   0  0  0  0  0  0  0  0  0  0  0  0
    8.1273  -16.6452   23.2599 C   0  0  0  0  0  0  0  0  0  0  0  0
    8.4595  -17.8194   23.4598 O   0  0  0  0  0  0  0  0  0  0  0  0
    6.5964  -14.0488   26.8342 C   0  0  0  0  0  0  0  0  0  0  0  0
    5.9084  -12.9361   27.3186 C   0  0  0  0  0  0  0  0  0  0  0  0
    9.4917  -15.7920   19.8078 C   0  0  0  0  0  0  0  0  0  0  0  0
    9.3046  -16.6833   21.0313 C   0  0  2  0  0  0  0  0  0  0  0  0
    8.5039  -16.0245   22.0358 N   0  0  0  0  0  0  0  0  0  0  0  0
   10.6473  -17.0868   21.5108 C   0  0  0  0  0  0  0  0  0  0  0  0
   11.3374  -16.2965   22.2259 O   0  0  0  0  0  0  0  0  0  0  0  0
   11.6450  -20.2248   23.3088 O   0  0  0  0  0  0  0  0  0  0  0  0
   12.5703  -20.1192   22.2719 C   0  0  0  0  0  0  0  0  0  0  0  0
   12.5543  -18.7156   21.7001 C   0  0  2  0  0  0  0  0  0  0  0  0
   11.2553  -18.3353   21.2288 N   0  0  0  0  0  0  0  0  0  0  0  0
   13.6343  -18.6098   20.7105 C   0  0  0  0  0  0  0  0  0  0  0  0
   13.3902  -18.2298   19.5512 O   0  0  0  0  0  0  0  0  0  0  0  0
   14.9225  -18.9342   21.0734 O   0  0  0  0  0  0  0  0  0  0  0  0
  1  2  1  0
  2 12  2  0
  2  3  1  0
  3  4  2  0
  4  5  1  0
  5  6  1  0
  7  6  1  0
  7  8  1  1
  9  7  1  0
  9 10  2  0
 11  5  2  0
 12 11  1  0
 14 13  1  6
 14 15  1  0
 14 16  1  0
 15  9  1  0
 16 17  2  0
 19 18  1  0
 20 19  1  6
 21 16  1  0
 21 20  1  0
 22 20  1  0
 22 24  1  0
 23 22  2  0
M  END
$$$$
