YAS.pdb
     RDKit          3D

 24 24  0  0  1  0  0  0  0  0999 V2000
    7.1832  -10.3538   27.0029 O   0  0  0  0  0  0  0  0  0  0  0  0
    7.1525  -11.7149   26.6709 C   0  0  0  0  0  0  0  0  0  0  0  0
    5.9796  -12.3115   26.2603 C   0  0  0  0  0  0  0  0  0  0  0  0
    5.9498  -13.6663   25.9301 C   0  0  0  0  0  0  0  0  0  0  0  0
    7.0767  -14.4525   26.0001 C   0  0  0  0  0  0  0  0  0  0  0  0
    7.0329  -15.9007   25.6475 C   0  0  0  0  0  0  0  0  0  0  0  0
    8.0310  -16.2274   24.5554 C   0  0  2  0  0  0  0  0  0  0  0  0
    9.2539  -15.4746   24.7625 N   0  0  0  0  0  0  0  0  0  0  0  0
    7.5423  -15.9913   23.1977 C   0  0  0  0  0  0  0  0  0  0  0  0
    6.6008  -16.6488   22.7390 O   0  0  0  0  0  0  0  0  0  0  0  0
    8.2447  -13.8508   26.4109 C   0  0  0  0  0  0  0  0  0  0  0  0
    8.2832  -12.4963   26.7430 C   0  0  0  0  0  0  0  0  0  0  0  0
    7.7923  -13.2635   20.6854 C   0  0  0  0  0  0  0  0  0  0  0  0
    7.7530  -14.7528   21.0123 C   0  0  2  0  0  0  0  0  0  0  0  0
    8.1455  -14.9944   22.3804 N   0  0  0  0  0  0  0  0  0  0  0  0
    8.5939  -15.4600   20.0181 C   0  0  0  0  0  0  0  0  0  0  0  0
    8.2916  -15.4302   18.7852 O   0  0  0  0  0  0  0  0  0  0  0  0
   11.7171  -18.0181   21.1168 O   0  0  0  0  0  0  0  0  0  0  0  0
   11.9070  -17.3060   19.9338 C   0  0  0  0  0  0  0  0  0  0  0  0
   10.5703  -16.8722   19.3663 C   0  0  2  0  0  0  0  0  0  0  0  0
    9.7596  -16.1993   20.3379 N   0  0  0  0  0  0  0  0  0  0  0  0
    9.9430  -18.0358   18.7262 C   0  0  0  0  0  0  0  0  0  0  0  0
    8.8066  -18.4068   19.0712 O   0  0  0  0  0  0  0  0  0  0  0  0
   10.6209  -18.7161   17.7394 O   0  0  0  0  0  0  0  0  0  0  0  0
  1  2  1  0
  2 12  2  0
  2  3  1  0
  3  4  2  0
  4  5  1  0
  5  6  1  0
  7  6  1  0
  7  8  1  1
  9  7  1  0
  9 10  2  0
 11  5  2  0
 12 11  1  0
 14 13  1  6
 14 15  1  0
 14 16  1  0
 15  9  1  0
 16 17  2  0
 19 18  1  0
 20 19  1  1
 21 16  1  0
 21 20  1  0
 22 20  1  0
 22 24  1  0
 23 22  2  0
M  END
$$$$
