YAS.pdb
     RDKit          3D

 24 24  0  0  1  0  0  0  0  0999 V2000
   10.2932  -14.4990   30.9319 O   0  0  0  0  0  0  0  0  0  0  0  0
   10.0319  -14.6893   29.5684 C   0  0  0  0  0  0  0  0  0  0  0  0
    9.4649  -13.6839   28.8149 C   0  0  0  0  0  0  0  0  0  0  0  0
    9.2051  -13.8740   27.4577 C   0  0  0  0  0  0  0  0  0  0  0  0
    9.5008  -15.0588   26.8240 C   0  0  0  0  0  0  0  0  0  0  0  0
    9.2161  -15.2523   25.3731 C   0  0  0  0  0  0  0  0  0  0  0  0
    7.7896  -15.7130   25.1530 C   0  0  2  0  0  0  0  0  0  0  0  0
    7.5332  -16.9132   25.9270 N   0  0  0  0  0  0  0  0  0  0  0  0
    7.4405  -15.9562   23.7542 C   0  0  0  0  0  0  0  0  0  0  0  0
    7.2429  -17.1046   23.3401 O   0  0  0  0  0  0  0  0  0  0  0  0
   10.0668  -16.0588   27.5821 C   0  0  0  0  0  0  0  0  0  0  0  0
   10.3300  -15.8769   28.9400 C   0  0  0  0  0  0  0  0  0  0  0  0
    6.8832  -13.7056   20.7347 C   0  0  0  0  0  0  0  0  0  0  0  0
    7.1100  -15.0456   21.4270 C   0  0  2  0  0  0  0  0  0  0  0  0
    7.3204  -14.8685   22.8442 N   0  0  0  0  0  0  0  0  0  0  0  0
    8.2303  -15.7298   20.7398 C   0  0  0  0  0  0  0  0  0  0  0  0
    8.1962  -15.9135   19.4838 O   0  0  0  0  0  0  0  0  0  0  0  0
   12.2311  -16.6463   19.1268 O   0  0  0  0  0  0  0  0  0  0  0  0
   11.2118  -15.9523   19.7765 C   0  0  0  0  0  0  0  0  0  0  0  0
   10.4672  -16.8793   20.7164 C   0  0  2  0  0  0  0  0  0  0  0  0
    9.3898  -16.2181   21.3917 N   0  0  0  0  0  0  0  0  0  0  0  0
   11.4489  -17.5309   21.5931 C   0  0  0  0  0  0  0  0  0  0  0  0
   11.3732  -17.4008   22.8281 O   0  0  0  0  0  0  0  0  0  0  0  0
   12.4566  -18.2890   21.0396 O   0  0  0  0  0  0  0  0  0  0  0  0
  1  2  1  0
  2 12  2  0
  2  3  1  0
  3  4  2  0
  4  5  1  0
  5  6  1  0
  7  6  1  0
  7  8  1  1
  9  7  1  0
  9 10  2  0
 11  5  2  0
 12 11  1  0
 14 13  1  6
 14 15  1  0
 14 16  1  0
 15  9  1  0
 16 17  2  0
 19 18  1  0
 20 19  1  1
 21 16  1  0
 21 20  1  0
 22 20  1  0
 22 24  1  0
 23 22  2  0
M  END
$$$$
