HYE.pdb
     RDKit          3D

 32 33  0  0  1  0  0  0  0  0999 V2000
   10.5087  -16.1918   18.5419 N   0  0  0  0  0  0  0  0  0  0  0  0
    9.1862  -15.8722   19.1010 C   0  0  1  0  0  0  0  0  0  0  0  0
    8.3418  -17.1158   18.8459 C   0  0  0  0  0  0  0  0  0  0  0  0
    7.9615  -17.0697   17.4099 C   0  0  0  0  0  0  0  0  0  0  0  0
    8.3434  -16.1819   16.4247 C   0  0  0  0  0  0  0  0  0  0  0  0
    7.7575  -16.4944   15.2564 N   0  0  0  0  0  0  0  0  0  0  0  0
    6.9857  -17.5971   15.4801 C   0  0  0  0  0  0  0  0  0  0  0  0
    7.1217  -17.9242   16.7733 N   0  0  0  0  0  0  0  0  0  0  0  0
    9.3034  -15.5984   20.5525 C   0  0  0  0  0  0  0  0  0  0  0  0
   10.2065  -16.1598   21.2066 O   0  0  0  0  0  0  0  0  0  0  0  0
    7.5000  -12.6433   28.6295 O   0  0  0  0  0  0  0  0  0  0  0  0
    7.5032  -12.8207   27.2551 C   0  0  0  0  0  0  0  0  0  0  0  0
    6.3329  -13.2726   26.6670 C   0  0  0  0  0  0  0  0  0  0  0  0
    6.3573  -13.4459   25.2738 C   0  0  0  0  0  0  0  0  0  0  0  0
    7.4763  -13.1850   24.5173 C   0  0  0  0  0  0  0  0  0  0  0  0
    7.4266  -13.3898   23.0371 C   0  0  0  0  0  0  0  0  0  0  0  0
    8.4209  -14.4578   22.6187 C   0  0  2  0  0  0  0  0  0  0  0  0
    8.4040  -14.7053   21.2118 N   0  0  0  0  0  0  0  0  0  0  0  0
    8.2864  -15.6708   23.4591 C   0  0  0  0  0  0  0  0  0  0  0  0
    7.2020  -16.3460   23.4014 O   0  0  0  0  0  0  0  0  0  0  0  0
    8.6409  -12.7317   25.1333 C   0  0  0  0  0  0  0  0  0  0  0  0
    8.6238  -12.5605   26.4936 C   0  0  0  0  0  0  0  0  0  0  0  0
    9.3440  -16.0630   24.3038 N   0  0  0  0  0  0  0  0  0  0  0  0
    9.1735  -17.2697   25.1343 C   0  0  1  0  0  0  0  0  0  0  0  0
   10.0530  -18.3417   24.6245 C   0  0  0  0  0  0  0  0  0  0  0  0
    9.8256  -18.7700   23.2307 C   0  0  0  0  0  0  0  0  0  0  0  0
   10.6777  -19.8306   22.6926 C   0  0  0  0  0  0  0  0  0  0  0  0
   11.5219  -20.3916   23.4328 O   0  0  0  0  0  0  0  0  0  0  0  0
    9.3858  -16.8698   26.5038 C   0  0  0  0  0  0  0  0  0  0  0  0
    9.8226  -15.7191   26.8257 O   0  0  0  0  0  0  0  0  0  0  0  0
   10.6043  -20.2753   21.3679 O   0  0  0  0  0  0  0  0  0  0  0  0
    9.0996  -17.7875   27.5411 O   0  0  0  0  0  0  0  0  0  0  0  0
  2  1  1  1
  3  4  1  0
  3  2  1  0
  4  5  2  0
  5  6  1  0
  7  6  1  0
  8  4  1  0
  8  7  2  0
  9  2  1  0
  9 18  1  0
 10  9  2  0
 12 11  1  0
 13 12  2  0
 14 13  1  0
 15 14  2  0
 15 21  1  0
 17 16  1  6
 16 15  1  0
 17 18  1  0
 19 17  1  0
 20 19  2  0
 21 22  2  0
 22 12  1  0
 23 19  1  0
 24 23  1  0
 24 29  1  0
 25 26  1  0
 24 25  1  6
 26 27  1  0
 27 28  2  0
 29 32  1  0
 30 29  2  0
 31 27  1  0
M  END
$$$$
