HYE.pdb
     RDKit          3D

 32 33  0  0  1  0  0  0  0  0999 V2000
   10.0422  -13.0357   20.2062 N   0  0  0  0  0  0  0  0  0  0  0  0
    8.9980  -13.9782   20.6365 C   0  0  1  0  0  0  0  0  0  0  0  0
    9.0644  -15.1225   19.6311 C   0  0  0  0  0  0  0  0  0  0  0  0
    8.5949  -14.5631   18.3367 C   0  0  0  0  0  0  0  0  0  0  0  0
    8.3420  -13.2536   17.9820 C   0  0  0  0  0  0  0  0  0  0  0  0
    7.9202  -13.1838   16.7080 N   0  0  0  0  0  0  0  0  0  0  0  0
    7.8976  -14.4599   16.2254 C   0  0  0  0  0  0  0  0  0  0  0  0
    8.3040  -15.2685   17.2149 N   0  0  0  0  0  0  0  0  0  0  0  0
    9.2850  -14.4593   22.0083 C   0  0  0  0  0  0  0  0  0  0  0  0
   10.4698  -14.5159   22.3978 O   0  0  0  0  0  0  0  0  0  0  0  0
    5.9801  -10.2274   27.0860 O   0  0  0  0  0  0  0  0  0  0  0  0
    6.2942  -11.4827   26.5900 C   0  0  0  0  0  0  0  0  0  0  0  0
    5.2526  -12.2556   26.1027 C   0  0  0  0  0  0  0  0  0  0  0  0
    5.5922  -13.5239   25.6050 C   0  0  0  0  0  0  0  0  0  0  0  0
    6.8865  -13.9900   25.5943 C   0  0  0  0  0  0  0  0  0  0  0  0
    7.1727  -15.3509   25.0450 C   0  0  0  0  0  0  0  0  0  0  0  0
    8.4463  -15.3293   24.2193 C   0  0  2  0  0  0  0  0  0  0  0  0
    8.2320  -14.8563   22.8884 N   0  0  0  0  0  0  0  0  0  0  0  0
    9.1602  -16.6249   24.3052 C   0  0  0  0  0  0  0  0  0  0  0  0
    8.5864  -17.6777   23.8606 O   0  0  0  0  0  0  0  0  0  0  0  0
    7.9158  -13.1930   26.0904 C   0  0  0  0  0  0  0  0  0  0  0  0
    7.5910  -11.9533   26.5780 C   0  0  0  0  0  0  0  0  0  0  0  0
   10.4501  -16.6822   24.8697 N   0  0  0  0  0  0  0  0  0  0  0  0
   11.0907  -18.0004   25.0337 C   0  0  1  0  0  0  0  0  0  0  0  0
   12.5411  -17.8731   24.7827 C   0  0  0  0  0  0  0  0  0  0  0  0
   12.9369  -17.4280   23.4325 C   0  0  0  0  0  0  0  0  0  0  0  0
   14.3650  -17.2798   23.1517 C   0  0  0  0  0  0  0  0  0  0  0  0
   15.2073  -17.5034   24.0549 O   0  0  0  0  0  0  0  0  0  0  0  0
   10.7110  -18.4922   26.3354 C   0  0  0  0  0  0  0  0  0  0  0  0
   10.2033  -17.7466   27.2325 O   0  0  0  0  0  0  0  0  0  0  0  0
   14.8653  -16.8988   21.9016 O   0  0  0  0  0  0  0  0  0  0  0  0
   10.9066  -19.8596   26.6385 O   0  0  0  0  0  0  0  0  0  0  0  0
  2  1  1  6
  3  4  1  0
  3  2  1  0
  4  5  2  0
  5  6  1  0
  7  6  1  0
  8  4  1  0
  8  7  2  0
  9  2  1  0
  9 18  1  0
 10  9  2  0
 12 11  1  0
 13 12  2  0
 14 13  1  0
 15 14  2  0
 15 21  1  0
 17 16  1  6
 16 15  1  0
 17 18  1  0
 19 17  1  0
 20 19  2  0
 21 22  2  0
 22 12  1  0
 23 19  1  0
 24 23  1  0
 24 29  1  0
 25 26  1  0
 24 25  1  1
 26 27  1  0
 27 28  2  0
 29 32  1  0
 30 29  2  0
 31 27  1  0
M  END
$$$$
