HYE.pdb
     RDKit          3D

 32 33  0  0  1  0  0  0  0  0999 V2000
    9.8776  -14.7660   19.6512 N   0  0  0  0  0  0  0  0  0  0  0  0
    8.7770  -14.3007   20.5091 C   0  0  1  0  0  0  0  0  0  0  0  0
    7.5228  -14.9315   19.9143 C   0  0  0  0  0  0  0  0  0  0  0  0
    7.4055  -14.3952   18.5333 C   0  0  0  0  0  0  0  0  0  0  0  0
    7.4144  -13.0878   18.0915 C   0  0  0  0  0  0  0  0  0  0  0  0
    7.2710  -13.0410   16.7561 N   0  0  0  0  0  0  0  0  0  0  0  0
    7.1677  -14.3302   16.3211 C   0  0  0  0  0  0  0  0  0  0  0  0
    7.2502  -15.1233   17.3991 N   0  0  0  0  0  0  0  0  0  0  0  0
    8.9927  -14.7590   21.9016 C   0  0  0  0  0  0  0  0  0  0  0  0
    9.6483  -15.8020   22.1043 O   0  0  0  0  0  0  0  0  0  0  0  0
    9.6897  -14.6096   30.6234 O   0  0  0  0  0  0  0  0  0  0  0  0
    9.2847  -14.3175   29.3307 C   0  0  0  0  0  0  0  0  0  0  0  0
   10.0974  -13.4834   28.5801 C   0  0  0  0  0  0  0  0  0  0  0  0
    9.6691  -13.1999   27.2733 C   0  0  0  0  0  0  0  0  0  0  0  0
    8.5059  -13.7155   26.7500 C   0  0  0  0  0  0  0  0  0  0  0  0
    8.1154  -13.3719   25.3481 C   0  0  0  0  0  0  0  0  0  0  0  0
    8.7018  -14.3791   24.3755 C   0  0  2  0  0  0  0  0  0  0  0  0
    8.4659  -14.0287   23.0107 N   0  0  0  0  0  0  0  0  0  0  0  0
    8.3049  -15.7609   24.7340 C   0  0  0  0  0  0  0  0  0  0  0  0
    7.1029  -16.1364   24.5117 O   0  0  0  0  0  0  0  0  0  0  0  0
    7.7061  -14.5518   27.5257 C   0  0  0  0  0  0  0  0  0  0  0  0
    8.1187  -14.8326   28.8029 C   0  0  0  0  0  0  0  0  0  0  0  0
    9.2465  -16.6371   25.3099 N   0  0  0  0  0  0  0  0  0  0  0  0
    8.8285  -18.0167   25.6211 C   0  0  1  0  0  0  0  0  0  0  0  0
    8.6627  -18.7724   24.3624 C   0  0  0  0  0  0  0  0  0  0  0  0
    9.8913  -19.0362   23.5886 C   0  0  0  0  0  0  0  0  0  0  0  0
    9.7704  -19.8160   22.3567 C   0  0  0  0  0  0  0  0  0  0  0  0
   10.6569  -19.7312   21.4723 O   0  0  0  0  0  0  0  0  0  0  0  0
    9.7892  -18.5448   26.5585 C   0  0  0  0  0  0  0  0  0  0  0  0
   10.8397  -17.9125   26.8981 O   0  0  0  0  0  0  0  0  0  0  0  0
    8.7002  -20.6796   22.0977 O   0  0  0  0  0  0  0  0  0  0  0  0
    9.5643  -19.8183   27.1308 O   0  0  0  0  0  0  0  0  0  0  0  0
  2  1  1  6
  3  4  1  0
  3  2  1  0
  4  5  2  0
  5  6  1  0
  7  6  1  0
  8  4  1  0
  8  7  2  0
  9  2  1  0
  9 18  1  0
 10  9  2  0
 12 11  1  0
 13 12  2  0
 14 13  1  0
 15 14  2  0
 15 21  1  0
 17 16  1  1
 16 15  1  0
 17 18  1  0
 19 17  1  0
 20 19  2  0
 21 22  2  0
 22 12  1  0
 23 19  1  0
 24 23  1  0
 24 29  1  0
 25 26  1  0
 24 25  1  6
 26 27  1  0
 27 28  2  0
 29 32  1  0
 30 29  2  0
 31 27  1  0
M  END
$$$$
