HYE.pdb
     RDKit          3D

 32 33  0  0  1  0  0  0  0  0999 V2000
    9.6166  -16.1139   19.1471 N   0  0  0  0  0  0  0  0  0  0  0  0
    8.8105  -16.5753   20.2877 C   0  0  1  0  0  0  0  0  0  0  0  0
    8.8309  -18.0969   20.1922 C   0  0  0  0  0  0  0  0  0  0  0  0
    7.7642  -18.4646   19.2249 C   0  0  0  0  0  0  0  0  0  0  0  0
    6.9626  -17.6547   18.4465 C   0  0  0  0  0  0  0  0  0  0  0  0
    6.1146  -18.3961   17.7135 N   0  0  0  0  0  0  0  0  0  0  0  0
    6.3648  -19.7030   18.0156 C   0  0  0  0  0  0  0  0  0  0  0  0
    7.3537  -19.7215   18.9210 N   0  0  0  0  0  0  0  0  0  0  0  0
    9.4203  -16.1147   21.5573 C   0  0  0  0  0  0  0  0  0  0  0  0
   10.6586  -15.9687   21.6197 O   0  0  0  0  0  0  0  0  0  0  0  0
   10.3326  -14.0381   30.0342 O   0  0  0  0  0  0  0  0  0  0  0  0
    9.7837  -14.2577   28.7809 C   0  0  0  0  0  0  0  0  0  0  0  0
    9.3169  -15.5321   28.5027 C   0  0  0  0  0  0  0  0  0  0  0  0
    8.7649  -15.7336   27.2274 C   0  0  0  0  0  0  0  0  0  0  0  0
    8.6839  -14.7287   26.2914 C   0  0  0  0  0  0  0  0  0  0  0  0
    8.0797  -15.0169   24.9544 C   0  0  0  0  0  0  0  0  0  0  0  0
    9.1519  -15.4605   23.9757 C   0  0  2  0  0  0  0  0  0  0  0  0
    8.6170  -15.8352   22.7051 N   0  0  0  0  0  0  0  0  0  0  0  0
   10.0491  -16.4685   24.5877 C   0  0  0  0  0  0  0  0  0  0  0  0
    9.6316  -17.6702   24.7178 O   0  0  0  0  0  0  0  0  0  0  0  0
    9.1610  -13.4556   26.5960 C   0  0  0  0  0  0  0  0  0  0  0  0
    9.7014  -13.2522   27.8397 C   0  0  0  0  0  0  0  0  0  0  0  0
   11.3393  -16.0960   25.0150 N   0  0  0  0  0  0  0  0  0  0  0  0
   12.3342  -17.1560   25.2627 C   0  0  1  0  0  0  0  0  0  0  0  0
   13.6584  -16.7033   24.7892 C   0  0  0  0  0  0  0  0  0  0  0  0
   14.8028  -17.5804   25.1033 C   0  0  0  0  0  0  0  0  0  0  0  0
   16.1287  -17.1671   24.6432 C   0  0  0  0  0  0  0  0  0  0  0  0
   17.1036  -17.9491   24.7589 O   0  0  0  0  0  0  0  0  0  0  0  0
   12.2416  -17.4998   26.6604 C   0  0  0  0  0  0  0  0  0  0  0  0
   11.7428  -16.7174   27.5308 O   0  0  0  0  0  0  0  0  0  0  0  0
   16.3841  -15.9210   24.0602 O   0  0  0  0  0  0  0  0  0  0  0  0
   12.7225  -18.7573   27.0933 O   0  0  0  0  0  0  0  0  0  0  0  0
  2  1  1  6
  3  4  1  0
  3  2  1  0
  4  5  2  0
  5  6  1  0
  7  6  1  0
  8  4  1  0
  8  7  2  0
  9  2  1  0
  9 18  1  0
 10  9  2  0
 12 11  1  0
 13 12  2  0
 14 13  1  0
 15 14  2  0
 15 21  1  0
 17 16  1  1
 16 15  1  0
 17 18  1  0
 19 17  1  0
 20 19  2  0
 21 22  2  0
 22 12  1  0
 23 19  1  0
 24 23  1  0
 24 29  1  0
 25 26  1  0
 24 25  1  1
 26 27  1  0
 27 28  2  0
 29 32  1  0
 30 29  2  0
 31 27  1  0
M  END
$$$$
