HYE.pdb
     RDKit          3D

 32 33  0  0  1  0  0  0  0  0999 V2000
    9.0947  -12.7446   19.6087 N   0  0  0  0  0  0  0  0  0  0  0  0
    8.2372  -13.7940   20.1808 C   0  0  1  0  0  0  0  0  0  0  0  0
    8.4132  -14.9922   19.2545 C   0  0  0  0  0  0  0  0  0  0  0  0
    7.8206  -14.5969   17.9502 C   0  0  0  0  0  0  0  0  0  0  0  0
    8.4420  -14.1993   16.7838 C   0  0  0  0  0  0  0  0  0  0  0  0
    7.5308  -13.9194   15.8366 N   0  0  0  0  0  0  0  0  0  0  0  0
    6.3022  -14.1366   16.3891 C   0  0  0  0  0  0  0  0  0  0  0  0
    6.4982  -14.5405   17.6526 N   0  0  0  0  0  0  0  0  0  0  0  0
    8.6822  -14.1165   21.5568 C   0  0  0  0  0  0  0  0  0  0  0  0
    9.8356  -14.5598   21.7351 O   0  0  0  0  0  0  0  0  0  0  0  0
    9.1004  -14.5765   30.2796 O   0  0  0  0  0  0  0  0  0  0  0  0
    8.6333  -14.3541   28.9940 C   0  0  0  0  0  0  0  0  0  0  0  0
    9.0602  -13.2043   28.3496 C   0  0  0  0  0  0  0  0  0  0  0  0
    8.5753  -12.9977   27.0481 C   0  0  0  0  0  0  0  0  0  0  0  0
    7.7206  -13.8810   26.4304 C   0  0  0  0  0  0  0  0  0  0  0  0
    7.2481  -13.5962   25.0407 C   0  0  0  0  0  0  0  0  0  0  0  0
    8.1889  -14.2197   24.0256 C   0  0  2  0  0  0  0  0  0  0  0  0
    7.8165  -13.9279   22.6776 N   0  0  0  0  0  0  0  0  0  0  0  0
    8.4013  -15.6586   24.3082 C   0  0  0  0  0  0  0  0  0  0  0  0
    7.4295  -16.4723   24.1382 O   0  0  0  0  0  0  0  0  0  0  0  0
    7.3059  -15.0300   27.1004 C   0  0  0  0  0  0  0  0  0  0  0  0
    7.7757  -15.2377   28.3717 C   0  0  0  0  0  0  0  0  0  0  0  0
    9.6588  -16.1101   24.7563 N   0  0  0  0  0  0  0  0  0  0  0  0
    9.8469  -17.5535   24.9933 C   0  0  1  0  0  0  0  0  0  0  0  0
   10.6042  -18.1385   23.8678 C   0  0  0  0  0  0  0  0  0  0  0  0
   11.9748  -17.6306   23.6644 C   0  0  0  0  0  0  0  0  0  0  0  0
   12.7455  -18.1697   22.5438 C   0  0  0  0  0  0  0  0  0  0  0  0
   13.8908  -17.7194   22.2973 O   0  0  0  0  0  0  0  0  0  0  0  0
   10.4423  -17.6899   26.3000 C   0  0  0  0  0  0  0  0  0  0  0  0
   10.6505  -18.8191   26.8478 O   0  0  0  0  0  0  0  0  0  0  0  0
   12.2744  -19.1893   21.7091 O   0  0  0  0  0  0  0  0  0  0  0  0
   10.8146  -16.5259   27.0117 O   0  0  0  0  0  0  0  0  0  0  0  0
  2  1  1  6
  3  4  1  0
  3  2  1  0
  4  5  2  0
  5  6  1  0
  7  6  1  0
  8  4  1  0
  8  7  2  0
  9  2  1  0
  9 18  1  0
 10  9  2  0
 12 11  1  0
 13 12  2  0
 14 13  1  0
 15 14  2  0
 15 21  1  0
 17 16  1  1
 16 15  1  0
 17 18  1  0
 19 17  1  0
 20 19  2  0
 21 22  2  0
 22 12  1  0
 23 19  1  0
 24 23  1  0
 24 29  1  0
 25 26  1  0
 24 25  1  6
 26 27  1  0
 27 28  2  0
 29 32  1  0
 30 29  2  0
 31 27  1  0
M  END
$$$$
