HYE.pdb
     RDKit          3D

 32 33  0  0  1  0  0  0  0  0999 V2000
   10.0824  -13.2719   19.5853 N   0  0  0  0  0  0  0  0  0  0  0  0
    9.0054  -13.8239   20.4215 C   0  0  1  0  0  0  0  0  0  0  0  0
    8.4672  -15.0128   19.6330 C   0  0  0  0  0  0  0  0  0  0  0  0
    7.8562  -14.4492   18.4010 C   0  0  0  0  0  0  0  0  0  0  0  0
    7.1853  -13.2576   18.2153 C   0  0  0  0  0  0  0  0  0  0  0  0
    6.7826  -13.1379   16.9388 N   0  0  0  0  0  0  0  0  0  0  0  0
    7.1947  -14.2619   16.2840 C   0  0  0  0  0  0  0  0  0  0  0  0
    7.8338  -15.0322   17.1762 N   0  0  0  0  0  0  0  0  0  0  0  0
    9.5517  -14.2572   21.7289 C   0  0  0  0  0  0  0  0  0  0  0  0
   10.6645  -14.8219   21.7664 O   0  0  0  0  0  0  0  0  0  0  0  0
   10.4236  -15.7194   30.3274 O   0  0  0  0  0  0  0  0  0  0  0  0
    9.9315  -15.2840   29.1073 C   0  0  0  0  0  0  0  0  0  0  0  0
    9.0916  -16.1414   28.4150 C   0  0  0  0  0  0  0  0  0  0  0  0
    8.6041  -15.6814   27.1812 C   0  0  0  0  0  0  0  0  0  0  0  0
    8.9333  -14.4466   26.6718 C   0  0  0  0  0  0  0  0  0  0  0  0
    8.3728  -14.0231   25.3519 C   0  0  0  0  0  0  0  0  0  0  0  0
    9.2736  -14.4890   24.2225 C   0  0  2  0  0  0  0  0  0  0  0  0
    8.8288  -14.0388   22.9417 N   0  0  0  0  0  0  0  0  0  0  0  0
    9.5279  -15.9462   24.3090 C   0  0  0  0  0  0  0  0  0  0  0  0
    8.5772  -16.7571   24.0368 O   0  0  0  0  0  0  0  0  0  0  0  0
    9.7803  -13.6033   27.3877 C   0  0  0  0  0  0  0  0  0  0  0  0
   10.2599  -14.0465   28.5934 C   0  0  0  0  0  0  0  0  0  0  0  0
   10.8012  -16.4178   24.6861 N   0  0  0  0  0  0  0  0  0  0  0  0
   11.0198  -17.8741   24.7640 C   0  0  1  0  0  0  0  0  0  0  0  0
   12.0458  -18.2675   23.7765 C   0  0  0  0  0  0  0  0  0  0  0  0
   11.5607  -18.5988   22.4227 C   0  0  0  0  0  0  0  0  0  0  0  0
   12.5562  -18.8943   21.3920 C   0  0  0  0  0  0  0  0  0  0  0  0
   13.5283  -19.6427   21.6566 O   0  0  0  0  0  0  0  0  0  0  0  0
   11.3127  -18.1812   26.1426 C   0  0  0  0  0  0  0  0  0  0  0  0
   11.4929  -19.3692   26.5606 O   0  0  0  0  0  0  0  0  0  0  0  0
   12.4872  -18.3846   20.0907 O   0  0  0  0  0  0  0  0  0  0  0  0
   11.4061  -17.1248   27.0782 O   0  0  0  0  0  0  0  0  0  0  0  0
  2  1  1  6
  3  4  1  0
  3  2  1  0
  4  5  2  0
  5  6  1  0
  7  6  1  0
  8  4  1  0
  8  7  2  0
  9  2  1  0
  9 18  1  0
 10  9  2  0
 12 11  1  0
 13 12  2  0
 14 13  1  0
 15 14  2  0
 15 21  1  0
 17 16  1  1
 16 15  1  0
 17 18  1  0
 19 17  1  0
 20 19  2  0
 21 22  2  0
 22 12  1  0
 23 19  1  0
 24 23  1  0
 24 29  1  0
 25 26  1  0
 24 25  1  6
 26 27  1  0
 27 28  2  0
 29 32  1  0
 30 29  2  0
 31 27  1  0
M  END
$$$$
