HYE.pdb
     RDKit          3D

 32 33  0  0  1  0  0  0  0  0999 V2000
    8.0355  -16.1803   18.8585 N   0  0  0  0  0  0  0  0  0  0  0  0
    9.0196  -15.0954   18.9941 C   0  0  1  0  0  0  0  0  0  0  0  0
    8.4538  -13.9472   18.1658 C   0  0  0  0  0  0  0  0  0  0  0  0
    8.4411  -14.4207   16.7571 C   0  0  0  0  0  0  0  0  0  0  0  0
    8.8948  -15.6094   16.2225 C   0  0  0  0  0  0  0  0  0  0  0  0
    8.7018  -15.6317   14.8928 N   0  0  0  0  0  0  0  0  0  0  0  0
    8.1161  -14.4464   14.5553 C   0  0  0  0  0  0  0  0  0  0  0  0
    7.9696  -13.7376   15.6840 N   0  0  0  0  0  0  0  0  0  0  0  0
    9.1523  -14.7079   20.4181 C   0  0  0  0  0  0  0  0  0  0  0  0
   10.2712  -14.3660   20.8539 O   0  0  0  0  0  0  0  0  0  0  0  0
    7.4278  -13.2952   28.8810 O   0  0  0  0  0  0  0  0  0  0  0  0
    7.3270  -13.3814   27.5016 C   0  0  0  0  0  0  0  0  0  0  0  0
    6.6609  -14.4773   26.9774 C   0  0  0  0  0  0  0  0  0  0  0  0
    6.5702  -14.5458   25.5778 C   0  0  0  0  0  0  0  0  0  0  0  0
    7.1088  -13.5833   24.7556 C   0  0  0  0  0  0  0  0  0  0  0  0
    6.9697  -13.7217   23.2733 C   0  0  0  0  0  0  0  0  0  0  0  0
    8.1188  -14.5380   22.7098 C   0  0  2  0  0  0  0  0  0  0  0  0
    8.0250  -14.7181   21.2957 N   0  0  0  0  0  0  0  0  0  0  0  0
    8.3116  -15.7899   23.4787 C   0  0  0  0  0  0  0  0  0  0  0  0
    7.5446  -16.7853   23.2421 O   0  0  0  0  0  0  0  0  0  0  0  0
    7.7741  -12.4909   25.3080 C   0  0  0  0  0  0  0  0  0  0  0  0
    7.8664  -12.4181   26.6741 C   0  0  0  0  0  0  0  0  0  0  0  0
    9.3277  -15.8691   24.4520 N   0  0  0  0  0  0  0  0  0  0  0  0
    9.5775  -17.1664   25.1073 C   0  0  1  0  0  0  0  0  0  0  0  0
   10.1907  -18.0946   24.1350 C   0  0  0  0  0  0  0  0  0  0  0  0
   11.5384  -17.7401   23.6493 C   0  0  0  0  0  0  0  0  0  0  0  0
   12.1520  -18.6045   22.6409 C   0  0  0  0  0  0  0  0  0  0  0  0
   13.2670  -18.3014   22.1510 O   0  0  0  0  0  0  0  0  0  0  0  0
   10.3447  -16.8941   26.2980 C   0  0  0  0  0  0  0  0  0  0  0  0
   10.8713  -15.7602   26.5339 O   0  0  0  0  0  0  0  0  0  0  0  0
   11.5591  -19.7850   22.1794 O   0  0  0  0  0  0  0  0  0  0  0  0
   10.5258  -17.9235   27.2506 O   0  0  0  0  0  0  0  0  0  0  0  0
  2  1  1  1
  3  4  1  0
  3  2  1  0
  4  5  2  0
  5  6  1  0
  7  6  1  0
  8  4  1  0
  8  7  2  0
  9  2  1  0
  9 18  1  0
 10  9  2  0
 12 11  1  0
 13 12  2  0
 14 13  1  0
 15 14  2  0
 15 21  1  0
 17 16  1  1
 16 15  1  0
 17 18  1  0
 19 17  1  0
 20 19  2  0
 21 22  2  0
 22 12  1  0
 23 19  1  0
 24 23  1  0
 24 29  1  0
 25 26  1  0
 24 25  1  6
 26 27  1  0
 27 28  2  0
 29 32  1  0
 30 29  2  0
 31 27  1  0
M  END
$$$$
