HYE.pdb
     RDKit          3D

 32 33  0  0  1  0  0  0  0  0999 V2000
   11.3272  -13.9048   19.7807 N   0  0  0  0  0  0  0  0  0  0  0  0
   10.1410  -14.0921   20.6303 C   0  0  1  0  0  0  0  0  0  0  0  0
    9.3133  -15.1566   19.9187 C   0  0  0  0  0  0  0  0  0  0  0  0
    8.5462  -14.4461   18.8624 C   0  0  0  0  0  0  0  0  0  0  0  0
    8.6168  -13.1290   18.4567 C   0  0  0  0  0  0  0  0  0  0  0  0
    7.7356  -12.8923   17.4701 N   0  0  0  0  0  0  0  0  0  0  0  0
    7.0833  -14.0661   17.2285 C   0  0  0  0  0  0  0  0  0  0  0  0
    7.5826  -14.9815   18.0716 N   0  0  0  0  0  0  0  0  0  0  0  0
   10.5515  -14.5515   21.9779 C   0  0  0  0  0  0  0  0  0  0  0  0
   11.6906  -15.0380   22.1341 O   0  0  0  0  0  0  0  0  0  0  0  0
   10.6126  -15.7000   30.6755 O   0  0  0  0  0  0  0  0  0  0  0  0
   10.2330  -15.3277   29.3958 C   0  0  0  0  0  0  0  0  0  0  0  0
    9.4943  -16.2388   28.6585 C   0  0  0  0  0  0  0  0  0  0  0  0
    9.1200  -15.8423   27.3646 C   0  0  0  0  0  0  0  0  0  0  0  0
    9.4607  -14.6165   26.8411 C   0  0  0  0  0  0  0  0  0  0  0  0
    9.0235  -14.2621   25.4558 C   0  0  0  0  0  0  0  0  0  0  0  0
   10.0588  -14.7177   24.4434 C   0  0  2  0  0  0  0  0  0  0  0  0
    9.6688  -14.4455   23.0962 N   0  0  0  0  0  0  0  0  0  0  0  0
   10.4704  -16.1188   24.6944 C   0  0  0  0  0  0  0  0  0  0  0  0
   10.9657  -16.4232   25.8334 O   0  0  0  0  0  0  0  0  0  0  0  0
   10.2045  -13.7183   27.6032 C   0  0  0  0  0  0  0  0  0  0  0  0
   10.5733  -14.0994   28.8676 C   0  0  0  0  0  0  0  0  0  0  0  0
   10.3131  -17.0904   23.6859 N   0  0  0  0  0  0  0  0  0  0  0  0
   10.7451  -18.4727   23.9643 C   0  0  1  0  0  0  0  0  0  0  0  0
   10.3978  -19.3337   22.8149 C   0  0  0  0  0  0  0  0  0  0  0  0
   11.1768  -19.1242   21.5791 C   0  0  0  0  0  0  0  0  0  0  0  0
   10.9085  -20.0062   20.4430 C   0  0  0  0  0  0  0  0  0  0  0  0
   11.5519  -19.8645   19.3747 O   0  0  0  0  0  0  0  0  0  0  0  0
   12.1429  -18.4128   24.3150 C   0  0  0  0  0  0  0  0  0  0  0  0
   12.8346  -17.3503   24.2100 O   0  0  0  0  0  0  0  0  0  0  0  0
    9.9562  -21.0309   20.4758 O   0  0  0  0  0  0  0  0  0  0  0  0
   12.7821  -19.5785   24.7973 O   0  0  0  0  0  0  0  0  0  0  0  0
  2  1  1  6
  3  4  1  0
  3  2  1  0
  4  5  2  0
  5  6  1  0
  7  6  1  0
  8  4  1  0
  8  7  2  0
  9  2  1  0
  9 18  1  0
 10  9  2  0
 12 11  1  0
 13 12  2  0
 14 13  1  0
 15 14  2  0
 15 21  1  0
 17 16  1  1
 16 15  1  0
 17 18  1  0
 19 17  1  0
 20 19  2  0
 21 22  2  0
 22 12  1  0
 23 19  1  0
 24 23  1  0
 24 29  1  0
 25 26  1  0
 24 25  1  6
 26 27  1  0
 27 28  2  0
 29 32  1  0
 30 29  2  0
 31 27  1  0
M  END
$$$$
