APF.pdb
     RDKit          3D

 24 25  0  0  1  0  0  0  0  0999 V2000
   26.8477  -16.6784  -13.3758 C   0  0  0  0  0  0  0  0  0  0  0  0
   26.0232  -17.6846  -14.1903 C   0  0  2  0  0  0  0  0  0  0  0  0
   24.8098  -17.0259  -14.5475 N   0  0  0  0  0  0  0  0  0  0  0  0
   25.8777  -18.9270  -13.4234 C   0  0  0  0  0  0  0  0  0  0  0  0
   24.7805  -19.0487  -12.7775 O   0  0  0  0  0  0  0  0  0  0  0  0
   26.8336  -19.9750  -13.3443 N   0  0  0  0  0  0  0  0  0  0  0  0
   28.1081  -19.9755  -13.9839 C   0  0  0  0  0  0  0  0  0  0  0  0
   28.6434  -21.3700  -13.8158 C   0  0  0  0  0  0  0  0  0  0  0  0
   27.4479  -22.2026  -13.3546 C   0  0  0  0  0  0  0  0  0  0  0  0
   26.6465  -21.1871  -12.6046 C   0  0  1  0  0  0  0  0  0  0  0  0
   27.0826  -21.0496  -11.1898 C   0  0  0  0  0  0  0  0  0  0  0  0
   28.2935  -21.1089  -10.9382 O   0  0  0  0  0  0  0  0  0  0  0  0
   26.1358  -20.8584  -10.1752 N   0  0  0  0  0  0  0  0  0  0  0  0
   26.4523  -20.9468   -8.7632 C   0  0  1  0  0  0  0  0  0  0  0  0
   27.4805  -19.8727   -8.5010 C   0  0  0  0  0  0  0  0  0  0  0  0
   27.8617  -19.7346   -7.0830 C   0  0  0  0  0  0  0  0  0  0  0  0
   27.7608  -18.5158   -6.4583 C   0  0  0  0  0  0  0  0  0  0  0  0
   28.1065  -18.3405   -5.1233 C   0  0  0  0  0  0  0  0  0  0  0  0
   28.5687  -19.3981   -4.3704 C   0  0  0  0  0  0  0  0  0  0  0  0
   28.6739  -20.6265   -4.9884 C   0  0  0  0  0  0  0  0  0  0  0  0
   28.3249  -20.7958   -6.3302 C   0  0  0  0  0  0  0  0  0  0  0  0
   25.1967  -20.7629   -8.0005 C   0  0  0  0  0  0  0  0  0  0  0  0
   25.0328  -21.3368   -6.7224 O   0  0  0  0  0  0  0  0  0  0  0  0
   24.2700  -20.0831   -8.5111 O   0  0  0  0  0  0  0  0  0  0  0  0
  2  1  1  1
  2  4  1  0
  2  3  1  0
  4  5  2  0
  6 10  1  0
  6  4  1  0
  7  6  1  0
  8  7  1  0
  8  9  1  0
  9 10  1  0
 10 11  1  1
 11 12  2  0
 11 13  1  0
 13 14  1  0
 14 22  1  0
 14 15  1  1
 16 15  1  0
 16 21  1  0
 17 16  2  0
 18 17  1  0
 18 19  2  0
 19 20  1  0
 20 21  2  0
 22 24  2  0
 22 23  1  0
M  END
$$$$
