APF.pdb
     RDKit          3D

 24 25  0  0  1  0  0  0  0  0999 V2000
   40.2719   -9.0259  -11.6588 C   0  0  0  0  0  0  0  0  0  0  0  0
   38.8583   -9.4754  -11.2648 C   0  0  2  0  0  0  0  0  0  0  0  0
   38.0184   -9.2174  -12.3881 N   0  0  0  0  0  0  0  0  0  0  0  0
   38.4721   -8.8194  -10.0103 C   0  0  0  0  0  0  0  0  0  0  0  0
   37.7088   -7.8008  -10.1353 O   0  0  0  0  0  0  0  0  0  0  0  0
   38.8693   -9.2160   -8.7053 N   0  0  0  0  0  0  0  0  0  0  0  0
   39.7272  -10.3149   -8.4051 C   0  0  0  0  0  0  0  0  0  0  0  0
   39.6556  -10.4871   -6.9136 C   0  0  0  0  0  0  0  0  0  0  0  0
   38.4572   -9.6477   -6.4729 C   0  0  0  0  0  0  0  0  0  0  0  0
   38.4582   -8.5608   -7.4999 C   0  0  1  0  0  0  0  0  0  0  0  0
   39.3635   -7.4377   -7.1393 C   0  0  0  0  0  0  0  0  0  0  0  0
   40.5400   -7.4831   -7.5227 O   0  0  0  0  0  0  0  0  0  0  0  0
   38.8843   -6.3603   -6.3831 N   0  0  0  0  0  0  0  0  0  0  0  0
   39.6592   -5.1631   -6.1220 C   0  0  1  0  0  0  0  0  0  0  0  0
   39.7732   -4.4464   -7.4459 C   0  0  0  0  0  0  0  0  0  0  0  0
   38.5165   -3.8283   -7.9084 C   0  0  0  0  0  0  0  0  0  0  0  0
   37.6905   -4.5086   -8.7691 C   0  0  0  0  0  0  0  0  0  0  0  0
   36.4960   -3.9658   -9.2284 C   0  0  0  0  0  0  0  0  0  0  0  0
   36.0940   -2.7092   -8.8305 C   0  0  0  0  0  0  0  0  0  0  0  0
   36.9165   -2.0175   -7.9662 C   0  0  0  0  0  0  0  0  0  0  0  0
   38.1155   -2.5687   -7.5085 C   0  0  0  0  0  0  0  0  0  0  0  0
   38.9534   -4.3789   -5.0832 C   0  0  0  0  0  0  0  0  0  0  0  0
   37.6808   -4.7702   -4.6174 O   0  0  0  0  0  0  0  0  0  0  0  0
   39.5076   -3.3503   -4.6177 O   0  0  0  0  0  0  0  0  0  0  0  0
  2  1  1  6
  2  4  1  0
  2  3  1  0
  4  5  2  0
  6 10  1  0
  6  4  1  0
  7  6  1  0
  8  7  1  0
  8  9  1  0
  9 10  1  0
 10 11  1  1
 11 12  2  0
 11 13  1  0
 13 14  1  0
 14 22  1  0
 14 15  1  6
 16 15  1  0
 16 21  1  0
 17 16  2  0
 18 17  1  0
 18 19  2  0
 19 20  1  0
 20 21  2  0
 22 24  2  0
 22 23  1  0
M  END
$$$$
