APF.pdb
     RDKit          3D

 24 25  0  0  1  0  0  0  0  0999 V2000
   15.5177  -22.2456   -1.7646 C   0  0  0  0  0  0  0  0  0  0  0  0
   14.2662  -22.6697   -0.9837 C   0  0  2  0  0  0  0  0  0  0  0  0
   13.1414  -22.2637   -1.7607 N   0  0  0  0  0  0  0  0  0  0  0  0
   14.3360  -22.1264    0.3776 C   0  0  0  0  0  0  0  0  0  0  0  0
   13.7356  -21.0112    0.5556 O   0  0  0  0  0  0  0  0  0  0  0  0
   15.0000  -22.7255    1.4815 N   0  0  0  0  0  0  0  0  0  0  0  0
   15.6400  -23.9996    1.4634 C   0  0  0  0  0  0  0  0  0  0  0  0
   15.9732  -24.3043    2.8971 C   0  0  0  0  0  0  0  0  0  0  0  0
   15.1764  -23.2893    3.7155 C   0  0  0  0  0  0  0  0  0  0  0  0
   15.1183  -22.1265    2.7771 C   0  0  1  0  0  0  0  0  0  0  0  0
   16.3165  -21.2520    2.8795 C   0  0  0  0  0  0  0  0  0  0  0  0
   17.1710  -21.3166    1.9858 O   0  0  0  0  0  0  0  0  0  0  0  0
   16.4629  -20.3806    3.9664 N   0  0  0  0  0  0  0  0  0  0  0  0
   17.2128  -19.1416    3.8988 C   0  0  1  0  0  0  0  0  0  0  0  0
   16.4995  -18.2805    2.8842 C   0  0  0  0  0  0  0  0  0  0  0  0
   17.0726  -16.9305    2.7282 C   0  0  0  0  0  0  0  0  0  0  0  0
   18.2034  -16.7457    1.9711 C   0  0  0  0  0  0  0  0  0  0  0  0
   18.7761  -15.4914    1.7949 C   0  0  0  0  0  0  0  0  0  0  0  0
   18.2214  -14.3748    2.3819 C   0  0  0  0  0  0  0  0  0  0  0  0
   17.0856  -14.5495    3.1444 C   0  0  0  0  0  0  0  0  0  0  0  0
   16.5152  -15.8127    3.3173 C   0  0  0  0  0  0  0  0  0  0  0  0
   17.2458  -18.5521    5.2567 C   0  0  0  0  0  0  0  0  0  0  0  0
   18.3956  -17.8874    5.7319 O   0  0  0  0  0  0  0  0  0  0  0  0
   16.2271  -18.6528    5.9873 O   0  0  0  0  0  0  0  0  0  0  0  0
  2  1  1  6
  2  4  1  0
  2  3  1  0
  4  5  2  0
  6 10  1  0
  6  4  1  0
  7  6  1  0
  8  7  1  0
  8  9  1  0
  9 10  1  0
 10 11  1  6
 11 12  2  0
 11 13  1  0
 13 14  1  0
 14 22  1  0
 14 15  1  6
 16 15  1  0
 16 21  1  0
 17 16  2  0
 18 17  1  0
 18 19  2  0
 19 20  1  0
 20 21  2  0
 22 24  2  0
 22 23  1  0
M  END
$$$$
