APF.pdb
     RDKit          3D

 24 25  0  0  1  0  0  0  0  0999 V2000
   24.7277  -16.9471  -15.2511 C   0  0  0  0  0  0  0  0  0  0  0  0
   25.5406  -17.6715  -16.3328 C   0  0  2  0  0  0  0  0  0  0  0  0
   24.8335  -17.5012  -17.5595 N   0  0  0  0  0  0  0  0  0  0  0  0
   25.7774  -19.0581  -15.9153 C   0  0  0  0  0  0  0  0  0  0  0  0
   24.9223  -19.9118  -16.3348 O   0  0  0  0  0  0  0  0  0  0  0  0
   26.8514  -19.5130  -15.1043 N   0  0  0  0  0  0  0  0  0  0  0  0
   27.6870  -18.6801  -14.3032 C   0  0  0  0  0  0  0  0  0  0  0  0
   28.8092  -19.5643  -13.8361 C   0  0  0  0  0  0  0  0  0  0  0  0
   28.7153  -20.8188  -14.7036 C   0  0  0  0  0  0  0  0  0  0  0  0
   27.2470  -20.8838  -14.9791 C   0  0  1  0  0  0  0  0  0  0  0  0
   26.4964  -21.5845  -13.9037 C   0  0  0  0  0  0  0  0  0  0  0  0
   26.7075  -22.7919  -13.7287 O   0  0  0  0  0  0  0  0  0  0  0  0
   25.5750  -20.8837  -13.1149 N   0  0  0  0  0  0  0  0  0  0  0  0
   25.0702  -21.3794  -11.8495 C   0  0  1  0  0  0  0  0  0  0  0  0
   26.2712  -21.4978  -10.9421 C   0  0  0  0  0  0  0  0  0  0  0  0
   26.1288  -20.7899   -9.6560 C   0  0  0  0  0  0  0  0  0  0  0  0
   26.5510  -19.4887   -9.5358 C   0  0  0  0  0  0  0  0  0  0  0  0
   26.4339  -18.7826   -8.3440 C   0  0  0  0  0  0  0  0  0  0  0  0
   25.8827  -19.3720   -7.2270 C   0  0  0  0  0  0  0  0  0  0  0  0
   25.4556  -20.6787   -7.3372 C   0  0  0  0  0  0  0  0  0  0  0  0
   25.5761  -21.3825   -8.5377 C   0  0  0  0  0  0  0  0  0  0  0  0
   24.0495  -20.4256  -11.3589 C   0  0  0  0  0  0  0  0  0  0  0  0
   23.9844  -19.1094  -11.8619 O   0  0  0  0  0  0  0  0  0  0  0  0
   23.2346  -20.8070  -10.4801 O   0  0  0  0  0  0  0  0  0  0  0  0
  2  1  1  1
  2  4  1  0
  2  3  1  0
  4  5  2  0
  6 10  1  0
  6  4  1  0
  7  6  1  0
  8  7  1  0
  8  9  1  0
  9 10  1  0
 10 11  1  1
 11 12  2  0
 11 13  1  0
 13 14  1  0
 14 22  1  0
 14 15  1  1
 16 15  1  0
 16 21  1  0
 17 16  2  0
 18 17  1  0
 18 19  2  0
 19 20  1  0
 20 21  2  0
 22 24  2  0
 22 23  1  0
M  END
$$$$
