APF.pdb
     RDKit          3D

 24 25  0  0  1  0  0  0  0  0999 V2000
   22.4128  -18.5603  -13.6699 C   0  0  0  0  0  0  0  0  0  0  0  0
   22.6575  -20.0617  -13.8743 C   0  0  2  0  0  0  0  0  0  0  0  0
   21.3752  -20.6709  -14.0102 N   0  0  0  0  0  0  0  0  0  0  0  0
   23.4974  -20.5697  -12.7836 C   0  0  0  0  0  0  0  0  0  0  0  0
   22.8765  -20.8714  -11.7068 O   0  0  0  0  0  0  0  0  0  0  0  0
   24.9062  -20.7470  -12.8292 N   0  0  0  0  0  0  0  0  0  0  0  0
   25.7542  -20.3241  -13.8948 C   0  0  0  0  0  0  0  0  0  0  0  0
   27.0959  -20.9398  -13.6115 C   0  0  0  0  0  0  0  0  0  0  0  0
   26.8332  -21.9867  -12.5298 C   0  0  0  0  0  0  0  0  0  0  0  0
   25.6758  -21.3817  -11.8014 C   0  0  1  0  0  0  0  0  0  0  0  0
   26.1039  -20.4199  -10.7513 C   0  0  0  0  0  0  0  0  0  0  0  0
   26.3812  -19.2620  -11.0909 O   0  0  0  0  0  0  0  0  0  0  0  0
   26.1875  -20.8272   -9.4137 N   0  0  0  0  0  0  0  0  0  0  0  0
   27.0469  -20.1860   -8.4379 C   0  0  1  0  0  0  0  0  0  0  0  0
   26.5814  -20.6785   -7.0887 C   0  0  0  0  0  0  0  0  0  0  0  0
   27.4192  -20.2312   -5.9603 C   0  0  0  0  0  0  0  0  0  0  0  0
   27.2057  -19.0007   -5.3895 C   0  0  0  0  0  0  0  0  0  0  0  0
   27.9693  -18.5398   -4.3232 C   0  0  0  0  0  0  0  0  0  0  0  0
   28.9808  -19.3125   -3.7950 C   0  0  0  0  0  0  0  0  0  0  0  0
   29.2036  -20.5501   -4.3613 C   0  0  0  0  0  0  0  0  0  0  0  0
   28.4326  -21.0071   -5.4325 C   0  0  0  0  0  0  0  0  0  0  0  0
   28.4470  -20.5521   -8.7507 C   0  0  0  0  0  0  0  0  0  0  0  0
   29.4958  -19.6245   -8.5791 O   0  0  0  0  0  0  0  0  0  0  0  0
   28.6914  -21.7104   -9.1755 O   0  0  0  0  0  0  0  0  0  0  0  0
  2  1  1  1
  2  4  1  0
  2  3  1  0
  4  5  2  0
  6 10  1  0
  6  4  1  0
  7  6  1  0
  8  7  1  0
  8  9  1  0
  9 10  1  0
 10 11  1  1
 11 12  2  0
 11 13  1  0
 13 14  1  0
 14 22  1  0
 14 15  1  1
 16 15  1  0
 16 21  1  0
 17 16  2  0
 18 17  1  0
 18 19  2  0
 19 20  1  0
 20 21  2  0
 22 24  2  0
 22 23  1  0
M  END
$$$$
