APF.pdb
     RDKit          3D

 24 25  0  0  1  0  0  0  0  0999 V2000
   29.1567  -18.7104  -14.2444 C   0  0  0  0  0  0  0  0  0  0  0  0
   27.6677  -18.7607  -14.6131 C   0  0  2  0  0  0  0  0  0  0  0  0
   27.3546  -17.5112  -15.2250 N   0  0  0  0  0  0  0  0  0  0  0  0
   26.8838  -19.1066  -13.4219 C   0  0  0  0  0  0  0  0  0  0  0  0
   26.6202  -18.1327  -12.6359 O   0  0  0  0  0  0  0  0  0  0  0  0
   26.4091  -20.4020  -13.0832 N   0  0  0  0  0  0  0  0  0  0  0  0
   26.6883  -21.5963  -13.8106 C   0  0  0  0  0  0  0  0  0  0  0  0
   25.7851  -22.6457  -13.2254 C   0  0  0  0  0  0  0  0  0  0  0  0
   24.7703  -21.8733  -12.3836 C   0  0  0  0  0  0  0  0  0  0  0  0
   25.5762  -20.6892  -11.9540 C   0  0  1  0  0  0  0  0  0  0  0  0
   26.3729  -20.9575  -10.7276 C   0  0  0  0  0  0  0  0  0  0  0  0
   27.4111  -21.6238  -10.8337 O   0  0  0  0  0  0  0  0  0  0  0  0
   25.9477  -20.4627   -9.4880 N   0  0  0  0  0  0  0  0  0  0  0  0
   26.6270  -20.7505   -8.2399 C   0  0  1  0  0  0  0  0  0  0  0  0
   27.4451  -19.5223   -7.9207 C   0  0  0  0  0  0  0  0  0  0  0  0
   28.0511  -19.5328   -6.5761 C   0  0  0  0  0  0  0  0  0  0  0  0
   29.0754  -20.4013   -6.2892 C   0  0  0  0  0  0  0  0  0  0  0  0
   29.6774  -20.4438   -5.0368 C   0  0  0  0  0  0  0  0  0  0  0  0
   29.2612  -19.6043   -4.0263 C   0  0  0  0  0  0  0  0  0  0  0  0
   28.2330  -18.7282   -4.3041 C   0  0  0  0  0  0  0  0  0  0  0  0
   27.6326  -18.6907   -5.5646 C   0  0  0  0  0  0  0  0  0  0  0  0
   25.5988  -21.0582   -7.2198 C   0  0  0  0  0  0  0  0  0  0  0  0
   24.3052  -20.5018   -7.3018 O   0  0  0  0  0  0  0  0  0  0  0  0
   25.8962  -21.8283   -6.2710 O   0  0  0  0  0  0  0  0  0  0  0  0
  2  1  1  1
  2  4  1  0
  2  3  1  0
  4  5  2  0
  6 10  1  0
  6  4  1  0
  7  6  1  0
  8  7  1  0
  8  9  1  0
  9 10  1  0
 10 11  1  1
 11 12  2  0
 11 13  1  0
 13 14  1  0
 14 22  1  0
 14 15  1  1
 16 15  1  0
 16 21  1  0
 17 16  2  0
 18 17  1  0
 18 19  2  0
 19 20  1  0
 20 21  2  0
 22 24  2  0
 22 23  1  0
M  END
$$$$
