APF.pdb
     RDKit          3D

 24 25  0  0  1  0  0  0  0  0999 V2000
   26.8652  -16.5069  -13.7685 C   0  0  0  0  0  0  0  0  0  0  0  0
   26.1856  -17.6859  -14.4781 C   0  0  2  0  0  0  0  0  0  0  0  0
   25.0071  -17.1697  -15.0933 N   0  0  0  0  0  0  0  0  0  0  0  0
   25.9838  -18.7786  -13.5198 C   0  0  0  0  0  0  0  0  0  0  0  0
   24.9415  -18.6795  -12.7851 O   0  0  0  0  0  0  0  0  0  0  0  0
   26.8320  -19.9053  -13.3489 N   0  0  0  0  0  0  0  0  0  0  0  0
   28.0727  -20.1101  -14.0214 C   0  0  0  0  0  0  0  0  0  0  0  0
   28.4717  -21.5255  -13.7100 C   0  0  0  0  0  0  0  0  0  0  0  0
   27.2186  -22.1721  -13.1213 C   0  0  0  0  0  0  0  0  0  0  0  0
   26.5546  -21.0014  -12.4697 C   0  0  1  0  0  0  0  0  0  0  0  0
   27.0600  -20.7537  -11.0934 C   0  0  0  0  0  0  0  0  0  0  0  0
   28.2652  -20.5131  -10.9429 O   0  0  0  0  0  0  0  0  0  0  0  0
   26.1830  -20.7948  -10.0019 N   0  0  0  0  0  0  0  0  0  0  0  0
   26.6243  -20.9641   -8.6314 C   0  0  1  0  0  0  0  0  0  0  0  0
   27.5042  -19.7749   -8.3294 C   0  0  0  0  0  0  0  0  0  0  0  0
   27.9907  -19.7212   -6.9382 C   0  0  0  0  0  0  0  0  0  0  0  0
   27.5411  -18.7401   -6.0889 C   0  0  0  0  0  0  0  0  0  0  0  0
   27.9706  -18.6531   -4.7696 C   0  0  0  0  0  0  0  0  0  0  0  0
   28.8748  -19.5605   -4.2616 C   0  0  0  0  0  0  0  0  0  0  0  0
   29.3326  -20.5497   -5.1065 C   0  0  0  0  0  0  0  0  0  0  0  0
   28.8969  -20.6316   -6.4310 C   0  0  0  0  0  0  0  0  0  0  0  0
   25.4224  -21.0449   -7.7704 C   0  0  0  0  0  0  0  0  0  0  0  0
   25.4683  -21.6932   -6.5185 O   0  0  0  0  0  0  0  0  0  0  0  0
   24.3509  -20.5240   -8.1731 O   0  0  0  0  0  0  0  0  0  0  0  0
  2  1  1  1
  2  4  1  0
  2  3  1  0
  4  5  2  0
  6 10  1  0
  6  4  1  0
  7  6  1  0
  8  7  1  0
  8  9  1  0
  9 10  1  0
 10 11  1  1
 11 12  2  0
 11 13  1  0
 13 14  1  0
 14 22  1  0
 14 15  1  1
 16 15  1  0
 16 21  1  0
 17 16  2  0
 18 17  1  0
 18 19  2  0
 19 20  1  0
 20 21  2  0
 22 24  2  0
 22 23  1  0
M  END
$$$$
