APF.pdb
     RDKit          3D

 24 25  0  0  1  0  0  0  0  0999 V2000
   15.7756  -10.6573  -16.1701 C   0  0  0  0  0  0  0  0  0  0  0  0
   16.8912  -11.1084  -17.1227 C   0  0  2  0  0  0  0  0  0  0  0  0
   17.1446  -12.4821  -16.8354 N   0  0  0  0  0  0  0  0  0  0  0  0
   18.0381  -10.2027  -16.9909 C   0  0  0  0  0  0  0  0  0  0  0  0
   19.0248  -10.6599  -16.3177 O   0  0  0  0  0  0  0  0  0  0  0  0
   18.1348   -8.8948  -17.5370 N   0  0  0  0  0  0  0  0  0  0  0  0
   17.1188   -8.2437  -18.2968 C   0  0  0  0  0  0  0  0  0  0  0  0
   17.7631   -7.0055  -18.8548 C   0  0  0  0  0  0  0  0  0  0  0  0
   19.2624   -7.2041  -18.6369 C   0  0  0  0  0  0  0  0  0  0  0  0
   19.2773   -8.0423  -17.3986 C   0  0  1  0  0  0  0  0  0  0  0  0
   19.2163   -7.2255  -16.1576 C   0  0  0  0  0  0  0  0  0  0  0  0
   18.1040   -6.9314  -15.7001 O   0  0  0  0  0  0  0  0  0  0  0  0
   20.3966   -6.8051  -15.5312 N   0  0  0  0  0  0  0  0  0  0  0  0
   20.4184   -6.0932  -14.2684 C   0  0  1  0  0  0  0  0  0  0  0  0
   21.5103   -6.7373  -13.4484 C   0  0  0  0  0  0  0  0  0  0  0  0
   22.7281   -7.0633  -14.2138 C   0  0  0  0  0  0  0  0  0  0  0  0
   23.0752   -8.3743  -14.4301 C   0  0  0  0  0  0  0  0  0  0  0  0
   24.2122   -8.7274  -15.1477 C   0  0  0  0  0  0  0  0  0  0  0  0
   25.0417   -7.7609  -15.6740 C   0  0  0  0  0  0  0  0  0  0  0  0
   24.7021   -6.4411  -15.4623 C   0  0  0  0  0  0  0  0  0  0  0  0
   23.5581   -6.0932  -14.7403 C   0  0  0  0  0  0  0  0  0  0  0  0
   20.6601   -4.6608  -14.5549 C   0  0  0  0  0  0  0  0  0  0  0  0
   21.0002   -4.2273  -15.8534 O   0  0  0  0  0  0  0  0  0  0  0  0
   20.5578   -3.8284  -13.6177 O   0  0  0  0  0  0  0  0  0  0  0  0
  2  1  1  1
  2  4  1  0
  2  3  1  0
  4  5  2  0
  6 10  1  0
  6  4  1  0
  7  6  1  0
  8  7  1  0
  8  9  1  0
  9 10  1  0
 10 11  1  1
 11 12  2  0
 11 13  1  0
 13 14  1  0
 14 22  1  0
 14 15  1  1
 16 15  1  0
 16 21  1  0
 17 16  2  0
 18 17  1  0
 18 19  2  0
 19 20  1  0
 20 21  2  0
 22 24  2  0
 22 23  1  0
M  END
$$$$
