DTI.pdb
     RDKit          3D

 24 23  0  0  1  0  0  0  0  0999 V2000
   17.5598  -15.2174  -18.1842 N   0  0  0  0  0  0  0  0  0  0  0  0
   17.1176  -13.9352  -17.6299 C   0  0  1  0  0  0  0  0  0  0  0  0
   16.6988  -14.0851  -16.2067 C   0  0  0  0  0  0  0  0  0  0  0  0
   15.6147  -15.0537  -15.9618 C   0  0  0  0  0  0  0  0  0  0  0  0
   15.0324  -15.5983  -16.9688 O   0  0  0  0  0  0  0  0  0  0  0  0
   18.1951  -12.9249  -17.7876 C   0  0  0  0  0  0  0  0  0  0  0  0
   19.3376  -13.3049  -18.0916 O   0  0  0  0  0  0  0  0  0  0  0  0
   15.1675  -15.4244  -14.7053 O   0  0  0  0  0  0  0  0  0  0  0  0
   17.8930   -9.6821  -19.8098 C   0  0  0  0  0  0  0  0  0  0  0  0
   18.5054   -9.2768  -18.4851 C   0  0  1  0  0  0  0  0  0  0  0  0
   17.4536   -8.7995  -17.6960 O   0  0  0  0  0  0  0  0  0  0  0  0
   19.0025  -10.5313  -17.8231 C   0  0  2  0  0  0  0  0  0  0  0  0
   18.0025  -11.5345  -17.6108 N   0  0  0  0  0  0  0  0  0  0  0  0
   19.6612  -10.1451  -16.5419 C   0  0  0  0  0  0  0  0  0  0  0  0
   19.0300  -10.3322  -15.4844 O   0  0  0  0  0  0  0  0  0  0  0  0
   24.4939  -11.8589  -15.2187 C   0  0  0  0  0  0  0  0  0  0  0  0
   23.1233  -11.2975  -15.3573 C   0  0  0  0  0  0  0  0  0  0  0  0
   22.9620   -9.8350  -15.1380 C   0  0  2  0  0  0  0  0  0  0  0  0
   23.6673   -9.4672  -13.8306 C   0  0  0  0  0  0  0  0  0  0  0  0
   21.6378   -9.2082  -15.2416 C   0  0  2  0  0  0  0  0  0  0  0  0
   20.9553   -9.5834  -16.4828 N   0  0  0  0  0  0  0  0  0  0  0  0
   21.5150   -7.7613  -15.0274 C   0  0  0  0  0  0  0  0  0  0  0  0
   21.5276   -6.8628  -15.8964 O   0  0  0  0  0  0  0  0  0  0  0  0
   21.3621   -7.2577  -13.7084 O   0  0  0  0  0  0  0  0  0  0  0  0
  2  1  1  1
  2  6  1  0
  3  2  1  0
  3  4  1  0
  4  5  2  0
  4  8  1  0
  6  7  2  0
 10  9  1  6
 10 12  1  0
 11 10  1  0
 12 14  1  0
 12 13  1  1
 13  6  1  0
 14 21  1  0
 15 14  2  0
 16 17  1  0
 18 19  1  1
 18 17  1  0
 20 21  1  6
 20 18  1  0
 22 20  1  0
 23 22  2  0
 24 22  1  0
M  END
$$$$
