DTI.pdb
     RDKit          3D

 24 23  0  0  1  0  0  0  0  0999 V2000
   19.3040  -15.6971  -18.9119 N   0  0  0  0  0  0  0  0  0  0  0  0
   18.7609  -14.8917  -17.8149 C   0  0  1  0  0  0  0  0  0  0  0  0
   19.0944  -15.4962  -16.4934 C   0  0  0  0  0  0  0  0  0  0  0  0
   18.5522  -16.8466  -16.2570 C   0  0  0  0  0  0  0  0  0  0  0  0
   17.8057  -17.3797  -17.1560 O   0  0  0  0  0  0  0  0  0  0  0  0
   19.2565  -13.4959  -17.9275 C   0  0  0  0  0  0  0  0  0  0  0  0
   20.2544  -13.2656  -18.6298 O   0  0  0  0  0  0  0  0  0  0  0  0
   18.7894  -17.5950  -15.1169 O   0  0  0  0  0  0  0  0  0  0  0  0
   17.2702  -10.4821  -18.9085 C   0  0  0  0  0  0  0  0  0  0  0  0
   17.9863  -10.0418  -17.6485 C   0  0  1  0  0  0  0  0  0  0  0  0
   17.0686  -10.1899  -16.6032 O   0  0  0  0  0  0  0  0  0  0  0  0
   19.0881  -11.0322  -17.3947 C   0  0  2  0  0  0  0  0  0  0  0  0
   18.6566  -12.3927  -17.2759 N   0  0  0  0  0  0  0  0  0  0  0  0
   19.8304  -10.5924  -16.1780 C   0  0  0  0  0  0  0  0  0  0  0  0
   19.4963  -11.0850  -15.0837 O   0  0  0  0  0  0  0  0  0  0  0  0
   25.3077  -10.4869  -14.1390 C   0  0  0  0  0  0  0  0  0  0  0  0
   24.0065   -9.7769  -14.0154 C   0  0  0  0  0  0  0  0  0  0  0  0
   23.0353   -9.9375  -15.1306 C   0  0  2  0  0  0  0  0  0  0  0  0
   23.7596   -9.6292  -16.4431 C   0  0  0  0  0  0  0  0  0  0  0  0
   21.7166   -9.2939  -15.0681 C   0  0  2  0  0  0  0  0  0  0  0  0
   20.8828   -9.6520  -16.2188 N   0  0  0  0  0  0  0  0  0  0  0  0
   21.6395   -7.8472  -14.8325 C   0  0  0  0  0  0  0  0  0  0  0  0
   22.0464   -7.2197  -13.8310 O   0  0  0  0  0  0  0  0  0  0  0  0
   21.0474   -7.0073  -15.8128 O   0  0  0  0  0  0  0  0  0  0  0  0
  2  1  1  6
  2  6  1  0
  3  2  1  0
  3  4  1  0
  4  5  2  0
  4  8  1  0
  6  7  2  0
 10  9  1  6
 10 12  1  0
 11 10  1  0
 12 14  1  0
 12 13  1  1
 13  6  1  0
 14 21  1  0
 15 14  2  0
 16 17  1  0
 18 19  1  6
 18 17  1  0
 20 21  1  6
 20 18  1  0
 22 20  1  0
 23 22  2  0
 24 22  1  0
M  END
$$$$
