DTI.pdb
     RDKit          3D

 24 23  0  0  1  0  0  0  0  0999 V2000
   20.9041  -18.1011  -17.6610 N   0  0  0  0  0  0  0  0  0  0  0  0
   20.3752  -18.2631  -16.3042 C   0  0  1  0  0  0  0  0  0  0  0  0
   18.9124  -18.5506  -16.3325 C   0  0  0  0  0  0  0  0  0  0  0  0
   18.0939  -17.6057  -17.1141 C   0  0  0  0  0  0  0  0  0  0  0  0
   18.6831  -16.6678  -17.7644 O   0  0  0  0  0  0  0  0  0  0  0  0
   21.1355  -19.3242  -15.5953 C   0  0  0  0  0  0  0  0  0  0  0  0
   20.6349  -19.8550  -14.5904 O   0  0  0  0  0  0  0  0  0  0  0  0
   16.7130  -17.6530  -17.1984 O   0  0  0  0  0  0  0  0  0  0  0  0
   22.4763  -22.5150  -17.0154 C   0  0  0  0  0  0  0  0  0  0  0  0
   23.6701  -21.8809  -16.3323 C   0  0  1  0  0  0  0  0  0  0  0  0
   24.3674  -21.1856  -17.3259 O   0  0  0  0  0  0  0  0  0  0  0  0
   23.1392  -20.8475  -15.3787 C   0  0  2  0  0  0  0  0  0  0  0  0
   22.4144  -19.7774  -15.9959 N   0  0  0  0  0  0  0  0  0  0  0  0
   24.2849  -20.3314  -14.5753 C   0  0  0  0  0  0  0  0  0  0  0  0
   24.6801  -19.1724  -14.8044 O   0  0  0  0  0  0  0  0  0  0  0  0
   24.7152  -20.9469   -9.1993 C   0  0  0  0  0  0  0  0  0  0  0  0
   24.7900  -20.5346  -10.6266 C   0  0  0  0  0  0  0  0  0  0  0  0
   25.9882  -20.9637  -11.3966 C   0  0  2  0  0  0  0  0  0  0  0  0
   27.2347  -20.5423  -10.6150 C   0  0  0  0  0  0  0  0  0  0  0  0
   26.1060  -20.6502  -12.8266 C   0  0  2  0  0  0  0  0  0  0  0  0
   24.9298  -21.0958  -13.5785 N   0  0  0  0  0  0  0  0  0  0  0  0
   27.3271  -21.0370  -13.5434 C   0  0  0  0  0  0  0  0  0  0  0  0
   28.4072  -20.4099  -13.5935 O   0  0  0  0  0  0  0  0  0  0  0  0
   27.3521  -22.2487  -14.2836 O   0  0  0  0  0  0  0  0  0  0  0  0
  2  1  1  6
  2  6  1  0
  3  2  1  0
  3  4  1  0
  4  5  2  0
  4  8  1  0
  6  7  2  0
 10  9  1  6
 10 12  1  0
 11 10  1  0
 12 14  1  0
 12 13  1  6
 13  6  1  0
 14 21  1  0
 15 14  2  0
 16 17  1  0
 18 19  1  1
 18 17  1  0
 20 21  1  6
 20 18  1  0
 22 20  1  0
 23 22  2  0
 24 22  1  0
M  END
$$$$
