DTI.pdb
     RDKit          3D

 24 23  0  0  1  0  0  0  0  0999 V2000
   16.0366  -14.6282  -17.4632 N   0  0  0  0  0  0  0  0  0  0  0  0
   16.5140  -13.9237  -16.2705 C   0  0  1  0  0  0  0  0  0  0  0  0
   17.0154  -14.8856  -15.2476 C   0  0  0  0  0  0  0  0  0  0  0  0
   15.9785  -15.6560  -14.5370 C   0  0  0  0  0  0  0  0  0  0  0  0
   16.3408  -16.4965  -13.6359 O   0  0  0  0  0  0  0  0  0  0  0  0
   17.5518  -12.9338  -16.6571 C   0  0  0  0  0  0  0  0  0  0  0  0
   18.4192  -13.2617  -17.4831 O   0  0  0  0  0  0  0  0  0  0  0  0
   14.6197  -15.5412  -14.7750 O   0  0  0  0  0  0  0  0  0  0  0  0
   17.2243   -9.8679  -18.4237 C   0  0  0  0  0  0  0  0  0  0  0  0
   17.9559   -9.4038  -17.1813 C   0  0  1  0  0  0  0  0  0  0  0  0
   16.9752   -8.9372  -16.2995 O   0  0  0  0  0  0  0  0  0  0  0  0
   18.5625  -10.6213  -16.5420 C   0  0  2  0  0  0  0  0  0  0  0  0
   17.6188  -11.6197  -16.1371 N   0  0  0  0  0  0  0  0  0  0  0  0
   19.3977  -10.1691  -15.3920 C   0  0  0  0  0  0  0  0  0  0  0  0
   18.8665  -10.1353  -14.2658 O   0  0  0  0  0  0  0  0  0  0  0  0
   25.2072  -10.3799  -15.5645 C   0  0  0  0  0  0  0  0  0  0  0  0
   23.8797   -9.7089  -15.5821 C   0  0  0  0  0  0  0  0  0  0  0  0
   22.9282  -10.0549  -14.4922 C   0  0  2  0  0  0  0  0  0  0  0  0
   22.8091  -11.5793  -14.4279 C   0  0  0  0  0  0  0  0  0  0  0  0
   21.6166   -9.3989  -14.4128 C   0  0  2  0  0  0  0  0  0  0  0  0
   20.7490   -9.7832  -15.5294 N   0  0  0  0  0  0  0  0  0  0  0  0
   21.5569   -7.9453  -14.2176 C   0  0  0  0  0  0  0  0  0  0  0  0
   21.9390   -7.2985  -13.2185 O   0  0  0  0  0  0  0  0  0  0  0  0
   21.0150   -7.1218  -15.2398 O   0  0  0  0  0  0  0  0  0  0  0  0
  2  1  1  6
  2  6  1  0
  3  2  1  0
  3  4  1  0
  4  5  2  0
  4  8  1  0
  6  7  2  0
 10  9  1  6
 10 12  1  0
 11 10  1  0
 12 14  1  0
 12 13  1  1
 13  6  1  0
 14 21  1  0
 15 14  2  0
 16 17  1  0
 18 19  1  6
 18 17  1  0
 20 21  1  6
 20 18  1  0
 22 20  1  0
 23 22  2  0
 24 22  1  0
M  END
$$$$
