DTI.pdb
     RDKit          3D

 24 23  0  0  1  0  0  0  0  0999 V2000
   16.5721  -15.2989  -17.6308 N   0  0  0  0  0  0  0  0  0  0  0  0
   15.7174  -14.1256  -17.4314 C   0  0  1  0  0  0  0  0  0  0  0  0
   14.6673  -14.3981  -16.4086 C   0  0  0  0  0  0  0  0  0  0  0  0
   13.8004  -15.5590  -16.6812 C   0  0  0  0  0  0  0  0  0  0  0  0
   13.0323  -15.5296  -17.7102 O   0  0  0  0  0  0  0  0  0  0  0  0
   16.5547  -12.9537  -17.0683 C   0  0  0  0  0  0  0  0  0  0  0  0
   17.6056  -13.1378  -16.4328 O   0  0  0  0  0  0  0  0  0  0  0  0
   13.7492  -16.6973  -15.8951 O   0  0  0  0  0  0  0  0  0  0  0  0
   17.6539  -10.1926  -19.3900 C   0  0  0  0  0  0  0  0  0  0  0  0
   17.1541   -9.4556  -18.1648 C   0  0  1  0  0  0  0  0  0  0  0  0
   15.8619   -9.0159  -18.4711 O   0  0  0  0  0  0  0  0  0  0  0  0
   17.0120  -10.4691  -17.0639 C   0  0  2  0  0  0  0  0  0  0  0  0
   16.2283  -11.6187  -17.4041 N   0  0  0  0  0  0  0  0  0  0  0  0
   16.4588   -9.7729  -15.8665 C   0  0  0  0  0  0  0  0  0  0  0  0
   15.2251   -9.8012  -15.6961 O   0  0  0  0  0  0  0  0  0  0  0  0
   16.4950   -9.6215  -10.0594 C   0  0  0  0  0  0  0  0  0  0  0  0
   16.4169   -8.6982  -11.2230 C   0  0  0  0  0  0  0  0  0  0  0  0
   16.8514   -9.2291  -12.5430 C   0  0  2  0  0  0  0  0  0  0  0  0
   18.2449   -9.8398  -12.3771 C   0  0  0  0  0  0  0  0  0  0  0  0
   16.7584   -8.3950  -13.7482 C   0  0  2  0  0  0  0  0  0  0  0  0
   17.2690   -9.0924  -14.9316 N   0  0  0  0  0  0  0  0  0  0  0  0
   17.2906   -7.0275  -13.7120 C   0  0  0  0  0  0  0  0  0  0  0  0
   16.7906   -6.0346  -13.1406 O   0  0  0  0  0  0  0  0  0  0  0  0
   18.5073   -6.7301  -14.3814 O   0  0  0  0  0  0  0  0  0  0  0  0
  2  1  1  1
  2  6  1  0
  3  2  1  0
  3  4  1  0
  4  5  2  0
  4  8  1  0
  6  7  2  0
 10  9  1  6
 10 12  1  0
 11 10  1  0
 12 14  1  0
 12 13  1  6
 13  6  1  0
 14 21  1  0
 15 14  2  0
 16 17  1  0
 18 19  1  1
 18 17  1  0
 20 21  1  6
 20 18  1  0
 22 20  1  0
 23 22  2  0
 24 22  1  0
M  END
$$$$
