DTI.pdb
     RDKit          3D

 24 23  0  0  1  0  0  0  0  0999 V2000
   16.3947  -12.4020  -14.8873 N   0  0  0  0  0  0  0  0  0  0  0  0
   15.8123  -11.0622  -14.7738 C   0  0  1  0  0  0  0  0  0  0  0  0
   14.3280  -11.1128  -14.9065 C   0  0  0  0  0  0  0  0  0  0  0  0
   13.8216  -11.5274  -16.2276 C   0  0  0  0  0  0  0  0  0  0  0  0
   13.5531  -12.7676  -16.4259 O   0  0  0  0  0  0  0  0  0  0  0  0
   16.2338  -10.4414  -13.4919 C   0  0  0  0  0  0  0  0  0  0  0  0
   16.2190  -11.1272  -12.4567 O   0  0  0  0  0  0  0  0  0  0  0  0
   13.6131  -10.6648  -17.2900 O   0  0  0  0  0  0  0  0  0  0  0  0
   19.4834   -8.7155  -12.8329 C   0  0  0  0  0  0  0  0  0  0  0  0
   18.4425   -7.7351  -12.3335 C   0  0  1  0  0  0  0  0  0  0  0  0
   18.2343   -6.8207  -13.3715 O   0  0  0  0  0  0  0  0  0  0  0  0
   17.1572   -8.4969  -12.1695 C   0  0  2  0  0  0  0  0  0  0  0  0
   16.6580   -9.0972  -13.3703 N   0  0  0  0  0  0  0  0  0  0  0  0
   16.1505   -7.5761  -11.5668 C   0  0  0  0  0  0  0  0  0  0  0  0
   15.3109   -7.0558  -12.3258 O   0  0  0  0  0  0  0  0  0  0  0  0
   12.3534   -6.9529   -6.9665 C   0  0  0  0  0  0  0  0  0  0  0  0
   13.2740   -6.2008   -7.8606 C   0  0  0  0  0  0  0  0  0  0  0  0
   14.2694   -6.9918   -8.6328 C   0  0  2  0  0  0  0  0  0  0  0  0
   15.0191   -7.9006   -7.6560 C   0  0  0  0  0  0  0  0  0  0  0  0
   15.1812   -6.3269   -9.5729 C   0  0  2  0  0  0  0  0  0  0  0  0
   16.1134   -7.2758  -10.1876 N   0  0  0  0  0  0  0  0  0  0  0  0
   15.9103   -5.1310   -9.1341 C   0  0  0  0  0  0  0  0  0  0  0  0
   15.4373   -3.9972   -8.9031 O   0  0  0  0  0  0  0  0  0  0  0  0
   17.3140   -5.2005   -8.9301 O   0  0  0  0  0  0  0  0  0  0  0  0
  2  1  1  1
  2  6  1  0
  3  2  1  0
  3  4  1  0
  4  5  2  0
  4  8  1  0
  6  7  2  0
 10  9  1  6
 10 12  1  0
 11 10  1  0
 12 14  1  0
 12 13  1  6
 13  6  1  0
 14 21  1  0
 15 14  2  0
 16 17  1  0
 18 19  1  1
 18 17  1  0
 20 21  1  1
 20 18  1  0
 22 20  1  0
 23 22  2  0
 24 22  1  0
M  END
$$$$
