DTI.pdb
     RDKit          3D

 24 23  0  0  1  0  0  0  0  0999 V2000
   21.4761  -24.1485  -17.0379 N   0  0  0  0  0  0  0  0  0  0  0  0
   20.2297  -23.8116  -16.3451 C   0  0  1  0  0  0  0  0  0  0  0  0
   19.0729  -24.5354  -16.9458 C   0  0  0  0  0  0  0  0  0  0  0  0
   18.7535  -24.1775  -18.3399 C   0  0  0  0  0  0  0  0  0  0  0  0
   19.5099  -23.3393  -18.9523 O   0  0  0  0  0  0  0  0  0  0  0  0
   20.3713  -24.0988  -14.8946 C   0  0  0  0  0  0  0  0  0  0  0  0
   21.0238  -25.0935  -14.5382 O   0  0  0  0  0  0  0  0  0  0  0  0
   17.6784  -24.6840  -19.0497 O   0  0  0  0  0  0  0  0  0  0  0  0
   21.4182  -21.5496  -12.2136 C   0  0  0  0  0  0  0  0  0  0  0  0
   20.1816  -22.2384  -11.6744 C   0  0  1  0  0  0  0  0  0  0  0  0
   19.1013  -21.4060  -11.9859 O   0  0  0  0  0  0  0  0  0  0  0  0
   19.9935  -23.5000  -12.4695 C   0  0  2  0  0  0  0  0  0  0  0  0
   19.8015  -23.3007  -13.8748 N   0  0  0  0  0  0  0  0  0  0  0  0
   18.8557  -24.2557  -11.8705 C   0  0  0  0  0  0  0  0  0  0  0  0
   17.7394  -24.1526  -12.4136 O   0  0  0  0  0  0  0  0  0  0  0  0
   19.5590  -29.3707   -9.9260 C   0  0  0  0  0  0  0  0  0  0  0  0
   19.1059  -28.0828  -10.5165 C   0  0  0  0  0  0  0  0  0  0  0  0
   18.3740  -27.1451   -9.6232 C   0  0  2  0  0  0  0  0  0  0  0  0
   17.2572  -27.9243   -8.9247 C   0  0  0  0  0  0  0  0  0  0  0  0
   17.9043  -25.8487  -10.1289 C   0  0  2  0  0  0  0  0  0  0  0  0
   18.9939  -25.0724  -10.7270 N   0  0  0  0  0  0  0  0  0  0  0  0
   17.1076  -24.9859   -9.2484 C   0  0  0  0  0  0  0  0  0  0  0  0
   17.5302  -24.1301   -8.4412 O   0  0  0  0  0  0  0  0  0  0  0  0
   15.6909  -25.0833   -9.2652 O   0  0  0  0  0  0  0  0  0  0  0  0
  2  1  1  6
  2  6  1  0
  3  2  1  0
  3  4  1  0
  4  5  2  0
  4  8  1  0
  6  7  2  0
 10  9  1  6
 10 12  1  0
 11 10  1  0
 12 14  1  0
 12 13  1  6
 13  6  1  0
 14 21  1  0
 15 14  2  0
 16 17  1  0
 18 19  1  6
 18 17  1  0
 20 21  1  1
 20 18  1  0
 22 20  1  0
 23 22  2  0
 24 22  1  0
M  END
$$$$
