DTI.pdb
     RDKit          3D

 24 23  0  0  1  0  0  0  0  0999 V2000
   15.1532  -12.8932  -15.2468 N   0  0  0  0  0  0  0  0  0  0  0  0
   16.1623  -13.5777  -16.0592 C   0  0  1  0  0  0  0  0  0  0  0  0
   15.5278  -14.3104  -17.1922 C   0  0  0  0  0  0  0  0  0  0  0  0
   14.5814  -15.3745  -16.8105 C   0  0  0  0  0  0  0  0  0  0  0  0
   15.0364  -16.5527  -16.5769 O   0  0  0  0  0  0  0  0  0  0  0  0
   17.1737  -12.5968  -16.5299 C   0  0  0  0  0  0  0  0  0  0  0  0
   18.1165  -12.9942  -17.2337 O   0  0  0  0  0  0  0  0  0  0  0  0
   13.2143  -15.1961  -16.6860 O   0  0  0  0  0  0  0  0  0  0  0  0
   16.4798   -9.3295  -18.3577 C   0  0  0  0  0  0  0  0  0  0  0  0
   17.3945   -8.9627  -17.2076 C   0  0  1  0  0  0  0  0  0  0  0  0
   16.5645   -8.5261  -16.1697 O   0  0  0  0  0  0  0  0  0  0  0  0
   18.0422  -10.2332  -16.7325 C   0  0  2  0  0  0  0  0  0  0  0  0
   17.1333  -11.2162  -16.2236 N   0  0  0  0  0  0  0  0  0  0  0  0
   19.0723   -9.8720  -15.7162 C   0  0  0  0  0  0  0  0  0  0  0  0
   18.7369   -9.8909  -14.5166 O   0  0  0  0  0  0  0  0  0  0  0  0
   24.0234  -11.9510  -15.7070 C   0  0  0  0  0  0  0  0  0  0  0  0
   22.7013  -11.3056  -15.4873 C   0  0  0  0  0  0  0  0  0  0  0  0
   22.6859   -9.8283  -15.3140 C   0  0  2  0  0  0  0  0  0  0  0  0
   23.7424   -9.4586  -14.2704 C   0  0  0  0  0  0  0  0  0  0  0  0
   21.4203   -9.1182  -15.0881 C   0  0  2  0  0  0  0  0  0  0  0  0
   20.3951   -9.5146  -16.0572 N   0  0  0  0  0  0  0  0  0  0  0  0
   21.4365   -7.6565  -14.9551 C   0  0  0  0  0  0  0  0  0  0  0  0
   21.2212   -6.8116  -15.8508 O   0  0  0  0  0  0  0  0  0  0  0  0
   21.7224   -7.0698  -13.6938 O   0  0  0  0  0  0  0  0  0  0  0  0
  2  1  1  6
  2  6  1  0
  3  2  1  0
  3  4  1  0
  4  5  2  0
  4  8  1  0
  6  7  2  0
 10  9  1  6
 10 12  1  0
 11 10  1  0
 12 14  1  0
 12 13  1  1
 13  6  1  0
 14 21  1  0
 15 14  2  0
 16 17  1  0
 18 19  1  1
 18 17  1  0
 20 21  1  6
 20 18  1  0
 22 20  1  0
 23 22  2  0
 24 22  1  0
M  END
$$$$
