AAW.pdb
     RDKit          3D

 25 26  0  0  1  0  0  0  0  0999 V2000
   30.2100  -21.8708  -18.4148 C   0  0  0  0  0  0  0  0  0  0  0  0
   28.7033  -21.8352  -18.1149 C   0  0  2  0  0  0  0  0  0  0  0  0
   28.0992  -20.8388  -18.9644 N   0  0  0  0  0  0  0  0  0  0  0  0
   28.5017  -21.4167  -16.6938 C   0  0  0  0  0  0  0  0  0  0  0  0
   28.8833  -22.1607  -15.7296 O   0  0  0  0  0  0  0  0  0  0  0  0
   27.3824  -18.2867  -14.8504 C   0  0  0  0  0  0  0  0  0  0  0  0
   27.7276  -19.7535  -14.9573 C   0  0  2  0  0  0  0  0  0  0  0  0
   27.8861  -20.1919  -16.3177 N   0  0  0  0  0  0  0  0  0  0  0  0
   26.7154  -20.5070  -14.2112 C   0  0  0  0  0  0  0  0  0  0  0  0
   25.6756  -20.8878  -14.7820 O   0  0  0  0  0  0  0  0  0  0  0  0
   26.9224  -20.7972  -12.8526 N   0  0  0  0  0  0  0  0  0  0  0  0
   25.9739  -21.5591  -12.0277 C   0  0  1  0  0  0  0  0  0  0  0  0
   26.7129  -21.9126  -10.7950 C   0  0  0  0  0  0  0  0  0  0  0  0
   26.5362  -21.0855   -9.6129 C   0  0  0  0  0  0  0  0  0  0  0  0
   25.4015  -20.4249   -9.1551 C   0  0  0  0  0  0  0  0  0  0  0  0
   25.7080  -19.7555   -8.0351 N   0  0  0  0  0  0  0  0  0  0  0  0
   26.9893  -19.9383   -7.7246 C   0  0  0  0  0  0  0  0  0  0  0  0
   27.8178  -19.5087   -6.6978 C   0  0  0  0  0  0  0  0  0  0  0  0
   29.1446  -19.8699   -6.6047 C   0  0  0  0  0  0  0  0  0  0  0  0
   29.6759  -20.6913   -7.5678 C   0  0  0  0  0  0  0  0  0  0  0  0
   28.8640  -21.1120   -8.5743 C   0  0  0  0  0  0  0  0  0  0  0  0
   27.5140  -20.7647   -8.7005 C   0  0  0  0  0  0  0  0  0  0  0  0
   24.7566  -20.7635  -11.8959 C   0  0  0  0  0  0  0  0  0  0  0  0
   23.5310  -21.3891  -11.7686 O   0  0  0  0  0  0  0  0  0  0  0  0
   24.8002  -19.5159  -11.8991 O   0  0  0  0  0  0  0  0  0  0  0  0
  2  1  1  6
  2  3  1  0
  4  8  1  0
  4  2  1  0
  5  4  2  0
  7  9  1  0
  7  6  1  6
  7  8  1  0
  9 11  1  0
 10  9  2  0
 11 12  1  0
 12 13  1  1
 13 14  1  0
 14 15  2  0
 16 15  1  0
 17 16  1  0
 18 17  2  0
 19 18  1  0
 20 21  1  0
 20 19  2  0
 21 22  2  0
 22 14  1  0
 22 17  1  0
 23 24  1  0
 23 12  1  0
 25 23  2  0
M  END
$$$$
