AAW.pdb
     RDKit          3D

 25 26  0  0  1  0  0  0  0  0999 V2000
   24.6145  -18.2461  -13.8217 C   0  0  0  0  0  0  0  0  0  0  0  0
   26.1193  -18.3304  -14.1217 C   0  0  2  0  0  0  0  0  0  0  0  0
   26.2894  -18.3981  -15.5521 N   0  0  0  0  0  0  0  0  0  0  0  0
   26.6614  -19.5919  -13.5302 C   0  0  0  0  0  0  0  0  0  0  0  0
   26.3073  -20.7330  -13.9791 O   0  0  0  0  0  0  0  0  0  0  0  0
   29.5741  -20.7116  -11.5086 C   0  0  0  0  0  0  0  0  0  0  0  0
   28.1105  -20.8213  -11.8659 C   0  0  2  0  0  0  0  0  0  0  0  0
   27.5872  -19.6168  -12.4517 N   0  0  0  0  0  0  0  0  0  0  0  0
   27.3878  -21.2530  -10.6657 C   0  0  0  0  0  0  0  0  0  0  0  0
   27.6971  -22.3203  -10.1023 O   0  0  0  0  0  0  0  0  0  0  0  0
   26.3472  -20.4601  -10.1547 N   0  0  0  0  0  0  0  0  0  0  0  0
   25.4825  -20.8694   -9.0387 C   0  0  1  0  0  0  0  0  0  0  0  0
   25.5342  -19.7554   -8.0657 C   0  0  0  0  0  0  0  0  0  0  0  0
   26.8210  -19.3741   -7.5076 C   0  0  0  0  0  0  0  0  0  0  0  0
   27.7717  -18.4860   -7.9987 C   0  0  0  0  0  0  0  0  0  0  0  0
   28.8224  -18.4673   -7.1668 N   0  0  0  0  0  0  0  0  0  0  0  0
   28.6181  -19.2977   -6.1469 C   0  0  0  0  0  0  0  0  0  0  0  0
   29.3409  -19.6572   -5.0184 C   0  0  0  0  0  0  0  0  0  0  0  0
   28.8748  -20.5586   -4.0858 C   0  0  0  0  0  0  0  0  0  0  0  0
   27.6410  -21.1295   -4.2764 C   0  0  0  0  0  0  0  0  0  0  0  0
   26.9328  -20.7775   -5.3826 C   0  0  0  0  0  0  0  0  0  0  0  0
   27.3750  -19.8673   -6.3495 C   0  0  0  0  0  0  0  0  0  0  0  0
   24.1830  -21.2395   -9.5924 C   0  0  0  0  0  0  0  0  0  0  0  0
   23.1943  -21.7371   -8.7652 O   0  0  0  0  0  0  0  0  0  0  0  0
   23.9451  -21.1173  -10.8118 O   0  0  0  0  0  0  0  0  0  0  0  0
  2  1  1  6
  2  3  1  0
  4  8  1  0
  4  2  1  0
  5  4  2  0
  7  9  1  0
  7  6  1  1
  7  8  1  0
  9 11  1  0
 10  9  2  0
 11 12  1  0
 12 13  1  1
 13 14  1  0
 14 15  2  0
 16 15  1  0
 17 16  1  0
 18 17  2  0
 19 18  1  0
 20 21  1  0
 20 19  2  0
 21 22  2  0
 22 14  1  0
 22 17  1  0
 23 24  1  0
 23 12  1  0
 25 23  2  0
M  END
$$$$
