AAW.pdb
     RDKit          3D

 25 26  0  0  1  0  0  0  0  0999 V2000
   30.0906  -20.3703  -12.8151 C   0  0  0  0  0  0  0  0  0  0  0  0
   28.7867  -20.4484  -13.6247 C   0  0  2  0  0  0  0  0  0  0  0  0
   28.8821  -19.5170  -14.7214 N   0  0  0  0  0  0  0  0  0  0  0  0
   27.6489  -20.0233  -12.7531 C   0  0  0  0  0  0  0  0  0  0  0  0
   27.4947  -18.7998  -12.4244 O   0  0  0  0  0  0  0  0  0  0  0  0
   24.2336  -20.7619  -12.0531 C   0  0  0  0  0  0  0  0  0  0  0  0
   25.5765  -20.5311  -11.4009 C   0  0  2  0  0  0  0  0  0  0  0  0
   26.6781  -20.9246  -12.2371 N   0  0  0  0  0  0  0  0  0  0  0  0
   25.5611  -21.1992  -10.0960 C   0  0  0  0  0  0  0  0  0  0  0  0
   25.9304  -22.3851   -9.9989 O   0  0  0  0  0  0  0  0  0  0  0  0
   25.1290  -20.4982   -8.9582 N   0  0  0  0  0  0  0  0  0  0  0  0
   25.0488  -21.0922   -7.6161 C   0  0  1  0  0  0  0  0  0  0  0  0
   25.3709  -19.9958   -6.6755 C   0  0  0  0  0  0  0  0  0  0  0  0
   26.7396  -19.5109   -6.6099 C   0  0  0  0  0  0  0  0  0  0  0  0
   27.3931  -18.5897   -7.4210 C   0  0  0  0  0  0  0  0  0  0  0  0
   28.6626  -18.4682   -7.0085 N   0  0  0  0  0  0  0  0  0  0  0  0
   28.8860  -19.2617   -5.9635 C   0  0  0  0  0  0  0  0  0  0  0  0
   29.9793  -19.5239   -5.1505 C   0  0  0  0  0  0  0  0  0  0  0  0
   29.9330  -20.4082   -4.0944 C   0  0  0  0  0  0  0  0  0  0  0  0
   28.7551  -21.0620   -3.8302 C   0  0  0  0  0  0  0  0  0  0  0  0
   27.6837  -20.8054   -4.6273 C   0  0  0  0  0  0  0  0  0  0  0  0
   27.6952  -19.9152   -5.7073 C   0  0  0  0  0  0  0  0  0  0  0  0
   23.7481  -21.7444   -7.4928 C   0  0  0  0  0  0  0  0  0  0  0  0
   22.7765  -21.5384   -8.4536 O   0  0  0  0  0  0  0  0  0  0  0  0
   23.4917  -22.4900   -6.5249 O   0  0  0  0  0  0  0  0  0  0  0  0
  2  1  1  1
  2  3  1  0
  4  8  1  0
  4  2  1  0
  5  4  2  0
  7  9  1  0
  7  6  1  6
  7  8  1  0
  9 11  1  0
 10  9  2  0
 11 12  1  0
 12 13  1  1
 13 14  1  0
 14 15  2  0
 16 15  1  0
 17 16  1  0
 18 17  2  0
 19 18  1  0
 20 21  1  0
 20 19  2  0
 21 22  2  0
 22 14  1  0
 22 17  1  0
 23 24  1  0
 23 12  1  0
 25 23  2  0
M  END
$$$$
