AAW.pdb
     RDKit          3D

 25 26  0  0  1  0  0  0  0  0999 V2000
   26.9161  -23.5701  -18.1932 C   0  0  0  0  0  0  0  0  0  0  0  0
   27.8515  -22.3509  -18.1858 C   0  0  2  0  0  0  0  0  0  0  0  0
   29.1605  -22.7860  -18.6060 N   0  0  0  0  0  0  0  0  0  0  0  0
   27.9617  -21.8330  -16.7877 C   0  0  0  0  0  0  0  0  0  0  0  0
   28.4151  -22.5688  -15.8486 O   0  0  0  0  0  0  0  0  0  0  0  0
   27.3882  -18.5311  -14.9741 C   0  0  0  0  0  0  0  0  0  0  0  0
   27.6421  -20.0178  -15.0602 C   0  0  2  0  0  0  0  0  0  0  0  0
   27.5800  -20.5176  -16.4072 N   0  0  0  0  0  0  0  0  0  0  0  0
   26.7132  -20.6844  -14.1427 C   0  0  0  0  0  0  0  0  0  0  0  0
   25.5740  -21.0040  -14.5327 O   0  0  0  0  0  0  0  0  0  0  0  0
   27.1122  -20.9606  -12.8246 N   0  0  0  0  0  0  0  0  0  0  0  0
   26.2077  -21.4864  -11.7920 C   0  0  1  0  0  0  0  0  0  0  0  0
   27.0479  -21.6826  -10.5894 C   0  0  0  0  0  0  0  0  0  0  0  0
   26.8471  -20.8077   -9.4463 C   0  0  0  0  0  0  0  0  0  0  0  0
   25.7534  -20.0134   -9.1196 C   0  0  0  0  0  0  0  0  0  0  0  0
   26.0188  -19.3500   -7.9857 N   0  0  0  0  0  0  0  0  0  0  0  0
   27.2336  -19.6636   -7.5414 C   0  0  0  0  0  0  0  0  0  0  0  0
   27.9975  -19.2986   -6.4421 C   0  0  0  0  0  0  0  0  0  0  0  0
   29.2591  -19.8007   -6.2061 C   0  0  0  0  0  0  0  0  0  0  0  0
   29.7890  -20.7028   -7.0949 C   0  0  0  0  0  0  0  0  0  0  0  0
   29.0406  -21.0602   -8.1725 C   0  0  0  0  0  0  0  0  0  0  0  0
   27.7578  -20.5703   -8.4435 C   0  0  0  0  0  0  0  0  0  0  0  0
   25.0666  -20.5807  -11.6938 C   0  0  0  0  0  0  0  0  0  0  0  0
   25.2415  -19.2234  -11.8857 O   0  0  0  0  0  0  0  0  0  0  0  0
   23.9241  -21.0114  -11.4337 O   0  0  0  0  0  0  0  0  0  0  0  0
  2  1  1  1
  2  3  1  0
  4  8  1  0
  4  2  1  0
  5  4  2  0
  7  9  1  0
  7  6  1  6
  7  8  1  0
  9 11  1  0
 10  9  2  0
 11 12  1  0
 12 13  1  1
 13 14  1  0
 14 15  2  0
 16 15  1  0
 17 16  1  0
 18 17  2  0
 19 18  1  0
 20 21  1  0
 20 19  2  0
 21 22  2  0
 22 14  1  0
 22 17  1  0
 23 24  1  0
 23 12  1  0
 25 23  2  0
M  END
$$$$
