AAW.pdb
     RDKit          3D

 25 26  0  0  1  0  0  0  0  0999 V2000
   32.4264  -39.4583  -10.0517 C   0  0  0  0  0  0  0  0  0  0  0  0
   31.0493  -39.7509  -10.6677 C   0  0  2  0  0  0  0  0  0  0  0  0
   31.1485  -39.5730  -12.0953 N   0  0  0  0  0  0  0  0  0  0  0  0
   30.0630  -38.7568  -10.1440 C   0  0  0  0  0  0  0  0  0  0  0  0
   29.8950  -37.6313  -10.7218 O   0  0  0  0  0  0  0  0  0  0  0  0
   27.0444  -38.8006   -7.9453 C   0  0  0  0  0  0  0  0  0  0  0  0
   28.2346  -38.0825   -8.5367 C   0  0  2  0  0  0  0  0  0  0  0  0
   29.2590  -38.9824   -8.9936 N   0  0  0  0  0  0  0  0  0  0  0  0
   28.7064  -37.1084   -7.5479 C   0  0  0  0  0  0  0  0  0  0  0  0
   29.5855  -37.4308   -6.7261 O   0  0  0  0  0  0  0  0  0  0  0  0
   28.1642  -35.8129   -7.5309 N   0  0  0  0  0  0  0  0  0  0  0  0
   28.6172  -34.7511   -6.6210 C   0  0  1  0  0  0  0  0  0  0  0  0
   28.3693  -33.4801   -7.3377 C   0  0  0  0  0  0  0  0  0  0  0  0
   27.0160  -32.9511   -7.3747 C   0  0  0  0  0  0  0  0  0  0  0  0
   26.1852  -32.5686   -6.3273 C   0  0  0  0  0  0  0  0  0  0  0  0
   25.0087  -32.1663   -6.8278 N   0  0  0  0  0  0  0  0  0  0  0  0
   25.0155  -32.2614   -8.1553 C   0  0  0  0  0  0  0  0  0  0  0  0
   24.1022  -31.9789   -9.1609 C   0  0  0  0  0  0  0  0  0  0  0  0
   24.3799  -32.1615  -10.4985 C   0  0  0  0  0  0  0  0  0  0  0  0
   25.6137  -32.6442  -10.8581 C   0  0  0  0  0  0  0  0  0  0  0  0
   26.5087  -32.9215   -9.8726 C   0  0  0  0  0  0  0  0  0  0  0  0
   26.2605  -32.7491   -8.5060 C   0  0  0  0  0  0  0  0  0  0  0  0
   27.9591  -34.9546   -5.3335 C   0  0  0  0  0  0  0  0  0  0  0  0
   28.5233  -34.4454   -4.1794 O   0  0  0  0  0  0  0  0  0  0  0  0
   26.8871  -35.5892   -5.2524 O   0  0  0  0  0  0  0  0  0  0  0  0
  2  1  1  1
  2  3  1  0
  4  8  1  0
  4  2  1  0
  5  4  2  0
  7  9  1  0
  7  6  1  1
  7  8  1  0
  9 11  1  0
 10  9  2  0
 11 12  1  0
 12 13  1  6
 13 14  1  0
 14 15  2  0
 16 15  1  0
 17 16  1  0
 18 17  2  0
 19 18  1  0
 20 21  1  0
 20 19  2  0
 21 22  2  0
 22 14  1  0
 22 17  1  0
 23 24  1  0
 23 12  1  0
 25 23  2  0
M  END
$$$$
