YGY.pdb
     RDKit          3D

 29 30  0  0  1  0  0  0  0  0999 V2000
    9.4152  -11.8210   19.2543 O   0  0  0  0  0  0  0  0  0  0  0  0
    8.6511  -12.9753   19.4678 C   0  0  0  0  0  0  0  0  0  0  0  0
    7.3037  -13.0080   19.1620 C   0  0  0  0  0  0  0  0  0  0  0  0
    6.5227  -14.1363   19.3627 C   0  0  0  0  0  0  0  0  0  0  0  0
    7.1260  -15.2739   19.8920 C   0  0  0  0  0  0  0  0  0  0  0  0
    6.2910  -16.4558   20.0982 C   0  0  0  0  0  0  0  0  0  0  0  0
    6.3841  -17.0649   21.4565 C   0  0  2  0  0  0  0  0  0  0  0  0
    6.7573  -16.0829   22.4755 N   0  0  0  0  0  0  0  0  0  0  0  0
    7.2388  -18.2620   21.5184 C   0  0  0  0  0  0  0  0  0  0  0  0
    7.0298  -19.1732   20.6758 O   0  0  0  0  0  0  0  0  0  0  0  0
    8.4717  -15.2730   20.2082 C   0  0  0  0  0  0  0  0  0  0  0  0
    9.1942  -14.1330   19.9898 C   0  0  0  0  0  0  0  0  0  0  0  0
    8.2755  -18.4668   22.4507 N   0  0  0  0  0  0  0  0  0  0  0  0
    9.6655  -18.6109   22.0945 C   0  0  0  0  0  0  0  0  0  0  0  0
   10.4764  -17.4383   22.4809 C   0  0  0  0  0  0  0  0  0  0  0  0
   10.2615  -16.3375   21.9219 O   0  0  0  0  0  0  0  0  0  0  0  0
    9.5972  -13.2979   29.5884 O   0  0  0  0  0  0  0  0  0  0  0  0
    9.6637  -14.0310   28.4004 C   0  0  0  0  0  0  0  0  0  0  0  0
   10.9319  -14.1680   27.8371 C   0  0  0  0  0  0  0  0  0  0  0  0
   11.0185  -14.8859   26.6679 C   0  0  0  0  0  0  0  0  0  0  0  0
    9.9115  -15.4616   26.0497 C   0  0  0  0  0  0  0  0  0  0  0  0
   10.0644  -16.2043   24.7956 C   0  0  0  0  0  0  0  0  0  0  0  0
   11.4375  -16.8294   24.7315 C   0  0  2  0  0  0  0  0  0  0  0  0
   11.4729  -17.5476   23.4573 N   0  0  0  0  0  0  0  0  0  0  0  0
   11.7388  -17.7094   25.8600 C   0  0  0  0  0  0  0  0  0  0  0  0
   12.6598  -17.3762   26.8637 O   0  0  0  0  0  0  0  0  0  0  0  0
    8.6928  -15.2991   26.6402 C   0  0  0  0  0  0  0  0  0  0  0  0
    8.5542  -14.5874   27.8137 C   0  0  0  0  0  0  0  0  0  0  0  0
   11.1818  -18.8263   25.9937 O   0  0  0  0  0  0  0  0  0  0  0  0
  2  1  1  0
  3  2  2  0
  4  3  1  0
  5  4  2  0
  5 11  1  0
  6  5  1  0
  7  6  1  0
  7  8  1  1
  9  7  1  0
  9 13  1  0
 10  9  2  0
 11 12  2  0
 12  2  1  0
 14 13  1  0
 15 14  1  0
 15 24  1  0
 16 15  2  0
 18 28  2  0
 18 17  1  0
 19 18  1  0
 20 21  1  0
 20 19  2  0
 21 27  2  0
 22 21  1  0
 23 24  1  0
 23 22  1  1
 25 23  1  0
 26 25  1  0
 27 28  1  0
 29 25  2  0
M  END
$$$$
