YGY.pdb
     RDKit          3D

 29 30  0  0  1  0  0  0  0  0999 V2000
    9.2421  -12.0181   18.2586 O   0  0  0  0  0  0  0  0  0  0  0  0
    8.6479  -13.0555   18.9884 C   0  0  0  0  0  0  0  0  0  0  0  0
    7.2862  -13.0752   19.2246 C   0  0  0  0  0  0  0  0  0  0  0  0
    6.6708  -14.0890   19.9435 C   0  0  0  0  0  0  0  0  0  0  0  0
    7.4609  -15.1212   20.4422 C   0  0  0  0  0  0  0  0  0  0  0  0
    6.7991  -16.1829   21.1980 C   0  0  0  0  0  0  0  0  0  0  0  0
    6.6888  -15.9384   22.6652 C   0  0  2  0  0  0  0  0  0  0  0  0
    7.8713  -15.2623   23.2007 N   0  0  0  0  0  0  0  0  0  0  0  0
    6.3490  -17.1380   23.4481 C   0  0  0  0  0  0  0  0  0  0  0  0
    5.9069  -18.1372   22.8236 O   0  0  0  0  0  0  0  0  0  0  0  0
    8.8257  -15.1301   20.2229 C   0  0  0  0  0  0  0  0  0  0  0  0
    9.3800  -14.1053   19.5074 C   0  0  0  0  0  0  0  0  0  0  0  0
    6.4809  -17.2538   24.8463 N   0  0  0  0  0  0  0  0  0  0  0  0
    7.0096  -18.4175   25.5142 C   0  0  0  0  0  0  0  0  0  0  0  0
    8.3685  -18.1976   26.0501 C   0  0  0  0  0  0  0  0  0  0  0  0
    9.1200  -19.1842   26.2298 O   0  0  0  0  0  0  0  0  0  0  0  0
    5.7078  -12.4585   28.3194 O   0  0  0  0  0  0  0  0  0  0  0  0
    6.8801  -13.1145   27.9337 C   0  0  0  0  0  0  0  0  0  0  0  0
    6.9644  -13.4752   26.5895 C   0  0  0  0  0  0  0  0  0  0  0  0
    8.1100  -14.1217   26.1900 C   0  0  0  0  0  0  0  0  0  0  0  0
    9.1552  -14.4172   27.0615 C   0  0  0  0  0  0  0  0  0  0  0  0
   10.3466  -15.1216   26.5798 C   0  0  0  0  0  0  0  0  0  0  0  0
   10.1837  -16.6087   26.7850 C   0  0  2  0  0  0  0  0  0  0  0  0
    8.8174  -16.9078   26.3554 N   0  0  0  0  0  0  0  0  0  0  0  0
   10.4295  -17.0455   28.1588 C   0  0  0  0  0  0  0  0  0  0  0  0
   11.6814  -16.9389   28.7818 O   0  0  0  0  0  0  0  0  0  0  0  0
    9.0245  -14.0435   28.3667 C   0  0  0  0  0  0  0  0  0  0  0  0
    7.8944  -13.3926   28.8162 C   0  0  0  0  0  0  0  0  0  0  0  0
    9.5209  -17.5467   28.8651 O   0  0  0  0  0  0  0  0  0  0  0  0
  2  1  1  0
  3  2  2  0
  4  3  1  0
  5  4  2  0
  5 11  1  0
  6  5  1  0
  7  6  1  0
  7  8  1  1
  9  7  1  0
  9 13  1  0
 10  9  2  0
 11 12  2  0
 12  2  1  0
 14 13  1  0
 15 14  1  0
 15 24  1  0
 16 15  2  0
 18 28  2  0
 18 17  1  0
 19 18  1  0
 20 21  1  0
 20 19  2  0
 21 27  2  0
 22 21  1  0
 23 24  1  0
 23 22  1  1
 25 23  1  0
 26 25  1  0
 27 28  1  0
 29 25  2  0
M  END
$$$$
