YGY.pdb
     RDKit          3D

 29 30  0  0  1  0  0  0  0  0999 V2000
    7.5065  -10.9603   28.2879 O   0  0  0  0  0  0  0  0  0  0  0  0
    7.1688  -12.1397   27.6121 C   0  0  0  0  0  0  0  0  0  0  0  0
    8.1205  -13.1030   27.3351 C   0  0  0  0  0  0  0  0  0  0  0  0
    7.8152  -14.2798   26.6680 C   0  0  0  0  0  0  0  0  0  0  0  0
    6.4992  -14.4910   26.2657 C   0  0  0  0  0  0  0  0  0  0  0  0
    6.1917  -15.7355   25.5636 C   0  0  0  0  0  0  0  0  0  0  0  0
    7.3440  -16.3591   24.8509 C   0  0  2  0  0  0  0  0  0  0  0  0
    8.1425  -15.3704   24.1251 N   0  0  0  0  0  0  0  0  0  0  0  0
    6.9721  -17.4938   23.9896 C   0  0  0  0  0  0  0  0  0  0  0  0
    6.5353  -18.5331   24.5489 O   0  0  0  0  0  0  0  0  0  0  0  0
    5.5243  -13.5467   26.5279 C   0  0  0  0  0  0  0  0  0  0  0  0
    5.8810  -12.4043   27.1890 C   0  0  0  0  0  0  0  0  0  0  0  0
    7.0678  -17.5056   22.5838 N   0  0  0  0  0  0  0  0  0  0  0  0
    7.9054  -18.4129   21.8387 C   0  0  0  0  0  0  0  0  0  0  0  0
    9.1924  -17.8049   21.4438 C   0  0  0  0  0  0  0  0  0  0  0  0
    9.8738  -18.3502   20.5444 O   0  0  0  0  0  0  0  0  0  0  0  0
    6.8622  -13.4447   17.6489 O   0  0  0  0  0  0  0  0  0  0  0  0
    7.7591  -13.6941   18.6913 C   0  0  0  0  0  0  0  0  0  0  0  0
    9.0431  -14.0842   18.3125 C   0  0  0  0  0  0  0  0  0  0  0  0
    9.9404  -14.3341   19.3235 C   0  0  0  0  0  0  0  0  0  0  0  0
    9.6144  -14.2128   20.6718 C   0  0  0  0  0  0  0  0  0  0  0  0
   10.6106  -14.5068   21.7057 C   0  0  0  0  0  0  0  0  0  0  0  0
   10.9165  -15.9855   21.7202 C   0  0  2  0  0  0  0  0  0  0  0  0
    9.6510  -16.6358   22.0611 N   0  0  0  0  0  0  0  0  0  0  0  0
   11.9857  -16.3580   22.6459 C   0  0  0  0  0  0  0  0  0  0  0  0
   13.3236  -15.9814   22.4589 O   0  0  0  0  0  0  0  0  0  0  0  0
    8.3453  -13.8283   20.9907 C   0  0  0  0  0  0  0  0  0  0  0  0
    7.4087  -13.5660   20.0126 C   0  0  0  0  0  0  0  0  0  0  0  0
   11.7611  -17.0446   23.6724 O   0  0  0  0  0  0  0  0  0  0  0  0
  2  1  1  0
  3  2  2  0
  4  3  1  0
  5  4  2  0
  5 11  1  0
  6  5  1  0
  7  6  1  0
  7  8  1  6
  9  7  1  0
  9 13  1  0
 10  9  2  0
 11 12  2  0
 12  2  1  0
 14 13  1  0
 15 14  1  0
 15 24  1  0
 16 15  2  0
 18 28  2  0
 18 17  1  0
 19 18  1  0
 20 21  1  0
 20 19  2  0
 21 27  2  0
 22 21  1  0
 23 24  1  0
 23 22  1  1
 25 23  1  0
 26 25  1  0
 27 28  1  0
 29 25  2  0
M  END
$$$$
