YGY.pdb
     RDKit          3D

 29 30  0  0  1  0  0  0  0  0999 V2000
    6.0790  -12.0863   18.1111 O   0  0  0  0  0  0  0  0  0  0  0  0
    7.0276  -12.9160   18.7223 C   0  0  0  0  0  0  0  0  0  0  0  0
    6.6419  -13.9796   19.5163 C   0  0  0  0  0  0  0  0  0  0  0  0
    7.5584  -14.8174   20.1338 C   0  0  0  0  0  0  0  0  0  0  0  0
    8.9152  -14.5712   19.9417 C   0  0  0  0  0  0  0  0  0  0  0  0
    9.8700  -15.4620   20.5984 C   0  0  0  0  0  0  0  0  0  0  0  0
   10.0295  -16.7991   19.9569 C   0  0  2  0  0  0  0  0  0  0  0  0
    8.7488  -17.4894   19.7979 N   0  0  0  0  0  0  0  0  0  0  0  0
   11.0321  -17.6591   20.6070 C   0  0  0  0  0  0  0  0  0  0  0  0
   12.2440  -17.3472   20.4735 O   0  0  0  0  0  0  0  0  0  0  0  0
    9.3329  -13.5153   19.1532 C   0  0  0  0  0  0  0  0  0  0  0  0
    8.3862  -12.7210   18.5684 C   0  0  0  0  0  0  0  0  0  0  0  0
   10.7385  -18.8075   21.3691 N   0  0  0  0  0  0  0  0  0  0  0  0
   11.4763  -19.2096   22.5412 C   0  0  0  0  0  0  0  0  0  0  0  0
   10.9370  -18.6195   23.7833 C   0  0  0  0  0  0  0  0  0  0  0  0
    9.8795  -17.9491   23.7306 O   0  0  0  0  0  0  0  0  0  0  0  0
   10.1479  -13.3550   30.2840 O   0  0  0  0  0  0  0  0  0  0  0  0
   10.2013  -14.3960   29.3529 C   0  0  0  0  0  0  0  0  0  0  0  0
    9.7839  -14.0815   28.0602 C   0  0  0  0  0  0  0  0  0  0  0  0
    9.8289  -15.0921   27.1294 C   0  0  0  0  0  0  0  0  0  0  0  0
   10.2654  -16.3796   27.4308 C   0  0  0  0  0  0  0  0  0  0  0  0
   10.2776  -17.4199   26.3986 C   0  0  0  0  0  0  0  0  0  0  0  0
   11.7011  -17.7608   26.0279 C   0  0  2  0  0  0  0  0  0  0  0  0
   11.5925  -18.8023   25.0060 N   0  0  0  0  0  0  0  0  0  0  0  0
   12.5186  -18.1938   27.1606 C   0  0  0  0  0  0  0  0  0  0  0  0
   12.2706  -19.3754   27.8741 O   0  0  0  0  0  0  0  0  0  0  0  0
   10.6632  -16.6369   28.7097 C   0  0  0  0  0  0  0  0  0  0  0  0
   10.6366  -15.6564   29.6796 C   0  0  0  0  0  0  0  0  0  0  0  0
   13.5003  -17.5223   27.5615 O   0  0  0  0  0  0  0  0  0  0  0  0
  2  1  1  0
  3  2  2  0
  4  3  1  0
  5  4  2  0
  5 11  1  0
  6  5  1  0
  7  6  1  0
  7  8  1  1
  9  7  1  0
  9 13  1  0
 10  9  2  0
 11 12  2  0
 12  2  1  0
 14 13  1  0
 15 14  1  0
 15 24  1  0
 16 15  2  0
 18 28  2  0
 18 17  1  0
 19 18  1  0
 20 21  1  0
 20 19  2  0
 21 27  2  0
 22 21  1  0
 23 24  1  0
 23 22  1  1
 25 23  1  0
 26 25  1  0
 27 28  1  0
 29 25  2  0
M  END
$$$$
