VYT.pdb
     RDKit          3D

 27 27  0  0  1  0  0  0  0  0999 V2000
   20.3065  -11.2649  -19.7606 C   0  0  0  0  0  0  0  0  0  0  0  0
   20.0245  -10.2545  -18.6718 C   0  0  1  0  0  0  0  0  0  0  0  0
   18.5499   -9.8640  -18.8052 C   0  0  0  0  0  0  0  0  0  0  0  0
   20.2400  -10.9469  -17.3412 C   0  0  2  0  0  0  0  0  0  0  0  0
   19.3586  -12.1028  -17.2718 N   0  0  0  0  0  0  0  0  0  0  0  0
   19.9068  -10.0349  -16.2194 C   0  0  0  0  0  0  0  0  0  0  0  0
   18.7848  -10.0130  -15.6670 O   0  0  0  0  0  0  0  0  0  0  0  0
   19.7224   -5.0084   -9.2914 O   0  0  0  0  0  0  0  0  0  0  0  0
   20.1436   -5.8416  -10.3229 C   0  0  0  0  0  0  0  0  0  0  0  0
   19.6855   -7.1379  -10.4342 C   0  0  0  0  0  0  0  0  0  0  0  0
   20.1341   -7.9262  -11.4775 C   0  0  0  0  0  0  0  0  0  0  0  0
   21.0293   -7.4577  -12.4159 C   0  0  0  0  0  0  0  0  0  0  0  0
   21.5025   -8.3197  -13.5333 C   0  0  0  0  0  0  0  0  0  0  0  0
   20.5873   -8.1104  -14.7412 C   0  0  2  0  0  0  0  0  0  0  0  0
   20.9082   -9.1299  -15.7345 N   0  0  0  0  0  0  0  0  0  0  0  0
   20.8053   -6.7736  -15.3177 C   0  0  0  0  0  0  0  0  0  0  0  0
   21.9142   -6.4694  -15.8160 O   0  0  0  0  0  0  0  0  0  0  0  0
   21.4829   -6.1415  -12.2873 C   0  0  0  0  0  0  0  0  0  0  0  0
   21.0319   -5.3680  -11.2493 C   0  0  0  0  0  0  0  0  0  0  0  0
   19.1746   -5.1851  -18.2567 C   0  0  0  0  0  0  0  0  0  0  0  0
   18.9226   -4.3123  -17.0775 C   0  0  1  0  0  0  0  0  0  0  0  0
   17.6438   -4.4941  -16.6019 O   0  0  0  0  0  0  0  0  0  0  0  0
   19.9060   -4.5189  -15.9471 C   0  0  2  0  0  0  0  0  0  0  0  0
   19.7710   -5.8049  -15.3223 N   0  0  0  0  0  0  0  0  0  0  0  0
   19.8606   -3.4058  -14.9631 C   0  0  0  0  0  0  0  0  0  0  0  0
   19.3765   -3.5523  -13.8113 O   0  0  0  0  0  0  0  0  0  0  0  0
   20.3537   -2.1468  -15.2734 O   0  0  0  0  0  0  0  0  0  0  0  0
  2  4  1  0
  2  1  1  6
  3  2  1  0
  4  6  1  0
  4  5  1  6
  6  7  2  0
  9 10  2  0
  9  8  1  0
 11 10  1  0
 12 11  2  0
 14 13  1  1
 13 12  1  0
 15 14  1  0
 15  6  1  0
 16 14  1  0
 16 17  2  0
 18 12  1  0
 18 19  2  0
 19  9  1  0
 21 20  1  6
 21 23  1  0
 22 21  1  0
 23 24  1  1
 23 25  1  0
 24 16  1  0
 25 26  2  0
 25 27  1  0
M  END
$$$$
