VYT.pdb
     RDKit          3D

 27 27  0  0  1  0  0  0  0  0999 V2000
   26.7814  -21.1145  -18.1991 C   0  0  0  0  0  0  0  0  0  0  0  0
   27.4317  -22.4753  -18.3038 C   0  0  1  0  0  0  0  0  0  0  0  0
   28.3935  -22.4130  -19.4936 C   0  0  0  0  0  0  0  0  0  0  0  0
   28.2239  -22.7005  -17.0318 C   0  0  2  0  0  0  0  0  0  0  0  0
   28.7770  -24.0462  -17.0621 N   0  0  0  0  0  0  0  0  0  0  0  0
   27.3449  -22.5812  -15.8426 C   0  0  0  0  0  0  0  0  0  0  0  0
   26.4567  -23.4164  -15.5632 O   0  0  0  0  0  0  0  0  0  0  0  0
   24.7051  -20.2182   -7.8432 O   0  0  0  0  0  0  0  0  0  0  0  0
   25.4193  -20.3074   -9.0338 C   0  0  0  0  0  0  0  0  0  0  0  0
   26.5048  -21.1489   -9.1611 C   0  0  0  0  0  0  0  0  0  0  0  0
   27.1817  -21.2017  -10.3653 C   0  0  0  0  0  0  0  0  0  0  0  0
   26.8062  -20.4372  -11.4497 C   0  0  0  0  0  0  0  0  0  0  0  0
   27.5459  -20.5059  -12.7395 C   0  0  0  0  0  0  0  0  0  0  0  0
   26.7402  -21.3516  -13.7274 C   0  0  2  0  0  0  0  0  0  0  0  0
   27.5093  -21.4609  -14.9625 N   0  0  0  0  0  0  0  0  0  0  0  0
   25.4454  -20.7095  -14.0073 C   0  0  0  0  0  0  0  0  0  0  0  0
   25.4002  -19.5724  -14.5321 O   0  0  0  0  0  0  0  0  0  0  0  0
   25.7037  -19.5901  -11.3025 C   0  0  0  0  0  0  0  0  0  0  0  0
   25.0393  -19.5451  -10.1043 C   0  0  0  0  0  0  0  0  0  0  0  0
   22.8783  -21.1411  -16.3554 C   0  0  0  0  0  0  0  0  0  0  0  0
   22.1828  -21.3184  -15.0513 C   0  0  1  0  0  0  0  0  0  0  0  0
   21.9227  -22.6492  -14.8154 O   0  0  0  0  0  0  0  0  0  0  0  0
   22.9415  -20.7455  -13.8750 C   0  0  2  0  0  0  0  0  0  0  0  0
   24.2266  -21.3596  -13.6913 N   0  0  0  0  0  0  0  0  0  0  0  0
   22.1271  -20.7577  -12.6316 C   0  0  0  0  0  0  0  0  0  0  0  0
   22.4829  -21.3947  -11.6068 O   0  0  0  0  0  0  0  0  0  0  0  0
   20.9300  -20.0622  -12.5453 O   0  0  0  0  0  0  0  0  0  0  0  0
  2  4  1  0
  2  1  1  1
  3  2  1  0
  4  6  1  0
  4  5  1  6
  6  7  2  0
  9 10  2  0
  9  8  1  0
 11 10  1  0
 12 11  2  0
 14 13  1  1
 13 12  1  0
 15 14  1  0
 15  6  1  0
 16 14  1  0
 16 17  2  0
 18 12  1  0
 18 19  2  0
 19  9  1  0
 21 20  1  6
 21 23  1  0
 22 21  1  0
 23 24  1  1
 23 25  1  0
 24 16  1  0
 25 26  2  0
 25 27  1  0
M  END
$$$$
