VYT.pdb
     RDKit          3D

 27 27  0  0  1  0  0  0  0  0999 V2000
   25.8394  -21.2163  -18.1781 C   0  0  0  0  0  0  0  0  0  0  0  0
   26.3241  -22.6458  -18.2625 C   0  0  1  0  0  0  0  0  0  0  0  0
   27.1712  -22.7489  -19.5339 C   0  0  0  0  0  0  0  0  0  0  0  0
   27.2025  -22.9009  -17.0544 C   0  0  2  0  0  0  0  0  0  0  0  0
   27.7347  -24.2523  -17.1450 N   0  0  0  0  0  0  0  0  0  0  0  0
   26.4126  -22.7908  -15.8034 C   0  0  0  0  0  0  0  0  0  0  0  0
   25.5051  -23.5947  -15.4955 O   0  0  0  0  0  0  0  0  0  0  0  0
   23.8280  -20.1610   -7.8581 O   0  0  0  0  0  0  0  0  0  0  0  0
   24.5266  -20.2747   -9.0558 C   0  0  0  0  0  0  0  0  0  0  0  0
   24.2743  -19.4334  -10.1194 C   0  0  0  0  0  0  0  0  0  0  0  0
   24.9957  -19.5868  -11.2887 C   0  0  0  0  0  0  0  0  0  0  0  0
   25.9645  -20.5581  -11.4284 C   0  0  0  0  0  0  0  0  0  0  0  0
   26.7324  -20.7100  -12.6944 C   0  0  0  0  0  0  0  0  0  0  0  0
   25.9001  -21.5294  -13.6824 C   0  0  2  0  0  0  0  0  0  0  0  0
   26.6910  -21.7171  -14.8942 N   0  0  0  0  0  0  0  0  0  0  0  0
   24.6550  -20.8164  -14.0112 C   0  0  0  0  0  0  0  0  0  0  0  0
   24.6934  -19.6888  -14.5566 O   0  0  0  0  0  0  0  0  0  0  0  0
   26.2067  -21.4017  -10.3401 C   0  0  0  0  0  0  0  0  0  0  0  0
   25.4860  -21.2413   -9.1852 C   0  0  0  0  0  0  0  0  0  0  0  0
   22.2360  -20.7569  -16.4058 C   0  0  0  0  0  0  0  0  0  0  0  0
   21.4451  -21.0497  -15.1792 C   0  0  1  0  0  0  0  0  0  0  0  0
   21.0947  -22.3799  -15.1320 O   0  0  0  0  0  0  0  0  0  0  0  0
   22.1538  -20.6780  -13.8958 C   0  0  2  0  0  0  0  0  0  0  0  0
   23.3907  -21.3861  -13.7197 N   0  0  0  0  0  0  0  0  0  0  0  0
   21.2602  -20.8001  -12.7142 C   0  0  0  0  0  0  0  0  0  0  0  0
   21.5353  -21.5525  -11.7443 O   0  0  0  0  0  0  0  0  0  0  0  0
   20.0749  -20.0848  -12.6280 O   0  0  0  0  0  0  0  0  0  0  0  0
  2  4  1  0
  2  1  1  1
  3  2  1  0
  4  6  1  0
  4  5  1  6
  6  7  2  0
  9 10  2  0
  9  8  1  0
 11 10  1  0
 12 11  2  0
 14 13  1  1
 13 12  1  0
 15 14  1  0
 15  6  1  0
 16 14  1  0
 16 17  2  0
 18 12  1  0
 18 19  2  0
 19  9  1  0
 21 20  1  6
 21 23  1  0
 22 21  1  0
 23 24  1  1
 23 25  1  0
 24 16  1  0
 25 26  2  0
 25 27  1  0
M  END
$$$$
