VYT.pdb
     RDKit          3D

 27 27  0  0  1  0  0  0  0  0999 V2000
   23.9083  -15.4505  -16.3414 C   0  0  0  0  0  0  0  0  0  0  0  0
   23.7481  -14.1891  -15.5236 C   0  0  1  0  0  0  0  0  0  0  0  0
   25.0663  -13.4187  -15.6403 C   0  0  0  0  0  0  0  0  0  0  0  0
   22.6360  -13.3756  -16.1543 C   0  0  2  0  0  0  0  0  0  0  0  0
   22.9948  -13.0924  -17.5358 N   0  0  0  0  0  0  0  0  0  0  0  0
   22.4644  -12.0864  -15.4405 C   0  0  0  0  0  0  0  0  0  0  0  0
   22.1359  -12.0109  -14.2359 O   0  0  0  0  0  0  0  0  0  0  0  0
   22.4975   -3.4147  -14.0646 O   0  0  0  0  0  0  0  0  0  0  0  0
   22.8097   -4.7027  -14.4878 C   0  0  0  0  0  0  0  0  0  0  0  0
   23.8113   -4.9357  -15.4071 C   0  0  0  0  0  0  0  0  0  0  0  0
   24.0835   -6.2341  -15.7958 C   0  0  0  0  0  0  0  0  0  0  0  0
   23.3835   -7.3103  -15.2928 C   0  0  0  0  0  0  0  0  0  0  0  0
   23.6891   -8.7024  -15.7218 C   0  0  0  0  0  0  0  0  0  0  0  0
   22.4437   -9.5674  -15.5186 C   0  0  2  0  0  0  0  0  0  0  0  0
   22.6820  -10.8602  -16.1518 N   0  0  0  0  0  0  0  0  0  0  0  0
   21.2724   -8.9238  -16.1357 C   0  0  0  0  0  0  0  0  0  0  0  0
   21.2573   -8.6753  -17.3639 O   0  0  0  0  0  0  0  0  0  0  0  0
   22.3718   -7.0553  -14.3621 C   0  0  0  0  0  0  0  0  0  0  0  0
   22.1097   -5.7642  -13.9832 C   0  0  0  0  0  0  0  0  0  0  0  0
   18.0842  -10.2086  -16.8032 C   0  0  0  0  0  0  0  0  0  0  0  0
   17.8027   -9.0085  -15.9688 C   0  0  1  0  0  0  0  0  0  0  0  0
   17.4751   -9.3755  -14.6833 O   0  0  0  0  0  0  0  0  0  0  0  0
   18.9440   -8.0169  -15.9256 C   0  0  2  0  0  0  0  0  0  0  0  0
   20.1407   -8.5725  -15.3587 N   0  0  0  0  0  0  0  0  0  0  0  0
   18.5469   -6.7436  -15.2695 C   0  0  0  0  0  0  0  0  0  0  0  0
   19.0796   -6.3492  -14.2003 O   0  0  0  0  0  0  0  0  0  0  0  0
   17.5642   -5.9278  -15.8108 O   0  0  0  0  0  0  0  0  0  0  0  0
  2  4  1  0
  2  1  1  6
  3  2  1  0
  4  6  1  0
  4  5  1  6
  6  7  2  0
  9 10  2  0
  9  8  1  0
 11 10  1  0
 12 11  2  0
 14 13  1  6
 13 12  1  0
 15 14  1  0
 15  6  1  0
 16 14  1  0
 16 17  2  0
 18 12  1  0
 18 19  2  0
 19  9  1  0
 21 20  1  6
 21 23  1  0
 22 21  1  0
 23 24  1  1
 23 25  1  0
 24 16  1  0
 25 26  2  0
 25 27  1  0
M  END
$$$$
