VYT.pdb
     RDKit          3D

 27 27  0  0  1  0  0  0  0  0999 V2000
   27.6853  -21.4131  -19.0629 C   0  0  0  0  0  0  0  0  0  0  0  0
   26.7098  -21.3987  -17.9080 C   0  0  1  0  0  0  0  0  0  0  0  0
   25.3898  -21.9637  -18.4399 C   0  0  0  0  0  0  0  0  0  0  0  0
   27.2554  -22.3245  -16.8395 C   0  0  2  0  0  0  0  0  0  0  0  0
   27.3179  -23.6732  -17.3824 N   0  0  0  0  0  0  0  0  0  0  0  0
   26.3623  -22.3365  -15.6549 C   0  0  0  0  0  0  0  0  0  0  0  0
   25.4813  -23.2055  -15.4725 O   0  0  0  0  0  0  0  0  0  0  0  0
   23.2630  -20.5694   -7.6614 O   0  0  0  0  0  0  0  0  0  0  0  0
   24.0523  -20.5742   -8.8070 C   0  0  0  0  0  0  0  0  0  0  0  0
   25.2256  -21.2968   -8.8700 C   0  0  0  0  0  0  0  0  0  0  0  0
   25.9750  -21.2693  -10.0314 C   0  0  0  0  0  0  0  0  0  0  0  0
   25.5870  -20.5396  -11.1352 C   0  0  0  0  0  0  0  0  0  0  0  0
   26.4055  -20.5206  -12.3783 C   0  0  0  0  0  0  0  0  0  0  0  0
   25.6620  -21.2897  -13.4719 C   0  0  2  0  0  0  0  0  0  0  0  0
   26.5038  -21.3099  -14.6636 N   0  0  0  0  0  0  0  0  0  0  0  0
   24.3849  -20.6258  -13.7809 C   0  0  0  0  0  0  0  0  0  0  0  0
   24.3642  -19.4286  -14.1505 O   0  0  0  0  0  0  0  0  0  0  0  0
   24.3951  -19.8133  -11.0533 C   0  0  0  0  0  0  0  0  0  0  0  0
   23.6593  -19.8473   -9.8972 C   0  0  0  0  0  0  0  0  0  0  0  0
   22.1672  -20.7880  -16.4470 C   0  0  0  0  0  0  0  0  0  0  0  0
   21.3144  -21.1526  -15.2828 C   0  0  1  0  0  0  0  0  0  0  0  0
   21.0851  -22.5094  -15.2534 O   0  0  0  0  0  0  0  0  0  0  0  0
   21.8848  -20.7172  -13.9513 C   0  0  2  0  0  0  0  0  0  0  0  0
   23.1560  -21.3221  -13.6678 N   0  0  0  0  0  0  0  0  0  0  0  0
   20.9111  -20.9042  -12.8438 C   0  0  0  0  0  0  0  0  0  0  0  0
   19.8052  -20.3052  -12.8191 O   0  0  0  0  0  0  0  0  0  0  0  0
   21.1807  -21.7535  -11.7807 O   0  0  0  0  0  0  0  0  0  0  0  0
  2  4  1  0
  2  1  1  6
  3  2  1  0
  4  6  1  0
  4  5  1  6
  6  7  2  0
  9 10  2  0
  9  8  1  0
 11 10  1  0
 12 11  2  0
 14 13  1  1
 13 12  1  0
 15 14  1  0
 15  6  1  0
 16 14  1  0
 16 17  2  0
 18 12  1  0
 18 19  2  0
 19  9  1  0
 21 20  1  6
 21 23  1  0
 22 21  1  0
 23 24  1  1
 23 25  1  0
 24 16  1  0
 25 26  2  0
 25 27  1  0
M  END
$$$$
