VHP.pdb
     RDKit          3D

 25 26  0  0  1  0  0  0  0  0999 V2000
   11.7324  -19.4241   20.5635 C   0  0  0  0  0  0  0  0  0  0  0  0
   11.6621  -18.3849   21.6885 C   0  0  2  0  0  0  0  0  0  0  0  0
   11.3185  -19.1441   22.9366 C   0  0  0  0  0  0  0  0  0  0  0  0
   10.6092  -17.3932   21.2652 C   0  0  2  0  0  0  0  0  0  0  0  0
   11.1184  -16.8012   20.0146 N   0  0  0  0  0  0  0  0  0  0  0  0
   10.4165  -16.2846   22.2297 C   0  0  0  0  0  0  0  0  0  0  0  0
   11.2676  -15.3335   22.3274 O   0  0  0  0  0  0  0  0  0  0  0  0
    9.3075  -16.1928   23.0937 N   0  0  0  0  0  0  0  0  0  0  0  0
    9.1717  -15.0405   24.0727 C   0  0  1  0  0  0  0  0  0  0  0  0
    7.6709  -14.8910   24.0908 C   0  0  0  0  0  0  0  0  0  0  0  0
    7.0640  -13.9381   24.9919 C   0  0  0  0  0  0  0  0  0  0  0  0
    7.4878  -13.0290   25.9119 C   0  0  0  0  0  0  0  0  0  0  0  0
    6.4679  -12.3354   26.4369 N   0  0  0  0  0  0  0  0  0  0  0  0
    5.3720  -12.8132   25.8361 C   0  0  0  0  0  0  0  0  0  0  0  0
    5.6907  -13.7560   24.9813 N   0  0  0  0  0  0  0  0  0  0  0  0
    9.5906  -15.6908   25.3643 C   0  0  0  0  0  0  0  0  0  0  0  0
    9.7457  -16.9711   25.2988 O   0  0  0  0  0  0  0  0  0  0  0  0
    9.8349  -15.1076   26.5951 N   0  0  0  0  0  0  0  0  0  0  0  0
    9.5796  -13.7881   27.1509 C   0  0  0  0  0  0  0  0  0  0  0  0
   10.8987  -13.5354   27.8844 C   0  0  0  0  0  0  0  0  0  0  0  0
   11.0603  -14.8378   28.6158 C   0  0  0  0  0  0  0  0  0  0  0  0
   10.4856  -15.8569   27.6949 C   0  0  1  0  0  0  0  0  0  0  0  0
    9.4929  -16.6975   28.3892 C   0  0  0  0  0  0  0  0  0  0  0  0
    8.2836  -16.6553   28.0857 O   0  0  0  0  0  0  0  0  0  0  0  0
    9.9189  -17.5432   29.3914 O   0  0  0  0  0  0  0  0  0  0  0  0
  2  3  1  1
  2  1  1  0
  4  2  1  0
  4  5  1  6
  6  7  2  0
  6  4  1  0
  8  6  1  0
  9 10  1  1
  9  8  1  0
 11 10  1  0
 11 15  1  0
 12 11  2  0
 13 12  1  0
 13 14  1  0
 14 15  2  0
 16  9  1  0
 17 16  2  0
 18 19  1  0
 18 16  1  0
 20 19  1  0
 21 22  1  0
 21 20  1  0
 22 18  1  0
 23 25  1  0
 22 23  1  1
 24 23  2  0
M  END
$$$$
