VHP.pdb
     RDKit          3D

 25 26  0  0  1  0  0  0  0  0999 V2000
    7.3619  -11.7179   28.1051 C   0  0  0  0  0  0  0  0  0  0  0  0
    7.6372  -12.8161   27.0713 C   0  0  2  0  0  0  0  0  0  0  0  0
    8.9946  -12.5226   26.5026 C   0  0  0  0  0  0  0  0  0  0  0  0
    6.5183  -12.7223   26.0660 C   0  0  2  0  0  0  0  0  0  0  0  0
    5.3059  -13.1281   26.8001 N   0  0  0  0  0  0  0  0  0  0  0  0
    6.6703  -13.6510   24.9210 C   0  0  0  0  0  0  0  0  0  0  0  0
    6.2331  -14.8527   24.9777 O   0  0  0  0  0  0  0  0  0  0  0  0
    7.2927  -13.2921   23.7091 N   0  0  0  0  0  0  0  0  0  0  0  0
    7.3150  -14.2461   22.5285 C   0  0  1  0  0  0  0  0  0  0  0  0
    7.6427  -13.2782   21.4190 C   0  0  0  0  0  0  0  0  0  0  0  0
    7.9203  -13.7853   20.0946 C   0  0  0  0  0  0  0  0  0  0  0  0
    7.8855  -14.9904   19.4628 C   0  0  0  0  0  0  0  0  0  0  0  0
    8.1914  -14.8826   18.1622 N   0  0  0  0  0  0  0  0  0  0  0  0
    8.4241  -13.5803   17.9627 C   0  0  0  0  0  0  0  0  0  0  0  0
    8.2721  -12.9099   19.0801 N   0  0  0  0  0  0  0  0  0  0  0  0
    8.5498  -15.0570   22.8189 C   0  0  0  0  0  0  0  0  0  0  0  0
    9.4537  -14.4382   23.5026 O   0  0  0  0  0  0  0  0  0  0  0  0
    8.8399  -16.3619   22.4617 N   0  0  0  0  0  0  0  0  0  0  0  0
    8.1332  -17.3752   21.6941 C   0  0  0  0  0  0  0  0  0  0  0  0
    8.3853  -18.6089   22.5638 C   0  0  0  0  0  0  0  0  0  0  0  0
    9.8638  -18.4824   22.7984 C   0  0  0  0  0  0  0  0  0  0  0  0
   10.1069  -17.0149   22.8651 C   0  0  1  0  0  0  0  0  0  0  0  0
   11.1933  -16.6165   21.9512 C   0  0  0  0  0  0  0  0  0  0  0  0
   10.9499  -16.0765   20.8533 O   0  0  0  0  0  0  0  0  0  0  0  0
   12.4996  -16.8492   22.3259 O   0  0  0  0  0  0  0  0  0  0  0  0
  2  3  1  6
  2  1  1  0
  4  2  1  0
  4  5  1  1
  6  7  2  0
  6  4  1  0
  8  6  1  0
  9 10  1  6
  9  8  1  0
 11 10  1  0
 11 15  1  0
 12 11  2  0
 13 12  1  0
 13 14  1  0
 14 15  2  0
 16  9  1  0
 17 16  2  0
 18 19  1  0
 18 16  1  0
 20 19  1  0
 21 22  1  0
 21 20  1  0
 22 18  1  0
 23 25  1  0
 22 23  1  6
 24 23  2  0
M  END
$$$$
