VHP.pdb
     RDKit          3D

 25 26  0  0  1  0  0  0  0  0999 V2000
    8.6469  -13.4208   18.3017 C   0  0  0  0  0  0  0  0  0  0  0  0
    7.8290  -13.5987   19.5862 C   0  0  2  0  0  0  0  0  0  0  0  0
    8.2685  -12.5051   20.5153 C   0  0  0  0  0  0  0  0  0  0  0  0
    8.1420  -14.9869   20.0824 C   0  0  2  0  0  0  0  0  0  0  0  0
    7.6040  -15.8945   19.0526 N   0  0  0  0  0  0  0  0  0  0  0  0
    7.4716  -15.3253   21.3601 C   0  0  0  0  0  0  0  0  0  0  0  0
    6.2233  -15.6053   21.4016 O   0  0  0  0  0  0  0  0  0  0  0  0
    8.1402  -15.3649   22.5996 N   0  0  0  0  0  0  0  0  0  0  0  0
    7.3887  -15.6618   23.8847 C   0  0  1  0  0  0  0  0  0  0  0  0
    7.8206  -17.0887   24.1141 C   0  0  0  0  0  0  0  0  0  0  0  0
    7.5621  -17.7110   25.3924 C   0  0  0  0  0  0  0  0  0  0  0  0
    6.8698  -17.4087   26.5247 C   0  0  0  0  0  0  0  0  0  0  0  0
    6.9108  -18.4072   27.4181 N   0  0  0  0  0  0  0  0  0  0  0  0
    7.6439  -19.3657   26.8402 C   0  0  0  0  0  0  0  0  0  0  0  0
    8.0404  -18.9856   25.6488 N   0  0  0  0  0  0  0  0  0  0  0  0
    8.1200  -14.7897   24.8704 C   0  0  0  0  0  0  0  0  0  0  0  0
    9.4046  -14.7860   24.7388 O   0  0  0  0  0  0  0  0  0  0  0  0
    7.6067  -13.9966   25.8814 N   0  0  0  0  0  0  0  0  0  0  0  0
    6.2581  -13.6770   26.3221 C   0  0  0  0  0  0  0  0  0  0  0  0
    6.3956  -12.1731   26.5696 C   0  0  0  0  0  0  0  0  0  0  0  0
    7.6675  -12.1411   27.3685 C   0  0  0  0  0  0  0  0  0  0  0  0
    8.4893  -13.2481   26.8062 C   0  0  1  0  0  0  0  0  0  0  0  0
    8.9750  -14.1415   27.8740 C   0  0  0  0  0  0  0  0  0  0  0  0
    8.5268  -15.2985   28.0035 O   0  0  0  0  0  0  0  0  0  0  0  0
    9.9431  -13.6806   28.7409 O   0  0  0  0  0  0  0  0  0  0  0  0
  2  3  1  1
  2  1  1  0
  4  2  1  0
  4  5  1  6
  6  7  2  0
  6  4  1  0
  8  6  1  0
  9 10  1  1
  9  8  1  0
 11 10  1  0
 11 15  1  0
 12 11  2  0
 13 12  1  0
 13 14  1  0
 14 15  2  0
 16  9  1  0
 17 16  2  0
 18 19  1  0
 18 16  1  0
 20 19  1  0
 21 22  1  0
 21 20  1  0
 22 18  1  0
 23 25  1  0
 22 23  1  1
 24 23  2  0
M  END
$$$$
