VHP.pdb
     RDKit          3D

 25 26  0  0  1  0  0  0  0  0999 V2000
    8.8206  -13.5626   18.3707 C   0  0  0  0  0  0  0  0  0  0  0  0
    7.9777  -13.6084   19.6505 C   0  0  2  0  0  0  0  0  0  0  0  0
    8.4041  -12.4278   20.4732 C   0  0  0  0  0  0  0  0  0  0  0  0
    8.2753  -14.9403   20.2898 C   0  0  2  0  0  0  0  0  0  0  0  0
    7.7687  -15.9460   19.3383 N   0  0  0  0  0  0  0  0  0  0  0  0
    7.5664  -15.1537   21.5737 C   0  0  0  0  0  0  0  0  0  0  0  0
    6.3044  -15.3645   21.6088 O   0  0  0  0  0  0  0  0  0  0  0  0
    8.2111  -15.1418   22.8264 N   0  0  0  0  0  0  0  0  0  0  0  0
    7.4608  -15.5025   24.0958 C   0  0  1  0  0  0  0  0  0  0  0  0
    7.8485  -16.9547   24.2225 C   0  0  0  0  0  0  0  0  0  0  0  0
    7.0170  -17.9665   23.6116 C   0  0  0  0  0  0  0  0  0  0  0  0
    5.6890  -18.1593   23.3843 C   0  0  0  0  0  0  0  0  0  0  0  0
    5.4577  -19.2844   22.6933 N   0  0  0  0  0  0  0  0  0  0  0  0
    6.6653  -19.8175   22.4754 C   0  0  0  0  0  0  0  0  0  0  0  0
    7.6017  -19.0652   23.0031 N   0  0  0  0  0  0  0  0  0  0  0  0
    8.2276  -14.7238   25.1314 C   0  0  0  0  0  0  0  0  0  0  0  0
    9.5113  -14.7667   24.9980 O   0  0  0  0  0  0  0  0  0  0  0  0
    7.7476  -13.9724   26.1895 N   0  0  0  0  0  0  0  0  0  0  0  0
    6.4156  -13.5783   26.6203 C   0  0  0  0  0  0  0  0  0  0  0  0
    6.6650  -12.1147   26.9911 C   0  0  0  0  0  0  0  0  0  0  0  0
    7.9095  -12.2498   27.8218 C   0  0  0  0  0  0  0  0  0  0  0  0
    8.6575  -13.3734   27.1934 C   0  0  1  0  0  0  0  0  0  0  0  0
    9.0362  -14.3843   28.1979 C   0  0  0  0  0  0  0  0  0  0  0  0
    8.4481  -15.4824   28.2645 O   0  0  0  0  0  0  0  0  0  0  0  0
   10.0608  -14.1013   29.0760 O   0  0  0  0  0  0  0  0  0  0  0  0
  2  3  1  1
  2  1  1  0
  4  2  1  0
  4  5  1  6
  6  7  2  0
  6  4  1  0
  8  6  1  0
  9 10  1  1
  9  8  1  0
 11 10  1  0
 11 15  1  0
 12 11  2  0
 13 12  1  0
 13 14  1  0
 14 15  2  0
 16  9  1  0
 17 16  2  0
 18 19  1  0
 18 16  1  0
 20 19  1  0
 21 22  1  0
 21 20  1  0
 22 18  1  0
 23 25  1  0
 22 23  1  1
 24 23  2  0
M  END
$$$$
