VHP.pdb
     RDKit          3D

 25 26  0  0  1  0  0  0  0  0999 V2000
    7.2886  -13.0833   19.5525 C   0  0  0  0  0  0  0  0  0  0  0  0
    8.6933  -13.6381   19.8162 C   0  0  2  0  0  0  0  0  0  0  0  0
    9.4523  -13.4795   18.5313 C   0  0  0  0  0  0  0  0  0  0  0  0
    8.4953  -15.0713   20.2380 C   0  0  2  0  0  0  0  0  0  0  0  0
    7.7245  -15.6916   19.1449 N   0  0  0  0  0  0  0  0  0  0  0  0
    7.6971  -15.2200   21.4778 C   0  0  0  0  0  0  0  0  0  0  0  0
    6.4281  -15.3824   21.4356 O   0  0  0  0  0  0  0  0  0  0  0  0
    8.2594  -15.1951   22.7694 N   0  0  0  0  0  0  0  0  0  0  0  0
    7.4049  -15.4420   23.9996 C   0  0  1  0  0  0  0  0  0  0  0  0
    7.5967  -16.9301   24.1543 C   0  0  0  0  0  0  0  0  0  0  0  0
    6.6594  -17.8347   23.5286 C   0  0  0  0  0  0  0  0  0  0  0  0
    5.5800  -17.7367   22.7053 C   0  0  0  0  0  0  0  0  0  0  0  0
    5.0990  -18.9407   22.3651 N   0  0  0  0  0  0  0  0  0  0  0  0
    5.8911  -19.8233   22.9846 C   0  0  0  0  0  0  0  0  0  0  0  0
    6.8178  -19.2031   23.6758 N   0  0  0  0  0  0  0  0  0  0  0  0
    8.2108  -14.7549   25.0698 C   0  0  0  0  0  0  0  0  0  0  0  0
    9.4880  -14.9186   24.9727 O   0  0  0  0  0  0  0  0  0  0  0  0
    7.7728  -13.9762   26.1263 N   0  0  0  0  0  0  0  0  0  0  0  0
    6.4584  -13.5779   26.6047 C   0  0  0  0  0  0  0  0  0  0  0  0
    6.7131  -12.1026   26.9218 C   0  0  0  0  0  0  0  0  0  0  0  0
    7.9943  -12.2059   27.6995 C   0  0  0  0  0  0  0  0  0  0  0  0
    8.7220  -13.3427   27.0709 C   0  0  1  0  0  0  0  0  0  0  0  0
    9.1525  -14.3215   28.0861 C   0  0  0  0  0  0  0  0  0  0  0  0
    8.5945  -15.4323   28.1917 O   0  0  0  0  0  0  0  0  0  0  0  0
   10.1924  -13.9940   28.9301 O   0  0  0  0  0  0  0  0  0  0  0  0
  2  3  1  6
  2  1  1  0
  4  2  1  0
  4  5  1  6
  6  7  2  0
  6  4  1  0
  8  6  1  0
  9 10  1  1
  9  8  1  0
 11 10  1  0
 11 15  1  0
 12 11  2  0
 13 12  1  0
 13 14  1  0
 14 15  2  0
 16  9  1  0
 17 16  2  0
 18 19  1  0
 18 16  1  0
 20 19  1  0
 21 22  1  0
 21 20  1  0
 22 18  1  0
 23 25  1  0
 22 23  1  1
 24 23  2  0
M  END
$$$$
