VHP.pdb
     RDKit          3D

 25 26  0  0  1  0  0  0  0  0999 V2000
    8.8947  -13.6501   18.4469 C   0  0  0  0  0  0  0  0  0  0  0  0
    7.9773  -13.7715   19.6692 C   0  0  2  0  0  0  0  0  0  0  0  0
    8.3048  -12.6044   20.5540 C   0  0  0  0  0  0  0  0  0  0  0  0
    8.2881  -15.1122   20.2835 C   0  0  2  0  0  0  0  0  0  0  0  0
    7.7899  -16.1049   19.3140 N   0  0  0  0  0  0  0  0  0  0  0  0
    7.5828  -15.3559   21.5638 C   0  0  0  0  0  0  0  0  0  0  0  0
    6.3482  -15.6932   21.5886 O   0  0  0  0  0  0  0  0  0  0  0  0
    8.2014  -15.2387   22.8242 N   0  0  0  0  0  0  0  0  0  0  0  0
    7.4368  -15.5354   24.1017 C   0  0  1  0  0  0  0  0  0  0  0  0
    7.7600  -16.9998   24.2633 C   0  0  0  0  0  0  0  0  0  0  0  0
    6.8302  -17.9899   23.7697 C   0  0  0  0  0  0  0  0  0  0  0  0
    5.6653  -17.9976   23.0657 C   0  0  0  0  0  0  0  0  0  0  0  0
    5.2402  -19.2439   22.8152 N   0  0  0  0  0  0  0  0  0  0  0  0
    6.1557  -20.0458   23.3709 C   0  0  0  0  0  0  0  0  0  0  0  0
    7.1027  -19.3375   23.9391 N   0  0  0  0  0  0  0  0  0  0  0  0
    8.2380  -14.7667   25.1185 C   0  0  0  0  0  0  0  0  0  0  0  0
    9.5185  -14.8640   24.9825 O   0  0  0  0  0  0  0  0  0  0  0  0
    7.7924  -13.9749   26.1620 N   0  0  0  0  0  0  0  0  0  0  0  0
    6.4741  -13.6249   26.6669 C   0  0  0  0  0  0  0  0  0  0  0  0
    6.6645  -12.1291   26.9282 C   0  0  0  0  0  0  0  0  0  0  0  0
    7.9710  -12.1438   27.6697 C   0  0  0  0  0  0  0  0  0  0  0  0
    8.7358  -13.2645   27.0565 C   0  0  1  0  0  0  0  0  0  0  0  0
    9.2431  -14.1864   28.0893 C   0  0  0  0  0  0  0  0  0  0  0  0
    8.7588  -15.3271   28.2329 O   0  0  0  0  0  0  0  0  0  0  0  0
   10.2724  -13.7710   28.9072 O   0  0  0  0  0  0  0  0  0  0  0  0
  2  3  1  1
  2  1  1  0
  4  2  1  0
  4  5  1  6
  6  7  2  0
  6  4  1  0
  8  6  1  0
  9 10  1  1
  9  8  1  0
 11 10  1  0
 11 15  1  0
 12 11  2  0
 13 12  1  0
 13 14  1  0
 14 15  2  0
 16  9  1  0
 17 16  2  0
 18 19  1  0
 18 16  1  0
 20 19  1  0
 21 22  1  0
 21 20  1  0
 22 18  1  0
 23 25  1  0
 22 23  1  1
 24 23  2  0
M  END
$$$$
