VHP.pdb
     RDKit          3D

 25 26  0  0  1  0  0  0  0  0999 V2000
    7.3045  -12.6566   19.6734 C   0  0  0  0  0  0  0  0  0  0  0  0
    8.7429  -13.1821   19.7464 C   0  0  2  0  0  0  0  0  0  0  0  0
    9.4107  -12.7476   18.4746 C   0  0  0  0  0  0  0  0  0  0  0  0
    8.6259  -14.6771   19.8972 C   0  0  2  0  0  0  0  0  0  0  0  0
    7.8775  -15.1266   18.7092 N   0  0  0  0  0  0  0  0  0  0  0  0
    7.8501  -15.0942   21.0891 C   0  0  0  0  0  0  0  0  0  0  0  0
    6.6250  -15.4522   20.9925 O   0  0  0  0  0  0  0  0  0  0  0  0
    8.3879  -15.1287   22.3908 N   0  0  0  0  0  0  0  0  0  0  0  0
    7.5535  -15.5961   23.5698 C   0  0  1  0  0  0  0  0  0  0  0  0
    8.0095  -17.0312   23.6576 C   0  0  0  0  0  0  0  0  0  0  0  0
    7.6776  -17.8103   24.8286 C   0  0  0  0  0  0  0  0  0  0  0  0
    8.3498  -18.4030   25.8531 C   0  0  0  0  0  0  0  0  0  0  0  0
    7.5164  -18.9653   26.7396 N   0  0  0  0  0  0  0  0  0  0  0  0
    6.2875  -18.7233   26.2691 C   0  0  0  0  0  0  0  0  0  0  0  0
    6.3502  -18.0460   25.1473 N   0  0  0  0  0  0  0  0  0  0  0  0
    8.1847  -14.8366   24.7063 C   0  0  0  0  0  0  0  0  0  0  0  0
    9.4695  -14.7275   24.6351 O   0  0  0  0  0  0  0  0  0  0  0  0
    7.5803  -14.2416   25.7995 N   0  0  0  0  0  0  0  0  0  0  0  0
    6.2123  -14.1964   26.2912 C   0  0  0  0  0  0  0  0  0  0  0  0
    6.1073  -12.7215   26.6858 C   0  0  0  0  0  0  0  0  0  0  0  0
    7.3815  -12.5538   27.4637 C   0  0  0  0  0  0  0  0  0  0  0  0
    8.3564  -13.4482   26.7806 C   0  0  1  0  0  0  0  0  0  0  0  0
    9.0171  -14.3459   27.7458 C   0  0  0  0  0  0  0  0  0  0  0  0
    8.7555  -15.5652   27.7795 O   0  0  0  0  0  0  0  0  0  0  0  0
    9.9403  -13.8186   28.6238 O   0  0  0  0  0  0  0  0  0  0  0  0
  2  3  1  6
  2  1  1  0
  4  2  1  0
  4  5  1  6
  6  7  2  0
  6  4  1  0
  8  6  1  0
  9 10  1  1
  9  8  1  0
 11 10  1  0
 11 15  1  0
 12 11  2  0
 13 12  1  0
 13 14  1  0
 14 15  2  0
 16  9  1  0
 17 16  2  0
 18 19  1  0
 18 16  1  0
 20 19  1  0
 21 22  1  0
 21 20  1  0
 22 18  1  0
 23 25  1  0
 22 23  1  1
 24 23  2  0
M  END
$$$$
