VHP.pdb
     RDKit          3D

 25 26  0  0  1  0  0  0  0  0999 V2000
    8.5954  -13.5458   18.2185 C   0  0  0  0  0  0  0  0  0  0  0  0
    7.7270  -13.7748   19.4611 C   0  0  2  0  0  0  0  0  0  0  0  0
    7.9508  -12.5871   20.3508 C   0  0  0  0  0  0  0  0  0  0  0  0
    8.1939  -15.0800   20.0525 C   0  0  2  0  0  0  0  0  0  0  0  0
    7.7699  -16.1128   19.0896 N   0  0  0  0  0  0  0  0  0  0  0  0
    7.5588  -15.4034   21.3519 C   0  0  0  0  0  0  0  0  0  0  0  0
    6.4356  -16.0147   21.4086 O   0  0  0  0  0  0  0  0  0  0  0  0
    8.1283  -15.0714   22.5970 N   0  0  0  0  0  0  0  0  0  0  0  0
    7.4372  -15.4413   23.8971 C   0  0  1  0  0  0  0  0  0  0  0  0
    7.8913  -16.8731   24.0340 C   0  0  0  0  0  0  0  0  0  0  0  0
    7.5886  -17.6002   25.2456 C   0  0  0  0  0  0  0  0  0  0  0  0
    6.8869  -17.3782   26.3906 C   0  0  0  0  0  0  0  0  0  0  0  0
    6.8775  -18.4551   27.1887 N   0  0  0  0  0  0  0  0  0  0  0  0
    7.5875  -19.3824   26.5359 C   0  0  0  0  0  0  0  0  0  0  0  0
    8.0182  -18.9093   25.3905 N   0  0  0  0  0  0  0  0  0  0  0  0
    8.2039  -14.6123   24.8930 C   0  0  0  0  0  0  0  0  0  0  0  0
    9.4880  -14.6704   24.7691 O   0  0  0  0  0  0  0  0  0  0  0  0
    7.7235  -13.8017   25.9062 N   0  0  0  0  0  0  0  0  0  0  0  0
    6.3892  -13.4567   26.3707 C   0  0  0  0  0  0  0  0  0  0  0  0
    6.5550  -11.9528   26.6007 C   0  0  0  0  0  0  0  0  0  0  0  0
    7.8432  -11.9333   27.3735 C   0  0  0  0  0  0  0  0  0  0  0  0
    8.6361  -13.0584   26.8058 C   0  0  1  0  0  0  0  0  0  0  0  0
    9.1293  -13.9492   27.8723 C   0  0  0  0  0  0  0  0  0  0  0  0
    8.6404  -15.0838   28.0455 O   0  0  0  0  0  0  0  0  0  0  0  0
   10.1505  -13.5111   28.6886 O   0  0  0  0  0  0  0  0  0  0  0  0
  2  3  1  1
  2  1  1  0
  4  2  1  0
  4  5  1  6
  6  7  2  0
  6  4  1  0
  8  6  1  0
  9 10  1  1
  9  8  1  0
 11 10  1  0
 11 15  1  0
 12 11  2  0
 13 12  1  0
 13 14  1  0
 14 15  2  0
 16  9  1  0
 17 16  2  0
 18 19  1  0
 18 16  1  0
 20 19  1  0
 21 22  1  0
 21 20  1  0
 22 18  1  0
 23 25  1  0
 22 23  1  1
 24 23  2  0
M  END
$$$$
