VHP.pdb
     RDKit          3D

 25 26  0  0  1  0  0  0  0  0999 V2000
    8.7343  -13.5138   18.4068 C   0  0  0  0  0  0  0  0  0  0  0  0
    7.7929  -13.7435   19.5948 C   0  0  2  0  0  0  0  0  0  0  0  0
    7.9285  -12.5349   20.4741 C   0  0  0  0  0  0  0  0  0  0  0  0
    8.2528  -15.0254   20.2402 C   0  0  2  0  0  0  0  0  0  0  0  0
    7.9020  -16.0876   19.2799 N   0  0  0  0  0  0  0  0  0  0  0  0
    7.5547  -15.3336   21.5107 C   0  0  0  0  0  0  0  0  0  0  0  0
    6.4069  -15.9001   21.5176 O   0  0  0  0  0  0  0  0  0  0  0  0
    8.0874  -15.0345   22.7802 N   0  0  0  0  0  0  0  0  0  0  0  0
    7.3708  -15.4593   24.0493 C   0  0  1  0  0  0  0  0  0  0  0  0
    7.7116  -16.9286   24.0603 C   0  0  0  0  0  0  0  0  0  0  0  0
    6.7309  -17.8875   23.6053 C   0  0  0  0  0  0  0  0  0  0  0  0
    5.5143  -17.8539   22.9959 C   0  0  0  0  0  0  0  0  0  0  0  0
    5.0518  -19.0844   22.7335 N   0  0  0  0  0  0  0  0  0  0  0  0
    5.9959  -19.9182   23.1847 C   0  0  0  0  0  0  0  0  0  0  0  0
    6.9953  -19.2439   23.7022 N   0  0  0  0  0  0  0  0  0  0  0  0
    8.2009  -14.7808   25.1063 C   0  0  0  0  0  0  0  0  0  0  0  0
    9.4772  -14.8954   24.9466 O   0  0  0  0  0  0  0  0  0  0  0  0
    7.7855  -14.0545   26.2083 N   0  0  0  0  0  0  0  0  0  0  0  0
    6.4836  -13.7602   26.7861 C   0  0  0  0  0  0  0  0  0  0  0  0
    6.6560  -12.2764   27.1185 C   0  0  0  0  0  0  0  0  0  0  0  0
    7.9933  -12.3016   27.8026 C   0  0  0  0  0  0  0  0  0  0  0  0
    8.7525  -13.3718   27.0989 C   0  0  1  0  0  0  0  0  0  0  0  0
    9.3217  -14.3354   28.0589 C   0  0  0  0  0  0  0  0  0  0  0  0
   10.2174  -13.9991   28.8595 O   0  0  0  0  0  0  0  0  0  0  0  0
    8.8487  -15.6305   28.0643 O   0  0  0  0  0  0  0  0  0  0  0  0
  2  3  1  1
  2  1  1  0
  4  2  1  0
  4  5  1  6
  6  7  2  0
  6  4  1  0
  8  6  1  0
  9 10  1  1
  9  8  1  0
 11 10  1  0
 11 15  1  0
 12 11  2  0
 13 12  1  0
 13 14  1  0
 14 15  2  0
 16  9  1  0
 17 16  2  0
 18 19  1  0
 18 16  1  0
 20 19  1  0
 21 22  1  0
 21 20  1  0
 22 18  1  0
 23 25  1  0
 22 23  1  1
 24 23  2  0
M  END
$$$$
