CNV.pdb
     RDKit          3D

 22 21  0  0  1  0  0  0  0  0999 V2000
    7.4898  -15.3455   18.6297 N   0  0  0  0  0  0  0  0  0  0  0  0
    8.1275  -14.6082   19.6763 C   0  0  1  0  0  0  0  0  0  0  0  0
    7.7442  -13.1566   19.6688 C   0  0  0  0  0  0  0  0  0  0  0  0
    8.2821  -12.3486   18.1361 S   0  0  0  0  0  0  0  0  0  0  0  0
    7.8480  -15.1562   21.0278 C   0  0  0  0  0  0  0  0  0  0  0  0
    6.6444  -15.4716   21.2655 O   0  0  0  0  0  0  0  0  0  0  0  0
   11.5832  -17.2525   24.4591 N   0  0  0  0  0  0  0  0  0  0  0  0
   10.7191  -17.1143   23.3384 C   0  0  0  0  0  0  0  0  0  0  0  0
   11.2548  -16.9313   22.2203 O   0  0  0  0  0  0  0  0  0  0  0  0
    9.2744  -17.1954   23.5715 C   0  0  0  0  0  0  0  0  0  0  0  0
    8.5390  -15.9118   23.3123 C   0  0  2  0  0  0  0  0  0  0  0  0
    8.8315  -15.3356   22.0267 N   0  0  0  0  0  0  0  0  0  0  0  0
    8.8019  -14.8983   24.3678 C   0  0  0  0  0  0  0  0  0  0  0  0
    9.9030  -14.2472   24.3738 O   0  0  0  0  0  0  0  0  0  0  0  0
    5.7243  -13.3384   26.6892 C   0  0  0  0  0  0  0  0  0  0  0  0
    7.0640  -12.6752   26.6872 C   0  0  2  0  0  0  0  0  0  0  0  0
    7.1428  -11.5152   25.7286 C   0  0  0  0  0  0  0  0  0  0  0  0
    8.1987  -13.6414   26.4367 C   0  0  2  0  0  0  0  0  0  0  0  0
    7.8989  -14.5894   25.3984 N   0  0  0  0  0  0  0  0  0  0  0  0
    8.6735  -14.2765   27.6780 C   0  0  0  0  0  0  0  0  0  0  0  0
    8.6860  -15.6458   27.7872 O   0  0  0  0  0  0  0  0  0  0  0  0
    9.0626  -13.5712   28.6262 O   0  0  0  0  0  0  0  0  0  0  0  0
  2  1  1  6
  2  5  1  0
  2  3  1  0
  3  4  1  0
  5 12  1  0
  6  5  2  0
  7  8  1  0
  8 10  1  0
  9  8  2  0
 11 10  1  1
 11 13  1  0
 12 11  1  0
 13 14  2  0
 13 19  1  0
 16 15  1  6
 16 17  1  0
 18 16  1  0
 18 20  1  0
 18 19  1  6
 20 21  1  0
 22 20  2  0
M  END
$$$$
