CNV.pdb
     RDKit          3D

 22 21  0  0  1  0  0  0  0  0999 V2000
    9.6075  -15.7047   19.2315 N   0  0  0  0  0  0  0  0  0  0  0  0
    8.3156  -15.3542   19.7353 C   0  0  1  0  0  0  0  0  0  0  0  0
    7.2042  -15.9904   18.9516 C   0  0  0  0  0  0  0  0  0  0  0  0
    7.7008  -16.2752   17.2302 S   0  0  0  0  0  0  0  0  0  0  0  0
    8.1349  -15.7041   21.1670 C   0  0  0  0  0  0  0  0  0  0  0  0
    6.9796  -15.5099   21.6488 O   0  0  0  0  0  0  0  0  0  0  0  0
   10.8069  -19.3471   22.1809 N   0  0  0  0  0  0  0  0  0  0  0  0
    9.6957  -18.9660   22.9821 C   0  0  0  0  0  0  0  0  0  0  0  0
    8.6786  -19.6968   22.9368 O   0  0  0  0  0  0  0  0  0  0  0  0
    9.8205  -17.7541   23.7969 C   0  0  0  0  0  0  0  0  0  0  0  0
    8.9367  -16.6238   23.3530 C   0  0  2  0  0  0  0  0  0  0  0  0
    9.1597  -16.2264   21.9883 N   0  0  0  0  0  0  0  0  0  0  0  0
    9.0746  -15.4329   24.2324 C   0  0  0  0  0  0  0  0  0  0  0  0
   10.0865  -14.6594   24.1131 O   0  0  0  0  0  0  0  0  0  0  0  0
    6.6404  -12.5342   24.7418 C   0  0  0  0  0  0  0  0  0  0  0  0
    7.0287  -13.0687   26.0826 C   0  0  2  0  0  0  0  0  0  0  0  0
    7.1509  -11.9924   27.1302 C   0  0  0  0  0  0  0  0  0  0  0  0
    8.2861  -13.9060   26.0410 C   0  0  2  0  0  0  0  0  0  0  0  0
    8.1428  -15.0788   25.2220 N   0  0  0  0  0  0  0  0  0  0  0  0
    8.8023  -14.2029   27.3882 C   0  0  0  0  0  0  0  0  0  0  0  0
    9.3424  -13.1980   28.1533 O   0  0  0  0  0  0  0  0  0  0  0  0
    8.7482  -15.3642   27.8313 O   0  0  0  0  0  0  0  0  0  0  0  0
  2  1  1  6
  2  5  1  0
  2  3  1  0
  3  4  1  0
  5 12  1  0
  6  5  2  0
  7  8  1  0
  8 10  1  0
  9  8  2  0
 11 10  1  1
 11 13  1  0
 12 11  1  0
 13 14  2  0
 13 19  1  0
 16 15  1  6
 16 17  1  0
 18 16  1  0
 18 20  1  0
 18 19  1  1
 20 21  1  0
 22 20  2  0
M  END
$$$$
