CNV.pdb
     RDKit          3D

 22 21  0  0  1  0  0  0  0  0999 V2000
    7.6450  -15.3983   18.4234 N   0  0  0  0  0  0  0  0  0  0  0  0
    8.0346  -14.6390   19.5711 C   0  0  1  0  0  0  0  0  0  0  0  0
    7.6571  -13.1906   19.4537 C   0  0  0  0  0  0  0  0  0  0  0  0
    8.7219  -12.3344   18.2602 S   0  0  0  0  0  0  0  0  0  0  0  0
    7.4670  -15.1666   20.8378 C   0  0  0  0  0  0  0  0  0  0  0  0
    6.2347  -15.4590   20.8196 O   0  0  0  0  0  0  0  0  0  0  0  0
    8.1149  -18.6359   25.5348 N   0  0  0  0  0  0  0  0  0  0  0  0
    7.2967  -17.7598   24.7699 C   0  0  0  0  0  0  0  0  0  0  0  0
    6.1821  -17.4495   25.2516 O   0  0  0  0  0  0  0  0  0  0  0  0
    7.8137  -17.2870   23.4826 C   0  0  0  0  0  0  0  0  0  0  0  0
    7.6262  -15.8150   23.2506 C   0  0  2  0  0  0  0  0  0  0  0  0
    8.2151  -15.3507   22.0226 N   0  0  0  0  0  0  0  0  0  0  0  0
    8.1557  -15.0033   24.3782 C   0  0  0  0  0  0  0  0  0  0  0  0
    9.4175  -14.8518   24.5243 O   0  0  0  0  0  0  0  0  0  0  0  0
    5.6858  -12.6727   27.1564 C   0  0  0  0  0  0  0  0  0  0  0  0
    7.1058  -12.3983   26.7788 C   0  0  2  0  0  0  0  0  0  0  0  0
    7.2319  -11.4037   25.6538 C   0  0  0  0  0  0  0  0  0  0  0  0
    7.8832  -13.6542   26.4590 C   0  0  2  0  0  0  0  0  0  0  0  0
    7.3449  -14.3658   25.3317 N   0  0  0  0  0  0  0  0  0  0  0  0
    8.0724  -14.5087   27.6436 C   0  0  0  0  0  0  0  0  0  0  0  0
    7.6893  -15.8274   27.6070 O   0  0  0  0  0  0  0  0  0  0  0  0
    8.5793  -14.0345   28.6761 O   0  0  0  0  0  0  0  0  0  0  0  0
  2  1  1  6
  2  5  1  0
  2  3  1  0
  3  4  1  0
  5 12  1  0
  6  5  2  0
  7  8  1  0
  8 10  1  0
  9  8  2  0
 11 10  1  1
 11 13  1  0
 12 11  1  0
 13 14  2  0
 13 19  1  0
 16 15  1  6
 16 17  1  0
 18 16  1  0
 18 20  1  0
 18 19  1  6
 20 21  1  0
 22 20  2  0
M  END
$$$$
