CNV.pdb
     RDKit          3D

 22 21  0  0  1  0  0  0  0  0999 V2000
    7.3375  -15.0724   18.6765 N   0  0  0  0  0  0  0  0  0  0  0  0
    8.1833  -14.4425   19.6427 C   0  0  1  0  0  0  0  0  0  0  0  0
    7.9970  -12.9532   19.6813 C   0  0  0  0  0  0  0  0  0  0  0  0
    8.6896  -12.1713   18.1981 S   0  0  0  0  0  0  0  0  0  0  0  0
    7.9911  -14.9713   21.0169 C   0  0  0  0  0  0  0  0  0  0  0  0
    6.7917  -15.1248   21.3944 O   0  0  0  0  0  0  0  0  0  0  0  0
    8.2020  -19.0604   22.7244 N   0  0  0  0  0  0  0  0  0  0  0  0
    9.3430  -18.2623   22.4360 C   0  0  0  0  0  0  0  0  0  0  0  0
    9.9962  -18.5470   21.4050 O   0  0  0  0  0  0  0  0  0  0  0  0
    9.6693  -17.1723   23.3598 C   0  0  0  0  0  0  0  0  0  0  0  0
    8.8392  -15.9357   23.1658 C   0  0  2  0  0  0  0  0  0  0  0  0
    9.0506  -15.2998   21.8925 N   0  0  0  0  0  0  0  0  0  0  0  0
    9.0646  -14.9404   24.2470 C   0  0  0  0  0  0  0  0  0  0  0  0
   10.1749  -14.3090   24.3183 O   0  0  0  0  0  0  0  0  0  0  0  0
    6.0192  -13.6221   27.1125 C   0  0  0  0  0  0  0  0  0  0  0  0
    7.2269  -12.8552   26.6792 C   0  0  2  0  0  0  0  0  0  0  0  0
    6.9418  -11.9026   25.5470 C   0  0  0  0  0  0  0  0  0  0  0  0
    8.3974  -13.7465   26.3335 C   0  0  2  0  0  0  0  0  0  0  0  0
    8.1150  -14.6285   25.2339 N   0  0  0  0  0  0  0  0  0  0  0  0
    8.9304  -14.4484   27.5136 C   0  0  0  0  0  0  0  0  0  0  0  0
    8.9672  -15.8214   27.5372 O   0  0  0  0  0  0  0  0  0  0  0  0
    9.3469  -13.7961   28.4878 O   0  0  0  0  0  0  0  0  0  0  0  0
  2  1  1  6
  2  5  1  0
  2  3  1  0
  3  4  1  0
  5 12  1  0
  6  5  2  0
  7  8  1  0
  8 10  1  0
  9  8  2  0
 11 10  1  1
 11 13  1  0
 12 11  1  0
 13 14  2  0
 13 19  1  0
 16 15  1  6
 16 17  1  0
 18 16  1  0
 18 20  1  0
 18 19  1  6
 20 21  1  0
 22 20  2  0
M  END
$$$$
