CNV.pdb
     RDKit          3D

 22 21  0  0  1  0  0  0  0  0999 V2000
    7.9230  -14.9653   18.3966 N   0  0  0  0  0  0  0  0  0  0  0  0
    8.8172  -14.6899   19.4784 C   0  0  1  0  0  0  0  0  0  0  0  0
    9.2202  -13.2446   19.5333 C   0  0  0  0  0  0  0  0  0  0  0  0
    7.7687  -12.1693   19.7003 S   0  0  0  0  0  0  0  0  0  0  0  0
    8.2625  -15.0689   20.8026 C   0  0  0  0  0  0  0  0  0  0  0  0
    7.0076  -14.9586   20.9357 O   0  0  0  0  0  0  0  0  0  0  0  0
    9.4944  -19.0763   21.9151 N   0  0  0  0  0  0  0  0  0  0  0  0
    8.4842  -18.3890   22.6425 C   0  0  0  0  0  0  0  0  0  0  0  0
    7.2975  -18.7422   22.4490 O   0  0  0  0  0  0  0  0  0  0  0  0
    8.9024  -17.3247   23.5592 C   0  0  0  0  0  0  0  0  0  0  0  0
    8.4734  -15.9488   23.1368 C   0  0  2  0  0  0  0  0  0  0  0  0
    9.0456  -15.5314   21.8844 N   0  0  0  0  0  0  0  0  0  0  0  0
    8.7816  -14.9284   24.1734 C   0  0  0  0  0  0  0  0  0  0  0  0
    9.9781  -14.4993   24.3173 O   0  0  0  0  0  0  0  0  0  0  0  0
    5.8564  -13.2399   27.0584 C   0  0  0  0  0  0  0  0  0  0  0  0
    7.0500  -12.5492   26.4816 C   0  0  2  0  0  0  0  0  0  0  0  0
    6.7095  -11.6782   25.3000 C   0  0  0  0  0  0  0  0  0  0  0  0
    8.1673  -13.5027   26.1264 C   0  0  2  0  0  0  0  0  0  0  0  0
    7.8224  -14.3786   25.0398 N   0  0  0  0  0  0  0  0  0  0  0  0
    8.6822  -14.2208   27.3048 C   0  0  0  0  0  0  0  0  0  0  0  0
    8.6172  -15.5920   27.3557 O   0  0  0  0  0  0  0  0  0  0  0  0
    9.1757  -13.5838   28.2528 O   0  0  0  0  0  0  0  0  0  0  0  0
  2  1  1  6
  2  5  1  0
  2  3  1  0
  3  4  1  0
  5 12  1  0
  6  5  2  0
  7  8  1  0
  8 10  1  0
  9  8  2  0
 11 10  1  1
 11 13  1  0
 12 11  1  0
 13 14  2  0
 13 19  1  0
 16 15  1  6
 16 17  1  0
 18 16  1  0
 18 20  1  0
 18 19  1  6
 20 21  1  0
 22 20  2  0
M  END
$$$$
