CNV.pdb
     RDKit          3D

 22 21  0  0  1  0  0  0  0  0999 V2000
    8.5528  -15.1768   17.9282 N   0  0  0  0  0  0  0  0  0  0  0  0
    9.0428  -14.7460   19.2010 C   0  0  1  0  0  0  0  0  0  0  0  0
    9.4081  -13.2898   19.2101 C   0  0  0  0  0  0  0  0  0  0  0  0
    7.9545  -12.2514   18.8939 S   0  0  0  0  0  0  0  0  0  0  0  0
    8.0835  -14.9921   20.3074 C   0  0  0  0  0  0  0  0  0  0  0  0
    6.9206  -15.3621   19.9676 O   0  0  0  0  0  0  0  0  0  0  0  0
    6.4559  -17.0911   24.6176 N   0  0  0  0  0  0  0  0  0  0  0  0
    7.1880  -17.8176   23.6389 C   0  0  0  0  0  0  0  0  0  0  0  0
    7.2084  -19.0660   23.7476 O   0  0  0  0  0  0  0  0  0  0  0  0
    7.8609  -17.0581   22.5814 C   0  0  0  0  0  0  0  0  0  0  0  0
    7.7274  -15.5683   22.7175 C   0  0  2  0  0  0  0  0  0  0  0  0
    8.3992  -14.8371   21.6762 N   0  0  0  0  0  0  0  0  0  0  0  0
    8.2122  -15.0857   24.0376 C   0  0  0  0  0  0  0  0  0  0  0  0
    9.4180  -15.3104   24.4009 O   0  0  0  0  0  0  0  0  0  0  0  0
    5.7314  -13.0012   27.0179 C   0  0  0  0  0  0  0  0  0  0  0  0
    7.1250  -12.6165   26.6382 C   0  0  2  0  0  0  0  0  0  0  0  0
    7.1706  -11.4922   25.6359 C   0  0  0  0  0  0  0  0  0  0  0  0
    7.9470  -13.7875   26.1514 C   0  0  2  0  0  0  0  0  0  0  0  0
    7.4167  -14.3746   24.9511 N   0  0  0  0  0  0  0  0  0  0  0  0
    8.1943  -14.7750   27.2159 C   0  0  0  0  0  0  0  0  0  0  0  0
    8.9898  -14.4459   28.2863 O   0  0  0  0  0  0  0  0  0  0  0  0
    7.6818  -15.9064   27.1438 O   0  0  0  0  0  0  0  0  0  0  0  0
  2  1  1  6
  2  5  1  0
  2  3  1  0
  3  4  1  0
  5 12  1  0
  6  5  2  0
  7  8  1  0
  8 10  1  0
  9  8  2  0
 11 10  1  6
 11 13  1  0
 12 11  1  0
 13 14  2  0
 13 19  1  0
 16 15  1  6
 16 17  1  0
 18 16  1  0
 18 20  1  0
 18 19  1  6
 20 21  1  0
 22 20  2  0
M  END
$$$$
