CNV.pdb
     RDKit          3D

 22 21  0  0  1  0  0  0  0  0999 V2000
    7.6918  -15.4612   18.3917 N   0  0  0  0  0  0  0  0  0  0  0  0
    8.5305  -15.2293   19.5268 C   0  0  1  0  0  0  0  0  0  0  0  0
    9.2075  -13.8902   19.4736 C   0  0  0  0  0  0  0  0  0  0  0  0
    7.9904  -12.5450   19.4602 S   0  0  0  0  0  0  0  0  0  0  0  0
    7.8042  -15.3326   20.8178 C   0  0  0  0  0  0  0  0  0  0  0  0
    6.5734  -15.0340   20.7925 O   0  0  0  0  0  0  0  0  0  0  0  0
    6.2605  -19.0263   22.4844 N   0  0  0  0  0  0  0  0  0  0  0  0
    6.2716  -17.9499   23.4136 C   0  0  0  0  0  0  0  0  0  0  0  0
    5.1735  -17.6144   23.9157 O   0  0  0  0  0  0  0  0  0  0  0  0
    7.5584  -17.3159   23.7140 C   0  0  0  0  0  0  0  0  0  0  0  0
    7.6607  -15.8898   23.2542 C   0  0  2  0  0  0  0  0  0  0  0  0
    8.4044  -15.7356   22.0321 N   0  0  0  0  0  0  0  0  0  0  0  0
    8.2553  -15.0117   24.2963 C   0  0  0  0  0  0  0  0  0  0  0  0
    9.5257  -14.9371   24.4259 O   0  0  0  0  0  0  0  0  0  0  0  0
    5.9433  -12.8989   27.3874 C   0  0  0  0  0  0  0  0  0  0  0  0
    7.1736  -12.3550   26.7355 C   0  0  2  0  0  0  0  0  0  0  0  0
    6.8686  -11.3669   25.6394 C   0  0  0  0  0  0  0  0  0  0  0  0
    8.0968  -13.4371   26.2250 C   0  0  2  0  0  0  0  0  0  0  0  0
    7.4994  -14.2278   25.1835 N   0  0  0  0  0  0  0  0  0  0  0  0
    8.6583  -14.2508   27.3168 C   0  0  0  0  0  0  0  0  0  0  0  0
    8.4031  -15.5995   27.3689 O   0  0  0  0  0  0  0  0  0  0  0  0
    9.3633  -13.7148   28.1907 O   0  0  0  0  0  0  0  0  0  0  0  0
  2  1  1  6
  2  5  1  0
  2  3  1  0
  3  4  1  0
  5 12  1  0
  6  5  2  0
  7  8  1  0
  8 10  1  0
  9  8  2  0
 11 10  1  1
 11 13  1  0
 12 11  1  0
 13 14  2  0
 13 19  1  0
 16 15  1  6
 16 17  1  0
 18 16  1  0
 18 20  1  0
 18 19  1  6
 20 21  1  0
 22 20  2  0
M  END
$$$$
