CNV.pdb
     RDKit          3D

 22 21  0  0  1  0  0  0  0  0999 V2000
    7.8689  -15.0264   18.3749 N   0  0  0  0  0  0  0  0  0  0  0  0
    8.4076  -14.3462   19.5119 C   0  0  1  0  0  0  0  0  0  0  0  0
    7.9420  -12.9216   19.5996 C   0  0  0  0  0  0  0  0  0  0  0  0
    8.5399  -11.9526   18.1872 S   0  0  0  0  0  0  0  0  0  0  0  0
    8.0903  -15.0194   20.7968 C   0  0  0  0  0  0  0  0  0  0  0  0
    6.8987  -15.4262   20.9358 O   0  0  0  0  0  0  0  0  0  0  0  0
   10.1339  -18.5501   21.2805 N   0  0  0  0  0  0  0  0  0  0  0  0
    9.0880  -18.1850   22.1719 C   0  0  0  0  0  0  0  0  0  0  0  0
    7.9696  -18.7220   21.9944 O   0  0  0  0  0  0  0  0  0  0  0  0
    9.3926  -17.2136   23.2263 C   0  0  0  0  0  0  0  0  0  0  0  0
    8.6947  -15.8937   23.0634 C   0  0  2  0  0  0  0  0  0  0  0  0
    9.0266  -15.2197   21.8363 N   0  0  0  0  0  0  0  0  0  0  0  0
    8.9622  -14.9796   24.2051 C   0  0  0  0  0  0  0  0  0  0  0  0
   10.1028  -14.4121   24.3207 O   0  0  0  0  0  0  0  0  0  0  0  0
    5.9521  -13.4299   27.0038 C   0  0  0  0  0  0  0  0  0  0  0  0
    7.2621  -12.8226   26.6169 C   0  0  2  0  0  0  0  0  0  0  0  0
    7.1458  -11.8662   25.4583 C   0  0  0  0  0  0  0  0  0  0  0  0
    8.3307  -13.8548   26.3406 C   0  0  2  0  0  0  0  0  0  0  0  0
    8.0219  -14.6802   25.2047 N   0  0  0  0  0  0  0  0  0  0  0  0
    8.6769  -14.6333   27.5421 C   0  0  0  0  0  0  0  0  0  0  0  0
    9.1528  -13.9939   28.6608 O   0  0  0  0  0  0  0  0  0  0  0  0
    8.5375  -15.8697   27.5417 O   0  0  0  0  0  0  0  0  0  0  0  0
  2  1  1  6
  2  5  1  0
  2  3  1  0
  3  4  1  0
  5 12  1  0
  6  5  2  0
  7  8  1  0
  8 10  1  0
  9  8  2  0
 11 10  1  1
 11 13  1  0
 12 11  1  0
 13 14  2  0
 13 19  1  0
 16 15  1  6
 16 17  1  0
 18 16  1  0
 18 20  1  0
 18 19  1  6
 20 21  1  0
 22 20  2  0
M  END
$$$$
