DTM.pdb
     RDKit          3D

 24 23  0  0  1  0  0  0  0  0999 V2000
   26.0567  -18.2642  -16.3637 N   0  0  0  0  0  0  0  0  0  0  0  0
   26.3347  -17.9126  -14.9979 C   0  0  1  0  0  0  0  0  0  0  0  0
   26.1796  -16.4435  -14.7529 C   0  0  0  0  0  0  0  0  0  0  0  0
   27.1201  -15.6660  -15.5863 C   0  0  0  0  0  0  0  0  0  0  0  0
   27.8703  -16.1711  -16.4583 O   0  0  0  0  0  0  0  0  0  0  0  0
   25.4838  -18.6678  -14.0645 C   0  0  0  0  0  0  0  0  0  0  0  0
   24.2779  -18.9324  -14.4042 O   0  0  0  0  0  0  0  0  0  0  0  0
   27.2205  -14.2760  -15.4344 O   0  0  0  0  0  0  0  0  0  0  0  0
   24.6002  -21.0266  -14.2587 C   0  0  0  0  0  0  0  0  0  0  0  0
   25.1624  -21.3534  -12.8988 C   0  0  1  0  0  0  0  0  0  0  0  0
   26.5138  -21.7354  -13.0615 O   0  0  0  0  0  0  0  0  0  0  0  0
   25.1969  -20.1068  -12.0469 C   0  0  2  0  0  0  0  0  0  0  0  0
   25.9549  -19.1033  -12.8143 N   0  0  0  0  0  0  0  0  0  0  0  0
   25.8471  -20.2770  -10.7373 C   0  0  0  0  0  0  0  0  0  0  0  0
   27.1068  -20.0859  -10.6799 O   0  0  0  0  0  0  0  0  0  0  0  0
   28.7248  -18.8277   -4.3562 C   0  0  0  0  0  0  0  0  0  0  0  0
   27.8988  -18.4352   -5.9407 S   0  0  0  0  0  0  0  0  0  0  0  0
   27.1612  -20.0203   -6.5176 C   0  0  0  0  0  0  0  0  0  0  0  0
   26.5478  -19.7922   -7.8659 C   0  0  0  0  0  0  0  0  0  0  0  0
   25.9089  -21.0440   -8.4054 C   0  0  2  0  0  0  0  0  0  0  0  0
   25.1259  -20.6338   -9.5750 N   0  0  0  0  0  0  0  0  0  0  0  0
   24.9858  -21.6048   -7.4050 C   0  0  0  0  0  0  0  0  0  0  0  0
   23.7452  -21.6427   -7.5634 O   0  0  0  0  0  0  0  0  0  0  0  0
   25.4886  -22.1232   -6.2209 O   0  0  0  0  0  0  0  0  0  0  0  0
  2  1  1  6
  2  3  1  0
  3  4  1  0
  4  5  2  0
  4  8  1  0
  6 13  1  0
  6  2  1  0
  7  6  2  0
 10  9  1  6
 10 12  1  0
 11 10  1  0
 12 13  1  6
 12 14  1  0
 14 21  1  0
 14 15  2  0
 17 16  1  0
 17 18  1  0
 18 19  1  0
 20 19  1  1
 21 20  1  0
 22 20  1  0
 22 24  1  0
 23 22  2  0
M  END
$$$$
