DTM.pdb
     RDKit          3D

 24 23  0  0  1  0  0  0  0  0999 V2000
   24.1931  -36.3164  -11.5041 N   0  0  0  0  0  0  0  0  0  0  0  0
   23.5711  -35.8997  -10.2769 C   0  0  1  0  0  0  0  0  0  0  0  0
   22.8274  -37.0186   -9.6156 C   0  0  0  0  0  0  0  0  0  0  0  0
   21.6113  -37.3691  -10.3784 C   0  0  0  0  0  0  0  0  0  0  0  0
   21.3392  -36.9132  -11.5170 O   0  0  0  0  0  0  0  0  0  0  0  0
   24.5550  -35.3317   -9.3415 C   0  0  0  0  0  0  0  0  0  0  0  0
   25.6988  -35.8962   -9.2301 O   0  0  0  0  0  0  0  0  0  0  0  0
   20.6709  -38.2609   -9.8440 O   0  0  0  0  0  0  0  0  0  0  0  0
   25.5067  -31.6087   -8.9200 C   0  0  0  0  0  0  0  0  0  0  0  0
   25.1119  -32.1850   -7.5842 C   0  0  1  0  0  0  0  0  0  0  0  0
   23.7292  -31.9564   -7.3978 O   0  0  0  0  0  0  0  0  0  0  0  0
   25.2713  -33.6867   -7.6081 C   0  0  2  0  0  0  0  0  0  0  0  0
   24.2748  -34.1923   -8.5681 N   0  0  0  0  0  0  0  0  0  0  0  0
   25.0443  -34.3479   -6.3127 C   0  0  0  0  0  0  0  0  0  0  0  0
   24.3968  -35.4467   -6.3219 O   0  0  0  0  0  0  0  0  0  0  0  0
   26.8809  -39.1762   -1.5130 C   0  0  0  0  0  0  0  0  0  0  0  0
   27.1866  -38.1062   -2.9652 S   0  0  0  0  0  0  0  0  0  0  0  0
   26.0953  -36.6413   -2.7362 C   0  0  0  0  0  0  0  0  0  0  0  0
   26.1414  -35.8182   -3.9878 C   0  0  0  0  0  0  0  0  0  0  0  0
   25.2734  -34.5930   -3.8802 C   0  0  2  0  0  0  0  0  0  0  0  0
   25.5178  -33.8090   -5.0948 N   0  0  0  0  0  0  0  0  0  0  0  0
   25.6876  -33.7877   -2.7194 C   0  0  0  0  0  0  0  0  0  0  0  0
   26.5129  -32.8504   -2.7957 O   0  0  0  0  0  0  0  0  0  0  0  0
   25.1526  -34.0595   -1.4689 O   0  0  0  0  0  0  0  0  0  0  0  0
  2  1  1  6
  2  3  1  0
  3  4  1  0
  4  5  2  0
  4  8  1  0
  6 13  1  0
  6  2  1  0
  7  6  2  0
 10  9  1  6
 10 12  1  0
 11 10  1  0
 12 13  1  6
 12 14  1  0
 14 21  1  0
 14 15  2  0
 17 16  1  0
 17 18  1  0
 18 19  1  0
 20 19  1  6
 21 20  1  0
 22 20  1  0
 22 24  1  0
 23 22  2  0
M  END
$$$$
