DTM.pdb
     RDKit          3D

 24 23  0  0  1  0  0  0  0  0999 V2000
   19.9630  -11.9648  -20.0686 N   0  0  0  0  0  0  0  0  0  0  0  0
   19.4322  -11.1537  -19.0071 C   0  0  1  0  0  0  0  0  0  0  0  0
   19.0030  -11.9765  -17.8319 C   0  0  0  0  0  0  0  0  0  0  0  0
   17.5489  -12.2368  -17.8712 C   0  0  0  0  0  0  0  0  0  0  0  0
   16.8274  -12.0481  -18.8822 O   0  0  0  0  0  0  0  0  0  0  0  0
   20.3999  -10.1324  -18.5757 C   0  0  0  0  0  0  0  0  0  0  0  0
   21.6493  -10.4095  -18.6156 O   0  0  0  0  0  0  0  0  0  0  0  0
   16.8845  -12.7251  -16.7373 O   0  0  0  0  0  0  0  0  0  0  0  0
   20.9441   -7.0949  -20.0728 C   0  0  0  0  0  0  0  0  0  0  0  0
   20.7855   -6.6744  -18.6340 C   0  0  1  0  0  0  0  0  0  0  0  0
   19.4411   -6.2846  -18.4352 O   0  0  0  0  0  0  0  0  0  0  0  0
   20.9975   -7.8636  -17.7276 C   0  0  2  0  0  0  0  0  0  0  0  0
   19.9927   -8.8667  -18.1209 N   0  0  0  0  0  0  0  0  0  0  0  0
   20.8309   -7.5784  -16.2931 C   0  0  0  0  0  0  0  0  0  0  0  0
   19.9861   -8.2850  -15.6500 O   0  0  0  0  0  0  0  0  0  0  0  0
   22.5927   -9.2440   -9.6871 C   0  0  0  0  0  0  0  0  0  0  0  0
   22.6302   -9.3449  -11.5134 S   0  0  0  0  0  0  0  0  0  0  0  0
   21.9520   -7.7404  -12.1094 C   0  0  0  0  0  0  0  0  0  0  0  0
   21.9364   -7.7621  -13.6078 C   0  0  0  0  0  0  0  0  0  0  0  0
   21.4072   -6.4730  -14.1774 C   0  0  2  0  0  0  0  0  0  0  0  0
   21.5683   -6.5702  -15.6314 N   0  0  0  0  0  0  0  0  0  0  0  0
   22.2201   -5.3436  -13.6969 C   0  0  0  0  0  0  0  0  0  0  0  0
   23.1048   -4.7931  -14.3897 O   0  0  0  0  0  0  0  0  0  0  0  0
   22.0163   -4.8455  -12.4186 O   0  0  0  0  0  0  0  0  0  0  0  0
  2  1  1  6
  2  3  1  0
  3  4  1  0
  4  5  2  0
  4  8  1  0
  6 13  1  0
  6  2  1  0
  7  6  2  0
 10  9  1  6
 10 12  1  0
 11 10  1  0
 12 13  1  6
 12 14  1  0
 14 21  1  0
 14 15  2  0
 17 16  1  0
 17 18  1  0
 18 19  1  0
 20 19  1  1
 21 20  1  0
 22 20  1  0
 22 24  1  0
 23 22  2  0
M  END
$$$$
