DTM.pdb
     RDKit          3D

 24 23  0  0  1  0  0  0  0  0999 V2000
   16.1386  -10.5149  -10.0505 N   0  0  0  0  0  0  0  0  0  0  0  0
   15.1053   -9.8739  -10.8172 C   0  0  1  0  0  0  0  0  0  0  0  0
   13.7731   -9.9481  -10.1375 C   0  0  0  0  0  0  0  0  0  0  0  0
   13.3837  -11.3516   -9.8884 C   0  0  0  0  0  0  0  0  0  0  0  0
   13.0495  -11.7999   -8.7635 O   0  0  0  0  0  0  0  0  0  0  0  0
   15.4420   -8.4707  -11.1056 C   0  0  0  0  0  0  0  0  0  0  0  0
   14.5192   -7.6874  -11.5232 O   0  0  0  0  0  0  0  0  0  0  0  0
   13.3695  -12.2811  -10.9379 O   0  0  0  0  0  0  0  0  0  0  0  0
   14.7498   -6.0946  -10.3062 C   0  0  0  0  0  0  0  0  0  0  0  0
   16.2149   -5.7826  -10.1379 C   0  0  1  0  0  0  0  0  0  0  0  0
   16.6319   -6.2905   -8.8861 O   0  0  0  0  0  0  0  0  0  0  0  0
   17.0202   -6.5395  -11.1672 C   0  0  2  0  0  0  0  0  0  0  0  0
   16.7437   -7.9683  -10.9384 N   0  0  0  0  0  0  0  0  0  0  0  0
   18.4747   -6.3295  -11.0830 C   0  0  0  0  0  0  0  0  0  0  0  0
   19.1225   -7.0468  -10.2509 O   0  0  0  0  0  0  0  0  0  0  0  0
   22.8275   -9.8717  -12.7840 C   0  0  0  0  0  0  0  0  0  0  0  0
   22.0754   -8.8807  -14.1254 S   0  0  0  0  0  0  0  0  0  0  0  0
   22.0058   -7.1563  -13.4842 C   0  0  0  0  0  0  0  0  0  0  0  0
   20.6371   -6.9166  -12.9227 C   0  0  0  0  0  0  0  0  0  0  0  0
   20.5702   -5.6252  -12.1519 C   0  0  2  0  0  0  0  0  0  0  0  0
   19.1498   -5.3803  -11.8839 N   0  0  0  0  0  0  0  0  0  0  0  0
   21.0809   -4.5213  -12.9814 C   0  0  0  0  0  0  0  0  0  0  0  0
   20.3477   -3.8167  -13.7104 O   0  0  0  0  0  0  0  0  0  0  0  0
   22.4361   -4.2261  -12.9732 O   0  0  0  0  0  0  0  0  0  0  0  0
  2  1  1  1
  2  3  1  0
  3  4  1  0
  4  5  2  0
  4  8  1  0
  6 13  1  0
  6  2  1  0
  7  6  2  0
 10  9  1  6
 10 12  1  0
 11 10  1  0
 12 13  1  1
 12 14  1  0
 14 21  1  0
 14 15  2  0
 17 16  1  0
 17 18  1  0
 18 19  1  0
 20 19  1  6
 21 20  1  0
 22 20  1  0
 22 24  1  0
 23 22  2  0
M  END
$$$$
