DTM.pdb
     RDKit          3D

 24 23  0  0  1  0  0  0  0  0999 V2000
   26.5649  -20.4470  -16.5497 N   0  0  0  0  0  0  0  0  0  0  0  0
   26.7850  -21.1701  -15.3271 C   0  0  1  0  0  0  0  0  0  0  0  0
   28.2347  -21.4736  -15.1068 C   0  0  0  0  0  0  0  0  0  0  0  0
   28.7186  -22.4772  -16.0776 C   0  0  0  0  0  0  0  0  0  0  0  0
   28.0176  -22.9544  -17.0045 O   0  0  0  0  0  0  0  0  0  0  0  0
   26.2447  -20.4427  -14.1676 C   0  0  0  0  0  0  0  0  0  0  0  0
   26.4454  -19.1810  -14.0818 O   0  0  0  0  0  0  0  0  0  0  0  0
   30.0328  -22.9598  -16.0040 O   0  0  0  0  0  0  0  0  0  0  0  0
   23.0316  -19.6193  -13.3708 C   0  0  0  0  0  0  0  0  0  0  0  0
   23.4734  -20.3830  -12.1486 C   0  0  1  0  0  0  0  0  0  0  0  0
   23.1697  -21.7490  -12.3497 O   0  0  0  0  0  0  0  0  0  0  0  0
   24.9771  -20.3199  -12.0224 C   0  0  2  0  0  0  0  0  0  0  0  0
   25.5190  -21.0916  -13.1542 N   0  0  0  0  0  0  0  0  0  0  0  0
   25.5119  -20.8892  -10.7747 C   0  0  0  0  0  0  0  0  0  0  0  0
   25.8599  -22.1160  -10.7930 O   0  0  0  0  0  0  0  0  0  0  0  0
   29.4679  -19.0751   -6.1545 C   0  0  0  0  0  0  0  0  0  0  0  0
   27.9706  -19.3526   -5.1406 S   0  0  0  0  0  0  0  0  0  0  0  0
   26.9294  -20.5218   -6.1093 C   0  0  0  0  0  0  0  0  0  0  0  0
   26.6788  -19.9226   -7.4600 C   0  0  0  0  0  0  0  0  0  0  0  0
   25.9129  -20.8626   -8.3522 C   0  0  2  0  0  0  0  0  0  0  0  0
   25.6477  -20.1267   -9.5922 N   0  0  0  0  0  0  0  0  0  0  0  0
   24.6220  -21.2009   -7.7306 C   0  0  0  0  0  0  0  0  0  0  0  0
   23.5361  -20.6918   -8.0871 O   0  0  0  0  0  0  0  0  0  0  0  0
   24.5784  -22.1259   -6.6980 O   0  0  0  0  0  0  0  0  0  0  0  0
  2  1  1  6
  2  3  1  0
  3  4  1  0
  4  5  2  0
  4  8  1  0
  6 13  1  0
  6  2  1  0
  7  6  2  0
 10  9  1  6
 10 12  1  0
 11 10  1  0
 12 13  1  6
 12 14  1  0
 14 21  1  0
 14 15  2  0
 17 16  1  0
 17 18  1  0
 18 19  1  0
 20 19  1  1
 21 20  1  0
 22 20  1  0
 22 24  1  0
 23 22  2  0
M  END
$$$$
