DTM.pdb
     RDKit          3D

 24 23  0  0  1  0  0  0  0  0999 V2000
   15.5692  -10.7880  -11.4685 N   0  0  0  0  0  0  0  0  0  0  0  0
   15.2215   -9.8955  -12.5404 C   0  0  1  0  0  0  0  0  0  0  0  0
   13.8970   -9.2346  -12.3142 C   0  0  0  0  0  0  0  0  0  0  0  0
   12.8252  -10.2390  -12.1530 C   0  0  0  0  0  0  0  0  0  0  0  0
   12.7295  -11.2830  -12.8452 O   0  0  0  0  0  0  0  0  0  0  0  0
   16.2607   -8.8746  -12.7483 C   0  0  0  0  0  0  0  0  0  0  0  0
   16.6994   -8.2247  -11.7359 O   0  0  0  0  0  0  0  0  0  0  0  0
   11.8289  -10.0642  -11.1822 O   0  0  0  0  0  0  0  0  0  0  0  0
   19.5915   -9.3106  -13.5695 C   0  0  0  0  0  0  0  0  0  0  0  0
   19.0730   -8.4213  -14.6706 C   0  0  1  0  0  0  0  0  0  0  0  0
   18.5683   -9.2464  -15.7017 O   0  0  0  0  0  0  0  0  0  0  0  0
   17.8872   -7.6296  -14.1726 C   0  0  2  0  0  0  0  0  0  0  0  0
   16.7820   -8.5921  -14.0223 N   0  0  0  0  0  0  0  0  0  0  0  0
   17.4455   -6.5539  -15.0751 C   0  0  0  0  0  0  0  0  0  0  0  0
   16.2781   -6.6547  -15.5787 O   0  0  0  0  0  0  0  0  0  0  0  0
   14.0544   -0.4375  -16.2433 C   0  0  0  0  0  0  0  0  0  0  0  0
   14.8009   -1.7347  -15.1912 S   0  0  0  0  0  0  0  0  0  0  0  0
   16.0904   -2.5335  -16.2346 C   0  0  0  0  0  0  0  0  0  0  0  0
   16.6205   -3.7266  -15.4987 C   0  0  0  0  0  0  0  0  0  0  0  0
   17.6972   -4.4298  -16.2813 C   0  0  2  0  0  0  0  0  0  0  0  0
   18.2621   -5.4421  -15.3839 N   0  0  0  0  0  0  0  0  0  0  0  0
   18.7631   -3.4769  -16.6322 C   0  0  0  0  0  0  0  0  0  0  0  0
   18.7884   -2.8450  -17.7118 O   0  0  0  0  0  0  0  0  0  0  0  0
   19.8015   -3.2493  -15.7413 O   0  0  0  0  0  0  0  0  0  0  0  0
  2  1  1  1
  2  3  1  0
  3  4  1  0
  4  5  2  0
  4  8  1  0
  6 13  1  0
  6  2  1  0
  7  6  2  0
 10  9  1  1
 10 12  1  0
 11 10  1  0
 12 13  1  6
 12 14  1  0
 14 21  1  0
 14 15  2  0
 17 16  1  0
 17 18  1  0
 18 19  1  0
 20 19  1  1
 21 20  1  0
 22 20  1  0
 22 24  1  0
 23 22  2  0
M  END
$$$$
