DTM.pdb
     RDKit          3D

 24 23  0  0  1  0  0  0  0  0999 V2000
   19.1620  -12.9454  -15.9283 N   0  0  0  0  0  0  0  0  0  0  0  0
   19.1909  -11.5788  -16.3731 C   0  0  1  0  0  0  0  0  0  0  0  0
   17.8234  -10.9697  -16.4071 C   0  0  0  0  0  0  0  0  0  0  0  0
   16.9506  -11.6821  -17.3634 C   0  0  0  0  0  0  0  0  0  0  0  0
   15.7699  -11.3426  -17.6259 O   0  0  0  0  0  0  0  0  0  0  0  0
   20.0823  -10.7598  -15.5362 C   0  0  0  0  0  0  0  0  0  0  0  0
   19.9256  -10.7779  -14.2656 O   0  0  0  0  0  0  0  0  0  0  0  0
   17.4204  -12.8127  -18.0465 O   0  0  0  0  0  0  0  0  0  0  0  0
   23.5196  -11.1391  -15.0957 C   0  0  0  0  0  0  0  0  0  0  0  0
   23.3952   -9.6942  -15.5068 C   0  0  1  0  0  0  0  0  0  0  0  0
   23.5306   -9.6235  -16.9123 O   0  0  0  0  0  0  0  0  0  0  0  0
   21.9998   -9.1972  -15.2119 C   0  0  2  0  0  0  0  0  0  0  0  0
   21.0959   -9.9596  -16.0905 N   0  0  0  0  0  0  0  0  0  0  0  0
   21.7935   -7.7623  -15.4674 C   0  0  0  0  0  0  0  0  0  0  0  0
   21.2381   -7.4378  -16.5688 O   0  0  0  0  0  0  0  0  0  0  0  0
   17.8665   -1.9985  -16.0280 C   0  0  0  0  0  0  0  0  0  0  0  0
   18.2399   -3.7215  -15.5391 S   0  0  0  0  0  0  0  0  0  0  0  0
   20.0727   -3.8037  -15.3856 C   0  0  0  0  0  0  0  0  0  0  0  0
   20.4567   -5.2169  -15.0671 C   0  0  0  0  0  0  0  0  0  0  0  0
   21.9479   -5.3711  -14.9308 C   0  0  2  0  0  0  0  0  0  0  0  0
   22.1827   -6.7655  -14.5438 N   0  0  0  0  0  0  0  0  0  0  0  0
   22.4434   -4.5021  -13.8506 C   0  0  0  0  0  0  0  0  0  0  0  0
   22.5999   -4.8952  -12.6731 O   0  0  0  0  0  0  0  0  0  0  0  0
   22.7598   -3.1795  -14.1236 O   0  0  0  0  0  0  0  0  0  0  0  0
  2  1  1  1
  2  3  1  0
  3  4  1  0
  4  5  2  0
  4  8  1  0
  6 13  1  0
  6  2  1  0
  7  6  2  0
 10  9  1  6
 10 12  1  0
 11 10  1  0
 12 13  1  6
 12 14  1  0
 14 21  1  0
 14 15  2  0
 17 16  1  0
 17 18  1  0
 18 19  1  0
 20 19  1  1
 21 20  1  0
 22 20  1  0
 22 24  1  0
 23 22  2  0
M  END
$$$$
