DTM.pdb
     RDKit          3D

 24 23  0  0  1  0  0  0  0  0999 V2000
   16.9546  -12.0817  -15.0981 N   0  0  0  0  0  0  0  0  0  0  0  0
   16.0884  -11.0878  -14.5253 C   0  0  1  0  0  0  0  0  0  0  0  0
   14.7252  -11.6327  -14.2306 C   0  0  0  0  0  0  0  0  0  0  0  0
   14.0274  -12.0144  -15.4761 C   0  0  0  0  0  0  0  0  0  0  0  0
   13.8859  -11.2526  -16.4649 O   0  0  0  0  0  0  0  0  0  0  0  0
   16.6696  -10.5076  -13.3042 C   0  0  0  0  0  0  0  0  0  0  0  0
   17.0842  -11.2947  -12.3832 O   0  0  0  0  0  0  0  0  0  0  0  0
   13.4710  -13.2937  -15.6142 O   0  0  0  0  0  0  0  0  0  0  0  0
   19.6134   -8.6748  -12.9601 C   0  0  0  0  0  0  0  0  0  0  0  0
   18.5848   -7.7698  -12.3314 C   0  0  1  0  0  0  0  0  0  0  0  0
   18.0980   -6.8961  -13.3307 O   0  0  0  0  0  0  0  0  0  0  0  0
   17.3902   -8.5821  -11.8910 C   0  0  2  0  0  0  0  0  0  0  0  0
   16.7803   -9.1189  -13.1199 N   0  0  0  0  0  0  0  0  0  0  0  0
   16.3655   -7.8186  -11.1603 C   0  0  0  0  0  0  0  0  0  0  0  0
   15.4395   -7.2745  -11.8481 O   0  0  0  0  0  0  0  0  0  0  0  0
   11.7317   -8.7971   -7.7781 C   0  0  0  0  0  0  0  0  0  0  0  0
   12.4616   -7.6750   -6.5310 S   0  0  0  0  0  0  0  0  0  0  0  0
   13.6415   -6.6086   -7.4584 C   0  0  0  0  0  0  0  0  0  0  0  0
   14.6135   -7.4944   -8.1772 C   0  0  0  0  0  0  0  0  0  0  0  0
   15.4450   -6.7213   -9.1657 C   0  0  2  0  0  0  0  0  0  0  0  0
   16.3830   -7.6826   -9.7534 N   0  0  0  0  0  0  0  0  0  0  0  0
   16.2226   -5.6871   -8.4635 C   0  0  0  0  0  0  0  0  0  0  0  0
   17.4034   -5.8565   -8.0859 O   0  0  0  0  0  0  0  0  0  0  0  0
   15.6429   -4.4559   -8.1949 O   0  0  0  0  0  0  0  0  0  0  0  0
  2  1  1  1
  2  3  1  0
  3  4  1  0
  4  5  2  0
  4  8  1  0
  6 13  1  0
  6  2  1  0
  7  6  2  0
 10  9  1  6
 10 12  1  0
 11 10  1  0
 12 13  1  6
 12 14  1  0
 14 21  1  0
 14 15  2  0
 17 16  1  0
 17 18  1  0
 18 19  1  0
 20 19  1  1
 21 20  1  0
 22 20  1  0
 22 24  1  0
 23 22  2  0
M  END
$$$$
