DTM.pdb
     RDKit          3D

 24 23  0  0  1  0  0  0  0  0999 V2000
   16.4865  -12.1877  -17.6962 N   0  0  0  0  0  0  0  0  0  0  0  0
   17.4724  -11.9031  -16.6896 C   0  0  1  0  0  0  0  0  0  0  0  0
   18.6035  -12.8840  -16.7174 C   0  0  0  0  0  0  0  0  0  0  0  0
   18.1214  -14.2550  -16.4497 C   0  0  0  0  0  0  0  0  0  0  0  0
   18.5033  -15.2711  -17.0820 O   0  0  0  0  0  0  0  0  0  0  0  0
   17.9949  -10.5336  -16.8211 C   0  0  0  0  0  0  0  0  0  0  0  0
   18.3632  -10.1213  -17.9760 O   0  0  0  0  0  0  0  0  0  0  0  0
   17.1795  -14.4912  -15.4384 O   0  0  0  0  0  0  0  0  0  0  0  0
   16.2783   -7.5009  -16.2823 C   0  0  0  0  0  0  0  0  0  0  0  0
   17.4905   -7.3851  -15.3938 C   0  0  1  0  0  0  0  0  0  0  0  0
   17.1501   -7.8889  -14.1174 O   0  0  0  0  0  0  0  0  0  0  0  0
   18.5866   -8.2903  -15.9039 C   0  0  2  0  0  0  0  0  0  0  0  0
   18.1028   -9.6694  -15.7183 N   0  0  0  0  0  0  0  0  0  0  0  0
   19.8727   -8.1516  -15.2014 C   0  0  0  0  0  0  0  0  0  0  0  0
   20.2817   -9.1531  -14.5259 O   0  0  0  0  0  0  0  0  0  0  0  0
   26.7172   -9.4332  -14.4979 C   0  0  0  0  0  0  0  0  0  0  0  0
   25.0845   -9.4353  -15.3233 S   0  0  0  0  0  0  0  0  0  0  0  0
   24.1538   -8.0326  -14.5777 C   0  0  0  0  0  0  0  0  0  0  0  0
   22.7711   -8.0234  -15.1557 C   0  0  0  0  0  0  0  0  0  0  0  0
   21.9111   -6.9617  -14.5239 C   0  0  2  0  0  0  0  0  0  0  0  0
   20.6435   -6.9682  -15.2607 N   0  0  0  0  0  0  0  0  0  0  0  0
   22.5392   -5.6415  -14.6969 C   0  0  0  0  0  0  0  0  0  0  0  0
   22.3386   -4.9132  -15.6944 O   0  0  0  0  0  0  0  0  0  0  0  0
   23.3990   -5.1570  -13.7223 O   0  0  0  0  0  0  0  0  0  0  0  0
  2  1  1  6
  2  3  1  0
  3  4  1  0
  4  5  2  0
  4  8  1  0
  6 13  1  0
  6  2  1  0
  7  6  2  0
 10  9  1  6
 10 12  1  0
 11 10  1  0
 12 13  1  1
 12 14  1  0
 14 21  1  0
 14 15  2  0
 17 16  1  0
 17 18  1  0
 18 19  1  0
 20 19  1  6
 21 20  1  0
 22 20  1  0
 22 24  1  0
 23 22  2  0
M  END
$$$$
