GNA.pdb
     RDKit          3D

 18 17  0  0  1  0  0  0  0  0999 V2000
   15.2103  -10.9942  -15.9861 N   0  0  0  0  0  0  0  0  0  0  0  0
   16.4903  -10.3904  -16.2437 C   0  0  0  0  0  0  0  0  0  0  0  0
   16.6900   -9.1808  -15.3706 C   0  0  0  0  0  0  0  0  0  0  0  0
   15.9985   -8.1502  -15.5310 O   0  0  0  0  0  0  0  0  0  0  0  0
   18.3110   -5.9325  -11.3718 N   0  0  0  0  0  0  0  0  0  0  0  0
   17.9562   -7.2644  -11.0842 C   0  0  0  0  0  0  0  0  0  0  0  0
   17.8236   -7.5827   -9.8521 O   0  0  0  0  0  0  0  0  0  0  0  0
   17.7158   -8.3445  -12.0437 C   0  0  0  0  0  0  0  0  0  0  0  0
   17.8781   -7.9754  -13.4848 C   0  0  2  0  0  0  0  0  0  0  0  0
   17.6647   -9.1656  -14.3392 N   0  0  0  0  0  0  0  0  0  0  0  0
   19.2638   -7.5386  -13.8296 C   0  0  0  0  0  0  0  0  0  0  0  0
   20.1949   -8.3578  -13.6846 O   0  0  0  0  0  0  0  0  0  0  0  0
   20.8797   -4.9296  -15.9185 C   0  0  0  0  0  0  0  0  0  0  0  0
   20.9143   -5.8170  -14.6876 C   0  0  2  0  0  0  0  0  0  0  0  0
   19.5858   -6.2457  -14.3130 N   0  0  0  0  0  0  0  0  0  0  0  0
   21.5530   -5.0460  -13.5761 C   0  0  0  0  0  0  0  0  0  0  0  0
   22.9212   -4.9981  -13.4283 O   0  0  0  0  0  0  0  0  0  0  0  0
   20.8644   -4.4107  -12.7319 O   0  0  0  0  0  0  0  0  0  0  0  0
  2  1  1  0
  3  2  1  0
  4  3  2  0
  5  6  1  0
  6  8  1  0
  6  7  2  0
  9  8  1  1
  9 10  1  0
 10  3  1  0
 11  9  1  0
 11 12  2  0
 14 13  1  6
 14 15  1  0
 15 11  1  0
 16 14  1  0
 17 16  1  0
 18 16  2  0
M  END
$$$$
