GNA.pdb
     RDKit          3D

 18 17  0  0  1  0  0  0  0  0999 V2000
   17.1964  -10.2168  -18.2556 N   0  0  0  0  0  0  0  0  0  0  0  0
   16.6131   -8.9083  -18.1255 C   0  0  0  0  0  0  0  0  0  0  0  0
   17.2716   -8.1442  -17.0083 C   0  0  0  0  0  0  0  0  0  0  0  0
   16.8134   -8.1837  -15.8444 O   0  0  0  0  0  0  0  0  0  0  0  0
   20.2900   -6.8493  -13.3652 N   0  0  0  0  0  0  0  0  0  0  0  0
   20.9070   -7.4761  -14.4647 C   0  0  0  0  0  0  0  0  0  0  0  0
   22.0052   -8.0950  -14.2461 O   0  0  0  0  0  0  0  0  0  0  0  0
   20.4320   -7.5050  -15.8498 C   0  0  0  0  0  0  0  0  0  0  0  0
   19.1786   -6.7329  -16.1184 C   0  0  2  0  0  0  0  0  0  0  0  0
   18.4298   -7.3556  -17.2335 N   0  0  0  0  0  0  0  0  0  0  0  0
   19.4337   -5.3422  -16.5990 C   0  0  0  0  0  0  0  0  0  0  0  0
   19.9248   -5.1911  -17.7369 O   0  0  0  0  0  0  0  0  0  0  0  0
   18.3170   -1.8810  -15.8036 C   0  0  0  0  0  0  0  0  0  0  0  0
   19.4031   -2.8279  -16.2804 C   0  0  2  0  0  0  0  0  0  0  0  0
   19.1505   -4.1806  -15.8380 N   0  0  0  0  0  0  0  0  0  0  0  0
   20.7137   -2.3361  -15.7528 C   0  0  0  0  0  0  0  0  0  0  0  0
   21.2760   -1.1634  -16.2049 O   0  0  0  0  0  0  0  0  0  0  0  0
   21.3540   -2.9756  -14.8743 O   0  0  0  0  0  0  0  0  0  0  0  0
  2  1  1  0
  3  2  1  0
  4  3  2  0
  5  6  1  0
  6  8  1  0
  6  7  2  0
  9  8  1  6
  9 10  1  0
 10  3  1  0
 11  9  1  0
 11 12  2  0
 14 13  1  1
 14 15  1  0
 15 11  1  0
 16 14  1  0
 17 16  1  0
 18 16  2  0
M  END
$$$$
