GNA.pdb
     RDKit          3D

 18 17  0  0  1  0  0  0  0  0999 V2000
   15.6250   -7.2901  -16.3096 N   0  0  0  0  0  0  0  0  0  0  0  0
   15.3234   -6.4096  -15.2128 C   0  0  0  0  0  0  0  0  0  0  0  0
   16.5804   -6.0335  -14.4753 C   0  0  0  0  0  0  0  0  0  0  0  0
   16.5278   -5.4985  -13.3451 O   0  0  0  0  0  0  0  0  0  0  0  0
   21.7931   -5.7015  -13.0521 N   0  0  0  0  0  0  0  0  0  0  0  0
   21.4380   -6.7669  -13.9015 C   0  0  0  0  0  0  0  0  0  0  0  0
   22.3261   -7.6608  -14.1231 O   0  0  0  0  0  0  0  0  0  0  0  0
   20.1519   -6.9766  -14.5701 C   0  0  0  0  0  0  0  0  0  0  0  0
   19.1064   -5.9414  -14.2971 C   0  0  2  0  0  0  0  0  0  0  0  0
   17.8641   -6.2706  -15.0322 N   0  0  0  0  0  0  0  0  0  0  0  0
   19.4696   -4.5864  -14.8091 C   0  0  0  0  0  0  0  0  0  0  0  0
   19.5449   -4.4222  -16.0445 O   0  0  0  0  0  0  0  0  0  0  0  0
   19.0334   -1.1300  -13.9107 C   0  0  0  0  0  0  0  0  0  0  0  0
   20.0289   -2.1404  -14.4507 C   0  0  2  0  0  0  0  0  0  0  0  0
   19.7348   -3.4727  -13.9736 N   0  0  0  0  0  0  0  0  0  0  0  0
   21.3990   -1.7176  -14.0239 C   0  0  0  0  0  0  0  0  0  0  0  0
   21.9631   -0.5460  -14.4767 O   0  0  0  0  0  0  0  0  0  0  0  0
   22.0899   -2.4167  -13.2338 O   0  0  0  0  0  0  0  0  0  0  0  0
  2  1  1  0
  3  2  1  0
  4  3  2  0
  5  6  1  0
  6  8  1  0
  6  7  2  0
  9  8  1  6
  9 10  1  0
 10  3  1  0
 11  9  1  0
 11 12  2  0
 14 13  1  1
 14 15  1  0
 15 11  1  0
 16 14  1  0
 17 16  1  0
 18 16  2  0
M  END
$$$$
