GNA.pdb
     RDKit          3D

 18 17  0  0  1  0  0  0  0  0999 V2000
   17.6559  -11.4435  -14.1972 N   0  0  0  0  0  0  0  0  0  0  0  0
   17.2771  -10.0623  -14.0628 C   0  0  0  0  0  0  0  0  0  0  0  0
   16.8140   -9.7749  -12.6598 C   0  0  0  0  0  0  0  0  0  0  0  0
   16.5711  -10.7054  -11.8591 O   0  0  0  0  0  0  0  0  0  0  0  0
   15.7870   -7.0712   -8.0630 N   0  0  0  0  0  0  0  0  0  0  0  0
   16.5390   -6.3792   -9.0315 C   0  0  0  0  0  0  0  0  0  0  0  0
   17.0664   -5.2677   -8.6800 O   0  0  0  0  0  0  0  0  0  0  0  0
   16.7942   -6.7885  -10.4145 C   0  0  0  0  0  0  0  0  0  0  0  0
   16.2941   -8.1486  -10.7875 C   0  0  2  0  0  0  0  0  0  0  0  0
   16.6370   -8.4450  -12.1969 N   0  0  0  0  0  0  0  0  0  0  0  0
   14.8051   -8.2588  -10.7569 C   0  0  0  0  0  0  0  0  0  0  0  0
   14.1470   -7.6040  -11.5918 O   0  0  0  0  0  0  0  0  0  0  0  0
   12.2094  -10.3081   -8.8899 C   0  0  0  0  0  0  0  0  0  0  0  0
   12.6517   -9.1388   -9.7507 C   0  0  2  0  0  0  0  0  0  0  0  0
   14.0928   -9.0647   -9.8340 N   0  0  0  0  0  0  0  0  0  0  0  0
   12.0923   -7.8854   -9.1559 C   0  0  0  0  0  0  0  0  0  0  0  0
   12.9128   -6.8938   -8.6665 O   0  0  0  0  0  0  0  0  0  0  0  0
   10.8490   -7.6880   -9.0795 O   0  0  0  0  0  0  0  0  0  0  0  0
  2  1  1  0
  3  2  1  0
  4  3  2  0
  5  6  1  0
  6  8  1  0
  6  7  2  0
  9  8  1  6
  9 10  1  0
 10  3  1  0
 11  9  1  0
 11 12  2  0
 14 13  1  1
 14 15  1  0
 15 11  1  0
 16 14  1  0
 17 16  1  0
 18 16  2  0
M  END
$$$$
