GNA.pdb
     RDKit          3D

 18 17  0  0  1  0  0  0  0  0999 V2000
   20.7715  -21.3015  -13.5758 N   0  0  0  0  0  0  0  0  0  0  0  0
   21.9061  -22.0488  -13.1033 C   0  0  0  0  0  0  0  0  0  0  0  0
   23.1157  -21.1601  -12.9918 C   0  0  0  0  0  0  0  0  0  0  0  0
   23.1536  -20.0496  -13.5675 O   0  0  0  0  0  0  0  0  0  0  0  0
   24.8870  -21.2298   -8.7136 N   0  0  0  0  0  0  0  0  0  0  0  0
   25.5090  -20.4545   -9.7109 C   0  0  0  0  0  0  0  0  0  0  0  0
   25.4736  -19.1831   -9.5720 O   0  0  0  0  0  0  0  0  0  0  0  0
   26.2037  -20.9390  -10.9057 C   0  0  0  0  0  0  0  0  0  0  0  0
   25.4839  -20.7282  -12.2006 C   0  0  2  0  0  0  0  0  0  0  0  0
   24.2512  -21.5475  -12.2336 N   0  0  0  0  0  0  0  0  0  0  0  0
   26.2543  -21.2036  -13.3882 C   0  0  0  0  0  0  0  0  0  0  0  0
   26.4420  -22.4311  -13.5180 O   0  0  0  0  0  0  0  0  0  0  0  0
   26.2824  -21.5652  -16.4369 C   0  0  0  0  0  0  0  0  0  0  0  0
   27.3169  -20.7812  -15.6502 C   0  0  2  0  0  0  0  0  0  0  0  0
   26.7866  -20.3417  -14.3795 N   0  0  0  0  0  0  0  0  0  0  0  0
   27.7416  -19.6099  -16.4783 C   0  0  0  0  0  0  0  0  0  0  0  0
   28.8838  -19.6491  -17.2462 O   0  0  0  0  0  0  0  0  0  0  0  0
   27.0710  -18.5421  -16.5053 O   0  0  0  0  0  0  0  0  0  0  0  0
  2  1  1  0
  3  2  1  0
  4  3  2  0
  5  6  1  0
  6  8  1  0
  6  7  2  0
  9  8  1  1
  9 10  1  0
 10  3  1  0
 11  9  1  0
 11 12  2  0
 14 13  1  6
 14 15  1  0
 15 11  1  0
 16 14  1  0
 17 16  1  0
 18 16  2  0
M  END
$$$$
