GNA.pdb
     RDKit          3D

 18 17  0  0  1  0  0  0  0  0999 V2000
   18.2308  -12.1336  -16.7792 N   0  0  0  0  0  0  0  0  0  0  0  0
   18.8055  -11.5803  -15.5822 C   0  0  0  0  0  0  0  0  0  0  0  0
   18.7328  -10.0771  -15.6064 C   0  0  0  0  0  0  0  0  0  0  0  0
   18.7108   -9.4513  -16.6900 O   0  0  0  0  0  0  0  0  0  0  0  0
   15.1048   -8.4995  -13.4250 N   0  0  0  0  0  0  0  0  0  0  0  0
   16.0895   -7.6898  -14.0226 C   0  0  0  0  0  0  0  0  0  0  0  0
   15.7870   -7.1169  -15.1259 O   0  0  0  0  0  0  0  0  0  0  0  0
   17.4393   -7.4205  -13.5219 C   0  0  0  0  0  0  0  0  0  0  0  0
   18.5576   -7.8443  -14.4213 C   0  0  2  0  0  0  0  0  0  0  0  0
   18.6871   -9.3191  -14.4075 N   0  0  0  0  0  0  0  0  0  0  0  0
   19.8968   -7.3692  -13.9618 C   0  0  0  0  0  0  0  0  0  0  0  0
   20.3011   -7.7372  -12.8393 O   0  0  0  0  0  0  0  0  0  0  0  0
   22.8071   -5.4323  -15.4438 C   0  0  0  0  0  0  0  0  0  0  0  0
   22.0274   -6.0362  -14.2900 C   0  0  2  0  0  0  0  0  0  0  0  0
   20.7383   -6.5231  -14.7264 N   0  0  0  0  0  0  0  0  0  0  0  0
   21.8659   -4.9858  -13.2372 C   0  0  0  0  0  0  0  0  0  0  0  0
   22.7978   -4.8217  -12.2368 O   0  0  0  0  0  0  0  0  0  0  0  0
   20.8714   -4.2104  -13.2246 O   0  0  0  0  0  0  0  0  0  0  0  0
  2  1  1  0
  3  2  1  0
  4  3  2  0
  5  6  1  0
  6  8  1  0
  6  7  2  0
  9  8  1  1
  9 10  1  0
 10  3  1  0
 11  9  1  0
 11 12  2  0
 14 13  1  6
 14 15  1  0
 15 11  1  0
 16 14  1  0
 17 16  1  0
 18 16  2  0
M  END
$$$$
