GNA.pdb
     RDKit          3D

 18 17  0  0  1  0  0  0  0  0999 V2000
   35.0985   -4.8393  -14.1596 N   0  0  0  0  0  0  0  0  0  0  0  0
   34.1315   -4.5389  -15.1812 C   0  0  0  0  0  0  0  0  0  0  0  0
   33.2137   -5.7112  -15.4021 C   0  0  0  0  0  0  0  0  0  0  0  0
   32.4928   -6.1473  -14.4767 O   0  0  0  0  0  0  0  0  0  0  0  0
   29.8899   -9.2284  -17.6311 N   0  0  0  0  0  0  0  0  0  0  0  0
   29.8941   -7.8505  -17.9205 C   0  0  0  0  0  0  0  0  0  0  0  0
   28.8605   -7.3708  -18.5025 O   0  0  0  0  0  0  0  0  0  0  0  0
   30.9573   -6.8866  -17.6282 C   0  0  0  0  0  0  0  0  0  0  0  0
   32.1539   -7.4406  -16.9209 C   0  0  2  0  0  0  0  0  0  0  0  0
   33.1332   -6.3610  -16.6612 N   0  0  0  0  0  0  0  0  0  0  0  0
   32.9226   -8.4228  -17.7423 C   0  0  0  0  0  0  0  0  0  0  0  0
   33.5171   -8.0063  -18.7581 O   0  0  0  0  0  0  0  0  0  0  0  0
   34.1319  -11.9804  -17.3836 C   0  0  0  0  0  0  0  0  0  0  0  0
   33.7587  -10.7680  -18.2169 C   0  0  2  0  0  0  0  0  0  0  0  0
   33.0174   -9.8034  -17.4363 N   0  0  0  0  0  0  0  0  0  0  0  0
   32.9487  -11.2368  -19.3839 C   0  0  0  0  0  0  0  0  0  0  0  0
   33.5454  -11.7584  -20.5097 O   0  0  0  0  0  0  0  0  0  0  0  0
   31.6891  -11.1727  -19.3821 O   0  0  0  0  0  0  0  0  0  0  0  0
  2  1  1  0
  3  2  1  0
  4  3  2  0
  5  6  1  0
  6  8  1  0
  6  7  2  0
  9  8  1  6
  9 10  1  0
 10  3  1  0
 11  9  1  0
 11 12  2  0
 14 13  1  1
 14 15  1  0
 15 11  1  0
 16 14  1  0
 17 16  1  0
 18 16  2  0
M  END
$$$$
