GNA.pdb
     RDKit          3D

 18 17  0  0  1  0  0  0  0  0999 V2000
   18.8659  -11.3311  -17.0733 N   0  0  0  0  0  0  0  0  0  0  0  0
   19.8289  -10.2631  -17.1082 C   0  0  0  0  0  0  0  0  0  0  0  0
   19.3516   -9.0934  -16.2902 C   0  0  0  0  0  0  0  0  0  0  0  0
   18.2261   -8.5843  -16.4909 O   0  0  0  0  0  0  0  0  0  0  0  0
   17.6396   -9.0971  -13.1548 N   0  0  0  0  0  0  0  0  0  0  0  0
   18.7329   -8.5531  -12.4540 C   0  0  0  0  0  0  0  0  0  0  0  0
   18.8156   -8.8125  -11.2039 O   0  0  0  0  0  0  0  0  0  0  0  0
   19.8040   -7.7138  -12.9958 C   0  0  0  0  0  0  0  0  0  0  0  0
   19.6916   -7.3838  -14.4510 C   0  0  2  0  0  0  0  0  0  0  0  0
   20.1566   -8.5284  -15.2670 N   0  0  0  0  0  0  0  0  0  0  0  0
   20.5857   -6.2646  -14.8731 C   0  0  0  0  0  0  0  0  0  0  0  0
   21.8100   -6.4902  -14.9684 O   0  0  0  0  0  0  0  0  0  0  0  0
   20.1442   -2.6987  -16.1108 C   0  0  0  0  0  0  0  0  0  0  0  0
   20.9703   -3.8721  -15.6164 C   0  0  2  0  0  0  0  0  0  0  0  0
   20.1257   -4.9579  -15.1728 N   0  0  0  0  0  0  0  0  0  0  0  0
   21.8409   -3.3905  -14.4992 C   0  0  0  0  0  0  0  0  0  0  0  0
   22.9684   -2.6377  -14.7401 O   0  0  0  0  0  0  0  0  0  0  0  0
   21.5765   -3.6546  -13.2947 O   0  0  0  0  0  0  0  0  0  0  0  0
  2  1  1  0
  3  2  1  0
  4  3  2  0
  5  6  1  0
  6  8  1  0
  6  7  2  0
  9  8  1  1
  9 10  1  0
 10  3  1  0
 11  9  1  0
 11 12  2  0
 14 13  1  1
 14 15  1  0
 15 11  1  0
 16 14  1  0
 17 16  1  0
 18 16  2  0
M  END
$$$$
