GNA.pdb
     RDKit          3D

 18 17  0  0  1  0  0  0  0  0999 V2000
   28.4986  -21.6956  -16.0686 N   0  0  0  0  0  0  0  0  0  0  0  0
   27.8254  -20.6950  -15.2845 C   0  0  0  0  0  0  0  0  0  0  0  0
   26.5451  -21.2433  -14.7137 C   0  0  0  0  0  0  0  0  0  0  0  0
   26.1134  -22.3649  -15.0627 O   0  0  0  0  0  0  0  0  0  0  0  0
   26.7942  -20.9637  -10.3094 N   0  0  0  0  0  0  0  0  0  0  0  0
   25.6582  -21.5312  -10.9178 C   0  0  0  0  0  0  0  0  0  0  0  0
   25.5151  -22.7992  -10.8242 O   0  0  0  0  0  0  0  0  0  0  0  0
   24.6042  -20.8305  -11.6548 C   0  0  0  0  0  0  0  0  0  0  0  0
   24.5738  -21.0795  -13.1301 C   0  0  2  0  0  0  0  0  0  0  0  0
   25.7853  -20.5117  -13.7642 N   0  0  0  0  0  0  0  0  0  0  0  0
   23.4523  -20.3788  -13.8237 C   0  0  0  0  0  0  0  0  0  0  0  0
   23.4389  -19.1303  -13.8131 O   0  0  0  0  0  0  0  0  0  0  0  0
   20.9391  -21.1309  -16.4564 C   0  0  0  0  0  0  0  0  0  0  0  0
   21.3159  -20.3880  -15.1876 C   0  0  2  0  0  0  0  0  0  0  0  0
   22.3992  -21.0487  -14.4954 N   0  0  0  0  0  0  0  0  0  0  0  0
   20.1025  -20.3103  -14.3161 C   0  0  0  0  0  0  0  0  0  0  0  0
   19.1305  -19.3567  -14.5209 O   0  0  0  0  0  0  0  0  0  0  0  0
   19.9224  -21.1140  -13.3610 O   0  0  0  0  0  0  0  0  0  0  0  0
  2  1  1  0
  3  2  1  0
  4  3  2  0
  5  6  1  0
  6  8  1  0
  6  7  2  0
  9  8  1  1
  9 10  1  0
 10  3  1  0
 11  9  1  0
 11 12  2  0
 14 13  1  6
 14 15  1  0
 15 11  1  0
 16 14  1  0
 17 16  1  0
 18 16  2  0
M  END
$$$$
