GNA.pdb
     RDKit          3D

 18 17  0  0  1  0  0  0  0  0999 V2000
   27.1221  -11.9297  -16.1024 N   0  0  0  0  0  0  0  0  0  0  0  0
   26.1650  -11.1516  -15.3623 C   0  0  0  0  0  0  0  0  0  0  0  0
   24.7864  -11.3166  -15.9435 C   0  0  0  0  0  0  0  0  0  0  0  0
   24.4777  -12.3456  -16.5855 O   0  0  0  0  0  0  0  0  0  0  0  0
   20.3456  -13.5455  -16.6057 N   0  0  0  0  0  0  0  0  0  0  0  0
   20.5808  -12.2670  -16.0647 C   0  0  0  0  0  0  0  0  0  0  0  0
   19.5949  -11.4520  -16.0369 O   0  0  0  0  0  0  0  0  0  0  0  0
   21.8395  -11.7527  -15.5203 C   0  0  0  0  0  0  0  0  0  0  0  0
   22.3887  -10.5387  -16.2013 C   0  0  2  0  0  0  0  0  0  0  0  0
   23.7921  -10.3164  -15.7853 N   0  0  0  0  0  0  0  0  0  0  0  0
   21.6992   -9.2756  -15.8023 C   0  0  0  0  0  0  0  0  0  0  0  0
   21.9083   -8.8247  -14.6569 O   0  0  0  0  0  0  0  0  0  0  0  0
   19.0548   -7.6982  -15.1876 C   0  0  0  0  0  0  0  0  0  0  0  0
   20.0840   -7.3755  -16.2555 C   0  0  2  0  0  0  0  0  0  0  0  0
   20.8191   -8.5563  -16.6489 N   0  0  0  0  0  0  0  0  0  0  0  0
   21.0099   -6.3349  -15.7101 C   0  0  0  0  0  0  0  0  0  0  0  0
   21.3496   -5.2198  -16.4430 O   0  0  0  0  0  0  0  0  0  0  0  0
   21.5150   -6.4379  -14.5591 O   0  0  0  0  0  0  0  0  0  0  0  0
  2  1  1  0
  3  2  1  0
  4  3  2  0
  5  6  1  0
  6  8  1  0
  6  7  2  0
  9  8  1  1
  9 10  1  0
 10  3  1  0
 11  9  1  0
 11 12  2  0
 14 13  1  1
 14 15  1  0
 15 11  1  0
 16 14  1  0
 17 16  1  0
 18 16  2  0
M  END
$$$$
