KSC.pdb
     RDKit          3D

 22 21  0  0  1  0  0  0  0  0999 V2000
   21.0795  -16.2169  -16.0449 N   0  0  0  0  0  0  0  0  0  0  0  0
   21.1779  -15.0233  -16.8303 C   0  0  1  0  0  0  0  0  0  0  0  0
   19.8092  -14.6191  -17.3948 C   0  0  0  0  0  0  0  0  0  0  0  0
   19.4556  -15.6720  -18.4233 C   0  0  0  0  0  0  0  0  0  0  0  0
   18.1976  -15.3085  -19.1825 C   0  0  0  0  0  0  0  0  0  0  0  0
   17.9618  -16.4204  -20.2000 C   0  0  0  0  0  0  0  0  0  0  0  0
   16.7869  -16.1384  -21.0040 N   0  0  0  0  0  0  0  0  0  0  0  0
   21.7075  -13.9205  -16.0162 C   0  0  0  0  0  0  0  0  0  0  0  0
   21.2238  -13.7481  -14.8667 O   0  0  0  0  0  0  0  0  0  0  0  0
   25.5796  -12.5568  -15.7621 O   0  0  0  0  0  0  0  0  0  0  0  0
   24.6472  -11.6500  -16.2387 C   0  0  0  0  0  0  0  0  0  0  0  0
   23.2729  -12.0232  -15.6961 C   0  0  2  0  0  0  0  0  0  0  0  0
   22.7317  -13.0897  -16.5306 N   0  0  0  0  0  0  0  0  0  0  0  0
   22.3939  -10.8345  -15.8364 C   0  0  0  0  0  0  0  0  0  0  0  0
   21.7845  -10.6129  -16.9411 O   0  0  0  0  0  0  0  0  0  0  0  0
   22.2076   -9.9275  -14.7672 N   0  0  0  0  0  0  0  0  0  0  0  0
   21.2877   -8.8002  -14.9247 C   0  0  1  0  0  0  0  0  0  0  0  0
   20.9947   -8.2360  -13.5516 C   0  0  0  0  0  0  0  0  0  0  0  0
   19.8645   -6.8395  -13.6199 S   0  0  0  0  0  0  0  0  0  0  0  0
   21.9660   -7.7676  -15.7449 C   0  0  0  0  0  0  0  0  0  0  0  0
   21.2654   -6.9883  -16.6504 O   0  0  0  0  0  0  0  0  0  0  0  0
   23.2020   -7.5584  -15.6517 O   0  0  0  0  0  0  0  0  0  0  0  0
  2  1  1  1
  2  3  1  0
  2  8  1  0
  3  4  1  0
  5  4  1  0
  5  6  1  0
  6  7  1  0
  8 13  1  0
  9  8  2  0
 12 11  1  6
 11 10  1  0
 12 14  1  0
 13 12  1  0
 14 16  1  0
 14 15  2  0
 16 17  1  0
 17 18  1  1
 17 20  1  0
 18 19  1  0
 20 21  1  0
 22 20  2  0
M  END
$$$$
