KSC.pdb
     RDKit          3D

 22 21  0  0  1  0  0  0  0  0999 V2000
   27.3743  -25.9080  -15.6995 N   0  0  0  0  0  0  0  0  0  0  0  0
   26.6923  -24.9679  -16.5376 C   0  0  1  0  0  0  0  0  0  0  0  0
   26.0922  -25.6598  -17.7692 C   0  0  0  0  0  0  0  0  0  0  0  0
   27.2688  -26.1147  -18.6058 C   0  0  0  0  0  0  0  0  0  0  0  0
   27.5369  -27.5942  -18.4317 C   0  0  0  0  0  0  0  0  0  0  0  0
   28.6924  -27.9439  -19.3643 C   0  0  0  0  0  0  0  0  0  0  0  0
   29.0255  -29.3527  -19.2613 N   0  0  0  0  0  0  0  0  0  0  0  0
   25.6175  -24.3034  -15.7874 C   0  0  0  0  0  0  0  0  0  0  0  0
   24.6928  -25.0182  -15.3196 O   0  0  0  0  0  0  0  0  0  0  0  0
   25.4896  -20.2561  -15.6790 O   0  0  0  0  0  0  0  0  0  0  0  0
   25.0738  -20.8364  -14.4920 C   0  0  0  0  0  0  0  0  0  0  0  0
   24.6306  -22.2676  -14.7704 C   0  0  2  0  0  0  0  0  0  0  0  0
   25.6429  -22.8994  -15.6089 N   0  0  0  0  0  0  0  0  0  0  0  0
   23.3633  -22.2060  -15.5420 C   0  0  0  0  0  0  0  0  0  0  0  0
   23.3912  -22.1791  -16.8224 O   0  0  0  0  0  0  0  0  0  0  0  0
   22.1073  -22.1770  -14.8920 N   0  0  0  0  0  0  0  0  0  0  0  0
   20.8811  -22.0998  -15.6872 C   0  0  1  0  0  0  0  0  0  0  0  0
   20.5608  -23.4890  -16.1945 C   0  0  0  0  0  0  0  0  0  0  0  0
   20.4258  -24.6840  -14.8581 S   0  0  0  0  0  0  0  0  0  0  0  0
   19.7878  -21.6380  -14.7981 C   0  0  0  0  0  0  0  0  0  0  0  0
   18.5037  -21.4362  -15.2761 O   0  0  0  0  0  0  0  0  0  0  0  0
   19.9820  -21.4116  -13.5770 O   0  0  0  0  0  0  0  0  0  0  0  0
  2  1  1  1
  2  3  1  0
  2  8  1  0
  3  4  1  0
  5  4  1  0
  5  6  1  0
  6  7  1  0
  8 13  1  0
  9  8  2  0
 12 11  1  6
 11 10  1  0
 12 14  1  0
 13 12  1  0
 14 16  1  0
 14 15  2  0
 16 17  1  0
 17 18  1  1
 17 20  1  0
 18 19  1  0
 20 21  1  0
 22 20  2  0
M  END
$$$$
