KSC.pdb
     RDKit          3D

 22 21  0  0  1  0  0  0  0  0999 V2000
   18.9306  -14.4185  -17.6950 N   0  0  0  0  0  0  0  0  0  0  0  0
   18.3331  -13.1184  -17.6307 C   0  0  1  0  0  0  0  0  0  0  0  0
   17.2132  -13.0764  -16.5820 C   0  0  0  0  0  0  0  0  0  0  0  0
   16.0769  -13.8971  -17.1533 C   0  0  0  0  0  0  0  0  0  0  0  0
   15.4328  -14.7683  -16.0962 C   0  0  0  0  0  0  0  0  0  0  0  0
   14.3184  -15.5471  -16.7880 C   0  0  0  0  0  0  0  0  0  0  0  0
   13.7927  -16.5772  -15.9111 N   0  0  0  0  0  0  0  0  0  0  0  0
   19.3463  -12.1088  -17.2937 C   0  0  0  0  0  0  0  0  0  0  0  0
   20.0426  -12.2908  -16.2608 O   0  0  0  0  0  0  0  0  0  0  0  0
   21.4911   -9.8728  -20.0237 O   0  0  0  0  0  0  0  0  0  0  0  0
   20.7952   -9.1559  -19.0642 C   0  0  0  0  0  0  0  0  0  0  0  0
   20.5972  -10.0368  -17.8365 C   0  0  2  0  0  0  0  0  0  0  0  0
   19.5160  -10.9731  -18.1215 N   0  0  0  0  0  0  0  0  0  0  0  0
   20.1678   -9.1610  -16.7168 C   0  0  0  0  0  0  0  0  0  0  0  0
   18.9451   -8.7906  -16.6232 O   0  0  0  0  0  0  0  0  0  0  0  0
   21.0856   -8.7189  -15.7355 N   0  0  0  0  0  0  0  0  0  0  0  0
   20.6324   -7.8240  -14.6698 C   0  0  1  0  0  0  0  0  0  0  0  0
   20.6962   -8.5805  -13.3608 C   0  0  0  0  0  0  0  0  0  0  0  0
   20.3007   -7.5338  -11.9535 S   0  0  0  0  0  0  0  0  0  0  0  0
   21.5620   -6.6700  -14.6154 C   0  0  0  0  0  0  0  0  0  0  0  0
   21.1291   -5.4099  -14.2375 O   0  0  0  0  0  0  0  0  0  0  0  0
   22.7784   -6.7886  -14.9097 O   0  0  0  0  0  0  0  0  0  0  0  0
  2  1  1  1
  2  3  1  0
  2  8  1  0
  3  4  1  0
  5  4  1  0
  5  6  1  0
  6  7  1  0
  8 13  1  0
  9  8  2  0
 12 11  1  6
 11 10  1  0
 12 14  1  0
 13 12  1  0
 14 16  1  0
 14 15  2  0
 16 17  1  0
 17 18  1  1
 17 20  1  0
 18 19  1  0
 20 21  1  0
 22 20  2  0
M  END
$$$$
