KSC.pdb
     RDKit          3D

 22 21  0  0  1  0  0  0  0  0999 V2000
   18.3546  -11.7031  -15.1970 N   0  0  0  0  0  0  0  0  0  0  0  0
   18.2435  -10.7452  -16.2561 C   0  0  1  0  0  0  0  0  0  0  0  0
   16.9754  -10.9849  -17.0869 C   0  0  0  0  0  0  0  0  0  0  0  0
   15.8549  -11.1826  -16.0886 C   0  0  0  0  0  0  0  0  0  0  0  0
   15.4735  -12.6420  -15.9615 C   0  0  0  0  0  0  0  0  0  0  0  0
   14.2752  -12.7024  -15.0194 C   0  0  0  0  0  0  0  0  0  0  0  0
   13.0362  -12.7825  -15.7710 N   0  0  0  0  0  0  0  0  0  0  0  0
   18.2094   -9.3821  -15.7080 C   0  0  0  0  0  0  0  0  0  0  0  0
   18.0154   -8.4280  -16.5060 O   0  0  0  0  0  0  0  0  0  0  0  0
   18.9714   -8.8398  -11.7373 O   0  0  0  0  0  0  0  0  0  0  0  0
   18.1718   -7.8616  -12.3051 C   0  0  0  0  0  0  0  0  0  0  0  0
   18.4435   -7.8099  -13.8038 C   0  0  2  0  0  0  0  0  0  0  0  0
   18.3919   -9.1729  -14.3199 N   0  0  0  0  0  0  0  0  0  0  0  0
   19.8230   -7.2945  -13.9952 C   0  0  0  0  0  0  0  0  0  0  0  0
   20.8128   -8.1067  -14.0328 O   0  0  0  0  0  0  0  0  0  0  0  0
   20.0773   -5.9107  -14.1405 N   0  0  0  0  0  0  0  0  0  0  0  0
   21.4503   -5.4424  -14.3341 C   0  0  1  0  0  0  0  0  0  0  0  0
   21.6205   -5.0724  -15.7914 C   0  0  0  0  0  0  0  0  0  0  0  0
   23.1614   -4.1964  -16.0924 S   0  0  0  0  0  0  0  0  0  0  0  0
   21.6441   -4.2349  -13.4954 C   0  0  0  0  0  0  0  0  0  0  0  0
   22.8934   -3.8836  -13.0115 O   0  0  0  0  0  0  0  0  0  0  0  0
   20.6842   -3.4828  -13.1903 O   0  0  0  0  0  0  0  0  0  0  0  0
  2  1  1  1
  2  3  1  0
  2  8  1  0
  3  4  1  0
  5  4  1  0
  5  6  1  0
  6  7  1  0
  8 13  1  0
  9  8  2  0
 12 11  1  1
 11 10  1  0
 12 14  1  0
 13 12  1  0
 14 16  1  0
 14 15  2  0
 16 17  1  0
 17 18  1  6
 17 20  1  0
 18 19  1  0
 20 21  1  0
 22 20  2  0
M  END
$$$$
