KSC.pdb
     RDKit          3D

 22 21  0  0  1  0  0  0  0  0999 V2000
   24.3545  -16.0518  -16.4313 N   0  0  0  0  0  0  0  0  0  0  0  0
   23.2199  -16.8893  -16.1807 C   0  0  1  0  0  0  0  0  0  0  0  0
   22.5823  -17.3630  -17.4940 C   0  0  0  0  0  0  0  0  0  0  0  0
   23.0922  -16.4245  -18.5666 C   0  0  0  0  0  0  0  0  0  0  0  0
   24.0555  -17.1210  -19.5038 C   0  0  0  0  0  0  0  0  0  0  0  0
   24.2975  -16.1697  -20.6715 C   0  0  0  0  0  0  0  0  0  0  0  0
   25.2134  -16.7587  -21.6309 N   0  0  0  0  0  0  0  0  0  0  0  0
   23.6176  -18.0614  -15.3885 C   0  0  0  0  0  0  0  0  0  0  0  0
   24.8319  -18.3935  -15.3915 O   0  0  0  0  0  0  0  0  0  0  0  0
   20.7492  -19.9551  -13.3289 O   0  0  0  0  0  0  0  0  0  0  0  0
   21.9968  -20.1167  -12.7492 C   0  0  0  0  0  0  0  0  0  0  0  0
   23.0674  -19.8946  -13.8108 C   0  0  2  0  0  0  0  0  0  0  0  0
   22.6459  -18.7801  -14.6517 N   0  0  0  0  0  0  0  0  0  0  0  0
   23.1262  -21.1148  -14.6551 C   0  0  0  0  0  0  0  0  0  0  0  0
   22.3679  -21.2230  -15.6818 O   0  0  0  0  0  0  0  0  0  0  0  0
   24.0109  -22.1763  -14.3526 N   0  0  0  0  0  0  0  0  0  0  0  0
   24.0671  -23.3457  -15.2308 C   0  0  1  0  0  0  0  0  0  0  0  0
   25.1396  -24.2762  -14.7077 C   0  0  0  0  0  0  0  0  0  0  0  0
   25.6368  -25.4939  -15.9334 S   0  0  0  0  0  0  0  0  0  0  0  0
   22.7521  -24.0283  -15.1681 C   0  0  0  0  0  0  0  0  0  0  0  0
   22.2687  -24.7658  -16.2361 O   0  0  0  0  0  0  0  0  0  0  0  0
   22.0244  -23.9651  -14.1451 O   0  0  0  0  0  0  0  0  0  0  0  0
  2  1  1  6
  2  3  1  0
  2  8  1  0
  3  4  1  0
  5  4  1  0
  5  6  1  0
  6  7  1  0
  8 13  1  0
  9  8  2  0
 12 11  1  1
 11 10  1  0
 12 14  1  0
 13 12  1  0
 14 16  1  0
 14 15  2  0
 16 17  1  0
 17 18  1  1
 17 20  1  0
 18 19  1  0
 20 21  1  0
 22 20  2  0
M  END
$$$$
