KSC.pdb
     RDKit          3D

 22 21  0  0  1  0  0  0  0  0999 V2000
   16.9904  -10.9915  -12.1219 N   0  0  0  0  0  0  0  0  0  0  0  0
   17.2986  -10.6020  -13.4653 C   0  0  1  0  0  0  0  0  0  0  0  0
   16.0204  -10.4249  -14.2961 C   0  0  0  0  0  0  0  0  0  0  0  0
   15.4366  -11.8115  -14.4627 C   0  0  0  0  0  0  0  0  0  0  0  0
   16.2980  -12.6742  -15.3598 C   0  0  0  0  0  0  0  0  0  0  0  0
   15.5544  -13.9930  -15.5469 C   0  0  0  0  0  0  0  0  0  0  0  0
   16.3649  -14.9367  -16.2944 N   0  0  0  0  0  0  0  0  0  0  0  0
   18.0539   -9.3414  -13.4692 C   0  0  0  0  0  0  0  0  0  0  0  0
   17.7176   -8.4475  -12.6490 O   0  0  0  0  0  0  0  0  0  0  0  0
   21.1044   -8.9882  -16.0711 O   0  0  0  0  0  0  0  0  0  0  0  0
   21.2472   -8.1713  -14.9616 C   0  0  0  0  0  0  0  0  0  0  0  0
   19.8715   -7.9085  -14.3611 C   0  0  2  0  0  0  0  0  0  0  0  0
   19.1241   -9.1607  -14.3778 N   0  0  0  0  0  0  0  0  0  0  0  0
   19.1714   -6.9400  -15.2427 C   0  0  0  0  0  0  0  0  0  0  0  0
   18.4025   -7.3609  -16.1767 O   0  0  0  0  0  0  0  0  0  0  0  0
   19.3321   -5.5446  -15.0759 N   0  0  0  0  0  0  0  0  0  0  0  0
   18.6518   -4.6226  -15.9864 C   0  0  1  0  0  0  0  0  0  0  0  0
   17.9316   -3.5844  -15.1538 C   0  0  0  0  0  0  0  0  0  0  0  0
   17.3602   -2.1979  -16.1456 S   0  0  0  0  0  0  0  0  0  0  0  0
   19.6834   -3.9558  -16.8172 C   0  0  0  0  0  0  0  0  0  0  0  0
   19.3856   -3.4498  -18.0715 O   0  0  0  0  0  0  0  0  0  0  0  0
   20.8677   -3.8233  -16.4172 O   0  0  0  0  0  0  0  0  0  0  0  0
  2  1  1  1
  2  3  1  0
  2  8  1  0
  3  4  1  0
  5  4  1  0
  5  6  1  0
  6  7  1  0
  8 13  1  0
  9  8  2  0
 12 11  1  6
 11 10  1  0
 12 14  1  0
 13 12  1  0
 14 16  1  0
 14 15  2  0
 16 17  1  0
 17 18  1  1
 17 20  1  0
 18 19  1  0
 20 21  1  0
 22 20  2  0
M  END
$$$$
