KSC.pdb
     RDKit          3D

 22 21  0  0  1  0  0  0  0  0999 V2000
   16.9453  -14.9528  -15.8809 N   0  0  0  0  0  0  0  0  0  0  0  0
   16.6716  -13.5470  -15.8869 C   0  0  1  0  0  0  0  0  0  0  0  0
   15.6599  -13.1765  -14.7938 C   0  0  0  0  0  0  0  0  0  0  0  0
   14.3510  -13.8167  -15.2037 C   0  0  0  0  0  0  0  0  0  0  0  0
   13.2517  -13.5254  -14.2047 C   0  0  0  0  0  0  0  0  0  0  0  0
   11.9732  -14.1390  -14.7669 C   0  0  0  0  0  0  0  0  0  0  0  0
   10.8262  -13.7595  -13.9628 N   0  0  0  0  0  0  0  0  0  0  0  0
   17.9107  -12.7863  -15.6738 C   0  0  0  0  0  0  0  0  0  0  0  0
   18.7716  -13.2649  -14.8897 O   0  0  0  0  0  0  0  0  0  0  0  0
   20.7715  -12.2618  -17.7248 O   0  0  0  0  0  0  0  0  0  0  0  0
   20.0552  -11.0768  -17.6863 C   0  0  0  0  0  0  0  0  0  0  0  0
   19.4238  -10.9258  -16.3076 C   0  0  2  0  0  0  0  0  0  0  0  0
   18.1080  -11.5539  -16.3416 N   0  0  0  0  0  0  0  0  0  0  0  0
   19.2375   -9.4748  -16.0527 C   0  0  0  0  0  0  0  0  0  0  0  0
   18.2341   -8.8577  -16.5558 O   0  0  0  0  0  0  0  0  0  0  0  0
   20.1508   -8.7449  -15.2565 N   0  0  0  0  0  0  0  0  0  0  0  0
   19.9745   -7.3016  -15.0894 C   0  0  1  0  0  0  0  0  0  0  0  0
   20.7574   -6.8699  -13.8686 C   0  0  0  0  0  0  0  0  0  0  0  0
   22.4779   -7.3853  -13.9499 S   0  0  0  0  0  0  0  0  0  0  0  0
   20.5290   -6.6312  -16.2902 C   0  0  0  0  0  0  0  0  0  0  0  0
   20.3324   -5.2795  -16.5191 O   0  0  0  0  0  0  0  0  0  0  0  0
   21.1985   -7.2614  -17.1473 O   0  0  0  0  0  0  0  0  0  0  0  0
  2  1  1  1
  2  3  1  0
  2  8  1  0
  3  4  1  0
  5  4  1  0
  5  6  1  0
  6  7  1  0
  8 13  1  0
  9  8  2  0
 12 11  1  6
 11 10  1  0
 12 14  1  0
 13 12  1  0
 14 16  1  0
 14 15  2  0
 16 17  1  0
 17 18  1  1
 17 20  1  0
 18 19  1  0
 20 21  1  0
 22 20  2  0
M  END
$$$$
