MMQ.pdb
     RDKit          3D

 26 25  0  0  1  0  0  0  0  0999 V2000
    6.5320  -22.1194   24.6612 C   0  0  0  0  0  0  0  0  0  0  0  0
    5.2970  -22.1076   23.3797 S   0  0  0  0  0  0  0  0  0  0  0  0
    5.1258  -20.5984   22.4590 C   0  0  0  0  0  0  0  0  0  0  0  0
    6.0807  -19.5503   22.9472 C   0  0  0  0  0  0  0  0  0  0  0  0
    5.9475  -18.2180   22.2857 C   0  0  2  0  0  0  0  0  0  0  0  0
    6.2660  -18.2944   20.8796 N   0  0  0  0  0  0  0  0  0  0  0  0
    6.9081  -17.2979   22.9856 C   0  0  0  0  0  0  0  0  0  0  0  0
    8.1027  -17.3431   22.6540 O   0  0  0  0  0  0  0  0  0  0  0  0
    7.7913  -11.1757   27.7775 C   0  0  0  0  0  0  0  0  0  0  0  0
    6.5827  -12.2746   26.9858 S   0  0  0  0  0  0  0  0  0  0  0  0
    7.4830  -13.6787   26.2743 C   0  0  0  0  0  0  0  0  0  0  0  0
    6.5121  -14.5725   25.5209 C   0  0  0  0  0  0  0  0  0  0  0  0
    7.3342  -15.5788   24.7631 C   0  0  2  0  0  0  0  0  0  0  0  0
    6.4524  -16.4172   23.9848 N   0  0  0  0  0  0  0  0  0  0  0  0
    8.1703  -16.4208   25.6812 C   0  0  0  0  0  0  0  0  0  0  0  0
    7.6490  -17.2252   26.4816 O   0  0  0  0  0  0  0  0  0  0  0  0
   12.9266  -16.0668   23.4954 N   0  0  0  0  0  0  0  0  0  0  0  0
   12.5499  -17.4463   23.3917 C   0  0  0  0  0  0  0  0  0  0  0  0
   12.7295  -18.0467   22.3041 O   0  0  0  0  0  0  0  0  0  0  0  0
   11.9706  -18.0780   24.5763 C   0  0  0  0  0  0  0  0  0  0  0  0
   11.8092  -17.1544   25.7311 C   0  0  0  0  0  0  0  0  0  0  0  0
   10.4764  -17.1635   26.3985 C   0  0  2  0  0  0  0  0  0  0  0  0
    9.5821  -16.2931   25.6308 N   0  0  0  0  0  0  0  0  0  0  0  0
   10.5330  -16.6778   27.7923 C   0  0  0  0  0  0  0  0  0  0  0  0
   11.1775  -17.4372   28.7658 O   0  0  0  0  0  0  0  0  0  0  0  0
   10.0257  -15.5977   28.1686 O   0  0  0  0  0  0  0  0  0  0  0  0
  2  1  1  0
  3  2  1  0
  4  3  1  0
  4  5  1  0
  5  6  1  6
  7  5  1  0
  7  8  2  0
 10  9  1  0
 11 10  1  0
 12 11  1  0
 13 12  1  1
 13 14  1  0
 14  7  1  0
 15 13  1  0
 16 15  2  0
 18 17  1  0
 18 19  2  0
 20 18  1  0
 21 20  1  0
 22 21  1  6
 22 24  1  0
 22 23  1  0
 23 15  1  0
 24 25  1  0
 26 24  2  0
M  END
$$$$
