MMQ.pdb
     RDKit          3D

 26 25  0  0  1  0  0  0  0  0999 V2000
    8.5686  -11.1654   19.7663 C   0  0  0  0  0  0  0  0  0  0  0  0
    7.2065  -12.1777   19.2297 S   0  0  0  0  0  0  0  0  0  0  0  0
    7.0404  -13.7623   20.0146 C   0  0  0  0  0  0  0  0  0  0  0  0
    8.3786  -14.3371   20.3718 C   0  0  0  0  0  0  0  0  0  0  0  0
    8.3312  -15.6258   21.1250 C   0  0  2  0  0  0  0  0  0  0  0  0
    6.9714  -16.0220   21.4050 N   0  0  0  0  0  0  0  0  0  0  0  0
    9.0788  -15.3958   22.4085 C   0  0  0  0  0  0  0  0  0  0  0  0
   10.3140  -15.2934   22.3515 O   0  0  0  0  0  0  0  0  0  0  0  0
    6.7884  -11.5238   26.6013 C   0  0  0  0  0  0  0  0  0  0  0  0
    6.0005  -13.1580   26.6628 S   0  0  0  0  0  0  0  0  0  0  0  0
    6.8792  -14.2482   25.5105 C   0  0  0  0  0  0  0  0  0  0  0  0
    8.3776  -14.0782   25.6967 C   0  0  0  0  0  0  0  0  0  0  0  0
    9.0480  -15.1692   24.9073 C   0  0  2  0  0  0  0  0  0  0  0  0
    8.3861  -15.3014   23.6303 N   0  0  0  0  0  0  0  0  0  0  0  0
    9.0274  -16.4794   25.6378 C   0  0  0  0  0  0  0  0  0  0  0  0
    7.9938  -17.1783   25.6915 O   0  0  0  0  0  0  0  0  0  0  0  0
   13.2446  -22.0892   24.8191 N   0  0  0  0  0  0  0  0  0  0  0  0
   12.9430  -20.6886   24.8730 C   0  0  0  0  0  0  0  0  0  0  0  0
   13.5731  -19.9005   24.1263 O   0  0  0  0  0  0  0  0  0  0  0  0
   11.9051  -20.2578   25.8086 C   0  0  0  0  0  0  0  0  0  0  0  0
   11.5100  -18.8323   25.6525 C   0  0  0  0  0  0  0  0  0  0  0  0
   10.4557  -18.3372   26.5827 C   0  0  2  0  0  0  0  0  0  0  0  0
   10.2125  -16.9250   26.2774 N   0  0  0  0  0  0  0  0  0  0  0  0
   10.8453  -18.4575   28.0025 C   0  0  0  0  0  0  0  0  0  0  0  0
   10.9422  -19.7160   28.5909 O   0  0  0  0  0  0  0  0  0  0  0  0
   11.1019  -17.4752   28.7340 O   0  0  0  0  0  0  0  0  0  0  0  0
  2  1  1  0
  3  2  1  0
  4  3  1  0
  4  5  1  0
  5  6  1  1
  7  5  1  0
  7  8  2  0
 10  9  1  0
 11 10  1  0
 12 11  1  0
 13 12  1  1
 13 14  1  0
 14  7  1  0
 15 13  1  0
 16 15  2  0
 18 17  1  0
 18 19  2  0
 20 18  1  0
 21 20  1  0
 22 21  1  6
 22 24  1  0
 22 23  1  0
 23 15  1  0
 24 25  1  0
 26 24  2  0
M  END
$$$$
