MMQ.pdb
     RDKit          3D

 26 25  0  0  1  0  0  0  0  0999 V2000
    8.5375  -11.3502   19.1022 C   0  0  0  0  0  0  0  0  0  0  0  0
    7.4151  -12.5463   18.4111 S   0  0  0  0  0  0  0  0  0  0  0  0
    7.2470  -14.0774   19.2953 C   0  0  0  0  0  0  0  0  0  0  0  0
    8.5407  -14.4818   19.9368 C   0  0  0  0  0  0  0  0  0  0  0  0
    8.5106  -15.7971   20.6436 C   0  0  2  0  0  0  0  0  0  0  0  0
    7.1896  -16.3791   20.6163 N   0  0  0  0  0  0  0  0  0  0  0  0
    8.9291  -15.5273   22.0618 C   0  0  0  0  0  0  0  0  0  0  0  0
   10.1433  -15.4549   22.3059 O   0  0  0  0  0  0  0  0  0  0  0  0
    6.9420  -11.2610   27.2670 C   0  0  0  0  0  0  0  0  0  0  0  0
    6.2698  -12.9472   27.2622 S   0  0  0  0  0  0  0  0  0  0  0  0
    7.5065  -14.0421   26.5138 C   0  0  0  0  0  0  0  0  0  0  0  0
    7.1405  -14.3004   25.0619 C   0  0  0  0  0  0  0  0  0  0  0  0
    8.2937  -15.0392   24.4397 C   0  0  2  0  0  0  0  0  0  0  0  0
    7.9622  -15.3637   23.0718 N   0  0  0  0  0  0  0  0  0  0  0  0
    8.6311  -16.2881   25.1995 C   0  0  0  0  0  0  0  0  0  0  0  0
    7.7769  -17.1757   25.4047 O   0  0  0  0  0  0  0  0  0  0  0  0
   13.9751  -18.6243   24.0280 N   0  0  0  0  0  0  0  0  0  0  0  0
   13.6894  -19.4969   25.1291 C   0  0  0  0  0  0  0  0  0  0  0  0
   14.4963  -20.4193   25.4007 O   0  0  0  0  0  0  0  0  0  0  0  0
   12.4573  -19.2555   25.8786 C   0  0  0  0  0  0  0  0  0  0  0  0
   11.6964  -18.0642   25.4156 C   0  0  0  0  0  0  0  0  0  0  0  0
   10.4524  -17.7445   26.1720 C   0  0  2  0  0  0  0  0  0  0  0  0
    9.9513  -16.4546   25.6908 N   0  0  0  0  0  0  0  0  0  0  0  0
   10.6779  -17.6545   27.6291 C   0  0  0  0  0  0  0  0  0  0  0  0
   10.7744  -18.8175   28.3892 O   0  0  0  0  0  0  0  0  0  0  0  0
   10.7914  -16.5712   28.2449 O   0  0  0  0  0  0  0  0  0  0  0  0
  2  1  1  0
  3  2  1  0
  4  3  1  0
  4  5  1  0
  5  6  1  1
  7  5  1  0
  7  8  2  0
 10  9  1  0
 11 10  1  0
 12 11  1  0
 13 12  1  1
 13 14  1  0
 14  7  1  0
 15 13  1  0
 16 15  2  0
 18 17  1  0
 18 19  2  0
 20 18  1  0
 21 20  1  0
 22 21  1  6
 22 24  1  0
 22 23  1  0
 23 15  1  0
 24 25  1  0
 26 24  2  0
M  END
$$$$
