MMQ.pdb
     RDKit          3D

 26 25  0  0  1  0  0  0  0  0999 V2000
    7.1695  -11.4967   26.5677 C   0  0  0  0  0  0  0  0  0  0  0  0
    6.5114  -12.5852   27.8127 S   0  0  0  0  0  0  0  0  0  0  0  0
    6.0831  -14.2257   27.2837 C   0  0  0  0  0  0  0  0  0  0  0  0
    6.9461  -14.6735   26.1420 C   0  0  0  0  0  0  0  0  0  0  0  0
    6.5239  -15.9518   25.4954 C   0  0  2  0  0  0  0  0  0  0  0  0
    6.6593  -17.0688   26.3999 N   0  0  0  0  0  0  0  0  0  0  0  0
    7.4179  -16.1399   24.3018 C   0  0  0  0  0  0  0  0  0  0  0  0
    8.2943  -17.0158   24.3641 O   0  0  0  0  0  0  0  0  0  0  0  0
    6.9774  -12.0713   19.3427 C   0  0  0  0  0  0  0  0  0  0  0  0
    8.1741  -13.2126   18.5940 S   0  0  0  0  0  0  0  0  0  0  0  0
    8.6876  -14.4000   19.8646 C   0  0  0  0  0  0  0  0  0  0  0  0
    7.8016  -14.2450   21.0892 C   0  0  0  0  0  0  0  0  0  0  0  0
    8.1963  -15.3239   22.0603 C   0  0  2  0  0  0  0  0  0  0  0  0
    7.2545  -15.3397   23.1553 N   0  0  0  0  0  0  0  0  0  0  0  0
    9.5894  -15.1239   22.5802 C   0  0  0  0  0  0  0  0  0  0  0  0
    9.8895  -14.1274   23.2705 O   0  0  0  0  0  0  0  0  0  0  0  0
   11.3513  -17.6504   26.4548 N   0  0  0  0  0  0  0  0  0  0  0  0
   11.3149  -18.5661   25.3522 C   0  0  0  0  0  0  0  0  0  0  0  0
   10.8675  -19.7242   25.5367 O   0  0  0  0  0  0  0  0  0  0  0  0
   11.8091  -18.0877   24.0619 C   0  0  0  0  0  0  0  0  0  0  0  0
   12.1051  -16.6302   24.0350 C   0  0  0  0  0  0  0  0  0  0  0  0
   11.9711  -15.9569   22.7120 C   0  0  2  0  0  0  0  0  0  0  0  0
   10.5791  -16.0933   22.2758 N   0  0  0  0  0  0  0  0  0  0  0  0
   12.8528  -16.5428   21.6818 C   0  0  0  0  0  0  0  0  0  0  0  0
   14.2358  -16.4580   21.8227 O   0  0  0  0  0  0  0  0  0  0  0  0
   12.4280  -17.1278   20.6605 O   0  0  0  0  0  0  0  0  0  0  0  0
  2  1  1  0
  3  2  1  0
  4  3  1  0
  4  5  1  0
  5  6  1  1
  7  5  1  0
  7  8  2  0
 10  9  1  0
 11 10  1  0
 12 11  1  0
 13 12  1  6
 13 14  1  0
 14  7  1  0
 15 13  1  0
 16 15  2  0
 18 17  1  0
 18 19  2  0
 20 18  1  0
 21 20  1  0
 22 21  1  1
 22 24  1  0
 22 23  1  0
 23 15  1  0
 24 25  1  0
 26 24  2  0
M  END
$$$$
