MMQ.pdb
     RDKit          3D

 26 25  0  0  1  0  0  0  0  0999 V2000
    8.3595  -12.1202   16.2754 C   0  0  0  0  0  0  0  0  0  0  0  0
    8.3017  -12.4185   18.0291 S   0  0  0  0  0  0  0  0  0  0  0  0
    7.1371  -13.6380   18.5867 C   0  0  0  0  0  0  0  0  0  0  0  0
    7.1342  -13.7460   20.0823 C   0  0  0  0  0  0  0  0  0  0  0  0
    7.9304  -14.8825   20.6346 C   0  0  2  0  0  0  0  0  0  0  0  0
    7.1286  -16.0770   20.7552 N   0  0  0  0  0  0  0  0  0  0  0  0
    8.4145  -14.4441   21.9883 C   0  0  0  0  0  0  0  0  0  0  0  0
    9.3882  -13.6768   22.0372 O   0  0  0  0  0  0  0  0  0  0  0  0
    6.2534  -10.9870   26.6462 C   0  0  0  0  0  0  0  0  0  0  0  0
    6.3988  -12.5762   27.5115 S   0  0  0  0  0  0  0  0  0  0  0  0
    7.6198  -13.5856   26.6293 C   0  0  0  0  0  0  0  0  0  0  0  0
    7.1025  -13.9022   25.2361 C   0  0  0  0  0  0  0  0  0  0  0  0
    8.2256  -14.5663   24.4875 C   0  0  2  0  0  0  0  0  0  0  0  0
    7.7732  -14.8979   23.1564 N   0  0  0  0  0  0  0  0  0  0  0  0
    8.7116  -15.7997   25.1900 C   0  0  0  0  0  0  0  0  0  0  0  0
    7.9340  -16.7336   25.4780 O   0  0  0  0  0  0  0  0  0  0  0  0
   15.0783  -19.4259   24.8257 N   0  0  0  0  0  0  0  0  0  0  0  0
   14.3064  -18.2234   24.9429 C   0  0  0  0  0  0  0  0  0  0  0  0
   14.8184  -17.1338   24.5880 O   0  0  0  0  0  0  0  0  0  0  0  0
   12.9504  -18.3420   25.4771 C   0  0  0  0  0  0  0  0  0  0  0  0
   12.1010  -17.1461   25.2305 C   0  0  0  0  0  0  0  0  0  0  0  0
   10.7323  -17.1794   25.8199 C   0  0  2  0  0  0  0  0  0  0  0  0
   10.0853  -15.8974   25.5296 N   0  0  0  0  0  0  0  0  0  0  0  0
   10.7460  -17.3858   27.2825 C   0  0  0  0  0  0  0  0  0  0  0  0
   11.0520  -18.6408   27.8031 O   0  0  0  0  0  0  0  0  0  0  0  0
   10.4935  -16.4818   28.1101 O   0  0  0  0  0  0  0  0  0  0  0  0
  2  1  1  0
  3  2  1  0
  4  3  1  0
  4  5  1  0
  5  6  1  1
  7  5  1  0
  7  8  2  0
 10  9  1  0
 11 10  1  0
 12 11  1  0
 13 12  1  1
 13 14  1  0
 14  7  1  0
 15 13  1  0
 16 15  2  0
 18 17  1  0
 18 19  2  0
 20 18  1  0
 21 20  1  0
 22 21  1  1
 22 24  1  0
 22 23  1  0
 23 15  1  0
 24 25  1  0
 26 24  2  0
M  END
$$$$
