MMQ.pdb
     RDKit          3D

 26 25  0  0  1  0  0  0  0  0999 V2000
    8.4081  -11.1286   19.5457 C   0  0  0  0  0  0  0  0  0  0  0  0
    7.4129  -12.2819   18.6253 S   0  0  0  0  0  0  0  0  0  0  0  0
    7.3249  -13.9370   19.2635 C   0  0  0  0  0  0  0  0  0  0  0  0
    8.4467  -14.2135   20.2193 C   0  0  0  0  0  0  0  0  0  0  0  0
    8.4103  -15.5609   20.8624 C   0  0  2  0  0  0  0  0  0  0  0  0
    7.0812  -16.1237   20.8299 N   0  0  0  0  0  0  0  0  0  0  0  0
    8.8559  -15.3654   22.2845 C   0  0  0  0  0  0  0  0  0  0  0  0
   10.0491  -15.0931   22.4877 O   0  0  0  0  0  0  0  0  0  0  0  0
    6.9406  -10.5424   26.6782 C   0  0  0  0  0  0  0  0  0  0  0  0
    6.4113  -12.2762   26.5838 S   0  0  0  0  0  0  0  0  0  0  0  0
    7.5730  -13.1597   25.5077 C   0  0  0  0  0  0  0  0  0  0  0  0
    7.2000  -14.6319   25.4616 C   0  0  0  0  0  0  0  0  0  0  0  0
    8.3053  -15.3458   24.7325 C   0  0  2  0  0  0  0  0  0  0  0  0
    7.9368  -15.4903   23.3434 N   0  0  0  0  0  0  0  0  0  0  0  0
    8.5924  -16.6902   25.3333 C   0  0  0  0  0  0  0  0  0  0  0  0
    7.6943  -17.5472   25.4695 O   0  0  0  0  0  0  0  0  0  0  0  0
   13.5438  -19.4488   23.6409 N   0  0  0  0  0  0  0  0  0  0  0  0
   13.2747  -20.3390   24.7320 C   0  0  0  0  0  0  0  0  0  0  0  0
   13.9951  -21.3561   24.8804 O   0  0  0  0  0  0  0  0  0  0  0  0
   12.1609  -20.0027   25.6176 C   0  0  0  0  0  0  0  0  0  0  0  0
   11.4957  -18.7149   25.2835 C   0  0  0  0  0  0  0  0  0  0  0  0
   10.3344  -18.3343   26.1371 C   0  0  2  0  0  0  0  0  0  0  0  0
    9.9153  -16.9843   25.7520 N   0  0  0  0  0  0  0  0  0  0  0  0
   10.6596  -18.3394   27.5780 C   0  0  0  0  0  0  0  0  0  0  0  0
   10.6809  -17.1418   28.2885 O   0  0  0  0  0  0  0  0  0  0  0  0
   10.9252  -19.3786   28.2225 O   0  0  0  0  0  0  0  0  0  0  0  0
  2  1  1  0
  3  2  1  0
  4  3  1  0
  4  5  1  0
  5  6  1  1
  7  5  1  0
  7  8  2  0
 10  9  1  0
 11 10  1  0
 12 11  1  0
 13 12  1  1
 13 14  1  0
 14  7  1  0
 15 13  1  0
 16 15  2  0
 18 17  1  0
 18 19  2  0
 20 18  1  0
 21 20  1  0
 22 21  1  6
 22 24  1  0
 22 23  1  0
 23 15  1  0
 24 25  1  0
 26 24  2  0
M  END
$$$$
