MMQ.pdb
     RDKit          3D

 26 25  0  0  1  0  0  0  0  0999 V2000
    8.3626  -11.7755   19.1025 C   0  0  0  0  0  0  0  0  0  0  0  0
    7.5825  -13.1898   18.3549 S   0  0  0  0  0  0  0  0  0  0  0  0
    7.6451  -14.7072   19.2757 C   0  0  0  0  0  0  0  0  0  0  0  0
    8.4455  -14.5493   20.5338 C   0  0  0  0  0  0  0  0  0  0  0  0
    8.5170  -15.7684   21.3936 C   0  0  2  0  0  0  0  0  0  0  0  0
    7.2143  -16.3654   21.5694 N   0  0  0  0  0  0  0  0  0  0  0  0
    9.0659  -15.3218   22.7197 C   0  0  0  0  0  0  0  0  0  0  0  0
   10.2203  -14.8682   22.7481 O   0  0  0  0  0  0  0  0  0  0  0  0
    7.3989  -11.3187   27.2529 C   0  0  0  0  0  0  0  0  0  0  0  0
    6.0351  -12.1709   26.4109 S   0  0  0  0  0  0  0  0  0  0  0  0
    6.7506  -13.3062   25.1913 C   0  0  0  0  0  0  0  0  0  0  0  0
    7.4096  -14.4712   25.9106 C   0  0  0  0  0  0  0  0  0  0  0  0
    8.6564  -14.8167   25.1432 C   0  0  2  0  0  0  0  0  0  0  0  0
    8.2831  -15.4208   23.8854 N   0  0  0  0  0  0  0  0  0  0  0  0
    9.5484  -15.7427   25.9163 C   0  0  0  0  0  0  0  0  0  0  0  0
    9.8246  -15.5298   27.1155 O   0  0  0  0  0  0  0  0  0  0  0  0
    9.7200  -21.5352   27.3034 N   0  0  0  0  0  0  0  0  0  0  0  0
    9.6990  -20.5096   28.3050 C   0  0  0  0  0  0  0  0  0  0  0  0
    9.5617  -20.8367   29.5090 O   0  0  0  0  0  0  0  0  0  0  0  0
    9.8403  -19.1253   27.8557 C   0  0  0  0  0  0  0  0  0  0  0  0
   10.0525  -18.9884   26.3898 C   0  0  0  0  0  0  0  0  0  0  0  0
   10.9251  -17.8610   25.9548 C   0  0  2  0  0  0  0  0  0  0  0  0
   10.0841  -16.8816   25.2620 N   0  0  0  0  0  0  0  0  0  0  0  0
   12.0032  -18.2934   25.0423 C   0  0  0  0  0  0  0  0  0  0  0  0
   13.1310  -18.9306   25.5538 O   0  0  0  0  0  0  0  0  0  0  0  0
   11.9704  -18.1206   23.8034 O   0  0  0  0  0  0  0  0  0  0  0  0
  2  1  1  0
  3  2  1  0
  4  3  1  0
  4  5  1  0
  5  6  1  1
  7  5  1  0
  7  8  2  0
 10  9  1  0
 11 10  1  0
 12 11  1  0
 13 12  1  1
 13 14  1  0
 14  7  1  0
 15 13  1  0
 16 15  2  0
 18 17  1  0
 18 19  2  0
 20 18  1  0
 21 20  1  0
 22 21  1  6
 22 24  1  0
 22 23  1  0
 23 15  1  0
 24 25  1  0
 26 24  2  0
M  END
$$$$
