MMQ.pdb
     RDKit          3D

 26 25  0  0  1  0  0  0  0  0999 V2000
   23.8331  -65.9704  -31.8383 C   0  0  0  0  0  0  0  0  0  0  0  0
   23.5575  -67.0084  -30.4190 S   0  0  0  0  0  0  0  0  0  0  0  0
   24.8704  -67.0818  -29.2251 C   0  0  0  0  0  0  0  0  0  0  0  0
   26.0475  -67.8449  -29.7548 C   0  0  0  0  0  0  0  0  0  0  0  0
   26.7834  -68.6553  -28.7388 C   0  0  2  0  0  0  0  0  0  0  0  0
   27.4172  -67.8129  -27.7525 N   0  0  0  0  0  0  0  0  0  0  0  0
   27.8194  -69.4419  -29.4917 C   0  0  0  0  0  0  0  0  0  0  0  0
   27.8731  -69.3032  -30.7234 O   0  0  0  0  0  0  0  0  0  0  0  0
   32.5619  -68.9518  -24.9017 C   0  0  0  0  0  0  0  0  0  0  0  0
   30.9186  -69.7029  -24.7265 S   0  0  0  0  0  0  0  0  0  0  0  0
   30.3332  -70.1638  -26.3797 C   0  0  0  0  0  0  0  0  0  0  0  0
   28.8164  -70.0837  -26.4195 C   0  0  0  0  0  0  0  0  0  0  0  0
   28.3574  -70.9504  -27.5600 C   0  0  2  0  0  0  0  0  0  0  0  0
   28.6955  -70.3056  -28.8075 N   0  0  0  0  0  0  0  0  0  0  0  0
   26.8821  -71.2167  -27.4996 C   0  0  0  0  0  0  0  0  0  0  0  0
   26.1018  -70.4289  -26.9251 O   0  0  0  0  0  0  0  0  0  0  0  0
   23.6471  -74.0078  -24.1823 N   0  0  0  0  0  0  0  0  0  0  0  0
   24.5540  -72.9961  -24.6400 C   0  0  0  0  0  0  0  0  0  0  0  0
   24.1650  -71.8034  -24.6826 O   0  0  0  0  0  0  0  0  0  0  0  0
   25.8957  -73.4221  -25.0353 C   0  0  0  0  0  0  0  0  0  0  0  0
   25.9618  -74.0082  -26.4008 C   0  0  0  0  0  0  0  0  0  0  0  0
   25.3298  -73.2102  -27.4896 C   0  0  2  0  0  0  0  0  0  0  0  0
   26.3730  -72.3907  -28.1115 N   0  0  0  0  0  0  0  0  0  0  0  0
   24.2569  -72.3223  -26.9970 C   0  0  0  0  0  0  0  0  0  0  0  0
   24.2378  -70.9819  -27.3746 O   0  0  0  0  0  0  0  0  0  0  0  0
   23.3364  -72.7049  -26.2406 O   0  0  0  0  0  0  0  0  0  0  0  0
  2  1  1  0
  3  2  1  0
  4  3  1  0
  4  5  1  0
  5  6  1  1
  7  5  1  0
  7  8  2  0
 10  9  1  0
 11 10  1  0
 12 11  1  0
 13 12  1  1
 13 14  1  0
 14  7  1  0
 15 13  1  0
 16 15  2  0
 18 17  1  0
 18 19  2  0
 20 18  1  0
 21 20  1  0
 22 21  1  1
 22 24  1  0
 22 23  1  0
 23 15  1  0
 24 25  1  0
 26 24  2  0
M  END
$$$$
