RNL.pdb
     RDKit          3D

 28 27  0  0  1  0  0  0  0  0999 V2000
   22.4801  -20.7672   -7.8914 N   0  0  0  0  0  0  0  0  0  0  0  0
   21.9488  -21.2056   -9.1432 C   0  0  0  0  0  0  0  0  0  0  0  0
   20.7479  -21.6671   -9.1904 N   0  0  0  0  0  0  0  0  0  0  0  0
   22.6995  -21.1506  -10.3389 N   0  0  0  0  0  0  0  0  0  0  0  0
   23.9116  -20.3199  -10.4447 C   0  0  0  0  0  0  0  0  0  0  0  0
   25.0414  -21.1208   -9.8582 C   0  0  0  0  0  0  0  0  0  0  0  0
   25.9661  -21.7527  -10.8270 C   0  0  0  0  0  0  0  0  0  0  0  0
   26.5792  -20.8751  -11.8604 C   0  0  2  0  0  0  0  0  0  0  0  0
   26.5747  -19.5062  -11.3948 N   0  0  0  0  0  0  0  0  0  0  0  0
   25.9008  -20.9943  -13.1849 C   0  0  0  0  0  0  0  0  0  0  0  0
   25.9528  -22.1123  -13.7535 O   0  0  0  0  0  0  0  0  0  0  0  0
   20.3342  -22.0387  -10.0688 N   0  0  0  0  0  0  0  0  0  0  0  0
   23.2040  -20.5472  -17.5615 C   0  0  0  0  0  0  0  0  0  0  0  0
   23.0790  -21.4175  -16.4706 O   0  0  0  0  0  0  0  0  0  0  0  0
   22.3576  -22.4481  -16.6508 C   0  0  0  0  0  0  0  0  0  0  0  0
   23.7038  -21.2364  -15.1604 C   0  0  2  0  0  0  0  0  0  0  0  0
   24.6185  -20.0474  -15.0800 N   0  0  0  0  0  0  0  0  0  0  0  0
   25.2211  -19.9022  -13.7919 C   0  0  0  0  0  0  0  0  0  0  0  0
   23.9565  -18.8019  -15.5518 O   0  0  0  0  0  0  0  0  0  0  0  0
   23.0403  -18.2630  -14.8808 C   0  0  0  0  0  0  0  0  0  0  0  0
   27.9084  -15.5005  -17.0863 C   0  0  2  0  0  0  0  0  0  0  0  0
   27.0922  -15.7153  -15.8382 C   0  0  0  0  0  0  0  0  0  0  0  0
   26.4538  -14.4149  -15.4154 C   0  0  0  0  0  0  0  0  0  0  0  0
   26.2096  -16.8830  -15.8379 C   0  0  2  0  0  0  0  0  0  0  0  0
   25.1562  -16.9954  -16.8864 N   0  0  0  0  0  0  0  0  0  0  0  0
   24.3120  -18.1649  -16.7572 C   0  0  0  0  0  0  0  0  0  0  0  0
   25.5710  -16.6912  -18.2472 O   0  0  0  0  0  0  0  0  0  0  0  0
   26.5666  -17.3195  -18.9804 O   0  0  0  0  0  0  0  0  0  0  0  0
  1  2  1  0
  2  4  1  0
  3  2  2  0
  4  5  1  0
  5  6  1  0
  7  6  1  0
  8  9  1  1
  8  7  1  0
 10  8  1  0
 10 11  2  0
 13 12  1  0
 13 15  1  0
 14 13  2  0
 16 15  1  6
 16 17  1  0
 16 18  1  0
 17 10  1  0
 18 25  1  0
 19 18  2  0
 21 20  1  1
 21 23  1  0
 22 21  1  0
 24 23  1  1
 24 26  1  0
 25 24  1  0
 26 28  2  0
 26 27  1  0
M  END
$$$$
