RNL.pdb
     RDKit          3D

 28 27  0  0  1  0  0  0  0  0999 V2000
   28.1245  -19.4707  -21.1391 N   0  0  0  0  0  0  0  0  0  0  0  0
   29.4368  -19.2164  -20.6346 C   0  0  0  0  0  0  0  0  0  0  0  0
   30.2533  -18.5074  -21.3333 N   0  0  0  0  0  0  0  0  0  0  0  0
   29.8734  -19.7189  -19.3884 N   0  0  0  0  0  0  0  0  0  0  0  0
   29.0154  -20.5965  -18.5734 C   0  0  0  0  0  0  0  0  0  0  0  0
   28.1267  -19.7001  -17.7558 C   0  0  0  0  0  0  0  0  0  0  0  0
   27.0935  -20.3749  -16.9373 C   0  0  0  0  0  0  0  0  0  0  0  0
   27.5612  -21.3219  -15.8893 C   0  0  2  0  0  0  0  0  0  0  0  0
   27.8723  -22.5971  -16.4958 N   0  0  0  0  0  0  0  0  0  0  0  0
   26.5723  -21.4806  -14.7822 C   0  0  0  0  0  0  0  0  0  0  0  0
   25.6874  -22.3586  -14.9296 O   0  0  0  0  0  0  0  0  0  0  0  0
   31.2111  -18.2798  -20.9988 N   0  0  0  0  0  0  0  0  0  0  0  0
   25.4384  -21.2994   -8.9567 C   0  0  0  0  0  0  0  0  0  0  0  0
   25.1714  -20.6081  -10.1458 O   0  0  0  0  0  0  0  0  0  0  0  0
   23.9967  -20.1409  -10.2753 C   0  0  0  0  0  0  0  0  0  0  0  0
   26.1237  -20.3849  -11.2336 C   0  0  1  0  0  0  0  0  0  0  0  0
   25.6388  -20.8568  -12.5749 N   0  0  0  0  0  0  0  0  0  0  0  0
   26.6140  -20.6825  -13.6055 C   0  0  0  0  0  0  0  0  0  0  0  0
   24.3164  -20.2739  -12.9264 O   0  0  0  0  0  0  0  0  0  0  0  0
   24.2335  -19.1555  -13.4940 C   0  0  0  0  0  0  0  0  0  0  0  0
   20.9352  -20.1719  -17.0711 C   0  0  2  0  0  0  0  0  0  0  0  0
   20.7480  -20.2750  -15.5796 C   0  0  0  0  0  0  0  0  0  0  0  0
   19.5068  -21.0776  -15.2751 C   0  0  0  0  0  0  0  0  0  0  0  0
   21.9372  -20.6294  -14.8033 C   0  0  1  0  0  0  0  0  0  0  0  0
   21.8373  -20.7036  -13.3180 N   0  0  0  0  0  0  0  0  0  0  0  0
   23.1012  -20.9305  -12.6484 C   0  0  0  0  0  0  0  0  0  0  0  0
   20.7211  -21.4713  -12.7880 O   0  0  0  0  0  0  0  0  0  0  0  0
   19.4861  -20.9859  -12.3845 O   0  0  0  0  0  0  0  0  0  0  0  0
  1  2  1  0
  2  4  1  0
  3  2  2  0
  4  5  1  0
  5  6  1  0
  7  6  1  0
  8  9  1  6
  8  7  1  0
 10  8  1  0
 10 11  2  0
 13 12  1  0
 13 15  1  0
 14 13  2  0
 16 15  1  1
 16 17  1  0
 16 18  1  0
 17 10  1  0
 18 25  1  0
 19 18  2  0
 21 20  1  6
 21 23  1  0
 22 21  1  0
 24 23  1  1
 24 26  1  0
 25 24  1  0
 26 28  2  0
 26 27  1  0
M  END
$$$$
