RNL.pdb
     RDKit          3D

 28 27  0  0  1  0  0  0  0  0999 V2000
   21.7827  -20.6982   -7.1443 N   0  0  0  0  0  0  0  0  0  0  0  0
   21.1454  -21.6590   -7.9882 C   0  0  0  0  0  0  0  0  0  0  0  0
   19.9898  -22.1196   -7.6568 N   0  0  0  0  0  0  0  0  0  0  0  0
   21.7424  -22.1249   -9.1809 N   0  0  0  0  0  0  0  0  0  0  0  0
   23.1914  -21.9950   -9.4137 C   0  0  0  0  0  0  0  0  0  0  0  0
   23.4305  -20.5931   -9.9025 C   0  0  0  0  0  0  0  0  0  0  0  0
   24.8184  -20.2691  -10.3044 C   0  0  0  0  0  0  0  0  0  0  0  0
   25.4893  -21.1952  -11.2562 C   0  0  2  0  0  0  0  0  0  0  0  0
   26.6403  -21.7930  -10.6170 N   0  0  0  0  0  0  0  0  0  0  0  0
   25.8729  -20.5217  -12.5322 C   0  0  0  0  0  0  0  0  0  0  0  0
   26.6952  -19.5765  -12.4531 O   0  0  0  0  0  0  0  0  0  0  0  0
   19.4780  -22.8029   -8.2501 N   0  0  0  0  0  0  0  0  0  0  0  0
   27.7187  -20.6347  -18.0256 C   0  0  0  0  0  0  0  0  0  0  0  0
   27.3854  -20.0302  -16.8063 O   0  0  0  0  0  0  0  0  0  0  0  0
   27.4452  -18.7613  -16.7707 C   0  0  0  0  0  0  0  0  0  0  0  0
   26.9804  -20.7337  -15.5894 C   0  0  2  0  0  0  0  0  0  0  0  0
   25.7046  -20.2206  -14.9845 N   0  0  0  0  0  0  0  0  0  0  0  0
   25.3416  -20.9182  -13.7907 C   0  0  0  0  0  0  0  0  0  0  0  0
   24.5997  -20.1634  -15.9786 O   0  0  0  0  0  0  0  0  0  0  0  0
   23.6030  -20.9230  -15.8814 C   0  0  0  0  0  0  0  0  0  0  0  0
   21.5812  -16.3247  -18.2560 C   0  0  2  0  0  0  0  0  0  0  0  0
   21.6789  -16.8316  -16.8405 C   0  0  0  0  0  0  0  0  0  0  0  0
   20.3731  -17.4709  -16.4358 C   0  0  0  0  0  0  0  0  0  0  0  0
   22.8851  -17.5920  -16.5097 C   0  0  2  0  0  0  0  0  0  0  0  0
   23.4794  -18.4917  -17.5388 N   0  0  0  0  0  0  0  0  0  0  0  0
   24.6064  -19.2697  -17.0678 C   0  0  0  0  0  0  0  0  0  0  0  0
   23.6443  -17.9243  -18.8681 O   0  0  0  0  0  0  0  0  0  0  0  0
   22.8311  -18.1271  -19.9731 O   0  0  0  0  0  0  0  0  0  0  0  0
  1  2  1  0
  2  4  1  0
  3  2  2  0
  4  5  1  0
  5  6  1  0
  7  6  1  0
  8  9  1  1
  8  7  1  0
 10  8  1  0
 10 11  2  0
 13 12  1  0
 13 15  1  0
 14 13  2  0
 16 15  1  1
 16 17  1  0
 16 18  1  0
 17 10  1  0
 18 25  1  0
 19 18  2  0
 21 20  1  1
 21 23  1  0
 22 21  1  0
 24 23  1  1
 24 26  1  0
 25 24  1  0
 26 28  2  0
 26 27  1  0
M  END
$$$$
