RNL.pdb
     RDKit          3D

 28 27  0  0  1  0  0  0  0  0999 V2000
   29.9825  -23.0234  -17.1219 N   0  0  0  0  0  0  0  0  0  0  0  0
   30.0866  -22.0209  -18.1346 C   0  0  0  0  0  0  0  0  0  0  0  0
   30.8487  -22.2297  -19.1510 N   0  0  0  0  0  0  0  0  0  0  0  0
   29.3787  -20.8005  -18.0596 N   0  0  0  0  0  0  0  0  0  0  0  0
   28.5094  -20.4887  -16.9117 C   0  0  0  0  0  0  0  0  0  0  0  0
   27.0902  -20.6328  -17.3878 C   0  0  0  0  0  0  0  0  0  0  0  0
   26.0468  -20.6469  -16.3371 C   0  0  0  0  0  0  0  0  0  0  0  0
   26.2183  -21.6088  -15.2150 C   0  0  2  0  0  0  0  0  0  0  0  0
   26.4961  -22.9246  -15.7462 N   0  0  0  0  0  0  0  0  0  0  0  0
   25.0372  -21.6363  -14.3023 C   0  0  0  0  0  0  0  0  0  0  0  0
   24.0283  -22.2721  -14.6943 O   0  0  0  0  0  0  0  0  0  0  0  0
   30.9368  -21.5407  -19.9246 N   0  0  0  0  0  0  0  0  0  0  0  0
   26.4349  -20.9826   -9.6637 C   0  0  0  0  0  0  0  0  0  0  0  0
   25.2956  -21.5140  -10.2826 O   0  0  0  0  0  0  0  0  0  0  0  0
   25.2647  -22.7772  -10.4185 C   0  0  0  0  0  0  0  0  0  0  0  0
   24.1563  -20.7413  -10.7773 C   0  0  2  0  0  0  0  0  0  0  0  0
   23.8566  -20.9605  -12.2329 N   0  0  0  0  0  0  0  0  0  0  0  0
   25.0354  -20.9780  -13.0413 C   0  0  0  0  0  0  0  0  0  0  0  0
   22.8239  -20.0168  -12.7378 O   0  0  0  0  0  0  0  0  0  0  0  0
   23.1498  -18.9193  -13.2567 C   0  0  0  0  0  0  0  0  0  0  0  0
   19.1756  -21.0938  -16.6269 C   0  0  2  0  0  0  0  0  0  0  0  0
   20.1963  -20.0474  -16.2617 C   0  0  0  0  0  0  0  0  0  0  0  0
   19.5546  -18.6816  -16.2751 C   0  0  0  0  0  0  0  0  0  0  0  0
   21.0336  -20.3418  -15.0978 C   0  0  2  0  0  0  0  0  0  0  0  0
   20.4817  -20.1145  -13.7321 N   0  0  0  0  0  0  0  0  0  0  0  0
   21.4443  -20.2937  -12.6651 C   0  0  0  0  0  0  0  0  0  0  0  0
   19.1683  -20.6818  -13.4687 O   0  0  0  0  0  0  0  0  0  0  0  0
   18.8543  -22.0205  -13.2870 O   0  0  0  0  0  0  0  0  0  0  0  0
  1  2  1  0
  2  4  1  0
  3  2  2  0
  4  5  1  0
  5  6  1  0
  7  6  1  0
  8  9  1  6
  8  7  1  0
 10  8  1  0
 10 11  2  0
 13 12  1  0
 13 15  1  0
 14 13  2  0
 16 15  1  1
 16 17  1  0
 16 18  1  0
 17 10  1  0
 18 25  1  0
 19 18  2  0
 21 20  1  6
 21 23  1  0
 22 21  1  0
 24 23  1  6
 24 26  1  0
 25 24  1  0
 26 28  2  0
 26 27  1  0
M  END
$$$$
