RNL.pdb
     RDKit          3D

 28 27  0  0  1  0  0  0  0  0999 V2000
   20.4681  -21.0731   -9.6309 N   0  0  0  0  0  0  0  0  0  0  0  0
   21.0802  -21.5198   -8.4196 C   0  0  0  0  0  0  0  0  0  0  0  0
   20.4129  -22.2751   -7.6185 N   0  0  0  0  0  0  0  0  0  0  0  0
   22.4001  -21.1595   -8.0672 N   0  0  0  0  0  0  0  0  0  0  0  0
   23.2439  -20.3610   -8.9732 C   0  0  0  0  0  0  0  0  0  0  0  0
   24.2275  -21.3092   -9.6017 C   0  0  0  0  0  0  0  0  0  0  0  0
   24.5355  -21.0782  -11.0316 C   0  0  0  0  0  0  0  0  0  0  0  0
   24.4872  -19.6750  -11.5242 C   0  0  2  0  0  0  0  0  0  0  0  0
   23.4115  -18.9692  -10.8645 N   0  0  0  0  0  0  0  0  0  0  0  0
   24.3505  -19.5965  -13.0087 C   0  0  0  0  0  0  0  0  0  0  0  0
   25.2771  -20.0944  -13.6938 O   0  0  0  0  0  0  0  0  0  0  0  0
   20.7792  -22.5477   -6.6845 N   0  0  0  0  0  0  0  0  0  0  0  0
   21.1887  -19.5358  -17.9034 C   0  0  0  0  0  0  0  0  0  0  0  0
   21.6232  -18.5592  -16.9974 O   0  0  0  0  0  0  0  0  0  0  0  0
   21.9456  -17.4340  -17.4924 C   0  0  0  0  0  0  0  0  0  0  0  0
   21.7335  -18.7300  -15.5488 C   0  0  1  0  0  0  0  0  0  0  0  0
   23.1415  -18.9254  -15.0632 N   0  0  0  0  0  0  0  0  0  0  0  0
   23.2287  -18.9890  -13.6378 C   0  0  0  0  0  0  0  0  0  0  0  0
   24.0783  -17.9335  -15.6555 O   0  0  0  0  0  0  0  0  0  0  0  0
   24.1552  -16.7648  -15.1994 C   0  0  0  0  0  0  0  0  0  0  0  0
   28.6524  -15.6699  -17.1038 C   0  0  2  0  0  0  0  0  0  0  0  0
   28.3667  -16.9795  -17.7919 C   0  0  0  0  0  0  0  0  0  0  0  0
   29.6617  -17.7011  -18.0741 C   0  0  0  0  0  0  0  0  0  0  0  0
   27.3015  -17.7959  -17.2077 C   0  0  1  0  0  0  0  0  0  0  0  0
   25.8861  -17.3514  -17.3516 N   0  0  0  0  0  0  0  0  0  0  0  0
   24.9193  -18.2414  -16.7432 C   0  0  0  0  0  0  0  0  0  0  0  0
   25.5046  -16.8400  -18.6590 O   0  0  0  0  0  0  0  0  0  0  0  0
   25.5409  -15.5212  -19.0867 O   0  0  0  0  0  0  0  0  0  0  0  0
  1  2  1  0
  2  4  1  0
  3  2  2  0
  4  5  1  0
  5  6  1  0
  7  6  1  0
  8  9  1  1
  8  7  1  0
 10  8  1  0
 10 11  2  0
 13 12  1  0
 13 15  1  0
 14 13  2  0
 16 15  1  6
 16 17  1  0
 16 18  1  0
 17 10  1  0
 18 25  1  0
 19 18  2  0
 21 20  1  6
 21 23  1  0
 22 21  1  0
 24 23  1  1
 24 26  1  0
 25 24  1  0
 26 28  2  0
 26 27  1  0
M  END
$$$$
