RNL.pdb
     RDKit          3D

 28 27  0  0  1  0  0  0  0  0999 V2000
   41.2483  -12.1834  -13.4626 N   0  0  0  0  0  0  0  0  0  0  0  0
   40.2210  -11.8746  -14.4063 C   0  0  0  0  0  0  0  0  0  0  0  0
   40.5114  -11.8263  -15.6596 N   0  0  0  0  0  0  0  0  0  0  0  0
   38.8891  -11.6184  -14.0105 N   0  0  0  0  0  0  0  0  0  0  0  0
   38.1339  -10.4774  -14.5565 C   0  0  0  0  0  0  0  0  0  0  0  0
   36.9836  -11.0499  -15.3379 C   0  0  0  0  0  0  0  0  0  0  0  0
   36.0103  -10.0733  -15.8781 C   0  0  0  0  0  0  0  0  0  0  0  0
   34.8630  -10.6105  -16.6586 C   0  0  2  0  0  0  0  0  0  0  0  0
   35.3499  -11.5390  -17.6543 N   0  0  0  0  0  0  0  0  0  0  0  0
   34.0447   -9.5306  -17.2854 C   0  0  0  0  0  0  0  0  0  0  0  0
   34.4238   -9.1041  -18.4036 O   0  0  0  0  0  0  0  0  0  0  0  0
   39.8196  -11.5240  -16.3745 N   0  0  0  0  0  0  0  0  0  0  0  0
   29.5574   -7.2796  -19.5685 C   0  0  0  0  0  0  0  0  0  0  0  0
   29.9382   -7.2797  -18.2201 O   0  0  0  0  0  0  0  0  0  0  0  0
   29.5691   -6.2788  -17.5294 C   0  0  0  0  0  0  0  0  0  0  0  0
   30.7154   -8.3251  -17.5545 C   0  0  1  0  0  0  0  0  0  0  0  0
   32.1430   -7.9443  -17.2830 N   0  0  0  0  0  0  0  0  0  0  0  0
   32.8845   -8.9957  -16.6600 C   0  0  0  0  0  0  0  0  0  0  0  0
   32.2463   -6.6530  -16.5521 O   0  0  0  0  0  0  0  0  0  0  0  0
   31.9852   -6.5827  -15.3246 C   0  0  0  0  0  0  0  0  0  0  0  0
   36.6525   -3.9776  -15.8556 C   0  0  1  0  0  0  0  0  0  0  0  0
   35.2181   -4.4117  -15.7009 C   0  0  0  0  0  0  0  0  0  0  0  0
   34.8782   -4.5386  -14.2360 C   0  0  0  0  0  0  0  0  0  0  0  0
   34.2364   -3.6978  -16.5188 C   0  0  2  0  0  0  0  0  0  0  0  0
   32.8239   -4.1731  -16.5352 N   0  0  0  0  0  0  0  0  0  0  0  0
   32.6361   -5.4548  -17.1826 C   0  0  0  0  0  0  0  0  0  0  0  0
   31.8152   -3.1752  -16.8564 O   0  0  0  0  0  0  0  0  0  0  0  0
   31.5713   -1.9845  -16.1883 O   0  0  0  0  0  0  0  0  0  0  0  0
  1  2  1  0
  2  4  1  0
  3  2  2  0
  4  5  1  0
  5  6  1  0
  7  6  1  0
  8  9  1  6
  8  7  1  0
 10  8  1  0
 10 11  2  0
 13 12  1  0
 13 15  1  0
 14 13  2  0
 16 15  1  6
 16 17  1  0
 16 18  1  0
 17 10  1  0
 18 25  1  0
 19 18  2  0
 21 20  1  6
 21 23  1  0
 22 21  1  0
 24 23  1  1
 24 26  1  0
 25 24  1  0
 26 28  2  0
 26 27  1  0
M  END
$$$$
