RNL.pdb
     RDKit          3D

 28 27  0  0  1  0  0  0  0  0999 V2000
   16.9573  -23.1086    1.8596 N   0  0  0  0  0  0  0  0  0  0  0  0
   15.5363  -22.9673    1.9056 C   0  0  0  0  0  0  0  0  0  0  0  0
   14.7938  -23.9359    1.4957 N   0  0  0  0  0  0  0  0  0  0  0  0
   14.9128  -21.7946    2.3876 N   0  0  0  0  0  0  0  0  0  0  0  0
   15.7040  -20.6534    2.8795 C   0  0  0  0  0  0  0  0  0  0  0  0
   14.7249  -19.6277    3.3805 C   0  0  0  0  0  0  0  0  0  0  0  0
   15.3081  -18.4000    3.9682 C   0  0  0  0  0  0  0  0  0  0  0  0
   14.3638  -17.3478    4.4319 C   0  0  2  0  0  0  0  0  0  0  0  0
   13.7877  -16.6785    3.2870 N   0  0  0  0  0  0  0  0  0  0  0  0
   15.0095  -16.3701    5.3571 C   0  0  0  0  0  0  0  0  0  0  0  0
   15.5636  -15.3718    4.8355 O   0  0  0  0  0  0  0  0  0  0  0  0
   13.7560  -23.8749    1.5002 N   0  0  0  0  0  0  0  0  0  0  0  0
   16.2163  -13.4638    9.5469 C   0  0  0  0  0  0  0  0  0  0  0  0
   15.4246  -14.5582    9.9196 O   0  0  0  0  0  0  0  0  0  0  0  0
   15.0248  -14.5806   11.1257 C   0  0  0  0  0  0  0  0  0  0  0  0
   15.0279  -15.6602    9.0433 C   0  0  2  0  0  0  0  0  0  0  0  0
   15.5099  -15.5176    7.6277 N   0  0  0  0  0  0  0  0  0  0  0  0
   15.0078  -16.5441    6.7689 C   0  0  0  0  0  0  0  0  0  0  0  0
   16.9886  -15.3749    7.5539 O   0  0  0  0  0  0  0  0  0  0  0  0
   17.7341  -16.3860    7.5124 C   0  0  0  0  0  0  0  0  0  0  0  0
   19.5134  -11.0583    4.8517 C   0  0  2  0  0  0  0  0  0  0  0  0
   19.0437  -12.3563    5.4555 C   0  0  0  0  0  0  0  0  0  0  0  0
   19.2825  -13.4869    4.4849 C   0  0  0  0  0  0  0  0  0  0  0  0
   19.4548  -12.6109    6.8371 C   0  0  2  0  0  0  0  0  0  0  0  0
   19.0576  -13.8922    7.4869 N   0  0  0  0  0  0  0  0  0  0  0  0
   17.6280  -14.1197    7.5267 C   0  0  0  0  0  0  0  0  0  0  0  0
   19.7631  -14.2354    8.7120 O   0  0  0  0  0  0  0  0  0  0  0  0
   21.0888  -14.6236    8.8354 O   0  0  0  0  0  0  0  0  0  0  0  0
  1  2  1  0
  2  4  1  0
  3  2  2  0
  4  5  1  0
  5  6  1  0
  7  6  1  0
  8  9  1  6
  8  7  1  0
 10  8  1  0
 10 11  2  0
 13 12  1  0
 13 15  1  0
 14 13  2  0
 16 15  1  6
 16 17  1  0
 16 18  1  0
 17 10  1  0
 18 25  1  0
 19 18  2  0
 21 20  1  6
 21 23  1  0
 22 21  1  0
 24 23  1  6
 24 26  1  0
 25 24  1  0
 26 28  2  0
 26 27  1  0
M  END
$$$$
