RNL.pdb
     RDKit          3D

 28 27  0  0  1  0  0  0  0  0999 V2000
   28.4245  -23.8893  -16.8638 N   0  0  0  0  0  0  0  0  0  0  0  0
   29.8325  -23.7121  -16.6982 C   0  0  0  0  0  0  0  0  0  0  0  0
   30.6309  -24.1154  -17.6242 N   0  0  0  0  0  0  0  0  0  0  0  0
   30.3835  -23.1064  -15.5468 N   0  0  0  0  0  0  0  0  0  0  0  0
   29.5249  -22.4912  -14.5198 C   0  0  0  0  0  0  0  0  0  0  0  0
   29.1658  -21.1182  -15.0171 C   0  0  0  0  0  0  0  0  0  0  0  0
   28.3586  -20.2814  -14.1000 C   0  0  0  0  0  0  0  0  0  0  0  0
   26.8798  -20.4363  -14.1550 C   0  0  2  0  0  0  0  0  0  0  0  0
   26.3505  -19.6318  -15.2335 N   0  0  0  0  0  0  0  0  0  0  0  0
   26.2225  -20.0962  -12.8585 C   0  0  0  0  0  0  0  0  0  0  0  0
   26.3607  -18.9206  -12.4403 O   0  0  0  0  0  0  0  0  0  0  0  0
   31.6638  -24.0440  -17.5310 N   0  0  0  0  0  0  0  0  0  0  0  0
   21.9846  -20.8997  -12.7704 C   0  0  0  0  0  0  0  0  0  0  0  0
   22.5190  -20.4402  -11.5594 O   0  0  0  0  0  0  0  0  0  0  0  0
   22.1330  -19.2933  -11.1714 C   0  0  0  0  0  0  0  0  0  0  0  0
   23.4717  -21.1655  -10.7190 C   0  0  2  0  0  0  0  0  0  0  0  0
   24.8906  -20.6919  -10.8575 N   0  0  0  0  0  0  0  0  0  0  0  0
   25.4695  -21.0470  -12.1154 C   0  0  0  0  0  0  0  0  0  0  0  0
   25.7302  -21.1002   -9.6996 O   0  0  0  0  0  0  0  0  0  0  0  0
   26.1375  -22.2835   -9.5820 C   0  0  0  0  0  0  0  0  0  0  0  0
   29.1299  -18.6000   -5.0995 C   0  0  2  0  0  0  0  0  0  0  0  0
   28.5449  -19.8166   -5.7687 C   0  0  0  0  0  0  0  0  0  0  0  0
   27.8223  -20.6624   -4.7489 C   0  0  0  0  0  0  0  0  0  0  0  0
   27.8234  -19.5799   -7.0201 C   0  0  1  0  0  0  0  0  0  0  0  0
   26.7685  -20.5447   -7.4419 N   0  0  0  0  0  0  0  0  0  0  0  0
   26.1109  -20.1996   -8.6851 C   0  0  0  0  0  0  0  0  0  0  0  0
   25.8785  -21.0202   -6.3939 O   0  0  0  0  0  0  0  0  0  0  0  0
   24.7175  -20.4123   -5.9402 O   0  0  0  0  0  0  0  0  0  0  0  0
  1  2  1  0
  2  4  1  0
  3  2  2  0
  4  5  1  0
  5  6  1  0
  7  6  1  0
  8  9  1  6
  8  7  1  0
 10  8  1  0
 10 11  2  0
 13 12  1  0
 13 15  1  0
 14 13  2  0
 16 15  1  6
 16 17  1  0
 16 18  1  0
 17 10  1  0
 18 25  1  0
 19 18  2  0
 21 20  1  1
 21 23  1  0
 22 21  1  0
 24 23  1  6
 24 26  1  0
 25 24  1  0
 26 28  2  0
 26 27  1  0
M  END
$$$$
