RNL.pdb
     RDKit          3D

 28 27  0  0  1  0  0  0  0  0999 V2000
   12.7686  -10.9471  -10.5757 N   0  0  0  0  0  0  0  0  0  0  0  0
   11.8408  -11.1602  -11.6411 C   0  0  0  0  0  0  0  0  0  0  0  0
   10.7800  -11.8561  -11.4222 N   0  0  0  0  0  0  0  0  0  0  0  0
   12.0475  -10.6313  -12.9348 N   0  0  0  0  0  0  0  0  0  0  0  0
   13.3812  -10.1883  -13.3770 C   0  0  0  0  0  0  0  0  0  0  0  0
   14.1725  -11.4292  -13.6860 C   0  0  0  0  0  0  0  0  0  0  0  0
   15.5514  -11.2180  -14.1829 C   0  0  0  0  0  0  0  0  0  0  0  0
   15.7621  -11.2582  -15.6553 C   0  0  2  0  0  0  0  0  0  0  0  0
   15.9939  -12.6233  -16.0720 N   0  0  0  0  0  0  0  0  0  0  0  0
   16.8744  -10.3656  -16.0965 C   0  0  0  0  0  0  0  0  0  0  0  0
   17.4795  -10.6860  -17.1487 O   0  0  0  0  0  0  0  0  0  0  0  0
   10.1099  -12.0931  -12.1810 N   0  0  0  0  0  0  0  0  0  0  0  0
   19.2570   -6.7361  -18.8226 C   0  0  0  0  0  0  0  0  0  0  0  0
   18.2030   -6.6114  -17.9079 O   0  0  0  0  0  0  0  0  0  0  0  0
   17.8685   -5.4271  -17.5906 C   0  0  0  0  0  0  0  0  0  0  0  0
   17.4683   -7.7198  -17.2985 C   0  0  1  0  0  0  0  0  0  0  0  0
   18.0395   -8.1830  -15.9885 N   0  0  0  0  0  0  0  0  0  0  0  0
   17.2472   -9.2002  -15.3711 C   0  0  0  0  0  0  0  0  0  0  0  0
   18.3338   -7.0463  -15.0755 O   0  0  0  0  0  0  0  0  0  0  0  0
   17.4453   -6.5777  -14.3199 C   0  0  0  0  0  0  0  0  0  0  0  0
   23.2513   -8.8468  -13.4263 C   0  0  2  0  0  0  0  0  0  0  0  0
   21.8109   -8.8064  -12.9864 C   0  0  0  0  0  0  0  0  0  0  0  0
   21.7151   -8.2023  -11.6067 C   0  0  0  0  0  0  0  0  0  0  0  0
   20.8509   -8.2984  -13.9677 C   0  0  2  0  0  0  0  0  0  0  0  0
   20.6852   -6.8254  -14.1238 N   0  0  0  0  0  0  0  0  0  0  0  0
   19.6035   -6.4397  -15.0060 C   0  0  0  0  0  0  0  0  0  0  0  0
   21.9090   -6.0564  -14.2887 O   0  0  0  0  0  0  0  0  0  0  0  0
   22.7283   -5.5590  -13.2863 O   0  0  0  0  0  0  0  0  0  0  0  0
  1  2  1  0
  2  4  1  0
  3  2  2  0
  4  5  1  0
  5  6  1  0
  7  6  1  0
  8  9  1  1
  8  7  1  0
 10  8  1  0
 10 11  2  0
 13 12  1  0
 13 15  1  0
 14 13  2  0
 16 15  1  6
 16 17  1  0
 16 18  1  0
 17 10  1  0
 18 25  1  0
 19 18  2  0
 21 20  1  1
 21 23  1  0
 22 21  1  0
 24 23  1  1
 24 26  1  0
 25 24  1  0
 26 28  2  0
 26 27  1  0
M  END
$$$$
