RLA.pdb
     RDKit          3D

 25 24  0  0  1  0  0  0  0  0999 V2000
    5.9300  -19.9165   20.3539 N   0  0  0  0  0  0  0  0  0  0  0  0
    6.9148  -20.8157   19.8405 C   0  0  0  0  0  0  0  0  0  0  0  0
    6.5928  -21.5017   18.8038 N   0  0  0  0  0  0  0  0  0  0  0  0
    8.1877  -20.9761   20.4100 N   0  0  0  0  0  0  0  0  0  0  0  0
    8.6682  -20.1652   21.5155 C   0  0  0  0  0  0  0  0  0  0  0  0
    8.6387  -18.7330   21.0418 C   0  0  0  0  0  0  0  0  0  0  0  0
    9.1089  -17.8382   22.1553 C   0  0  0  0  0  0  0  0  0  0  0  0
    8.9518  -16.4069   21.7128 C   0  0  2  0  0  0  0  0  0  0  0  0
   10.0921  -16.1280   20.8340 N   0  0  0  0  0  0  0  0  0  0  0  0
    9.0658  -15.5699   22.9587 C   0  0  0  0  0  0  0  0  0  0  0  0
   10.1847  -15.2345   23.4132 O   0  0  0  0  0  0  0  0  0  0  0  0
    7.1761  -22.2379   18.3733 C   0  0  0  0  0  0  0  0  0  0  0  0
    5.3388  -12.2431   26.6404 C   0  0  1  0  0  0  0  0  0  0  0  0
    6.7058  -12.7339   26.2717 C   0  0  0  0  0  0  0  0  0  0  0  0
    7.5697  -11.5102   25.9759 C   0  0  0  0  0  0  0  0  0  0  0  0
    6.7400  -13.5914   25.0479 C   0  0  2  0  0  0  0  0  0  0  0  0
    8.0638  -14.3094   24.8434 N   0  0  0  0  0  0  0  0  0  0  0  0
    7.9196  -15.1306   23.6635 C   0  0  0  0  0  0  0  0  0  0  0  0
    8.3463  -15.2167   25.9945 O   0  0  0  0  0  0  0  0  0  0  0  0
    8.6091  -14.7803   27.1456 C   0  0  0  0  0  0  0  0  0  0  0  0
    7.8431  -18.8548   26.7031 C   0  0  2  0  0  0  0  0  0  0  0  0
    8.4894  -17.4868   26.9514 N   0  0  0  0  0  0  0  0  0  0  0  0
    8.3254  -16.6148   25.8189 C   0  0  0  0  0  0  0  0  0  0  0  0
    9.9419  -17.6297   27.1976 O   0  0  0  0  0  0  0  0  0  0  0  0
   10.8595  -17.1333   26.2576 O   0  0  0  0  0  0  0  0  0  0  0  0
  1  2  1  0
  2  3  2  0
  4  5  1  0
  4  2  1  0
  6  7  1  0
  6  5  1  0
  7  8  1  0
  8  9  1  6
 10  8  1  0
 10 17  1  0
 11 10  2  0
 13 12  1  1
 13 14  1  0
 16 15  1  6
 15 13  1  0
 16 17  1  0
 18 16  1  0
 19 18  2  0
 21 20  1  1
 21 22  1  0
 21 23  1  0
 22 18  1  0
 23 24  1  0
 25 23  2  0
M  END
$$$$
