RLA.pdb
     RDKit          3D

 25 24  0  0  1  0  0  0  0  0999 V2000
    8.3807  -12.7393   16.2459 N   0  0  0  0  0  0  0  0  0  0  0  0
    7.9150  -14.0777   16.0622 C   0  0  0  0  0  0  0  0  0  0  0  0
    7.2563  -14.3226   14.9875 N   0  0  0  0  0  0  0  0  0  0  0  0
    8.1420  -15.1094   16.9865 N   0  0  0  0  0  0  0  0  0  0  0  0
    9.0635  -14.9838   18.1025 C   0  0  0  0  0  0  0  0  0  0  0  0
    8.2412  -14.5523   19.2917 C   0  0  0  0  0  0  0  0  0  0  0  0
    9.1620  -14.2527   20.4423 C   0  0  0  0  0  0  0  0  0  0  0  0
    9.0712  -15.3858   21.4308 C   0  0  2  0  0  0  0  0  0  0  0  0
    7.7349  -15.9651   21.2598 N   0  0  0  0  0  0  0  0  0  0  0  0
    9.1721  -14.7584   22.7953 C   0  0  0  0  0  0  0  0  0  0  0  0
   10.2106  -14.1563   23.1559 O   0  0  0  0  0  0  0  0  0  0  0  0
    6.8526  -15.2390   14.7334 C   0  0  0  0  0  0  0  0  0  0  0  0
    5.7053  -12.3277   27.1604 C   0  0  1  0  0  0  0  0  0  0  0  0
    7.0380  -12.8558   26.7238 C   0  0  0  0  0  0  0  0  0  0  0  0
    8.0146  -11.6823   26.7063 C   0  0  0  0  0  0  0  0  0  0  0  0
    7.0446  -13.4424   25.3491 C   0  0  2  0  0  0  0  0  0  0  0  0
    8.2675  -14.2963   25.0565 N   0  0  0  0  0  0  0  0  0  0  0  0
    8.1035  -14.8232   23.7213 C   0  0  0  0  0  0  0  0  0  0  0  0
    8.3294  -15.4547   25.9957 O   0  0  0  0  0  0  0  0  0  0  0  0
    8.5346  -15.3098   27.2292 C   0  0  0  0  0  0  0  0  0  0  0  0
    7.2591  -19.0176   25.9270 C   0  0  2  0  0  0  0  0  0  0  0  0
    8.1494  -17.8766   26.4333 N   0  0  0  0  0  0  0  0  0  0  0  0
    8.1558  -16.7684   25.5160 C   0  0  0  0  0  0  0  0  0  0  0  0
    9.5486  -18.3332   26.5908 O   0  0  0  0  0  0  0  0  0  0  0  0
   10.5244  -17.9171   25.6708 O   0  0  0  0  0  0  0  0  0  0  0  0
  1  2  1  0
  2  3  2  0
  4  5  1  0
  4  2  1  0
  6  7  1  0
  6  5  1  0
  7  8  1  0
  8  9  1  1
 10  8  1  0
 10 17  1  0
 11 10  2  0
 13 12  1  1
 13 14  1  0
 16 15  1  6
 15 13  1  0
 16 17  1  0
 18 16  1  0
 19 18  2  0
 21 20  1  1
 21 22  1  0
 21 23  1  0
 22 18  1  0
 23 24  1  0
 25 23  2  0
M  END
$$$$
