RLA.pdb
     RDKit          3D

 25 24  0  0  1  0  0  0  0  0999 V2000
    8.6531  -18.3078   16.6355 N   0  0  0  0  0  0  0  0  0  0  0  0
    7.2681  -17.9952   16.7972 C   0  0  0  0  0  0  0  0  0  0  0  0
    6.4232  -18.8983   16.4516 N   0  0  0  0  0  0  0  0  0  0  0  0
    6.8056  -16.7711   17.3051 N   0  0  0  0  0  0  0  0  0  0  0  0
    7.5306  -16.0034   18.3028 C   0  0  0  0  0  0  0  0  0  0  0  0
    7.4271  -16.7740   19.5958 C   0  0  0  0  0  0  0  0  0  0  0  0
    8.1954  -16.0455   20.6640 C   0  0  0  0  0  0  0  0  0  0  0  0
    7.5542  -14.6989   20.8755 C   0  0  2  0  0  0  0  0  0  0  0  0
    8.0375  -13.8454   19.7854 N   0  0  0  0  0  0  0  0  0  0  0  0
    8.0869  -14.1842   22.1858 C   0  0  0  0  0  0  0  0  0  0  0  0
    9.2197  -13.6528   22.2603 O   0  0  0  0  0  0  0  0  0  0  0  0
    5.3965  -18.8129   16.5293 C   0  0  0  0  0  0  0  0  0  0  0  0
    5.7762  -12.2218   27.5204 C   0  0  1  0  0  0  0  0  0  0  0  0
    6.9743  -12.6015   26.7044 C   0  0  0  0  0  0  0  0  0  0  0  0
    7.8288  -11.3481   26.5312 C   0  0  0  0  0  0  0  0  0  0  0  0
    6.6497  -13.0947   25.3313 C   0  0  2  0  0  0  0  0  0  0  0  0
    7.8387  -13.7015   24.6046 N   0  0  0  0  0  0  0  0  0  0  0  0
    7.3338  -14.2795   23.3805 C   0  0  0  0  0  0  0  0  0  0  0  0
    8.4348  -14.8049   25.4139 O   0  0  0  0  0  0  0  0  0  0  0  0
    8.8535  -14.6271   26.5876 C   0  0  0  0  0  0  0  0  0  0  0  0
    8.3960  -18.5022   25.3718 C   0  0  2  0  0  0  0  0  0  0  0  0
    9.0937  -17.1694   25.6678 N   0  0  0  0  0  0  0  0  0  0  0  0
    8.5462  -16.1018   24.8739 C   0  0  0  0  0  0  0  0  0  0  0  0
   10.5397  -17.2552   25.3633 O   0  0  0  0  0  0  0  0  0  0  0  0
   11.3545  -18.1335   26.0959 O   0  0  0  0  0  0  0  0  0  0  0  0
  1  2  1  0
  2  3  2  0
  4  5  1  0
  4  2  1  0
  6  7  1  0
  6  5  1  0
  7  8  1  0
  8  9  1  6
 10  8  1  0
 10 17  1  0
 11 10  2  0
 13 12  1  1
 13 14  1  0
 16 15  1  6
 15 13  1  0
 16 17  1  0
 18 16  1  0
 19 18  2  0
 21 20  1  1
 21 22  1  0
 21 23  1  0
 22 18  1  0
 23 24  1  0
 25 23  2  0
M  END
$$$$
