RLA.pdb
     RDKit          3D

 25 24  0  0  1  0  0  0  0  0999 V2000
    9.3007  -22.0116   14.8727 N   0  0  0  0  0  0  0  0  0  0  0  0
    8.8402  -21.9975   16.2254 C   0  0  0  0  0  0  0  0  0  0  0  0
    8.4640  -23.1194   16.7241 N   0  0  0  0  0  0  0  0  0  0  0  0
    8.7831  -20.8357   17.0109 N   0  0  0  0  0  0  0  0  0  0  0  0
    9.5126  -19.6225   16.6842 C   0  0  0  0  0  0  0  0  0  0  0  0
   10.9237  -19.8238   17.1789 C   0  0  0  0  0  0  0  0  0  0  0  0
   11.2882  -18.6898   18.0969 C   0  0  0  0  0  0  0  0  0  0  0  0
   11.4953  -17.4520   17.2637 C   0  0  2  0  0  0  0  0  0  0  0  0
   12.8896  -17.4976   16.8117 N   0  0  0  0  0  0  0  0  0  0  0  0
   11.3112  -16.2852   18.1966 C   0  0  0  0  0  0  0  0  0  0  0  0
   12.2971  -15.6676   18.6633 O   0  0  0  0  0  0  0  0  0  0  0  0
    8.1156  -23.2550   17.6872 C   0  0  0  0  0  0  0  0  0  0  0  0
    6.6348  -12.6873   20.1365 C   0  0  1  0  0  0  0  0  0  0  0  0
    8.0853  -13.0618   20.1675 C   0  0  0  0  0  0  0  0  0  0  0  0
    8.8854  -11.8408   19.7199 C   0  0  0  0  0  0  0  0  0  0  0  0
    8.4502  -14.1784   19.2432 C   0  0  2  0  0  0  0  0  0  0  0  0
    9.8797  -14.6667   19.4116 N   0  0  0  0  0  0  0  0  0  0  0  0
   10.0238  -15.8411   18.5824 C   0  0  0  0  0  0  0  0  0  0  0  0
   10.1254  -15.0779   20.8252 O   0  0  0  0  0  0  0  0  0  0  0  0
   10.2365  -14.2411   21.7590 C   0  0  0  0  0  0  0  0  0  0  0  0
    9.8381  -18.1817   22.8447 C   0  0  2  0  0  0  0  0  0  0  0  0
   10.4926  -16.8337   22.5197 N   0  0  0  0  0  0  0  0  0  0  0  0
   10.2415  -16.4422   21.1584 C   0  0  0  0  0  0  0  0  0  0  0  0
   11.9600  -16.9062   22.6996 O   0  0  0  0  0  0  0  0  0  0  0  0
   12.4926  -17.1978   23.9658 O   0  0  0  0  0  0  0  0  0  0  0  0
  1  2  1  0
  2  3  2  0
  4  5  1  0
  4  2  1  0
  6  7  1  0
  6  5  1  0
  7  8  1  0
  8  9  1  1
 10  8  1  0
 10 17  1  0
 11 10  2  0
 13 12  1  1
 13 14  1  0
 16 15  1  6
 15 13  1  0
 16 17  1  0
 18 16  1  0
 19 18  2  0
 21 20  1  1
 21 22  1  0
 21 23  1  0
 22 18  1  0
 23 24  1  0
 25 23  2  0
M  END
$$$$
