RLA.pdb
     RDKit          3D

 25 24  0  0  1  0  0  0  0  0999 V2000
    8.2856  -12.4388   18.0550 N   0  0  0  0  0  0  0  0  0  0  0  0
    8.2461  -13.5547   17.1633 C   0  0  0  0  0  0  0  0  0  0  0  0
    7.4738  -13.4570   16.1422 N   0  0  0  0  0  0  0  0  0  0  0  0
    8.9981  -14.7244   17.3544 N   0  0  0  0  0  0  0  0  0  0  0  0
    9.9068  -14.9074   18.4731 C   0  0  0  0  0  0  0  0  0  0  0  0
    9.0629  -15.3474   19.6439 C   0  0  0  0  0  0  0  0  0  0  0  0
    9.9558  -15.5837   20.8308 C   0  0  0  0  0  0  0  0  0  0  0  0
    9.1923  -16.3942   21.8455 C   0  0  2  0  0  0  0  0  0  0  0  0
    7.8013  -16.4158   21.3817 N   0  0  0  0  0  0  0  0  0  0  0  0
    9.2752  -15.6288   23.1389 C   0  0  0  0  0  0  0  0  0  0  0  0
   10.3824  -15.3183   23.6377 O   0  0  0  0  0  0  0  0  0  0  0  0
    7.3821  -14.1658   15.3960 C   0  0  0  0  0  0  0  0  0  0  0  0
    5.5662  -12.4296   26.9424 C   0  0  1  0  0  0  0  0  0  0  0  0
    6.9119  -12.9806   26.5805 C   0  0  0  0  0  0  0  0  0  0  0  0
    7.8392  -11.7960   26.3197 C   0  0  0  0  0  0  0  0  0  0  0  0
    6.9196  -13.8149   25.3403 C   0  0  2  0  0  0  0  0  0  0  0  0
    8.2266  -14.5566   25.1127 N   0  0  0  0  0  0  0  0  0  0  0  0
    8.1117  -15.2312   23.8402 C   0  0  0  0  0  0  0  0  0  0  0  0
    8.4218  -15.6000   26.1620 O   0  0  0  0  0  0  0  0  0  0  0  0
    8.8210  -15.3197   27.3225 C   0  0  0  0  0  0  0  0  0  0  0  0
    7.4483  -19.1916   26.5977 C   0  0  2  0  0  0  0  0  0  0  0  0
    8.2932  -17.9496   26.9050 N   0  0  0  0  0  0  0  0  0  0  0  0
    8.1583  -16.9543   25.8750 C   0  0  0  0  0  0  0  0  0  0  0  0
    9.7278  -18.3014   27.0002 O   0  0  0  0  0  0  0  0  0  0  0  0
   10.1766  -19.1151   28.0530 O   0  0  0  0  0  0  0  0  0  0  0  0
  1  2  1  0
  2  3  2  0
  4  5  1  0
  4  2  1  0
  6  7  1  0
  6  5  1  0
  7  8  1  0
  8  9  1  6
 10  8  1  0
 10 17  1  0
 11 10  2  0
 13 12  1  1
 13 14  1  0
 16 15  1  6
 15 13  1  0
 16 17  1  0
 18 16  1  0
 19 18  2  0
 21 20  1  1
 21 22  1  0
 21 23  1  0
 22 18  1  0
 23 24  1  0
 25 23  2  0
M  END
$$$$
