RLA.pdb
     RDKit          3D

 25 24  0  0  1  0  0  0  0  0999 V2000
   10.7218  -19.7892   19.9478 N   0  0  0  0  0  0  0  0  0  0  0  0
    9.6582  -20.1658   19.0710 C   0  0  0  0  0  0  0  0  0  0  0  0
    9.8692  -21.1682   18.2968 N   0  0  0  0  0  0  0  0  0  0  0  0
    8.4233  -19.5002   19.0225 N   0  0  0  0  0  0  0  0  0  0  0  0
    8.0746  -18.4123   19.9199 C   0  0  0  0  0  0  0  0  0  0  0  0
    9.3062  -17.5501   20.0479 C   0  0  0  0  0  0  0  0  0  0  0  0
    8.9816  -16.3544   20.9004 C   0  0  0  0  0  0  0  0  0  0  0  0
    9.2135  -16.7224   22.3426 C   0  0  2  0  0  0  0  0  0  0  0  0
    8.0247  -17.4699   22.7652 N   0  0  0  0  0  0  0  0  0  0  0  0
    9.2809  -15.4230   23.0993 C   0  0  0  0  0  0  0  0  0  0  0  0
   10.1446  -14.5573   22.8238 O   0  0  0  0  0  0  0  0  0  0  0  0
    9.1720  -21.5819   17.6562 C   0  0  0  0  0  0  0  0  0  0  0  0
    5.6909  -12.1667   26.9488 C   0  0  1  0  0  0  0  0  0  0  0  0
    7.0012  -12.3528   26.2461 C   0  0  0  0  0  0  0  0  0  0  0  0
    7.2135  -11.1421   25.3403 C   0  0  0  0  0  0  0  0  0  0  0  0
    7.0607  -13.5621   25.3698 C   0  0  2  0  0  0  0  0  0  0  0  0
    8.4523  -13.8606   24.8364 N   0  0  0  0  0  0  0  0  0  0  0  0
    8.3762  -15.1282   24.1472 C   0  0  0  0  0  0  0  0  0  0  0  0
    9.4188  -14.0156   25.9633 O   0  0  0  0  0  0  0  0  0  0  0  0
   10.0954  -13.0509   26.4059 C   0  0  0  0  0  0  0  0  0  0  0  0
   10.0335  -14.5460   28.8804 C   0  0  2  0  0  0  0  0  0  0  0  0
   10.4922  -15.4058   27.6967 N   0  0  0  0  0  0  0  0  0  0  0  0
    9.6023  -15.2722   26.5742 C   0  0  0  0  0  0  0  0  0  0  0  0
   10.5268  -16.8376   28.0705 O   0  0  0  0  0  0  0  0  0  0  0  0
   11.3827  -17.2686   29.0969 O   0  0  0  0  0  0  0  0  0  0  0  0
  1  2  1  0
  2  3  2  0
  4  5  1  0
  4  2  1  0
  6  7  1  0
  6  5  1  0
  7  8  1  0
  8  9  1  1
 10  8  1  0
 10 17  1  0
 11 10  2  0
 13 12  1  1
 13 14  1  0
 16 15  1  6
 15 13  1  0
 16 17  1  0
 18 16  1  0
 19 18  2  0
 21 20  1  6
 21 22  1  0
 21 23  1  0
 22 18  1  0
 23 24  1  0
 25 23  2  0
M  END
$$$$
