RLA.pdb
     RDKit          3D

 25 24  0  0  1  0  0  0  0  0999 V2000
    7.9436  -11.9202   18.0965 N   0  0  0  0  0  0  0  0  0  0  0  0
    8.5082  -13.1965   17.7895 C   0  0  0  0  0  0  0  0  0  0  0  0
    9.4611  -13.2199   16.9291 N   0  0  0  0  0  0  0  0  0  0  0  0
    8.0733  -14.3957   18.3751 N   0  0  0  0  0  0  0  0  0  0  0  0
    6.9303  -14.4715   19.2686 C   0  0  0  0  0  0  0  0  0  0  0  0
    7.2397  -15.5566   20.2703 C   0  0  0  0  0  0  0  0  0  0  0  0
    8.1364  -14.9959   21.3395 C   0  0  0  0  0  0  0  0  0  0  0  0
    8.4558  -16.0967   22.3170 C   0  0  2  0  0  0  0  0  0  0  0  0
    7.1827  -16.7671   22.6007 N   0  0  0  0  0  0  0  0  0  0  0  0
    8.9502  -15.4162   23.5652 C   0  0  0  0  0  0  0  0  0  0  0  0
   10.0975  -14.9139   23.6177 O   0  0  0  0  0  0  0  0  0  0  0  0
    9.8853  -14.0755   16.5348 C   0  0  0  0  0  0  0  0  0  0  0  0
    7.8867  -11.7430   25.6078 C   0  0  2  0  0  0  0  0  0  0  0  0
    6.9420  -12.8858   25.8243 C   0  0  0  0  0  0  0  0  0  0  0  0
    5.7497  -12.3534   26.6157 C   0  0  0  0  0  0  0  0  0  0  0  0
    7.5166  -14.0144   26.6181 C   0  0  2  0  0  0  0  0  0  0  0  0
    8.6730  -14.7186   25.9277 N   0  0  0  0  0  0  0  0  0  0  0  0
    8.1435  -15.3169   24.7240 C   0  0  0  0  0  0  0  0  0  0  0  0
    9.1986  -15.8200   26.7871 O   0  0  0  0  0  0  0  0  0  0  0  0
    9.5947  -15.6225   27.9655 C   0  0  0  0  0  0  0  0  0  0  0  0
    9.4928  -19.5648   26.5893 C   0  0  2  0  0  0  0  0  0  0  0  0
    9.9079  -18.1673   27.0642 N   0  0  0  0  0  0  0  0  0  0  0  0
    9.2662  -17.1374   26.2913 C   0  0  0  0  0  0  0  0  0  0  0  0
   11.3700  -17.9802   26.9297 O   0  0  0  0  0  0  0  0  0  0  0  0
   11.8722  -17.0877   25.9689 O   0  0  0  0  0  0  0  0  0  0  0  0
  1  2  1  0
  2  3  2  0
  4  5  1  0
  4  2  1  0
  6  7  1  0
  6  5  1  0
  7  8  1  0
  8  9  1  1
 10  8  1  0
 10 17  1  0
 11 10  2  0
 13 12  1  6
 13 14  1  0
 16 15  1  6
 15 13  1  0
 16 17  1  0
 18 16  1  0
 19 18  2  0
 21 20  1  1
 21 22  1  0
 21 23  1  0
 22 18  1  0
 23 24  1  0
 25 23  2  0
M  END
$$$$
