RLA.pdb
     RDKit          3D

 25 24  0  0  1  0  0  0  0  0999 V2000
    8.3922  -12.9374   17.7807 N   0  0  0  0  0  0  0  0  0  0  0  0
    8.5337  -14.1862   17.1007 C   0  0  0  0  0  0  0  0  0  0  0  0
    8.4126  -14.1701   15.8225 N   0  0  0  0  0  0  0  0  0  0  0  0
    8.7923  -15.3995   17.7574 N   0  0  0  0  0  0  0  0  0  0  0  0
    7.7974  -16.0959   18.5547 C   0  0  0  0  0  0  0  0  0  0  0  0
    8.5569  -16.9179   19.5665 C   0  0  0  0  0  0  0  0  0  0  0  0
    9.0712  -16.0100   20.6496 C   0  0  0  0  0  0  0  0  0  0  0  0
    8.3730  -16.3633   21.9368 C   0  0  2  0  0  0  0  0  0  0  0  0
    6.9799  -16.6463   21.5764 N   0  0  0  0  0  0  0  0  0  0  0  0
    8.4254  -15.1265   22.7931 C   0  0  0  0  0  0  0  0  0  0  0  0
    8.4219  -13.9830   22.2798 O   0  0  0  0  0  0  0  0  0  0  0  0
    8.5590  -14.9825   15.2011 C   0  0  0  0  0  0  0  0  0  0  0  0
    5.6733  -12.5243   27.1726 C   0  0  1  0  0  0  0  0  0  0  0  0
    6.9906  -12.6185   26.4646 C   0  0  0  0  0  0  0  0  0  0  0  0
    7.1439  -11.3631   25.6091 C   0  0  0  0  0  0  0  0  0  0  0  0
    7.1075  -13.7869   25.5397 C   0  0  2  0  0  0  0  0  0  0  0  0
    8.5119  -13.9979   24.9985 N   0  0  0  0  0  0  0  0  0  0  0  0
    8.4806  -15.2051   24.2053 C   0  0  0  0  0  0  0  0  0  0  0  0
    9.4733  -14.2174   26.1189 O   0  0  0  0  0  0  0  0  0  0  0  0
   10.2389  -13.3091   26.5353 C   0  0  0  0  0  0  0  0  0  0  0  0
   10.0010  -14.7368   29.0525 C   0  0  2  0  0  0  0  0  0  0  0  0
   10.4084  -15.6545   27.8937 N   0  0  0  0  0  0  0  0  0  0  0  0
    9.5503  -15.4734   26.7533 C   0  0  0  0  0  0  0  0  0  0  0  0
   10.3223  -17.0765   28.2954 O   0  0  0  0  0  0  0  0  0  0  0  0
   11.0990  -17.5453   29.3673 O   0  0  0  0  0  0  0  0  0  0  0  0
  1  2  1  0
  2  3  2  0
  4  5  1  0
  4  2  1  0
  6  7  1  0
  6  5  1  0
  7  8  1  0
  8  9  1  6
 10  8  1  0
 10 17  1  0
 11 10  2  0
 13 12  1  1
 13 14  1  0
 16 15  1  6
 15 13  1  0
 16 17  1  0
 18 16  1  0
 19 18  2  0
 21 20  1  6
 21 22  1  0
 21 23  1  0
 22 18  1  0
 23 24  1  0
 25 23  2  0
M  END
$$$$
