RLA.pdb
     RDKit          3D

 25 24  0  0  1  0  0  0  0  0999 V2000
   12.7446  -20.1505   21.4451 N   0  0  0  0  0  0  0  0  0  0  0  0
   11.6653  -21.0852   21.3861 C   0  0  0  0  0  0  0  0  0  0  0  0
   11.5830  -21.8137   20.3319 N   0  0  0  0  0  0  0  0  0  0  0  0
   10.7148  -21.2347   22.4080 N   0  0  0  0  0  0  0  0  0  0  0  0
   10.4360  -20.1987   23.3876 C   0  0  0  0  0  0  0  0  0  0  0  0
   10.1771  -18.9317   22.6103 C   0  0  0  0  0  0  0  0  0  0  0  0
    9.8177  -17.8316   23.5708 C   0  0  0  0  0  0  0  0  0  0  0  0
    8.7000  -17.0213   22.9680 C   0  0  2  0  0  0  0  0  0  0  0  0
    8.9903  -16.9369   21.5331 N   0  0  0  0  0  0  0  0  0  0  0  0
    8.8023  -15.6496   23.5792 C   0  0  0  0  0  0  0  0  0  0  0  0
    9.7812  -14.9046   23.3380 O   0  0  0  0  0  0  0  0  0  0  0  0
   10.8714  -22.5448   20.1684 C   0  0  0  0  0  0  0  0  0  0  0  0
    5.3182  -11.8713   27.0878 C   0  0  1  0  0  0  0  0  0  0  0  0
    6.5928  -12.1648   26.3567 C   0  0  0  0  0  0  0  0  0  0  0  0
    6.7894  -11.0657   25.3152 C   0  0  0  0  0  0  0  0  0  0  0  0
    6.5904  -13.4637   25.6171 C   0  0  2  0  0  0  0  0  0  0  0  0
    7.9449  -13.8382   25.0382 N   0  0  0  0  0  0  0  0  0  0  0  0
    7.8024  -15.1486   24.4467 C   0  0  0  0  0  0  0  0  0  0  0  0
    8.9640  -13.9402   26.1240 O   0  0  0  0  0  0  0  0  0  0  0  0
    9.4646  -12.9244   26.6736 C   0  0  0  0  0  0  0  0  0  0  0  0
    9.6354  -14.6936   28.9630 C   0  0  2  0  0  0  0  0  0  0  0  0
   10.2758  -15.3019   27.7097 N   0  0  0  0  0  0  0  0  0  0  0  0
    9.4011  -15.2029   26.5718 C   0  0  0  0  0  0  0  0  0  0  0  0
   10.5765  -16.7362   27.9177 O   0  0  0  0  0  0  0  0  0  0  0  0
    9.5345  -17.6771   27.8898 O   0  0  0  0  0  0  0  0  0  0  0  0
  1  2  1  0
  2  3  2  0
  4  5  1  0
  4  2  1  0
  6  7  1  0
  6  5  1  0
  7  8  1  0
  8  9  1  6
 10  8  1  0
 10 17  1  0
 11 10  2  0
 13 12  1  1
 13 14  1  0
 16 15  1  6
 15 13  1  0
 16 17  1  0
 18 16  1  0
 19 18  2  0
 21 20  1  6
 21 22  1  0
 21 23  1  0
 22 18  1  0
 23 24  1  0
 25 23  2  0
M  END
$$$$
