RLA.pdb
     RDKit          3D

 25 24  0  0  1  0  0  0  0  0999 V2000
    7.8732  -15.5044   16.4365 N   0  0  0  0  0  0  0  0  0  0  0  0
    8.0922  -14.1321   16.1035 C   0  0  0  0  0  0  0  0  0  0  0  0
    7.4964  -13.6846   15.0577 N   0  0  0  0  0  0  0  0  0  0  0  0
    8.9124  -13.2754   16.8541 N   0  0  0  0  0  0  0  0  0  0  0  0
    8.5858  -12.8481   18.2037 C   0  0  0  0  0  0  0  0  0  0  0  0
    8.2907  -14.1009   18.9909 C   0  0  0  0  0  0  0  0  0  0  0  0
    7.9041  -13.7195   20.3933 C   0  0  0  0  0  0  0  0  0  0  0  0
    8.5169  -14.7158   21.3426 C   0  0  2  0  0  0  0  0  0  0  0  0
    7.6827  -15.9191   21.2595 N   0  0  0  0  0  0  0  0  0  0  0  0
    8.3906  -14.1152   22.7169 C   0  0  0  0  0  0  0  0  0  0  0  0
    8.2021  -12.8856   22.8714 O   0  0  0  0  0  0  0  0  0  0  0  0
    7.5595  -12.7149   14.7067 C   0  0  0  0  0  0  0  0  0  0  0  0
    5.4888  -12.4083   26.7950 C   0  0  1  0  0  0  0  0  0  0  0  0
    6.9061  -12.8445   26.5796 C   0  0  0  0  0  0  0  0  0  0  0  0
    7.7876  -11.6005   26.6605 C   0  0  0  0  0  0  0  0  0  0  0  0
    7.1601  -13.4664   25.2444 C   0  0  2  0  0  0  0  0  0  0  0  0
    8.4348  -14.2924   25.1891 N   0  0  0  0  0  0  0  0  0  0  0  0
    8.4795  -14.9109   23.8842 C   0  0  0  0  0  0  0  0  0  0  0  0
    8.3914  -15.3840   26.2061 O   0  0  0  0  0  0  0  0  0  0  0  0
    8.3609  -15.1499   27.4426 C   0  0  0  0  0  0  0  0  0  0  0  0
    7.4731  -18.9535   26.3251 C   0  0  2  0  0  0  0  0  0  0  0  0
    8.3506  -17.7828   26.7836 N   0  0  0  0  0  0  0  0  0  0  0  0
    8.3829  -16.7334   25.8000 C   0  0  0  0  0  0  0  0  0  0  0  0
    9.7445  -18.2279   27.0069 O   0  0  0  0  0  0  0  0  0  0  0  0
   10.0279  -19.1382   28.0379 O   0  0  0  0  0  0  0  0  0  0  0  0
  1  2  1  0
  2  3  2  0
  4  5  1  0
  4  2  1  0
  6  7  1  0
  6  5  1  0
  7  8  1  0
  8  9  1  1
 10  8  1  0
 10 17  1  0
 11 10  2  0
 13 12  1  1
 13 14  1  0
 16 15  1  6
 15 13  1  0
 16 17  1  0
 18 16  1  0
 19 18  2  0
 21 20  1  1
 21 22  1  0
 21 23  1  0
 22 18  1  0
 23 24  1  0
 25 23  2  0
M  END
$$$$
