RLA.pdb
     RDKit          3D

 25 24  0  0  1  0  0  0  0  0999 V2000
    7.7006  -15.2325   16.0900 N   0  0  0  0  0  0  0  0  0  0  0  0
    7.4653  -14.1600   17.0045 C   0  0  0  0  0  0  0  0  0  0  0  0
    7.9454  -13.0112   16.6906 N   0  0  0  0  0  0  0  0  0  0  0  0
    6.7491  -14.3082   18.2026 N   0  0  0  0  0  0  0  0  0  0  0  0
    6.7602  -15.5321   18.9853 C   0  0  0  0  0  0  0  0  0  0  0  0
    8.1689  -15.7005   19.4986 C   0  0  0  0  0  0  0  0  0  0  0  0
    8.1438  -15.7234   21.0021 C   0  0  0  0  0  0  0  0  0  0  0  0
    8.8897  -14.5164   21.5080 C   0  0  2  0  0  0  0  0  0  0  0  0
   10.1611  -14.4915   20.7777 N   0  0  0  0  0  0  0  0  0  0  0  0
    9.1573  -14.7723   22.9670 C   0  0  0  0  0  0  0  0  0  0  0  0
   10.2814  -15.1635   23.3601 O   0  0  0  0  0  0  0  0  0  0  0  0
    7.8643  -12.1559   17.2646 C   0  0  0  0  0  0  0  0  0  0  0  0
    8.4948  -11.9361   26.6751 C   0  0  2  0  0  0  0  0  0  0  0  0
    7.3073  -12.6066   26.0539 C   0  0  0  0  0  0  0  0  0  0  0  0
    6.0679  -12.1485   26.8189 C   0  0  0  0  0  0  0  0  0  0  0  0
    7.3350  -14.0989   26.1326 C   0  0  2  0  0  0  0  0  0  0  0  0
    8.4749  -14.7296   25.3497 N   0  0  0  0  0  0  0  0  0  0  0  0
    8.1552  -14.5827   23.9484 C   0  0  0  0  0  0  0  0  0  0  0  0
    8.5614  -16.1905   25.6433 O   0  0  0  0  0  0  0  0  0  0  0  0
    7.5747  -16.9615   25.5151 C   0  0  0  0  0  0  0  0  0  0  0  0
   10.9997  -18.8423   25.6519 C   0  0  2  0  0  0  0  0  0  0  0  0
    9.8461  -18.1586   26.3954 N   0  0  0  0  0  0  0  0  0  0  0  0
    9.7756  -16.7566   26.0806 C   0  0  0  0  0  0  0  0  0  0  0  0
   10.0217  -18.2785   27.8602 O   0  0  0  0  0  0  0  0  0  0  0  0
   10.0529  -19.5498   28.4558 O   0  0  0  0  0  0  0  0  0  0  0  0
  1  2  1  0
  2  3  2  0
  4  5  1  0
  4  2  1  0
  6  7  1  0
  6  5  1  0
  7  8  1  0
  8  9  1  6
 10  8  1  0
 10 17  1  0
 11 10  2  0
 13 12  1  6
 13 14  1  0
 16 15  1  6
 15 13  1  0
 16 17  1  0
 18 16  1  0
 19 18  2  0
 21 20  1  6
 21 22  1  0
 21 23  1  0
 22 18  1  0
 23 24  1  0
 25 23  2  0
M  END
$$$$
