DID.pdb
     RDKit          3D

 25 24  0  0  1  0  0  0  0  0999 V2000
    6.8221  -16.3750   21.9744 N   0  0  0  0  0  0  0  0  0  0  0  0
    8.2429  -16.1390   21.8387 C   0  0  1  0  0  0  0  0  0  0  0  0
    8.4228  -15.2525   20.6062 C   0  0  0  0  0  0  0  0  0  0  0  0
    8.3766  -16.0938   19.3835 C   0  0  0  0  0  0  0  0  0  0  0  0
    8.2282  -17.3427   19.3945 O   0  0  0  0  0  0  0  0  0  0  0  0
    8.7863  -15.4314   23.0269 C   0  0  0  0  0  0  0  0  0  0  0  0
   10.0047  -15.0523   23.0655 O   0  0  0  0  0  0  0  0  0  0  0  0
    8.5032  -15.4772   18.1580 O   0  0  0  0  0  0  0  0  0  0  0  0
    5.6597  -12.0526   25.7615 C   0  0  0  0  0  0  0  0  0  0  0  0
    6.9766  -12.5477   25.1680 C   0  0  0  0  0  0  0  0  0  0  0  0
    7.5079  -13.6394   26.0080 C   0  0  2  0  0  0  0  0  0  0  0  0
    8.1743  -13.0077   27.2380 C   0  0  0  0  0  0  0  0  0  0  0  0
    8.5168  -14.5317   25.3774 C   0  0  2  0  0  0  0  0  0  0  0  0
    7.9974  -15.1394   24.1709 N   0  0  0  0  0  0  0  0  0  0  0  0
    9.1098  -15.5470   26.2202 C   0  0  0  0  0  0  0  0  0  0  0  0
    8.4925  -16.5346   26.7242 O   0  0  0  0  0  0  0  0  0  0  0  0
   10.4910  -15.4613   26.5275 N   0  0  0  0  0  0  0  0  0  0  0  0
   11.1379  -16.4661   27.3820 C   0  0  1  0  0  0  0  0  0  0  0  0
   12.6204  -16.3859   27.2461 C   0  0  0  0  0  0  0  0  0  0  0  0
   13.3123  -17.6188   26.8783 C   0  0  0  0  0  0  0  0  0  0  0  0
   12.9997  -18.6790   27.5251 O   0  0  0  0  0  0  0  0  0  0  0  0
   10.7259  -16.2401   28.7934 C   0  0  0  0  0  0  0  0  0  0  0  0
   10.5162  -17.1937   29.5929 O   0  0  0  0  0  0  0  0  0  0  0  0
   14.2769  -17.7436   25.8963 O   0  0  0  0  0  0  0  0  0  0  0  0
   10.5612  -14.9662   29.2696 O   0  0  0  0  0  0  0  0  0  0  0  0
  2  1  1  1
  3  2  1  0
  3  4  1  0
  4  5  2  0
  6  2  1  0
  6  7  2  0
  8  4  1  0
  9 10  1  0
 10 11  1  0
 11 13  1  0
 11 12  1  1
 13 14  1  6
 14  6  1  0
 15 13  1  0
 15 16  2  0
 17 18  1  0
 17 15  1  0
 18 19  1  1
 19 20  1  0
 20 24  1  0
 21 20  2  0
 22 18  1  0
 23 22  2  0
 25 22  1  0
M  END
$$$$
