DID.pdb
     RDKit          3D

 25 24  0  0  1  0  0  0  0  0999 V2000
    9.3322  -17.7360   16.0388 N   0  0  0  0  0  0  0  0  0  0  0  0
    8.4513  -17.6119   17.1797 C   0  0  1  0  0  0  0  0  0  0  0  0
    8.2340  -19.0256   17.7196 C   0  0  0  0  0  0  0  0  0  0  0  0
    7.4161  -19.8016   16.7533 C   0  0  0  0  0  0  0  0  0  0  0  0
    6.8546  -19.3003   15.7457 O   0  0  0  0  0  0  0  0  0  0  0  0
    9.0648  -16.7765   18.2443 C   0  0  0  0  0  0  0  0  0  0  0  0
   10.2942  -16.4373   18.1866 O   0  0  0  0  0  0  0  0  0  0  0  0
    7.2574  -21.1535   16.9655 O   0  0  0  0  0  0  0  0  0  0  0  0
    6.7498  -12.3023   20.1263 C   0  0  0  0  0  0  0  0  0  0  0  0
    7.8225  -13.2959   19.6862 C   0  0  0  0  0  0  0  0  0  0  0  0
    7.9750  -14.3364   20.7223 C   0  0  2  0  0  0  0  0  0  0  0  0
    8.5187  -13.6644   21.9906 C   0  0  0  0  0  0  0  0  0  0  0  0
    8.8903  -15.4640   20.4016 C   0  0  2  0  0  0  0  0  0  0  0  0
    8.3339  -16.3132   19.3702 N   0  0  0  0  0  0  0  0  0  0  0  0
    9.3434  -16.2745   21.5108 C   0  0  0  0  0  0  0  0  0  0  0  0
    8.6794  -17.2080   22.0567 O   0  0  0  0  0  0  0  0  0  0  0  0
   10.6293  -16.0322   22.0560 N   0  0  0  0  0  0  0  0  0  0  0  0
   11.2192  -16.9535   23.0366 C   0  0  1  0  0  0  0  0  0  0  0  0
   12.7076  -16.8930   22.9754 C   0  0  0  0  0  0  0  0  0  0  0  0
   13.4369  -17.7183   23.9351 C   0  0  0  0  0  0  0  0  0  0  0  0
   12.9817  -18.8942   24.1587 O   0  0  0  0  0  0  0  0  0  0  0  0
   10.7333  -16.5919   24.3952 C   0  0  0  0  0  0  0  0  0  0  0  0
   10.9303  -17.3320   25.3982 O   0  0  0  0  0  0  0  0  0  0  0  0
   14.5735  -17.3429   24.6262 O   0  0  0  0  0  0  0  0  0  0  0  0
   10.0468  -15.4234   24.5952 O   0  0  0  0  0  0  0  0  0  0  0  0
  2  1  1  6
  3  2  1  0
  3  4  1  0
  4  5  2  0
  6  2  1  0
  6  7  2  0
  8  4  1  0
  9 10  1  0
 10 11  1  0
 11 13  1  0
 11 12  1  1
 13 14  1  6
 14  6  1  0
 15 13  1  0
 15 16  2  0
 17 18  1  0
 17 15  1  0
 18 19  1  1
 19 20  1  0
 20 24  1  0
 21 20  2  0
 22 18  1  0
 23 22  2  0
 25 22  1  0
M  END
$$$$
