DID.pdb
     RDKit          3D

 25 24  0  0  1  0  0  0  0  0999 V2000
    9.8128  -18.5942   19.1513 N   0  0  0  0  0  0  0  0  0  0  0  0
   11.0123  -17.7910   19.2459 C   0  0  1  0  0  0  0  0  0  0  0  0
   11.3156  -17.2908   17.8334 C   0  0  0  0  0  0  0  0  0  0  0  0
   11.5858  -18.4513   16.9474 C   0  0  0  0  0  0  0  0  0  0  0  0
   10.7867  -18.8668   16.0695 O   0  0  0  0  0  0  0  0  0  0  0  0
   10.8074  -16.6218   20.1396 C   0  0  0  0  0  0  0  0  0  0  0  0
   11.7331  -15.7611   20.3181 O   0  0  0  0  0  0  0  0  0  0  0  0
   12.7823  -19.1195   17.0885 O   0  0  0  0  0  0  0  0  0  0  0  0
    6.5786  -13.3725   19.9701 C   0  0  0  0  0  0  0  0  0  0  0  0
    8.0053  -13.8788   20.1690 C   0  0  0  0  0  0  0  0  0  0  0  0
    8.0904  -14.5981   21.4555 C   0  0  2  0  0  0  0  0  0  0  0  0
    7.8649  -13.5802   22.5819 C   0  0  0  0  0  0  0  0  0  0  0  0
    9.3744  -15.2901   21.7459 C   0  0  2  0  0  0  0  0  0  0  0  0
    9.5912  -16.3951   20.8367 N   0  0  0  0  0  0  0  0  0  0  0  0
    9.5879  -15.7283   23.1078 C   0  0  0  0  0  0  0  0  0  0  0  0
    9.5634  -14.9793   24.1320 O   0  0  0  0  0  0  0  0  0  0  0  0
    9.8481  -17.1000   23.3534 N   0  0  0  0  0  0  0  0  0  0  0  0
   10.1234  -17.5845   24.7127 C   0  0  1  0  0  0  0  0  0  0  0  0
    9.9249  -19.0602   24.7877 C   0  0  0  0  0  0  0  0  0  0  0  0
   10.3111  -19.7106   26.0374 C   0  0  0  0  0  0  0  0  0  0  0  0
    9.5309  -19.5567   27.0412 O   0  0  0  0  0  0  0  0  0  0  0  0
   11.5173  -17.2215   25.0839 C   0  0  0  0  0  0  0  0  0  0  0  0
   12.4150  -17.0301   24.2178 O   0  0  0  0  0  0  0  0  0  0  0  0
   11.4452  -20.4756   26.2349 O   0  0  0  0  0  0  0  0  0  0  0  0
   11.8679  -17.0831   26.4009 O   0  0  0  0  0  0  0  0  0  0  0  0
  2  1  1  6
  3  2  1  0
  3  4  1  0
  4  5  2  0
  6  2  1  0
  6  7  2  0
  8  4  1  0
  9 10  1  0
 10 11  1  0
 11 13  1  0
 11 12  1  1
 13 14  1  6
 14  6  1  0
 15 13  1  0
 15 16  2  0
 17 18  1  0
 17 15  1  0
 18 19  1  6
 19 20  1  0
 20 24  1  0
 21 20  2  0
 22 18  1  0
 23 22  2  0
 25 22  1  0
M  END
$$$$
