DID.pdb
     RDKit          3D

 25 24  0  0  1  0  0  0  0  0999 V2000
    9.6474  -17.4264   16.6560 N   0  0  0  0  0  0  0  0  0  0  0  0
    9.5993  -17.7243   18.0708 C   0  0  1  0  0  0  0  0  0  0  0  0
   10.5540  -18.8956   18.3034 C   0  0  0  0  0  0  0  0  0  0  0  0
   10.2127  -20.0014   17.3731 C   0  0  0  0  0  0  0  0  0  0  0  0
    9.9134  -19.8350   16.1629 O   0  0  0  0  0  0  0  0  0  0  0  0
   10.0517  -16.5634   18.8804 C   0  0  0  0  0  0  0  0  0  0  0  0
   11.2353  -16.1003   18.7607 O   0  0  0  0  0  0  0  0  0  0  0  0
   10.2219  -21.2914   17.8564 O   0  0  0  0  0  0  0  0  0  0  0  0
    6.1962  -13.0916   21.1590 C   0  0  0  0  0  0  0  0  0  0  0  0
    7.1602  -14.2639   20.9912 C   0  0  0  0  0  0  0  0  0  0  0  0
    8.4976  -13.7465   20.6401 C   0  0  2  0  0  0  0  0  0  0  0  0
    8.4037  -13.0969   19.2526 C   0  0  0  0  0  0  0  0  0  0  0  0
    9.6003  -14.7426   20.5798 C   0  0  2  0  0  0  0  0  0  0  0  0
    9.2100  -15.9106   19.8194 N   0  0  0  0  0  0  0  0  0  0  0  0
   10.1825  -15.1511   21.8394 C   0  0  0  0  0  0  0  0  0  0  0  0
   10.6724  -14.3680   22.7096 O   0  0  0  0  0  0  0  0  0  0  0  0
   10.2249  -16.5316   22.1588 N   0  0  0  0  0  0  0  0  0  0  0  0
   10.8240  -16.9972   23.4168 C   0  0  1  0  0  0  0  0  0  0  0  0
   10.2946  -18.3437   23.7765 C   0  0  0  0  0  0  0  0  0  0  0  0
   10.7820  -18.9277   25.0237 C   0  0  0  0  0  0  0  0  0  0  0  0
   11.5766  -18.2147   25.7310 O   0  0  0  0  0  0  0  0  0  0  0  0
   12.3031  -17.0369   23.2641 C   0  0  0  0  0  0  0  0  0  0  0  0
   13.0786  -17.1287   24.2554 O   0  0  0  0  0  0  0  0  0  0  0  0
   10.4646  -20.1826   25.5082 O   0  0  0  0  0  0  0  0  0  0  0  0
   12.8711  -16.9740   22.0191 O   0  0  0  0  0  0  0  0  0  0  0  0
  2  1  1  6
  3  2  1  0
  3  4  1  0
  4  5  2  0
  6  2  1  0
  6  7  2  0
  8  4  1  0
  9 10  1  0
 10 11  1  0
 11 13  1  0
 11 12  1  6
 13 14  1  1
 14  6  1  0
 15 13  1  0
 15 16  2  0
 17 18  1  0
 17 15  1  0
 18 19  1  6
 19 20  1  0
 20 24  1  0
 21 20  2  0
 22 18  1  0
 23 22  2  0
 25 22  1  0
M  END
$$$$
