DID.pdb
     RDKit          3D

 25 24  0  0  1  0  0  0  0  0999 V2000
    7.4490  -16.6996   22.0804 N   0  0  0  0  0  0  0  0  0  0  0  0
    8.8267  -16.2593   22.0492 C   0  0  1  0  0  0  0  0  0  0  0  0
    8.9362  -15.2472   20.9087 C   0  0  0  0  0  0  0  0  0  0  0  0
    8.6556  -15.9266   19.6186 C   0  0  0  0  0  0  0  0  0  0  0  0
    8.5127  -17.1701   19.4954 O   0  0  0  0  0  0  0  0  0  0  0  0
    9.2081  -15.5960   23.3230 C   0  0  0  0  0  0  0  0  0  0  0  0
   10.3747  -15.1032   23.4834 O   0  0  0  0  0  0  0  0  0  0  0  0
    8.5433  -15.1558   18.4823 O   0  0  0  0  0  0  0  0  0  0  0  0
    5.9592  -12.1073   25.6548 C   0  0  0  0  0  0  0  0  0  0  0  0
    7.1987  -12.8346   25.1387 C   0  0  0  0  0  0  0  0  0  0  0  0
    7.5768  -13.8908   26.0983 C   0  0  2  0  0  0  0  0  0  0  0  0
    8.0633  -13.2087   27.3844 C   0  0  0  0  0  0  0  0  0  0  0  0
    8.6515  -14.8248   25.6687 C   0  0  2  0  0  0  0  0  0  0  0  0
    8.3139  -15.4724   24.4192 N   0  0  0  0  0  0  0  0  0  0  0  0
    9.0817  -15.8145   26.6319 C   0  0  0  0  0  0  0  0  0  0  0  0
    9.4684  -15.5673   27.8151 O   0  0  0  0  0  0  0  0  0  0  0  0
    9.0835  -17.1813   26.2557 N   0  0  0  0  0  0  0  0  0  0  0  0
    9.4277  -18.2305   27.2247 C   0  0  1  0  0  0  0  0  0  0  0  0
    8.9827  -19.5633   26.7263 C   0  0  0  0  0  0  0  0  0  0  0  0
    7.5479  -19.7379   26.5144 C   0  0  0  0  0  0  0  0  0  0  0  0
    6.7637  -19.2687   27.4116 O   0  0  0  0  0  0  0  0  0  0  0  0
   10.8978  -18.2176   27.4517 C   0  0  0  0  0  0  0  0  0  0  0  0
   11.6879  -17.5815   26.7010 O   0  0  0  0  0  0  0  0  0  0  0  0
    6.9601  -20.3670   25.4332 O   0  0  0  0  0  0  0  0  0  0  0  0
   11.4408  -18.9093   28.5021 O   0  0  0  0  0  0  0  0  0  0  0  0
  2  1  1  1
  3  2  1  0
  3  4  1  0
  4  5  2  0
  6  2  1  0
  6  7  2  0
  8  4  1  0
  9 10  1  0
 10 11  1  0
 11 13  1  0
 11 12  1  1
 13 14  1  6
 14  6  1  0
 15 13  1  0
 15 16  2  0
 17 18  1  0
 17 15  1  0
 18 19  1  6
 19 20  1  0
 20 24  1  0
 21 20  2  0
 22 18  1  0
 23 22  2  0
 25 22  1  0
M  END
$$$$
