DID.pdb
     RDKit          3D

 25 24  0  0  1  0  0  0  0  0999 V2000
    9.0494  -15.0195   20.6799 N   0  0  0  0  0  0  0  0  0  0  0  0
    8.2394  -15.6277   21.7127 C   0  0  1  0  0  0  0  0  0  0  0  0
    8.4897  -17.1339   21.6341 C   0  0  0  0  0  0  0  0  0  0  0  0
    7.9793  -17.6510   20.3391 C   0  0  0  0  0  0  0  0  0  0  0  0
    8.3878  -17.2598   19.2157 O   0  0  0  0  0  0  0  0  0  0  0  0
    8.6328  -15.1417   23.0606 C   0  0  0  0  0  0  0  0  0  0  0  0
    9.8545  -14.9000   23.3411 O   0  0  0  0  0  0  0  0  0  0  0  0
    6.9986  -18.6183   20.3600 O   0  0  0  0  0  0  0  0  0  0  0  0
    7.3718  -11.4838   25.3569 C   0  0  0  0  0  0  0  0  0  0  0  0
    6.3869  -12.6505   25.3370 C   0  0  0  0  0  0  0  0  0  0  0  0
    6.9537  -13.7777   26.1035 C   0  0  2  0  0  0  0  0  0  0  0  0
    7.5181  -13.2196   27.4172 C   0  0  0  0  0  0  0  0  0  0  0  0
    8.0497  -14.5413   25.4494 C   0  0  2  0  0  0  0  0  0  0  0  0
    7.6905  -14.9208   24.0997 N   0  0  0  0  0  0  0  0  0  0  0  0
    8.5606  -15.6921   26.1615 C   0  0  0  0  0  0  0  0  0  0  0  0
    7.8662  -16.6779   26.5570 O   0  0  0  0  0  0  0  0  0  0  0  0
    9.9455  -15.7552   26.4576 N   0  0  0  0  0  0  0  0  0  0  0  0
   10.5002  -16.8685   27.2394 C   0  0  1  0  0  0  0  0  0  0  0  0
   11.8642  -17.2177   26.7494 C   0  0  0  0  0  0  0  0  0  0  0  0
   11.9845  -17.5595   25.3342 C   0  0  0  0  0  0  0  0  0  0  0  0
   11.1270  -18.3824   24.8573 O   0  0  0  0  0  0  0  0  0  0  0  0
   10.5401  -16.4805   28.6749 C   0  0  0  0  0  0  0  0  0  0  0  0
   10.3515  -15.2921   29.0551 O   0  0  0  0  0  0  0  0  0  0  0  0
   12.9430  -17.0763   24.4634 O   0  0  0  0  0  0  0  0  0  0  0  0
   10.7871  -17.4223   29.6386 O   0  0  0  0  0  0  0  0  0  0  0  0
  2  1  1  6
  3  2  1  0
  3  4  1  0
  4  5  2  0
  6  2  1  0
  6  7  2  0
  8  4  1  0
  9 10  1  0
 10 11  1  0
 11 13  1  0
 11 12  1  1
 13 14  1  6
 14  6  1  0
 15 13  1  0
 15 16  2  0
 17 18  1  0
 17 15  1  0
 18 19  1  6
 19 20  1  0
 20 24  1  0
 21 20  2  0
 22 18  1  0
 23 22  2  0
 25 22  1  0
M  END
$$$$
