DID.pdb
     RDKit          3D

 25 24  0  0  1  0  0  0  0  0999 V2000
    8.5657  -17.6152   16.9264 N   0  0  0  0  0  0  0  0  0  0  0  0
    9.9588  -17.2461   17.0518 C   0  0  1  0  0  0  0  0  0  0  0  0
   10.3287  -16.4951   15.7725 C   0  0  0  0  0  0  0  0  0  0  0  0
   10.4339  -17.4594   14.6483 C   0  0  0  0  0  0  0  0  0  0  0  0
   10.1219  -18.6748   14.7330 O   0  0  0  0  0  0  0  0  0  0  0  0
   10.1751  -16.3510   18.2179 C   0  0  0  0  0  0  0  0  0  0  0  0
   11.3330  -15.8818   18.4802 O   0  0  0  0  0  0  0  0  0  0  0  0
   10.9008  -17.0036   13.4349 O   0  0  0  0  0  0  0  0  0  0  0  0
    6.6455  -12.5258   20.0207 C   0  0  0  0  0  0  0  0  0  0  0  0
    7.9405  -13.2462   19.6524 C   0  0  0  0  0  0  0  0  0  0  0  0
    8.1784  -14.3399   20.6151 C   0  0  2  0  0  0  0  0  0  0  0  0
    8.4344  -13.7106   21.9915 C   0  0  0  0  0  0  0  0  0  0  0  0
    9.3277  -15.2391   20.3280 C   0  0  2  0  0  0  0  0  0  0  0  0
    9.1256  -15.9701   19.0954 N   0  0  0  0  0  0  0  0  0  0  0  0
    9.7227  -16.1516   21.3786 C   0  0  0  0  0  0  0  0  0  0  0  0
    9.1175  -17.2243   21.6848 O   0  0  0  0  0  0  0  0  0  0  0  0
   10.8752  -15.8530   22.1480 N   0  0  0  0  0  0  0  0  0  0  0  0
   11.3329  -16.7633   23.2065 C   0  0  1  0  0  0  0  0  0  0  0  0
   12.7731  -16.5247   23.5091 C   0  0  0  0  0  0  0  0  0  0  0  0
   13.6977  -16.5792   22.3794 C   0  0  0  0  0  0  0  0  0  0  0  0
   13.7783  -17.6880   21.7437 O   0  0  0  0  0  0  0  0  0  0  0  0
   10.4986  -16.5541   24.4201 C   0  0  0  0  0  0  0  0  0  0  0  0
   10.3866  -17.4337   25.3181 O   0  0  0  0  0  0  0  0  0  0  0  0
   14.4963  -15.5418   21.9363 O   0  0  0  0  0  0  0  0  0  0  0  0
    9.8183  -15.3783   24.5967 O   0  0  0  0  0  0  0  0  0  0  0  0
  2  1  1  6
  3  2  1  0
  3  4  1  0
  4  5  2  0
  6  2  1  0
  6  7  2  0
  8  4  1  0
  9 10  1  0
 10 11  1  0
 11 13  1  0
 11 12  1  1
 13 14  1  6
 14  6  1  0
 15 13  1  0
 15 16  2  0
 17 18  1  0
 17 15  1  0
 18 19  1  1
 19 20  1  0
 20 24  1  0
 21 20  2  0
 22 18  1  0
 23 22  2  0
 25 22  1  0
M  END
$$$$
