FRN.pdb
     RDKit          3D

 31 31  0  0  1  0  0  0  0  0999 V2000
   28.1197  -20.4109  -17.8939 N   0  0  0  0  0  0  0  0  0  0  0  0
   27.3114  -19.5410  -17.0744 C   0  0  1  0  0  0  0  0  0  0  0  0
   26.6186  -18.4795  -17.9303 C   0  0  0  0  0  0  0  0  0  0  0  0
   27.6071  -17.4664  -18.3520 C   0  0  0  0  0  0  0  0  0  0  0  0
   28.1794  -17.5397  -19.5853 C   0  0  0  0  0  0  0  0  0  0  0  0
   29.1097  -16.6030  -20.0076 C   0  0  0  0  0  0  0  0  0  0  0  0
   29.4616  -15.5734  -19.1553 C   0  0  0  0  0  0  0  0  0  0  0  0
   28.8867  -15.4810  -17.8880 C   0  0  0  0  0  0  0  0  0  0  0  0
   27.9582  -16.4415  -17.5051 C   0  0  0  0  0  0  0  0  0  0  0  0
   26.2274  -20.2864  -16.3802 C   0  0  0  0  0  0  0  0  0  0  0  0
   25.8101  -21.3383  -16.9258 O   0  0  0  0  0  0  0  0  0  0  0  0
   26.4091  -20.2214   -8.7529 N   0  0  0  0  0  0  0  0  0  0  0  0
   25.3156  -20.9091   -9.3389 C   0  0  0  0  0  0  0  0  0  0  0  0
   24.2319  -21.0341   -8.6495 N   0  0  0  0  0  0  0  0  0  0  0  0
   25.4474  -21.4273  -10.6393 N   0  0  0  0  0  0  0  0  0  0  0  0
   26.6089  -21.0578  -11.4329 C   0  0  0  0  0  0  0  0  0  0  0  0
   26.0924  -20.3586  -12.6729 C   0  0  0  0  0  0  0  0  0  0  0  0
   25.0291  -21.2402  -13.2784 C   0  0  0  0  0  0  0  0  0  0  0  0
   24.5291  -20.5517  -14.5345 C   0  0  2  0  0  0  0  0  0  0  0  0
   25.6488  -19.8866  -15.1612 N   0  0  0  0  0  0  0  0  0  0  0  0
   23.5464  -19.5221  -14.1170 C   0  0  0  0  0  0  0  0  0  0  0  0
   23.8384  -18.3037  -14.0705 O   0  0  0  0  0  0  0  0  0  0  0  0
   23.3690  -21.4643   -9.0415 N   0  0  0  0  0  0  0  0  0  0  0  0
   20.1903  -18.6836  -17.9609 C   0  0  0  0  0  0  0  0  0  0  0  0
   20.4506  -18.3340  -16.5874 O   0  0  0  0  0  0  0  0  0  0  0  0
   19.7349  -17.4571  -16.0581 C   0  0  0  0  0  0  0  0  0  0  0  0
   21.5410  -19.0297  -15.8943 C   0  0  2  0  0  0  0  0  0  0  0  0
   21.1057  -19.4120  -14.4987 N   0  0  0  0  0  0  0  0  0  0  0  0
   22.2228  -19.9185  -13.7539 C   0  0  0  0  0  0  0  0  0  0  0  0
   20.0545  -20.4822  -14.6133 O   0  0  0  0  0  0  0  0  0  0  0  0
   18.7382  -20.1714  -14.9526 O   0  0  0  0  0  0  0  0  0  0  0  0
  2  1  1  6
  2  3  1  0
  2 10  1  0
  3  4  1  0
  4  5  2  0
  5  6  1  0
  7  6  2  0
  8  7  1  0
  9  4  1  0
  9  8  2  0
 10 11  2  0
 10 20  1  0
 13 15  1  0
 13 12  1  0
 14 13  2  0
 16 15  1  0
 16 17  1  0
 18 17  1  0
 19 18  1  1
 20 19  1  0
 21 19  1  0
 21 22  2  0
 24 23  1  0
 24 26  1  0
 25 24  2  0
 27 26  1  1
 27 28  1  0
 28 21  1  0
 29 27  1  0
 30 29  1  0
 31 29  2  0
M  END
$$$$
