FRN.pdb
     RDKit          3D

 31 31  0  0  1  0  0  0  0  0999 V2000
   27.9723  -20.9182   -9.8290 N   0  0  0  0  0  0  0  0  0  0  0  0
   26.5322  -20.8405   -9.8717 C   0  0  1  0  0  0  0  0  0  0  0  0
   26.0182  -19.7712   -8.9064 C   0  0  0  0  0  0  0  0  0  0  0  0
   26.6673  -19.9438   -7.5910 C   0  0  0  0  0  0  0  0  0  0  0  0
   26.4316  -21.0634   -6.8527 C   0  0  0  0  0  0  0  0  0  0  0  0
   27.0270  -21.2521   -5.6153 C   0  0  0  0  0  0  0  0  0  0  0  0
   27.8780  -20.2804   -5.1235 C   0  0  0  0  0  0  0  0  0  0  0  0
   28.1322  -19.1266   -5.8646 C   0  0  0  0  0  0  0  0  0  0  0  0
   27.5142  -18.9780   -7.1004 C   0  0  0  0  0  0  0  0  0  0  0  0
   26.0398  -20.4528  -11.2207 C   0  0  0  0  0  0  0  0  0  0  0  0
   26.0358  -19.2287  -11.5033 O   0  0  0  0  0  0  0  0  0  0  0  0
   26.4278  -25.3134  -17.5406 N   0  0  0  0  0  0  0  0  0  0  0  0
   26.9564  -25.1316  -16.2370 C   0  0  0  0  0  0  0  0  0  0  0  0
   27.2299  -26.1804  -15.5364 N   0  0  0  0  0  0  0  0  0  0  0  0
   27.1629  -23.8268  -15.7553 N   0  0  0  0  0  0  0  0  0  0  0  0
   26.9041  -22.6991  -16.6365 C   0  0  0  0  0  0  0  0  0  0  0  0
   26.0874  -21.6988  -15.8455 C   0  0  0  0  0  0  0  0  0  0  0  0
   26.1284  -22.1253  -14.3995 C   0  0  0  0  0  0  0  0  0  0  0  0
   25.4197  -21.0556  -13.5900 C   0  0  2  0  0  0  0  0  0  0  0  0
   25.5835  -21.3673  -12.1882 N   0  0  0  0  0  0  0  0  0  0  0  0
   23.9758  -21.1300  -13.9209 C   0  0  0  0  0  0  0  0  0  0  0  0
   23.5385  -20.8422  -15.0602 O   0  0  0  0  0  0  0  0  0  0  0  0
   27.6000  -26.1206  -14.5655 N   0  0  0  0  0  0  0  0  0  0  0  0
   22.5668  -24.9966  -13.7103 C   0  0  0  0  0  0  0  0  0  0  0  0
   21.7280  -23.8987  -14.1195 O   0  0  0  0  0  0  0  0  0  0  0  0
   21.5305  -23.7337  -15.3422 C   0  0  0  0  0  0  0  0  0  0  0  0
   21.1572  -23.0412  -13.0744 C   0  0  2  0  0  0  0  0  0  0  0  0
   21.6489  -21.6225  -13.2440 N   0  0  0  0  0  0  0  0  0  0  0  0
   23.0442  -21.5408  -12.9188 C   0  0  0  0  0  0  0  0  0  0  0  0
   20.8653  -20.7410  -12.3099 O   0  0  0  0  0  0  0  0  0  0  0  0
   19.4738  -20.6768  -12.3710 O   0  0  0  0  0  0  0  0  0  0  0  0
  2  1  1  6
  2  3  1  0
  2 10  1  0
  3  4  1  0
  4  5  2  0
  5  6  1  0
  7  6  2  0
  8  7  1  0
  9  4  1  0
  9  8  2  0
 10 11  2  0
 10 20  1  0
 13 15  1  0
 13 12  1  0
 14 13  2  0
 16 15  1  0
 16 17  1  0
 18 17  1  0
 19 18  1  6
 20 19  1  0
 21 19  1  0
 21 22  2  0
 24 23  1  0
 24 26  1  0
 25 24  2  0
 27 26  1  6
 27 28  1  0
 28 21  1  0
 29 27  1  0
 30 29  1  0
 31 29  2  0
M  END
$$$$
