FRN.pdb
     RDKit          3D

 31 31  0  0  1  0  0  0  0  0999 V2000
   27.6345  -19.1109  -16.4428 N   0  0  0  0  0  0  0  0  0  0  0  0
   27.0475  -18.6817  -15.1966 C   0  0  1  0  0  0  0  0  0  0  0  0
   25.9826  -17.6109  -15.4395 C   0  0  0  0  0  0  0  0  0  0  0  0
   26.6342  -16.3613  -15.8814 C   0  0  0  0  0  0  0  0  0  0  0  0
   26.5896  -15.9918  -17.1912 C   0  0  0  0  0  0  0  0  0  0  0  0
   27.1919  -14.8246  -17.6341 C   0  0  0  0  0  0  0  0  0  0  0  0
   27.8513  -14.0209  -16.7233 C   0  0  0  0  0  0  0  0  0  0  0  0
   27.9082  -14.3822  -15.3774 C   0  0  0  0  0  0  0  0  0  0  0  0
   27.2906  -15.5608  -14.9765 C   0  0  0  0  0  0  0  0  0  0  0  0
   26.3598  -19.7993  -14.4962 C   0  0  0  0  0  0  0  0  0  0  0  0
   25.8934  -20.7248  -15.2064 O   0  0  0  0  0  0  0  0  0  0  0  0
   30.6700  -21.8280   -8.4143 N   0  0  0  0  0  0  0  0  0  0  0  0
   30.8905  -22.3807   -9.7019 C   0  0  0  0  0  0  0  0  0  0  0  0
   32.0072  -22.9884   -9.9233 N   0  0  0  0  0  0  0  0  0  0  0  0
   29.8944  -22.2493  -10.6856 N   0  0  0  0  0  0  0  0  0  0  0  0
   28.5460  -21.8836  -10.2812 C   0  0  0  0  0  0  0  0  0  0  0  0
   27.7449  -21.6782  -11.5499 C   0  0  0  0  0  0  0  0  0  0  0  0
   26.3539  -21.2611  -11.1429 C   0  0  0  0  0  0  0  0  0  0  0  0
   25.5725  -20.9842  -12.4136 C   0  0  2  0  0  0  0  0  0  0  0  0
   26.2031  -19.8796  -13.0999 N   0  0  0  0  0  0  0  0  0  0  0  0
   24.2057  -20.5688  -12.0143 C   0  0  0  0  0  0  0  0  0  0  0  0
   23.9452  -19.3966  -11.6536 O   0  0  0  0  0  0  0  0  0  0  0  0
   32.2415  -23.4033  -10.8486 N   0  0  0  0  0  0  0  0  0  0  0  0
   20.4494  -18.8483  -12.6762 C   0  0  0  0  0  0  0  0  0  0  0  0
   21.1503  -19.2471  -13.8705 O   0  0  0  0  0  0  0  0  0  0  0  0
   21.0839  -18.4987  -14.8688 C   0  0  0  0  0  0  0  0  0  0  0  0
   21.8993  -20.5086  -13.8407 C   0  0  2  0  0  0  0  0  0  0  0  0
   21.8353  -21.1154  -12.4583 N   0  0  0  0  0  0  0  0  0  0  0  0
   23.1445  -21.5250  -12.0372 C   0  0  0  0  0  0  0  0  0  0  0  0
   20.9302  -22.3158  -12.5158 O   0  0  0  0  0  0  0  0  0  0  0  0
   19.6812  -22.3117  -11.8960 O   0  0  0  0  0  0  0  0  0  0  0  0
  2  1  1  6
  2  3  1  0
  2 10  1  0
  3  4  1  0
  4  5  2  0
  5  6  1  0
  7  6  2  0
  8  7  1  0
  9  4  1  0
  9  8  2  0
 10 11  2  0
 10 20  1  0
 13 15  1  0
 13 12  1  0
 14 13  2  0
 16 15  1  0
 16 17  1  0
 18 17  1  0
 19 18  1  1
 20 19  1  0
 21 19  1  0
 21 22  2  0
 24 23  1  0
 24 26  1  0
 25 24  2  0
 27 26  1  1
 27 28  1  0
 28 21  1  0
 29 27  1  0
 30 29  1  0
 31 29  2  0
M  END
$$$$
