FRN.pdb
     RDKit          3D

 31 31  0  0  1  0  0  0  0  0999 V2000
   25.5182  -16.7513  -17.7497 N   0  0  0  0  0  0  0  0  0  0  0  0
   25.0877  -16.8179  -16.3743 C   0  0  1  0  0  0  0  0  0  0  0  0
   24.1850  -15.6319  -16.0308 C   0  0  0  0  0  0  0  0  0  0  0  0
   24.9637  -14.3800  -16.1194 C   0  0  0  0  0  0  0  0  0  0  0  0
   25.8451  -14.0506  -15.1352 C   0  0  0  0  0  0  0  0  0  0  0  0
   26.5892  -12.8826  -15.1921 C   0  0  0  0  0  0  0  0  0  0  0  0
   26.4302  -12.0362  -16.2732 C   0  0  0  0  0  0  0  0  0  0  0  0
   25.5324  -12.3559  -17.2914 C   0  0  0  0  0  0  0  0  0  0  0  0
   24.8066  -13.5371  -17.1943 C   0  0  0  0  0  0  0  0  0  0  0  0
   24.2855  -18.0413  -16.1054 C   0  0  0  0  0  0  0  0  0  0  0  0
   23.4968  -18.4231  -17.0057 O   0  0  0  0  0  0  0  0  0  0  0  0
   23.8895  -24.9556  -14.7824 N   0  0  0  0  0  0  0  0  0  0  0  0
   25.2360  -24.5262  -14.6624 C   0  0  0  0  0  0  0  0  0  0  0  0
   26.1043  -24.9978  -15.4925 N   0  0  0  0  0  0  0  0  0  0  0  0
   25.5774  -23.6098  -13.6521 N   0  0  0  0  0  0  0  0  0  0  0  0
   24.5360  -23.1158  -12.7651 C   0  0  0  0  0  0  0  0  0  0  0  0
   23.6681  -22.1804  -13.5807 C   0  0  0  0  0  0  0  0  0  0  0  0
   24.4565  -20.9149  -13.8067 C   0  0  0  0  0  0  0  0  0  0  0  0
   23.6062  -19.9968  -14.6646 C   0  0  2  0  0  0  0  0  0  0  0  0
   24.3579  -18.7879  -14.9146 N   0  0  0  0  0  0  0  0  0  0  0  0
   22.3992  -19.6438  -13.8781 C   0  0  0  0  0  0  0  0  0  0  0  0
   22.3742  -18.6575  -13.1044 O   0  0  0  0  0  0  0  0  0  0  0  0
   27.1253  -24.8244  -15.3888 N   0  0  0  0  0  0  0  0  0  0  0  0
   17.5885  -18.7305  -13.1792 C   0  0  0  0  0  0  0  0  0  0  0  0
   18.3906  -18.0643  -14.1739 O   0  0  0  0  0  0  0  0  0  0  0  0
   17.9485  -17.0085  -14.6750 C   0  0  0  0  0  0  0  0  0  0  0  0
   19.6780  -18.6674  -14.5376 C   0  0  2  0  0  0  0  0  0  0  0  0
   19.9460  -19.8758  -13.6708 N   0  0  0  0  0  0  0  0  0  0  0  0
   21.2223  -20.4448  -13.9972 C   0  0  0  0  0  0  0  0  0  0  0  0
   18.8651  -20.8888  -13.9331 O   0  0  0  0  0  0  0  0  0  0  0  0
   17.8315  -21.0981  -13.0209 O   0  0  0  0  0  0  0  0  0  0  0  0
  2  1  1  6
  2  3  1  0
  2 10  1  0
  3  4  1  0
  4  5  2  0
  5  6  1  0
  7  6  2  0
  8  7  1  0
  9  4  1  0
  9  8  2  0
 10 11  2  0
 10 20  1  0
 13 15  1  0
 13 12  1  0
 14 13  2  0
 16 15  1  0
 16 17  1  0
 18 17  1  0
 19 18  1  1
 20 19  1  0
 21 19  1  0
 21 22  2  0
 24 23  1  0
 24 26  1  0
 25 24  2  0
 27 26  1  1
 27 28  1  0
 28 21  1  0
 29 27  1  0
 30 29  1  0
 31 29  2  0
M  END
$$$$
