FRN.pdb
     RDKit          3D

 31 31  0  0  1  0  0  0  0  0999 V2000
   27.9893  -21.1934   -8.9315 N   0  0  0  0  0  0  0  0  0  0  0  0
   26.8964  -20.3487   -8.5142 C   0  0  1  0  0  0  0  0  0  0  0  0
   27.4084  -19.1705   -7.6841 C   0  0  0  0  0  0  0  0  0  0  0  0
   28.1441  -19.6801   -6.5093 C   0  0  0  0  0  0  0  0  0  0  0  0
   29.4721  -19.4157   -6.3653 C   0  0  0  0  0  0  0  0  0  0  0  0
   30.1877  -19.8809   -5.2732 C   0  0  0  0  0  0  0  0  0  0  0  0
   29.5356  -20.6292   -4.3114 C   0  0  0  0  0  0  0  0  0  0  0  0
   28.1758  -20.9108   -4.4408 C   0  0  0  0  0  0  0  0  0  0  0  0
   27.4967  -20.4247   -5.5516 C   0  0  0  0  0  0  0  0  0  0  0  0
   26.1807  -19.7575   -9.6765 C   0  0  0  0  0  0  0  0  0  0  0  0
   26.2629  -18.5136   -9.8324 O   0  0  0  0  0  0  0  0  0  0  0  0
   29.5877  -22.0379  -13.7473 N   0  0  0  0  0  0  0  0  0  0  0  0
   28.8254  -21.9161  -14.9372 C   0  0  0  0  0  0  0  0  0  0  0  0
   28.8551  -22.8891  -15.7846 N   0  0  0  0  0  0  0  0  0  0  0  0
   28.0696  -20.7502  -15.1525 N   0  0  0  0  0  0  0  0  0  0  0  0
   27.8055  -19.8623  -14.0312 C   0  0  0  0  0  0  0  0  0  0  0  0
   26.6614  -20.4698  -13.2467 C   0  0  0  0  0  0  0  0  0  0  0  0
   25.8692  -19.3335  -12.6504 C   0  0  0  0  0  0  0  0  0  0  0  0
   24.7913  -19.9422  -11.7733 C   0  0  2  0  0  0  0  0  0  0  0  0
   25.4254  -20.5022  -10.6015 N   0  0  0  0  0  0  0  0  0  0  0  0
   24.1644  -21.0466  -12.5397 C   0  0  0  0  0  0  0  0  0  0  0  0
   24.5764  -22.2283  -12.4617 O   0  0  0  0  0  0  0  0  0  0  0  0
   28.3004  -22.8778  -16.6651 N   0  0  0  0  0  0  0  0  0  0  0  0
   19.5914  -22.8909  -12.8475 C   0  0  0  0  0  0  0  0  0  0  0  0
   20.0370  -22.1083  -11.7225 O   0  0  0  0  0  0  0  0  0  0  0  0
   19.3751  -22.1696  -10.6646 C   0  0  0  0  0  0  0  0  0  0  0  0
   21.2416  -21.2869  -11.8888 C   0  0  2  0  0  0  0  0  0  0  0  0
   21.8456  -21.5252  -13.2532 N   0  0  0  0  0  0  0  0  0  0  0  0
   23.0561  -20.7680  -13.3969 C   0  0  0  0  0  0  0  0  0  0  0  0
   20.8506  -21.0791  -14.2897 O   0  0  0  0  0  0  0  0  0  0  0  0
   20.6811  -19.7298  -14.5977 O   0  0  0  0  0  0  0  0  0  0  0  0
  2  1  1  6
  2  3  1  0
  2 10  1  0
  3  4  1  0
  4  5  2  0
  5  6  1  0
  7  6  2  0
  8  7  1  0
  9  4  1  0
  9  8  2  0
 10 11  2  0
 10 20  1  0
 13 15  1  0
 13 12  1  0
 14 13  2  0
 16 15  1  0
 16 17  1  0
 18 17  1  0
 19 18  1  6
 20 19  1  0
 21 19  1  0
 21 22  2  0
 24 23  1  0
 24 26  1  0
 25 24  2  0
 27 26  1  1
 27 28  1  0
 28 21  1  0
 29 27  1  0
 30 29  1  0
 31 29  2  0
M  END
$$$$
