FRN.pdb
     RDKit          3D

 31 31  0  0  1  0  0  0  0  0999 V2000
   28.9273  -20.9188   -9.4097 N   0  0  0  0  0  0  0  0  0  0  0  0
   27.5137  -20.8382   -9.1319 C   0  0  1  0  0  0  0  0  0  0  0  0
   27.2033  -19.6302   -8.2466 C   0  0  0  0  0  0  0  0  0  0  0  0
   27.8820  -19.7880   -6.9444 C   0  0  0  0  0  0  0  0  0  0  0  0
   28.5674  -20.9306   -6.6634 C   0  0  0  0  0  0  0  0  0  0  0  0
   29.2139  -21.1060   -5.4499 C   0  0  0  0  0  0  0  0  0  0  0  0
   29.1593  -20.0969   -4.5070 C   0  0  0  0  0  0  0  0  0  0  0  0
   28.4623  -18.9192   -4.7758 C   0  0  0  0  0  0  0  0  0  0  0  0
   27.8286  -18.7850   -6.0054 C   0  0  0  0  0  0  0  0  0  0  0  0
   26.7162  -20.6579  -10.3744 C   0  0  0  0  0  0  0  0  0  0  0  0
   27.0500  -19.7220  -11.1432 O   0  0  0  0  0  0  0  0  0  0  0  0
   25.3078  -26.2941  -15.7410 N   0  0  0  0  0  0  0  0  0  0  0  0
   26.1317  -25.1412  -15.6792 C   0  0  0  0  0  0  0  0  0  0  0  0
   27.2270  -25.1351  -16.3617 N   0  0  0  0  0  0  0  0  0  0  0  0
   25.7319  -24.0531  -14.8834 N   0  0  0  0  0  0  0  0  0  0  0  0
   24.3194  -23.7144  -14.8078 C   0  0  0  0  0  0  0  0  0  0  0  0
   24.2170  -22.4181  -14.0315 C   0  0  0  0  0  0  0  0  0  0  0  0
   24.8912  -22.6348  -12.7000 C   0  0  0  0  0  0  0  0  0  0  0  0
   24.8642  -21.3127  -11.9565 C   0  0  2  0  0  0  0  0  0  0  0  0
   25.6217  -21.4658  -10.7351 N   0  0  0  0  0  0  0  0  0  0  0  0
   23.4523  -21.0309  -11.5999 C   0  0  0  0  0  0  0  0  0  0  0  0
   22.9025  -21.5493  -10.5994 O   0  0  0  0  0  0  0  0  0  0  0  0
   27.8800  -24.3247  -16.3596 N   0  0  0  0  0  0  0  0  0  0  0  0
   22.0462  -18.8520  -15.0058 C   0  0  0  0  0  0  0  0  0  0  0  0
   20.8221  -18.9812  -14.2566 O   0  0  0  0  0  0  0  0  0  0  0  0
   19.8039  -19.3837  -14.8587 C   0  0  0  0  0  0  0  0  0  0  0  0
   20.8465  -18.6317  -12.8316 C   0  0  1  0  0  0  0  0  0  0  0  0
   21.3467  -19.8042  -12.0202 N   0  0  0  0  0  0  0  0  0  0  0  0
   22.6844  -20.1430  -12.4140 C   0  0  0  0  0  0  0  0  0  0  0  0
   20.4375  -20.9745  -12.2797 O   0  0  0  0  0  0  0  0  0  0  0  0
   19.2314  -21.1205  -11.5954 O   0  0  0  0  0  0  0  0  0  0  0  0
  2  1  1  6
  2  3  1  0
  2 10  1  0
  3  4  1  0
  4  5  2  0
  5  6  1  0
  7  6  2  0
  8  7  1  0
  9  4  1  0
  9  8  2  0
 10 11  2  0
 10 20  1  0
 13 15  1  0
 13 12  1  0
 14 13  2  0
 16 15  1  0
 16 17  1  0
 18 17  1  0
 19 18  1  6
 20 19  1  0
 21 19  1  0
 21 22  2  0
 24 23  1  0
 24 26  1  0
 25 24  2  0
 27 26  1  1
 27 28  1  0
 28 21  1  0
 29 27  1  0
 30 29  1  0
 31 29  2  0
M  END
$$$$
