FRN.pdb
     RDKit          3D

 31 31  0  0  1  0  0  0  0  0999 V2000
   24.6717  -16.6532  -18.0790 N   0  0  0  0  0  0  0  0  0  0  0  0
   24.3149  -16.7580  -16.6848 C   0  0  1  0  0  0  0  0  0  0  0  0
   23.4073  -15.5992  -16.2690 C   0  0  0  0  0  0  0  0  0  0  0  0
   24.1540  -14.3291  -16.3718 C   0  0  0  0  0  0  0  0  0  0  0  0
   25.1946  -14.0764  -15.5308 C   0  0  0  0  0  0  0  0  0  0  0  0
   25.9131  -12.8934  -15.6045 C   0  0  0  0  0  0  0  0  0  0  0  0
   25.5625  -11.9520  -16.5538 C   0  0  0  0  0  0  0  0  0  0  0  0
   24.4997  -12.1920  -17.4243 C   0  0  0  0  0  0  0  0  0  0  0  0
   23.8064  -13.3916  -17.3157 C   0  0  0  0  0  0  0  0  0  0  0  0
   23.5531  -18.0038  -16.4021 C   0  0  0  0  0  0  0  0  0  0  0  0
   22.6235  -18.3033  -17.1924 O   0  0  0  0  0  0  0  0  0  0  0  0
   23.3129  -25.1578  -14.6268 N   0  0  0  0  0  0  0  0  0  0  0  0
   24.6673  -24.7383  -14.5870 C   0  0  0  0  0  0  0  0  0  0  0  0
   25.5150  -25.3354  -15.3553 N   0  0  0  0  0  0  0  0  0  0  0  0
   25.0382  -23.6957  -13.7196 N   0  0  0  0  0  0  0  0  0  0  0  0
   24.0149  -23.0501  -12.9125 C   0  0  0  0  0  0  0  0  0  0  0  0
   23.1771  -22.2084  -13.8522 C   0  0  0  0  0  0  0  0  0  0  0  0
   23.9199  -20.9168  -14.0851 C   0  0  0  0  0  0  0  0  0  0  0  0
   23.1022  -20.0919  -15.0611 C   0  0  2  0  0  0  0  0  0  0  0  0
   23.8101  -18.8573  -15.3129 N   0  0  0  0  0  0  0  0  0  0  0  0
   21.8145  -19.7672  -14.4003 C   0  0  0  0  0  0  0  0  0  0  0  0
   21.6956  -18.7968  -13.6153 O   0  0  0  0  0  0  0  0  0  0  0  0
   26.4933  -24.9999  -15.4720 N   0  0  0  0  0  0  0  0  0  0  0  0
   17.4353  -17.9822  -12.8928 C   0  0  0  0  0  0  0  0  0  0  0  0
   17.6100  -18.5415  -14.2092 O   0  0  0  0  0  0  0  0  0  0  0  0
   16.5913  -18.7315  -14.9073 C   0  0  0  0  0  0  0  0  0  0  0  0
   18.9746  -18.8541  -14.6493 C   0  0  1  0  0  0  0  0  0  0  0  0
   19.3976  -20.1993  -14.1063 N   0  0  0  0  0  0  0  0  0  0  0  0
   20.6670  -20.5780  -14.6580 C   0  0  0  0  0  0  0  0  0  0  0  0
   18.3578  -21.2117  -14.5027 O   0  0  0  0  0  0  0  0  0  0  0  0
   17.2502  -21.4670  -13.6951 O   0  0  0  0  0  0  0  0  0  0  0  0
  2  1  1  6
  2  3  1  0
  2 10  1  0
  3  4  1  0
  4  5  2  0
  5  6  1  0
  7  6  2  0
  8  7  1  0
  9  4  1  0
  9  8  2  0
 10 11  2  0
 10 20  1  0
 13 15  1  0
 13 12  1  0
 14 13  2  0
 16 15  1  0
 16 17  1  0
 18 17  1  0
 19 18  1  1
 20 19  1  0
 21 19  1  0
 21 22  2  0
 24 23  1  0
 24 26  1  0
 25 24  2  0
 27 26  1  1
 27 28  1  0
 28 21  1  0
 29 27  1  0
 30 29  1  0
 31 29  2  0
M  END
$$$$
