FRN.pdb
     RDKit          3D

 31 31  0  0  1  0  0  0  0  0999 V2000
   24.3475  -20.4403  -15.3913 N   0  0  0  0  0  0  0  0  0  0  0  0
   23.9708  -21.4938  -14.4801 C   0  0  1  0  0  0  0  0  0  0  0  0
   25.2033  -22.0789  -13.7887 C   0  0  0  0  0  0  0  0  0  0  0  0
   25.8384  -23.0741  -14.6762 C   0  0  0  0  0  0  0  0  0  0  0  0
   25.4231  -24.3708  -14.6590 C   0  0  0  0  0  0  0  0  0  0  0  0
   26.0006  -25.3260  -15.4808 C   0  0  0  0  0  0  0  0  0  0  0  0
   27.0201  -24.9502  -16.3350 C   0  0  0  0  0  0  0  0  0  0  0  0
   27.4596  -23.6270  -16.3674 C   0  0  0  0  0  0  0  0  0  0  0  0
   26.8527  -22.7018  -15.5266 C   0  0  0  0  0  0  0  0  0  0  0  0
   23.0843  -20.9945  -13.3951 C   0  0  0  0  0  0  0  0  0  0  0  0
   23.2319  -19.8005  -13.0333 O   0  0  0  0  0  0  0  0  0  0  0  0
   16.7933  -17.6469  -12.6740 N   0  0  0  0  0  0  0  0  0  0  0  0
   17.3763  -17.3652  -13.9360 C   0  0  0  0  0  0  0  0  0  0  0  0
   16.8916  -16.3906  -14.6295 N   0  0  0  0  0  0  0  0  0  0  0  0
   18.4528  -18.1498  -14.3859 N   0  0  0  0  0  0  0  0  0  0  0  0
   19.3115  -18.7987  -13.4077 C   0  0  0  0  0  0  0  0  0  0  0  0
   20.3528  -19.5789  -14.1826 C   0  0  0  0  0  0  0  0  0  0  0  0
   20.1214  -21.0425  -13.9022 C   0  0  0  0  0  0  0  0  0  0  0  0
   20.7348  -21.3485  -12.5488 C   0  0  2  0  0  0  0  0  0  0  0  0
   22.1005  -21.7731  -12.7574 N   0  0  0  0  0  0  0  0  0  0  0  0
   19.9768  -22.4802  -11.9618 C   0  0  0  0  0  0  0  0  0  0  0  0
   19.8083  -23.5590  -12.5780 O   0  0  0  0  0  0  0  0  0  0  0  0
   17.3007  -16.0981  -15.5407 N   0  0  0  0  0  0  0  0  0  0  0  0
   18.6208  -25.3223   -7.3957 C   0  0  0  0  0  0  0  0  0  0  0  0
   17.7625  -24.3379   -8.0046 O   0  0  0  0  0  0  0  0  0  0  0  0
   16.5288  -24.5332   -7.9729 C   0  0  0  0  0  0  0  0  0  0  0  0
   18.3907  -23.1658   -8.6252 C   0  0  1  0  0  0  0  0  0  0  0  0
   18.7243  -23.4617  -10.0689 N   0  0  0  0  0  0  0  0  0  0  0  0
   19.4162  -22.3491  -10.6543 C   0  0  0  0  0  0  0  0  0  0  0  0
   17.4351  -23.6943  -10.8088 O   0  0  0  0  0  0  0  0  0  0  0  0
   16.7603  -22.6473  -11.4353 O   0  0  0  0  0  0  0  0  0  0  0  0
  2  1  1  6
  2  3  1  0
  2 10  1  0
  3  4  1  0
  4  5  2  0
  5  6  1  0
  7  6  2  0
  8  7  1  0
  9  4  1  0
  9  8  2  0
 10 11  2  0
 10 20  1  0
 13 15  1  0
 13 12  1  0
 14 13  2  0
 16 15  1  0
 16 17  1  0
 18 17  1  0
 19 18  1  6
 20 19  1  0
 21 19  1  0
 21 22  2  0
 24 23  1  0
 24 26  1  0
 25 24  2  0
 27 26  1  1
 27 28  1  0
 28 21  1  0
 29 27  1  0
 30 29  1  0
 31 29  2  0
M  END
$$$$
