FRN.pdb
     RDKit          3D

 31 31  0  0  1  0  0  0  0  0999 V2000
   24.8861  -16.9614  -18.4036 N   0  0  0  0  0  0  0  0  0  0  0  0
   25.2331  -17.4918  -17.1074 C   0  0  1  0  0  0  0  0  0  0  0  0
   24.2641  -16.9858  -16.0377 C   0  0  0  0  0  0  0  0  0  0  0  0
   24.3575  -15.5147  -15.9463 C   0  0  0  0  0  0  0  0  0  0  0  0
   23.4130  -14.7305  -16.5355 C   0  0  0  0  0  0  0  0  0  0  0  0
   23.4752  -13.3476  -16.4659 C   0  0  0  0  0  0  0  0  0  0  0  0
   24.5205  -12.7553  -15.7826 C   0  0  0  0  0  0  0  0  0  0  0  0
   25.4979  -13.5411  -15.1725 C   0  0  0  0  0  0  0  0  0  0  0  0
   25.3968  -14.9239  -15.2669 C   0  0  0  0  0  0  0  0  0  0  0  0
   25.1463  -18.9764  -17.0771 C   0  0  0  0  0  0  0  0  0  0  0  0
   24.3851  -19.5267  -17.9114 O   0  0  0  0  0  0  0  0  0  0  0  0
   30.3549  -24.2851  -16.0344 N   0  0  0  0  0  0  0  0  0  0  0  0
   29.4760  -24.2629  -17.1475 C   0  0  0  0  0  0  0  0  0  0  0  0
   29.0868  -25.3897  -17.6417 N   0  0  0  0  0  0  0  0  0  0  0  0
   29.0617  -23.0254  -17.6709 N   0  0  0  0  0  0  0  0  0  0  0  0
   29.4484  -21.8028  -16.9846 C   0  0  0  0  0  0  0  0  0  0  0  0
   28.2481  -21.3493  -16.1802 C   0  0  0  0  0  0  0  0  0  0  0  0
   27.0130  -21.7509  -16.9468 C   0  0  0  0  0  0  0  0  0  0  0  0
   25.8121  -21.2360  -16.1758 C   0  0  2  0  0  0  0  0  0  0  0  0
   25.8594  -19.7914  -16.1783 N   0  0  0  0  0  0  0  0  0  0  0  0
   25.9465  -21.7067  -14.7757 C   0  0  0  0  0  0  0  0  0  0  0  0
   27.0398  -21.6691  -14.1630 O   0  0  0  0  0  0  0  0  0  0  0  0
   28.4844  -25.4480  -18.4884 N   0  0  0  0  0  0  0  0  0  0  0  0
   25.2685  -21.9814   -9.9221 C   0  0  0  0  0  0  0  0  0  0  0  0
   25.6146  -20.8530  -10.7487 O   0  0  0  0  0  0  0  0  0  0  0  0
   25.7773  -19.7454  -10.1936 C   0  0  0  0  0  0  0  0  0  0  0  0
   25.7548  -21.0741  -12.1926 C   0  0  1  0  0  0  0  0  0  0  0  0
   24.6570  -21.9885  -12.6846 N   0  0  0  0  0  0  0  0  0  0  0  0
   24.8018  -22.2213  -14.0931 C   0  0  0  0  0  0  0  0  0  0  0  0
   23.3364  -21.3174  -12.4218 O   0  0  0  0  0  0  0  0  0  0  0  0
   23.0133  -20.0971  -13.0141 O   0  0  0  0  0  0  0  0  0  0  0  0
  2  1  1  6
  2  3  1  0
  2 10  1  0
  3  4  1  0
  4  5  2  0
  5  6  1  0
  7  6  2  0
  8  7  1  0
  9  4  1  0
  9  8  2  0
 10 11  2  0
 10 20  1  0
 13 15  1  0
 13 12  1  0
 14 13  2  0
 16 15  1  0
 16 17  1  0
 18 17  1  0
 19 18  1  6
 20 19  1  0
 21 19  1  0
 21 22  2  0
 24 23  1  0
 24 26  1  0
 25 24  2  0
 27 26  1  1
 27 28  1  0
 28 21  1  0
 29 27  1  0
 30 29  1  0
 31 29  2  0
M  END
$$$$
