DPQ.pdb
     RDKit          3D

 25 25  0  0  1  0  0  0  0  0999 V2000
   20.8554  -13.5990  -17.4305 N   0  0  0  0  0  0  0  0  0  0  0  0
   21.1191  -12.1843  -17.5325 C   0  0  1  0  0  0  0  0  0  0  0  0
   20.4476  -11.6291  -18.7947 C   0  0  0  0  0  0  0  0  0  0  0  0
   21.0196  -12.2833  -19.9942 C   0  0  0  0  0  0  0  0  0  0  0  0
   22.2262  -12.6267  -19.9619 O   0  0  0  0  0  0  0  0  0  0  0  0
   20.7843  -11.3877  -16.3617 C   0  0  0  0  0  0  0  0  0  0  0  0
   19.7202  -11.6288  -15.7533 O   0  0  0  0  0  0  0  0  0  0  0  0
   20.2760  -12.5264  -21.1383 O   0  0  0  0  0  0  0  0  0  0  0  0
   21.6352  -10.3273  -15.8751 N   0  0  0  0  0  0  0  0  0  0  0  0
   22.9557  -10.1283  -16.3735 C   0  0  0  0  0  0  0  0  0  0  0  0
   23.5558   -9.0389  -15.5154 C   0  0  0  0  0  0  0  0  0  0  0  0
   22.3648   -8.3029  -14.9513 C   0  0  0  0  0  0  0  0  0  0  0  0
   21.3104   -9.3686  -14.8801 C   0  0  1  0  0  0  0  0  0  0  0  0
   19.9485   -8.7771  -15.0190 C   0  0  0  0  0  0  0  0  0  0  0  0
   19.2894   -8.6820  -16.0549 O   0  0  0  0  0  0  0  0  0  0  0  0
   16.2406   -9.0912  -10.2233 N   0  0  0  0  0  0  0  0  0  0  0  0
   16.2292   -9.9692  -11.3426 C   0  0  0  0  0  0  0  0  0  0  0  0
   15.7573  -11.1218  -11.2383 O   0  0  0  0  0  0  0  0  0  0  0  0
   16.7794   -9.5486  -12.6825 C   0  0  0  0  0  0  0  0  0  0  0  0
   17.2894   -8.1577  -12.5869 C   0  0  0  0  0  0  0  0  0  0  0  0
   18.0164   -7.6819  -13.8110 C   0  0  2  0  0  0  0  0  0  0  0  0
   19.3678   -8.2775  -13.8241 N   0  0  0  0  0  0  0  0  0  0  0  0
   18.1958   -6.2197  -13.7550 C   0  0  0  0  0  0  0  0  0  0  0  0
   19.3371   -5.7651  -13.4348 O   0  0  0  0  0  0  0  0  0  0  0  0
   17.1843   -5.3120  -14.0355 O   0  0  0  0  0  0  0  0  0  0  0  0
  2  1  1  1
  2  3  1  0
  3  4  1  0
  4  8  1  0
  5  4  2  0
  6  2  1  0
  6  7  2  0
  9  6  1  0
 10  9  1  0
 11 10  1  0
 12 11  1  0
 12 13  1  0
 13  9  1  0
 14 22  1  0
 13 14  1  6
 15 14  2  0
 16 17  1  0
 17 19  1  0
 18 17  2  0
 20 19  1  0
 21 20  1  1
 21 22  1  0
 21 23  1  0
 23 25  1  0
 24 23  2  0
M  END
$$$$
