DPQ.pdb
     RDKit          3D

 25 25  0  0  1  0  0  0  0  0999 V2000
   19.0749  -13.5733  -16.4593 N   0  0  0  0  0  0  0  0  0  0  0  0
   20.0880  -12.6857  -16.9765 C   0  0  1  0  0  0  0  0  0  0  0  0
   19.6507  -12.1548  -18.3473 C   0  0  0  0  0  0  0  0  0  0  0  0
   20.7238  -11.3111  -18.9221 C   0  0  0  0  0  0  0  0  0  0  0  0
   21.8602  -11.8215  -19.0737 O   0  0  0  0  0  0  0  0  0  0  0  0
   20.4954  -11.6018  -16.0952 C   0  0  0  0  0  0  0  0  0  0  0  0
   19.6928  -10.6702  -15.8752 O   0  0  0  0  0  0  0  0  0  0  0  0
   20.5180   -9.9918  -19.2941 O   0  0  0  0  0  0  0  0  0  0  0  0
   21.7938  -11.5608  -15.4644 N   0  0  0  0  0  0  0  0  0  0  0  0
   22.6959  -12.6631  -15.5180 C   0  0  0  0  0  0  0  0  0  0  0  0
   23.8542  -12.2863  -14.6237 C   0  0  0  0  0  0  0  0  0  0  0  0
   23.8071  -10.7790  -14.5593 C   0  0  0  0  0  0  0  0  0  0  0  0
   22.3471  -10.4777  -14.7327 C   0  0  1  0  0  0  0  0  0  0  0  0
   22.1531   -9.1436  -15.3703 C   0  0  0  0  0  0  0  0  0  0  0  0
   21.9019   -8.9237  -16.5557 O   0  0  0  0  0  0  0  0  0  0  0  0
   17.8750   -6.3977  -15.9741 N   0  0  0  0  0  0  0  0  0  0  0  0
   18.6490   -5.2104  -16.0967 C   0  0  0  0  0  0  0  0  0  0  0  0
   18.1173   -4.1441  -16.4736 O   0  0  0  0  0  0  0  0  0  0  0  0
   20.1237   -5.1924  -15.7805 C   0  0  0  0  0  0  0  0  0  0  0  0
   20.5470   -6.5468  -15.3444 C   0  0  0  0  0  0  0  0  0  0  0  0
   21.9988   -6.6509  -14.9773 C   0  0  2  0  0  0  0  0  0  0  0  0
   22.2740   -8.0235  -14.5069 N   0  0  0  0  0  0  0  0  0  0  0  0
   22.3011   -5.7466  -13.8530 C   0  0  0  0  0  0  0  0  0  0  0  0
   22.1408   -6.1813  -12.6710 O   0  0  0  0  0  0  0  0  0  0  0  0
   22.7538   -4.4450  -14.0164 O   0  0  0  0  0  0  0  0  0  0  0  0
  2  1  1  1
  2  3  1  0
  3  4  1  0
  4  8  1  0
  5  4  2  0
  6  2  1  0
  6  7  2  0
  9  6  1  0
 10  9  1  0
 11 10  1  0
 12 11  1  0
 12 13  1  0
 13  9  1  0
 14 22  1  0
 13 14  1  6
 15 14  2  0
 16 17  1  0
 17 19  1  0
 18 17  2  0
 20 19  1  0
 21 20  1  1
 21 22  1  0
 21 23  1  0
 23 25  1  0
 24 23  2  0
M  END
$$$$
