DPQ.pdb
     RDKit          3D

 25 25  0  0  1  0  0  0  0  0999 V2000
   32.2090  -31.7878  -17.5064 N   0  0  0  0  0  0  0  0  0  0  0  0
   31.4016  -32.0618  -18.6702 C   0  0  1  0  0  0  0  0  0  0  0  0
   30.9858  -33.5380  -18.6676 C   0  0  0  0  0  0  0  0  0  0  0  0
   32.1923  -34.3972  -18.6636 C   0  0  0  0  0  0  0  0  0  0  0  0
   32.7480  -34.6416  -19.7620 O   0  0  0  0  0  0  0  0  0  0  0  0
   30.2538  -31.1897  -18.8689 C   0  0  0  0  0  0  0  0  0  0  0  0
   29.4084  -31.0889  -17.9547 O   0  0  0  0  0  0  0  0  0  0  0  0
   32.7227  -34.9344  -17.5012 O   0  0  0  0  0  0  0  0  0  0  0  0
   30.0533  -30.4353  -20.0838 N   0  0  0  0  0  0  0  0  0  0  0  0
   31.0315  -30.3960  -21.1198 C   0  0  0  0  0  0  0  0  0  0  0  0
   30.5180  -29.3944  -22.1281 C   0  0  0  0  0  0  0  0  0  0  0  0
   29.0295  -29.3412  -21.8834 C   0  0  0  0  0  0  0  0  0  0  0  0
   28.9148  -29.6576  -20.4208 C   0  0  1  0  0  0  0  0  0  0  0  0
   27.6109  -30.3165  -20.1215 C   0  0  0  0  0  0  0  0  0  0  0  0
   27.4234  -31.5150  -19.9088 O   0  0  0  0  0  0  0  0  0  0  0  0
   23.2039  -28.9505  -15.5061 N   0  0  0  0  0  0  0  0  0  0  0  0
   23.5827  -30.1101  -16.2381 C   0  0  0  0  0  0  0  0  0  0  0  0
   23.9185  -31.1547  -15.6400 O   0  0  0  0  0  0  0  0  0  0  0  0
   23.5935  -30.1238  -17.7463 C   0  0  0  0  0  0  0  0  0  0  0  0
   24.9642  -29.8195  -18.2284 C   0  0  0  0  0  0  0  0  0  0  0  0
   25.1416  -29.9603  -19.7123 C   0  0  2  0  0  0  0  0  0  0  0  0
   26.4806  -29.4588  -20.0818 N   0  0  0  0  0  0  0  0  0  0  0  0
   24.1608  -29.1174  -20.4200 C   0  0  0  0  0  0  0  0  0  0  0  0
   22.9444  -29.4806  -20.4206 O   0  0  0  0  0  0  0  0  0  0  0  0
   24.4949  -27.9459  -21.0847 O   0  0  0  0  0  0  0  0  0  0  0  0
  2  1  1  1
  2  3  1  0
  3  4  1  0
  4  8  1  0
  5  4  2  0
  6  2  1  0
  6  7  2  0
  9  6  1  0
 10  9  1  0
 11 10  1  0
 12 11  1  0
 12 13  1  0
 13  9  1  0
 14 22  1  0
 13 14  1  6
 15 14  2  0
 16 17  1  0
 17 19  1  0
 18 17  2  0
 20 19  1  0
 21 20  1  1
 21 22  1  0
 21 23  1  0
 23 25  1  0
 24 23  2  0
M  END
$$$$
