DPQ.pdb
     RDKit          3D

 25 25  0  0  1  0  0  0  0  0999 V2000
   18.9852  -12.4967  -15.5416 N   0  0  0  0  0  0  0  0  0  0  0  0
   18.9741  -11.0706  -15.7596 C   0  0  1  0  0  0  0  0  0  0  0  0
   17.9256  -10.7246  -16.8242 C   0  0  0  0  0  0  0  0  0  0  0  0
   18.4424  -11.0751  -18.1673 C   0  0  0  0  0  0  0  0  0  0  0  0
   19.6689  -11.3134  -18.2854 O   0  0  0  0  0  0  0  0  0  0  0  0
   18.8133  -10.2457  -14.5716 C   0  0  0  0  0  0  0  0  0  0  0  0
   17.8531  -10.4732  -13.8058 O   0  0  0  0  0  0  0  0  0  0  0  0
   17.6268  -11.1481  -19.2856 O   0  0  0  0  0  0  0  0  0  0  0  0
   19.7219   -9.1723  -14.2433 N   0  0  0  0  0  0  0  0  0  0  0  0
   20.9438   -8.9730  -14.9495 C   0  0  0  0  0  0  0  0  0  0  0  0
   21.6640   -7.8663  -14.2147 C   0  0  0  0  0  0  0  0  0  0  0  0
   20.5721   -7.1290  -13.4782 C   0  0  0  0  0  0  0  0  0  0  0  0
   19.5521   -8.2000  -13.2234 C   0  0  1  0  0  0  0  0  0  0  0  0
   18.1803   -7.6194  -13.1512 C   0  0  0  0  0  0  0  0  0  0  0  0
   17.3863   -7.4884  -14.0834 O   0  0  0  0  0  0  0  0  0  0  0  0
   15.1584   -7.5939   -7.7218 N   0  0  0  0  0  0  0  0  0  0  0  0
   14.2996   -6.7596   -8.4901 C   0  0  0  0  0  0  0  0  0  0  0  0
   13.2212   -6.3485   -8.0106 O   0  0  0  0  0  0  0  0  0  0  0  0
   14.6528   -6.3436   -9.8962 C   0  0  0  0  0  0  0  0  0  0  0  0
   15.9706   -6.9218  -10.2609 C   0  0  0  0  0  0  0  0  0  0  0  0
   16.4290   -6.5846  -11.6499 C   0  0  2  0  0  0  0  0  0  0  0  0
   17.7638   -7.1775  -11.8682 N   0  0  0  0  0  0  0  0  0  0  0  0
   16.5830   -5.1251  -11.7901 C   0  0  0  0  0  0  0  0  0  0  0  0
   15.5791   -4.4478  -12.1708 O   0  0  0  0  0  0  0  0  0  0  0  0
   17.7666   -4.4503  -11.5263 O   0  0  0  0  0  0  0  0  0  0  0  0
  2  1  1  1
  2  3  1  0
  3  4  1  0
  4  8  1  0
  5  4  2  0
  6  2  1  0
  6  7  2  0
  9  6  1  0
 10  9  1  0
 11 10  1  0
 12 11  1  0
 12 13  1  0
 13  9  1  0
 14 22  1  0
 13 14  1  6
 15 14  2  0
 16 17  1  0
 17 19  1  0
 18 17  2  0
 20 19  1  0
 21 20  1  1
 21 22  1  0
 21 23  1  0
 23 25  1  0
 24 23  2  0
M  END
$$$$
