DPQ.pdb
     RDKit          3D

 25 25  0  0  1  0  0  0  0  0999 V2000
   20.8899  -12.3985  -18.8853 N   0  0  0  0  0  0  0  0  0  0  0  0
   21.9579  -11.7090  -18.2031 C   0  0  1  0  0  0  0  0  0  0  0  0
   22.9729  -11.1947  -19.2315 C   0  0  0  0  0  0  0  0  0  0  0  0
   23.5620  -12.3375  -19.9671 C   0  0  0  0  0  0  0  0  0  0  0  0
   23.7938  -13.3941  -19.3309 O   0  0  0  0  0  0  0  0  0  0  0  0
   21.5521  -10.6534  -17.2875 C   0  0  0  0  0  0  0  0  0  0  0  0
   20.7573   -9.7783  -17.6912 O   0  0  0  0  0  0  0  0  0  0  0  0
   23.8626  -12.2803  -21.3189 O   0  0  0  0  0  0  0  0  0  0  0  0
   22.0335  -10.5775  -15.9281 N   0  0  0  0  0  0  0  0  0  0  0  0
   22.7590  -11.6443  -15.3221 C   0  0  0  0  0  0  0  0  0  0  0  0
   22.9423  -11.2437  -13.8766 C   0  0  0  0  0  0  0  0  0  0  0  0
   22.8017   -9.7408  -13.8803 C   0  0  0  0  0  0  0  0  0  0  0  0
   21.8706   -9.4903  -15.0304 C   0  0  1  0  0  0  0  0  0  0  0  0
   22.1241   -8.1512  -15.6358 C   0  0  0  0  0  0  0  0  0  0  0  0
   22.9055   -7.8935  -16.5521 O   0  0  0  0  0  0  0  0  0  0  0  0
   17.6278   -4.2620  -16.4426 N   0  0  0  0  0  0  0  0  0  0  0  0
   18.1739   -5.2359  -17.3243 C   0  0  0  0  0  0  0  0  0  0  0  0
   17.4942   -5.6828  -18.2731 O   0  0  0  0  0  0  0  0  0  0  0  0
   19.5772   -5.7605  -17.1505 C   0  0  0  0  0  0  0  0  0  0  0  0
   20.1810   -5.1506  -15.9391 C   0  0  0  0  0  0  0  0  0  0  0  0
   21.5350   -5.6931  -15.5849 C   0  0  2  0  0  0  0  0  0  0  0  0
   21.3794   -7.0747  -15.0869 N   0  0  0  0  0  0  0  0  0  0  0  0
   22.1215   -4.9070  -14.4843 C   0  0  0  0  0  0  0  0  0  0  0  0
   21.9810   -5.3352  -13.2975 O   0  0  0  0  0  0  0  0  0  0  0  0
   22.8214   -3.7241  -14.6753 O   0  0  0  0  0  0  0  0  0  0  0  0
  2  1  1  6
  2  3  1  0
  3  4  1  0
  4  8  1  0
  5  4  2  0
  6  2  1  0
  6  7  2  0
  9  6  1  0
 10  9  1  0
 11 10  1  0
 12 11  1  0
 12 13  1  0
 13  9  1  0
 14 22  1  0
 13 14  1  6
 15 14  2  0
 16 17  1  0
 17 19  1  0
 18 17  2  0
 20 19  1  0
 21 20  1  1
 21 22  1  0
 21 23  1  0
 23 25  1  0
 24 23  2  0
M  END
$$$$
