DPQ.pdb
     RDKit          3D

 25 25  0  0  1  0  0  0  0  0999 V2000
   17.5540  -13.9133  -17.7286 N   0  0  0  0  0  0  0  0  0  0  0  0
   17.4188  -12.9560  -16.6578 C   0  0  1  0  0  0  0  0  0  0  0  0
   17.7222  -13.6404  -15.3192 C   0  0  0  0  0  0  0  0  0  0  0  0
   16.7795  -14.7629  -15.1068 C   0  0  0  0  0  0  0  0  0  0  0  0
   17.1713  -15.7442  -14.4297 O   0  0  0  0  0  0  0  0  0  0  0  0
   18.1782  -11.7235  -16.8054 C   0  0  0  0  0  0  0  0  0  0  0  0
   19.4016  -11.7951  -17.0472 O   0  0  0  0  0  0  0  0  0  0  0  0
   15.4937  -14.7664  -15.6244 O   0  0  0  0  0  0  0  0  0  0  0  0
   17.5717  -10.4187  -16.6825 N   0  0  0  0  0  0  0  0  0  0  0  0
   16.1577  -10.2414  -16.6553 C   0  0  0  0  0  0  0  0  0  0  0  0
   15.9333   -8.7472  -16.6734 C   0  0  0  0  0  0  0  0  0  0  0  0
   17.2239   -8.1650  -16.1501 C   0  0  0  0  0  0  0  0  0  0  0  0
   18.2487   -9.1758  -16.5748 C   0  0  1  0  0  0  0  0  0  0  0  0
   19.4051   -9.1864  -15.6332 C   0  0  0  0  0  0  0  0  0  0  0  0
   19.4865   -9.8098  -14.5743 O   0  0  0  0  0  0  0  0  0  0  0  0
   26.4900  -10.0779  -16.1222 N   0  0  0  0  0  0  0  0  0  0  0  0
   25.1295   -9.8429  -16.4653 C   0  0  0  0  0  0  0  0  0  0  0  0
   24.6897  -10.1881  -17.5829 O   0  0  0  0  0  0  0  0  0  0  0  0
   24.1765   -9.1759  -15.5052 C   0  0  0  0  0  0  0  0  0  0  0  0
   22.8388   -9.0678  -16.1397 C   0  0  0  0  0  0  0  0  0  0  0  0
   21.7919   -8.4369  -15.2683 C   0  0  2  0  0  0  0  0  0  0  0  0
   20.5173   -8.3903  -16.0127 N   0  0  0  0  0  0  0  0  0  0  0  0
   22.1603   -7.0418  -14.9665 C   0  0  0  0  0  0  0  0  0  0  0  0
   23.1158   -6.8332  -14.1570 O   0  0  0  0  0  0  0  0  0  0  0  0
   21.5201   -5.9427  -15.5212 O   0  0  0  0  0  0  0  0  0  0  0  0
  2  1  1  6
  2  3  1  0
  3  4  1  0
  4  8  1  0
  5  4  2  0
  6  2  1  0
  6  7  2  0
  9  6  1  0
 10  9  1  0
 11 10  1  0
 12 11  1  0
 12 13  1  0
 13  9  1  0
 14 22  1  0
 13 14  1  1
 15 14  2  0
 16 17  1  0
 17 19  1  0
 18 17  2  0
 20 19  1  0
 21 20  1  6
 21 22  1  0
 21 23  1  0
 23 25  1  0
 24 23  2  0
M  END
$$$$
