DPQ.pdb
     RDKit          3D

 25 25  0  0  1  0  0  0  0  0999 V2000
   18.2235  -12.8988  -15.5139 N   0  0  0  0  0  0  0  0  0  0  0  0
   19.0638  -11.9062  -16.1388 C   0  0  1  0  0  0  0  0  0  0  0  0
   18.2887  -11.2196  -17.2702 C   0  0  0  0  0  0  0  0  0  0  0  0
   17.8370  -12.2319  -18.2526 C   0  0  0  0  0  0  0  0  0  0  0  0
   16.6266  -12.2356  -18.5840 O   0  0  0  0  0  0  0  0  0  0  0  0
   19.6696  -10.9306  -15.2452 C   0  0  0  0  0  0  0  0  0  0  0  0
   18.9435  -10.3368  -14.4202 O   0  0  0  0  0  0  0  0  0  0  0  0
   18.6959  -13.1649  -18.8121 O   0  0  0  0  0  0  0  0  0  0  0  0
   21.0798  -10.6211  -15.2753 N   0  0  0  0  0  0  0  0  0  0  0  0
   22.0083  -11.3960  -16.0298 C   0  0  0  0  0  0  0  0  0  0  0  0
   23.3737  -10.8514  -15.6798 C   0  0  0  0  0  0  0  0  0  0  0  0
   23.1062   -9.4510  -15.1841 C   0  0  0  0  0  0  0  0  0  0  0  0
   21.7289   -9.5564  -14.5974 C   0  0  1  0  0  0  0  0  0  0  0  0
   21.0153   -8.2495  -14.6817 C   0  0  0  0  0  0  0  0  0  0  0  0
   20.2929   -7.8632  -15.6012 O   0  0  0  0  0  0  0  0  0  0  0  0
   17.1994   -5.7558  -11.0376 N   0  0  0  0  0  0  0  0  0  0  0  0
   18.3868   -6.2952  -10.4693 C   0  0  0  0  0  0  0  0  0  0  0  0
   18.4139   -6.6400   -9.2683 O   0  0  0  0  0  0  0  0  0  0  0  0
   19.6441   -6.4699  -11.2840 C   0  0  0  0  0  0  0  0  0  0  0  0
   19.3832   -6.0464  -12.6828 C   0  0  0  0  0  0  0  0  0  0  0  0
   20.6028   -6.0228  -13.5576 C   0  0  2  0  0  0  0  0  0  0  0  0
   21.1993   -7.3737  -13.5800 N   0  0  0  0  0  0  0  0  0  0  0  0
   21.6170   -5.1187  -12.9855 C   0  0  0  0  0  0  0  0  0  0  0  0
   22.6574   -5.6312  -12.4691 O   0  0  0  0  0  0  0  0  0  0  0  0
   21.4972   -3.7362  -12.9825 O   0  0  0  0  0  0  0  0  0  0  0  0
  2  1  1  1
  2  3  1  0
  3  4  1  0
  4  8  1  0
  5  4  2  0
  6  2  1  0
  6  7  2  0
  9  6  1  0
 10  9  1  0
 11 10  1  0
 12 11  1  0
 12 13  1  0
 13  9  1  0
 14 22  1  0
 13 14  1  6
 15 14  2  0
 16 17  1  0
 17 19  1  0
 18 17  2  0
 20 19  1  0
 21 20  1  1
 21 22  1  0
 21 23  1  0
 23 25  1  0
 24 23  2  0
M  END
$$$$
