DPQ.pdb
     RDKit          3D

 25 25  0  0  1  0  0  0  0  0999 V2000
   20.8470   -5.3486  -16.1574 N   0  0  0  0  0  0  0  0  0  0  0  0
   21.2111   -6.6324  -15.6089 C   0  0  1  0  0  0  0  0  0  0  0  0
   21.2137   -6.5515  -14.0773 C   0  0  0  0  0  0  0  0  0  0  0  0
   22.1493   -5.4921  -13.6343 C   0  0  0  0  0  0  0  0  0  0  0  0
   23.2374   -5.3698  -14.2473 O   0  0  0  0  0  0  0  0  0  0  0  0
   20.4323   -7.7691  -16.0768 C   0  0  0  0  0  0  0  0  0  0  0  0
   19.1873   -7.7249  -15.9855 O   0  0  0  0  0  0  0  0  0  0  0  0
   21.8670   -4.6406  -12.5776 O   0  0  0  0  0  0  0  0  0  0  0  0
   21.0438   -8.9485  -16.6431 N   0  0  0  0  0  0  0  0  0  0  0  0
   22.4438   -9.0257  -16.8993 C   0  0  0  0  0  0  0  0  0  0  0  0
   22.6548  -10.3363  -17.6213 C   0  0  0  0  0  0  0  0  0  0  0  0
   21.4588  -11.1745  -17.2402 C   0  0  0  0  0  0  0  0  0  0  0  0
   20.3855  -10.1502  -17.0132 C   0  0  1  0  0  0  0  0  0  0  0  0
   19.3902  -10.6373  -16.0152 C   0  0  0  0  0  0  0  0  0  0  0  0
   19.4466  -10.5011  -14.7925 O   0  0  0  0  0  0  0  0  0  0  0  0
   13.1565  -11.2121  -16.2906 N   0  0  0  0  0  0  0  0  0  0  0  0
   13.8335  -10.3054  -15.4284 C   0  0  0  0  0  0  0  0  0  0  0  0
   13.1953   -9.4357  -14.7974 O   0  0  0  0  0  0  0  0  0  0  0  0
   15.3296  -10.3576  -15.2445 C   0  0  0  0  0  0  0  0  0  0  0  0
   15.8909  -11.4306  -16.1034 C   0  0  0  0  0  0  0  0  0  0  0  0
   17.2411  -11.9237  -15.6711 C   0  0  2  0  0  0  0  0  0  0  0  0
   18.2693  -11.3267  -16.5472 N   0  0  0  0  0  0  0  0  0  0  0  0
   17.3257  -13.3846  -15.8493 C   0  0  0  0  0  0  0  0  0  0  0  0
   17.8094  -13.8316  -16.9347 O   0  0  0  0  0  0  0  0  0  0  0  0
   16.9067  -14.2991  -14.8934 O   0  0  0  0  0  0  0  0  0  0  0  0
  2  1  1  6
  2  3  1  0
  3  4  1  0
  4  8  1  0
  5  4  2  0
  6  2  1  0
  6  7  2  0
  9  6  1  0
 10  9  1  0
 11 10  1  0
 12 11  1  0
 12 13  1  0
 13  9  1  0
 14 22  1  0
 13 14  1  1
 15 14  2  0
 16 17  1  0
 17 19  1  0
 18 17  2  0
 20 19  1  0
 21 20  1  6
 21 22  1  0
 21 23  1  0
 23 25  1  0
 24 23  2  0
M  END
$$$$
