DPQ.pdb
     RDKit          3D

 25 25  0  0  1  0  0  0  0  0999 V2000
   16.1992  -27.4934   -3.2088 N   0  0  0  0  0  0  0  0  0  0  0  0
   16.9787  -26.8660   -2.1694 C   0  0  1  0  0  0  0  0  0  0  0  0
   17.9500  -25.8585   -2.7967 C   0  0  0  0  0  0  0  0  0  0  0  0
   18.8507  -26.5557   -3.7437 C   0  0  0  0  0  0  0  0  0  0  0  0
   18.7256  -26.3108   -4.9682 O   0  0  0  0  0  0  0  0  0  0  0  0
   16.2226  -26.2643   -1.0814 C   0  0  0  0  0  0  0  0  0  0  0  0
   15.3900  -25.3720   -1.3478 O   0  0  0  0  0  0  0  0  0  0  0  0
   19.8162  -27.4592   -3.3283 O   0  0  0  0  0  0  0  0  0  0  0  0
   16.3981  -26.6587    0.2967 N   0  0  0  0  0  0  0  0  0  0  0  0
   17.0518  -27.8724    0.6587 C   0  0  0  0  0  0  0  0  0  0  0  0
   16.8954  -27.9890    2.1571 C   0  0  0  0  0  0  0  0  0  0  0  0
   16.6531  -26.5739    2.6230 C   0  0  0  0  0  0  0  0  0  0  0  0
   15.9720  -25.9411    1.4448 C   0  0  1  0  0  0  0  0  0  0  0  0
   16.2532  -24.4774    1.3930 C   0  0  0  0  0  0  0  0  0  0  0  0
   17.2284  -23.9330    0.8742 O   0  0  0  0  0  0  0  0  0  0  0  0
   11.9086  -20.1576    0.8940 N   0  0  0  0  0  0  0  0  0  0  0  0
   12.4181  -21.1481    0.0090 C   0  0  0  0  0  0  0  0  0  0  0  0
   11.8298  -21.4011   -1.0643 O   0  0  0  0  0  0  0  0  0  0  0  0
   13.6727  -21.9223    0.3275 C   0  0  0  0  0  0  0  0  0  0  0  0
   14.1683  -21.5204    1.6680 C   0  0  0  0  0  0  0  0  0  0  0  0
   15.4575  -22.1754    2.0708 C   0  0  2  0  0  0  0  0  0  0  0  0
   15.2865  -23.6410    2.0101 N   0  0  0  0  0  0  0  0  0  0  0  0
   15.7774  -21.8414    3.4706 C   0  0  0  0  0  0  0  0  0  0  0  0
   16.0668  -20.6376    3.7511 O   0  0  0  0  0  0  0  0  0  0  0  0
   15.7775  -22.7720    4.5000 O   0  0  0  0  0  0  0  0  0  0  0  0
  2  1  1  6
  2  3  1  0
  3  4  1  0
  4  8  1  0
  5  4  2  0
  6  2  1  0
  6  7  2  0
  9  6  1  0
 10  9  1  0
 11 10  1  0
 12 11  1  0
 12 13  1  0
 13  9  1  0
 14 22  1  0
 13 14  1  6
 15 14  2  0
 16 17  1  0
 17 19  1  0
 18 17  2  0
 20 19  1  0
 21 20  1  1
 21 22  1  0
 21 23  1  0
 23 25  1  0
 24 23  2  0
M  END
$$$$
