DPQ.pdb
     RDKit          3D

 25 25  0  0  1  0  0  0  0  0999 V2000
   16.6533  -12.8774  -14.4319 N   0  0  0  0  0  0  0  0  0  0  0  0
   16.3752  -11.4802  -14.6598 C   0  0  1  0  0  0  0  0  0  0  0  0
   14.9229  -11.3175  -15.1251 C   0  0  0  0  0  0  0  0  0  0  0  0
   14.7118  -12.0771  -16.3791 C   0  0  0  0  0  0  0  0  0  0  0  0
   13.6373  -12.7116  -16.5124 O   0  0  0  0  0  0  0  0  0  0  0  0
   16.6806  -10.5817  -13.5566 C   0  0  0  0  0  0  0  0  0  0  0  0
   16.1866  -10.8170  -12.4336 O   0  0  0  0  0  0  0  0  0  0  0  0
   15.6499  -12.1105  -17.3989 O   0  0  0  0  0  0  0  0  0  0  0  0
   17.5335   -9.4265  -13.7098 N   0  0  0  0  0  0  0  0  0  0  0  0
   18.2547   -9.1730  -14.9128 C   0  0  0  0  0  0  0  0  0  0  0  0
   19.1306   -7.9771  -14.6191 C   0  0  0  0  0  0  0  0  0  0  0  0
   18.4515   -7.2865  -13.4615 C   0  0  0  0  0  0  0  0  0  0  0  0
   17.7751   -8.4168  -12.7420 C   0  0  1  0  0  0  0  0  0  0  0  0
   16.5521   -7.9389  -12.0350 C   0  0  0  0  0  0  0  0  0  0  0  0
   15.4208   -7.8340  -12.5101 O   0  0  0  0  0  0  0  0  0  0  0  0
   13.0720   -9.2458   -9.0809 N   0  0  0  0  0  0  0  0  0  0  0  0
   13.0872   -8.2562   -8.0590 C   0  0  0  0  0  0  0  0  0  0  0  0
   12.0659   -8.0398   -7.3720 O   0  0  0  0  0  0  0  0  0  0  0  0
   14.3215   -7.4394   -7.7683 C   0  0  0  0  0  0  0  0  0  0  0  0
   15.4224   -7.8825   -8.6603 C   0  0  0  0  0  0  0  0  0  0  0  0
   15.6191   -7.0194   -9.8726 C   0  0  2  0  0  0  0  0  0  0  0  0
   16.7290   -7.5714  -10.6754 N   0  0  0  0  0  0  0  0  0  0  0  0
   16.0225   -5.6613   -9.4651 C   0  0  0  0  0  0  0  0  0  0  0  0
   15.1202   -4.8552   -9.0807 O   0  0  0  0  0  0  0  0  0  0  0  0
   17.3367   -5.2159   -9.4770 O   0  0  0  0  0  0  0  0  0  0  0  0
  2  1  1  1
  2  3  1  0
  3  4  1  0
  4  8  1  0
  5  4  2  0
  6  2  1  0
  6  7  2  0
  9  6  1  0
 10  9  1  0
 11 10  1  0
 12 11  1  0
 12 13  1  0
 13  9  1  0
 14 22  1  0
 13 14  1  6
 15 14  2  0
 16 17  1  0
 17 19  1  0
 18 17  2  0
 20 19  1  0
 21 20  1  1
 21 22  1  0
 21 23  1  0
 23 25  1  0
 24 23  2  0
M  END
$$$$
