EYE.pdb
     RDKit          3D

 31 31  0  0  1  0  0  0  0  0999 V2000
    7.6832  -16.1922   18.9063 N   0  0  0  0  0  0  0  0  0  0  0  0
    8.4200  -14.9168   18.9337 C   0  0  1  0  0  0  0  0  0  0  0  0
    7.5392  -13.9410   18.1944 C   0  0  0  0  0  0  0  0  0  0  0  0
    8.2303  -13.4423   16.9717 C   0  0  0  0  0  0  0  0  0  0  0  0
    8.1236  -14.4420   15.8669 C   0  0  0  0  0  0  0  0  0  0  0  0
    7.5288  -15.5466   16.0222 O   0  0  0  0  0  0  0  0  0  0  0  0
    8.7365  -14.5361   20.3224 C   0  0  0  0  0  0  0  0  0  0  0  0
    9.7545  -13.8422   20.5557 O   0  0  0  0  0  0  0  0  0  0  0  0
    8.6730  -14.2008   14.6230 O   0  0  0  0  0  0  0  0  0  0  0  0
    7.2816  -12.0301   28.4966 O   0  0  0  0  0  0  0  0  0  0  0  0
    7.1753  -12.6513   27.2585 C   0  0  0  0  0  0  0  0  0  0  0  0
    7.6622  -13.9272   27.0782 C   0  0  0  0  0  0  0  0  0  0  0  0
    7.5507  -14.5275   25.8517 C   0  0  0  0  0  0  0  0  0  0  0  0
    6.9597  -13.8795   24.7915 C   0  0  0  0  0  0  0  0  0  0  0  0
    6.8188  -14.4878   23.4512 C   0  0  0  0  0  0  0  0  0  0  0  0
    8.1746  -14.6510   22.7752 C   0  0  2  0  0  0  0  0  0  0  0  0
    7.9010  -14.9405   21.3965 N   0  0  0  0  0  0  0  0  0  0  0  0
    8.9249  -15.7694   23.3848 C   0  0  0  0  0  0  0  0  0  0  0  0
    8.3434  -16.8718   23.4660 O   0  0  0  0  0  0  0  0  0  0  0  0
    6.4741  -12.5932   24.9911 C   0  0  0  0  0  0  0  0  0  0  0  0
    6.5800  -11.9779   26.2198 C   0  0  0  0  0  0  0  0  0  0  0  0
   10.2397  -15.6302   23.8624 N   0  0  0  0  0  0  0  0  0  0  0  0
   11.0677  -16.5951   24.4787 C   0  0  1  0  0  0  0  0  0  0  0  0
   12.5662  -16.3063   24.3370 C   0  0  0  0  0  0  0  0  0  0  0  0
   13.3778  -17.4094   24.9600 C   0  0  0  0  0  0  0  0  0  0  0  0
   14.8185  -17.1913   24.6698 C   0  0  0  0  0  0  0  0  0  0  0  0
   15.6633  -18.0332   25.0223 O   0  0  0  0  0  0  0  0  0  0  0  0
   10.7299  -17.0291   25.8180 C   0  0  0  0  0  0  0  0  0  0  0  0
   10.4587  -16.1682   26.8860 O   0  0  0  0  0  0  0  0  0  0  0  0
   15.2117  -16.0461   24.0055 O   0  0  0  0  0  0  0  0  0  0  0  0
   10.6680  -18.2576   26.0706 O   0  0  0  0  0  0  0  0  0  0  0  0
  2  1  1  1
  2  3  1  0
  3  4  1  0
  4  5  1  0
  5  9  1  0
  6  5  2  0
  7  8  2  0
  7  2  1  0
 10 11  1  0
 11 12  2  0
 12 13  1  0
 14 13  2  0
 14 15  1  0
 16 15  1  1
 16 17  1  0
 17  7  1  0
 18 22  1  0
 18 16  1  0
 19 18  2  0
 20 14  1  0
 21 11  1  0
 21 20  2  0
 23 22  1  0
 23 28  1  0
 23 24  1  1
 25 24  1  0
 26 25  1  0
 27 26  2  0
 28 29  1  0
 30 26  1  0
 31 28  2  0
M  END
$$$$
