EYE.pdb
     RDKit          3D

 31 31  0  0  1  0  0  0  0  0999 V2000
    9.9122  -18.6001   18.4603 N   0  0  0  0  0  0  0  0  0  0  0  0
   11.1865  -17.9211   18.7522 C   0  0  1  0  0  0  0  0  0  0  0  0
   11.4702  -17.0817   17.5317 C   0  0  0  0  0  0  0  0  0  0  0  0
   11.5240  -17.9393   16.3139 C   0  0  0  0  0  0  0  0  0  0  0  0
   11.8868  -17.1234   15.1162 C   0  0  0  0  0  0  0  0  0  0  0  0
   11.0327  -16.8124   14.2376 O   0  0  0  0  0  0  0  0  0  0  0  0
   11.0886  -17.1655   20.0144 C   0  0  0  0  0  0  0  0  0  0  0  0
   12.0595  -16.4684   20.3936 O   0  0  0  0  0  0  0  0  0  0  0  0
   13.1768  -16.6722   14.9171 O   0  0  0  0  0  0  0  0  0  0  0  0
    7.6428  -12.5520   17.4861 O   0  0  0  0  0  0  0  0  0  0  0  0
    7.8158  -13.3644   18.5997 C   0  0  0  0  0  0  0  0  0  0  0  0
    8.3568  -12.8495   19.7571 C   0  0  0  0  0  0  0  0  0  0  0  0
    8.5217  -13.6624   20.8476 C   0  0  0  0  0  0  0  0  0  0  0  0
    8.1565  -14.9883   20.8106 C   0  0  0  0  0  0  0  0  0  0  0  0
    8.3172  -15.9019   21.9621 C   0  0  0  0  0  0  0  0  0  0  0  0
    9.7283  -16.4739   22.0185 C   0  0  2  0  0  0  0  0  0  0  0  0
    9.9084  -17.2132   20.8017 N   0  0  0  0  0  0  0  0  0  0  0  0
    9.8747  -17.3753   23.1810 C   0  0  0  0  0  0  0  0  0  0  0  0
    9.4688  -18.5492   23.0498 O   0  0  0  0  0  0  0  0  0  0  0  0
    7.6124  -15.4911   19.6353 C   0  0  0  0  0  0  0  0  0  0  0  0
    7.4412  -14.6843   18.5311 C   0  0  0  0  0  0  0  0  0  0  0  0
   10.4432  -16.9588   24.3974 N   0  0  0  0  0  0  0  0  0  0  0  0
   11.3665  -17.6369   25.2246 C   0  0  1  0  0  0  0  0  0  0  0  0
   12.5009  -18.3218   24.4546 C   0  0  0  0  0  0  0  0  0  0  0  0
   12.3645  -19.8181   24.5334 C   0  0  0  0  0  0  0  0  0  0  0  0
   13.4195  -20.4578   23.7056 C   0  0  0  0  0  0  0  0  0  0  0  0
   14.6092  -20.1194   23.8354 O   0  0  0  0  0  0  0  0  0  0  0  0
   11.8553  -16.9546   26.4044 C   0  0  0  0  0  0  0  0  0  0  0  0
   11.9101  -17.5200   27.6821 O   0  0  0  0  0  0  0  0  0  0  0  0
   13.0680  -21.4311   22.7910 O   0  0  0  0  0  0  0  0  0  0  0  0
   12.2655  -15.7718   26.3068 O   0  0  0  0  0  0  0  0  0  0  0  0
  2  1  1  6
  2  3  1  0
  3  4  1  0
  4  5  1  0
  5  9  1  0
  6  5  2  0
  7  8  2  0
  7  2  1  0
 10 11  1  0
 11 12  2  0
 12 13  1  0
 14 13  2  0
 14 15  1  0
 16 15  1  6
 16 17  1  0
 17  7  1  0
 18 22  1  0
 18 16  1  0
 19 18  2  0
 20 14  1  0
 21 11  1  0
 21 20  2  0
 23 22  1  0
 23 28  1  0
 23 24  1  6
 25 24  1  0
 26 25  1  0
 27 26  2  0
 28 29  1  0
 30 26  1  0
 31 28  2  0
M  END
$$$$
