EYE.pdb
     RDKit          3D

 31 31  0  0  1  0  0  0  0  0999 V2000
    9.5099  -16.3589   18.5725 N   0  0  0  0  0  0  0  0  0  0  0  0
    8.8622  -16.8942   19.7825 C   0  0  1  0  0  0  0  0  0  0  0  0
    9.3246  -18.3270   19.8715 C   0  0  0  0  0  0  0  0  0  0  0  0
    8.9292  -19.0765   18.6455 C   0  0  0  0  0  0  0  0  0  0  0  0
    9.2665  -20.5248   18.7872 C   0  0  0  0  0  0  0  0  0  0  0  0
    8.6540  -21.2759   19.5989 O   0  0  0  0  0  0  0  0  0  0  0  0
    9.1940  -16.0624   20.9536 C   0  0  0  0  0  0  0  0  0  0  0  0
   10.3818  -15.7080   21.1426 O   0  0  0  0  0  0  0  0  0  0  0  0
   10.2666  -21.1075   18.0339 O   0  0  0  0  0  0  0  0  0  0  0  0
    7.6733  -12.1067   28.7004 O   0  0  0  0  0  0  0  0  0  0  0  0
    7.5333  -12.7033   27.4536 C   0  0  0  0  0  0  0  0  0  0  0  0
    7.1235  -14.0146   27.3537 C   0  0  0  0  0  0  0  0  0  0  0  0
    6.9898  -14.5900   26.1175 C   0  0  0  0  0  0  0  0  0  0  0  0
    7.2576  -13.8821   24.9685 C   0  0  0  0  0  0  0  0  0  0  0  0
    7.1280  -14.4624   23.6147 C   0  0  0  0  0  0  0  0  0  0  0  0
    8.4557  -15.0322   23.1305 C   0  0  2  0  0  0  0  0  0  0  0  0
    8.1857  -15.6539   21.8655 N   0  0  0  0  0  0  0  0  0  0  0  0
    8.9660  -16.0378   24.0864 C   0  0  0  0  0  0  0  0  0  0  0  0
    8.3258  -17.1050   24.1908 O   0  0  0  0  0  0  0  0  0  0  0  0
    7.6697  -12.5607   25.0877 C   0  0  0  0  0  0  0  0  0  0  0  0
    7.8082  -11.9699   26.3251 C   0  0  0  0  0  0  0  0  0  0  0  0
   10.1214  -15.8314   24.8602 N   0  0  0  0  0  0  0  0  0  0  0  0
   10.7706  -16.7238   25.7426 C   0  0  1  0  0  0  0  0  0  0  0  0
   12.1992  -17.0832   25.3194 C   0  0  0  0  0  0  0  0  0  0  0  0
   13.0268  -15.8390   25.1443 C   0  0  0  0  0  0  0  0  0  0  0  0
   14.3130  -16.1860   24.4865 C   0  0  0  0  0  0  0  0  0  0  0  0
   14.5322  -17.3523   24.1146 O   0  0  0  0  0  0  0  0  0  0  0  0
   10.6823  -16.4634   27.1641 C   0  0  0  0  0  0  0  0  0  0  0  0
   11.1803  -17.3112   28.1582 O   0  0  0  0  0  0  0  0  0  0  0  0
   15.2630  -15.2027   24.2916 O   0  0  0  0  0  0  0  0  0  0  0  0
   10.1253  -15.4117   27.5645 O   0  0  0  0  0  0  0  0  0  0  0  0
  2  1  1  6
  2  3  1  0
  3  4  1  0
  4  5  1  0
  5  9  1  0
  6  5  2  0
  7  8  2  0
  7  2  1  0
 10 11  1  0
 11 12  2  0
 12 13  1  0
 14 13  2  0
 14 15  1  0
 16 15  1  1
 16 17  1  0
 17  7  1  0
 18 22  1  0
 18 16  1  0
 19 18  2  0
 20 14  1  0
 21 11  1  0
 21 20  2  0
 23 22  1  0
 23 28  1  0
 23 24  1  6
 25 24  1  0
 26 25  1  0
 27 26  2  0
 28 29  1  0
 30 26  1  0
 31 28  2  0
M  END
$$$$
