EYE.pdb
     RDKit          3D

 31 31  0  0  1  0  0  0  0  0999 V2000
    8.5442  -15.2013   19.5370 N   0  0  0  0  0  0  0  0  0  0  0  0
    8.0361  -15.7974   20.7846 C   0  0  1  0  0  0  0  0  0  0  0  0
    7.9044  -17.2703   20.4882 C   0  0  0  0  0  0  0  0  0  0  0  0
    7.4314  -17.4775   19.0901 C   0  0  0  0  0  0  0  0  0  0  0  0
    7.2100  -18.9306   18.8236 C   0  0  0  0  0  0  0  0  0  0  0  0
    6.0533  -19.4404   18.8261 O   0  0  0  0  0  0  0  0  0  0  0  0
    8.9288  -15.4697   21.9113 C   0  0  0  0  0  0  0  0  0  0  0  0
   10.1702  -15.4665   21.7347 O   0  0  0  0  0  0  0  0  0  0  0  0
    8.2648  -19.7828   18.5620 O   0  0  0  0  0  0  0  0  0  0  0  0
   10.8111  -14.6965   30.5105 O   0  0  0  0  0  0  0  0  0  0  0  0
   10.1718  -14.7077   29.2771 C   0  0  0  0  0  0  0  0  0  0  0  0
    9.5648  -15.8569   28.8205 C   0  0  0  0  0  0  0  0  0  0  0  0
    8.9381  -15.8535   27.6021 C   0  0  0  0  0  0  0  0  0  0  0  0
    8.9021  -14.7210   26.8217 C   0  0  0  0  0  0  0  0  0  0  0  0
    8.2388  -14.6719   25.5011 C   0  0  0  0  0  0  0  0  0  0  0  0
    9.1812  -15.1282   24.3942 C   0  0  2  0  0  0  0  0  0  0  0  0
    8.4005  -15.1531   23.1902 N   0  0  0  0  0  0  0  0  0  0  0  0
    9.7023  -16.4809   24.6838 C   0  0  0  0  0  0  0  0  0  0  0  0
    8.9946  -17.4520   24.3433 O   0  0  0  0  0  0  0  0  0  0  0  0
    9.5192  -13.5708   27.2977 C   0  0  0  0  0  0  0  0  0  0  0  0
   10.1531  -13.5608   28.5214 C   0  0  0  0  0  0  0  0  0  0  0  0
   10.9396  -16.6985   25.3148 N   0  0  0  0  0  0  0  0  0  0  0  0
   11.7165  -17.8776   25.3637 C   0  0  1  0  0  0  0  0  0  0  0  0
   12.3546  -18.2546   24.0221 C   0  0  0  0  0  0  0  0  0  0  0  0
   13.1012  -19.5556   24.1394 C   0  0  0  0  0  0  0  0  0  0  0  0
   14.0182  -19.7088   22.9806 C   0  0  0  0  0  0  0  0  0  0  0  0
   13.5630  -19.9509   21.8488 O   0  0  0  0  0  0  0  0  0  0  0  0
   12.6454  -18.0381   26.4627 C   0  0  0  0  0  0  0  0  0  0  0  0
   13.0892  -19.2702   26.9526 O   0  0  0  0  0  0  0  0  0  0  0  0
   15.3801  -19.5800   23.1706 O   0  0  0  0  0  0  0  0  0  0  0  0
   13.1023  -17.0193   27.0372 O   0  0  0  0  0  0  0  0  0  0  0  0
  2  1  1  6
  2  3  1  0
  3  4  1  0
  4  5  1  0
  5  9  1  0
  6  5  2  0
  7  8  2  0
  7  2  1  0
 10 11  1  0
 11 12  2  0
 12 13  1  0
 14 13  2  0
 14 15  1  0
 16 15  1  1
 16 17  1  0
 17  7  1  0
 18 22  1  0
 18 16  1  0
 19 18  2  0
 20 14  1  0
 21 11  1  0
 21 20  2  0
 23 22  1  0
 23 28  1  0
 23 24  1  6
 25 24  1  0
 26 25  1  0
 27 26  2  0
 28 29  1  0
 30 26  1  0
 31 28  2  0
M  END
$$$$
