EYE.pdb
     RDKit          3D

 31 31  0  0  1  0  0  0  0  0999 V2000
    8.2430  -13.2402   19.6051 N   0  0  0  0  0  0  0  0  0  0  0  0
    7.5418  -14.0887   20.5841 C   0  0  1  0  0  0  0  0  0  0  0  0
    7.1301  -15.3171   19.8121 C   0  0  0  0  0  0  0  0  0  0  0  0
    8.1537  -15.6485   18.7807 C   0  0  0  0  0  0  0  0  0  0  0  0
    7.7158  -16.8237   17.9690 C   0  0  0  0  0  0  0  0  0  0  0  0
    7.1630  -17.8303   18.4972 O   0  0  0  0  0  0  0  0  0  0  0  0
    8.4063  -14.3504   21.7494 C   0  0  0  0  0  0  0  0  0  0  0  0
    9.6465  -14.4426   21.5898 O   0  0  0  0  0  0  0  0  0  0  0  0
    7.8972  -16.8603   16.6004 O   0  0  0  0  0  0  0  0  0  0  0  0
   10.3685  -14.6428   30.3488 O   0  0  0  0  0  0  0  0  0  0  0  0
    9.7184  -14.5326   29.1259 C   0  0  0  0  0  0  0  0  0  0  0  0
    9.7683  -13.3524   28.4173 C   0  0  0  0  0  0  0  0  0  0  0  0
    9.1223  -13.2580   27.2127 C   0  0  0  0  0  0  0  0  0  0  0  0
    8.4218  -14.3223   26.6937 C   0  0  0  0  0  0  0  0  0  0  0  0
    7.7094  -14.2651   25.3993 C   0  0  0  0  0  0  0  0  0  0  0  0
    8.6383  -14.6159   24.2435 C   0  0  2  0  0  0  0  0  0  0  0  0
    7.8528  -14.4936   23.0487 N   0  0  0  0  0  0  0  0  0  0  0  0
    9.1333  -16.0021   24.3805 C   0  0  0  0  0  0  0  0  0  0  0  0
    8.2883  -16.9199   24.3220 O   0  0  0  0  0  0  0  0  0  0  0  0
    8.3819  -15.5050   27.4216 C   0  0  0  0  0  0  0  0  0  0  0  0
    9.0273  -15.6132   28.6346 C   0  0  0  0  0  0  0  0  0  0  0  0
   10.4925  -16.3074   24.5694 N   0  0  0  0  0  0  0  0  0  0  0  0
   11.1034  -17.5694   24.7440 C   0  0  1  0  0  0  0  0  0  0  0  0
   12.4509  -17.7095   24.0273 C   0  0  0  0  0  0  0  0  0  0  0  0
   12.3128  -17.3607   22.5703 C   0  0  0  0  0  0  0  0  0  0  0  0
   13.6376  -17.4665   21.9061 C   0  0  0  0  0  0  0  0  0  0  0  0
   14.3444  -16.4547   21.7528 O   0  0  0  0  0  0  0  0  0  0  0  0
   11.1458  -18.1284   26.0790 C   0  0  0  0  0  0  0  0  0  0  0  0
   11.5197  -19.4424   26.3772 O   0  0  0  0  0  0  0  0  0  0  0  0
   14.0774  -18.6974   21.4604 O   0  0  0  0  0  0  0  0  0  0  0  0
   10.8307  -17.4090   27.0587 O   0  0  0  0  0  0  0  0  0  0  0  0
  2  1  1  6
  2  3  1  0
  3  4  1  0
  4  5  1  0
  5  9  1  0
  6  5  2  0
  7  8  2  0
  7  2  1  0
 10 11  1  0
 11 12  2  0
 12 13  1  0
 14 13  2  0
 14 15  1  0
 16 15  1  1
 16 17  1  0
 17  7  1  0
 18 22  1  0
 18 16  1  0
 19 18  2  0
 20 14  1  0
 21 11  1  0
 21 20  2  0
 23 22  1  0
 23 28  1  0
 23 24  1  1
 25 24  1  0
 26 25  1  0
 27 26  2  0
 28 29  1  0
 30 26  1  0
 31 28  2  0
M  END
$$$$
