EYE.pdb
     RDKit          3D

 31 31  0  0  1  0  0  0  0  0999 V2000
    7.8857  -13.3784   17.9334 N   0  0  0  0  0  0  0  0  0  0  0  0
    7.3976  -14.4311   18.8410 C   0  0  1  0  0  0  0  0  0  0  0  0
    7.6641  -15.7264   18.1157 C   0  0  0  0  0  0  0  0  0  0  0  0
    9.1302  -15.9323   17.9443 C   0  0  0  0  0  0  0  0  0  0  0  0
    9.4015  -17.2628   17.3215 C   0  0  0  0  0  0  0  0  0  0  0  0
    9.4690  -18.3204   18.0108 O   0  0  0  0  0  0  0  0  0  0  0  0
    8.0469  -14.3146   20.1594 C   0  0  0  0  0  0  0  0  0  0  0  0
    9.2004  -13.8294   20.2388 O   0  0  0  0  0  0  0  0  0  0  0  0
    9.5908  -17.3945   15.9599 O   0  0  0  0  0  0  0  0  0  0  0  0
    7.9279  -13.2068   28.8891 O   0  0  0  0  0  0  0  0  0  0  0  0
    7.6099  -13.4110   27.5522 C   0  0  0  0  0  0  0  0  0  0  0  0
    7.7722  -12.3943   26.6371 C   0  0  0  0  0  0  0  0  0  0  0  0
    7.4544  -12.6099   25.3219 C   0  0  0  0  0  0  0  0  0  0  0  0
    6.9744  -13.8263   24.8942 C   0  0  0  0  0  0  0  0  0  0  0  0
    6.6178  -14.1032   23.4862 C   0  0  0  0  0  0  0  0  0  0  0  0
    7.8509  -14.4626   22.6664 C   0  0  2  0  0  0  0  0  0  0  0  0
    7.3810  -14.7393   21.3389 N   0  0  0  0  0  0  0  0  0  0  0  0
    8.5124  -15.6605   23.2257 C   0  0  0  0  0  0  0  0  0  0  0  0
    7.7872  -16.6399   23.4988 O   0  0  0  0  0  0  0  0  0  0  0  0
    6.8169  -14.8406   25.8306 C   0  0  0  0  0  0  0  0  0  0  0  0
    7.1328  -14.6369   27.1566 C   0  0  0  0  0  0  0  0  0  0  0  0
    9.8983  -15.7258   23.4523 N   0  0  0  0  0  0  0  0  0  0  0  0
   10.6265  -16.6410   24.2452 C   0  0  1  0  0  0  0  0  0  0  0  0
   12.1280  -16.3419   24.3147 C   0  0  0  0  0  0  0  0  0  0  0  0
   12.6095  -15.7516   23.0173 C   0  0  0  0  0  0  0  0  0  0  0  0
   13.8844  -16.4016   22.6180 C   0  0  0  0  0  0  0  0  0  0  0  0
   14.5139  -15.9910   21.6272 O   0  0  0  0  0  0  0  0  0  0  0  0
   10.0906  -16.9977   25.5421 C   0  0  0  0  0  0  0  0  0  0  0  0
   10.2787  -18.2354   26.1649 O   0  0  0  0  0  0  0  0  0  0  0  0
   14.3646  -17.4654   23.3564 O   0  0  0  0  0  0  0  0  0  0  0  0
    9.4047  -16.1593   26.1773 O   0  0  0  0  0  0  0  0  0  0  0  0
  2  1  1  6
  2  3  1  0
  3  4  1  0
  4  5  1  0
  5  9  1  0
  6  5  2  0
  7  8  2  0
  7  2  1  0
 10 11  1  0
 11 12  2  0
 12 13  1  0
 14 13  2  0
 14 15  1  0
 16 15  1  1
 16 17  1  0
 17  7  1  0
 18 22  1  0
 18 16  1  0
 19 18  2  0
 20 14  1  0
 21 11  1  0
 21 20  2  0
 23 22  1  0
 23 28  1  0
 23 24  1  1
 25 24  1  0
 26 25  1  0
 27 26  2  0
 28 29  1  0
 30 26  1  0
 31 28  2  0
M  END
$$$$
