LVS.pdb
     RDKit          3D

 22 21  0  0  1  0  0  0  0  0999 V2000
    8.2947  -12.5348   27.0865 C   0  0  0  0  0  0  0  0  0  0  0  0
    7.0767  -12.4429   26.1936 C   0  0  2  0  0  0  0  0  0  0  0  0
    6.1570  -11.3972   26.7357 C   0  0  0  0  0  0  0  0  0  0  0  0
    6.3985  -13.8165   26.1581 C   0  0  0  0  0  0  0  0  0  0  0  0
    7.4174  -14.8443   25.7129 C   0  0  2  0  0  0  0  0  0  0  0  0
    8.7350  -14.2931   25.8582 N   0  0  0  0  0  0  0  0  0  0  0  0
    7.1243  -15.1092   24.2499 C   0  0  0  0  0  0  0  0  0  0  0  0
    5.9723  -15.3683   23.9088 O   0  0  0  0  0  0  0  0  0  0  0  0
    7.3422  -12.9523   21.2754 C   0  0  0  0  0  0  0  0  0  0  0  0
    8.3547  -14.0566   21.0338 C   0  0  2  0  0  0  0  0  0  0  0  0
    8.2632  -14.3537   19.5630 C   0  0  0  0  0  0  0  0  0  0  0  0
    8.1238  -15.2499   21.8664 C   0  0  2  0  0  0  0  0  0  0  0  0
    8.1014  -15.0707   23.2858 N   0  0  0  0  0  0  0  0  0  0  0  0
    9.1702  -16.2775   21.6617 C   0  0  0  0  0  0  0  0  0  0  0  0
   10.3848  -16.0602   22.0335 O   0  0  0  0  0  0  0  0  0  0  0  0
    8.5923  -19.5252   19.3307 O   0  0  0  0  0  0  0  0  0  0  0  0
    9.4475  -19.8459   20.3976 C   0  0  0  0  0  0  0  0  0  0  0  0
   10.0263  -18.5136   20.8878 C   0  0  2  0  0  0  0  0  0  0  0  0
    8.9674  -17.5402   21.0772 N   0  0  0  0  0  0  0  0  0  0  0  0
   11.1165  -18.0528   20.0241 C   0  0  0  0  0  0  0  0  0  0  0  0
   10.8626  -17.3406   19.0293 O   0  0  0  0  0  0  0  0  0  0  0  0
   12.4295  -18.3892   20.2846 O   0  0  0  0  0  0  0  0  0  0  0  0
  2  1  1  1
  2  4  1  0
  2  3  1  0
  4  5  1  0
  5  7  1  0
  5  6  1  6
  7  8  2  0
 10  9  1  1
 10 12  1  0
 11 10  1  0
 12 14  1  0
 12 13  1  1
 13  7  1  0
 14 15  2  0
 16 17  1  0
 18 17  1  6
 18 20  1  0
 19 14  1  0
 19 18  1  0
 20 21  2  0
 20 22  1  0
M  END
$$$$
