LVS.pdb
     RDKit          3D

 22 21  0  0  1  0  0  0  0  0999 V2000
    5.6522  -20.4495   25.7428 C   0  0  0  0  0  0  0  0  0  0  0  0
    6.6730  -20.5941   24.6355 C   0  0  2  0  0  0  0  0  0  0  0  0
    7.6240  -21.6897   24.9939 C   0  0  0  0  0  0  0  0  0  0  0  0
    7.4016  -19.2560   24.4720 C   0  0  0  0  0  0  0  0  0  0  0  0
    6.3747  -18.1817   24.1823 C   0  0  2  0  0  0  0  0  0  0  0  0
    5.8673  -18.3635   22.8516 N   0  0  0  0  0  0  0  0  0  0  0  0
    7.1171  -16.8642   24.2788 C   0  0  0  0  0  0  0  0  0  0  0  0
    7.8374  -16.5146   23.3463 O   0  0  0  0  0  0  0  0  0  0  0  0
    5.7179  -13.2512   25.7710 C   0  0  0  0  0  0  0  0  0  0  0  0
    6.8530  -13.8699   26.5658 C   0  0  2  0  0  0  0  0  0  0  0  0
    7.6662  -12.7041   27.0553 C   0  0  0  0  0  0  0  0  0  0  0  0
    7.6540  -14.8293   25.7858 C   0  0  2  0  0  0  0  0  0  0  0  0
    7.0155  -16.0418   25.3737 N   0  0  0  0  0  0  0  0  0  0  0  0
    8.8404  -15.2987   26.5375 C   0  0  0  0  0  0  0  0  0  0  0  0
    8.7076  -15.8533   27.6932 O   0  0  0  0  0  0  0  0  0  0  0  0
   12.9054  -14.8374   25.3974 O   0  0  0  0  0  0  0  0  0  0  0  0
   12.4415  -16.0915   25.8266 C   0  0  0  0  0  0  0  0  0  0  0  0
   11.2915  -15.8043   26.7990 C   0  0  2  0  0  0  0  0  0  0  0  0
   10.1724  -15.2044   26.0972 N   0  0  0  0  0  0  0  0  0  0  0  0
   11.7506  -15.0383   27.9606 C   0  0  0  0  0  0  0  0  0  0  0  0
   11.2492  -13.9201   28.2053 O   0  0  0  0  0  0  0  0  0  0  0  0
   12.7325  -15.5257   28.7991 O   0  0  0  0  0  0  0  0  0  0  0  0
  2  1  1  1
  2  4  1  0
  2  3  1  0
  4  5  1  0
  5  7  1  0
  5  6  1  6
  7  8  2  0
 10  9  1  6
 10 12  1  0
 11 10  1  0
 12 14  1  0
 12 13  1  1
 13  7  1  0
 14 15  2  0
 16 17  1  0
 18 17  1  6
 18 20  1  0
 19 14  1  0
 19 18  1  0
 20 21  2  0
 20 22  1  0
M  END
$$$$
