LVS.pdb
     RDKit          3D

 22 21  0  0  1  0  0  0  0  0999 V2000
    5.5032  -19.3359   23.0019 C   0  0  0  0  0  0  0  0  0  0  0  0
    5.9756  -18.2463   22.0645 C   0  0  2  0  0  0  0  0  0  0  0  0
    6.4815  -18.8755   20.8070 C   0  0  0  0  0  0  0  0  0  0  0  0
    7.0767  -17.4465   22.7688 C   0  0  0  0  0  0  0  0  0  0  0  0
    6.9159  -15.9851   22.4066 C   0  0  2  0  0  0  0  0  0  0  0  0
    7.3825  -15.7796   21.0645 N   0  0  0  0  0  0  0  0  0  0  0  0
    7.7875  -15.2199   23.3818 C   0  0  0  0  0  0  0  0  0  0  0  0
    8.9728  -15.0409   23.1103 O   0  0  0  0  0  0  0  0  0  0  0  0
    6.2186  -12.0362   25.5289 C   0  0  0  0  0  0  0  0  0  0  0  0
    6.9210  -13.0734   26.3855 C   0  0  2  0  0  0  0  0  0  0  0  0
    7.6145  -12.2849   27.4613 C   0  0  0  0  0  0  0  0  0  0  0  0
    7.8495  -13.9258   25.6226 C   0  0  2  0  0  0  0  0  0  0  0  0
    7.3015  -14.7162   24.5632 N   0  0  0  0  0  0  0  0  0  0  0  0
    8.5228  -14.9216   26.4875 C   0  0  0  0  0  0  0  0  0  0  0  0
    7.8334  -15.7544   27.1887 O   0  0  0  0  0  0  0  0  0  0  0  0
   12.5828  -15.5283   26.4626 O   0  0  0  0  0  0  0  0  0  0  0  0
   11.7865  -16.6441   26.7678 C   0  0  0  0  0  0  0  0  0  0  0  0
   10.5314  -16.0905   27.4524 C   0  0  2  0  0  0  0  0  0  0  0  0
    9.9141  -15.0682   26.6287 N   0  0  0  0  0  0  0  0  0  0  0  0
   10.8138  -15.6641   28.8255 C   0  0  0  0  0  0  0  0  0  0  0  0
   10.6001  -14.4807   29.1652 O   0  0  0  0  0  0  0  0  0  0  0  0
   11.3150  -16.5456   29.7619 O   0  0  0  0  0  0  0  0  0  0  0  0
  2  1  1  1
  2  4  1  0
  2  3  1  0
  4  5  1  0
  5  7  1  0
  5  6  1  6
  7  8  2  0
 10  9  1  6
 10 12  1  0
 11 10  1  0
 12 14  1  0
 12 13  1  6
 13  7  1  0
 14 15  2  0
 16 17  1  0
 18 17  1  6
 18 20  1  0
 19 14  1  0
 19 18  1  0
 20 21  2  0
 20 22  1  0
M  END
$$$$
