LVS.pdb
     RDKit          3D

 22 21  0  0  1  0  0  0  0  0999 V2000
    8.1796  -14.8904   18.8223 C   0  0  0  0  0  0  0  0  0  0  0  0
    7.5254  -13.7470   19.5665 C   0  0  2  0  0  0  0  0  0  0  0  0
    7.5971  -12.5161   18.7222 C   0  0  0  0  0  0  0  0  0  0  0  0
    8.2602  -13.5529   20.8970 C   0  0  0  0  0  0  0  0  0  0  0  0
    8.0598  -14.7931   21.7423 C   0  0  2  0  0  0  0  0  0  0  0  0
    6.6529  -15.0320   21.8996 N   0  0  0  0  0  0  0  0  0  0  0  0
    8.6866  -14.4822   23.0864 C   0  0  0  0  0  0  0  0  0  0  0  0
    9.8846  -14.2129   23.1390 O   0  0  0  0  0  0  0  0  0  0  0  0
    6.5749  -12.2771   25.6602 C   0  0  0  0  0  0  0  0  0  0  0  0
    7.1683  -13.4762   26.3762 C   0  0  2  0  0  0  0  0  0  0  0  0
    7.6463  -12.9431   27.6980 C   0  0  0  0  0  0  0  0  0  0  0  0
    8.2409  -14.1375   25.6128 C   0  0  2  0  0  0  0  0  0  0  0  0
    7.9638  -14.4900   24.2540 N   0  0  0  0  0  0  0  0  0  0  0  0
    8.6476  -15.4210   26.2294 C   0  0  0  0  0  0  0  0  0  0  0  0
    7.7706  -16.3250   26.5018 O   0  0  0  0  0  0  0  0  0  0  0  0
   12.5394  -16.7161   26.5085 O   0  0  0  0  0  0  0  0  0  0  0  0
   11.5165  -17.6774   26.4638 C   0  0  0  0  0  0  0  0  0  0  0  0
   10.3159  -17.0476   27.1796 C   0  0  2  0  0  0  0  0  0  0  0  0
    9.9650  -15.7822   26.5629 N   0  0  0  0  0  0  0  0  0  0  0  0
   10.5354  -16.9688   28.6261 C   0  0  0  0  0  0  0  0  0  0  0  0
   10.5548  -15.8549   29.1921 O   0  0  0  0  0  0  0  0  0  0  0  0
   10.7232  -18.1053   29.3864 O   0  0  0  0  0  0  0  0  0  0  0  0
  2  1  1  6
  2  4  1  0
  2  3  1  0
  4  5  1  0
  5  7  1  0
  5  6  1  1
  7  8  2  0
 10  9  1  6
 10 12  1  0
 11 10  1  0
 12 14  1  0
 12 13  1  6
 13  7  1  0
 14 15  2  0
 16 17  1  0
 18 17  1  6
 18 20  1  0
 19 14  1  0
 19 18  1  0
 20 21  2  0
 20 22  1  0
M  END
$$$$
