LVS.pdb
     RDKit          3D

 22 21  0  0  1  0  0  0  0  0999 V2000
    8.3285  -15.1831   18.8597 C   0  0  0  0  0  0  0  0  0  0  0  0
    7.4529  -14.1021   19.4545 C   0  0  2  0  0  0  0  0  0  0  0  0
    7.3185  -12.9896   18.4659 C   0  0  0  0  0  0  0  0  0  0  0  0
    8.1013  -13.6158   20.7550 C   0  0  0  0  0  0  0  0  0  0  0  0
    7.9989  -14.7204   21.7856 C   0  0  2  0  0  0  0  0  0  0  0  0
    6.6267  -15.1252   21.9055 N   0  0  0  0  0  0  0  0  0  0  0  0
    8.4766  -14.1139   23.0895 C   0  0  0  0  0  0  0  0  0  0  0  0
    9.5060  -13.4423   23.0943 O   0  0  0  0  0  0  0  0  0  0  0  0
    6.4721  -11.9675   25.7426 C   0  0  0  0  0  0  0  0  0  0  0  0
    6.9287  -13.2742   26.3647 C   0  0  2  0  0  0  0  0  0  0  0  0
    7.2989  -12.9237   27.7789 C   0  0  0  0  0  0  0  0  0  0  0  0
    8.0370  -13.9113   25.6322 C   0  0  2  0  0  0  0  0  0  0  0  0
    7.8003  -14.2868   24.2720 N   0  0  0  0  0  0  0  0  0  0  0  0
    8.4682  -15.1751   26.2723 C   0  0  0  0  0  0  0  0  0  0  0  0
    7.6428  -16.1550   26.4114 O   0  0  0  0  0  0  0  0  0  0  0  0
   12.1278  -16.7326   26.2210 O   0  0  0  0  0  0  0  0  0  0  0  0
   11.0136  -17.5296   26.5301 C   0  0  0  0  0  0  0  0  0  0  0  0
   10.1218  -16.6727   27.4362 C   0  0  2  0  0  0  0  0  0  0  0  0
    9.7578  -15.4379   26.7673 N   0  0  0  0  0  0  0  0  0  0  0  0
   10.7255  -16.4831   28.7577 C   0  0  0  0  0  0  0  0  0  0  0  0
   11.0372  -17.4775   29.4472 O   0  0  0  0  0  0  0  0  0  0  0  0
   10.9607  -15.2211   29.2648 O   0  0  0  0  0  0  0  0  0  0  0  0
  2  1  1  6
  2  4  1  0
  2  3  1  0
  4  5  1  0
  5  7  1  0
  5  6  1  1
  7  8  2  0
 10  9  1  6
 10 12  1  0
 11 10  1  0
 12 14  1  0
 12 13  1  6
 13  7  1  0
 14 15  2  0
 16 17  1  0
 18 17  1  6
 18 20  1  0
 19 14  1  0
 19 18  1  0
 20 21  2  0
 20 22  1  0
M  END
$$$$
