LVS.pdb
     RDKit          3D

 22 21  0  0  1  0  0  0  0  0999 V2000
    5.8669  -20.3625   19.5270 C   0  0  0  0  0  0  0  0  0  0  0  0
    7.2416  -20.6918   18.9875 C   0  0  2  0  0  0  0  0  0  0  0  0
    7.6222  -22.0648   19.4382 C   0  0  0  0  0  0  0  0  0  0  0  0
    8.2291  -19.6416   19.5071 C   0  0  0  0  0  0  0  0  0  0  0  0
    7.7092  -18.2684   19.1375 C   0  0  2  0  0  0  0  0  0  0  0  0
    7.7074  -18.1359   17.7079 N   0  0  0  0  0  0  0  0  0  0  0  0
    8.6821  -17.2804   19.7487 C   0  0  0  0  0  0  0  0  0  0  0  0
    9.7698  -17.0992   19.2059 O   0  0  0  0  0  0  0  0  0  0  0  0
    7.1852  -15.1043   23.2245 C   0  0  0  0  0  0  0  0  0  0  0  0
    8.2454  -14.5362   22.2992 C   0  0  2  0  0  0  0  0  0  0  0  0
    7.4875  -13.7018   21.3045 C   0  0  0  0  0  0  0  0  0  0  0  0
    9.0706  -15.5725   21.6545 C   0  0  2  0  0  0  0  0  0  0  0  0
    8.3938  -16.5762   20.8918 N   0  0  0  0  0  0  0  0  0  0  0  0
    9.8496  -16.3528   22.6431 C   0  0  0  0  0  0  0  0  0  0  0  0
    9.3368  -17.3891   23.2121 O   0  0  0  0  0  0  0  0  0  0  0  0
   13.7536  -16.6987   22.5017 O   0  0  0  0  0  0  0  0  0  0  0  0
   13.4195  -16.5916   23.8615 C   0  0  0  0  0  0  0  0  0  0  0  0
   11.9233  -16.9134   23.9537 C   0  0  2  0  0  0  0  0  0  0  0  0
   11.1672  -16.0715   23.0458 N   0  0  0  0  0  0  0  0  0  0  0  0
   11.4513  -16.8748   25.3402 C   0  0  0  0  0  0  0  0  0  0  0  0
   10.5824  -16.0427   25.6781 O   0  0  0  0  0  0  0  0  0  0  0  0
   11.9474  -17.7430   26.2916 O   0  0  0  0  0  0  0  0  0  0  0  0
  2  1  1  1
  2  4  1  0
  2  3  1  0
  4  5  1  0
  5  7  1  0
  5  6  1  6
  7  8  2  0
 10  9  1  1
 10 12  1  0
 11 10  1  0
 12 14  1  0
 12 13  1  1
 13  7  1  0
 14 15  2  0
 16 17  1  0
 18 17  1  1
 18 20  1  0
 19 14  1  0
 19 18  1  0
 20 21  2  0
 20 22  1  0
M  END
$$$$
