LVS.pdb
     RDKit          3D

 22 21  0  0  1  0  0  0  0  0999 V2000
    6.0652  -12.1709   26.2616 C   0  0  0  0  0  0  0  0  0  0  0  0
    6.9924  -13.1238   26.9838 C   0  0  2  0  0  0  0  0  0  0  0  0
    8.0919  -12.3385   27.6222 C   0  0  0  0  0  0  0  0  0  0  0  0
    7.5438  -14.1270   25.9652 C   0  0  0  0  0  0  0  0  0  0  0  0
    6.3772  -14.8158   25.2890 C   0  0  2  0  0  0  0  0  0  0  0  0
    5.8717  -15.8428   26.1555 N   0  0  0  0  0  0  0  0  0  0  0  0
    6.9393  -15.4340   24.0248 C   0  0  0  0  0  0  0  0  0  0  0  0
    7.2459  -16.6243   24.0270 O   0  0  0  0  0  0  0  0  0  0  0  0
    8.0655  -14.3662   19.1899 C   0  0  0  0  0  0  0  0  0  0  0  0
    7.5717  -13.9319   20.5575 C   0  0  2  0  0  0  0  0  0  0  0  0
    8.4679  -12.7909   20.9508 C   0  0  0  0  0  0  0  0  0  0  0  0
    7.5752  -15.0207   21.5500 C   0  0  2  0  0  0  0  0  0  0  0  0
    7.1203  -14.7119   22.8710 N   0  0  0  0  0  0  0  0  0  0  0  0
    8.9349  -15.5651   21.7683 C   0  0  0  0  0  0  0  0  0  0  0  0
    9.8296  -14.8692   22.3813 O   0  0  0  0  0  0  0  0  0  0  0  0
   10.1097  -19.1907   20.2950 O   0  0  0  0  0  0  0  0  0  0  0  0
   10.7925  -18.8347   21.4695 C   0  0  0  0  0  0  0  0  0  0  0  0
   10.7392  -17.3041   21.5396 C   0  0  2  0  0  0  0  0  0  0  0  0
    9.3778  -16.8358   21.3605 N   0  0  0  0  0  0  0  0  0  0  0  0
   11.7085  -16.6918   20.6272 C   0  0  0  0  0  0  0  0  0  0  0  0
   11.3115  -16.1324   19.5827 O   0  0  0  0  0  0  0  0  0  0  0  0
   13.0622  -16.7180   20.8953 O   0  0  0  0  0  0  0  0  0  0  0  0
  2  1  1  6
  2  4  1  0
  2  3  1  0
  4  5  1  0
  5  7  1  0
  5  6  1  1
  7  8  2  0
 10  9  1  6
 10 12  1  0
 11 10  1  0
 12 14  1  0
 12 13  1  1
 13  7  1  0
 14 15  2  0
 16 17  1  0
 18 17  1  6
 18 20  1  0
 19 14  1  0
 19 18  1  0
 20 21  2  0
 20 22  1  0
M  END
$$$$
