LVS.pdb
     RDKit          3D

 22 21  0  0  1  0  0  0  0  0999 V2000
    8.2482  -12.6647   27.2170 C   0  0  0  0  0  0  0  0  0  0  0  0
    7.2992  -13.4868   26.3726 C   0  0  2  0  0  0  0  0  0  0  0  0
    5.9745  -12.7969   26.3226 C   0  0  0  0  0  0  0  0  0  0  0  0
    7.1779  -14.8799   26.9991 C   0  0  0  0  0  0  0  0  0  0  0  0
    6.4743  -15.7902   26.0147 C   0  0  2  0  0  0  0  0  0  0  0  0
    6.0843  -16.9973   26.6870 N   0  0  0  0  0  0  0  0  0  0  0  0
    7.4949  -16.1021   24.9389 C   0  0  0  0  0  0  0  0  0  0  0  0
    8.2898  -17.0223   25.1182 O   0  0  0  0  0  0  0  0  0  0  0  0
    6.6897  -14.5103   20.9804 C   0  0  0  0  0  0  0  0  0  0  0  0
    8.1102  -14.4981   21.5141 C   0  0  2  0  0  0  0  0  0  0  0  0
    8.9810  -14.7174   20.3084 C   0  0  0  0  0  0  0  0  0  0  0  0
    8.3440  -15.4996   22.5691 C   0  0  2  0  0  0  0  0  0  0  0  0
    7.5662  -15.3927   23.7654 N   0  0  0  0  0  0  0  0  0  0  0  0
    9.7413  -15.4709   23.0585 C   0  0  0  0  0  0  0  0  0  0  0  0
   10.2088  -14.4245   23.6476 O   0  0  0  0  0  0  0  0  0  0  0  0
   11.7042  -18.6536   24.0625 O   0  0  0  0  0  0  0  0  0  0  0  0
   12.3286  -17.4676   24.4819 C   0  0  0  0  0  0  0  0  0  0  0  0
   12.0433  -16.4323   23.3878 C   0  0  2  0  0  0  0  0  0  0  0  0
   10.6638  -16.5264   22.9485 N   0  0  0  0  0  0  0  0  0  0  0  0
   13.0246  -16.5150   22.3029 C   0  0  0  0  0  0  0  0  0  0  0  0
   12.6415  -16.7324   21.1335 O   0  0  0  0  0  0  0  0  0  0  0  0
   14.3747  -16.3573   22.5428 O   0  0  0  0  0  0  0  0  0  0  0  0
  2  1  1  1
  2  4  1  0
  2  3  1  0
  4  5  1  0
  5  7  1  0
  5  6  1  1
  7  8  2  0
 10  9  1  6
 10 12  1  0
 11 10  1  0
 12 14  1  0
 12 13  1  1
 13  7  1  0
 14 15  2  0
 16 17  1  0
 18 17  1  1
 18 20  1  0
 19 14  1  0
 19 18  1  0
 20 21  2  0
 20 22  1  0
M  END
$$$$
