CYA.pdb
     RDKit          3D

 24 24  0  0  1  0  0  0  0  0999 V2000
   27.0025  -20.2688  -14.1104 N   0  0  0  0  0  0  0  0  0  0  0  0
   27.6890  -20.7511  -12.9450 C   0  0  1  0  0  0  0  0  0  0  0  0
   29.1267  -20.2530  -12.9624 C   0  0  0  0  0  0  0  0  0  0  0  0
   30.0036  -20.8939  -11.5117 S   0  0  0  0  0  0  0  0  0  0  0  0
   27.0260  -20.2855  -11.6990 C   0  0  0  0  0  0  0  0  0  0  0  0
   26.6544  -19.0874  -11.6129 O   0  0  0  0  0  0  0  0  0  0  0  0
   20.6175  -19.7938  -12.5054 O   0  0  0  0  0  0  0  0  0  0  0  0
   21.6629  -20.1644  -11.6679 C   0  0  0  0  0  0  0  0  0  0  0  0
   21.9456  -19.4175  -10.5592 C   0  0  0  0  0  0  0  0  0  0  0  0
   23.0011  -19.8065   -9.7293 C   0  0  0  0  0  0  0  0  0  0  0  0
   23.7369  -20.9255  -10.0336 C   0  0  0  0  0  0  0  0  0  0  0  0
   24.8686  -21.3205   -9.1930 C   0  0  0  0  0  0  0  0  0  0  0  0
   26.1365  -20.5662   -9.3683 C   0  0  2  0  0  0  0  0  0  0  0  0
   26.7859  -21.1282  -10.5875 N   0  0  0  0  0  0  0  0  0  0  0  0
   27.0913  -20.5719   -8.2614 C   0  0  0  0  0  0  0  0  0  0  0  0
   27.7122  -21.6515   -7.9190 O   0  0  0  0  0  0  0  0  0  0  0  0
   23.4263  -21.6537  -11.1551 C   0  0  0  0  0  0  0  0  0  0  0  0
   22.3894  -21.2883  -11.9881 C   0  0  0  0  0  0  0  0  0  0  0  0
   28.6131  -18.1559   -5.7777 C   0  0  0  0  0  0  0  0  0  0  0  0
   28.1753  -19.5222   -6.2559 C   0  0  2  0  0  0  0  0  0  0  0  0
   27.4255  -19.4499   -7.4897 N   0  0  0  0  0  0  0  0  0  0  0  0
   27.5306  -20.2244   -5.1551 C   0  0  0  0  0  0  0  0  0  0  0  0
   26.3601  -20.6332   -5.2369 O   0  0  0  0  0  0  0  0  0  0  0  0
   28.2370  -20.4438   -3.9863 O   0  0  0  0  0  0  0  0  0  0  0  0
  2  1  1  6
  2  3  1  0
  3  4  1  0
  5  6  2  0
  5  2  1  0
  7  8  1  0
  8 18  2  0
  9 10  2  0
  9  8  1  0
 10 11  1  0
 11 12  1  0
 11 17  2  0
 13 14  1  0
 13 12  1  1
 14  5  1  0
 15 13  1  0
 16 15  2  0
 18 17  1  0
 20 19  1  1
 20 21  1  0
 21 15  1  0
 22 24  1  0
 22 20  1  0
 23 22  2  0
M  END
$$$$
