CYA.pdb
     RDKit          3D

 24 24  0  0  1  0  0  0  0  0999 V2000
   22.8889   -9.6323  -16.2619 N   0  0  0  0  0  0  0  0  0  0  0  0
   22.0671   -8.7201  -15.5171 C   0  0  1  0  0  0  0  0  0  0  0  0
   22.7223   -8.4293  -14.1750 C   0  0  0  0  0  0  0  0  0  0  0  0
   22.5396   -9.8701  -13.0910 S   0  0  0  0  0  0  0  0  0  0  0  0
   21.8763   -7.4437  -16.2542 C   0  0  0  0  0  0  0  0  0  0  0  0
   22.8414   -6.9556  -16.8955 O   0  0  0  0  0  0  0  0  0  0  0  0
   17.8735   -1.9031  -21.7208 O   0  0  0  0  0  0  0  0  0  0  0  0
   18.2145   -2.8926  -20.8065 C   0  0  0  0  0  0  0  0  0  0  0  0
   17.4407   -3.0925  -19.6981 C   0  0  0  0  0  0  0  0  0  0  0  0
   17.8002   -4.0927  -18.7902 C   0  0  0  0  0  0  0  0  0  0  0  0
   18.9175   -4.8578  -19.0188 C   0  0  0  0  0  0  0  0  0  0  0  0
   19.3252   -5.8821  -18.0555 C   0  0  0  0  0  0  0  0  0  0  0  0
   20.4923   -5.5703  -17.1907 C   0  0  2  0  0  0  0  0  0  0  0  0
   20.6505   -6.7364  -16.2748 N   0  0  0  0  0  0  0  0  0  0  0  0
   20.4492   -4.3374  -16.4065 C   0  0  0  0  0  0  0  0  0  0  0  0
   19.7971   -4.2750  -15.2933 O   0  0  0  0  0  0  0  0  0  0  0  0
   19.6731   -4.6311  -20.1424 C   0  0  0  0  0  0  0  0  0  0  0  0
   19.3371   -3.6497  -21.0515 C   0  0  0  0  0  0  0  0  0  0  0  0
   22.0658   -0.9231  -16.3882 C   0  0  0  0  0  0  0  0  0  0  0  0
   21.0140   -1.9297  -15.9790 C   0  0  2  0  0  0  0  0  0  0  0  0
   21.0907   -3.1423  -16.7620 N   0  0  0  0  0  0  0  0  0  0  0  0
   19.7161   -1.2702  -15.9453 C   0  0  0  0  0  0  0  0  0  0  0  0
   18.7949   -1.6013  -16.7106 O   0  0  0  0  0  0  0  0  0  0  0  0
   19.4997   -0.2482  -15.0389 O   0  0  0  0  0  0  0  0  0  0  0  0
  2  1  1  6
  2  3  1  0
  3  4  1  0
  5  6  2  0
  5  2  1  0
  7  8  1  0
  8 18  2  0
  9 10  2  0
  9  8  1  0
 10 11  1  0
 11 12  1  0
 11 17  2  0
 13 14  1  0
 13 12  1  1
 14  5  1  0
 15 13  1  0
 16 15  2  0
 18 17  1  0
 20 19  1  6
 20 21  1  0
 21 15  1  0
 22 24  1  0
 22 20  1  0
 23 22  2  0
M  END
$$$$
