CYA.pdb
     RDKit          3D

 24 24  0  0  1  0  0  0  0  0999 V2000
   29.2000  -22.0417  -18.2557 N   0  0  0  0  0  0  0  0  0  0  0  0
   28.4408  -20.9219  -17.7743 C   0  0  1  0  0  0  0  0  0  0  0  0
   27.5078  -20.4336  -18.8726 C   0  0  0  0  0  0  0  0  0  0  0  0
   28.4879  -19.7578  -20.2390 S   0  0  0  0  0  0  0  0  0  0  0  0
   27.6377  -21.2905  -16.5793 C   0  0  0  0  0  0  0  0  0  0  0  0
   27.0815  -22.4174  -16.5379 O   0  0  0  0  0  0  0  0  0  0  0  0
   24.3546  -20.8201   -8.3015 O   0  0  0  0  0  0  0  0  0  0  0  0
   25.0452  -20.6766   -9.4989 C   0  0  0  0  0  0  0  0  0  0  0  0
   26.1415  -21.4525   -9.7508 C   0  0  0  0  0  0  0  0  0  0  0  0
   26.8227  -21.2932  -10.9610 C   0  0  0  0  0  0  0  0  0  0  0  0
   26.3876  -20.3668  -11.8768 C   0  0  0  0  0  0  0  0  0  0  0  0
   27.1157  -20.1645  -13.1306 C   0  0  0  0  0  0  0  0  0  0  0  0
   26.5994  -20.8679  -14.3331 C   0  0  2  0  0  0  0  0  0  0  0  0
   27.4615  -20.4309  -15.4688 N   0  0  0  0  0  0  0  0  0  0  0  0
   25.1941  -20.6731  -14.6854 C   0  0  0  0  0  0  0  0  0  0  0  0
   24.7904  -19.5830  -15.2484 O   0  0  0  0  0  0  0  0  0  0  0  0
   25.2826  -19.6035  -11.5925 C   0  0  0  0  0  0  0  0  0  0  0  0
   24.5952  -19.7437  -10.4049 C   0  0  0  0  0  0  0  0  0  0  0  0
   22.1279  -22.4804  -15.4949 C   0  0  0  0  0  0  0  0  0  0  0  0
   22.7792  -21.3555  -14.7219 C   0  0  2  0  0  0  0  0  0  0  0  0
   24.1780  -21.6137  -14.4645 N   0  0  0  0  0  0  0  0  0  0  0  0
   21.9607  -21.0456  -13.5581 C   0  0  0  0  0  0  0  0  0  0  0  0
   20.8565  -20.4859  -13.6660 O   0  0  0  0  0  0  0  0  0  0  0  0
   22.4214  -21.3815  -12.2980 O   0  0  0  0  0  0  0  0  0  0  0  0
  2  1  1  6
  2  3  1  0
  3  4  1  0
  5  6  2  0
  5  2  1  0
  7  8  1  0
  8 18  2  0
  9 10  2  0
  9  8  1  0
 10 11  1  0
 11 12  1  0
 11 17  2  0
 13 14  1  0
 13 12  1  1
 14  5  1  0
 15 13  1  0
 16 15  2  0
 18 17  1  0
 20 19  1  1
 20 21  1  0
 21 15  1  0
 22 24  1  0
 22 20  1  0
 23 22  2  0
M  END
$$$$
