CYA.pdb
     RDKit          3D

 24 24  0  0  1  0  0  0  0  0999 V2000
   21.0683   -8.7873  -18.5986 N   0  0  0  0  0  0  0  0  0  0  0  0
   21.6377   -7.5052  -18.9052 C   0  0  1  0  0  0  0  0  0  0  0  0
   21.2905   -7.1268  -20.3375 C   0  0  0  0  0  0  0  0  0  0  0  0
   22.3332   -8.0718  -21.4795 S   0  0  0  0  0  0  0  0  0  0  0  0
   21.1264   -6.4559  -17.9852 C   0  0  0  0  0  0  0  0  0  0  0  0
   19.8848   -6.3034  -17.8584 O   0  0  0  0  0  0  0  0  0  0  0  0
   18.7708   -9.0001  -12.3295 O   0  0  0  0  0  0  0  0  0  0  0  0
   19.5366   -8.0399  -12.9799 C   0  0  0  0  0  0  0  0  0  0  0  0
   20.8588   -8.2774  -13.2303 C   0  0  0  0  0  0  0  0  0  0  0  0
   21.6123   -7.2992  -13.8856 C   0  0  0  0  0  0  0  0  0  0  0  0
   21.0218   -6.1197  -14.2680 C   0  0  0  0  0  0  0  0  0  0  0  0
   21.8101   -5.0727  -14.9204 C   0  0  0  0  0  0  0  0  0  0  0  0
   21.3700   -4.6380  -16.2712 C   0  0  2  0  0  0  0  0  0  0  0  0
   21.9718   -5.6060  -17.2327 N   0  0  0  0  0  0  0  0  0  0  0  0
   21.6929   -3.2742  -16.6868 C   0  0  0  0  0  0  0  0  0  0  0  0
   22.9175   -2.8955  -16.8460 O   0  0  0  0  0  0  0  0  0  0  0  0
   19.6911   -5.9130  -14.0013 C   0  0  0  0  0  0  0  0  0  0  0  0
   18.9286   -6.8641  -13.3560 C   0  0  0  0  0  0  0  0  0  0  0  0
   19.9765   -0.2859  -18.1636 C   0  0  0  0  0  0  0  0  0  0  0  0
   21.0914   -0.9371  -17.3762 C   0  0  2  0  0  0  0  0  0  0  0  0
   20.7456   -2.2751  -16.9524 N   0  0  0  0  0  0  0  0  0  0  0  0
   21.5246   -0.0250  -16.3269 C   0  0  0  0  0  0  0  0  0  0  0  0
   21.1111   -0.1280  -15.1598 O   0  0  0  0  0  0  0  0  0  0  0  0
   22.4199    0.9835  -16.6342 O   0  0  0  0  0  0  0  0  0  0  0  0
  2  1  1  1
  2  3  1  0
  3  4  1  0
  5  6  2  0
  5  2  1  0
  7  8  1  0
  8 18  2  0
  9 10  2  0
  9  8  1  0
 10 11  1  0
 11 12  1  0
 11 17  2  0
 13 14  1  0
 13 12  1  1
 14  5  1  0
 15 13  1  0
 16 15  2  0
 18 17  1  0
 20 19  1  1
 20 21  1  0
 21 15  1  0
 22 24  1  0
 22 20  1  0
 23 22  2  0
M  END
$$$$
