CYA.pdb
     RDKit          3D

 24 24  0  0  1  0  0  0  0  0999 V2000
   32.5178  -28.0700  -18.6549 N   0  0  0  0  0  0  0  0  0  0  0  0
   32.2009  -29.3775  -19.1571 C   0  0  1  0  0  0  0  0  0  0  0  0
   32.8349  -29.5602  -20.5282 C   0  0  0  0  0  0  0  0  0  0  0  0
   31.9918  -28.4955  -21.7283 S   0  0  0  0  0  0  0  0  0  0  0  0
   32.6978  -30.4394  -18.2438 C   0  0  0  0  0  0  0  0  0  0  0  0
   33.6417  -30.1780  -17.4554 O   0  0  0  0  0  0  0  0  0  0  0  0
   26.7362  -32.4553  -14.8990 O   0  0  0  0  0  0  0  0  0  0  0  0
   28.1028  -32.3842  -15.1418 C   0  0  0  0  0  0  0  0  0  0  0  0
   28.6404  -31.2520  -15.6861 C   0  0  0  0  0  0  0  0  0  0  0  0
   30.0171  -31.1999  -15.9228 C   0  0  0  0  0  0  0  0  0  0  0  0
   30.8088  -32.2773  -15.6088 C   0  0  0  0  0  0  0  0  0  0  0  0
   32.2457  -32.2485  -15.8878 C   0  0  0  0  0  0  0  0  0  0  0  0
   32.6849  -32.7324  -17.2221 C   0  0  2  0  0  0  0  0  0  0  0  0
   32.1597  -31.7481  -18.2116 N   0  0  0  0  0  0  0  0  0  0  0  0
   32.2901  -34.0822  -17.6212 C   0  0  0  0  0  0  0  0  0  0  0  0
   31.0798  -34.3441  -17.9883 O   0  0  0  0  0  0  0  0  0  0  0  0
   30.2368  -33.3995  -15.0630 C   0  0  0  0  0  0  0  0  0  0  0  0
   28.8808  -33.4730  -14.8210 C   0  0  0  0  0  0  0  0  0  0  0  0
   33.8465  -37.3554  -18.5681 C   0  0  0  0  0  0  0  0  0  0  0  0
   32.7203  -36.5269  -17.9916 C   0  0  2  0  0  0  0  0  0  0  0  0
   33.1503  -35.1890  -17.6529 N   0  0  0  0  0  0  0  0  0  0  0  0
   32.0757  -37.2813  -16.9259 C   0  0  0  0  0  0  0  0  0  0  0  0
   31.6457  -38.4328  -17.1081 O   0  0  0  0  0  0  0  0  0  0  0  0
   31.9367  -36.7040  -15.6767 O   0  0  0  0  0  0  0  0  0  0  0  0
  2  1  1  1
  2  3  1  0
  3  4  1  0
  5  6  2  0
  5  2  1  0
  7  8  1  0
  8 18  2  0
  9 10  2  0
  9  8  1  0
 10 11  1  0
 11 12  1  0
 11 17  2  0
 13 14  1  0
 13 12  1  1
 14  5  1  0
 15 13  1  0
 16 15  2  0
 18 17  1  0
 20 19  1  1
 20 21  1  0
 21 15  1  0
 22 24  1  0
 22 20  1  0
 23 22  2  0
M  END
$$$$
