CYA.pdb
     RDKit          3D

 24 24  0  0  1  0  0  0  0  0999 V2000
   17.5315  -13.6992  -15.5370 N   0  0  0  0  0  0  0  0  0  0  0  0
   17.2823  -12.5422  -16.3502 C   0  0  1  0  0  0  0  0  0  0  0  0
   15.7966  -12.4576  -16.6679 C   0  0  0  0  0  0  0  0  0  0  0  0
   15.3950  -13.6338  -17.9869 S   0  0  0  0  0  0  0  0  0  0  0  0
   17.7053  -11.2970  -15.6579 C   0  0  0  0  0  0  0  0  0  0  0  0
   17.3397  -11.1007  -14.4710 O   0  0  0  0  0  0  0  0  0  0  0  0
   22.7791   -4.4195  -13.5424 O   0  0  0  0  0  0  0  0  0  0  0  0
   22.1833   -5.5954  -13.9825 C   0  0  0  0  0  0  0  0  0  0  0  0
   22.1802   -5.9010  -15.3144 C   0  0  0  0  0  0  0  0  0  0  0  0
   21.5759   -7.0883  -15.7374 C   0  0  0  0  0  0  0  0  0  0  0  0
   20.9964   -7.9287  -14.8186 C   0  0  0  0  0  0  0  0  0  0  0  0
   20.3270   -9.1557  -15.2541 C   0  0  0  0  0  0  0  0  0  0  0  0
   18.8646   -9.0756  -15.5040 C   0  0  2  0  0  0  0  0  0  0  0  0
   18.5088  -10.3050  -16.2693 N   0  0  0  0  0  0  0  0  0  0  0  0
   18.3572   -7.8995  -16.2084 C   0  0  0  0  0  0  0  0  0  0  0  0
   18.5281   -7.7561  -17.4806 O   0  0  0  0  0  0  0  0  0  0  0  0
   21.0171   -7.5919  -13.4879 C   0  0  0  0  0  0  0  0  0  0  0  0
   21.6076   -6.4256  -13.0482 C   0  0  0  0  0  0  0  0  0  0  0  0
   15.8773   -5.3953  -16.4684 C   0  0  0  0  0  0  0  0  0  0  0  0
   17.3622   -5.5960  -16.2638 C   0  0  2  0  0  0  0  0  0  0  0  0
   17.6538   -6.8482  -15.6032 N   0  0  0  0  0  0  0  0  0  0  0  0
   17.9203   -4.4012  -15.6464 C   0  0  0  0  0  0  0  0  0  0  0  0
   18.0374   -4.2965  -14.4138 O   0  0  0  0  0  0  0  0  0  0  0  0
   18.3319   -3.3535  -16.4501 O   0  0  0  0  0  0  0  0  0  0  0  0
  2  1  1  1
  2  3  1  0
  3  4  1  0
  5  6  2  0
  5  2  1  0
  7  8  1  0
  8 18  2  0
  9 10  2  0
  9  8  1  0
 10 11  1  0
 11 12  1  0
 11 17  2  0
 13 14  1  0
 13 12  1  6
 14  5  1  0
 15 13  1  0
 16 15  2  0
 18 17  1  0
 20 19  1  1
 20 21  1  0
 21 15  1  0
 22 24  1  0
 22 20  1  0
 23 22  2  0
M  END
$$$$
