PTC.pdb
     RDKit          3D

 21 21  0  0  1  0  0  0  0  0999 V2000
   24.8710  -12.7413  -19.9158 N   0  0  0  0  0  0  0  0  0  0  0  0
   25.0463  -13.9061  -20.7741 C   0  0  0  0  0  0  0  0  0  0  0  0
   26.1573  -14.6440  -20.0626 C   0  0  0  0  0  0  0  0  0  0  0  0
   25.9653  -14.2756  -18.6028 C   0  0  0  0  0  0  0  0  0  0  0  0
   24.7756  -13.3545  -18.6254 C   0  0  1  0  0  0  0  0  0  0  0  0
   24.8330  -12.3747  -17.5124 C   0  0  0  0  0  0  0  0  0  0  0  0
   24.7819  -12.7861  -16.3330 O   0  0  0  0  0  0  0  0  0  0  0  0
   27.4575  -10.2976  -16.6353 C   0  0  0  0  0  0  0  0  0  0  0  0
   26.3446   -9.2587  -16.8314 C   0  0  1  0  0  0  0  0  0  0  0  0
   26.6024   -8.6040  -18.0118 O   0  0  0  0  0  0  0  0  0  0  0  0
   25.0081   -9.9494  -16.7637 C   0  0  2  0  0  0  0  0  0  0  0  0
   24.9442  -10.9854  -17.7448 N   0  0  0  0  0  0  0  0  0  0  0  0
   23.8594   -9.0148  -16.7642 C   0  0  0  0  0  0  0  0  0  0  0  0
   23.2991   -8.7415  -17.8617 O   0  0  0  0  0  0  0  0  0  0  0  0
   23.3528   -8.4075  -15.6099 N   0  0  0  0  0  0  0  0  0  0  0  0
   22.1842   -7.5562  -15.5729 C   0  0  1  0  0  0  0  0  0  0  0  0
   21.1980   -7.9414  -14.5180 C   0  0  0  0  0  0  0  0  0  0  0  0
   20.7350   -9.6770  -14.7999 S   0  0  0  0  0  0  0  0  0  0  0  0
   22.5880   -6.1207  -15.4546 C   0  0  0  0  0  0  0  0  0  0  0  0
   21.6651   -5.0915  -15.5249 O   0  0  0  0  0  0  0  0  0  0  0  0
   23.7879   -5.8514  -15.2885 O   0  0  0  0  0  0  0  0  0  0  0  0
  1  5  1  0
  2  3  1  0
  2  1  1  0
  3  4  1  0
  4  5  1  0
  5  6  1  1
  6  7  2  0
  9  8  1  6
  9 11  1  0
 10  9  1  0
 11 12  1  6
 11 13  1  0
 12  6  1  0
 13 14  2  0
 13 15  1  0
 15 16  1  0
 16 19  1  0
 16 17  1  1
 18 17  1  0
 19 21  2  0
 19 20  1  0
M  END
$$$$
