PTC.pdb
     RDKit          3D

 21 21  0  0  1  0  0  0  0  0999 V2000
   24.0631  -10.6646  -15.1442 N   0  0  0  0  0  0  0  0  0  0  0  0
   24.7571  -11.8982  -15.4920 C   0  0  0  0  0  0  0  0  0  0  0  0
   23.6001  -12.8381  -15.7424 C   0  0  0  0  0  0  0  0  0  0  0  0
   22.4919  -11.9297  -16.2426 C   0  0  0  0  0  0  0  0  0  0  0  0
   23.1183  -10.5618  -16.2152 C   0  0  1  0  0  0  0  0  0  0  0  0
   22.0984   -9.5078  -15.9893 C   0  0  0  0  0  0  0  0  0  0  0  0
   21.2924   -9.2315  -16.9042 O   0  0  0  0  0  0  0  0  0  0  0  0
   19.4395   -9.3937  -13.6519 C   0  0  0  0  0  0  0  0  0  0  0  0
   20.2425   -8.1395  -13.2796 C   0  0  1  0  0  0  0  0  0  0  0  0
   20.9235   -8.4217  -12.1198 O   0  0  0  0  0  0  0  0  0  0  0  0
   21.1075   -7.7436  -14.4470 C   0  0  2  0  0  0  0  0  0  0  0  0
   22.0093   -8.8037  -14.7675 N   0  0  0  0  0  0  0  0  0  0  0  0
   21.7364   -6.4119  -14.2914 C   0  0  0  0  0  0  0  0  0  0  0  0
   22.9035   -6.3431  -13.8156 O   0  0  0  0  0  0  0  0  0  0  0  0
   21.1082   -5.2116  -14.6414 N   0  0  0  0  0  0  0  0  0  0  0  0
   21.6691   -3.8959  -14.4264 C   0  0  1  0  0  0  0  0  0  0  0  0
   22.3324   -3.3244  -15.6376 C   0  0  0  0  0  0  0  0  0  0  0  0
   22.9195   -1.6568  -15.2126 S   0  0  0  0  0  0  0  0  0  0  0  0
   20.6312   -2.9701  -13.8757 C   0  0  0  0  0  0  0  0  0  0  0  0
   19.2813   -3.2736  -13.9186 O   0  0  0  0  0  0  0  0  0  0  0  0
   20.9980   -1.8995  -13.3664 O   0  0  0  0  0  0  0  0  0  0  0  0
  1  5  1  0
  2  3  1  0
  2  1  1  0
  3  4  1  0
  4  5  1  0
  5  6  1  1
  6  7  2  0
  9  8  1  6
  9 11  1  0
 10  9  1  0
 11 12  1  1
 11 13  1  0
 12  6  1  0
 13 14  2  0
 13 15  1  0
 15 16  1  0
 16 19  1  0
 16 17  1  6
 18 17  1  0
 19 21  2  0
 19 20  1  0
M  END
$$$$
