PTC.pdb
     RDKit          3D

 21 21  0  0  1  0  0  0  0  0999 V2000
   26.3926  -22.0639  -18.1772 N   0  0  0  0  0  0  0  0  0  0  0  0
   26.4852  -22.4705  -19.5737 C   0  0  0  0  0  0  0  0  0  0  0  0
   27.8478  -21.9392  -19.9557 C   0  0  0  0  0  0  0  0  0  0  0  0
   28.6369  -21.9895  -18.6602 C   0  0  0  0  0  0  0  0  0  0  0  0
   27.6460  -22.5296  -17.6648 C   0  0  1  0  0  0  0  0  0  0  0  0
   27.9335  -22.0329  -16.2963 C   0  0  0  0  0  0  0  0  0  0  0  0
   29.0135  -22.3427  -15.7483 O   0  0  0  0  0  0  0  0  0  0  0  0
   28.4576  -18.7709  -15.2106 C   0  0  0  0  0  0  0  0  0  0  0  0
   27.2577  -19.1764  -14.3433 C   0  0  1  0  0  0  0  0  0  0  0  0
   26.1480  -18.5606  -14.8703 O   0  0  0  0  0  0  0  0  0  0  0  0
   27.1826  -20.6790  -14.2774 C   0  0  2  0  0  0  0  0  0  0  0  0
   27.0209  -21.2174  -15.5903 N   0  0  0  0  0  0  0  0  0  0  0  0
   26.2168  -21.1787  -13.2722 C   0  0  0  0  0  0  0  0  0  0  0  0
   25.1712  -21.7620  -13.6720 O   0  0  0  0  0  0  0  0  0  0  0  0
   26.3931  -21.0404  -11.8911 N   0  0  0  0  0  0  0  0  0  0  0  0
   25.3426  -21.1899  -10.9081 C   0  0  1  0  0  0  0  0  0  0  0  0
   25.7573  -20.7981   -9.5268 C   0  0  0  0  0  0  0  0  0  0  0  0
   24.3536  -21.1167   -8.4158 S   0  0  0  0  0  0  0  0  0  0  0  0
   24.1123  -20.4593  -11.3443 C   0  0  0  0  0  0  0  0  0  0  0  0
   22.8491  -21.0115  -11.2199 O   0  0  0  0  0  0  0  0  0  0  0  0
   24.2348  -19.3245  -11.8313 O   0  0  0  0  0  0  0  0  0  0  0  0
  1  5  1  0
  2  3  1  0
  2  1  1  0
  3  4  1  0
  4  5  1  0
  5  6  1  1
  6  7  2  0
  9  8  1  6
  9 11  1  0
 10  9  1  0
 11 12  1  6
 11 13  1  0
 12  6  1  0
 13 14  2  0
 13 15  1  0
 15 16  1  0
 16 19  1  0
 16 17  1  1
 18 17  1  0
 19 21  2  0
 19 20  1  0
M  END
$$$$
