PTC.pdb
     RDKit          3D

 21 21  0  0  1  0  0  0  0  0999 V2000
   24.4020  -22.4373  -15.1004 N   0  0  0  0  0  0  0  0  0  0  0  0
   25.7088  -22.4482  -15.7456 C   0  0  0  0  0  0  0  0  0  0  0  0
   26.0523  -20.9762  -15.7623 C   0  0  0  0  0  0  0  0  0  0  0  0
   25.3492  -20.4222  -14.5365 C   0  0  0  0  0  0  0  0  0  0  0  0
   24.6631  -21.6261  -13.9497 C   0  0  1  0  0  0  0  0  0  0  0  0
   23.4296  -21.2398  -13.2207 C   0  0  0  0  0  0  0  0  0  0  0  0
   23.5167  -20.4773  -12.2339 O   0  0  0  0  0  0  0  0  0  0  0  0
   20.5261  -19.4954  -14.4124 C   0  0  0  0  0  0  0  0  0  0  0  0
   19.9407  -20.8249  -13.9163 C   0  0  1  0  0  0  0  0  0  0  0  0
   19.6431  -21.5780  -15.0266 O   0  0  0  0  0  0  0  0  0  0  0  0
   20.9091  -21.4615  -12.9546 C   0  0  2  0  0  0  0  0  0  0  0  0
   22.1545  -21.7088  -13.6086 N   0  0  0  0  0  0  0  0  0  0  0  0
   20.3431  -22.6201  -12.2266 C   0  0  0  0  0  0  0  0  0  0  0  0
   20.5530  -23.7811  -12.6754 O   0  0  0  0  0  0  0  0  0  0  0  0
   19.5794  -22.5055  -11.0598 N   0  0  0  0  0  0  0  0  0  0  0  0
   18.9651  -23.6159  -10.3657 C   0  0  1  0  0  0  0  0  0  0  0  0
   18.8962  -23.4295   -8.8844 C   0  0  0  0  0  0  0  0  0  0  0  0
   18.2106  -24.9526   -8.1659 S   0  0  0  0  0  0  0  0  0  0  0  0
   17.6204  -23.9156  -10.9484 C   0  0  0  0  0  0  0  0  0  0  0  0
   17.1929  -25.2123  -11.1762 O   0  0  0  0  0  0  0  0  0  0  0  0
   16.8706  -22.9690  -11.2339 O   0  0  0  0  0  0  0  0  0  0  0  0
  1  5  1  0
  2  3  1  0
  2  1  1  0
  3  4  1  0
  4  5  1  0
  5  6  1  6
  6  7  2  0
  9  8  1  6
  9 11  1  0
 10  9  1  0
 11 12  1  6
 11 13  1  0
 12  6  1  0
 13 14  2  0
 13 15  1  0
 15 16  1  0
 16 19  1  0
 16 17  1  1
 18 17  1  0
 19 21  2  0
 19 20  1  0
M  END
$$$$
