PTC.pdb
     RDKit          3D

 21 21  0  0  1  0  0  0  0  0999 V2000
   20.4682  -13.2379  -17.1106 N   0  0  0  0  0  0  0  0  0  0  0  0
   20.3934  -14.1812  -18.2191 C   0  0  0  0  0  0  0  0  0  0  0  0
   19.0401  -13.8532  -18.8072 C   0  0  0  0  0  0  0  0  0  0  0  0
   18.8563  -12.3777  -18.5026 C   0  0  0  0  0  0  0  0  0  0  0  0
   20.1129  -12.0121  -17.7599 C   0  0  1  0  0  0  0  0  0  0  0  0
   19.8702  -10.9006  -16.8071 C   0  0  0  0  0  0  0  0  0  0  0  0
   18.8390  -10.9158  -16.1005 O   0  0  0  0  0  0  0  0  0  0  0  0
   21.4832  -10.0889  -13.9336 C   0  0  0  0  0  0  0  0  0  0  0  0
   21.6743   -8.7760  -14.7057 C   0  0  1  0  0  0  0  0  0  0  0  0
   22.9812   -8.7391  -15.1288 O   0  0  0  0  0  0  0  0  0  0  0  0
   20.6460   -8.6954  -15.8029 C   0  0  2  0  0  0  0  0  0  0  0  0
   20.7718   -9.8210  -16.6730 N   0  0  0  0  0  0  0  0  0  0  0  0
   20.6086   -7.3800  -16.4820 C   0  0  0  0  0  0  0  0  0  0  0  0
   20.7099   -7.3425  -17.7397 O   0  0  0  0  0  0  0  0  0  0  0  0
   20.4685   -6.1622  -15.8073 N   0  0  0  0  0  0  0  0  0  0  0  0
   20.3170   -4.8765  -16.4523 C   0  0  1  0  0  0  0  0  0  0  0  0
   19.2236   -4.8446  -17.4708 C   0  0  0  0  0  0  0  0  0  0  0  0
   19.0825   -3.1367  -18.0786 S   0  0  0  0  0  0  0  0  0  0  0  0
   20.1525   -3.7965  -15.4305 C   0  0  0  0  0  0  0  0  0  0  0  0
   20.7566   -2.5586  -15.5687 O   0  0  0  0  0  0  0  0  0  0  0  0
   19.4523   -4.0234  -14.4315 O   0  0  0  0  0  0  0  0  0  0  0  0
  1  5  1  0
  2  3  1  0
  2  1  1  0
  3  4  1  0
  4  5  1  0
  5  6  1  1
  6  7  2  0
  9  8  1  6
  9 11  1  0
 10  9  1  0
 11 12  1  6
 11 13  1  0
 12  6  1  0
 13 14  2  0
 13 15  1  0
 15 16  1  0
 16 19  1  0
 16 17  1  6
 18 17  1  0
 19 21  2  0
 19 20  1  0
M  END
$$$$
