IRN.pdb
     RDKit          3D

 28 27  0  0  1  0  0  0  0  0999 V2000
    7.0189  -11.8557   27.5951 C   0  0  0  0  0  0  0  0  0  0  0  0
    6.2745  -12.8945   26.8273 C   0  0  0  0  0  0  0  0  0  0  0  0
    7.2164  -13.6220   25.8987 C   0  0  2  0  0  0  0  0  0  0  0  0
    7.8157  -12.6556   24.9033 C   0  0  0  0  0  0  0  0  0  0  0  0
    6.5301  -14.7732   25.1942 C   0  0  2  0  0  0  0  0  0  0  0  0
    5.8722  -15.6674   26.0955 N   0  0  0  0  0  0  0  0  0  0  0  0
    7.5195  -15.5213   24.3354 C   0  0  0  0  0  0  0  0  0  0  0  0
    8.0013  -16.6064   24.7443 O   0  0  0  0  0  0  0  0  0  0  0  0
    7.2978  -13.0450   16.2703 N   0  0  0  0  0  0  0  0  0  0  0  0
    8.1120  -14.1274   16.6560 C   0  0  0  0  0  0  0  0  0  0  0  0
    8.6321  -14.9458   15.8026 N   0  0  0  0  0  0  0  0  0  0  0  0
    8.3733  -14.3277   18.0566 N   0  0  0  0  0  0  0  0  0  0  0  0
    7.7494  -13.5044   19.0780 C   0  0  0  0  0  0  0  0  0  0  0  0
    8.2737  -13.9077   20.4455 C   0  0  0  0  0  0  0  0  0  0  0  0
    8.0402  -15.3686   20.6871 C   0  0  0  0  0  0  0  0  0  0  0  0
    8.5164  -15.8553   22.0138 C   0  0  2  0  0  0  0  0  0  0  0  0
    7.9061  -15.0113   23.0792 N   0  0  0  0  0  0  0  0  0  0  0  0
    9.9614  -15.8392   22.2434 C   0  0  0  0  0  0  0  0  0  0  0  0
   10.7140  -16.3862   21.3553 O   0  0  0  0  0  0  0  0  0  0  0  0
    9.2042  -15.7407   16.1439 N   0  0  0  0  0  0  0  0  0  0  0  0
   12.0996  -18.1911   26.5877 C   0  0  0  0  0  0  0  0  0  0  0  0
   12.0208  -18.2088   25.1680 O   0  0  0  0  0  0  0  0  0  0  0  0
   12.8071  -18.8914   24.4626 C   0  0  0  0  0  0  0  0  0  0  0  0
   10.9944  -17.4126   24.4482 C   0  0  1  0  0  0  0  0  0  0  0  0
   11.6028  -16.0648   24.1095 N   0  0  0  0  0  0  0  0  0  0  0  0
   10.6551  -15.2879   23.3317 C   0  0  0  0  0  0  0  0  0  0  0  0
   12.8375  -16.2381   23.3290 O   0  0  0  0  0  0  0  0  0  0  0  0
   12.8197  -16.6079   21.9877 O   0  0  0  0  0  0  0  0  0  0  0  0
  2  1  1  0
  2  3  1  0
  3  4  1  6
  5  6  1  1
  5  3  1  0
  7  8  2  0
  7  5  1  0
 10  9  1  0
 11 10  2  0
 12 10  1  0
 13 12  1  0
 13 14  1  0
 14 15  1  0
 16 15  1  6
 16 17  1  0
 17  7  1  0
 18 16  1  0
 18 19  2  0
 20 21  1  0
 21 22  2  0
 21 23  1  0
 24 25  1  0
 24 23  1  1
 25 18  1  0
 26 24  1  0
 27 26  1  0
 28 26  2  0
M  END
$$$$
