IRN.pdb
     RDKit          3D

 28 27  0  0  1  0  0  0  0  0999 V2000
   10.1978  -13.4686   27.6723 C   0  0  0  0  0  0  0  0  0  0  0  0
    9.1619  -14.4725   27.2955 C   0  0  0  0  0  0  0  0  0  0  0  0
    8.0971  -13.8201   26.4473 C   0  0  2  0  0  0  0  0  0  0  0  0
    7.5101  -12.6311   27.1724 C   0  0  0  0  0  0  0  0  0  0  0  0
    7.0164  -14.8037   26.0509 C   0  0  2  0  0  0  0  0  0  0  0  0
    6.5490  -15.5925   27.1483 N   0  0  0  0  0  0  0  0  0  0  0  0
    7.5056  -15.6907   24.9329 C   0  0  0  0  0  0  0  0  0  0  0  0
    7.3273  -16.9317   25.0011 O   0  0  0  0  0  0  0  0  0  0  0  0
    9.0107  -14.1424   17.5810 N   0  0  0  0  0  0  0  0  0  0  0  0
    8.1911  -13.2618   18.3131 C   0  0  0  0  0  0  0  0  0  0  0  0
    8.5422  -12.0491   18.5864 N   0  0  0  0  0  0  0  0  0  0  0  0
    6.9125  -13.7340   18.7741 N   0  0  0  0  0  0  0  0  0  0  0  0
    6.7975  -14.7745   19.7813 C   0  0  0  0  0  0  0  0  0  0  0  0
    7.3618  -14.2707   21.0986 C   0  0  0  0  0  0  0  0  0  0  0  0
    8.6263  -14.9996   21.4408 C   0  0  0  0  0  0  0  0  0  0  0  0
    8.5044  -15.9293   22.6002 C   0  0  2  0  0  0  0  0  0  0  0  0
    8.1603  -15.1365   23.8139 N   0  0  0  0  0  0  0  0  0  0  0  0
    9.6871  -16.7214   22.9390 C   0  0  0  0  0  0  0  0  0  0  0  0
   10.0560  -17.6305   22.1074 O   0  0  0  0  0  0  0  0  0  0  0  0
    7.8879  -11.4354   19.1068 N   0  0  0  0  0  0  0  0  0  0  0  0
   14.9008  -14.6653   23.7405 C   0  0  0  0  0  0  0  0  0  0  0  0
   14.0104  -15.6908   23.3194 O   0  0  0  0  0  0  0  0  0  0  0  0
   14.4216  -16.7915   22.8708 C   0  0  0  0  0  0  0  0  0  0  0  0
   12.5388  -15.5044   23.3919 C   0  0  2  0  0  0  0  0  0  0  0  0
   11.9405  -16.7537   24.0106 N   0  0  0  0  0  0  0  0  0  0  0  0
   10.4973  -16.6158   24.0801 C   0  0  0  0  0  0  0  0  0  0  0  0
   12.4694  -16.9610   25.3674 O   0  0  0  0  0  0  0  0  0  0  0  0
   13.7739  -17.3878   25.5963 O   0  0  0  0  0  0  0  0  0  0  0  0
  2  1  1  0
  2  3  1  0
  3  4  1  1
  5  6  1  1
  5  3  1  0
  7  8  2  0
  7  5  1  0
 10  9  1  0
 11 10  2  0
 12 10  1  0
 13 12  1  0
 13 14  1  0
 14 15  1  0
 16 15  1  6
 16 17  1  0
 17  7  1  0
 18 16  1  0
 18 19  2  0
 20 21  1  0
 21 22  2  0
 21 23  1  0
 24 25  1  0
 24 23  1  6
 25 18  1  0
 26 24  1  0
 27 26  1  0
 28 26  2  0
M  END
$$$$
