IRN.pdb
     RDKit          3D

 28 27  0  0  1  0  0  0  0  0999 V2000
    8.0810  -12.1114   21.4475 C   0  0  0  0  0  0  0  0  0  0  0  0
    8.8380  -12.4766   20.2160 C   0  0  0  0  0  0  0  0  0  0  0  0
    7.9610  -13.2897   19.2948 C   0  0  2  0  0  0  0  0  0  0  0  0
    7.3658  -14.4607   20.0420 C   0  0  0  0  0  0  0  0  0  0  0  0
    8.7169  -13.7543   18.0678 C   0  0  2  0  0  0  0  0  0  0  0  0
    7.8761  -14.3888   17.1006 N   0  0  0  0  0  0  0  0  0  0  0  0
    9.8461  -14.6708   18.4690 C   0  0  0  0  0  0  0  0  0  0  0  0
    9.6577  -15.9118   18.5004 O   0  0  0  0  0  0  0  0  0  0  0  0
   17.3311  -13.9986   14.8590 N   0  0  0  0  0  0  0  0  0  0  0  0
   16.4512  -15.0981   14.8622 C   0  0  0  0  0  0  0  0  0  0  0  0
   16.3235  -15.8902   13.8498 N   0  0  0  0  0  0  0  0  0  0  0  0
   15.6644  -15.3470   16.0408 N   0  0  0  0  0  0  0  0  0  0  0  0
   15.7250  -14.4749   17.2010 C   0  0  0  0  0  0  0  0  0  0  0  0
   14.7625  -14.9764   18.2639 C   0  0  0  0  0  0  0  0  0  0  0  0
   13.4016  -14.3810   18.0626 C   0  0  0  0  0  0  0  0  0  0  0  0
   12.3360  -14.9830   18.9145 C   0  0  2  0  0  0  0  0  0  0  0  0
   11.1091  -14.1442   18.8084 N   0  0  0  0  0  0  0  0  0  0  0  0
   12.6288  -15.1177   20.3417 C   0  0  0  0  0  0  0  0  0  0  0  0
   12.7879  -14.0388   21.0238 O   0  0  0  0  0  0  0  0  0  0  0  0
   15.6981  -16.7142   13.9246 N   0  0  0  0  0  0  0  0  0  0  0  0
   13.0046  -16.0378   25.1589 C   0  0  0  0  0  0  0  0  0  0  0  0
   12.6310  -17.3001   24.6212 O   0  0  0  0  0  0  0  0  0  0  0  0
   12.2424  -18.2491   25.3494 C   0  0  0  0  0  0  0  0  0  0  0  0
   12.6839  -17.5555   23.1592 C   0  0  2  0  0  0  0  0  0  0  0  0
   13.1632  -16.2859   22.4811 N   0  0  0  0  0  0  0  0  0  0  0  0
   12.7589  -16.2996   21.0871 C   0  0  0  0  0  0  0  0  0  0  0  0
   14.6287  -16.1834   22.5556 O   0  0  0  0  0  0  0  0  0  0  0  0
   15.4659  -17.1956   22.0964 O   0  0  0  0  0  0  0  0  0  0  0  0
  2  1  1  0
  2  3  1  0
  3  4  1  1
  5  6  1  6
  5  3  1  0
  7  8  2  0
  7  5  1  0
 10  9  1  0
 11 10  2  0
 12 10  1  0
 13 12  1  0
 13 14  1  0
 14 15  1  0
 16 15  1  6
 16 17  1  0
 17  7  1  0
 18 16  1  0
 18 19  2  0
 20 21  1  0
 21 22  2  0
 21 23  1  0
 24 25  1  0
 24 23  1  1
 25 18  1  0
 26 24  1  0
 27 26  1  0
 28 26  2  0
M  END
$$$$
