IRN.pdb
     RDKit          3D

 28 27  0  0  1  0  0  0  0  0999 V2000
    6.9954  -12.5195   28.3585 C   0  0  0  0  0  0  0  0  0  0  0  0
    6.3019  -13.6081   27.6122 C   0  0  0  0  0  0  0  0  0  0  0  0
    7.0918  -13.9701   26.3778 C   0  0  2  0  0  0  0  0  0  0  0  0
    7.2802  -12.7513   25.5044 C   0  0  0  0  0  0  0  0  0  0  0  0
    6.4387  -15.0972   25.6059 C   0  0  2  0  0  0  0  0  0  0  0  0
    6.2251  -16.2675   26.3994 N   0  0  0  0  0  0  0  0  0  0  0  0
    7.2552  -15.4303   24.3818 C   0  0  0  0  0  0  0  0  0  0  0  0
    7.8420  -16.5380   24.3088 O   0  0  0  0  0  0  0  0  0  0  0  0
    7.0214  -15.4007   17.2763 N   0  0  0  0  0  0  0  0  0  0  0  0
    7.9090  -14.5010   16.6551 C   0  0  0  0  0  0  0  0  0  0  0  0
    8.4107  -14.7151   15.4841 N   0  0  0  0  0  0  0  0  0  0  0  0
    8.2699  -13.2964   17.3542 N   0  0  0  0  0  0  0  0  0  0  0  0
    7.7560  -12.9962   18.6794 C   0  0  0  0  0  0  0  0  0  0  0  0
    8.2834  -14.0180   19.6721 C   0  0  0  0  0  0  0  0  0  0  0  0
    7.6428  -13.8255   21.0136 C   0  0  0  0  0  0  0  0  0  0  0  0
    8.0623  -14.8200   22.0426 C   0  0  2  0  0  0  0  0  0  0  0  0
    7.3637  -14.5078   23.3211 N   0  0  0  0  0  0  0  0  0  0  0  0
    9.4908  -14.8879   22.3519 C   0  0  0  0  0  0  0  0  0  0  0  0
    9.8555  -14.6165   23.5550 O   0  0  0  0  0  0  0  0  0  0  0  0
    9.0630  -14.0200   15.0756 N   0  0  0  0  0  0  0  0  0  0  0  0
   10.6304  -17.4267   25.0751 C   0  0  0  0  0  0  0  0  0  0  0  0
   11.5953  -17.0564   24.0984 O   0  0  0  0  0  0  0  0  0  0  0  0
   12.7199  -16.5889   24.4124 C   0  0  0  0  0  0  0  0  0  0  0  0
   11.3135  -17.2074   22.6481 C   0  0  2  0  0  0  0  0  0  0  0  0
   11.7272  -15.9221   21.9565 N   0  0  0  0  0  0  0  0  0  0  0  0
   10.5448  -15.2227   21.4879 C   0  0  0  0  0  0  0  0  0  0  0  0
   12.6005  -16.2122   20.8090 O   0  0  0  0  0  0  0  0  0  0  0  0
   13.9749  -15.9989   20.8521 O   0  0  0  0  0  0  0  0  0  0  0  0
  2  1  1  0
  2  3  1  0
  3  4  1  6
  5  6  1  1
  5  3  1  0
  7  8  2  0
  7  5  1  0
 10  9  1  0
 11 10  2  0
 12 10  1  0
 13 12  1  0
 13 14  1  0
 14 15  1  0
 16 15  1  6
 16 17  1  0
 17  7  1  0
 18 16  1  0
 18 19  2  0
 20 21  1  0
 21 22  2  0
 21 23  1  0
 24 25  1  0
 24 23  1  1
 25 18  1  0
 26 24  1  0
 27 26  1  0
 28 26  2  0
M  END
$$$$
