IRN.pdb
     RDKit          3D

 28 27  0  0  1  0  0  0  0  0999 V2000
    6.7677  -11.1245   27.5334 C   0  0  0  0  0  0  0  0  0  0  0  0
    5.9558  -12.1966   26.8897 C   0  0  0  0  0  0  0  0  0  0  0  0
    6.8611  -13.1625   26.1643 C   0  0  2  0  0  0  0  0  0  0  0  0
    7.6984  -12.4255   25.1447 C   0  0  0  0  0  0  0  0  0  0  0  0
    6.0781  -14.2850   25.5166 C   0  0  2  0  0  0  0  0  0  0  0  0
    5.2525  -14.9968   26.4422 N   0  0  0  0  0  0  0  0  0  0  0  0
    7.0154  -15.2312   24.8080 C   0  0  0  0  0  0  0  0  0  0  0  0
    7.4947  -16.2118   25.4288 O   0  0  0  0  0  0  0  0  0  0  0  0
   11.1357  -17.1845   18.3805 N   0  0  0  0  0  0  0  0  0  0  0  0
   10.0867  -17.8991   17.7705 C   0  0  0  0  0  0  0  0  0  0  0  0
   10.2941  -18.8868   16.9643 N   0  0  0  0  0  0  0  0  0  0  0  0
    8.7312  -17.5117   18.0580 N   0  0  0  0  0  0  0  0  0  0  0  0
    8.4225  -16.3416   18.8617 C   0  0  0  0  0  0  0  0  0  0  0  0
    8.7650  -16.6194   20.3153 C   0  0  0  0  0  0  0  0  0  0  0  0
    7.9435  -15.7540   21.2227 C   0  0  0  0  0  0  0  0  0  0  0  0
    8.1987  -15.9716   22.6757 C   0  0  2  0  0  0  0  0  0  0  0  0
    7.3561  -15.0224   23.4560 N   0  0  0  0  0  0  0  0  0  0  0  0
    9.5744  -15.7886   23.1393 C   0  0  0  0  0  0  0  0  0  0  0  0
    9.8348  -14.7419   23.8399 O   0  0  0  0  0  0  0  0  0  0  0  0
    9.4864  -19.4334   16.6114 N   0  0  0  0  0  0  0  0  0  0  0  0
   12.5970  -17.2497   26.8535 C   0  0  0  0  0  0  0  0  0  0  0  0
   11.8156  -18.1650   26.0962 O   0  0  0  0  0  0  0  0  0  0  0  0
   11.9210  -19.4104   26.2363 C   0  0  0  0  0  0  0  0  0  0  0  0
   10.8294  -17.6844   25.0952 C   0  0  1  0  0  0  0  0  0  0  0  0
   11.5934  -16.9862   23.9861 N   0  0  0  0  0  0  0  0  0  0  0  0
   10.6772  -16.6280   22.9187 C   0  0  0  0  0  0  0  0  0  0  0  0
   12.6392  -17.8684   23.4460 O   0  0  0  0  0  0  0  0  0  0  0  0
   13.8983  -17.9676   24.0300 O   0  0  0  0  0  0  0  0  0  0  0  0
  2  1  1  0
  2  3  1  0
  3  4  1  6
  5  6  1  1
  5  3  1  0
  7  8  2  0
  7  5  1  0
 10  9  1  0
 11 10  2  0
 12 10  1  0
 13 12  1  0
 13 14  1  0
 14 15  1  0
 16 15  1  6
 16 17  1  0
 17  7  1  0
 18 16  1  0
 18 19  2  0
 20 21  1  0
 21 22  2  0
 21 23  1  0
 24 25  1  0
 24 23  1  1
 25 18  1  0
 26 24  1  0
 27 26  1  0
 28 26  2  0
M  END
$$$$
