IRN.pdb
     RDKit          3D

 28 27  0  0  1  0  0  0  0  0999 V2000
    5.9928  -11.0356   26.2087 C   0  0  0  0  0  0  0  0  0  0  0  0
    7.2215  -11.8789   26.2534 C   0  0  0  0  0  0  0  0  0  0  0  0
    6.9329  -13.2405   25.6688 C   0  0  2  0  0  0  0  0  0  0  0  0
    5.7535  -13.8701   26.3735 C   0  0  0  0  0  0  0  0  0  0  0  0
    8.1469  -14.1434   25.7266 C   0  0  2  0  0  0  0  0  0  0  0  0
    9.3190  -13.5397   25.1728 N   0  0  0  0  0  0  0  0  0  0  0  0
    7.8529  -15.4543   25.0403 C   0  0  0  0  0  0  0  0  0  0  0  0
    6.9211  -16.1818   25.4634 O   0  0  0  0  0  0  0  0  0  0  0  0
    6.6334  -13.1095   20.2350 N   0  0  0  0  0  0  0  0  0  0  0  0
    7.8640  -13.1201   19.5504 C   0  0  0  0  0  0  0  0  0  0  0  0
    8.4673  -12.0374   19.1866 N   0  0  0  0  0  0  0  0  0  0  0  0
    8.4712  -14.3882   19.2451 N   0  0  0  0  0  0  0  0  0  0  0  0
    7.9905  -15.6286   19.8289 C   0  0  0  0  0  0  0  0  0  0  0  0
    8.3949  -15.6914   21.2918 C   0  0  0  0  0  0  0  0  0  0  0  0
    8.0264  -17.0195   21.8815 C   0  0  0  0  0  0  0  0  0  0  0  0
    8.4655  -17.2069   23.2942 C   0  0  2  0  0  0  0  0  0  0  0  0
    8.6161  -15.8675   23.9292 N   0  0  0  0  0  0  0  0  0  0  0  0
    9.7288  -17.9145   23.5050 C   0  0  0  0  0  0  0  0  0  0  0  0
    9.7725  -19.1634   23.2006 O   0  0  0  0  0  0  0  0  0  0  0  0
    9.3468  -12.1042   18.6410 N   0  0  0  0  0  0  0  0  0  0  0  0
   12.3568  -17.3869   21.7981 C   0  0  0  0  0  0  0  0  0  0  0  0
   13.3942  -17.0417   22.7071 O   0  0  0  0  0  0  0  0  0  0  0  0
   14.3844  -16.3481   22.3604 C   0  0  0  0  0  0  0  0  0  0  0  0
   13.3530  -17.4906   24.1222 C   0  0  2  0  0  0  0  0  0  0  0  0
   12.0587  -18.2536   24.3318 N   0  0  0  0  0  0  0  0  0  0  0  0
   10.9336  -17.3969   24.0051 C   0  0  0  0  0  0  0  0  0  0  0  0
   11.9392  -18.6915   25.7310 O   0  0  0  0  0  0  0  0  0  0  0  0
   10.9396  -18.2141   26.5732 O   0  0  0  0  0  0  0  0  0  0  0  0
  2  1  1  0
  2  3  1  0
  3  4  1  1
  5  6  1  6
  5  3  1  0
  7  8  2  0
  7  5  1  0
 10  9  1  0
 11 10  2  0
 12 10  1  0
 13 12  1  0
 13 14  1  0
 14 15  1  0
 16 15  1  6
 16 17  1  0
 17  7  1  0
 18 16  1  0
 18 19  2  0
 20 21  1  0
 21 22  2  0
 21 23  1  0
 24 25  1  0
 24 23  1  6
 25 18  1  0
 26 24  1  0
 27 26  1  0
 28 26  2  0
M  END
$$$$
