IRN.pdb
     RDKit          3D

 28 27  0  0  1  0  0  0  0  0999 V2000
    6.8338  -11.9439   28.0326 C   0  0  0  0  0  0  0  0  0  0  0  0
    6.1325  -13.1115   27.4261 C   0  0  0  0  0  0  0  0  0  0  0  0
    6.9698  -13.6936   26.3130 C   0  0  2  0  0  0  0  0  0  0  0  0
    7.2844  -12.6293   25.2873 C   0  0  0  0  0  0  0  0  0  0  0  0
    6.2949  -14.8867   25.6700 C   0  0  2  0  0  0  0  0  0  0  0  0
    6.0940  -15.9721   26.5791 N   0  0  0  0  0  0  0  0  0  0  0  0
    7.0824  -15.3435   24.4670 C   0  0  0  0  0  0  0  0  0  0  0  0
    7.6089  -16.4834   24.4654 O   0  0  0  0  0  0  0  0  0  0  0  0
    7.5412  -15.6933   17.1875 N   0  0  0  0  0  0  0  0  0  0  0  0
    8.3547  -14.6709   16.6620 C   0  0  0  0  0  0  0  0  0  0  0  0
    8.9717  -14.7836   15.5328 N   0  0  0  0  0  0  0  0  0  0  0  0
    8.5031  -13.4537   17.4147 N   0  0  0  0  0  0  0  0  0  0  0  0
    7.7766  -13.2239   18.6514 C   0  0  0  0  0  0  0  0  0  0  0  0
    8.2796  -14.1784   19.7207 C   0  0  0  0  0  0  0  0  0  0  0  0
    7.5176  -13.9853   20.9971 C   0  0  0  0  0  0  0  0  0  0  0  0
    7.8859  -14.9394   22.0823 C   0  0  2  0  0  0  0  0  0  0  0  0
    7.2309  -14.5007   23.3466 N   0  0  0  0  0  0  0  0  0  0  0  0
    9.3115  -15.0850   22.3782 C   0  0  0  0  0  0  0  0  0  0  0  0
    9.8662  -14.1815   23.1064 O   0  0  0  0  0  0  0  0  0  0  0  0
    9.6072  -14.0249   15.2226 N   0  0  0  0  0  0  0  0  0  0  0  0
   13.8638  -18.7109   23.1223 C   0  0  0  0  0  0  0  0  0  0  0  0
   12.9865  -17.7711   23.7298 O   0  0  0  0  0  0  0  0  0  0  0  0
   13.3453  -17.0462   24.6929 C   0  0  0  0  0  0  0  0  0  0  0  0
   11.5919  -17.6028   23.2476 C   0  0  2  0  0  0  0  0  0  0  0  0
   11.5036  -16.2673   22.5333 N   0  0  0  0  0  0  0  0  0  0  0  0
   10.1773  -16.1093   21.9651 C   0  0  0  0  0  0  0  0  0  0  0  0
   12.5008  -16.1927   21.4546 O   0  0  0  0  0  0  0  0  0  0  0  0
   12.2111  -16.5822   20.1505 O   0  0  0  0  0  0  0  0  0  0  0  0
  2  1  1  0
  2  3  1  0
  3  4  1  6
  5  6  1  1
  5  3  1  0
  7  8  2  0
  7  5  1  0
 10  9  1  0
 11 10  2  0
 12 10  1  0
 13 12  1  0
 13 14  1  0
 14 15  1  0
 16 15  1  6
 16 17  1  0
 17  7  1  0
 18 16  1  0
 18 19  2  0
 20 21  1  0
 21 22  2  0
 21 23  1  0
 24 25  1  0
 24 23  1  1
 25 18  1  0
 26 24  1  0
 27 26  1  0
 28 26  2  0
M  END
$$$$
