IRN.pdb
     RDKit          3D

 28 27  0  0  1  0  0  0  0  0999 V2000
    6.9890  -11.1478   27.4697 C   0  0  0  0  0  0  0  0  0  0  0  0
    6.2160  -12.2296   26.7952 C   0  0  0  0  0  0  0  0  0  0  0  0
    7.1597  -13.2762   26.2543 C   0  0  2  0  0  0  0  0  0  0  0  0
    8.1255  -12.6500   25.2751 C   0  0  0  0  0  0  0  0  0  0  0  0
    6.4121  -14.4297   25.6193 C   0  0  2  0  0  0  0  0  0  0  0  0
    5.4000  -14.9752   26.4696 N   0  0  0  0  0  0  0  0  0  0  0  0
    7.3805  -15.5051   25.1931 C   0  0  0  0  0  0  0  0  0  0  0  0
    7.7364  -16.3829   26.0173 O   0  0  0  0  0  0  0  0  0  0  0  0
    9.9508  -14.0521   18.3857 N   0  0  0  0  0  0  0  0  0  0  0  0
    8.7247  -13.3942   18.6026 C   0  0  0  0  0  0  0  0  0  0  0  0
    8.4749  -12.2160   18.1356 N   0  0  0  0  0  0  0  0  0  0  0  0
    7.7118  -14.0626   19.3756 N   0  0  0  0  0  0  0  0  0  0  0  0
    7.9421  -15.3641   19.9783 C   0  0  0  0  0  0  0  0  0  0  0  0
    8.6700  -15.1899   21.3002 C   0  0  0  0  0  0  0  0  0  0  0  0
    8.9362  -16.5228   21.9324 C   0  0  0  0  0  0  0  0  0  0  0  0
    8.9145  -16.5104   23.4233 C   0  0  2  0  0  0  0  0  0  0  0  0
    7.8877  -15.5311   23.8778 N   0  0  0  0  0  0  0  0  0  0  0  0
   10.1620  -16.1529   24.0992 C   0  0  0  0  0  0  0  0  0  0  0  0
   10.6992  -15.0223   23.8036 O   0  0  0  0  0  0  0  0  0  0  0  0
    7.5601  -11.7717   18.3393 N   0  0  0  0  0  0  0  0  0  0  0  0
   10.7544  -14.9578   28.0582 C   0  0  0  0  0  0  0  0  0  0  0  0
   10.9347  -16.3346   27.7519 O   0  0  0  0  0  0  0  0  0  0  0  0
   10.0616  -17.1995   28.0192 C   0  0  0  0  0  0  0  0  0  0  0  0
   12.1765  -16.8166   27.0952 C   0  0  2  0  0  0  0  0  0  0  0  0
   12.1130  -16.4228   25.6316 N   0  0  0  0  0  0  0  0  0  0  0  0
   10.8680  -16.8980   25.0562 C   0  0  0  0  0  0  0  0  0  0  0  0
   13.2399  -17.0096   24.8904 O   0  0  0  0  0  0  0  0  0  0  0  0
   13.0511  -17.9187   23.8539 O   0  0  0  0  0  0  0  0  0  0  0  0
  2  1  1  0
  2  3  1  0
  3  4  1  6
  5  6  1  1
  5  3  1  0
  7  8  2  0
  7  5  1  0
 10  9  1  0
 11 10  2  0
 12 10  1  0
 13 12  1  0
 13 14  1  0
 14 15  1  0
 16 15  1  6
 16 17  1  0
 17  7  1  0
 18 16  1  0
 18 19  2  0
 20 21  1  0
 21 22  2  0
 21 23  1  0
 24 25  1  0
 24 23  1  1
 25 18  1  0
 26 24  1  0
 27 26  1  0
 28 26  2  0
M  END
$$$$
