IRN.pdb
     RDKit          3D

 28 27  0  0  1  0  0  0  0  0999 V2000
   10.8488  -14.1033   29.8753 C   0  0  0  0  0  0  0  0  0  0  0  0
    9.7824  -15.0474   29.4345 C   0  0  0  0  0  0  0  0  0  0  0  0
    9.9049  -15.3069   27.9524 C   0  0  2  0  0  0  0  0  0  0  0  0
   10.0181  -13.9997   27.2027 C   0  0  0  0  0  0  0  0  0  0  0  0
    8.7491  -16.1348   27.4316 C   0  0  2  0  0  0  0  0  0  0  0  0
    8.4885  -17.2937   28.2278 N   0  0  0  0  0  0  0  0  0  0  0  0
    8.9948  -16.5247   25.9950 C   0  0  0  0  0  0  0  0  0  0  0  0
    9.6844  -17.5418   25.7365 O   0  0  0  0  0  0  0  0  0  0  0  0
    7.4932  -12.2701   19.8345 N   0  0  0  0  0  0  0  0  0  0  0  0
    7.7353  -13.2782   18.8814 C   0  0  0  0  0  0  0  0  0  0  0  0
    8.4212  -13.0699   17.8068 N   0  0  0  0  0  0  0  0  0  0  0  0
    7.1960  -14.5914   19.1160 N   0  0  0  0  0  0  0  0  0  0  0  0
    6.7256  -15.0037   20.4271 C   0  0  0  0  0  0  0  0  0  0  0  0
    7.8672  -15.6442   21.1978 C   0  0  0  0  0  0  0  0  0  0  0  0
    7.7310  -15.3666   22.6646 C   0  0  0  0  0  0  0  0  0  0  0  0
    8.7832  -16.0010   23.5098 C   0  0  2  0  0  0  0  0  0  0  0  0
    8.4564  -15.7563   24.9427 N   0  0  0  0  0  0  0  0  0  0  0  0
   10.1576  -15.5410   23.3094 C   0  0  0  0  0  0  0  0  0  0  0  0
   10.7372  -14.9440   24.2903 O   0  0  0  0  0  0  0  0  0  0  0  0
    8.5115  -13.8291   17.1061 N   0  0  0  0  0  0  0  0  0  0  0  0
   14.5590  -18.5070   23.5443 C   0  0  0  0  0  0  0  0  0  0  0  0
   14.0823  -17.1692   23.4743 O   0  0  0  0  0  0  0  0  0  0  0  0
   14.8609  -16.1819   23.4464 C   0  0  0  0  0  0  0  0  0  0  0  0
   12.6269  -16.8763   23.4306 C   0  0  2  0  0  0  0  0  0  0  0  0
   12.3679  -15.9773   22.2364 N   0  0  0  0  0  0  0  0  0  0  0  0
   10.9512  -15.6713   22.1593 C   0  0  0  0  0  0  0  0  0  0  0  0
   12.7848  -16.6409   20.9916 O   0  0  0  0  0  0  0  0  0  0  0  0
   13.9545  -16.2928   20.3229 O   0  0  0  0  0  0  0  0  0  0  0  0
  2  1  1  0
  2  3  1  0
  3  4  1  6
  5  6  1  1
  5  3  1  0
  7  8  2  0
  7  5  1  0
 10  9  1  0
 11 10  2  0
 12 10  1  0
 13 12  1  0
 13 14  1  0
 14 15  1  0
 16 15  1  6
 16 17  1  0
 17  7  1  0
 18 16  1  0
 18 19  2  0
 20 21  1  0
 21 22  2  0
 21 23  1  0
 24 25  1  0
 24 23  1  1
 25 18  1  0
 26 24  1  0
 27 26  1  0
 28 26  2  0
M  END
$$$$
