PTW.pdb
     RDKit          3D

 29 31  0  0  1  0  0  0  0  0999 V2000
    9.4258  -14.2101   18.4566 N   0  0  0  0  0  0  0  0  0  0  0  0
    8.5409  -13.8564   17.3881 C   0  0  0  0  0  0  0  0  0  0  0  0
    7.2896  -13.2560   18.0253 C   0  0  0  0  0  0  0  0  0  0  0  0
    7.8504  -12.6805   19.2958 C   0  0  0  0  0  0  0  0  0  0  0  0
    8.9588  -13.6064   19.6640 C   0  0  1  0  0  0  0  0  0  0  0  0
    8.6227  -14.6250   20.6453 C   0  0  0  0  0  0  0  0  0  0  0  0
    7.9090  -14.3067   21.6368 O   0  0  0  0  0  0  0  0  0  0  0  0
    8.3087  -18.7113   20.0079 C   0  0  0  0  0  0  0  0  0  0  0  0
    9.1328  -18.3175   21.2124 C   0  0  1  0  0  0  0  0  0  0  0  0
   10.4943  -18.4305   21.0046 O   0  0  0  0  0  0  0  0  0  0  0  0
    8.8218  -16.9092   21.6715 C   0  0  2  0  0  0  0  0  0  0  0  0
    9.0445  -15.9682   20.5678 N   0  0  0  0  0  0  0  0  0  0  0  0
    9.6100  -16.5258   22.8522 C   0  0  0  0  0  0  0  0  0  0  0  0
   10.7196  -15.9336   22.7258 O   0  0  0  0  0  0  0  0  0  0  0  0
    9.1601  -16.7999   24.1468 N   0  0  0  0  0  0  0  0  0  0  0  0
    9.9844  -16.5681   25.3402 C   0  0  1  0  0  0  0  0  0  0  0  0
    9.7791  -15.1687   25.8653 C   0  0  0  0  0  0  0  0  0  0  0  0
    8.3552  -14.8117   25.9832 C   0  0  0  0  0  0  0  0  0  0  0  0
    7.2243  -15.5770   25.8245 C   0  0  0  0  0  0  0  0  0  0  0  0
    6.1344  -14.8235   26.0290 N   0  0  0  0  0  0  0  0  0  0  0  0
    6.4978  -13.5566   26.3248 C   0  0  0  0  0  0  0  0  0  0  0  0
    5.7689  -12.4217   26.6129 C   0  0  0  0  0  0  0  0  0  0  0  0
    6.4386  -11.2363   26.8825 C   0  0  0  0  0  0  0  0  0  0  0  0
    7.8176  -11.2014   26.8607 C   0  0  0  0  0  0  0  0  0  0  0  0
    8.5111  -12.3568   26.5685 C   0  0  0  0  0  0  0  0  0  0  0  0
    7.8766  -13.5432   26.2979 C   0  0  0  0  0  0  0  0  0  0  0  0
    9.6057  -17.5984   26.3294 C   0  0  0  0  0  0  0  0  0  0  0  0
   10.2921  -17.7168   27.5222 O   0  0  0  0  0  0  0  0  0  0  0  0
    8.6548  -18.4045   26.1355 O   0  0  0  0  0  0  0  0  0  0  0  0
  1  5  1  0
  2  1  1  0
  3  2  1  0
  3  4  1  0
  4  5  1  0
  5  6  1  1
  6  7  2  0
  9  8  1  6
  9 11  1  0
 10  9  1  0
 11 12  1  6
 11 13  1  0
 12  6  1  0
 13 14  2  0
 13 15  1  0
 15 16  1  0
 16 27  1  0
 16 17  1  1
 18 17  1  0
 19 18  2  0
 20 19  1  0
 21 20  1  0
 21 26  2  0
 22 21  1  0
 23 22  2  0
 23 24  1  0
 24 25  2  0
 25 26  1  0
 26 18  1  0
 27 29  2  0
 27 28  1  0
M  END
$$$$
