PTW.pdb
     RDKit          3D

 29 31  0  0  1  0  0  0  0  0999 V2000
    9.0939  -14.3066   18.8396 N   0  0  0  0  0  0  0  0  0  0  0  0
    8.0807  -13.8380   17.9429 C   0  0  0  0  0  0  0  0  0  0  0  0
    7.0003  -13.1773   18.7964 C   0  0  0  0  0  0  0  0  0  0  0  0
    7.8020  -12.7059   19.9774 C   0  0  0  0  0  0  0  0  0  0  0  0
    8.8766  -13.7278   20.1272 C   0  0  1  0  0  0  0  0  0  0  0  0
    8.6207  -14.7640   21.1144 C   0  0  0  0  0  0  0  0  0  0  0  0
    7.5149  -14.7685   21.7232 O   0  0  0  0  0  0  0  0  0  0  0  0
    9.1271  -18.6737   20.8969 C   0  0  0  0  0  0  0  0  0  0  0  0
    9.8112  -18.1098   22.1213 C   0  0  1  0  0  0  0  0  0  0  0  0
   11.1819  -18.0041   21.9824 O   0  0  0  0  0  0  0  0  0  0  0  0
    9.2512  -16.7575   22.5067 C   0  0  2  0  0  0  0  0  0  0  0  0
    9.5363  -15.7835   21.4468 N   0  0  0  0  0  0  0  0  0  0  0  0
    9.7737  -16.2907   23.7996 C   0  0  0  0  0  0  0  0  0  0  0  0
   10.6368  -15.3687   23.8546 O   0  0  0  0  0  0  0  0  0  0  0  0
    9.3343  -16.8464   25.0044 N   0  0  0  0  0  0  0  0  0  0  0  0
    9.9048  -16.4744   26.3058 C   0  0  1  0  0  0  0  0  0  0  0  0
    8.8129  -16.1104   27.2811 C   0  0  0  0  0  0  0  0  0  0  0  0
    7.6879  -15.4119   26.6366 C   0  0  0  0  0  0  0  0  0  0  0  0
    6.6150  -15.9033   25.9314 C   0  0  0  0  0  0  0  0  0  0  0  0
    5.8367  -14.8900   25.5254 N   0  0  0  0  0  0  0  0  0  0  0  0
    6.3565  -13.7140   25.9394 C   0  0  0  0  0  0  0  0  0  0  0  0
    5.9442  -12.4071   25.7836 C   0  0  0  0  0  0  0  0  0  0  0  0
    6.7051  -11.3860   26.3357 C   0  0  0  0  0  0  0  0  0  0  0  0
    7.8592  -11.6825   27.0307 C   0  0  0  0  0  0  0  0  0  0  0  0
    8.2386  -13.0014   27.1650 C   0  0  0  0  0  0  0  0  0  0  0  0
    7.5069  -14.0320   26.6304 C   0  0  0  0  0  0  0  0  0  0  0  0
   10.7066  -17.6266   26.7674 C   0  0  0  0  0  0  0  0  0  0  0  0
   11.5116  -17.5230   27.8850 O   0  0  0  0  0  0  0  0  0  0  0  0
   10.6945  -18.7397   26.1737 O   0  0  0  0  0  0  0  0  0  0  0  0
  1  5  1  0
  2  1  1  0
  3  2  1  0
  3  4  1  0
  4  5  1  0
  5  6  1  1
  6  7  2  0
  9  8  1  6
  9 11  1  0
 10  9  1  0
 11 12  1  6
 11 13  1  0
 12  6  1  0
 13 14  2  0
 13 15  1  0
 15 16  1  0
 16 27  1  0
 16 17  1  1
 18 17  1  0
 19 18  2  0
 20 19  1  0
 21 20  1  0
 21 26  2  0
 22 21  1  0
 23 22  2  0
 23 24  1  0
 24 25  2  0
 25 26  1  0
 26 18  1  0
 27 29  2  0
 27 28  1  0
M  END
$$$$
