PTW.pdb
     RDKit          3D

 29 31  0  0  1  0  0  0  0  0999 V2000
    9.5434  -14.1423   18.5205 N   0  0  0  0  0  0  0  0  0  0  0  0
    8.7759  -13.9299   17.3306 C   0  0  0  0  0  0  0  0  0  0  0  0
    7.3901  -13.4633   17.7710 C   0  0  0  0  0  0  0  0  0  0  0  0
    7.7054  -12.7860   19.0754 C   0  0  0  0  0  0  0  0  0  0  0  0
    8.8524  -13.5614   19.6274 C   0  0  1  0  0  0  0  0  0  0  0  0
    8.5054  -14.5818   20.6031 C   0  0  0  0  0  0  0  0  0  0  0  0
    7.5333  -14.3773   21.3820 O   0  0  0  0  0  0  0  0  0  0  0  0
    8.1973  -18.5324   20.2232 C   0  0  0  0  0  0  0  0  0  0  0  0
    9.1094  -18.1612   21.3701 C   0  0  1  0  0  0  0  0  0  0  0  0
   10.4500  -18.3268   21.0789 O   0  0  0  0  0  0  0  0  0  0  0  0
    8.8801  -16.7390   21.8344 C   0  0  2  0  0  0  0  0  0  0  0  0
    9.1895  -15.8066   20.7444 N   0  0  0  0  0  0  0  0  0  0  0  0
    9.6637  -16.4165   23.0362 C   0  0  0  0  0  0  0  0  0  0  0  0
   10.7809  -15.8323   22.9435 O   0  0  0  0  0  0  0  0  0  0  0  0
    9.2010  -16.7416   24.3144 N   0  0  0  0  0  0  0  0  0  0  0  0
    9.9960  -16.5150   25.5286 C   0  0  1  0  0  0  0  0  0  0  0  0
    9.6264  -15.2000   26.1690 C   0  0  0  0  0  0  0  0  0  0  0  0
    8.1953  -14.8832   26.0260 C   0  0  0  0  0  0  0  0  0  0  0  0
    7.1255  -15.6914   25.7226 C   0  0  0  0  0  0  0  0  0  0  0  0
    5.9997  -14.9638   25.6988 N   0  0  0  0  0  0  0  0  0  0  0  0
    6.2786  -13.6725   25.9804 C   0  0  0  0  0  0  0  0  0  0  0  0
    5.4856  -12.5483   26.0782 C   0  0  0  0  0  0  0  0  0  0  0  0
    6.0725  -11.3298   26.3900 C   0  0  0  0  0  0  0  0  0  0  0  0
    7.4340  -11.2519   26.5982 C   0  0  0  0  0  0  0  0  0  0  0  0
    8.1934  -12.3979   26.4914 C   0  0  0  0  0  0  0  0  0  0  0  0
    7.6413  -13.6163   26.1846 C   0  0  0  0  0  0  0  0  0  0  0  0
    9.7470  -17.6635   26.4244 C   0  0  0  0  0  0  0  0  0  0  0  0
   10.4765  -17.8226   27.5865 O   0  0  0  0  0  0  0  0  0  0  0  0
    8.8722  -18.5379   26.1753 O   0  0  0  0  0  0  0  0  0  0  0  0
  1  5  1  0
  2  1  1  0
  3  2  1  0
  3  4  1  0
  4  5  1  0
  5  6  1  1
  6  7  2  0
  9  8  1  6
  9 11  1  0
 10  9  1  0
 11 12  1  6
 11 13  1  0
 12  6  1  0
 13 14  2  0
 13 15  1  0
 15 16  1  0
 16 27  1  0
 16 17  1  1
 18 17  1  0
 19 18  2  0
 20 19  1  0
 21 20  1  0
 21 26  2  0
 22 21  1  0
 23 22  2  0
 23 24  1  0
 24 25  2  0
 25 26  1  0
 26 18  1  0
 27 29  2  0
 27 28  1  0
M  END
$$$$
