PTW.pdb
     RDKit          3D

 29 31  0  0  1  0  0  0  0  0999 V2000
    9.5112  -13.9221   19.1573 N   0  0  0  0  0  0  0  0  0  0  0  0
    8.7277  -13.8178   17.9634 C   0  0  0  0  0  0  0  0  0  0  0  0
    7.2722  -13.6589   18.3974 C   0  0  0  0  0  0  0  0  0  0  0  0
    7.4322  -12.9883   19.7332 C   0  0  0  0  0  0  0  0  0  0  0  0
    8.7069  -13.5400   20.2741 C   0  0  1  0  0  0  0  0  0  0  0  0
    8.5638  -14.6500   21.2019 C   0  0  0  0  0  0  0  0  0  0  0  0
    7.5257  -14.7193   21.9168 O   0  0  0  0  0  0  0  0  0  0  0  0
    9.4436  -18.5587   20.6937 C   0  0  0  0  0  0  0  0  0  0  0  0
   10.0694  -17.9777   21.9410 C   0  0  1  0  0  0  0  0  0  0  0  0
   11.4192  -17.7151   21.8046 O   0  0  0  0  0  0  0  0  0  0  0  0
    9.3663  -16.7140   22.3877 C   0  0  2  0  0  0  0  0  0  0  0  0
    9.5194  -15.6742   21.3636 N   0  0  0  0  0  0  0  0  0  0  0  0
    9.8557  -16.2401   23.6909 C   0  0  0  0  0  0  0  0  0  0  0  0
   10.6531  -15.2622   23.7666 O   0  0  0  0  0  0  0  0  0  0  0  0
    9.4559  -16.8504   24.8830 N   0  0  0  0  0  0  0  0  0  0  0  0
    9.9469  -16.4209   26.1990 C   0  0  1  0  0  0  0  0  0  0  0  0
    8.8020  -16.2643   27.1690 C   0  0  0  0  0  0  0  0  0  0  0  0
    7.6866  -15.4842   26.6069 C   0  0  0  0  0  0  0  0  0  0  0  0
    6.5533  -15.8923   25.9443 C   0  0  0  0  0  0  0  0  0  0  0  0
    5.8132  -14.8250   25.6117 N   0  0  0  0  0  0  0  0  0  0  0  0
    6.4185  -13.6937   26.0342 C   0  0  0  0  0  0  0  0  0  0  0  0
    6.0726  -12.3619   25.9414 C   0  0  0  0  0  0  0  0  0  0  0  0
    6.9165  -11.4029   26.4841 C   0  0  0  0  0  0  0  0  0  0  0  0
    8.0862  -11.7852   27.1077 C   0  0  0  0  0  0  0  0  0  0  0  0
    8.3975  -13.1266   27.1805 C   0  0  0  0  0  0  0  0  0  0  0  0
    7.5829  -14.0971   26.6533 C   0  0  0  0  0  0  0  0  0  0  0  0
   10.9232  -17.4366   26.6446 C   0  0  0  0  0  0  0  0  0  0  0  0
   11.7096  -17.2178   27.7590 O   0  0  0  0  0  0  0  0  0  0  0  0
   11.0825  -18.5322   26.0397 O   0  0  0  0  0  0  0  0  0  0  0  0
  1  5  1  0
  2  1  1  0
  3  2  1  0
  3  4  1  0
  4  5  1  0
  5  6  1  1
  6  7  2  0
  9  8  1  6
  9 11  1  0
 10  9  1  0
 11 12  1  6
 11 13  1  0
 12  6  1  0
 13 14  2  0
 13 15  1  0
 15 16  1  0
 16 27  1  0
 16 17  1  1
 18 17  1  0
 19 18  2  0
 20 19  1  0
 21 20  1  0
 21 26  2  0
 22 21  1  0
 23 22  2  0
 23 24  1  0
 24 25  2  0
 25 26  1  0
 26 18  1  0
 27 29  2  0
 27 28  1  0
M  END
$$$$
