PTW.pdb
     RDKit          3D

 29 31  0  0  1  0  0  0  0  0999 V2000
    9.4797  -14.2830   18.3885 N   0  0  0  0  0  0  0  0  0  0  0  0
    8.6454  -14.1123   17.2374 C   0  0  0  0  0  0  0  0  0  0  0  0
    7.2871  -13.6268   17.7388 C   0  0  0  0  0  0  0  0  0  0  0  0
    7.6767  -12.9030   18.9974 C   0  0  0  0  0  0  0  0  0  0  0  0
    8.8532  -13.6604   19.5111 C   0  0  1  0  0  0  0  0  0  0  0  0
    8.5623  -14.6436   20.5416 C   0  0  0  0  0  0  0  0  0  0  0  0
    7.7713  -14.3344   21.4757 O   0  0  0  0  0  0  0  0  0  0  0  0
    8.3101  -18.7121   20.1122 C   0  0  0  0  0  0  0  0  0  0  0  0
    9.1681  -18.2754   21.2777 C   0  0  1  0  0  0  0  0  0  0  0  0
   10.5232  -18.3920   21.0337 O   0  0  0  0  0  0  0  0  0  0  0  0
    8.8658  -16.8530   21.6977 C   0  0  2  0  0  0  0  0  0  0  0  0
    9.1104  -15.9424   20.5734 N   0  0  0  0  0  0  0  0  0  0  0  0
    9.6442  -16.4476   22.8776 C   0  0  0  0  0  0  0  0  0  0  0  0
   10.7047  -15.7711   22.7526 O   0  0  0  0  0  0  0  0  0  0  0  0
    9.2386  -16.7930   24.1697 N   0  0  0  0  0  0  0  0  0  0  0  0
   10.0276  -16.4650   25.3645 C   0  0  1  0  0  0  0  0  0  0  0  0
    9.7159  -15.0679   25.8410 C   0  0  0  0  0  0  0  0  0  0  0  0
    8.2713  -14.7820   25.8497 C   0  0  0  0  0  0  0  0  0  0  0  0
    7.1934  -15.6111   25.6485 C   0  0  0  0  0  0  0  0  0  0  0  0
    6.0558  -14.9087   25.7490 N   0  0  0  0  0  0  0  0  0  0  0  0
    6.3346  -13.6141   26.0153 C   0  0  0  0  0  0  0  0  0  0  0  0
    5.5321  -12.5090   26.2071 C   0  0  0  0  0  0  0  0  0  0  0  0
    6.1219  -11.2806   26.4709 C   0  0  0  0  0  0  0  0  0  0  0  0
    7.4956  -11.1741   26.5389 C   0  0  0  0  0  0  0  0  0  0  0  0
    8.2643  -12.3018   26.3414 C   0  0  0  0  0  0  0  0  0  0  0  0
    7.7096  -13.5293   26.0790 C   0  0  0  0  0  0  0  0  0  0  0  0
    9.7094  -17.4878   26.3823 C   0  0  0  0  0  0  0  0  0  0  0  0
   10.4130  -17.5439   27.5697 O   0  0  0  0  0  0  0  0  0  0  0  0
    8.7966  -18.3432   26.2187 O   0  0  0  0  0  0  0  0  0  0  0  0
  1  5  1  0
  2  1  1  0
  3  2  1  0
  3  4  1  0
  4  5  1  0
  5  6  1  1
  6  7  2  0
  9  8  1  6
  9 11  1  0
 10  9  1  0
 11 12  1  6
 11 13  1  0
 12  6  1  0
 13 14  2  0
 13 15  1  0
 15 16  1  0
 16 27  1  0
 16 17  1  1
 18 17  1  0
 19 18  2  0
 20 19  1  0
 21 20  1  0
 21 26  2  0
 22 21  1  0
 23 22  2  0
 23 24  1  0
 24 25  2  0
 25 26  1  0
 26 18  1  0
 27 29  2  0
 27 28  1  0
M  END
$$$$
