PTW.pdb
     RDKit          3D

 29 31  0  0  1  0  0  0  0  0999 V2000
    9.5605  -14.3119   18.3822 N   0  0  0  0  0  0  0  0  0  0  0  0
    8.6905  -14.0299   17.2805 C   0  0  0  0  0  0  0  0  0  0  0  0
    7.4432  -13.3631   17.8563 C   0  0  0  0  0  0  0  0  0  0  0  0
    8.0016  -12.6982   19.0834 C   0  0  0  0  0  0  0  0  0  0  0  0
    9.0923  -13.6086   19.5340 C   0  0  1  0  0  0  0  0  0  0  0  0
    8.7318  -14.5421   20.5886 C   0  0  0  0  0  0  0  0  0  0  0  0
    8.0714  -14.1207   21.5785 O   0  0  0  0  0  0  0  0  0  0  0  0
    7.9403  -18.5644   20.1850 C   0  0  0  0  0  0  0  0  0  0  0  0
    8.8902  -18.2296   21.3123 C   0  0  1  0  0  0  0  0  0  0  0  0
   10.2105  -18.5110   21.0172 O   0  0  0  0  0  0  0  0  0  0  0  0
    8.7792  -16.7791   21.7303 C   0  0  2  0  0  0  0  0  0  0  0  0
    9.0733  -15.9102   20.5850 N   0  0  0  0  0  0  0  0  0  0  0  0
    9.6578  -16.4621   22.8660 C   0  0  0  0  0  0  0  0  0  0  0  0
   10.8348  -16.0416   22.6767 O   0  0  0  0  0  0  0  0  0  0  0  0
    9.2226  -16.6124   24.1857 N   0  0  0  0  0  0  0  0  0  0  0  0
   10.1015  -16.3930   25.3420 C   0  0  1  0  0  0  0  0  0  0  0  0
    9.7649  -15.0915   26.0268 C   0  0  0  0  0  0  0  0  0  0  0  0
    8.3192  -14.8113   26.0308 C   0  0  0  0  0  0  0  0  0  0  0  0
    7.2440  -15.6517   25.8647 C   0  0  0  0  0  0  0  0  0  0  0  0
    6.1039  -14.9507   25.9439 N   0  0  0  0  0  0  0  0  0  0  0  0
    6.3783  -13.6461   26.1612 C   0  0  0  0  0  0  0  0  0  0  0  0
    5.5719  -12.5379   26.3155 C   0  0  0  0  0  0  0  0  0  0  0  0
    6.1575  -11.2982   26.5315 C   0  0  0  0  0  0  0  0  0  0  0  0
    7.5310  -11.1837   26.5899 C   0  0  0  0  0  0  0  0  0  0  0  0
    8.3036  -12.3148   26.4309 C   0  0  0  0  0  0  0  0  0  0  0  0
    7.7531  -13.5534   26.2161 C   0  0  0  0  0  0  0  0  0  0  0  0
    9.9313  -17.5567   26.2365 C   0  0  0  0  0  0  0  0  0  0  0  0
   10.7264  -17.7078   27.3559 O   0  0  0  0  0  0  0  0  0  0  0  0
    9.0677  -18.4516   26.0247 O   0  0  0  0  0  0  0  0  0  0  0  0
  1  5  1  0
  2  1  1  0
  3  2  1  0
  3  4  1  0
  4  5  1  0
  5  6  1  1
  6  7  2  0
  9  8  1  6
  9 11  1  0
 10  9  1  0
 11 12  1  6
 11 13  1  0
 12  6  1  0
 13 14  2  0
 13 15  1  0
 15 16  1  0
 16 27  1  0
 16 17  1  1
 18 17  1  0
 19 18  2  0
 20 19  1  0
 21 20  1  0
 21 26  2  0
 22 21  1  0
 23 22  2  0
 23 24  1  0
 24 25  2  0
 25 26  1  0
 26 18  1  0
 27 29  2  0
 27 28  1  0
M  END
$$$$
