PTW.pdb
     RDKit          3D

 29 31  0  0  1  0  0  0  0  0999 V2000
    9.5656  -14.2166   18.5486 N   0  0  0  0  0  0  0  0  0  0  0  0
    8.7958  -14.0483   17.3531 C   0  0  0  0  0  0  0  0  0  0  0  0
    7.4012  -13.5960   17.7804 C   0  0  0  0  0  0  0  0  0  0  0  0
    7.7025  -12.8802   19.0674 C   0  0  0  0  0  0  0  0  0  0  0  0
    8.8627  -13.6205   19.6399 C   0  0  1  0  0  0  0  0  0  0  0  0
    8.5331  -14.6220   20.6408 C   0  0  0  0  0  0  0  0  0  0  0  0
    7.7639  -14.3066   21.5908 O   0  0  0  0  0  0  0  0  0  0  0  0
    8.1626  -18.6887   20.1038 C   0  0  0  0  0  0  0  0  0  0  0  0
    9.0273  -18.2939   21.2791 C   0  0  1  0  0  0  0  0  0  0  0  0
   10.3802  -18.4315   21.0338 O   0  0  0  0  0  0  0  0  0  0  0  0
    8.7520  -16.8752   21.7293 C   0  0  2  0  0  0  0  0  0  0  0  0
    9.0199  -15.9452   20.6264 N   0  0  0  0  0  0  0  0  0  0  0  0
    9.5334  -16.5118   22.9209 C   0  0  0  0  0  0  0  0  0  0  0  0
   10.6131  -15.8629   22.8142 O   0  0  0  0  0  0  0  0  0  0  0  0
    9.1098  -16.8679   24.2043 N   0  0  0  0  0  0  0  0  0  0  0  0
    9.9065  -16.5960   25.4080 C   0  0  1  0  0  0  0  0  0  0  0  0
    9.6449  -15.1993   25.9150 C   0  0  0  0  0  0  0  0  0  0  0  0
    8.2137  -14.8525   25.9056 C   0  0  0  0  0  0  0  0  0  0  0  0
    7.1070  -15.6256   25.6461 C   0  0  0  0  0  0  0  0  0  0  0  0
    5.9978  -14.8801   25.7528 N   0  0  0  0  0  0  0  0  0  0  0  0
    6.3243  -13.6110   26.0807 C   0  0  0  0  0  0  0  0  0  0  0  0
    5.5645  -12.4817   26.3031 C   0  0  0  0  0  0  0  0  0  0  0  0
    6.1989  -11.2919   26.6322 C   0  0  0  0  0  0  0  0  0  0  0  0
    7.5740  -11.2472   26.7337 C   0  0  0  0  0  0  0  0  0  0  0  0
    8.2991  -12.3974   26.5038 C   0  0  0  0  0  0  0  0  0  0  0  0
    7.6998  -13.5879   26.1769 C   0  0  0  0  0  0  0  0  0  0  0  0
    9.5476  -17.6288   26.4019 C   0  0  0  0  0  0  0  0  0  0  0  0
   10.2647  -17.7578   27.5753 O   0  0  0  0  0  0  0  0  0  0  0  0
    8.5865  -18.4278   26.2294 O   0  0  0  0  0  0  0  0  0  0  0  0
  1  5  1  0
  2  1  1  0
  3  2  1  0
  3  4  1  0
  4  5  1  0
  5  6  1  1
  6  7  2  0
  9  8  1  6
  9 11  1  0
 10  9  1  0
 11 12  1  6
 11 13  1  0
 12  6  1  0
 13 14  2  0
 13 15  1  0
 15 16  1  0
 16 27  1  0
 16 17  1  1
 18 17  1  0
 19 18  2  0
 20 19  1  0
 21 20  1  0
 21 26  2  0
 22 21  1  0
 23 22  2  0
 23 24  1  0
 24 25  2  0
 25 26  1  0
 26 18  1  0
 27 29  2  0
 27 28  1  0
M  END
$$$$
