PTW.pdb
     RDKit          3D

 29 31  0  0  1  0  0  0  0  0999 V2000
    9.4477  -14.2787   18.5464 N   0  0  0  0  0  0  0  0  0  0  0  0
    8.6682  -14.0621   17.3651 C   0  0  0  0  0  0  0  0  0  0  0  0
    7.2766  -13.6296   17.8219 C   0  0  0  0  0  0  0  0  0  0  0  0
    7.5877  -12.9673   19.1350 C   0  0  0  0  0  0  0  0  0  0  0  0
    8.7531  -13.7291   19.6670 C   0  0  1  0  0  0  0  0  0  0  0  0
    8.4325  -14.7716   20.6283 C   0  0  0  0  0  0  0  0  0  0  0  0
    7.4606  -14.5994   21.4153 O   0  0  0  0  0  0  0  0  0  0  0  0
    8.5466  -18.7952   20.2360 C   0  0  0  0  0  0  0  0  0  0  0  0
    9.3096  -18.3125   21.4484 C   0  0  1  0  0  0  0  0  0  0  0  0
   10.6808  -18.3427   21.2798 O   0  0  0  0  0  0  0  0  0  0  0  0
    8.8958  -16.9144   21.8545 C   0  0  2  0  0  0  0  0  0  0  0  0
    9.1424  -15.9840   20.7469 N   0  0  0  0  0  0  0  0  0  0  0  0
    9.5825  -16.4672   23.0754 C   0  0  0  0  0  0  0  0  0  0  0  0
   10.4484  -15.5473   23.0315 O   0  0  0  0  0  0  0  0  0  0  0  0
    9.3008  -17.0397   24.3189 N   0  0  0  0  0  0  0  0  0  0  0  0
    9.9979  -16.6470   25.5507 C   0  0  1  0  0  0  0  0  0  0  0  0
    9.7519  -15.1911   25.8604 C   0  0  0  0  0  0  0  0  0  0  0  0
    8.3185  -14.8663   25.9521 C   0  0  0  0  0  0  0  0  0  0  0  0
    7.2088  -15.6665   25.8172 C   0  0  0  0  0  0  0  0  0  0  0  0
    6.0983  -14.9334   25.9812 N   0  0  0  0  0  0  0  0  0  0  0  0
    6.4268  -13.6462   26.2258 C   0  0  0  0  0  0  0  0  0  0  0  0
    5.6667  -12.5194   26.4599 C   0  0  0  0  0  0  0  0  0  0  0  0
    6.3037  -11.3068   26.6842 C   0  0  0  0  0  0  0  0  0  0  0  0
    7.6814  -11.2372   26.6716 C   0  0  0  0  0  0  0  0  0  0  0  0
    8.4066  -12.3857   26.4339 C   0  0  0  0  0  0  0  0  0  0  0  0
    7.8049  -13.5984   26.2090 C   0  0  0  0  0  0  0  0  0  0  0  0
    9.5081  -17.5379   26.6230 C   0  0  0  0  0  0  0  0  0  0  0  0
   10.0371  -17.4652   27.8969 O   0  0  0  0  0  0  0  0  0  0  0  0
    8.6000  -18.3922   26.4299 O   0  0  0  0  0  0  0  0  0  0  0  0
  1  5  1  0
  2  1  1  0
  3  2  1  0
  3  4  1  0
  4  5  1  0
  5  6  1  1
  6  7  2  0
  9  8  1  6
  9 11  1  0
 10  9  1  0
 11 12  1  6
 11 13  1  0
 12  6  1  0
 13 14  2  0
 13 15  1  0
 15 16  1  0
 16 27  1  0
 16 17  1  1
 18 17  1  0
 19 18  2  0
 20 19  1  0
 21 20  1  0
 21 26  2  0
 22 21  1  0
 23 22  2  0
 23 24  1  0
 24 25  2  0
 25 26  1  0
 26 18  1  0
 27 29  2  0
 27 28  1  0
M  END
$$$$
