HVE.pdb
     RDKit          3D

 27 27  0  0  1  0  0  0  0  0999 V2000
    8.4024  -14.8018   20.6914 N   0  0  0  0  0  0  0  0  0  0  0  0
    7.5998  -15.3817   21.7761 C   0  0  1  0  0  0  0  0  0  0  0  0
    7.7949  -16.8920   21.6490 C   0  0  0  0  0  0  0  0  0  0  0  0
    7.1005  -17.3622   20.4243 C   0  0  0  0  0  0  0  0  0  0  0  0
    5.7856  -17.8254   20.4258 C   0  0  0  0  0  0  0  0  0  0  0  0
    5.4967  -18.1612   19.1588 N   0  0  0  0  0  0  0  0  0  0  0  0
    6.5719  -17.9233   18.3955 C   0  0  0  0  0  0  0  0  0  0  0  0
    7.5739  -17.4301   19.1524 N   0  0  0  0  0  0  0  0  0  0  0  0
    8.0946  -14.9307   23.0919 C   0  0  0  0  0  0  0  0  0  0  0  0
    9.3245  -15.0893   23.3981 O   0  0  0  0  0  0  0  0  0  0  0  0
    7.4060  -12.8169   27.5019 C   0  0  0  0  0  0  0  0  0  0  0  0
    6.8028  -13.0887   26.1368 C   0  0  1  0  0  0  0  0  0  0  0  0
    6.4303  -11.8226   25.4321 C   0  0  0  0  0  0  0  0  0  0  0  0
    7.7906  -13.9259   25.3439 C   0  0  2  0  0  0  0  0  0  0  0  0
    7.2694  -14.3145   24.0669 N   0  0  0  0  0  0  0  0  0  0  0  0
    8.2748  -15.0837   26.1347 C   0  0  0  0  0  0  0  0  0  0  0  0
    7.5158  -16.0285   26.4443 O   0  0  0  0  0  0  0  0  0  0  0  0
    9.6143  -15.1406   26.5565 N   0  0  0  0  0  0  0  0  0  0  0  0
   10.2592  -16.2574   27.1818 C   0  0  1  0  0  0  0  0  0  0  0  0
   11.5270  -16.7363   26.5797 C   0  0  0  0  0  0  0  0  0  0  0  0
   12.2401  -17.8617   27.2132 C   0  0  0  0  0  0  0  0  0  0  0  0
   13.4900  -18.3023   26.6170 C   0  0  0  0  0  0  0  0  0  0  0  0
   13.9712  -17.8029   25.5883 O   0  0  0  0  0  0  0  0  0  0  0  0
   10.3595  -16.0863   28.6664 C   0  0  0  0  0  0  0  0  0  0  0  0
   10.4522  -17.2358   29.4385 O   0  0  0  0  0  0  0  0  0  0  0  0
   14.2099  -19.3401   27.2086 O   0  0  0  0  0  0  0  0  0  0  0  0
   10.3650  -14.9847   29.2483 O   0  0  0  0  0  0  0  0  0  0  0  0
  2  1  1  6
  3  2  1  0
  4  3  1  0
  5  4  2  0
  6  5  1  0
  7  6  1  0
  7  8  2  0
  8  4  1  0
  9  2  1  0
 10  9  2  0
 12 11  1  1
 13 12  1  0
 14 15  1  6
 14 12  1  0
 15  9  1  0
 16 17  2  0
 16 14  1  0
 18 16  1  0
 19 24  1  0
 19 18  1  0
 19 20  1  6
 21 22  1  0
 21 20  1  0
 22 26  1  0
 23 22  2  0
 24 25  1  0
 27 24  2  0
M  END
$$$$
