HVE.pdb
     RDKit          3D

 27 27  0  0  1  0  0  0  0  0999 V2000
    9.7957  -17.8602   17.0999 N   0  0  0  0  0  0  0  0  0  0  0  0
    8.6281  -17.6644   17.9690 C   0  0  1  0  0  0  0  0  0  0  0  0
    8.2905  -19.0576   18.4983 C   0  0  0  0  0  0  0  0  0  0  0  0
    7.1534  -19.6036   17.7160 C   0  0  0  0  0  0  0  0  0  0  0  0
    7.0891  -19.5441   16.3247 C   0  0  0  0  0  0  0  0  0  0  0  0
    5.9337  -20.1276   15.9697 N   0  0  0  0  0  0  0  0  0  0  0  0
    5.2998  -20.5349   17.0777 C   0  0  0  0  0  0  0  0  0  0  0  0
    6.0316  -20.2235   18.1676 N   0  0  0  0  0  0  0  0  0  0  0  0
    8.9605  -16.7756   19.0999 C   0  0  0  0  0  0  0  0  0  0  0  0
   10.1513  -16.7508   19.5614 O   0  0  0  0  0  0  0  0  0  0  0  0
    7.9005  -13.0762   22.1647 C   0  0  0  0  0  0  0  0  0  0  0  0
    7.4795  -13.8603   20.9363 C   0  0  1  0  0  0  0  0  0  0  0  0
    7.4840  -13.0095   19.7057 C   0  0  0  0  0  0  0  0  0  0  0  0
    8.3930  -15.0667   20.8119 C   0  0  2  0  0  0  0  0  0  0  0  0
    8.0165  -15.9221   19.7257 N   0  0  0  0  0  0  0  0  0  0  0  0
    8.5011  -15.7978   22.0980 C   0  0  0  0  0  0  0  0  0  0  0  0
    7.5795  -16.5361   22.5109 O   0  0  0  0  0  0  0  0  0  0  0  0
    9.6572  -15.6720   22.8873 N   0  0  0  0  0  0  0  0  0  0  0  0
   10.0765  -16.5674   23.9249 C   0  0  1  0  0  0  0  0  0  0  0  0
   10.5540  -17.9099   23.5140 C   0  0  0  0  0  0  0  0  0  0  0  0
   11.8151  -18.0202   22.7563 C   0  0  0  0  0  0  0  0  0  0  0  0
   12.6396  -19.1980   22.9678 C   0  0  0  0  0  0  0  0  0  0  0  0
   12.5691  -19.9099   23.9813 O   0  0  0  0  0  0  0  0  0  0  0  0
   11.0026  -15.9032   24.8966 C   0  0  0  0  0  0  0  0  0  0  0  0
   11.5523  -14.6839   24.5261 O   0  0  0  0  0  0  0  0  0  0  0  0
   13.5697  -19.5735   21.9986 O   0  0  0  0  0  0  0  0  0  0  0  0
   11.3087  -16.3726   26.0094 O   0  0  0  0  0  0  0  0  0  0  0  0
  2  1  1  6
  3  2  1  0
  4  3  1  0
  5  4  2  0
  6  5  1  0
  7  6  1  0
  7  8  2  0
  8  4  1  0
  9  2  1  0
 10  9  2  0
 12 11  1  1
 13 12  1  0
 14 15  1  6
 14 12  1  0
 15  9  1  0
 16 17  2  0
 16 14  1  0
 18 16  1  0
 19 24  1  0
 19 18  1  0
 19 20  1  6
 21 22  1  0
 21 20  1  0
 22 26  1  0
 23 22  2  0
 24 25  1  0
 27 24  2  0
M  END
$$$$
