HVE.pdb
     RDKit          3D

 27 27  0  0  1  0  0  0  0  0999 V2000
    9.9086  -13.8984   20.7948 N   0  0  0  0  0  0  0  0  0  0  0  0
    8.5655  -13.8917   21.3892 C   0  0  1  0  0  0  0  0  0  0  0  0
    7.8436  -15.0768   20.7493 C   0  0  0  0  0  0  0  0  0  0  0  0
    7.5694  -14.7577   19.3259 C   0  0  0  0  0  0  0  0  0  0  0  0
    8.0279  -13.5969   18.7047 C   0  0  0  0  0  0  0  0  0  0  0  0
    7.5941  -13.6452   17.4354 N   0  0  0  0  0  0  0  0  0  0  0  0
    6.8977  -14.7767   17.2622 C   0  0  0  0  0  0  0  0  0  0  0  0
    6.8681  -15.4800   18.4132 N   0  0  0  0  0  0  0  0  0  0  0  0
    8.6386  -14.0907   22.8501 C   0  0  0  0  0  0  0  0  0  0  0  0
    9.5702  -14.8082   23.3492 O   0  0  0  0  0  0  0  0  0  0  0  0
    7.1126  -13.1507   27.4460 C   0  0  0  0  0  0  0  0  0  0  0  0
    6.8677  -12.8852   25.9727 C   0  0  1  0  0  0  0  0  0  0  0  0
    6.9986  -11.4322   25.6409 C   0  0  0  0  0  0  0  0  0  0  0  0
    7.8235  -13.7523   25.1728 C   0  0  2  0  0  0  0  0  0  0  0  0
    7.7152  -13.5202   23.7629 N   0  0  0  0  0  0  0  0  0  0  0  0
    7.6760  -15.1858   25.5243 C   0  0  0  0  0  0  0  0  0  0  0  0
    6.8656  -15.9267   24.9251 O   0  0  0  0  0  0  0  0  0  0  0  0
    8.4549  -15.7451   26.5518 N   0  0  0  0  0  0  0  0  0  0  0  0
    9.0416  -17.0527   26.5544 C   0  0  1  0  0  0  0  0  0  0  0  0
    9.9125  -17.4105   25.4087 C   0  0  0  0  0  0  0  0  0  0  0  0
   10.6329  -18.6978   25.4317 C   0  0  0  0  0  0  0  0  0  0  0  0
   11.5230  -19.0036   24.3245 C   0  0  0  0  0  0  0  0  0  0  0  0
   11.6369  -18.2856   23.3193 O   0  0  0  0  0  0  0  0  0  0  0  0
    9.6681  -17.3822   27.8743 C   0  0  0  0  0  0  0  0  0  0  0  0
   10.0657  -16.3219   28.6767 O   0  0  0  0  0  0  0  0  0  0  0  0
   12.3033  -20.1590   24.3640 O   0  0  0  0  0  0  0  0  0  0  0  0
    9.8536  -18.5401   28.2950 O   0  0  0  0  0  0  0  0  0  0  0  0
  2  1  1  6
  3  2  1  0
  4  3  1  0
  5  4  2  0
  6  5  1  0
  7  6  1  0
  7  8  2  0
  8  4  1  0
  9  2  1  0
 10  9  2  0
 12 11  1  1
 13 12  1  0
 14 15  1  6
 14 12  1  0
 15  9  1  0
 16 17  2  0
 16 14  1  0
 18 16  1  0
 19 24  1  0
 19 18  1  0
 19 20  1  6
 21 22  1  0
 21 20  1  0
 22 26  1  0
 23 22  2  0
 24 25  1  0
 27 24  2  0
M  END
$$$$
