HVE.pdb
     RDKit          3D

 27 27  0  0  1  0  0  0  0  0999 V2000
    9.2982  -12.9208   20.5043 N   0  0  0  0  0  0  0  0  0  0  0  0
    8.1741  -13.5378   21.2203 C   0  0  1  0  0  0  0  0  0  0  0  0
    7.9385  -14.8716   20.5129 C   0  0  0  0  0  0  0  0  0  0  0  0
    7.4866  -14.6033   19.1248 C   0  0  0  0  0  0  0  0  0  0  0  0
    7.4948  -13.3312   18.5547 C   0  0  0  0  0  0  0  0  0  0  0  0
    7.0241  -13.4686   17.3053 N   0  0  0  0  0  0  0  0  0  0  0  0
    6.7330  -14.7596   17.0955 C   0  0  0  0  0  0  0  0  0  0  0  0
    7.0096  -15.4797   18.2024 N   0  0  0  0  0  0  0  0  0  0  0  0
    8.5256  -13.7851   22.6326 C   0  0  0  0  0  0  0  0  0  0  0  0
    9.6885  -14.2203   22.9324 O   0  0  0  0  0  0  0  0  0  0  0  0
    7.1293  -11.6338   25.8449 C   0  0  0  0  0  0  0  0  0  0  0  0
    7.0830  -13.1347   26.0598 C   0  0  1  0  0  0  0  0  0  0  0  0
    5.6898  -13.6688   25.9498 C   0  0  0  0  0  0  0  0  0  0  0  0
    8.0333  -13.7818   25.0680 C   0  0  2  0  0  0  0  0  0  0  0  0
    7.6304  -13.5643   23.7101 N   0  0  0  0  0  0  0  0  0  0  0  0
    8.2391  -15.2184   25.3750 C   0  0  0  0  0  0  0  0  0  0  0  0
    7.3401  -16.0654   25.1776 O   0  0  0  0  0  0  0  0  0  0  0  0
    9.4654  -15.6597   25.9011 N   0  0  0  0  0  0  0  0  0  0  0  0
    9.8456  -17.0214   26.1364 C   0  0  1  0  0  0  0  0  0  0  0  0
   11.2013  -17.4349   25.7003 C   0  0  0  0  0  0  0  0  0  0  0  0
   11.6838  -18.7855   26.0463 C   0  0  0  0  0  0  0  0  0  0  0  0
   13.0408  -19.1445   25.6704 C   0  0  0  0  0  0  0  0  0  0  0  0
   13.5429  -18.8657   24.5707 O   0  0  0  0  0  0  0  0  0  0  0  0
    9.5382  -17.4541   27.5370 C   0  0  0  0  0  0  0  0  0  0  0  0
    9.5075  -18.8177   27.7936 O   0  0  0  0  0  0  0  0  0  0  0  0
   13.8464  -19.8403   26.5715 O   0  0  0  0  0  0  0  0  0  0  0  0
    9.3099  -16.6727   28.4801 O   0  0  0  0  0  0  0  0  0  0  0  0
  2  1  1  6
  3  2  1  0
  4  3  1  0
  5  4  2  0
  6  5  1  0
  7  6  1  0
  7  8  2  0
  8  4  1  0
  9  2  1  0
 10  9  2  0
 12 11  1  6
 13 12  1  0
 14 15  1  6
 14 12  1  0
 15  9  1  0
 16 17  2  0
 16 14  1  0
 18 16  1  0
 19 24  1  0
 19 18  1  0
 19 20  1  1
 21 22  1  0
 21 20  1  0
 22 26  1  0
 23 22  2  0
 24 25  1  0
 27 24  2  0
M  END
$$$$
