HVE.pdb
     RDKit          3D

 27 27  0  0  1  0  0  0  0  0999 V2000
    9.6438  -13.5492   20.8416 N   0  0  0  0  0  0  0  0  0  0  0  0
    8.3596  -13.7907   21.5121 C   0  0  1  0  0  0  0  0  0  0  0  0
    7.8560  -15.1142   20.9379 C   0  0  0  0  0  0  0  0  0  0  0  0
    7.5019  -14.9122   19.5107 C   0  0  0  0  0  0  0  0  0  0  0  0
    7.7949  -13.7417   18.8126 C   0  0  0  0  0  0  0  0  0  0  0  0
    7.3324  -13.9144   17.5646 N   0  0  0  0  0  0  0  0  0  0  0  0
    6.7758  -15.1301   17.4771 C   0  0  0  0  0  0  0  0  0  0  0  0
    6.8678  -15.7651   18.6639 N   0  0  0  0  0  0  0  0  0  0  0  0
    8.5479  -13.9267   22.9700 C   0  0  0  0  0  0  0  0  0  0  0  0
    9.6206  -14.4480   23.4276 O   0  0  0  0  0  0  0  0  0  0  0  0
    7.1802  -12.9861   27.6137 C   0  0  0  0  0  0  0  0  0  0  0  0
    6.7456  -12.9620   26.1606 C   0  0  1  0  0  0  0  0  0  0  0  0
    6.4190  -11.5760   25.7015 C   0  0  0  0  0  0  0  0  0  0  0  0
    7.8418  -13.6058   25.3305 C   0  0  2  0  0  0  0  0  0  0  0  0
    7.5875  -13.5038   23.9240 N   0  0  0  0  0  0  0  0  0  0  0  0
    8.0960  -15.0024   25.7608 C   0  0  0  0  0  0  0  0  0  0  0  0
    7.1951  -15.8698   25.7348 O   0  0  0  0  0  0  0  0  0  0  0  0
    9.3719  -15.3815   26.2122 N   0  0  0  0  0  0  0  0  0  0  0  0
    9.7577  -16.6853   26.6656 C   0  0  1  0  0  0  0  0  0  0  0  0
   11.0771  -17.1974   26.2227 C   0  0  0  0  0  0  0  0  0  0  0  0
   11.1281  -18.3940   25.3613 C   0  0  0  0  0  0  0  0  0  0  0  0
   12.0863  -18.4104   24.2690 C   0  0  0  0  0  0  0  0  0  0  0  0
   13.2712  -18.0644   24.3926 O   0  0  0  0  0  0  0  0  0  0  0  0
    9.5445  -16.8511   28.1388 C   0  0  0  0  0  0  0  0  0  0  0  0
    9.5454  -18.1436   28.6443 O   0  0  0  0  0  0  0  0  0  0  0  0
   11.6828  -18.8317   23.0021 O   0  0  0  0  0  0  0  0  0  0  0  0
    9.3677  -15.9085   28.9340 O   0  0  0  0  0  0  0  0  0  0  0  0
  2  1  1  6
  3  2  1  0
  4  3  1  0
  5  4  2  0
  6  5  1  0
  7  6  1  0
  7  8  2  0
  8  4  1  0
  9  2  1  0
 10  9  2  0
 12 11  1  1
 13 12  1  0
 14 15  1  6
 14 12  1  0
 15  9  1  0
 16 17  2  0
 16 14  1  0
 18 16  1  0
 19 24  1  0
 19 18  1  0
 19 20  1  1
 21 22  1  0
 21 20  1  0
 22 26  1  0
 23 22  2  0
 24 25  1  0
 27 24  2  0
M  END
$$$$
