HVE.pdb
     RDKit          3D

 27 27  0  0  1  0  0  0  0  0999 V2000
    9.5048  -13.7715   20.6318 N   0  0  0  0  0  0  0  0  0  0  0  0
    8.2273  -13.8435   21.3528 C   0  0  1  0  0  0  0  0  0  0  0  0
    7.5092  -15.0577   20.7652 C   0  0  0  0  0  0  0  0  0  0  0  0
    7.3029  -14.8343   19.3124 C   0  0  0  0  0  0  0  0  0  0  0  0
    6.8008  -13.6435   18.7897 C   0  0  0  0  0  0  0  0  0  0  0  0
    6.7507  -13.8012   17.4578 N   0  0  0  0  0  0  0  0  0  0  0  0
    7.1972  -15.0272   17.1532 C   0  0  0  0  0  0  0  0  0  0  0  0
    7.5441  -15.6839   18.2796 N   0  0  0  0  0  0  0  0  0  0  0  0
    8.4522  -14.0558   22.7963 C   0  0  0  0  0  0  0  0  0  0  0  0
    9.4152  -14.7978   23.1883 O   0  0  0  0  0  0  0  0  0  0  0  0
    7.3463  -13.2231   27.5359 C   0  0  0  0  0  0  0  0  0  0  0  0
    6.9482  -12.9530   26.0973 C   0  0  1  0  0  0  0  0  0  0  0  0
    6.9381  -11.4890   25.7893 C   0  0  0  0  0  0  0  0  0  0  0  0
    7.8896  -13.7302   25.1944 C   0  0  2  0  0  0  0  0  0  0  0  0
    7.6453  -13.4723   23.8061 N   0  0  0  0  0  0  0  0  0  0  0  0
    7.8718  -15.1787   25.5136 C   0  0  0  0  0  0  0  0  0  0  0  0
    7.1574  -15.9815   24.8734 O   0  0  0  0  0  0  0  0  0  0  0  0
    8.6683  -15.6822   26.5564 N   0  0  0  0  0  0  0  0  0  0  0  0
    9.2973  -16.9694   26.5965 C   0  0  1  0  0  0  0  0  0  0  0  0
   10.2064  -17.3182   25.4780 C   0  0  0  0  0  0  0  0  0  0  0  0
   10.9268  -18.6051   25.5158 C   0  0  0  0  0  0  0  0  0  0  0  0
   11.8125  -18.9261   24.4093 C   0  0  0  0  0  0  0  0  0  0  0  0
   11.9522  -18.2018   23.4119 O   0  0  0  0  0  0  0  0  0  0  0  0
    9.9029  -17.2546   27.9364 C   0  0  0  0  0  0  0  0  0  0  0  0
   10.1082  -18.5845   28.2761 O   0  0  0  0  0  0  0  0  0  0  0  0
   12.5580  -20.1045   24.4404 O   0  0  0  0  0  0  0  0  0  0  0  0
   10.2320  -16.3795   28.7599 O   0  0  0  0  0  0  0  0  0  0  0  0
  2  1  1  6
  3  2  1  0
  4  3  1  0
  5  4  2  0
  6  5  1  0
  7  6  1  0
  7  8  2  0
  8  4  1  0
  9  2  1  0
 10  9  2  0
 12 11  1  1
 13 12  1  0
 14 15  1  6
 14 12  1  0
 15  9  1  0
 16 17  2  0
 16 14  1  0
 18 16  1  0
 19 24  1  0
 19 18  1  0
 19 20  1  6
 21 22  1  0
 21 20  1  0
 22 26  1  0
 23 22  2  0
 24 25  1  0
 27 24  2  0
M  END
$$$$
