HVE.pdb
     RDKit          3D

 27 27  0  0  1  0  0  0  0  0999 V2000
    8.9944  -15.1491   20.5269 N   0  0  0  0  0  0  0  0  0  0  0  0
    7.9285  -15.2622   21.5310 C   0  0  1  0  0  0  0  0  0  0  0  0
    7.5925  -16.7519   21.5855 C   0  0  0  0  0  0  0  0  0  0  0  0
    6.9735  -17.1498   20.2965 C   0  0  0  0  0  0  0  0  0  0  0  0
    6.8580  -16.2851   19.2092 C   0  0  0  0  0  0  0  0  0  0  0  0
    6.2549  -16.9786   18.2310 N   0  0  0  0  0  0  0  0  0  0  0  0
    6.0018  -18.2170   18.6756 C   0  0  0  0  0  0  0  0  0  0  0  0
    6.4356  -18.3476   19.9464 N   0  0  0  0  0  0  0  0  0  0  0  0
    8.4071  -14.8169   22.8547 C   0  0  0  0  0  0  0  0  0  0  0  0
    9.5889  -15.1142   23.2375 O   0  0  0  0  0  0  0  0  0  0  0  0
    5.8460  -13.4372   25.9896 C   0  0  0  0  0  0  0  0  0  0  0  0
    7.1778  -12.7430   25.7761 C   0  0  1  0  0  0  0  0  0  0  0  0
    7.7571  -12.2451   27.0625 C   0  0  0  0  0  0  0  0  0  0  0  0
    8.1027  -13.7096   25.0580 C   0  0  2  0  0  0  0  0  0  0  0  0
    7.6173  -14.0580   23.7556 N   0  0  0  0  0  0  0  0  0  0  0  0
    8.3925  -14.9013   25.8925 C   0  0  0  0  0  0  0  0  0  0  0  0
    7.5405  -15.8000   26.0688 O   0  0  0  0  0  0  0  0  0  0  0  0
    9.6475  -15.0438   26.5090 N   0  0  0  0  0  0  0  0  0  0  0  0
   10.1349  -16.2137   27.1781 C   0  0  1  0  0  0  0  0  0  0  0  0
   11.4302  -16.7710   26.7187 C   0  0  0  0  0  0  0  0  0  0  0  0
   11.9485  -17.9965   27.3559 C   0  0  0  0  0  0  0  0  0  0  0  0
   13.2705  -18.4612   26.9708 C   0  0  0  0  0  0  0  0  0  0  0  0
   13.8165  -18.1600   25.8984 O   0  0  0  0  0  0  0  0  0  0  0  0
   10.0677  -16.0751   28.6679 C   0  0  0  0  0  0  0  0  0  0  0  0
   10.1246  -17.2385   29.4224 O   0  0  0  0  0  0  0  0  0  0  0  0
   13.9885  -19.2920   27.8308 O   0  0  0  0  0  0  0  0  0  0  0  0
    9.9647  -14.9886   29.2689 O   0  0  0  0  0  0  0  0  0  0  0  0
  2  1  1  6
  3  2  1  0
  4  3  1  0
  5  4  2  0
  6  5  1  0
  7  6  1  0
  7  8  2  0
  8  4  1  0
  9  2  1  0
 10  9  2  0
 12 11  1  1
 13 12  1  0
 14 15  1  6
 14 12  1  0
 15  9  1  0
 16 17  2  0
 16 14  1  0
 18 16  1  0
 19 24  1  0
 19 18  1  0
 19 20  1  1
 21 22  1  0
 21 20  1  0
 22 26  1  0
 23 22  2  0
 24 25  1  0
 27 24  2  0
M  END
$$$$
