CRG.pdb
     RDKit          3D

 22 21  0  0  1  0  0  0  0  0999 V2000
    3.4709  -20.2960   20.2207 N   0  0  0  0  0  0  0  0  0  0  0  0
    3.4405  -19.1877   21.1348 C   0  0  1  0  0  0  0  0  0  0  0  0
    2.7107  -19.6265   22.3905 C   0  0  0  0  0  0  0  0  0  0  0  0
    3.6928  -20.8358   23.2954 S   0  0  0  0  0  0  0  0  0  0  0  0
    4.8275  -18.8018   21.5570 C   0  0  0  0  0  0  0  0  0  0  0  0
    5.7946  -19.6085   21.3915 O   0  0  0  0  0  0  0  0  0  0  0  0
    8.8160  -12.7558   18.4609 N   0  0  0  0  0  0  0  0  0  0  0  0
    8.8413  -13.1436   19.8292 C   0  0  0  0  0  0  0  0  0  0  0  0
    9.9220  -13.3946   20.4699 N   0  0  0  0  0  0  0  0  0  0  0  0
    7.5706  -13.2475   20.4901 N   0  0  0  0  0  0  0  0  0  0  0  0
    7.5151  -13.4681   21.8985 C   0  0  0  0  0  0  0  0  0  0  0  0
    7.7407  -14.9591   22.1471 C   0  0  0  0  0  0  0  0  0  0  0  0
    6.4022  -15.6174   22.0050 C   0  0  0  0  0  0  0  0  0  0  0  0
    6.3507  -17.0416   22.4565 C   0  0  2  0  0  0  0  0  0  0  0  0
    5.0026  -17.5248   22.1355 N   0  0  0  0  0  0  0  0  0  0  0  0
    6.5490  -17.1549   23.8983 C   0  0  0  0  0  0  0  0  0  0  0  0
    5.7355  -16.6178   24.6864 O   0  0  0  0  0  0  0  0  0  0  0  0
    9.8515  -13.7214   21.4670 N   0  0  0  0  0  0  0  0  0  0  0  0
    7.6695  -17.8767   24.4378 C   0  0  0  0  0  0  0  0  0  0  0  0
    7.7741  -17.9274   25.8730 C   0  0  0  0  0  0  0  0  0  0  0  0
    9.0121  -17.3243   26.3871 O   0  0  0  0  0  0  0  0  0  0  0  0
    9.4376  -17.3729   27.7042 O   0  0  0  0  0  0  0  0  0  0  0  0
  2  1  1  6
  2  5  1  0
  2  3  1  0
  3  4  1  0
  5  6  2  0
  7  8  1  0
  8  9  2  0
  8 10  1  0
 10 11  1  0
 11 12  1  0
 12 13  1  0
 14 13  1  1
 14 16  1  0
 15  5  1  0
 15 14  1  0
 16 18  1  0
 16 17  2  0
 18 19  1  0
 20 19  1  0
 20 21  1  0
 22 20  2  0
M  END
$$$$
