CRG.pdb
     RDKit          3D

 22 21  0  0  1  0  0  0  0  0999 V2000
    6.8748  -12.5660   17.8411 N   0  0  0  0  0  0  0  0  0  0  0  0
    7.4866  -13.8585   17.9810 C   0  0  1  0  0  0  0  0  0  0  0  0
    8.6214  -13.9588   16.9790 C   0  0  0  0  0  0  0  0  0  0  0  0
    8.5314  -15.5203   16.0849 S   0  0  0  0  0  0  0  0  0  0  0  0
    8.0995  -14.0182   19.3410 C   0  0  0  0  0  0  0  0  0  0  0  0
    8.7172  -13.0492   19.8823 O   0  0  0  0  0  0  0  0  0  0  0  0
    7.0127  -19.0017   25.2138 N   0  0  0  0  0  0  0  0  0  0  0  0
    7.8005  -18.1879   26.0742 C   0  0  0  0  0  0  0  0  0  0  0  0
    8.3310  -18.6174   27.1585 N   0  0  0  0  0  0  0  0  0  0  0  0
    7.9870  -16.8221   25.6720 N   0  0  0  0  0  0  0  0  0  0  0  0
    7.4014  -16.3492   24.4601 C   0  0  0  0  0  0  0  0  0  0  0  0
    8.1598  -16.9851   23.2955 C   0  0  0  0  0  0  0  0  0  0  0  0
    7.6051  -16.3714   22.0461 C   0  0  0  0  0  0  0  0  0  0  0  0
    8.5593  -15.4969   21.2979 C   0  0  2  0  0  0  0  0  0  0  0  0
    7.9596  -15.2717   19.9775 N   0  0  0  0  0  0  0  0  0  0  0  0
    9.8516  -16.1495   21.1111 C   0  0  0  0  0  0  0  0  0  0  0  0
    9.9013  -17.3440   20.7342 O   0  0  0  0  0  0  0  0  0  0  0  0
    8.8996  -17.9500   27.7392 N   0  0  0  0  0  0  0  0  0  0  0  0
   11.0805  -15.4431   21.3534 C   0  0  0  0  0  0  0  0  0  0  0  0
   11.4440  -15.2339   22.7308 C   0  0  0  0  0  0  0  0  0  0  0  0
   12.2538  -16.3256   23.2904 O   0  0  0  0  0  0  0  0  0  0  0  0
   13.6256  -16.2883   23.4769 O   0  0  0  0  0  0  0  0  0  0  0  0
  2  1  1  1
  2  5  1  0
  2  3  1  0
  3  4  1  0
  5  6  2  0
  7  8  1  0
  8  9  2  0
  8 10  1  0
 10 11  1  0
 11 12  1  0
 12 13  1  0
 14 13  1  1
 14 16  1  0
 15  5  1  0
 15 14  1  0
 16 18  1  0
 16 17  2  0
 18 19  1  0
 20 19  1  0
 20 21  1  0
 22 20  2  0
M  END
$$$$
