CRG.pdb
     RDKit          3D

 22 21  0  0  1  0  0  0  0  0999 V2000
    6.8467  -19.2210   26.0743 N   0  0  0  0  0  0  0  0  0  0  0  0
    7.4054  -17.8988   26.0097 C   0  0  1  0  0  0  0  0  0  0  0  0
    8.4734  -17.7807   27.0807 C   0  0  0  0  0  0  0  0  0  0  0  0
    8.9592  -16.0589   27.2935 S   0  0  0  0  0  0  0  0  0  0  0  0
    8.0892  -17.6685   24.6943 C   0  0  0  0  0  0  0  0  0  0  0  0
    8.7615  -18.5993   24.1510 O   0  0  0  0  0  0  0  0  0  0  0  0
    7.3360  -15.1209   18.1858 N   0  0  0  0  0  0  0  0  0  0  0  0
    7.9208  -13.8379   17.9987 C   0  0  0  0  0  0  0  0  0  0  0  0
    8.4348  -13.4534   16.8898 N   0  0  0  0  0  0  0  0  0  0  0  0
    7.9152  -12.9586   19.1340 N   0  0  0  0  0  0  0  0  0  0  0  0
    7.4376  -13.4249   20.3949 C   0  0  0  0  0  0  0  0  0  0  0  0
    8.3742  -14.5367   20.8671 C   0  0  0  0  0  0  0  0  0  0  0  0
    7.8819  -14.9568   22.2184 C   0  0  0  0  0  0  0  0  0  0  0  0
    8.6302  -16.0952   22.8343 C   0  0  2  0  0  0  0  0  0  0  0  0
    7.9523  -16.3934   24.1014 N   0  0  0  0  0  0  0  0  0  0  0  0
   10.0135  -15.7324   23.1267 C   0  0  0  0  0  0  0  0  0  0  0  0
   10.2621  -14.8477   23.9792 O   0  0  0  0  0  0  0  0  0  0  0  0
    8.8237  -12.4783   16.8268 N   0  0  0  0  0  0  0  0  0  0  0  0
   11.1073  -16.3754   22.4499 C   0  0  0  0  0  0  0  0  0  0  0  0
   12.4288  -15.8918   22.7546 C   0  0  0  0  0  0  0  0  0  0  0  0
   13.2299  -15.5968   21.5581 O   0  0  0  0  0  0  0  0  0  0  0  0
   14.5436  -15.1582   21.5640 O   0  0  0  0  0  0  0  0  0  0  0  0
  2  1  1  6
  2  5  1  0
  2  3  1  0
  3  4  1  0
  5  6  2  0
  7  8  1  0
  8  9  2  0
  8 10  1  0
 10 11  1  0
 11 12  1  0
 12 13  1  0
 14 13  1  1
 14 16  1  0
 15  5  1  0
 15 14  1  0
 16 18  1  0
 16 17  2  0
 18 19  1  0
 20 19  1  0
 20 21  1  0
 22 20  2  0
M  END
$$$$
