CRG.pdb
     RDKit          3D

 22 21  0  0  1  0  0  0  0  0999 V2000
    7.5471  -17.2073   27.3263 N   0  0  0  0  0  0  0  0  0  0  0  0
    7.7329  -15.9329   26.6890 C   0  0  1  0  0  0  0  0  0  0  0  0
    8.8398  -15.1937   27.4171 C   0  0  0  0  0  0  0  0  0  0  0  0
    8.3646  -13.4798   27.7044 S   0  0  0  0  0  0  0  0  0  0  0  0
    8.1912  -16.1036   25.2707 C   0  0  0  0  0  0  0  0  0  0  0  0
    8.9325  -17.0844   24.9514 O   0  0  0  0  0  0  0  0  0  0  0  0
    8.0919  -12.4758   18.2845 N   0  0  0  0  0  0  0  0  0  0  0  0
    8.1122  -13.8179   17.8138 C   0  0  0  0  0  0  0  0  0  0  0  0
    8.6776  -14.1717   16.7198 N   0  0  0  0  0  0  0  0  0  0  0  0
    7.4549  -14.7957   18.6347 N   0  0  0  0  0  0  0  0  0  0  0  0
    6.8657  -14.4063   19.8743 C   0  0  0  0  0  0  0  0  0  0  0  0
    7.9865  -13.9172   20.7911 C   0  0  0  0  0  0  0  0  0  0  0  0
    7.5113  -14.1414   22.1943 C   0  0  0  0  0  0  0  0  0  0  0  0
    8.2300  -15.2219   22.9365 C   0  0  2  0  0  0  0  0  0  0  0  0
    7.7679  -15.1411   24.3271 N   0  0  0  0  0  0  0  0  0  0  0  0
    9.6750  -15.0151   22.9190 C   0  0  0  0  0  0  0  0  0  0  0  0
   10.1805  -14.0720   23.5720 O   0  0  0  0  0  0  0  0  0  0  0  0
    8.6979  -15.1935   16.4715 N   0  0  0  0  0  0  0  0  0  0  0  0
   10.5383  -15.8794   22.1605 C   0  0  0  0  0  0  0  0  0  0  0  0
   11.9378  -15.5415   22.1447 C   0  0  0  0  0  0  0  0  0  0  0  0
   12.7704  -16.5453   21.4667 O   0  0  0  0  0  0  0  0  0  0  0  0
   13.9230  -16.2742   20.7483 O   0  0  0  0  0  0  0  0  0  0  0  0
  2  1  1  1
  2  5  1  0
  2  3  1  0
  3  4  1  0
  5  6  2  0
  7  8  1  0
  8  9  2  0
  8 10  1  0
 10 11  1  0
 11 12  1  0
 12 13  1  0
 14 13  1  6
 14 16  1  0
 15  5  1  0
 15 14  1  0
 16 18  1  0
 16 17  2  0
 18 19  1  0
 20 19  1  0
 20 21  1  0
 22 20  2  0
M  END
$$$$
