CRG.pdb
     RDKit          3D

 22 21  0  0  1  0  0  0  0  0999 V2000
    6.2531  -14.6509   19.0468 N   0  0  0  0  0  0  0  0  0  0  0  0
    7.5969  -14.4562   19.5166 C   0  0  1  0  0  0  0  0  0  0  0  0
    7.9734  -13.0036   19.2931 C   0  0  0  0  0  0  0  0  0  0  0  0
    8.1210  -12.6589   17.5309 S   0  0  0  0  0  0  0  0  0  0  0  0
    7.6901  -14.7014   20.9938 C   0  0  0  0  0  0  0  0  0  0  0  0
    6.7914  -14.2577   21.7741 O   0  0  0  0  0  0  0  0  0  0  0  0
    8.2326  -20.7046   27.0135 N   0  0  0  0  0  0  0  0  0  0  0  0
    7.3133  -19.9614   26.2225 C   0  0  0  0  0  0  0  0  0  0  0  0
    6.3995  -20.5050   25.5077 N   0  0  0  0  0  0  0  0  0  0  0  0
    7.4495  -18.5322   26.2538 N   0  0  0  0  0  0  0  0  0  0  0  0
    8.2501  -17.8705   25.2758 C   0  0  0  0  0  0  0  0  0  0  0  0
    7.3136  -17.3162   24.2026 C   0  0  0  0  0  0  0  0  0  0  0  0
    8.1434  -17.1446   22.9669 C   0  0  0  0  0  0  0  0  0  0  0  0
    8.8705  -15.8416   22.8737 C   0  0  2  0  0  0  0  0  0  0  0  0
    8.8022  -15.4341   21.4654 N   0  0  0  0  0  0  0  0  0  0  0  0
   10.2754  -15.9835   23.2441 C   0  0  0  0  0  0  0  0  0  0  0  0
   11.0635  -16.5979   22.4873 O   0  0  0  0  0  0  0  0  0  0  0  0
    5.7734  -19.8844   24.9343 N   0  0  0  0  0  0  0  0  0  0  0  0
   10.7780  -15.4277   24.4713 C   0  0  0  0  0  0  0  0  0  0  0  0
   12.1989  -15.5175   24.6863 C   0  0  0  0  0  0  0  0  0  0  0  0
   12.6442  -16.8638   25.0732 O   0  0  0  0  0  0  0  0  0  0  0  0
   13.9487  -17.2183   25.3744 O   0  0  0  0  0  0  0  0  0  0  0  0
  2  1  1  1
  2  5  1  0
  2  3  1  0
  3  4  1  0
  5  6  2  0
  7  8  1  0
  8  9  2  0
  8 10  1  0
 10 11  1  0
 11 12  1  0
 12 13  1  0
 14 13  1  6
 14 16  1  0
 15  5  1  0
 15 14  1  0
 16 18  1  0
 16 17  2  0
 18 19  1  0
 20 19  1  0
 20 21  1  0
 22 20  2  0
M  END
$$$$
