CRG.pdb
     RDKit          3D

 22 21  0  0  1  0  0  0  0  0999 V2000
   10.3105  -25.2964   30.9376 N   0  0  0  0  0  0  0  0  0  0  0  0
   11.7246  -25.4669   31.1266 C   0  0  1  0  0  0  0  0  0  0  0  0
   12.4462  -24.7131   30.0254 C   0  0  0  0  0  0  0  0  0  0  0  0
   12.2406  -25.5596   28.4484 S   0  0  0  0  0  0  0  0  0  0  0  0
   12.1697  -24.8607   32.4248 C   0  0  0  0  0  0  0  0  0  0  0  0
   11.5180  -23.8991   32.9387 O   0  0  0  0  0  0  0  0  0  0  0  0
   12.6106  -28.2608   39.7466 N   0  0  0  0  0  0  0  0  0  0  0  0
   13.5045  -27.1990   40.0579 C   0  0  0  0  0  0  0  0  0  0  0  0
   13.8972  -26.9357   41.2487 N   0  0  0  0  0  0  0  0  0  0  0  0
   13.9672  -26.4056   38.9541 N   0  0  0  0  0  0  0  0  0  0  0  0
   13.4684  -26.6516   37.6404 C   0  0  0  0  0  0  0  0  0  0  0  0
   13.9991  -25.5486   36.7250 C   0  0  0  0  0  0  0  0  0  0  0  0
   13.5684  -25.9100   35.3362 C   0  0  0  0  0  0  0  0  0  0  0  0
   13.8068  -24.8509   34.3083 C   0  0  2  0  0  0  0  0  0  0  0  0
   13.3244  -25.3993   33.0353 N   0  0  0  0  0  0  0  0  0  0  0  0
   15.2280  -24.5478   34.1697 C   0  0  0  0  0  0  0  0  0  0  0  0
   16.0091  -25.4091   33.7014 O   0  0  0  0  0  0  0  0  0  0  0  0
   14.5673  -26.1380   41.3927 N   0  0  0  0  0  0  0  0  0  0  0  0
   15.7549  -23.2692   34.5635 C   0  0  0  0  0  0  0  0  0  0  0  0
   17.1703  -23.0722   34.3868 C   0  0  0  0  0  0  0  0  0  0  0  0
   17.9728  -23.5862   35.5058 O   0  0  0  0  0  0  0  0  0  0  0  0
   19.3497  -23.4845   35.6148 O   0  0  0  0  0  0  0  0  0  0  0  0
  2  1  1  6
  2  5  1  0
  2  3  1  0
  3  4  1  0
  5  6  2  0
  7  8  1  0
  8  9  2  0
  8 10  1  0
 10 11  1  0
 11 12  1  0
 12 13  1  0
 14 13  1  1
 14 16  1  0
 15  5  1  0
 15 14  1  0
 16 18  1  0
 16 17  2  0
 18 19  1  0
 20 19  1  0
 20 21  1  0
 22 20  2  0
M  END
$$$$
