DDH.pdb
     RDKit          3D

 27 27  0  0  1  0  0  0  0  0999 V2000
   15.4481  -13.2510  -13.3113 N   0  0  0  0  0  0  0  0  0  0  0  0
   14.8523  -11.9532  -13.2347 C   0  0  1  0  0  0  0  0  0  0  0  0
   13.4976  -12.1695  -12.5364 C   0  0  0  0  0  0  0  0  0  0  0  0
   12.6967  -13.0116  -13.4571 C   0  0  0  0  0  0  0  0  0  0  0  0
   12.4134  -14.1661  -13.0623 O   0  0  0  0  0  0  0  0  0  0  0  0
   15.6474  -10.9399  -12.5333 C   0  0  0  0  0  0  0  0  0  0  0  0
   16.1194  -11.1996  -11.3854 O   0  0  0  0  0  0  0  0  0  0  0  0
   12.2883  -12.5398  -14.6787 O   0  0  0  0  0  0  0  0  0  0  0  0
   15.9423   -9.6548  -13.0437 N   0  0  0  0  0  0  0  0  0  0  0  0
   16.8923   -8.7534  -12.3645 C   0  0  1  0  0  0  0  0  0  0  0  0
   17.7848   -8.1780  -13.3931 C   0  0  0  0  0  0  0  0  0  0  0  0
   18.7463   -9.0857  -14.0242 C   0  0  0  0  0  0  0  0  0  0  0  0
   19.4328   -9.8131  -13.2534 O   0  0  0  0  0  0  0  0  0  0  0  0
   16.1048   -7.7760  -11.5711 C   0  0  0  0  0  0  0  0  0  0  0  0
   15.1663   -7.0876  -12.0406 O   0  0  0  0  0  0  0  0  0  0  0  0
   18.9553   -9.2040  -15.3710 O   0  0  0  0  0  0  0  0  0  0  0  0
   16.3768   -7.5584  -10.1964 N   0  0  0  0  0  0  0  0  0  0  0  0
   15.7894   -6.5118   -9.3834 C   0  0  1  0  0  0  0  0  0  0  0  0
   15.1710   -7.0100   -8.1423 C   0  0  0  0  0  0  0  0  0  0  0  0
   13.8998   -7.7007   -8.4319 C   0  0  0  0  0  0  0  0  0  0  0  0
   13.2022   -7.8501   -9.6060 C   0  0  0  0  0  0  0  0  0  0  0  0
   12.0707   -8.5281   -9.3486 N   0  0  0  0  0  0  0  0  0  0  0  0
   12.0253   -8.8167   -8.0425 C   0  0  0  0  0  0  0  0  0  0  0  0
   13.1271   -8.3189   -7.4847 N   0  0  0  0  0  0  0  0  0  0  0  0
   16.8857   -5.5715   -9.0761 C   0  0  0  0  0  0  0  0  0  0  0  0
   16.6823   -4.3409   -8.4234 O   0  0  0  0  0  0  0  0  0  0  0  0
   18.0644   -5.8420   -9.3948 O   0  0  0  0  0  0  0  0  0  0  0  0
  2  1  1  1
  2  3  1  0
  3  4  1  0
  4  8  1  0
  5  4  2  0
  6  7  2  0
  6  2  1  0
  9  6  1  0
 10  9  1  0
 10 11  1  6
 12 13  2  0
 12 11  1  0
 14 17  1  0
 14 10  1  0
 15 14  2  0
 16 12  1  0
 18 17  1  0
 18 25  1  0
 18 19  1  1
 20 19  1  0
 21 20  2  0
 22 21  1  0
 23 22  1  0
 23 24  2  0
 24 20  1  0
 25 27  2  0
 25 26  1  0
M  END
$$$$
