DDH.pdb
     RDKit          3D

 27 27  0  0  1  0  0  0  0  0999 V2000
   27.5038  -21.2755  -12.0935 N   0  0  0  0  0  0  0  0  0  0  0  0
   26.1413  -21.1353  -11.6822 C   0  0  1  0  0  0  0  0  0  0  0  0
   26.1872  -20.2534  -10.4213 C   0  0  0  0  0  0  0  0  0  0  0  0
   27.1918  -20.8769   -9.5268 C   0  0  0  0  0  0  0  0  0  0  0  0
   27.8656  -21.8181  -10.0054 O   0  0  0  0  0  0  0  0  0  0  0  0
   25.2393  -20.5647  -12.6881 C   0  0  0  0  0  0  0  0  0  0  0  0
   24.3206  -19.7696  -12.3251 O   0  0  0  0  0  0  0  0  0  0  0  0
   27.3694  -20.4360   -8.2399 O   0  0  0  0  0  0  0  0  0  0  0  0
   25.3076  -20.8346  -14.0742 N   0  0  0  0  0  0  0  0  0  0  0  0
   24.3887  -20.1915  -15.0324 C   0  0  1  0  0  0  0  0  0  0  0  0
   25.1507  -19.9009  -16.2654 C   0  0  0  0  0  0  0  0  0  0  0  0
   26.4306  -19.2051  -16.1091 C   0  0  0  0  0  0  0  0  0  0  0  0
   26.3894  -18.0397  -15.6245 O   0  0  0  0  0  0  0  0  0  0  0  0
   23.2079  -21.0772  -15.1952 C   0  0  0  0  0  0  0  0  0  0  0  0
   23.2550  -22.3287  -15.1142 O   0  0  0  0  0  0  0  0  0  0  0  0
   27.6544  -19.7159  -16.4451 O   0  0  0  0  0  0  0  0  0  0  0  0
   21.9211  -20.5428  -15.4596 N   0  0  0  0  0  0  0  0  0  0  0  0
   20.6842  -21.0071  -14.8629 C   0  0  1  0  0  0  0  0  0  0  0  0
   20.6933  -20.9712  -13.3899 C   0  0  0  0  0  0  0  0  0  0  0  0
   19.3936  -21.4113  -12.8479 C   0  0  0  0  0  0  0  0  0  0  0  0
   18.2233  -21.7554  -13.4799 C   0  0  0  0  0  0  0  0  0  0  0  0
   17.3015  -22.0457  -12.5459 N   0  0  0  0  0  0  0  0  0  0  0  0
   17.8498  -21.8971  -11.3341 C   0  0  0  0  0  0  0  0  0  0  0  0
   19.1127  -21.5138  -11.5111 N   0  0  0  0  0  0  0  0  0  0  0  0
   19.6213  -20.1324  -15.3971 C   0  0  0  0  0  0  0  0  0  0  0  0
   19.8844  -19.0027  -16.1950 O   0  0  0  0  0  0  0  0  0  0  0  0
   18.4182  -20.3699  -15.1517 O   0  0  0  0  0  0  0  0  0  0  0  0
  2  1  1  6
  2  3  1  0
  3  4  1  0
  4  8  1  0
  5  4  2  0
  6  7  2  0
  6  2  1  0
  9  6  1  0
 10  9  1  0
 10 11  1  6
 12 13  2  0
 12 11  1  0
 14 17  1  0
 14 10  1  0
 15 14  2  0
 16 12  1  0
 18 17  1  0
 18 25  1  0
 18 19  1  1
 20 19  1  0
 21 20  2  0
 22 21  1  0
 23 22  1  0
 23 24  2  0
 24 20  1  0
 25 27  2  0
 25 26  1  0
M  END
$$$$
