DDH.pdb
     RDKit          3D

 27 27  0  0  1  0  0  0  0  0999 V2000
   18.3850  -12.4579  -17.0501 N   0  0  0  0  0  0  0  0  0  0  0  0
   18.7255  -11.5873  -18.1324 C   0  0  1  0  0  0  0  0  0  0  0  0
   17.7831  -11.9835  -19.2833 C   0  0  0  0  0  0  0  0  0  0  0  0
   16.4144  -11.9575  -18.7138 C   0  0  0  0  0  0  0  0  0  0  0  0
   15.5299  -11.3934  -19.3982 O   0  0  0  0  0  0  0  0  0  0  0  0
   18.6210  -10.1541  -17.8394 C   0  0  0  0  0  0  0  0  0  0  0  0
   18.9572   -9.3089  -18.7231 O   0  0  0  0  0  0  0  0  0  0  0  0
   16.1393  -12.5283  -17.4972 O   0  0  0  0  0  0  0  0  0  0  0  0
   18.1631   -9.6152  -16.6151 N   0  0  0  0  0  0  0  0  0  0  0  0
   18.2116   -8.1662  -16.3428 C   0  0  1  0  0  0  0  0  0  0  0  0
   17.1314   -7.8491  -15.3847 C   0  0  0  0  0  0  0  0  0  0  0  0
   17.0591   -6.4704  -14.8945 C   0  0  0  0  0  0  0  0  0  0  0  0
   16.7985   -5.5760  -15.7471 O   0  0  0  0  0  0  0  0  0  0  0  0
   19.5888   -7.8322  -15.8990 C   0  0  0  0  0  0  0  0  0  0  0  0
   20.4950   -8.6835  -15.7280 O   0  0  0  0  0  0  0  0  0  0  0  0
   17.2508   -6.0816  -13.5969 O   0  0  0  0  0  0  0  0  0  0  0  0
   19.9695   -6.4919  -15.6350 N   0  0  0  0  0  0  0  0  0  0  0  0
   21.3268   -5.9845  -15.6774 C   0  0  1  0  0  0  0  0  0  0  0  0
   22.0056   -6.2306  -16.9618 C   0  0  0  0  0  0  0  0  0  0  0  0
   23.3685   -5.6655  -16.9500 C   0  0  0  0  0  0  0  0  0  0  0  0
   24.2467   -5.4519  -15.9154 C   0  0  0  0  0  0  0  0  0  0  0  0
   25.3541   -4.8700  -16.4068 N   0  0  0  0  0  0  0  0  0  0  0  0
   25.2085   -4.7057  -17.7271 C   0  0  0  0  0  0  0  0  0  0  0  0
   24.0112   -5.1840  -18.0597 N   0  0  0  0  0  0  0  0  0  0  0  0
   21.2280   -4.5354  -15.4116 C   0  0  0  0  0  0  0  0  0  0  0  0
   20.1895   -3.7304  -15.9171 O   0  0  0  0  0  0  0  0  0  0  0  0
   22.0870   -3.9568  -14.7107 O   0  0  0  0  0  0  0  0  0  0  0  0
  2  1  1  1
  2  3  1  0
  3  4  1  0
  4  8  1  0
  5  4  2  0
  6  7  2  0
  6  2  1  0
  9  6  1  0
 10  9  1  0
 10 11  1  1
 12 13  2  0
 12 11  1  0
 14 17  1  0
 14 10  1  0
 15 14  2  0
 16 12  1  0
 18 17  1  0
 18 25  1  0
 18 19  1  6
 20 19  1  0
 21 20  2  0
 22 21  1  0
 23 22  1  0
 23 24  2  0
 24 20  1  0
 25 27  2  0
 25 26  1  0
M  END
$$$$
