DDH.pdb
     RDKit          3D

 27 27  0  0  1  0  0  0  0  0999 V2000
   17.8313  -12.7171  -17.2780 N   0  0  0  0  0  0  0  0  0  0  0  0
   17.6514  -11.3067  -17.1251 C   0  0  1  0  0  0  0  0  0  0  0  0
   16.6336  -11.1494  -15.9809 C   0  0  0  0  0  0  0  0  0  0  0  0
   15.3411  -11.6385  -16.5180 C   0  0  0  0  0  0  0  0  0  0  0  0
   14.9268  -11.0979  -17.5692 O   0  0  0  0  0  0  0  0  0  0  0  0
   18.8741  -10.5462  -16.8468 C   0  0  0  0  0  0  0  0  0  0  0  0
   19.7352  -11.0182  -16.0444 O   0  0  0  0  0  0  0  0  0  0  0  0
   14.6413  -12.6365  -15.8886 O   0  0  0  0  0  0  0  0  0  0  0  0
   19.1857   -9.2894  -17.4145 N   0  0  0  0  0  0  0  0  0  0  0  0
   20.3781   -8.5277  -16.9971 C   0  0  1  0  0  0  0  0  0  0  0  0
   20.7860   -7.6690  -18.1292 C   0  0  0  0  0  0  0  0  0  0  0  0
   21.3147   -8.3413  -19.3187 C   0  0  0  0  0  0  0  0  0  0  0  0
   22.2213   -9.2002  -19.1313 O   0  0  0  0  0  0  0  0  0  0  0  0
   20.0470   -7.8197  -15.7345 C   0  0  0  0  0  0  0  0  0  0  0  0
   18.9552   -7.2376  -15.5238 O   0  0  0  0  0  0  0  0  0  0  0  0
   20.9058   -8.1120  -20.6039 O   0  0  0  0  0  0  0  0  0  0  0  0
   20.9738   -7.7593  -14.6627 N   0  0  0  0  0  0  0  0  0  0  0  0
   20.7415   -7.1000  -13.3928 C   0  0  1  0  0  0  0  0  0  0  0  0
   21.4610   -7.7227  -12.2678 C   0  0  0  0  0  0  0  0  0  0  0  0
   21.2525   -6.9558  -11.0247 C   0  0  0  0  0  0  0  0  0  0  0  0
   20.1897   -6.9205  -10.1549 C   0  0  0  0  0  0  0  0  0  0  0  0
   20.4579   -6.0275   -9.1870 N   0  0  0  0  0  0  0  0  0  0  0  0
   21.6629   -5.4908   -9.4135 C   0  0  0  0  0  0  0  0  0  0  0  0
   22.1464   -6.0477  -10.5221 N   0  0  0  0  0  0  0  0  0  0  0  0
   21.1753   -5.7004  -13.5756 C   0  0  0  0  0  0  0  0  0  0  0  0
   20.5093   -4.6068  -12.9902 O   0  0  0  0  0  0  0  0  0  0  0  0
   22.1751   -5.4302  -14.2765 O   0  0  0  0  0  0  0  0  0  0  0  0
  2  1  1  1
  2  3  1  0
  3  4  1  0
  4  8  1  0
  5  4  2  0
  6  7  2  0
  6  2  1  0
  9  6  1  0
 10  9  1  0
 10 11  1  6
 12 13  2  0
 12 11  1  0
 14 17  1  0
 14 10  1  0
 15 14  2  0
 16 12  1  0
 18 17  1  0
 18 25  1  0
 18 19  1  1
 20 19  1  0
 21 20  2  0
 22 21  1  0
 23 22  1  0
 23 24  2  0
 24 20  1  0
 25 27  2  0
 25 26  1  0
M  END
$$$$
