DDH.pdb
     RDKit          3D

 27 27  0  0  1  0  0  0  0  0999 V2000
   24.5683   -7.4364  -20.0646 N   0  0  0  0  0  0  0  0  0  0  0  0
   25.3250   -6.8233  -19.0174 C   0  0  1  0  0  0  0  0  0  0  0  0
   25.6610   -5.4121  -19.5326 C   0  0  0  0  0  0  0  0  0  0  0  0
   25.2545   -5.3936  -20.9584 C   0  0  0  0  0  0  0  0  0  0  0  0
   24.0304   -5.5103  -21.1970 O   0  0  0  0  0  0  0  0  0  0  0  0
   24.6539   -6.7595  -17.7150 C   0  0  0  0  0  0  0  0  0  0  0  0
   25.2974   -6.3582  -16.6987 O   0  0  0  0  0  0  0  0  0  0  0  0
   26.1808   -5.2526  -21.9603 O   0  0  0  0  0  0  0  0  0  0  0  0
   23.3059   -7.1199  -17.4869 N   0  0  0  0  0  0  0  0  0  0  0  0
   22.6624   -6.9130  -16.1757 C   0  0  1  0  0  0  0  0  0  0  0  0
   22.8000   -5.4837  -15.8242 C   0  0  0  0  0  0  0  0  0  0  0  0
   22.1088   -5.0250  -14.6166 C   0  0  0  0  0  0  0  0  0  0  0  0
   21.8552   -3.7903  -14.5402 O   0  0  0  0  0  0  0  0  0  0  0  0
   21.2718   -7.4264  -16.2650 C   0  0  0  0  0  0  0  0  0  0  0  0
   20.4568   -7.0885  -17.1576 O   0  0  0  0  0  0  0  0  0  0  0  0
   21.7213   -5.8238  -13.5758 O   0  0  0  0  0  0  0  0  0  0  0  0
   20.7707   -8.3554  -15.3179 N   0  0  0  0  0  0  0  0  0  0  0  0
   19.6414   -9.2392  -15.5304 C   0  0  1  0  0  0  0  0  0  0  0  0
   19.8741  -10.6139  -15.0541 C   0  0  0  0  0  0  0  0  0  0  0  0
   18.6852  -11.4563  -15.2864 C   0  0  0  0  0  0  0  0  0  0  0  0
   17.5951  -11.2717  -16.1018 C   0  0  0  0  0  0  0  0  0  0  0  0
   16.7528  -12.3050  -15.9311 N   0  0  0  0  0  0  0  0  0  0  0  0
   17.2740  -13.1453  -15.0293 C   0  0  0  0  0  0  0  0  0  0  0  0
   18.4404  -12.6372  -14.6367 N   0  0  0  0  0  0  0  0  0  0  0  0
   18.5049   -8.6267  -14.8138 C   0  0  0  0  0  0  0  0  0  0  0  0
   18.6195   -8.0667  -13.5273 O   0  0  0  0  0  0  0  0  0  0  0  0
   17.3703   -8.5841  -15.3380 O   0  0  0  0  0  0  0  0  0  0  0  0
  2  1  1  6
  2  3  1  0
  3  4  1  0
  4  8  1  0
  5  4  2  0
  6  7  2  0
  6  2  1  0
  9  6  1  0
 10  9  1  0
 10 11  1  6
 12 13  2  0
 12 11  1  0
 14 17  1  0
 14 10  1  0
 15 14  2  0
 16 12  1  0
 18 17  1  0
 18 25  1  0
 18 19  1  1
 20 19  1  0
 21 20  2  0
 22 21  1  0
 23 22  1  0
 23 24  2  0
 24 20  1  0
 25 27  2  0
 25 26  1  0
M  END
$$$$
