DDH.pdb
     RDKit          3D

 27 27  0  0  1  0  0  0  0  0999 V2000
   17.7273  -12.1758  -16.2973 N   0  0  0  0  0  0  0  0  0  0  0  0
   17.5275  -10.7631  -16.1994 C   0  0  1  0  0  0  0  0  0  0  0  0
   16.6182  -10.5663  -14.9730 C   0  0  0  0  0  0  0  0  0  0  0  0
   15.2309  -10.5467  -15.4959 C   0  0  0  0  0  0  0  0  0  0  0  0
   14.9365  -11.4189  -16.3454 O   0  0  0  0  0  0  0  0  0  0  0  0
   18.7517   -9.9648  -16.0774 C   0  0  0  0  0  0  0  0  0  0  0  0
   19.6657  -10.3389  -15.2820 O   0  0  0  0  0  0  0  0  0  0  0  0
   14.3205   -9.6166  -15.0626 O   0  0  0  0  0  0  0  0  0  0  0  0
   19.0091   -8.7734  -16.7939 N   0  0  0  0  0  0  0  0  0  0  0  0
   20.2923   -8.0571  -16.6659 C   0  0  1  0  0  0  0  0  0  0  0  0
   20.6950   -7.6052  -18.0146 C   0  0  0  0  0  0  0  0  0  0  0  0
   21.1113   -8.6381  -18.9667 C   0  0  0  0  0  0  0  0  0  0  0  0
   21.8300   -9.5728  -18.5144 O   0  0  0  0  0  0  0  0  0  0  0  0
   20.1175   -6.9877  -15.6506 C   0  0  0  0  0  0  0  0  0  0  0  0
   19.2389   -6.0941  -15.7192 O   0  0  0  0  0  0  0  0  0  0  0  0
   20.7846   -8.6670  -20.2948 O   0  0  0  0  0  0  0  0  0  0  0  0
   20.9590   -6.9131  -14.5115 N   0  0  0  0  0  0  0  0  0  0  0  0
   20.9224   -5.8635  -13.5123 C   0  0  1  0  0  0  0  0  0  0  0  0
   20.9784   -6.3677  -12.1289 C   0  0  0  0  0  0  0  0  0  0  0  0
   19.7230   -7.0557  -11.7717 C   0  0  0  0  0  0  0  0  0  0  0  0
   18.5825   -7.2867  -12.5019 C   0  0  0  0  0  0  0  0  0  0  0  0
   17.6932   -7.9202  -11.7182 N   0  0  0  0  0  0  0  0  0  0  0  0
   18.2334   -8.1008  -10.5071 C   0  0  0  0  0  0  0  0  0  0  0  0
   19.4586   -7.5802  -10.5342 N   0  0  0  0  0  0  0  0  0  0  0  0
   22.0807   -4.9923  -13.7947 C   0  0  0  0  0  0  0  0  0  0  0  0
   22.3310   -3.7962  -13.0956 O   0  0  0  0  0  0  0  0  0  0  0  0
   22.9007   -5.2937  -14.6894 O   0  0  0  0  0  0  0  0  0  0  0  0
  2  1  1  1
  2  3  1  0
  3  4  1  0
  4  8  1  0
  5  4  2  0
  6  7  2  0
  6  2  1  0
  9  6  1  0
 10  9  1  0
 10 11  1  6
 12 13  2  0
 12 11  1  0
 14 17  1  0
 14 10  1  0
 15 14  2  0
 16 12  1  0
 18 17  1  0
 18 25  1  0
 18 19  1  1
 20 19  1  0
 21 20  2  0
 22 21  1  0
 23 22  1  0
 23 24  2  0
 24 20  1  0
 25 27  2  0
 25 26  1  0
M  END
$$$$
