RCW.pdb
     RDKit          3D

 32 33  0  0  1  0  0  0  0  0999 V2000
    7.6479  -13.2368   15.4951 N   0  0  0  0  0  0  0  0  0  0  0  0
    8.8207  -13.6703   16.1270 C   0  0  0  0  0  0  0  0  0  0  0  0
    9.5344  -14.6466   15.6214 N   0  0  0  0  0  0  0  0  0  0  0  0
    9.2813  -13.0703   17.3347 N   0  0  0  0  0  0  0  0  0  0  0  0
    8.4796  -13.0222   18.5213 C   0  0  0  0  0  0  0  0  0  0  0  0
    7.3520  -14.0054   18.5764 C   0  0  0  0  0  0  0  0  0  0  0  0
    7.2448  -14.7468   19.8644 C   0  0  0  0  0  0  0  0  0  0  0  0
    8.5621  -15.4623   20.1964 C   0  0  2  0  0  0  0  0  0  0  0  0
    8.7615  -16.4566   19.1682 N   0  0  0  0  0  0  0  0  0  0  0  0
    8.3979  -16.1008   21.5274 C   0  0  0  0  0  0  0  0  0  0  0  0
    7.6663  -15.5915   22.4138 O   0  0  0  0  0  0  0  0  0  0  0  0
   10.4130  -14.8885   16.1144 N   0  0  0  0  0  0  0  0  0  0  0  0
    9.0834  -17.3301   21.8288 C   0  0  2  0  0  0  0  0  0  0  0  0
    8.9455  -18.0084   23.1130 C   0  0  0  0  0  0  0  0  0  0  0  0
    9.3679  -19.4403   22.9685 S   0  0  0  0  0  0  0  0  0  0  0  0
    9.2317  -20.2030   24.6293 C   0  0  0  0  0  0  0  0  0  0  0  0
    9.8219  -17.2769   24.0750 O   0  0  0  0  0  0  0  0  0  0  0  0
   11.0009  -16.9098   23.7431 N   0  0  0  0  0  0  0  0  0  0  0  0
    9.4388  -16.9391   25.3868 C   0  0  1  0  0  0  0  0  0  0  0  0
   10.3629  -16.3632   26.3350 C   0  0  0  0  0  0  0  0  0  0  0  0
    9.8176  -15.1193   26.9895 C   0  0  0  0  0  0  0  0  0  0  0  0
    8.4254  -14.8249   26.6642 C   0  0  0  0  0  0  0  0  0  0  0  0
    7.4145  -15.7118   26.4007 N   0  0  0  0  0  0  0  0  0  0  0  0
    6.3016  -15.0127   26.1529 C   0  0  0  0  0  0  0  0  0  0  0  0
    6.5564  -13.6962   26.2467 C   0  0  0  0  0  0  0  0  0  0  0  0
    5.7697  -12.5585   26.0867 C   0  0  0  0  0  0  0  0  0  0  0  0
    6.3094  -11.3064   26.2461 C   0  0  0  0  0  0  0  0  0  0  0  0
    7.6389  -11.1488   26.5674 C   0  0  0  0  0  0  0  0  0  0  0  0
    8.4006  -12.2804   26.7216 C   0  0  0  0  0  0  0  0  0  0  0  0
    7.8900  -13.5598   26.5684 C   0  0  0  0  0  0  0  0  0  0  0  0
   10.6395  -17.3226   27.4602 O   0  0  0  0  0  0  0  0  0  0  0  0
   10.0321  -18.4132   27.5461 O   0  0  0  0  0  0  0  0  0  0  0  0
  1  2  1  0
  2  3  2  0
  4  5  1  0
  4  2  1  0
  6  5  1  0
  7  6  1  0
  8 10  1  0
  8  7  1  0
  8  9  1  6
 10 11  2  0
 12 13  1  0
 12 10  1  0
 13 16  1  0
 13 14  1  6
 15 14  1  0
 16 17  2  0
 18 16  1  0
 18 19  1  0
 19 30  1  0
 19 20  1  1
 21 29  1  0
 21 20  1  0
 22 21  2  0
 23 22  1  0
 23 24  1  0
 24 25  1  0
 24 29  2  0
 25 26  2  0
 26 27  1  0
 28 27  2  0
 29 28  1  0
 30 31  2  0
 30 32  1  0
M  END
$$$$
