RCW.pdb
     RDKit          3D

 32 33  0  0  1  0  0  0  0  0999 V2000
    7.5324  -13.0007   15.6897 N   0  0  0  0  0  0  0  0  0  0  0  0
    8.3793  -13.9418   16.2895 C   0  0  0  0  0  0  0  0  0  0  0  0
    8.4966  -15.1504   15.7961 N   0  0  0  0  0  0  0  0  0  0  0  0
    9.1425  -13.6238   17.4502 N   0  0  0  0  0  0  0  0  0  0  0  0
    8.5315  -13.3267   18.7118 C   0  0  0  0  0  0  0  0  0  0  0  0
    7.3412  -14.1638   19.0635 C   0  0  0  0  0  0  0  0  0  0  0  0
    7.4683  -14.9038   20.3505 C   0  0  0  0  0  0  0  0  0  0  0  0
    8.5103  -16.0258   20.2373 C   0  0  2  0  0  0  0  0  0  0  0  0
    8.0415  -16.9210   19.2056 N   0  0  0  0  0  0  0  0  0  0  0  0
    8.5666  -16.7143   21.5521 C   0  0  0  0  0  0  0  0  0  0  0  0
    7.5665  -17.3132   22.0226 O   0  0  0  0  0  0  0  0  0  0  0  0
    9.1927  -15.7736   16.2438 N   0  0  0  0  0  0  0  0  0  0  0  0
    9.7840  -16.7070   22.3203 C   0  0  1  0  0  0  0  0  0  0  0  0
    9.9748  -17.5545   23.4924 C   0  0  0  0  0  0  0  0  0  0  0  0
   11.1153  -18.4968   23.2459 S   0  0  0  0  0  0  0  0  0  0  0  0
   12.5423  -17.4749   22.7187 C   0  0  0  0  0  0  0  0  0  0  0  0
   10.2628  -16.6385   24.6354 O   0  0  0  0  0  0  0  0  0  0  0  0
   10.9861  -15.5960   24.4772 N   0  0  0  0  0  0  0  0  0  0  0  0
    9.7791  -16.8365   25.9425 C   0  0  1  0  0  0  0  0  0  0  0  0
   10.3701  -16.1878   27.0891 C   0  0  0  0  0  0  0  0  0  0  0  0
    9.3978  -15.2866   27.8069 C   0  0  0  0  0  0  0  0  0  0  0  0
    8.1767  -14.9973   27.0611 C   0  0  0  0  0  0  0  0  0  0  0  0
    7.2272  -15.8820   26.6207 N   0  0  0  0  0  0  0  0  0  0  0  0
    6.2775  -15.1895   25.9826 C   0  0  0  0  0  0  0  0  0  0  0  0
    6.5792  -13.8796   25.9935 C   0  0  0  0  0  0  0  0  0  0  0  0
    5.9447  -12.7503   25.4825 C   0  0  0  0  0  0  0  0  0  0  0  0
    6.4963  -11.5039   25.6456 C   0  0  0  0  0  0  0  0  0  0  0  0
    7.6875  -11.3438   26.3173 C   0  0  0  0  0  0  0  0  0  0  0  0
    8.3000  -12.4670   26.8148 C   0  0  0  0  0  0  0  0  0  0  0  0
    7.7727  -13.7406   26.6691 C   0  0  0  0  0  0  0  0  0  0  0  0
   10.8075  -17.2030   28.1095 O   0  0  0  0  0  0  0  0  0  0  0  0
   11.4571  -16.8640   29.1239 O   0  0  0  0  0  0  0  0  0  0  0  0
  1  2  1  0
  2  3  2  0
  4  5  1  0
  4  2  1  0
  6  5  1  0
  7  6  1  0
  8 10  1  0
  8  7  1  0
  8  9  1  6
 10 11  2  0
 12 13  1  0
 12 10  1  0
 13 16  1  0
 13 14  1  6
 15 14  1  0
 16 17  2  0
 18 16  1  0
 18 19  1  0
 19 30  1  0
 19 20  1  1
 21 29  1  0
 21 20  1  0
 22 21  2  0
 23 22  1  0
 23 24  1  0
 24 25  1  0
 24 29  2  0
 25 26  2  0
 26 27  1  0
 28 27  2  0
 29 28  1  0
 30 31  2  0
 30 32  1  0
M  END
$$$$
