RCW.pdb
     RDKit          3D

 32 33  0  0  1  0  0  0  0  0999 V2000
   11.0404  -13.6565   19.0519 N   0  0  0  0  0  0  0  0  0  0  0  0
    9.8799  -13.1770   18.4305 C   0  0  0  0  0  0  0  0  0  0  0  0
    9.5837  -11.9004   18.4549 N   0  0  0  0  0  0  0  0  0  0  0  0
    8.9833  -14.0516   17.7510 N   0  0  0  0  0  0  0  0  0  0  0  0
    7.6368  -14.2636   18.1928 C   0  0  0  0  0  0  0  0  0  0  0  0
    7.4066  -14.0902   19.6619 C   0  0  0  0  0  0  0  0  0  0  0  0
    6.5580  -15.1471   20.2804 C   0  0  0  0  0  0  0  0  0  0  0  0
    7.0802  -16.5468   19.9260 C   0  0  2  0  0  0  0  0  0  0  0  0
    5.9892  -17.2439   19.2862 N   0  0  0  0  0  0  0  0  0  0  0  0
    7.4632  -17.2133   21.1970 C   0  0  0  0  0  0  0  0  0  0  0  0
    6.5976  -17.6777   21.9813 O   0  0  0  0  0  0  0  0  0  0  0  0
    8.6967  -11.6166   18.0011 N   0  0  0  0  0  0  0  0  0  0  0  0
    8.8512  -17.3399   21.5569 C   0  0  2  0  0  0  0  0  0  0  0  0
    9.2894  -18.0767   22.7374 C   0  0  0  0  0  0  0  0  0  0  0  0
   10.2751  -19.1311   22.3296 S   0  0  0  0  0  0  0  0  0  0  0  0
   10.9913  -19.8119   23.8729 C   0  0  0  0  0  0  0  0  0  0  0  0
    9.9109  -17.0765   23.6549 O   0  0  0  0  0  0  0  0  0  0  0  0
   10.8093  -16.2685   23.2364 N   0  0  0  0  0  0  0  0  0  0  0  0
    9.5727  -16.9405   25.0146 C   0  0  1  0  0  0  0  0  0  0  0  0
   10.4202  -16.2437   25.9533 C   0  0  0  0  0  0  0  0  0  0  0  0
    9.8108  -14.9501   26.4306 C   0  0  0  0  0  0  0  0  0  0  0  0
    8.3513  -14.9422   26.4579 C   0  0  0  0  0  0  0  0  0  0  0  0
    7.5011  -16.0169   26.4391 N   0  0  0  0  0  0  0  0  0  0  0  0
    6.2464  -15.5555   26.4779 C   0  0  0  0  0  0  0  0  0  0  0  0
    6.2528  -14.2119   26.5213 C   0  0  0  0  0  0  0  0  0  0  0  0
    5.2431  -13.2543   26.5705 C   0  0  0  0  0  0  0  0  0  0  0  0
    5.5488  -11.9165   26.6073 C   0  0  0  0  0  0  0  0  0  0  0  0
    6.8590  -11.4934   26.5964 C   0  0  0  0  0  0  0  0  0  0  0  0
    7.8422  -12.4500   26.5478 C   0  0  0  0  0  0  0  0  0  0  0  0
    7.5711  -13.8088   26.5095 C   0  0  0  0  0  0  0  0  0  0  0  0
   10.6354  -17.0694   27.1922 O   0  0  0  0  0  0  0  0  0  0  0  0
    9.9820  -18.1173   27.3943 O   0  0  0  0  0  0  0  0  0  0  0  0
  1  2  1  0
  2  3  2  0
  4  5  1  0
  4  2  1  0
  6  5  1  0
  7  6  1  0
  8 10  1  0
  8  7  1  0
  8  9  1  1
 10 11  2  0
 12 13  1  0
 12 10  1  0
 13 16  1  0
 13 14  1  6
 15 14  1  0
 16 17  2  0
 18 16  1  0
 18 19  1  0
 19 30  1  0
 19 20  1  1
 21 29  1  0
 21 20  1  0
 22 21  2  0
 23 22  1  0
 23 24  1  0
 24 25  1  0
 24 29  2  0
 25 26  2  0
 26 27  1  0
 28 27  2  0
 29 28  1  0
 30 31  2  0
 30 32  1  0
M  END
$$$$
