RCW.pdb
     RDKit          3D

 32 33  0  0  1  0  0  0  0  0999 V2000
    7.7631  -21.2444   17.8393 N   0  0  0  0  0  0  0  0  0  0  0  0
    8.3417  -21.6909   16.6441 C   0  0  0  0  0  0  0  0  0  0  0  0
    7.6794  -22.4758   15.8296 N   0  0  0  0  0  0  0  0  0  0  0  0
    9.6627  -21.3107   16.2687 N   0  0  0  0  0  0  0  0  0  0  0  0
   10.5384  -20.6036   17.1555 C   0  0  0  0  0  0  0  0  0  0  0  0
   10.0452  -19.2676   17.6171 C   0  0  0  0  0  0  0  0  0  0  0  0
   11.0313  -18.4924   18.4213 C   0  0  0  0  0  0  0  0  0  0  0  0
   10.7118  -18.5869   19.9202 C   0  0  2  0  0  0  0  0  0  0  0  0
    9.5406  -19.4234   20.0398 N   0  0  0  0  0  0  0  0  0  0  0  0
   10.4323  -17.2103   20.4027 C   0  0  0  0  0  0  0  0  0  0  0  0
   11.3105  -16.3115   20.3672 O   0  0  0  0  0  0  0  0  0  0  0  0
    8.1792  -22.8000   14.9820 N   0  0  0  0  0  0  0  0  0  0  0  0
    9.1335  -16.8779   20.9268 C   0  0  1  0  0  0  0  0  0  0  0  0
    8.8076  -15.5454   21.4233 C   0  0  0  0  0  0  0  0  0  0  0  0
    7.3332  -15.3082   21.2838 S   0  0  0  0  0  0  0  0  0  0  0  0
    6.9920  -13.6571   22.0022 C   0  0  0  0  0  0  0  0  0  0  0  0
    9.2314  -15.5109   22.8543 O   0  0  0  0  0  0  0  0  0  0  0  0
    9.3039  -14.4053   23.4927 N   0  0  0  0  0  0  0  0  0  0  0  0
    9.5760  -16.6542   23.5998 C   0  0  1  0  0  0  0  0  0  0  0  0
    9.7468  -16.6166   25.0331 C   0  0  0  0  0  0  0  0  0  0  0  0
    8.4635  -16.3019   25.7589 C   0  0  0  0  0  0  0  0  0  0  0  0
    8.4858  -15.0529   26.5141 C   0  0  0  0  0  0  0  0  0  0  0  0
    9.3726  -14.6703   27.4864 N   0  0  0  0  0  0  0  0  0  0  0  0
    9.0241  -13.4508   27.9108 C   0  0  0  0  0  0  0  0  0  0  0  0
    7.9364  -13.0266   27.2445 C   0  0  0  0  0  0  0  0  0  0  0  0
    7.1808  -11.8582   27.2974 C   0  0  0  0  0  0  0  0  0  0  0  0
    6.0913  -11.6918   26.4789 C   0  0  0  0  0  0  0  0  0  0  0  0
    5.7229  -12.6756   25.5889 C   0  0  0  0  0  0  0  0  0  0  0  0
    6.4783  -13.8211   25.5493 C   0  0  0  0  0  0  0  0  0  0  0  0
    7.5839  -14.0238   26.3603 C   0  0  0  0  0  0  0  0  0  0  0  0
   10.1856  -17.9582   25.5531 O   0  0  0  0  0  0  0  0  0  0  0  0
   10.5284  -18.1100   26.7470 O   0  0  0  0  0  0  0  0  0  0  0  0
  1  2  1  0
  2  3  2  0
  4  5  1  0
  4  2  1  0
  6  5  1  0
  7  6  1  0
  8 10  1  0
  8  7  1  0
  8  9  1  6
 10 11  2  0
 12 13  1  0
 12 10  1  0
 13 16  1  0
 13 14  1  6
 15 14  1  0
 16 17  2  0
 18 16  1  0
 18 19  1  0
 19 30  1  0
 19 20  1  1
 21 29  1  0
 21 20  1  0
 22 21  2  0
 23 22  1  0
 23 24  1  0
 24 25  1  0
 24 29  2  0
 25 26  2  0
 26 27  1  0
 28 27  2  0
 29 28  1  0
 30 31  2  0
 30 32  1  0
M  END
$$$$
