RCW.pdb
     RDKit          3D

 32 33  0  0  1  0  0  0  0  0999 V2000
    7.3776  -12.9854   15.9617 N   0  0  0  0  0  0  0  0  0  0  0  0
    8.6193  -13.2840   16.5375 C   0  0  0  0  0  0  0  0  0  0  0  0
    9.1399  -12.5039   17.4532 N   0  0  0  0  0  0  0  0  0  0  0  0
    9.3591  -14.4401   16.1543 N   0  0  0  0  0  0  0  0  0  0  0  0
   10.0597  -15.2519   17.1047 C   0  0  0  0  0  0  0  0  0  0  0  0
    9.4093  -15.3774   18.4472 C   0  0  0  0  0  0  0  0  0  0  0  0
    8.4920  -16.5440   18.5795 C   0  0  0  0  0  0  0  0  0  0  0  0
    9.2233  -17.7506   19.1852 C   0  0  2  0  0  0  0  0  0  0  0  0
    8.9972  -18.8613   18.2901 N   0  0  0  0  0  0  0  0  0  0  0  0
    8.6217  -18.0119   20.5178 C   0  0  0  0  0  0  0  0  0  0  0  0
    7.4814  -18.5283   20.6332 O   0  0  0  0  0  0  0  0  0  0  0  0
   10.0429  -12.8023   17.8644 N   0  0  0  0  0  0  0  0  0  0  0  0
    9.3442  -17.6733   21.7159 C   0  0  2  0  0  0  0  0  0  0  0  0
    8.8498  -18.0047   23.0479 C   0  0  0  0  0  0  0  0  0  0  0  0
    8.9200  -19.4891   23.2508 S   0  0  0  0  0  0  0  0  0  0  0  0
   10.6929  -19.9489   23.1880 C   0  0  0  0  0  0  0  0  0  0  0  0
    9.7246  -17.2809   24.0170 O   0  0  0  0  0  0  0  0  0  0  0  0
   10.9944  -17.2588   23.8680 N   0  0  0  0  0  0  0  0  0  0  0  0
    9.2434  -16.5830   25.1409 C   0  0  1  0  0  0  0  0  0  0  0  0
   10.1272  -16.0126   26.1300 C   0  0  0  0  0  0  0  0  0  0  0  0
    9.4241  -15.0345   27.0364 C   0  0  0  0  0  0  0  0  0  0  0  0
    8.0400  -14.7541   26.6669 C   0  0  0  0  0  0  0  0  0  0  0  0
    6.9682  -15.6074   26.6998 N   0  0  0  0  0  0  0  0  0  0  0  0
    5.8901  -14.9378   26.2782 C   0  0  0  0  0  0  0  0  0  0  0  0
    6.2266  -13.6730   25.9712 C   0  0  0  0  0  0  0  0  0  0  0  0
    5.5034  -12.5820   25.4964 C   0  0  0  0  0  0  0  0  0  0  0  0
    6.1228  -11.3790   25.2652 C   0  0  0  0  0  0  0  0  0  0  0  0
    7.4712  -11.2255   25.4978 C   0  0  0  0  0  0  0  0  0  0  0  0
    8.1695  -12.3107   25.9658 C   0  0  0  0  0  0  0  0  0  0  0  0
    7.5777  -13.5400   26.2104 C   0  0  0  0  0  0  0  0  0  0  0  0
   10.6736  -17.0815   27.0366 O   0  0  0  0  0  0  0  0  0  0  0  0
   11.5726  -16.8278   27.8693 O   0  0  0  0  0  0  0  0  0  0  0  0
  1  2  1  0
  2  3  2  0
  4  5  1  0
  4  2  1  0
  6  5  1  0
  7  6  1  0
  8 10  1  0
  8  7  1  0
  8  9  1  6
 10 11  2  0
 12 13  1  0
 12 10  1  0
 13 16  1  0
 13 14  1  6
 15 14  1  0
 16 17  2  0
 18 16  1  0
 18 19  1  0
 19 30  1  0
 19 20  1  1
 21 29  1  0
 21 20  1  0
 22 21  2  0
 23 22  1  0
 23 24  1  0
 24 25  1  0
 24 29  2  0
 25 26  2  0
 26 27  1  0
 28 27  2  0
 29 28  1  0
 30 31  2  0
 30 32  1  0
M  END
$$$$
