RCW.pdb
     RDKit          3D

 32 33  0  0  1  0  0  0  0  0999 V2000
    8.7780  -12.9883   13.9648 N   0  0  0  0  0  0  0  0  0  0  0  0
    7.7862  -13.5476   14.7810 C   0  0  0  0  0  0  0  0  0  0  0  0
    6.9352  -14.4213   14.3009 N   0  0  0  0  0  0  0  0  0  0  0  0
    7.6654  -13.1923   16.1557 N   0  0  0  0  0  0  0  0  0  0  0  0
    8.2370  -13.9831   17.2051 C   0  0  0  0  0  0  0  0  0  0  0  0
    7.8516  -15.4297   17.2036 C   0  0  0  0  0  0  0  0  0  0  0  0
    7.8195  -16.0589   18.5538 C   0  0  0  0  0  0  0  0  0  0  0  0
    8.7431  -15.3139   19.5281 C   0  0  2  0  0  0  0  0  0  0  0  0
   10.0935  -15.5348   19.0662 N   0  0  0  0  0  0  0  0  0  0  0  0
    8.5393  -15.9064   20.8748 C   0  0  0  0  0  0  0  0  0  0  0  0
    7.4139  -15.8918   21.4347 O   0  0  0  0  0  0  0  0  0  0  0  0
    6.2995  -14.8778   14.9798 N   0  0  0  0  0  0  0  0  0  0  0  0
    9.6424  -16.5152   21.5710 C   0  0  1  0  0  0  0  0  0  0  0  0
    9.4704  -17.2477   22.8209 C   0  0  0  0  0  0  0  0  0  0  0  0
    9.7860  -18.6967   22.5971 S   0  0  0  0  0  0  0  0  0  0  0  0
   11.5958  -18.8097   22.3313 C   0  0  0  0  0  0  0  0  0  0  0  0
   10.4084  -16.6321   23.8056 O   0  0  0  0  0  0  0  0  0  0  0  0
   11.6257  -17.0157   23.8836 N   0  0  0  0  0  0  0  0  0  0  0  0
   10.0463  -15.6099   24.7032 C   0  0  2  0  0  0  0  0  0  0  0  0
    9.9241  -15.8394   26.1235 C   0  0  0  0  0  0  0  0  0  0  0  0
    8.5609  -16.3545   26.5095 C   0  0  0  0  0  0  0  0  0  0  0  0
    7.4659  -15.4259   26.2456 C   0  0  0  0  0  0  0  0  0  0  0  0
    6.2255  -15.7070   25.7354 N   0  0  0  0  0  0  0  0  0  0  0  0
    5.5378  -14.5625   25.6594 C   0  0  0  0  0  0  0  0  0  0  0  0
    6.2926  -13.5432   26.1048 C   0  0  0  0  0  0  0  0  0  0  0  0
    6.0668  -12.1756   26.2367 C   0  0  0  0  0  0  0  0  0  0  0  0
    7.0442  -11.3497   26.7340 C   0  0  0  0  0  0  0  0  0  0  0  0
    8.2674  -11.8557   27.1128 C   0  0  0  0  0  0  0  0  0  0  0  0
    8.4738  -13.2059   26.9764 C   0  0  0  0  0  0  0  0  0  0  0  0
    7.5108  -14.0695   26.4784 C   0  0  0  0  0  0  0  0  0  0  0  0
   10.8969  -16.8926   26.5790 O   0  0  0  0  0  0  0  0  0  0  0  0
   11.1016  -17.1032   27.7954 O   0  0  0  0  0  0  0  0  0  0  0  0
  1  2  1  0
  2  3  2  0
  4  5  1  0
  4  2  1  0
  6  5  1  0
  7  6  1  0
  8 10  1  0
  8  7  1  0
  8  9  1  6
 10 11  2  0
 12 13  1  0
 12 10  1  0
 13 16  1  0
 13 14  1  1
 15 14  1  0
 16 17  2  0
 18 16  1  0
 18 19  1  0
 19 30  1  0
 19 20  1  6
 21 29  1  0
 21 20  1  0
 22 21  2  0
 23 22  1  0
 23 24  1  0
 24 25  1  0
 24 29  2  0
 25 26  2  0
 26 27  1  0
 28 27  2  0
 29 28  1  0
 30 31  2  0
 30 32  1  0
M  END
$$$$
