RCW.pdb
     RDKit          3D

 32 33  0  0  1  0  0  0  0  0999 V2000
   10.5276  -13.6093   17.0575 N   0  0  0  0  0  0  0  0  0  0  0  0
   10.4915  -13.1609   18.3842 C   0  0  0  0  0  0  0  0  0  0  0  0
   11.5706  -13.1772   19.1282 N   0  0  0  0  0  0  0  0  0  0  0  0
    9.2894  -12.6715   18.9725 N   0  0  0  0  0  0  0  0  0  0  0  0
    7.9927  -13.0778   18.5180 C   0  0  0  0  0  0  0  0  0  0  0  0
    7.7489  -14.5549   18.5053 C   0  0  0  0  0  0  0  0  0  0  0  0
    8.1045  -15.2478   19.7755 C   0  0  0  0  0  0  0  0  0  0  0  0
    7.8278  -16.7547   19.6741 C   0  0  2  0  0  0  0  0  0  0  0  0
    6.6522  -16.9031   18.8484 N   0  0  0  0  0  0  0  0  0  0  0  0
    7.5764  -17.2540   21.0501 C   0  0  0  0  0  0  0  0  0  0  0  0
    6.6522  -16.7833   21.7604 O   0  0  0  0  0  0  0  0  0  0  0  0
   11.4655  -12.8715   20.1125 N   0  0  0  0  0  0  0  0  0  0  0  0
    8.3984  -18.2995   21.6011 C   0  0  2  0  0  0  0  0  0  0  0  0
    8.3166  -18.7038   23.0004 C   0  0  0  0  0  0  0  0  0  0  0  0
    8.6313  -20.1657   23.1162 S   0  0  0  0  0  0  0  0  0  0  0  0
    8.8554  -20.5195   24.9004 C   0  0  0  0  0  0  0  0  0  0  0  0
    9.3114  -17.8726   23.7407 O   0  0  0  0  0  0  0  0  0  0  0  0
   10.5294  -17.8069   23.3572 N   0  0  0  0  0  0  0  0  0  0  0  0
    9.0048  -17.1142   24.8864 C   0  0  1  0  0  0  0  0  0  0  0  0
   10.0117  -16.3819   25.6176 C   0  0  0  0  0  0  0  0  0  0  0  0
    9.6975  -14.9107   25.7158 C   0  0  0  0  0  0  0  0  0  0  0  0
    8.2727  -14.5986   25.7745 C   0  0  0  0  0  0  0  0  0  0  0  0
    7.2159  -15.4707   25.7480 N   0  0  0  0  0  0  0  0  0  0  0  0
    6.0866  -14.7584   25.8248 C   0  0  0  0  0  0  0  0  0  0  0  0
    6.3752  -13.4476   25.9005 C   0  0  0  0  0  0  0  0  0  0  0  0
    5.5896  -12.3018   25.9945 C   0  0  0  0  0  0  0  0  0  0  0  0
    6.1694  -11.0591   26.0571 C   0  0  0  0  0  0  0  0  0  0  0  0
    7.5388  -10.9192   26.0283 C   0  0  0  0  0  0  0  0  0  0  0  0
    8.2988  -12.0586   25.9355 C   0  0  0  0  0  0  0  0  0  0  0  0
    7.7483  -13.3289   25.8702 C   0  0  0  0  0  0  0  0  0  0  0  0
   10.1008  -16.8708   27.0374 O   0  0  0  0  0  0  0  0  0  0  0  0
   10.9655  -16.4237   27.8238 O   0  0  0  0  0  0  0  0  0  0  0  0
  1  2  1  0
  2  3  2  0
  4  5  1  0
  4  2  1  0
  6  5  1  0
  7  6  1  0
  8 10  1  0
  8  7  1  0
  8  9  1  6
 10 11  2  0
 12 13  1  0
 12 10  1  0
 13 16  1  0
 13 14  1  6
 15 14  1  0
 16 17  2  0
 18 16  1  0
 18 19  1  0
 19 30  1  0
 19 20  1  1
 21 29  1  0
 21 20  1  0
 22 21  2  0
 23 22  1  0
 23 24  1  0
 24 25  1  0
 24 29  2  0
 25 26  2  0
 26 27  1  0
 28 27  2  0
 29 28  1  0
 30 31  2  0
 30 32  1  0
M  END
$$$$
