RCW.pdb
     RDKit          3D

 32 33  0  0  1  0  0  0  0  0999 V2000
    7.7546  -15.3751   14.4486 N   0  0  0  0  0  0  0  0  0  0  0  0
    8.1785  -14.5151   15.4700 C   0  0  0  0  0  0  0  0  0  0  0  0
    8.4655  -13.2615   15.2165 N   0  0  0  0  0  0  0  0  0  0  0  0
    8.3119  -14.9656   16.8154 N   0  0  0  0  0  0  0  0  0  0  0  0
    8.2019  -16.3481   17.1755 C   0  0  0  0  0  0  0  0  0  0  0  0
    7.0529  -16.6901   18.0723 C   0  0  0  0  0  0  0  0  0  0  0  0
    6.6751  -18.1313   18.0652 C   0  0  0  0  0  0  0  0  0  0  0  0
    7.5906  -18.9428   18.9931 C   0  0  2  0  0  0  0  0  0  0  0  0
    7.0742  -20.2914   19.0051 N   0  0  0  0  0  0  0  0  0  0  0  0
    7.5089  -18.3311   20.3441 C   0  0  0  0  0  0  0  0  0  0  0  0
    7.8547  -17.1396   20.5470 O   0  0  0  0  0  0  0  0  0  0  0  0
    8.7298  -12.6689   16.0242 N   0  0  0  0  0  0  0  0  0  0  0  0
    7.0262  -19.1031   21.4590 C   0  0  1  0  0  0  0  0  0  0  0  0
    6.9124  -18.5490   22.8038 C   0  0  0  0  0  0  0  0  0  0  0  0
    6.3881  -19.6021   23.7342 S   0  0  0  0  0  0  0  0  0  0  0  0
    6.1971  -18.8107   25.3761 C   0  0  0  0  0  0  0  0  0  0  0  0
    8.2830  -18.1079   23.1979 O   0  0  0  0  0  0  0  0  0  0  0  0
    9.3144  -18.7844   22.8609 N   0  0  0  0  0  0  0  0  0  0  0  0
    8.5497  -16.9476   23.9492 C   0  0  1  0  0  0  0  0  0  0  0  0
    9.8947  -16.5089   24.2377 C   0  0  0  0  0  0  0  0  0  0  0  0
   10.0711  -15.0242   24.0448 C   0  0  0  0  0  0  0  0  0  0  0  0
    9.3743  -14.4775   22.8844 C   0  0  0  0  0  0  0  0  0  0  0  0
    8.0397  -14.1934   22.7580 N   0  0  0  0  0  0  0  0  0  0  0  0
    7.8321  -13.7083   21.5291 C   0  0  0  0  0  0  0  0  0  0  0  0
    8.9915  -13.6675   20.8501 C   0  0  0  0  0  0  0  0  0  0  0  0
    9.3290  -13.2592   19.5623 C   0  0  0  0  0  0  0  0  0  0  0  0
   10.6276  -13.3315   19.1231 C   0  0  0  0  0  0  0  0  0  0  0  0
   11.6232  -13.8088   19.9457 C   0  0  0  0  0  0  0  0  0  0  0  0
   11.2739  -14.2071   21.2120 C   0  0  0  0  0  0  0  0  0  0  0  0
    9.9738  -14.1485   21.6892 C   0  0  0  0  0  0  0  0  0  0  0  0
   10.2446  -16.7730   25.6767 O   0  0  0  0  0  0  0  0  0  0  0  0
   11.3719  -16.4799   26.1340 O   0  0  0  0  0  0  0  0  0  0  0  0
  1  2  1  0
  2  3  2  0
  4  5  1  0
  4  2  1  0
  6  5  1  0
  7  6  1  0
  8 10  1  0
  8  7  1  0
  8  9  1  1
 10 11  2  0
 12 13  1  0
 12 10  1  0
 13 16  1  0
 13 14  1  1
 15 14  1  0
 16 17  2  0
 18 16  1  0
 18 19  1  0
 19 30  1  0
 19 20  1  1
 21 29  1  0
 21 20  1  0
 22 21  2  0
 23 22  1  0
 23 24  1  0
 24 25  1  0
 24 29  2  0
 25 26  2  0
 26 27  1  0
 28 27  2  0
 29 28  1  0
 30 31  2  0
 30 32  1  0
M  END
$$$$
