RCW.pdb
     RDKit          3D

 32 33  0  0  1  0  0  0  0  0999 V2000
   12.4480  -21.3857   15.4996 N   0  0  0  0  0  0  0  0  0  0  0  0
   11.9504  -20.1128   15.1917 C   0  0  0  0  0  0  0  0  0  0  0  0
   11.3008  -19.8982   14.0737 N   0  0  0  0  0  0  0  0  0  0  0  0
   12.1283  -19.0098   16.0762 N   0  0  0  0  0  0  0  0  0  0  0  0
   12.9252  -19.0999   17.2636 C   0  0  0  0  0  0  0  0  0  0  0  0
   12.3003  -19.8427   18.4033 C   0  0  0  0  0  0  0  0  0  0  0  0
   12.0079  -19.0024   19.5985 C   0  0  0  0  0  0  0  0  0  0  0  0
   10.5028  -18.7238   19.7181 C   0  0  2  0  0  0  0  0  0  0  0  0
   10.0102  -18.5369   18.3734 N   0  0  0  0  0  0  0  0  0  0  0  0
   10.3426  -17.4833   20.5191 C   0  0  0  0  0  0  0  0  0  0  0  0
   11.2881  -16.6671   20.6610 O   0  0  0  0  0  0  0  0  0  0  0  0
   11.0199  -18.9208   13.8755 N   0  0  0  0  0  0  0  0  0  0  0  0
    9.0849  -17.1911   21.1554 C   0  0  1  0  0  0  0  0  0  0  0  0
    8.8930  -16.0254   22.0113 C   0  0  0  0  0  0  0  0  0  0  0  0
    7.4255  -15.7936   22.2165 S   0  0  0  0  0  0  0  0  0  0  0  0
    6.6735  -15.6532   20.5511 C   0  0  0  0  0  0  0  0  0  0  0  0
    9.5818  -16.3282   23.3006 O   0  0  0  0  0  0  0  0  0  0  0  0
    9.8225  -17.5342   23.6508 N   0  0  0  0  0  0  0  0  0  0  0  0
   10.0117  -15.3451   24.2119 C   0  0  2  0  0  0  0  0  0  0  0  0
   10.0590  -15.5822   25.6354 C   0  0  0  0  0  0  0  0  0  0  0  0
    8.7399  -16.0633   26.1843 C   0  0  0  0  0  0  0  0  0  0  0  0
    7.6276  -15.1397   25.9831 C   0  0  0  0  0  0  0  0  0  0  0  0
    6.3288  -15.4394   25.6646 N   0  0  0  0  0  0  0  0  0  0  0  0
    5.6465  -14.2925   25.5772 C   0  0  0  0  0  0  0  0  0  0  0  0
    6.4615  -13.2535   25.8291 C   0  0  0  0  0  0  0  0  0  0  0  0
    6.2661  -11.8754   25.8674 C   0  0  0  0  0  0  0  0  0  0  0  0
    7.3069  -11.0290   26.1590 C   0  0  0  0  0  0  0  0  0  0  0  0
    8.5649  -11.5242   26.4196 C   0  0  0  0  0  0  0  0  0  0  0  0
    8.7405  -12.8850   26.3778 C   0  0  0  0  0  0  0  0  0  0  0  0
    7.7136  -13.7694   26.0871 C   0  0  0  0  0  0  0  0  0  0  0  0
   11.0509  -16.6647   25.9630 O   0  0  0  0  0  0  0  0  0  0  0  0
   11.6915  -17.2511   25.0620 O   0  0  0  0  0  0  0  0  0  0  0  0
  1  2  1  0
  2  3  2  0
  4  5  1  0
  4  2  1  0
  6  5  1  0
  7  6  1  0
  8 10  1  0
  8  7  1  0
  8  9  1  6
 10 11  2  0
 12 13  1  0
 12 10  1  0
 13 16  1  0
 13 14  1  6
 15 14  1  0
 16 17  2  0
 18 16  1  0
 18 19  1  0
 19 30  1  0
 19 20  1  6
 21 29  1  0
 21 20  1  0
 22 21  2  0
 23 22  1  0
 23 24  1  0
 24 25  1  0
 24 29  2  0
 25 26  2  0
 26 27  1  0
 28 27  2  0
 29 28  1  0
 30 31  2  0
 30 32  1  0
M  END
$$$$
