RCW.pdb
     RDKit          3D

 32 33  0  0  1  0  0  0  0  0999 V2000
    9.1874  -13.7132   16.1385 N   0  0  0  0  0  0  0  0  0  0  0  0
    7.8388  -13.4068   16.3622 C   0  0  0  0  0  0  0  0  0  0  0  0
    6.9747  -13.4208   15.3767 N   0  0  0  0  0  0  0  0  0  0  0  0
    7.3566  -13.0720   17.6606 N   0  0  0  0  0  0  0  0  0  0  0  0
    8.1837  -13.1461   18.8284 C   0  0  0  0  0  0  0  0  0  0  0  0
    9.0314  -14.3750   18.9396 C   0  0  0  0  0  0  0  0  0  0  0  0
    8.4688  -15.4320   19.8265 C   0  0  0  0  0  0  0  0  0  0  0  0
    9.4203  -16.6335   19.9194 C   0  0  2  0  0  0  0  0  0  0  0  0
    9.0502  -17.5355   18.8540 N   0  0  0  0  0  0  0  0  0  0  0  0
    9.2098  -17.2654   21.2470 C   0  0  0  0  0  0  0  0  0  0  0  0
    8.1584  -17.9016   21.5117 O   0  0  0  0  0  0  0  0  0  0  0  0
    5.9815  -13.2573   15.6223 N   0  0  0  0  0  0  0  0  0  0  0  0
   10.2200  -17.1581   22.2668 C   0  0  1  0  0  0  0  0  0  0  0  0
   10.1114  -17.8420   23.5509 C   0  0  0  0  0  0  0  0  0  0  0  0
   11.0466  -19.0144   23.5721 S   0  0  0  0  0  0  0  0  0  0  0  0
   12.6945  -18.3864   23.0733 C   0  0  0  0  0  0  0  0  0  0  0  0
   10.4714  -16.8396   24.5968 O   0  0  0  0  0  0  0  0  0  0  0  0
   11.3509  -15.9394   24.3707 N   0  0  0  0  0  0  0  0  0  0  0  0
    9.8930  -16.7997   25.8796 C   0  0  1  0  0  0  0  0  0  0  0  0
   10.5380  -16.1492   26.9956 C   0  0  0  0  0  0  0  0  0  0  0  0
    9.8426  -14.8745   27.4009 C   0  0  0  0  0  0  0  0  0  0  0  0
    8.4727  -14.7505   26.9121 C   0  0  0  0  0  0  0  0  0  0  0  0
    7.5606  -15.7499   26.6945 N   0  0  0  0  0  0  0  0  0  0  0  0
    6.4307  -15.1918   26.2467 C   0  0  0  0  0  0  0  0  0  0  0  0
    6.5786  -13.8581   26.1656 C   0  0  0  0  0  0  0  0  0  0  0  0
    5.7316  -12.8269   25.7681 C   0  0  0  0  0  0  0  0  0  0  0  0
    6.1602  -11.5229   25.7867 C   0  0  0  0  0  0  0  0  0  0  0  0
    7.4355  -11.2071   26.1985 C   0  0  0  0  0  0  0  0  0  0  0  0
    8.2578  -12.2352   26.5872 C   0  0  0  0  0  0  0  0  0  0  0  0
    7.8594  -13.5628   26.5813 C   0  0  0  0  0  0  0  0  0  0  0  0
   10.5092  -17.0294   28.2152 O   0  0  0  0  0  0  0  0  0  0  0  0
   11.0876  -16.6916   29.2722 O   0  0  0  0  0  0  0  0  0  0  0  0
  1  2  1  0
  2  3  2  0
  4  5  1  0
  4  2  1  0
  6  5  1  0
  7  6  1  0
  8 10  1  0
  8  7  1  0
  8  9  1  6
 10 11  2  0
 12 13  1  0
 12 10  1  0
 13 16  1  0
 13 14  1  6
 15 14  1  0
 16 17  2  0
 18 16  1  0
 18 19  1  0
 19 30  1  0
 19 20  1  1
 21 29  1  0
 21 20  1  0
 22 21  2  0
 23 22  1  0
 23 24  1  0
 24 25  1  0
 24 29  2  0
 25 26  2  0
 26 27  1  0
 28 27  2  0
 29 28  1  0
 30 31  2  0
 30 32  1  0
M  END
$$$$
