RWL.pdb
     RDKit          3D

 34 35  0  0  1  0  0  0  0  0999 V2000
   28.5851  -28.9030  -15.9754 N   0  0  0  0  0  0  0  0  0  0  0  0
   27.4794  -29.1980  -16.8223 C   0  0  0  0  0  0  0  0  0  0  0  0
   27.0495  -30.4129  -16.8264 N   0  0  0  0  0  0  0  0  0  0  0  0
   26.8798  -28.2046  -17.6231 N   0  0  0  0  0  0  0  0  0  0  0  0
   26.6778  -26.8814  -16.9971 C   0  0  0  0  0  0  0  0  0  0  0  0
   27.9696  -26.1223  -17.0454 C   0  0  0  0  0  0  0  0  0  0  0  0
   27.9238  -24.7634  -16.4217 C   0  0  0  0  0  0  0  0  0  0  0  0
   26.6914  -23.9588  -16.6386 C   0  0  2  0  0  0  0  0  0  0  0  0
   26.8209  -23.1231  -17.7817 N   0  0  0  0  0  0  0  0  0  0  0  0
   26.2551  -23.2254  -15.4226 C   0  0  0  0  0  0  0  0  0  0  0  0
   26.1936  -23.8377  -14.3222 O   0  0  0  0  0  0  0  0  0  0  0  0
   26.2107  -30.6559  -17.3789 N   0  0  0  0  0  0  0  0  0  0  0  0
   25.8911  -21.8507  -15.4023 C   0  0  1  0  0  0  0  0  0  0  0  0
   25.6401  -21.1529  -14.1635 C   0  0  0  0  0  0  0  0  0  0  0  0
   26.1778  -19.7360  -14.1714 C   0  0  0  0  0  0  0  0  0  0  0  0
   27.6163  -19.7195  -13.8499 C   0  0  0  0  0  0  0  0  0  0  0  0
   28.6735  -19.2194  -14.5949 N   0  0  0  0  0  0  0  0  0  0  0  0
   29.8114  -19.4107  -13.9220 C   0  0  0  0  0  0  0  0  0  0  0  0
   29.5845  -20.0179  -12.7513 C   0  0  0  0  0  0  0  0  0  0  0  0
   30.4134  -20.4212  -11.7270 C   0  0  0  0  0  0  0  0  0  0  0  0
   29.8488  -21.0344  -10.6286 C   0  0  0  0  0  0  0  0  0  0  0  0
   28.4768  -21.2474  -10.5433 C   0  0  0  0  0  0  0  0  0  0  0  0
   27.6530  -20.8353  -11.5845 C   0  0  0  0  0  0  0  0  0  0  0  0
   28.2217  -20.2174  -12.6909 C   0  0  0  0  0  0  0  0  0  0  0  0
   24.2129  -21.0770  -13.8194 O   0  0  0  0  0  0  0  0  0  0  0  0
   23.3735  -21.1173  -14.7533 C   0  0  0  0  0  0  0  0  0  0  0  0
   20.4070  -20.0522   -8.9041 C   0  0  1  0  0  0  0  0  0  0  0  0
   20.6172  -20.4420  -10.3397 C   0  0  0  0  0  0  0  0  0  0  0  0
   19.8972  -21.7521  -10.5792 C   0  0  0  0  0  0  0  0  0  0  0  0
   22.0501  -20.6380  -10.7067 C   0  0  2  0  0  0  0  0  0  0  0  0
   22.2888  -20.8328  -12.1816 N   0  0  0  0  0  0  0  0  0  0  0  0
   23.6930  -20.9605  -12.5027 C   0  0  0  0  0  0  0  0  0  0  0  0
   21.7674  -19.6310  -12.8667 O   0  0  0  0  0  0  0  0  0  0  0  0
   20.5545  -19.5931  -13.1777 O   0  0  0  0  0  0  0  0  0  0  0  0
  2  1  1  0
  2  4  1  0
  3  2  2  0
  5  4  1  0
  6  5  1  0
  7  6  1  0
  8  7  1  0
  8  9  1  6
 10  8  1  0
 10 11  2  0
 12 10  1  0
 13 12  1  0
 13 14  1  1
 15 14  1  0
 16 15  2  0
 17 16  1  0
 18 17  1  0
 18 23  2  0
 19 20  2  0
 19 18  1  0
 20 21  1  0
 21 22  2  0
 23 22  1  0
 23 15  1  0
 24 13  1  0
 25 24  2  0
 27 26  1  6
 27 29  1  0
 28 27  1  0
 30 29  1  1
 30 31  1  0
 30 32  1  0
 31 24  1  0
 32 34  1  0
 33 32  2  0
M  END
$$$$
