RWL.pdb
     RDKit          3D

 34 35  0  0  1  0  0  0  0  0999 V2000
   31.5930  -24.3695  -15.6437 N   0  0  0  0  0  0  0  0  0  0  0  0
   30.9860  -24.0553  -16.8926 C   0  0  0  0  0  0  0  0  0  0  0  0
   31.3882  -24.7146  -17.9243 N   0  0  0  0  0  0  0  0  0  0  0  0
   29.9879  -23.0653  -16.9977 N   0  0  0  0  0  0  0  0  0  0  0  0
   29.5903  -22.3894  -15.7453 C   0  0  0  0  0  0  0  0  0  0  0  0
   28.3970  -21.5249  -16.0211 C   0  0  0  0  0  0  0  0  0  0  0  0
   27.4501  -21.3757  -14.8725 C   0  0  0  0  0  0  0  0  0  0  0  0
   27.4489  -22.4560  -13.8498 C   0  0  2  0  0  0  0  0  0  0  0  0
   26.8381  -23.6369  -14.3539 N   0  0  0  0  0  0  0  0  0  0  0  0
   26.8911  -22.0190  -12.5441 C   0  0  0  0  0  0  0  0  0  0  0  0
   25.7487  -22.4227  -12.1957 O   0  0  0  0  0  0  0  0  0  0  0  0
   31.0852  -24.4214  -18.8677 N   0  0  0  0  0  0  0  0  0  0  0  0
   27.5624  -21.1578  -11.6328 C   0  0  1  0  0  0  0  0  0  0  0  0
   26.9189  -20.6763  -10.4334 C   0  0  0  0  0  0  0  0  0  0  0  0
   27.7703  -19.6793   -9.6731 C   0  0  0  0  0  0  0  0  0  0  0  0
   28.3636  -20.3022   -8.4761 C   0  0  0  0  0  0  0  0  0  0  0  0
   29.0674  -21.4921   -8.3668 N   0  0  0  0  0  0  0  0  0  0  0  0
   29.4260  -21.6722   -7.0928 C   0  0  0  0  0  0  0  0  0  0  0  0
   29.0018  -20.6627   -6.3238 C   0  0  0  0  0  0  0  0  0  0  0  0
   29.1188  -20.3954   -4.9770 C   0  0  0  0  0  0  0  0  0  0  0  0
   28.5540  -19.2372   -4.4862 C   0  0  0  0  0  0  0  0  0  0  0  0
   27.8790  -18.3509   -5.3193 C   0  0  0  0  0  0  0  0  0  0  0  0
   27.7687  -18.6339   -6.6758 C   0  0  0  0  0  0  0  0  0  0  0  0
   28.3379  -19.8005   -7.1702 C   0  0  0  0  0  0  0  0  0  0  0  0
   25.6200  -20.0368  -10.6887 O   0  0  0  0  0  0  0  0  0  0  0  0
   25.6072  -18.9445  -11.3092 C   0  0  0  0  0  0  0  0  0  0  0  0
   21.2974  -21.4044  -14.0494 C   0  0  1  0  0  0  0  0  0  0  0  0
   21.7286  -20.3981  -13.0205 C   0  0  0  0  0  0  0  0  0  0  0  0
   21.9503  -19.0757  -13.7236 C   0  0  0  0  0  0  0  0  0  0  0  0
   22.9962  -20.7580  -12.3207 C   0  0  2  0  0  0  0  0  0  0  0  0
   23.0986  -20.2247  -10.9152 N   0  0  0  0  0  0  0  0  0  0  0  0
   24.3594  -20.5549  -10.2886 C   0  0  0  0  0  0  0  0  0  0  0  0
   22.0160  -20.8576  -10.1323 O   0  0  0  0  0  0  0  0  0  0  0  0
   22.2487  -21.9412   -9.5485 O   0  0  0  0  0  0  0  0  0  0  0  0
  2  1  1  0
  2  4  1  0
  3  2  2  0
  5  4  1  0
  6  5  1  0
  7  6  1  0
  8  7  1  0
  8  9  1  6
 10  8  1  0
 10 11  2  0
 12 10  1  0
 13 12  1  0
 13 14  1  1
 15 14  1  0
 16 15  2  0
 17 16  1  0
 18 17  1  0
 18 23  2  0
 19 20  2  0
 19 18  1  0
 20 21  1  0
 21 22  2  0
 23 22  1  0
 23 15  1  0
 24 13  1  0
 25 24  2  0
 27 26  1  1
 27 29  1  0
 28 27  1  0
 30 29  1  6
 30 31  1  0
 30 32  1  0
 31 24  1  0
 32 34  1  0
 33 32  2  0
M  END
$$$$
