RWL.pdb
     RDKit          3D

 34 35  0  0  1  0  0  0  0  0999 V2000
   29.3773  -19.6673  -18.0133 N   0  0  0  0  0  0  0  0  0  0  0  0
   29.5115  -20.6108  -19.0708 C   0  0  0  0  0  0  0  0  0  0  0  0
   30.1910  -20.2448  -20.1029 N   0  0  0  0  0  0  0  0  0  0  0  0
   28.9263  -21.8911  -18.9940 N   0  0  0  0  0  0  0  0  0  0  0  0
   28.1930  -22.2111  -17.7516 C   0  0  0  0  0  0  0  0  0  0  0  0
   26.7447  -21.8769  -17.9463 C   0  0  0  0  0  0  0  0  0  0  0  0
   25.8533  -22.2566  -16.8064 C   0  0  0  0  0  0  0  0  0  0  0  0
   26.4387  -23.1210  -15.7466 C   0  0  2  0  0  0  0  0  0  0  0  0
   26.2634  -24.4980  -16.0550 N   0  0  0  0  0  0  0  0  0  0  0  0
   25.9740  -22.7621  -14.3820 C   0  0  0  0  0  0  0  0  0  0  0  0
   24.8806  -23.2275  -13.9608 O   0  0  0  0  0  0  0  0  0  0  0  0
   30.3087  -20.8980  -20.8948 N   0  0  0  0  0  0  0  0  0  0  0  0
   26.6844  -21.9118  -13.4904 C   0  0  2  0  0  0  0  0  0  0  0  0
   26.1158  -21.4916  -12.2316 C   0  0  0  0  0  0  0  0  0  0  0  0
   27.1019  -20.7277  -11.3707 C   0  0  0  0  0  0  0  0  0  0  0  0
   26.5253  -20.4369  -10.0456 C   0  0  0  0  0  0  0  0  0  0  0  0
   25.1939  -20.3065   -9.6804 N   0  0  0  0  0  0  0  0  0  0  0  0
   25.1232  -20.0443   -8.3726 C   0  0  0  0  0  0  0  0  0  0  0  0
   26.3425  -19.9889   -7.8240 C   0  0  0  0  0  0  0  0  0  0  0  0
   26.7842  -19.7540   -6.5400 C   0  0  0  0  0  0  0  0  0  0  0  0
   28.1420  -19.7662   -6.3005 C   0  0  0  0  0  0  0  0  0  0  0  0
   29.0556  -20.0083   -7.3212 C   0  0  0  0  0  0  0  0  0  0  0  0
   28.5953  -20.2433   -8.6117 C   0  0  0  0  0  0  0  0  0  0  0  0
   27.2274  -20.2313   -8.8529 C   0  0  0  0  0  0  0  0  0  0  0  0
   24.9240  -20.6450  -12.3872 O   0  0  0  0  0  0  0  0  0  0  0  0
   25.0852  -19.4527  -12.7486 C   0  0  0  0  0  0  0  0  0  0  0  0
   22.2171  -18.6885  -15.0806 C   0  0  2  0  0  0  0  0  0  0  0  0
   22.2587  -20.1758  -14.8724 C   0  0  0  0  0  0  0  0  0  0  0  0
   21.4940  -20.8283  -16.0045 C   0  0  0  0  0  0  0  0  0  0  0  0
   21.6394  -20.6217  -13.5903 C   0  0  2  0  0  0  0  0  0  0  0  0
   22.4191  -20.2346  -12.3604 N   0  0  0  0  0  0  0  0  0  0  0  0
   23.5861  -21.0649  -12.1611 C   0  0  0  0  0  0  0  0  0  0  0  0
   21.5195  -20.4192  -11.2019 O   0  0  0  0  0  0  0  0  0  0  0  0
   21.5904  -21.4851  -10.5477 O   0  0  0  0  0  0  0  0  0  0  0  0
  2  1  1  0
  2  4  1  0
  3  2  2  0
  5  4  1  0
  6  5  1  0
  7  6  1  0
  8  7  1  0
  8  9  1  6
 10  8  1  0
 10 11  2  0
 12 10  1  0
 13 12  1  0
 13 14  1  1
 15 14  1  0
 16 15  2  0
 17 16  1  0
 18 17  1  0
 18 23  2  0
 19 20  2  0
 19 18  1  0
 20 21  1  0
 21 22  2  0
 23 22  1  0
 23 15  1  0
 24 13  1  0
 25 24  2  0
 27 26  1  6
 27 29  1  0
 28 27  1  0
 30 29  1  6
 30 31  1  0
 30 32  1  0
 31 24  1  0
 32 34  1  0
 33 32  2  0
M  END
$$$$
