RWL.pdb
     RDKit          3D

 34 35  0  0  1  0  0  0  0  0999 V2000
   29.5087  -36.2886  -16.9419 N   0  0  0  0  0  0  0  0  0  0  0  0
   30.8489  -35.8105  -16.8993 C   0  0  0  0  0  0  0  0  0  0  0  0
   31.7771  -36.6290  -17.2591 N   0  0  0  0  0  0  0  0  0  0  0  0
   31.1495  -34.4981  -16.4812 N   0  0  0  0  0  0  0  0  0  0  0  0
   30.0218  -33.6901  -15.9722 C   0  0  0  0  0  0  0  0  0  0  0  0
   29.3619  -33.0002  -17.1281 C   0  0  0  0  0  0  0  0  0  0  0  0
   28.5379  -31.8070  -16.7606 C   0  0  0  0  0  0  0  0  0  0  0  0
   29.0578  -30.4732  -17.1653 C   0  0  2  0  0  0  0  0  0  0  0  0
   30.3226  -30.2148  -16.5691 N   0  0  0  0  0  0  0  0  0  0  0  0
   28.0757  -29.3786  -16.9543 C   0  0  0  0  0  0  0  0  0  0  0  0
   27.2734  -29.4488  -15.9843 O   0  0  0  0  0  0  0  0  0  0  0  0
   32.7604  -36.3119  -17.2731 N   0  0  0  0  0  0  0  0  0  0  0  0
   27.9666  -28.2280  -17.7830 C   0  0  2  0  0  0  0  0  0  0  0  0
   27.0167  -27.1784  -17.4988 C   0  0  0  0  0  0  0  0  0  0  0  0
   27.4254  -25.8443  -18.0902 C   0  0  0  0  0  0  0  0  0  0  0  0
   26.4852  -24.7826  -17.6880 C   0  0  0  0  0  0  0  0  0  0  0  0
   26.2113  -24.2906  -16.4208 N   0  0  0  0  0  0  0  0  0  0  0  0
   25.2925  -23.3258  -16.5158 C   0  0  0  0  0  0  0  0  0  0  0  0
   24.9237  -23.1329  -17.7876 C   0  0  0  0  0  0  0  0  0  0  0  0
   24.0286  -22.2723  -18.3850 C   0  0  0  0  0  0  0  0  0  0  0  0
   23.8787  -22.3280  -19.7546 C   0  0  0  0  0  0  0  0  0  0  0  0
   24.6071  -23.2267  -20.5271 C   0  0  0  0  0  0  0  0  0  0  0  0
   25.5063  -24.0891  -19.9104 C   0  0  0  0  0  0  0  0  0  0  0  0
   25.6574  -24.0328  -18.5308 C   0  0  0  0  0  0  0  0  0  0  0  0
   25.6614  -27.4754  -17.9848 O   0  0  0  0  0  0  0  0  0  0  0  0
   25.5307  -27.8921  -19.1628 C   0  0  0  0  0  0  0  0  0  0  0  0
   22.5454  -30.2778  -18.9881 C   0  0  2  0  0  0  0  0  0  0  0  0
   22.8357  -29.9963  -17.5411 C   0  0  0  0  0  0  0  0  0  0  0  0
   22.0943  -31.0198  -16.7074 C   0  0  0  0  0  0  0  0  0  0  0  0
   22.3986  -28.6424  -17.0918 C   0  0  2  0  0  0  0  0  0  0  0  0
   23.1337  -27.5052  -17.7527 N   0  0  0  0  0  0  0  0  0  0  0  0
   24.4692  -27.3297  -17.2265 C   0  0  0  0  0  0  0  0  0  0  0  0
   22.3644  -26.2736  -17.4757 O   0  0  0  0  0  0  0  0  0  0  0  0
   22.8770  -25.3944  -16.7453 O   0  0  0  0  0  0  0  0  0  0  0  0
  2  1  1  0
  2  4  1  0
  3  2  2  0
  5  4  1  0
  6  5  1  0
  7  6  1  0
  8  7  1  0
  8  9  1  1
 10  8  1  0
 10 11  2  0
 12 10  1  0
 13 12  1  0
 13 14  1  1
 15 14  1  0
 16 15  2  0
 17 16  1  0
 18 17  1  0
 18 23  2  0
 19 20  2  0
 19 18  1  0
 20 21  1  0
 21 22  2  0
 23 22  1  0
 23 15  1  0
 24 13  1  0
 25 24  2  0
 27 26  1  6
 27 29  1  0
 28 27  1  0
 30 29  1  6
 30 31  1  0
 30 32  1  0
 31 24  1  0
 32 34  1  0
 33 32  2  0
M  END
$$$$
