RWL.pdb
     RDKit          3D

 34 35  0  0  1  0  0  0  0  0999 V2000
   22.0899  -25.3617  -15.6151 N   0  0  0  0  0  0  0  0  0  0  0  0
   21.6274  -25.1795  -16.9491 C   0  0  0  0  0  0  0  0  0  0  0  0
   20.5133  -25.7436  -17.2675 N   0  0  0  0  0  0  0  0  0  0  0  0
   22.3563  -24.4154  -17.8832 N   0  0  0  0  0  0  0  0  0  0  0  0
   23.4630  -23.5951  -17.3487 C   0  0  0  0  0  0  0  0  0  0  0  0
   24.7648  -24.2346  -17.7280 C   0  0  0  0  0  0  0  0  0  0  0  0
   25.5138  -24.8568  -16.5923 C   0  0  0  0  0  0  0  0  0  0  0  0
   26.4405  -23.9784  -15.8290 C   0  0  2  0  0  0  0  0  0  0  0  0
   27.6321  -24.6718  -15.4810 N   0  0  0  0  0  0  0  0  0  0  0  0
   25.7893  -23.3141  -14.6707 C   0  0  0  0  0  0  0  0  0  0  0  0
   25.1074  -24.0058  -13.8668 O   0  0  0  0  0  0  0  0  0  0  0  0
   20.1608  -25.6676  -18.2359 N   0  0  0  0  0  0  0  0  0  0  0  0
   25.8766  -21.9225  -14.3908 C   0  0  1  0  0  0  0  0  0  0  0  0
   25.2091  -21.3366  -13.2525 C   0  0  0  0  0  0  0  0  0  0  0  0
   25.9427  -20.1301  -12.7019 C   0  0  0  0  0  0  0  0  0  0  0  0
   27.0799  -20.5468  -11.8617 C   0  0  0  0  0  0  0  0  0  0  0  0
   28.3251  -21.0201  -12.2471 N   0  0  0  0  0  0  0  0  0  0  0  0
   29.0523  -21.2756  -11.1562 C   0  0  0  0  0  0  0  0  0  0  0  0
   28.3650  -21.0000  -10.0416 C   0  0  0  0  0  0  0  0  0  0  0  0
   28.6729  -21.0941   -8.7017 C   0  0  0  0  0  0  0  0  0  0  0  0
   27.7171  -20.7204   -7.7808 C   0  0  0  0  0  0  0  0  0  0  0  0
   26.4676  -20.2580   -8.1807 C   0  0  0  0  0  0  0  0  0  0  0  0
   26.1711  -20.1687   -9.5359 C   0  0  0  0  0  0  0  0  0  0  0  0
   27.1341  -20.5449  -10.4636 C   0  0  0  0  0  0  0  0  0  0  0  0
   23.8306  -20.9155  -13.5419 O   0  0  0  0  0  0  0  0  0  0  0  0
   23.6194  -20.2506  -14.5867 C   0  0  0  0  0  0  0  0  0  0  0  0
   20.1891  -21.7501  -15.5795 C   0  0  2  0  0  0  0  0  0  0  0  0
   20.4090  -22.5846  -14.3497 C   0  0  0  0  0  0  0  0  0  0  0  0
   19.3238  -23.6391  -14.2997 C   0  0  0  0  0  0  0  0  0  0  0  0
   20.3468  -21.8088  -13.0767 C   0  0  2  0  0  0  0  0  0  0  0  0
   21.3648  -20.7024  -12.9776 N   0  0  0  0  0  0  0  0  0  0  0  0
   22.7000  -21.1997  -12.7304 C   0  0  0  0  0  0  0  0  0  0  0  0
   20.9709  -19.8532  -11.8333 O   0  0  0  0  0  0  0  0  0  0  0  0
   21.7227  -19.8037  -10.8326 O   0  0  0  0  0  0  0  0  0  0  0  0
  2  1  1  0
  2  4  1  0
  3  2  2  0
  5  4  1  0
  6  5  1  0
  7  6  1  0
  8  7  1  0
  8  9  1  1
 10  8  1  0
 10 11  2  0
 12 10  1  0
 13 12  1  0
 13 14  1  6
 15 14  1  0
 16 15  2  0
 17 16  1  0
 18 17  1  0
 18 23  2  0
 19 20  2  0
 19 18  1  0
 20 21  1  0
 21 22  2  0
 23 22  1  0
 23 15  1  0
 24 13  1  0
 25 24  2  0
 27 26  1  6
 27 29  1  0
 28 27  1  0
 30 29  1  6
 30 31  1  0
 30 32  1  0
 31 24  1  0
 32 34  1  0
 33 32  2  0
M  END
$$$$
