RWL.pdb
     RDKit          3D

 34 35  0  0  1  0  0  0  0  0999 V2000
   21.5829  -34.8170  -17.0407 N   0  0  0  0  0  0  0  0  0  0  0  0
   22.4365  -35.9186  -17.3312 C   0  0  0  0  0  0  0  0  0  0  0  0
   22.3584  -36.4277  -18.5125 N   0  0  0  0  0  0  0  0  0  0  0  0
   23.3294  -36.4320  -16.3684 N   0  0  0  0  0  0  0  0  0  0  0  0
   23.3705  -35.7367  -15.0652 C   0  0  0  0  0  0  0  0  0  0  0  0
   24.7125  -35.0876  -14.9065 C   0  0  0  0  0  0  0  0  0  0  0  0
   24.9357  -34.4205  -13.5863 C   0  0  0  0  0  0  0  0  0  0  0  0
   24.3384  -33.0711  -13.3987 C   0  0  2  0  0  0  0  0  0  0  0  0
   24.7375  -32.1861  -14.4376 N   0  0  0  0  0  0  0  0  0  0  0  0
   24.5666  -32.5189  -12.0385 C   0  0  0  0  0  0  0  0  0  0  0  0
   25.6799  -31.9943  -11.7649 O   0  0  0  0  0  0  0  0  0  0  0  0
   22.9693  -37.2210  -18.7681 N   0  0  0  0  0  0  0  0  0  0  0  0
   23.6023  -32.5368  -10.9933 C   0  0  2  0  0  0  0  0  0  0  0  0
   23.8892  -31.9860   -9.6899 C   0  0  0  0  0  0  0  0  0  0  0  0
   22.6356  -31.6151   -8.9231 C   0  0  0  0  0  0  0  0  0  0  0  0
   22.0198  -30.3983   -9.4826 C   0  0  0  0  0  0  0  0  0  0  0  0
   22.5938  -29.4079  -10.2653 N   0  0  0  0  0  0  0  0  0  0  0  0
   21.6694  -28.4876  -10.5529 C   0  0  0  0  0  0  0  0  0  0  0  0
   20.4894  -28.7999  -10.0047 C   0  0  0  0  0  0  0  0  0  0  0  0
   19.2576  -28.1823  -10.0134 C   0  0  0  0  0  0  0  0  0  0  0  0
   18.2186  -28.7803   -9.3322 C   0  0  0  0  0  0  0  0  0  0  0  0
   18.3955  -29.9786   -8.6480 C   0  0  0  0  0  0  0  0  0  0  0  0
   19.6440  -30.5900   -8.6478 C   0  0  0  0  0  0  0  0  0  0  0  0
   20.6905  -29.9876   -9.3343 C   0  0  0  0  0  0  0  0  0  0  0  0
   24.6716  -32.8921   -8.8367 O   0  0  0  0  0  0  0  0  0  0  0  0
   24.3962  -34.1176   -8.8618 C   0  0  0  0  0  0  0  0  0  0  0  0
   28.8832  -32.8688   -4.2176 C   0  0  1  0  0  0  0  0  0  0  0  0
   28.3179  -33.5750   -5.4172 C   0  0  0  0  0  0  0  0  0  0  0  0
   29.4730  -34.1500   -6.2091 C   0  0  0  0  0  0  0  0  0  0  0  0
   27.5411  -32.6852   -6.3289 C   0  0  2  0  0  0  0  0  0  0  0  0
   26.4969  -33.3997   -7.1470 N   0  0  0  0  0  0  0  0  0  0  0  0
   25.7279  -32.4960   -7.9736 C   0  0  0  0  0  0  0  0  0  0  0  0
   25.5728  -34.0518   -6.1950 O   0  0  0  0  0  0  0  0  0  0  0  0
   24.7193  -33.3489   -5.6061 O   0  0  0  0  0  0  0  0  0  0  0  0
  2  1  1  0
  2  4  1  0
  3  2  2  0
  5  4  1  0
  6  5  1  0
  7  6  1  0
  8  7  1  0
  8  9  1  6
 10  8  1  0
 10 11  2  0
 12 10  1  0
 13 12  1  0
 13 14  1  6
 15 14  1  0
 16 15  2  0
 17 16  1  0
 18 17  1  0
 18 23  2  0
 19 20  2  0
 19 18  1  0
 20 21  1  0
 21 22  2  0
 23 22  1  0
 23 15  1  0
 24 13  1  0
 25 24  2  0
 27 26  1  1
 27 29  1  0
 28 27  1  0
 30 29  1  6
 30 31  1  0
 30 32  1  0
 31 24  1  0
 32 34  1  0
 33 32  2  0
M  END
$$$$
