AYN.pdb
     RDKit          3D

 26 26  0  0  1  0  0  0  0  0999 V2000
   -7.7331  -26.9879   31.5844 C   0  0  0  0  0  0  0  0  0  0  0  0
   -6.4510  -27.3199   30.8072 C   0  0  2  0  0  0  0  0  0  0  0  0
   -5.3590  -27.1714   31.7015 N   0  0  0  0  0  0  0  0  0  0  0  0
   -6.3586  -26.2509   29.7551 C   0  0  0  0  0  0  0  0  0  0  0  0
   -7.2432  -26.2346   28.8595 O   0  0  0  0  0  0  0  0  0  0  0  0
  -10.6440  -22.2804   30.6764 O   0  0  0  0  0  0  0  0  0  0  0  0
   -9.3072  -22.4352   30.3298 C   0  0  0  0  0  0  0  0  0  0  0  0
   -8.3994  -22.7422   31.3060 C   0  0  0  0  0  0  0  0  0  0  0  0
   -7.0691  -22.8977   30.9738 C   0  0  0  0  0  0  0  0  0  0  0  0
   -6.7021  -22.7364   29.6614 C   0  0  0  0  0  0  0  0  0  0  0  0
   -5.2429  -22.9299   29.3657 C   0  0  0  0  0  0  0  0  0  0  0  0
   -5.0567  -24.3296   28.8465 C   0  0  2  0  0  0  0  0  0  0  0  0
   -5.3027  -25.3316   29.8162 N   0  0  0  0  0  0  0  0  0  0  0  0
   -3.7024  -24.4408   28.1863 C   0  0  0  0  0  0  0  0  0  0  0  0
   -2.6330  -24.2294   28.7977 O   0  0  0  0  0  0  0  0  0  0  0  0
   -7.5886  -22.4302   28.6741 C   0  0  0  0  0  0  0  0  0  0  0  0
   -8.9277  -22.2794   29.0382 C   0  0  0  0  0  0  0  0  0  0  0  0
    0.5128  -26.9294   27.1426 N   0  0  0  0  0  0  0  0  0  0  0  0
   -0.6928  -26.9414   26.4106 C   0  0  0  0  0  0  0  0  0  0  0  0
   -0.7289  -27.3725   25.1992 O   0  0  0  0  0  0  0  0  0  0  0  0
   -1.9420  -26.4527   27.0432 C   0  0  0  0  0  0  0  0  0  0  0  0
   -2.4751  -25.2832   26.2218 C   0  0  2  0  0  0  0  0  0  0  0  0
   -3.7075  -24.8055   26.8188 N   0  0  0  0  0  0  0  0  0  0  0  0
   -2.7453  -25.6623   24.8289 C   0  0  0  0  0  0  0  0  0  0  0  0
   -3.6898  -26.4306   24.5502 O   0  0  0  0  0  0  0  0  0  0  0  0
   -1.9694  -25.1896   23.7497 O   0  0  0  0  0  0  0  0  0  0  0  0
  2  1  1  1
  3  2  1  0
  4  2  1  0
  4  5  2  0
  6  7  1  0
  7 17  2  0
  8  7  1  0
  8  9  2  0
  9 10  1  0
 10 16  2  0
 10 11  1  0
 12 11  1  1
 12 13  1  0
 13  4  1  0
 14 12  1  0
 15 14  2  0
 17 16  1  0
 19 18  1  0
 19 21  1  0
 20 19  2  0
 22 21  1  1
 22 24  1  0
 22 23  1  0
 23 14  1  0
 24 26  1  0
 25 24  2  0
M  END
$$$$
