AYN.pdb
     RDKit          3D

 26 26  0  0  1  0  0  0  0  0999 V2000
    7.5442  -12.7264   18.3429 C   0  0  0  0  0  0  0  0  0  0  0  0
    8.0036  -14.1456   18.7071 C   0  0  2  0  0  0  0  0  0  0  0  0
    6.8775  -15.0017   18.5920 N   0  0  0  0  0  0  0  0  0  0  0  0
    8.3933  -14.0573   20.1558 C   0  0  0  0  0  0  0  0  0  0  0  0
    9.5246  -13.5770   20.4282 O   0  0  0  0  0  0  0  0  0  0  0  0
    8.0649  -13.5468   28.6800 O   0  0  0  0  0  0  0  0  0  0  0  0
    7.6872  -13.7224   27.3542 C   0  0  0  0  0  0  0  0  0  0  0  0
    7.2239  -14.9450   26.9520 C   0  0  0  0  0  0  0  0  0  0  0  0
    6.8466  -15.1312   25.6378 C   0  0  0  0  0  0  0  0  0  0  0  0
    6.9517  -14.0708   24.7732 C   0  0  0  0  0  0  0  0  0  0  0  0
    6.5147  -14.3368   23.3616 C   0  0  0  0  0  0  0  0  0  0  0  0
    7.7488  -14.5139   22.5197 C   0  0  2  0  0  0  0  0  0  0  0  0
    7.4907  -14.5101   21.1274 N   0  0  0  0  0  0  0  0  0  0  0  0
    8.5067  -15.7312   22.9951 C   0  0  0  0  0  0  0  0  0  0  0  0
    8.1010  -16.8976   22.8030 O   0  0  0  0  0  0  0  0  0  0  0  0
    7.4106  -12.8459   25.1519 C   0  0  0  0  0  0  0  0  0  0  0  0
    7.7846  -12.6854   26.4871 C   0  0  0  0  0  0  0  0  0  0  0  0
   12.2725  -15.5375   21.3934 N   0  0  0  0  0  0  0  0  0  0  0  0
   11.9448  -16.6383   22.2120 C   0  0  0  0  0  0  0  0  0  0  0  0
   11.6599  -17.7837   21.7003 O   0  0  0  0  0  0  0  0  0  0  0  0
   11.9293  -16.4794   23.6865 C   0  0  0  0  0  0  0  0  0  0  0  0
   10.4886  -16.6049   24.1715 C   0  0  2  0  0  0  0  0  0  0  0  0
    9.7206  -15.4782   23.6773 N   0  0  0  0  0  0  0  0  0  0  0  0
   10.3976  -16.6273   25.6372 C   0  0  0  0  0  0  0  0  0  0  0  0
    9.9644  -15.6370   26.2632 O   0  0  0  0  0  0  0  0  0  0  0  0
   10.7860  -17.7455   26.4045 O   0  0  0  0  0  0  0  0  0  0  0  0
  2  1  1  1
  3  2  1  0
  4  2  1  0
  4  5  2  0
  6  7  1  0
  7 17  2  0
  8  7  1  0
  8  9  2  0
  9 10  1  0
 10 16  2  0
 10 11  1  0
 12 11  1  1
 12 13  1  0
 13  4  1  0
 14 12  1  0
 15 14  2  0
 17 16  1  0
 19 18  1  0
 19 21  1  0
 20 19  2  0
 22 21  1  1
 22 24  1  0
 22 23  1  0
 23 14  1  0
 24 26  1  0
 25 24  2  0
M  END
$$$$
