AYN.pdb
     RDKit          3D

 26 26  0  0  1  0  0  0  0  0999 V2000
    8.0927  -18.2605   19.5281 C   0  0  0  0  0  0  0  0  0  0  0  0
    8.5091  -16.8125   19.2321 C   0  0  2  0  0  0  0  0  0  0  0  0
    9.7236  -16.8587   18.4993 N   0  0  0  0  0  0  0  0  0  0  0  0
    8.7860  -16.2146   20.5828 C   0  0  0  0  0  0  0  0  0  0  0  0
    9.9091  -16.4429   21.1036 O   0  0  0  0  0  0  0  0  0  0  0  0
    7.4812  -12.1260   28.0755 O   0  0  0  0  0  0  0  0  0  0  0  0
    7.3313  -12.5495   26.7605 C   0  0  0  0  0  0  0  0  0  0  0  0
    6.4449  -13.5538   26.4833 C   0  0  0  0  0  0  0  0  0  0  0  0
    6.2881  -13.9831   25.1813 C   0  0  0  0  0  0  0  0  0  0  0  0
    7.0361  -13.3798   24.2018 C   0  0  0  0  0  0  0  0  0  0  0  0
    6.8098  -13.8857   22.8063 C   0  0  0  0  0  0  0  0  0  0  0  0
    7.9086  -14.8610   22.4828 C   0  0  2  0  0  0  0  0  0  0  0  0
    7.7920  -15.4400   21.1958 N   0  0  0  0  0  0  0  0  0  0  0  0
    8.0212  -15.8738   23.5980 C   0  0  0  0  0  0  0  0  0  0  0  0
    7.2641  -16.8639   23.6908 O   0  0  0  0  0  0  0  0  0  0  0  0
    7.9244  -12.3793   24.4553 C   0  0  0  0  0  0  0  0  0  0  0  0
    8.0623  -11.9643   25.7809 C   0  0  0  0  0  0  0  0  0  0  0  0
   10.4699  -18.7753   26.8160 N   0  0  0  0  0  0  0  0  0  0  0  0
   11.1340  -18.5319   25.5957 C   0  0  0  0  0  0  0  0  0  0  0  0
   12.1189  -19.2683   25.2183 O   0  0  0  0  0  0  0  0  0  0  0  0
   10.6926  -17.4124   24.7289 C   0  0  0  0  0  0  0  0  0  0  0  0
    9.4860  -16.7433   25.3794 C   0  0  2  0  0  0  0  0  0  0  0  0
    9.0465  -15.6411   24.5454 N   0  0  0  0  0  0  0  0  0  0  0  0
    9.7956  -16.2238   26.7178 C   0  0  0  0  0  0  0  0  0  0  0  0
   10.1394  -15.0334   26.8746 O   0  0  0  0  0  0  0  0  0  0  0  0
    9.7231  -17.0237   27.8776 O   0  0  0  0  0  0  0  0  0  0  0  0
  2  1  1  1
  3  2  1  0
  4  2  1  0
  4  5  2  0
  6  7  1  0
  7 17  2  0
  8  7  1  0
  8  9  2  0
  9 10  1  0
 10 16  2  0
 10 11  1  0
 12 11  1  1
 12 13  1  0
 13  4  1  0
 14 12  1  0
 15 14  2  0
 17 16  1  0
 19 18  1  0
 19 21  1  0
 20 19  2  0
 22 21  1  6
 22 24  1  0
 22 23  1  0
 23 14  1  0
 24 26  1  0
 25 24  2  0
M  END
$$$$
