AYN.pdb
     RDKit          3D

 26 26  0  0  1  0  0  0  0  0999 V2000
    7.9679  -18.3326   20.0325 C   0  0  0  0  0  0  0  0  0  0  0  0
    8.8030  -17.0456   19.9688 C   0  0  2  0  0  0  0  0  0  0  0  0
   10.1185  -17.4090   19.5793 N   0  0  0  0  0  0  0  0  0  0  0  0
    8.8422  -16.5493   21.3868 C   0  0  0  0  0  0  0  0  0  0  0  0
    9.7314  -17.0173   22.1452 O   0  0  0  0  0  0  0  0  0  0  0  0
    7.1667  -12.0522   28.4985 O   0  0  0  0  0  0  0  0  0  0  0  0
    7.1107  -12.4879   27.1802 C   0  0  0  0  0  0  0  0  0  0  0  0
    8.1748  -12.2463   26.3552 C   0  0  0  0  0  0  0  0  0  0  0  0
    8.1302  -12.6738   25.0439 C   0  0  0  0  0  0  0  0  0  0  0  0
    7.0069  -13.3325   24.6112 C   0  0  0  0  0  0  0  0  0  0  0  0
    7.0271  -13.7803   23.1782 C   0  0  0  0  0  0  0  0  0  0  0  0
    7.8255  -15.0531   23.1013 C   0  0  2  0  0  0  0  0  0  0  0  0
    7.8967  -15.5999   21.7971 N   0  0  0  0  0  0  0  0  0  0  0  0
    7.3181  -16.0240   24.1416 C   0  0  0  0  0  0  0  0  0  0  0  0
    6.1874  -16.5527   24.0781 O   0  0  0  0  0  0  0  0  0  0  0  0
    5.9364  -13.5829   25.4147 C   0  0  0  0  0  0  0  0  0  0  0  0
    6.0088  -13.1402   26.7365 C   0  0  0  0  0  0  0  0  0  0  0  0
    7.9109  -20.9895   26.1344 N   0  0  0  0  0  0  0  0  0  0  0  0
    7.2821  -19.7387   26.3055 C   0  0  0  0  0  0  0  0  0  0  0  0
    6.4760  -19.5302   27.2860 O   0  0  0  0  0  0  0  0  0  0  0  0
    7.5526  -18.6421   25.3443 C   0  0  0  0  0  0  0  0  0  0  0  0
    7.8599  -17.3727   26.1322 C   0  0  2  0  0  0  0  0  0  0  0  0
    8.2048  -16.3105   25.2069 N   0  0  0  0  0  0  0  0  0  0  0  0
    8.9756  -17.5587   27.0690 C   0  0  0  0  0  0  0  0  0  0  0  0
    8.9281  -18.4453   27.9474 O   0  0  0  0  0  0  0  0  0  0  0  0
   10.1399  -16.7630   27.0297 O   0  0  0  0  0  0  0  0  0  0  0  0
  2  1  1  1
  3  2  1  0
  4  2  1  0
  4  5  2  0
  6  7  1  0
  7 17  2  0
  8  7  1  0
  8  9  2  0
  9 10  1  0
 10 16  2  0
 10 11  1  0
 12 11  1  6
 12 13  1  0
 13  4  1  0
 14 12  1  0
 15 14  2  0
 17 16  1  0
 19 18  1  0
 19 21  1  0
 20 19  2  0
 22 21  1  6
 22 24  1  0
 22 23  1  0
 23 14  1  0
 24 26  1  0
 25 24  2  0
M  END
$$$$
