AYN.pdb
     RDKit          3D

 26 26  0  0  1  0  0  0  0  0999 V2000
   10.9536  -19.3912   18.4154 C   0  0  0  0  0  0  0  0  0  0  0  0
   10.6081  -17.9466   18.0257 C   0  0  2  0  0  0  0  0  0  0  0  0
   11.3247  -17.6413   16.8394 N   0  0  0  0  0  0  0  0  0  0  0  0
   11.1576  -17.1104   19.1470 C   0  0  0  0  0  0  0  0  0  0  0  0
   12.3625  -16.7531   19.0730 O   0  0  0  0  0  0  0  0  0  0  0  0
    6.9269  -12.3359   17.8391 O   0  0  0  0  0  0  0  0  0  0  0  0
    7.5899  -13.0280   18.8453 C   0  0  0  0  0  0  0  0  0  0  0  0
    6.9517  -14.0641   19.4702 C   0  0  0  0  0  0  0  0  0  0  0  0
    7.6000  -14.7583   20.4712 C   0  0  0  0  0  0  0  0  0  0  0  0
    8.8753  -14.3787   20.8068 C   0  0  0  0  0  0  0  0  0  0  0  0
    9.5276  -15.1814   21.8951 C   0  0  0  0  0  0  0  0  0  0  0  0
   10.6843  -15.9292   21.2900 C   0  0  2  0  0  0  0  0  0  0  0  0
   10.3142  -16.7713   20.2135 N   0  0  0  0  0  0  0  0  0  0  0  0
   11.4465  -16.6393   22.3841 C   0  0  0  0  0  0  0  0  0  0  0  0
   11.1341  -17.7770   22.7966 O   0  0  0  0  0  0  0  0  0  0  0  0
    9.5289  -13.3504   20.1986 C   0  0  0  0  0  0  0  0  0  0  0  0
    8.8499  -12.6662   19.1890 C   0  0  0  0  0  0  0  0  0  0  0  0
   15.6562  -14.9035   21.7967 N   0  0  0  0  0  0  0  0  0  0  0  0
   15.3447  -16.0737   22.5198 C   0  0  0  0  0  0  0  0  0  0  0  0
   15.5465  -17.2392   22.0141 O   0  0  0  0  0  0  0  0  0  0  0  0
   14.7778  -15.9650   23.8859 C   0  0  0  0  0  0  0  0  0  0  0  0
   13.3975  -16.6142   23.8902 C   0  0  2  0  0  0  0  0  0  0  0  0
   12.5519  -15.9395   22.9241 N   0  0  0  0  0  0  0  0  0  0  0  0
   12.7546  -16.5399   25.2085 C   0  0  0  0  0  0  0  0  0  0  0  0
   13.3113  -17.0238   26.2164 O   0  0  0  0  0  0  0  0  0  0  0  0
   11.4980  -15.9299   25.4065 O   0  0  0  0  0  0  0  0  0  0  0  0
  2  1  1  1
  3  2  1  0
  4  2  1  0
  4  5  2  0
  6  7  1  0
  7 17  2  0
  8  7  1  0
  8  9  2  0
  9 10  1  0
 10 16  2  0
 10 11  1  0
 12 11  1  1
 12 13  1  0
 13  4  1  0
 14 12  1  0
 15 14  2  0
 17 16  1  0
 19 18  1  0
 19 21  1  0
 20 19  2  0
 22 21  1  1
 22 24  1  0
 22 23  1  0
 23 14  1  0
 24 26  1  0
 25 24  2  0
M  END
$$$$
