AYN.pdb
     RDKit          3D

 26 26  0  0  1  0  0  0  0  0999 V2000
    7.2641  -17.7813   20.2380 C   0  0  0  0  0  0  0  0  0  0  0  0
    7.3346  -16.2500   20.1497 C   0  0  2  0  0  0  0  0  0  0  0  0
    8.0633  -15.9230   18.9766 N   0  0  0  0  0  0  0  0  0  0  0  0
    8.1435  -15.8386   21.3475 C   0  0  0  0  0  0  0  0  0  0  0  0
    9.3973  -15.8390   21.2339 O   0  0  0  0  0  0  0  0  0  0  0  0
   10.1053  -13.7316   29.4745 O   0  0  0  0  0  0  0  0  0  0  0  0
    9.3856  -13.9210   28.3009 C   0  0  0  0  0  0  0  0  0  0  0  0
    8.8156  -15.1412   28.0611 C   0  0  0  0  0  0  0  0  0  0  0  0
    8.0992  -15.3411   26.8988 C   0  0  0  0  0  0  0  0  0  0  0  0
    7.9843  -14.2966   26.0164 C   0  0  0  0  0  0  0  0  0  0  0  0
    7.1833  -14.5768   24.7777 C   0  0  0  0  0  0  0  0  0  0  0  0
    8.1167  -15.1357   23.7386 C   0  0  2  0  0  0  0  0  0  0  0  0
    7.4736  -15.4788   22.5246 N   0  0  0  0  0  0  0  0  0  0  0  0
    8.9180  -16.2646   24.3432 C   0  0  0  0  0  0  0  0  0  0  0  0
    8.4765  -17.4297   24.4418 O   0  0  0  0  0  0  0  0  0  0  0  0
    8.5438  -13.0744   26.2346 C   0  0  0  0  0  0  0  0  0  0  0  0
    9.2622  -12.8998   27.4186 C   0  0  0  0  0  0  0  0  0  0  0  0
   13.4678  -18.7531   23.4255 N   0  0  0  0  0  0  0  0  0  0  0  0
   13.4736  -17.6520   24.3069 C   0  0  0  0  0  0  0  0  0  0  0  0
   14.3464  -17.5599   25.2473 O   0  0  0  0  0  0  0  0  0  0  0  0
   12.4614  -16.5794   24.1502 C   0  0  0  0  0  0  0  0  0  0  0  0
   11.2051  -16.9841   24.9149 C   0  0  2  0  0  0  0  0  0  0  0  0
   10.2163  -15.9297   24.7966 N   0  0  0  0  0  0  0  0  0  0  0  0
   11.4747  -17.2161   26.3398 C   0  0  0  0  0  0  0  0  0  0  0  0
   11.2827  -16.3115   27.1794 O   0  0  0  0  0  0  0  0  0  0  0  0
   11.9554  -18.4484   26.8302 O   0  0  0  0  0  0  0  0  0  0  0  0
  2  1  1  1
  3  2  1  0
  4  2  1  0
  4  5  2  0
  6  7  1  0
  7 17  2  0
  8  7  1  0
  8  9  2  0
  9 10  1  0
 10 16  2  0
 10 11  1  0
 12 11  1  1
 12 13  1  0
 13  4  1  0
 14 12  1  0
 15 14  2  0
 17 16  1  0
 19 18  1  0
 19 21  1  0
 20 19  2  0
 22 21  1  6
 22 24  1  0
 22 23  1  0
 23 14  1  0
 24 26  1  0
 25 24  2  0
M  END
$$$$
