AYN.pdb
     RDKit          3D

 26 26  0  0  1  0  0  0  0  0999 V2000
    7.0302  -14.8365   19.1399 C   0  0  0  0  0  0  0  0  0  0  0  0
    7.0689  -13.4722   19.8436 C   0  0  2  0  0  0  0  0  0  0  0  0
    7.8543  -12.6015   19.0441 N   0  0  0  0  0  0  0  0  0  0  0  0
    7.7992  -13.7311   21.1313 C   0  0  0  0  0  0  0  0  0  0  0  0
    9.0407  -13.9307   21.0688 O   0  0  0  0  0  0  0  0  0  0  0  0
    9.5596  -14.4746   29.5037 O   0  0  0  0  0  0  0  0  0  0  0  0
    8.8496  -14.2901   28.3235 C   0  0  0  0  0  0  0  0  0  0  0  0
    8.7910  -13.0394   27.7724 C   0  0  0  0  0  0  0  0  0  0  0  0
    8.0883  -12.8441   26.6009 C   0  0  0  0  0  0  0  0  0  0  0  0
    7.4671  -13.9241   26.0259 C   0  0  0  0  0  0  0  0  0  0  0  0
    6.7296  -13.6458   24.7481 C   0  0  0  0  0  0  0  0  0  0  0  0
    7.6329  -14.0121   23.6021 C   0  0  2  0  0  0  0  0  0  0  0  0
    7.0735  -13.7404   22.3300 N   0  0  0  0  0  0  0  0  0  0  0  0
    8.0984  -15.4394   23.7702 C   0  0  0  0  0  0  0  0  0  0  0  0
    7.3762  -16.4224   23.4977 O   0  0  0  0  0  0  0  0  0  0  0  0
    7.5119  -15.1771   26.5575 C   0  0  0  0  0  0  0  0  0  0  0  0
    8.2303  -15.3461   27.7423 C   0  0  0  0  0  0  0  0  0  0  0  0
   12.9936  -18.4133   23.2291 N   0  0  0  0  0  0  0  0  0  0  0  0
   11.6294  -18.2694   22.9013 C   0  0  0  0  0  0  0  0  0  0  0  0
   10.9237  -19.2825   22.5400 O   0  0  0  0  0  0  0  0  0  0  0  0
   10.9925  -16.9321   22.9748 C   0  0  0  0  0  0  0  0  0  0  0  0
   10.0316  -16.9181   24.1593 C   0  0  2  0  0  0  0  0  0  0  0  0
    9.4166  -15.6082   24.2571 N   0  0  0  0  0  0  0  0  0  0  0  0
   10.7115  -17.2124   25.4275 C   0  0  0  0  0  0  0  0  0  0  0  0
   10.9072  -16.3104   26.2690 O   0  0  0  0  0  0  0  0  0  0  0  0
   11.1718  -18.5038   25.7596 O   0  0  0  0  0  0  0  0  0  0  0  0
  2  1  1  6
  3  2  1  0
  4  2  1  0
  4  5  2  0
  6  7  1  0
  7 17  2  0
  8  7  1  0
  8  9  2  0
  9 10  1  0
 10 16  2  0
 10 11  1  0
 12 11  1  1
 12 13  1  0
 13  4  1  0
 14 12  1  0
 15 14  2  0
 17 16  1  0
 19 18  1  0
 19 21  1  0
 20 19  2  0
 22 21  1  6
 22 24  1  0
 22 23  1  0
 23 14  1  0
 24 26  1  0
 25 24  2  0
M  END
$$$$
