AYN.pdb
     RDKit          3D

 26 26  0  0  1  0  0  0  0  0999 V2000
   10.2911  -16.6403   18.6758 C   0  0  0  0  0  0  0  0  0  0  0  0
   10.2512  -17.4164   20.0002 C   0  0  2  0  0  0  0  0  0  0  0  0
    9.0528  -18.1765   20.0138 N   0  0  0  0  0  0  0  0  0  0  0  0
   10.1578  -16.3539   21.0589 C   0  0  0  0  0  0  0  0  0  0  0  0
   11.2069  -15.7192   21.3438 O   0  0  0  0  0  0  0  0  0  0  0  0
    6.8270  -11.2555   27.2137 O   0  0  0  0  0  0  0  0  0  0  0  0
    6.9492  -12.1729   26.1771 C   0  0  0  0  0  0  0  0  0  0  0  0
    6.3690  -13.4046   26.3086 C   0  0  0  0  0  0  0  0  0  0  0  0
    6.4843  -14.3240   25.2859 C   0  0  0  0  0  0  0  0  0  0  0  0
    7.1852  -13.9643   24.1624 C   0  0  0  0  0  0  0  0  0  0  0  0
    7.2636  -15.0057   23.0837 C   0  0  0  0  0  0  0  0  0  0  0  0
    8.7126  -15.1951   22.7263 C   0  0  2  0  0  0  0  0  0  0  0  0
    8.9213  -16.1213   21.6758 N   0  0  0  0  0  0  0  0  0  0  0  0
    9.4986  -15.5072   23.9782 C   0  0  0  0  0  0  0  0  0  0  0  0
   10.1526  -14.6418   24.5990 O   0  0  0  0  0  0  0  0  0  0  0  0
    7.7711  -12.7444   24.0108 C   0  0  0  0  0  0  0  0  0  0  0  0
    7.6380  -11.8338   25.0603 C   0  0  0  0  0  0  0  0  0  0  0  0
   11.3952  -18.0488   27.8542 N   0  0  0  0  0  0  0  0  0  0  0  0
   10.1856  -18.7092   27.5544 C   0  0  0  0  0  0  0  0  0  0  0  0
    9.7390  -19.6504   28.3091 O   0  0  0  0  0  0  0  0  0  0  0  0
    9.4108  -18.3150   26.3527 C   0  0  0  0  0  0  0  0  0  0  0  0
   10.1731  -17.2117   25.6259 C   0  0  2  0  0  0  0  0  0  0  0  0
    9.4527  -16.8510   24.4199 N   0  0  0  0  0  0  0  0  0  0  0  0
   11.5309  -17.6295   25.2534 C   0  0  0  0  0  0  0  0  0  0  0  0
   11.7745  -18.0488   24.1023 O   0  0  0  0  0  0  0  0  0  0  0  0
   12.6141  -17.5813   26.1560 O   0  0  0  0  0  0  0  0  0  0  0  0
  2  1  1  6
  3  2  1  0
  4  2  1  0
  4  5  2  0
  6  7  1  0
  7 17  2  0
  8  7  1  0
  8  9  2  0
  9 10  1  0
 10 16  2  0
 10 11  1  0
 12 11  1  1
 12 13  1  0
 13  4  1  0
 14 12  1  0
 15 14  2  0
 17 16  1  0
 19 18  1  0
 19 21  1  0
 20 19  2  0
 22 21  1  6
 22 24  1  0
 22 23  1  0
 23 14  1  0
 24 26  1  0
 25 24  2  0
M  END
$$$$
