AYN.pdb
     RDKit          3D

 26 26  0  0  1  0  0  0  0  0999 V2000
    8.1206  -18.0841   19.6238 C   0  0  0  0  0  0  0  0  0  0  0  0
    8.7262  -16.6903   19.4039 C   0  0  2  0  0  0  0  0  0  0  0  0
    9.9848  -16.8665   18.7720 N   0  0  0  0  0  0  0  0  0  0  0  0
    8.9554  -16.1543   20.7890 C   0  0  0  0  0  0  0  0  0  0  0  0
   10.0143  -16.4940   21.3791 O   0  0  0  0  0  0  0  0  0  0  0  0
    7.4249  -12.2485   28.3426 O   0  0  0  0  0  0  0  0  0  0  0  0
    7.3304  -12.6246   27.0081 C   0  0  0  0  0  0  0  0  0  0  0  0
    6.3270  -13.4725   26.6267 C   0  0  0  0  0  0  0  0  0  0  0  0
    6.2237  -13.8534   25.3044 C   0  0  0  0  0  0  0  0  0  0  0  0
    7.1422  -13.3621   24.4111 C   0  0  0  0  0  0  0  0  0  0  0  0
    6.9669  -13.8063   22.9876 C   0  0  0  0  0  0  0  0  0  0  0  0
    8.0396  -14.8157   22.6815 C   0  0  2  0  0  0  0  0  0  0  0  0
    7.9901  -15.3114   21.3560 N   0  0  0  0  0  0  0  0  0  0  0  0
    8.0234  -15.8966   23.7367 C   0  0  0  0  0  0  0  0  0  0  0  0
    7.1307  -16.7692   23.7967 O   0  0  0  0  0  0  0  0  0  0  0  0
    8.1489  -12.5179   24.7690 C   0  0  0  0  0  0  0  0  0  0  0  0
    8.2294  -12.1485   26.1127 C   0  0  0  0  0  0  0  0  0  0  0  0
    9.6866  -20.2791   25.5450 N   0  0  0  0  0  0  0  0  0  0  0  0
   10.5502  -19.1645   25.5813 C   0  0  0  0  0  0  0  0  0  0  0  0
   11.5824  -19.1501   26.3489 O   0  0  0  0  0  0  0  0  0  0  0  0
   10.2701  -17.9889   24.7216 C   0  0  0  0  0  0  0  0  0  0  0  0
    9.3352  -17.0492   25.4763 C   0  0  2  0  0  0  0  0  0  0  0  0
    9.0901  -15.8711   24.6666 N   0  0  0  0  0  0  0  0  0  0  0  0
    9.8986  -16.6239   26.7641 C   0  0  0  0  0  0  0  0  0  0  0  0
    9.6981  -17.2939   27.7990 O   0  0  0  0  0  0  0  0  0  0  0  0
   10.6820  -15.4587   26.9017 O   0  0  0  0  0  0  0  0  0  0  0  0
  2  1  1  1
  3  2  1  0
  4  2  1  0
  4  5  2  0
  6  7  1  0
  7 17  2  0
  8  7  1  0
  8  9  2  0
  9 10  1  0
 10 16  2  0
 10 11  1  0
 12 11  1  1
 12 13  1  0
 13  4  1  0
 14 12  1  0
 15 14  2  0
 17 16  1  0
 19 18  1  0
 19 21  1  0
 20 19  2  0
 22 21  1  6
 22 24  1  0
 22 23  1  0
 23 14  1  0
 24 26  1  0
 25 24  2  0
M  END
$$$$
