AYN.pdb
     RDKit          3D

 26 26  0  0  1  0  0  0  0  0999 V2000
   10.5360  -18.6160   21.4193 C   0  0  0  0  0  0  0  0  0  0  0  0
   10.5285  -17.1947   20.8382 C   0  0  2  0  0  0  0  0  0  0  0  0
   11.8237  -16.9397   20.3171 N   0  0  0  0  0  0  0  0  0  0  0  0
   10.3044  -16.3014   22.0257 C   0  0  0  0  0  0  0  0  0  0  0  0
   11.3199  -15.8633   22.6271 O   0  0  0  0  0  0  0  0  0  0  0  0
    6.5365  -11.1271   27.7200 O   0  0  0  0  0  0  0  0  0  0  0  0
    6.7185  -11.9586   26.6215 C   0  0  0  0  0  0  0  0  0  0  0  0
    7.5948  -11.5815   25.6412 C   0  0  0  0  0  0  0  0  0  0  0  0
    7.7832  -12.3989   24.5455 C   0  0  0  0  0  0  0  0  0  0  0  0
    7.0760  -13.5730   24.4792 C   0  0  0  0  0  0  0  0  0  0  0  0
    7.3354  -14.4208   23.2674 C   0  0  0  0  0  0  0  0  0  0  0  0
    8.6438  -15.1346   23.4723 C   0  0  2  0  0  0  0  0  0  0  0  0
    8.9899  -16.0010   22.4072 N   0  0  0  0  0  0  0  0  0  0  0  0
    8.6396  -15.8054   24.8259 C   0  0  0  0  0  0  0  0  0  0  0  0
    8.2605  -15.2258   25.8663 O   0  0  0  0  0  0  0  0  0  0  0  0
    6.1985  -13.9674   25.4429 C   0  0  0  0  0  0  0  0  0  0  0  0
    6.0280  -13.1218   26.5404 C   0  0  0  0  0  0  0  0  0  0  0  0
    6.1965  -19.3728   26.1030 N   0  0  0  0  0  0  0  0  0  0  0  0
    7.3374  -19.3211   25.2754 C   0  0  0  0  0  0  0  0  0  0  0  0
    7.2264  -19.2866   23.9943 O   0  0  0  0  0  0  0  0  0  0  0  0
    8.6888  -19.3036   25.8862 C   0  0  0  0  0  0  0  0  0  0  0  0
    9.0947  -17.8522   26.1216 C   0  0  2  0  0  0  0  0  0  0  0  0
    9.0917  -17.1463   24.8546 N   0  0  0  0  0  0  0  0  0  0  0  0
   10.4326  -17.7408   26.7169 C   0  0  0  0  0  0  0  0  0  0  0  0
   11.4113  -17.3940   26.0227 O   0  0  0  0  0  0  0  0  0  0  0  0
   10.6823  -18.0134   28.0784 O   0  0  0  0  0  0  0  0  0  0  0  0
  2  1  1  1
  3  2  1  0
  4  2  1  0
  4  5  2  0
  6  7  1  0
  7 17  2  0
  8  7  1  0
  8  9  2  0
  9 10  1  0
 10 16  2  0
 10 11  1  0
 12 11  1  6
 12 13  1  0
 13  4  1  0
 14 12  1  0
 15 14  2  0
 17 16  1  0
 19 18  1  0
 19 21  1  0
 20 19  2  0
 22 21  1  6
 22 24  1  0
 22 23  1  0
 23 14  1  0
 24 26  1  0
 25 24  2  0
M  END
$$$$
