AYN.pdb
     RDKit          3D

 26 26  0  0  1  0  0  0  0  0999 V2000
    9.1919  -19.7053   20.5421 C   0  0  0  0  0  0  0  0  0  0  0  0
    9.1684  -18.4321   19.6840 C   0  0  2  0  0  0  0  0  0  0  0  0
   10.0824  -18.6208   18.6148 N   0  0  0  0  0  0  0  0  0  0  0  0
    9.7023  -17.3566   20.5878 C   0  0  0  0  0  0  0  0  0  0  0  0
   10.9333  -17.1001   20.5266 O   0  0  0  0  0  0  0  0  0  0  0  0
    7.2159  -12.2334   17.6510 O   0  0  0  0  0  0  0  0  0  0  0  0
    7.4395  -12.8453   18.8785 C   0  0  0  0  0  0  0  0  0  0  0  0
    8.5172  -12.4582   19.6269 C   0  0  0  0  0  0  0  0  0  0  0  0
    8.7496  -13.0592   20.8471 C   0  0  0  0  0  0  0  0  0  0  0  0
    7.8812  -14.0343   21.2691 C   0  0  0  0  0  0  0  0  0  0  0  0
    8.1845  -14.6395   22.6093 C   0  0  0  0  0  0  0  0  0  0  0  0
    9.2037  -15.7275   22.4068 C   0  0  2  0  0  0  0  0  0  0  0  0
    8.8164  -16.6963   21.4496 N   0  0  0  0  0  0  0  0  0  0  0  0
    9.5813  -16.3131   23.7473 C   0  0  0  0  0  0  0  0  0  0  0  0
    8.7487  -16.8507   24.5087 O   0  0  0  0  0  0  0  0  0  0  0  0
    6.8032  -14.4355   20.5402 C   0  0  0  0  0  0  0  0  0  0  0  0
    6.5915  -13.8102   19.3103 C   0  0  0  0  0  0  0  0  0  0  0  0
   13.3019  -20.2622   23.8170 N   0  0  0  0  0  0  0  0  0  0  0  0
   12.0844  -19.7548   24.3165 C   0  0  0  0  0  0  0  0  0  0  0  0
   11.4895  -20.3161   25.3094 O   0  0  0  0  0  0  0  0  0  0  0  0
   11.4770  -18.5540   23.6928 C   0  0  0  0  0  0  0  0  0  0  0  0
   11.5992  -17.3878   24.6684 C   0  0  2  0  0  0  0  0  0  0  0  0
   10.9490  -16.2225   24.1001 N   0  0  0  0  0  0  0  0  0  0  0  0
   12.9994  -17.0499   24.9550 C   0  0  0  0  0  0  0  0  0  0  0  0
   13.7076  -16.4873   24.0936 O   0  0  0  0  0  0  0  0  0  0  0  0
   13.6105  -17.3356   26.1941 O   0  0  0  0  0  0  0  0  0  0  0  0
  2  1  1  1
  3  2  1  0
  4  2  1  0
  4  5  2  0
  6  7  1  0
  7 17  2  0
  8  7  1  0
  8  9  2  0
  9 10  1  0
 10 16  2  0
 10 11  1  0
 12 11  1  1
 12 13  1  0
 13  4  1  0
 14 12  1  0
 15 14  2  0
 17 16  1  0
 19 18  1  0
 19 21  1  0
 20 19  2  0
 22 21  1  6
 22 24  1  0
 22 23  1  0
 23 14  1  0
 24 26  1  0
 25 24  2  0
M  END
$$$$
