MTE.pdb
     RDKit          3D

 25 24  0  0  1  0  0  0  0  0999 V2000
    7.9798  -11.7609   27.1489 C   0  0  0  0  0  0  0  0  0  0  0  0
    6.2061  -11.7036   26.7828 S   0  0  0  0  0  0  0  0  0  0  0  0
    5.6643  -13.1637   25.8687 C   0  0  0  0  0  0  0  0  0  0  0  0
    6.7901  -14.0032   25.3851 C   0  0  0  0  0  0  0  0  0  0  0  0
    6.4271  -15.2316   24.6288 C   0  0  2  0  0  0  0  0  0  0  0  0
    5.5598  -16.0825   25.4356 N   0  0  0  0  0  0  0  0  0  0  0  0
    7.5775  -16.0092   24.1083 C   0  0  0  0  0  0  0  0  0  0  0  0
    7.9767  -16.9880   24.7818 O   0  0  0  0  0  0  0  0  0  0  0  0
    8.0899  -16.2256   20.1321 C   0  0  0  0  0  0  0  0  0  0  0  0
    9.4166  -16.2613   20.8465 C   0  0  1  0  0  0  0  0  0  0  0  0
    9.9220  -14.9351   20.7093 O   0  0  0  0  0  0  0  0  0  0  0  0
    9.3229  -16.5201   22.3291 C   0  0  2  0  0  0  0  0  0  0  0  0
    8.2485  -15.7216   22.9115 N   0  0  0  0  0  0  0  0  0  0  0  0
   10.5694  -16.1452   23.0731 C   0  0  0  0  0  0  0  0  0  0  0  0
   11.1056  -15.0068   22.8173 O   0  0  0  0  0  0  0  0  0  0  0  0
   11.2048  -16.9438   24.0389 N   0  0  0  0  0  0  0  0  0  0  0  0
   12.4630  -16.7111   24.6430 C   0  0  1  0  0  0  0  0  0  0  0  0
   12.6358  -17.2160   26.0613 C   0  0  0  0  0  0  0  0  0  0  0  0
   11.4956  -16.8355   26.9701 C   0  0  0  0  0  0  0  0  0  0  0  0
   11.7171  -17.3587   28.3536 C   0  0  0  0  0  0  0  0  0  0  0  0
   12.6074  -18.2294   28.5154 O   0  0  0  0  0  0  0  0  0  0  0  0
   13.6522  -17.0534   23.8604 C   0  0  0  0  0  0  0  0  0  0  0  0
   14.8966  -16.6879   24.4156 O   0  0  0  0  0  0  0  0  0  0  0  0
   10.9726  -16.9067   29.4276 O   0  0  0  0  0  0  0  0  0  0  0  0
   13.6465  -17.6309   22.7649 O   0  0  0  0  0  0  0  0  0  0  0  0
  2  1  1  0
  3  2  1  0
  4  3  1  0
  5  4  1  0
  5  6  1  1
  7  5  1  0
  7 13  1  0
  8  7  2  0
 10  9  1  1
 10 12  1  0
 11 10  1  0
 12 13  1  1
 12 14  1  0
 14 16  1  0
 15 14  2  0
 16 17  1  0
 17 22  1  0
 18 19  1  0
 17 18  1  1
 20 21  2  0
 20 19  1  0
 22 25  2  0
 22 23  1  0
 24 20  1  0
M  END
$$$$
