MTE.pdb
     RDKit          3D

 25 24  0  0  1  0  0  0  0  0999 V2000
    6.4995  -12.3096   26.7140 C   0  0  0  0  0  0  0  0  0  0  0  0
    7.8918  -12.3942   25.5574 S   0  0  0  0  0  0  0  0  0  0  0  0
    7.3359  -12.3804   23.8394 C   0  0  0  0  0  0  0  0  0  0  0  0
    6.8713  -13.7083   23.3633 C   0  0  0  0  0  0  0  0  0  0  0  0
    7.5733  -14.2741   22.1801 C   0  0  2  0  0  0  0  0  0  0  0  0
    6.6862  -14.2791   21.0224 N   0  0  0  0  0  0  0  0  0  0  0  0
    8.1640  -15.6185   22.3863 C   0  0  0  0  0  0  0  0  0  0  0  0
    7.4740  -16.6168   22.0725 O   0  0  0  0  0  0  0  0  0  0  0  0
    9.0676  -17.8224   20.7998 C   0  0  0  0  0  0  0  0  0  0  0  0
   10.3112  -17.7378   21.6473 C   0  0  1  0  0  0  0  0  0  0  0  0
   11.1463  -16.8164   20.9496 O   0  0  0  0  0  0  0  0  0  0  0  0
   10.0957  -17.1488   23.0186 C   0  0  2  0  0  0  0  0  0  0  0  0
    9.4444  -15.8469   22.9094 N   0  0  0  0  0  0  0  0  0  0  0  0
   11.3736  -16.9126   23.7664 C   0  0  0  0  0  0  0  0  0  0  0  0
   11.5770  -15.7448   24.2600 O   0  0  0  0  0  0  0  0  0  0  0  0
   12.3765  -17.8741   23.9758 N   0  0  0  0  0  0  0  0  0  0  0  0
   13.1751  -18.0340   25.1328 C   0  0  1  0  0  0  0  0  0  0  0  0
   12.4403  -18.1160   26.4556 C   0  0  0  0  0  0  0  0  0  0  0  0
   11.7332  -19.4306   26.6616 C   0  0  0  0  0  0  0  0  0  0  0  0
   11.4205  -19.6485   28.1078 C   0  0  0  0  0  0  0  0  0  0  0  0
   12.2997  -19.3419   28.9504 O   0  0  0  0  0  0  0  0  0  0  0  0
   14.2105  -19.0684   25.0909 C   0  0  0  0  0  0  0  0  0  0  0  0
   15.2454  -18.9610   26.0439 O   0  0  0  0  0  0  0  0  0  0  0  0
   10.2067  -20.1699   28.5166 O   0  0  0  0  0  0  0  0  0  0  0  0
   14.2444  -20.0155   24.2937 O   0  0  0  0  0  0  0  0  0  0  0  0
  2  1  1  0
  3  2  1  0
  4  3  1  0
  5  4  1  0
  5  6  1  6
  7  5  1  0
  7 13  1  0
  8  7  2  0
 10  9  1  6
 10 12  1  0
 11 10  1  0
 12 13  1  6
 12 14  1  0
 14 16  1  0
 15 14  2  0
 16 17  1  0
 17 22  1  0
 18 19  1  0
 17 18  1  1
 20 21  2  0
 20 19  1  0
 22 25  2  0
 22 23  1  0
 24 20  1  0
M  END
$$$$
