MTE.pdb
     RDKit          3D

 25 24  0  0  1  0  0  0  0  0999 V2000
    7.8570  -11.5409   21.6363 C   0  0  0  0  0  0  0  0  0  0  0  0
    7.4177  -11.7570   19.8917 S   0  0  0  0  0  0  0  0  0  0  0  0
    7.5695  -13.4798   19.3722 C   0  0  0  0  0  0  0  0  0  0  0  0
    7.9830  -14.3888   20.4715 C   0  0  0  0  0  0  0  0  0  0  0  0
    8.1370  -15.8269   20.1235 C   0  0  2  0  0  0  0  0  0  0  0  0
    6.9195  -16.3265   19.4947 N   0  0  0  0  0  0  0  0  0  0  0  0
    8.5362  -16.7045   21.2501 C   0  0  0  0  0  0  0  0  0  0  0  0
    7.6274  -17.2460   21.9224 O   0  0  0  0  0  0  0  0  0  0  0  0
   10.0789  -19.9121   21.3385 C   0  0  0  0  0  0  0  0  0  0  0  0
   10.9499  -19.0587   22.2244 C   0  0  1  0  0  0  0  0  0  0  0  0
   12.0030  -18.6267   21.3657 O   0  0  0  0  0  0  0  0  0  0  0  0
   10.2864  -17.8040   22.7337 C   0  0  2  0  0  0  0  0  0  0  0  0
    9.8642  -16.9688   21.6133 N   0  0  0  0  0  0  0  0  0  0  0  0
   11.1964  -16.9523   23.5670 C   0  0  0  0  0  0  0  0  0  0  0  0
   11.9403  -16.0959   22.9652 O   0  0  0  0  0  0  0  0  0  0  0  0
   11.3022  -17.0129   24.9668 N   0  0  0  0  0  0  0  0  0  0  0  0
   12.2329  -16.3255   25.7813 C   0  0  1  0  0  0  0  0  0  0  0  0
   11.6572  -15.3743   26.8110 C   0  0  0  0  0  0  0  0  0  0  0  0
   10.9772  -16.0794   27.9561 C   0  0  0  0  0  0  0  0  0  0  0  0
   10.4929  -15.0986   28.9760 C   0  0  0  0  0  0  0  0  0  0  0  0
   10.5433  -13.8780   28.6857 O   0  0  0  0  0  0  0  0  0  0  0  0
   13.2939  -17.1224   26.4002 C   0  0  0  0  0  0  0  0  0  0  0  0
   13.1823  -18.5233   26.2748 O   0  0  0  0  0  0  0  0  0  0  0  0
   10.0034  -15.5098   30.2022 O   0  0  0  0  0  0  0  0  0  0  0  0
   14.2665  -16.6650   27.0154 O   0  0  0  0  0  0  0  0  0  0  0  0
  2  1  1  0
  3  2  1  0
  4  3  1  0
  5  4  1  0
  5  6  1  1
  7  5  1  0
  7 13  1  0
  8  7  2  0
 10  9  1  6
 10 12  1  0
 11 10  1  0
 12 13  1  6
 12 14  1  0
 14 16  1  0
 15 14  2  0
 16 17  1  0
 17 22  1  0
 18 19  1  0
 17 18  1  1
 20 21  2  0
 20 19  1  0
 22 25  2  0
 22 23  1  0
 24 20  1  0
M  END
$$$$
