MTE.pdb
     RDKit          3D

 25 24  0  0  1  0  0  0  0  0999 V2000
    6.4285  -10.7450   26.8224 C   0  0  0  0  0  0  0  0  0  0  0  0
    6.9988  -12.3103   26.1098 S   0  0  0  0  0  0  0  0  0  0  0  0
    6.4416  -12.5109   24.4039 C   0  0  0  0  0  0  0  0  0  0  0  0
    6.8025  -13.8284   23.8209 C   0  0  0  0  0  0  0  0  0  0  0  0
    8.2206  -14.2539   23.9648 C   0  0  2  0  0  0  0  0  0  0  0  0
    9.0005  -13.8051   22.8170 N   0  0  0  0  0  0  0  0  0  0  0  0
    8.4187  -15.7061   24.1903 C   0  0  0  0  0  0  0  0  0  0  0  0
    7.8083  -16.2400   25.1460 O   0  0  0  0  0  0  0  0  0  0  0  0
    8.8110  -18.3622   21.1729 C   0  0  0  0  0  0  0  0  0  0  0  0
    9.8026  -18.6070   22.2814 C   0  0  1  0  0  0  0  0  0  0  0  0
   10.9937  -17.9651   21.8315 O   0  0  0  0  0  0  0  0  0  0  0  0
    9.4482  -17.9550   23.5940 C   0  0  2  0  0  0  0  0  0  0  0  0
    9.2445  -16.5220   23.4043 N   0  0  0  0  0  0  0  0  0  0  0  0
   10.5255  -18.0880   24.6283 C   0  0  0  0  0  0  0  0  0  0  0  0
   11.2405  -17.0543   24.8915 O   0  0  0  0  0  0  0  0  0  0  0  0
   10.8192  -19.2619   25.3424 N   0  0  0  0  0  0  0  0  0  0  0  0
   11.3707  -19.3529   26.6423 C   0  0  1  0  0  0  0  0  0  0  0  0
   10.7281  -18.4922   27.7113 C   0  0  0  0  0  0  0  0  0  0  0  0
   11.0508  -17.0273   27.5675 C   0  0  0  0  0  0  0  0  0  0  0  0
   11.0749  -16.3517   28.9016 C   0  0  0  0  0  0  0  0  0  0  0  0
   11.0096  -17.0749   29.9261 O   0  0  0  0  0  0  0  0  0  0  0  0
   11.5995  -20.6964   27.1773 C   0  0  0  0  0  0  0  0  0  0  0  0
   12.3723  -20.7810   28.3547 O   0  0  0  0  0  0  0  0  0  0  0  0
   11.1659  -14.9767   29.0166 O   0  0  0  0  0  0  0  0  0  0  0  0
   11.1716  -21.7471   26.6808 O   0  0  0  0  0  0  0  0  0  0  0  0
  2  1  1  0
  3  2  1  0
  4  3  1  0
  5  4  1  0
  5  6  1  6
  7  5  1  0
  7 13  1  0
  8  7  2  0
 10  9  1  6
 10 12  1  0
 11 10  1  0
 12 13  1  6
 12 14  1  0
 14 16  1  0
 15 14  2  0
 16 17  1  0
 17 22  1  0
 18 19  1  0
 17 18  1  1
 20 21  2  0
 20 19  1  0
 22 25  2  0
 22 23  1  0
 24 20  1  0
M  END
$$$$
