MTE.pdb
     RDKit          3D

 25 24  0  0  1  0  0  0  0  0999 V2000
    5.8056  -11.2535   27.7242 C   0  0  0  0  0  0  0  0  0  0  0  0
    7.0916  -12.3698   27.1051 S   0  0  0  0  0  0  0  0  0  0  0  0
    6.3927  -13.7211   26.1323 C   0  0  0  0  0  0  0  0  0  0  0  0
    7.4242  -14.6004   25.5252 C   0  0  0  0  0  0  0  0  0  0  0  0
    6.9293  -15.7622   24.7389 C   0  0  2  0  0  0  0  0  0  0  0  0
    6.0494  -16.5874   25.5586 N   0  0  0  0  0  0  0  0  0  0  0  0
    7.9877  -16.5933   24.1161 C   0  0  0  0  0  0  0  0  0  0  0  0
    8.3555  -17.6264   24.7230 O   0  0  0  0  0  0  0  0  0  0  0  0
    8.2302  -17.0873   20.1522 C   0  0  0  0  0  0  0  0  0  0  0  0
    9.5993  -16.9170   20.7591 C   0  0  1  0  0  0  0  0  0  0  0  0
    9.9201  -15.5490   20.5170 O   0  0  0  0  0  0  0  0  0  0  0  0
    9.6479  -17.0978   22.2554 C   0  0  2  0  0  0  0  0  0  0  0  0
    8.6048  -16.2994   22.8920 N   0  0  0  0  0  0  0  0  0  0  0  0
   10.9434  -16.6484   22.8619 C   0  0  0  0  0  0  0  0  0  0  0  0
   11.0938  -15.3966   23.1050 O   0  0  0  0  0  0  0  0  0  0  0  0
   12.0169  -17.4929   23.1916 N   0  0  0  0  0  0  0  0  0  0  0  0
   13.2846  -17.1056   23.6866 C   0  0  1  0  0  0  0  0  0  0  0  0
   13.8800  -17.9754   24.7753 C   0  0  0  0  0  0  0  0  0  0  0  0
   12.9666  -18.1512   25.9609 C   0  0  0  0  0  0  0  0  0  0  0  0
   13.5974  -19.0265   26.9966 C   0  0  0  0  0  0  0  0  0  0  0  0
   14.1262  -20.0994   26.6143 O   0  0  0  0  0  0  0  0  0  0  0  0
   14.3191  -16.7926   22.6990 C   0  0  0  0  0  0  0  0  0  0  0  0
   15.5374  -16.2899   23.2026 O   0  0  0  0  0  0  0  0  0  0  0  0
   13.6047  -18.6772   28.3346 O   0  0  0  0  0  0  0  0  0  0  0  0
   14.2057  -16.9344   21.4740 O   0  0  0  0  0  0  0  0  0  0  0  0
  2  1  1  0
  3  2  1  0
  4  3  1  0
  5  4  1  0
  5  6  1  1
  7  5  1  0
  7 13  1  0
  8  7  2  0
 10  9  1  1
 10 12  1  0
 11 10  1  0
 12 13  1  1
 12 14  1  0
 14 16  1  0
 15 14  2  0
 16 17  1  0
 17 22  1  0
 18 19  1  0
 17 18  1  1
 20 21  2  0
 20 19  1  0
 22 25  2  0
 22 23  1  0
 24 20  1  0
M  END
$$$$
