MTE.pdb
     RDKit          3D

 25 24  0  0  1  0  0  0  0  0999 V2000
    8.1107  -10.9343   18.0653 C   0  0  0  0  0  0  0  0  0  0  0  0
    7.4248  -12.5299   18.5819 S   0  0  0  0  0  0  0  0  0  0  0  0
    8.6949  -13.8114   18.6560 C   0  0  0  0  0  0  0  0  0  0  0  0
   10.0458  -13.2798   18.9697 C   0  0  0  0  0  0  0  0  0  0  0  0
   11.0096  -14.2321   19.5839 C   0  0  2  0  0  0  0  0  0  0  0  0
   11.0951  -15.4487   18.7841 N   0  0  0  0  0  0  0  0  0  0  0  0
   10.7434  -14.5633   21.0046 C   0  0  0  0  0  0  0  0  0  0  0  0
   10.8596  -13.6473   21.8521 O   0  0  0  0  0  0  0  0  0  0  0  0
    7.6433  -15.7256   22.7536 C   0  0  0  0  0  0  0  0  0  0  0  0
    8.7330  -16.7314   23.0234 C   0  0  1  0  0  0  0  0  0  0  0  0
    8.5615  -17.7129   22.0034 O   0  0  0  0  0  0  0  0  0  0  0  0
   10.1333  -16.1975   22.8566 C   0  0  2  0  0  0  0  0  0  0  0  0
   10.3699  -15.8345   21.4626 N   0  0  0  0  0  0  0  0  0  0  0  0
   11.1920  -17.1983   23.2107 C   0  0  0  0  0  0  0  0  0  0  0  0
   11.7603  -17.8396   22.2543 O   0  0  0  0  0  0  0  0  0  0  0  0
   11.6198  -17.4942   24.5160 N   0  0  0  0  0  0  0  0  0  0  0  0
   12.4083  -18.5956   24.9250 C   0  0  1  0  0  0  0  0  0  0  0  0
   12.5997  -18.7730   26.4178 C   0  0  0  0  0  0  0  0  0  0  0  0
   11.3546  -19.2433   27.1244 C   0  0  0  0  0  0  0  0  0  0  0  0
   11.6010  -19.4062   28.5905 C   0  0  0  0  0  0  0  0  0  0  0  0
   12.7479  -19.1372   29.0255 O   0  0  0  0  0  0  0  0  0  0  0  0
   12.1057  -19.8940   24.3196 C   0  0  0  0  0  0  0  0  0  0  0  0
   10.7795  -20.0883   23.8789 O   0  0  0  0  0  0  0  0  0  0  0  0
   10.6070  -19.8381   29.4493 O   0  0  0  0  0  0  0  0  0  0  0  0
   12.9148  -20.8191   24.1679 O   0  0  0  0  0  0  0  0  0  0  0  0
  2  1  1  0
  3  2  1  0
  4  3  1  0
  5  4  1  0
  5  6  1  6
  7  5  1  0
  7 13  1  0
  8  7  2  0
 10  9  1  6
 10 12  1  0
 11 10  1  0
 12 13  1  6
 12 14  1  0
 14 16  1  0
 15 14  2  0
 16 17  1  0
 17 22  1  0
 18 19  1  0
 17 18  1  1
 20 21  2  0
 20 19  1  0
 22 25  2  0
 22 23  1  0
 24 20  1  0
M  END
$$$$
