MTE.pdb
     RDKit          3D

 25 24  0  0  1  0  0  0  0  0999 V2000
    8.1615  -11.0512   19.5170 C   0  0  0  0  0  0  0  0  0  0  0  0
    8.0640  -12.3649   20.7611 S   0  0  0  0  0  0  0  0  0  0  0  0
    8.8072  -13.9013   20.1712 C   0  0  0  0  0  0  0  0  0  0  0  0
    8.8110  -14.9800   21.1920 C   0  0  0  0  0  0  0  0  0  0  0  0
    9.4776  -16.2542   20.8114 C   0  0  2  0  0  0  0  0  0  0  0  0
    8.8037  -16.8525   19.6646 N   0  0  0  0  0  0  0  0  0  0  0  0
    9.6108  -17.2432   21.9082 C   0  0  0  0  0  0  0  0  0  0  0  0
    8.9939  -18.3287   21.7975 O   0  0  0  0  0  0  0  0  0  0  0  0
   10.3672  -19.8426   22.3909 C   0  0  0  0  0  0  0  0  0  0  0  0
   11.1137  -19.3048   23.5848 C   0  0  1  0  0  0  0  0  0  0  0  0
   12.4090  -18.9953   23.0754 O   0  0  0  0  0  0  0  0  0  0  0  0
   10.5641  -18.0140   24.1376 C   0  0  2  0  0  0  0  0  0  0  0  0
   10.3819  -17.0440   23.0620 N   0  0  0  0  0  0  0  0  0  0  0  0
   11.4765  -17.3632   25.1336 C   0  0  0  0  0  0  0  0  0  0  0  0
   12.2861  -16.4606   24.7108 O   0  0  0  0  0  0  0  0  0  0  0  0
   11.5179  -17.6609   26.5062 N   0  0  0  0  0  0  0  0  0  0  0  0
   11.9085  -16.7944   27.5544 C   0  0  1  0  0  0  0  0  0  0  0  0
   11.3757  -15.3770   27.4942 C   0  0  0  0  0  0  0  0  0  0  0  0
   10.0048  -15.2317   28.1027 C   0  0  0  0  0  0  0  0  0  0  0  0
    9.5109  -13.8255   27.9781 C   0  0  0  0  0  0  0  0  0  0  0  0
   10.2156  -13.0118   27.3314 O   0  0  0  0  0  0  0  0  0  0  0  0
   11.7788  -17.3011   28.9220 C   0  0  0  0  0  0  0  0  0  0  0  0
   12.5521  -16.6533   29.9083 O   0  0  0  0  0  0  0  0  0  0  0  0
    8.3190  -13.4221   28.5516 O   0  0  0  0  0  0  0  0  0  0  0  0
   11.0522  -18.2411   29.2712 O   0  0  0  0  0  0  0  0  0  0  0  0
  2  1  1  0
  3  2  1  0
  4  3  1  0
  5  4  1  0
  5  6  1  6
  7  5  1  0
  7 13  1  0
  8  7  2  0
 10  9  1  6
 10 12  1  0
 11 10  1  0
 12 13  1  6
 12 14  1  0
 14 16  1  0
 15 14  2  0
 16 17  1  0
 17 22  1  0
 18 19  1  0
 17 18  1  1
 20 21  2  0
 20 19  1  0
 22 25  2  0
 22 23  1  0
 24 20  1  0
M  END
$$$$
