DWG.pdb
     RDKit          3D

 27 28  0  0  1  0  0  0  0  0999 V2000
    9.0201  -18.1618   22.2491 N   0  0  0  0  0  0  0  0  0  0  0  0
   10.0133  -17.1613   21.9648 C   0  0  1  0  0  0  0  0  0  0  0  0
    9.4404  -16.1558   20.9686 C   0  0  0  0  0  0  0  0  0  0  0  0
    9.1468  -16.8399   19.7070 C   0  0  0  0  0  0  0  0  0  0  0  0
    9.3545  -18.0808   19.5957 O   0  0  0  0  0  0  0  0  0  0  0  0
   10.3777  -16.4031   23.2321 C   0  0  0  0  0  0  0  0  0  0  0  0
   11.0484  -15.3690   23.1157 O   0  0  0  0  0  0  0  0  0  0  0  0
    8.6386  -16.2198   18.5794 O   0  0  0  0  0  0  0  0  0  0  0  0
    9.9550  -16.8848   24.4736 N   0  0  0  0  0  0  0  0  0  0  0  0
   10.2317  -16.3781   25.7816 C   0  0  1  0  0  0  0  0  0  0  0  0
    8.9545  -16.2668   26.6140 C   0  0  0  0  0  0  0  0  0  0  0  0
    7.8292  -15.6072   25.9498 C   0  0  0  0  0  0  0  0  0  0  0  0
    6.8041  -16.0686   25.1760 C   0  0  0  0  0  0  0  0  0  0  0  0
    5.9761  -15.0421   24.8454 N   0  0  0  0  0  0  0  0  0  0  0  0
    6.4760  -13.9297   25.4112 C   0  0  0  0  0  0  0  0  0  0  0  0
    5.9953  -12.6127   25.3965 C   0  0  0  0  0  0  0  0  0  0  0  0
    6.6517  -11.5972   26.0683 C   0  0  0  0  0  0  0  0  0  0  0  0
    7.8119  -11.9159   26.7658 C   0  0  0  0  0  0  0  0  0  0  0  0
    8.2633  -13.2179   26.7633 C   0  0  0  0  0  0  0  0  0  0  0  0
    7.6197  -14.2341   26.1013 C   0  0  0  0  0  0  0  0  0  0  0  0
   11.2511  -17.1760   26.4310 C   0  0  0  0  0  0  0  0  0  0  0  0
   11.4064  -17.3380   27.6780 O   0  0  0  0  0  0  0  0  0  0  0  0
   12.2312  -17.9029   25.6464 N   0  0  0  0  0  0  0  0  0  0  0  0
   13.1663  -18.7752   26.3613 C   0  0  0  0  0  0  0  0  0  0  0  0
   14.0002  -19.4376   25.3266 C   0  0  0  0  0  0  0  0  0  0  0  0
   13.8572  -19.2105   24.0923 O   0  0  0  0  0  0  0  0  0  0  0  0
   15.0092  -20.3641   25.6352 O   0  0  0  0  0  0  0  0  0  0  0  0
  2  1  1  1
  2  3  1  0
  3  4  1  0
  4  8  1  0
  5  4  2  0
  6  2  1  0
  7  6  2  0
  9  6  1  0
 10  9  1  0
 10 11  1  1
 11 12  1  0
 12 20  1  0
 13 12  2  0
 13 14  1  0
 14 15  1  0
 15 16  2  0
 16 17  1  0
 18 17  2  0
 19 18  1  0
 20 19  2  0
 20 15  1  0
 21 23  1  0
 21 10  1  0
 22 21  2  0
 24 23  1  0
 25 24  1  0
 25 27  1  0
 26 25  2  0
M  END
$$$$
