DWG.pdb
     RDKit          3D

 27 28  0  0  1  0  0  0  0  0999 V2000
    9.4610  -18.3237   22.2444 N   0  0  0  0  0  0  0  0  0  0  0  0
   10.1876  -17.1160   21.9584 C   0  0  1  0  0  0  0  0  0  0  0  0
    9.3935  -16.2786   20.9585 C   0  0  0  0  0  0  0  0  0  0  0  0
    9.2590  -17.0234   19.7043 C   0  0  0  0  0  0  0  0  0  0  0  0
    8.1388  -17.0910   19.1244 O   0  0  0  0  0  0  0  0  0  0  0  0
   10.3584  -16.2895   23.2239 C   0  0  0  0  0  0  0  0  0  0  0  0
   10.8819  -15.1724   23.1198 O   0  0  0  0  0  0  0  0  0  0  0  0
   10.2957  -17.6859   19.0714 O   0  0  0  0  0  0  0  0  0  0  0  0
    9.9290  -16.8032   24.4501 N   0  0  0  0  0  0  0  0  0  0  0  0
   10.0399  -16.2342   25.7571 C   0  0  1  0  0  0  0  0  0  0  0  0
    8.6697  -16.1015   26.4215 C   0  0  0  0  0  0  0  0  0  0  0  0
    7.6831  -15.3215   25.6726 C   0  0  0  0  0  0  0  0  0  0  0  0
    6.8515  -15.6234   24.6335 C   0  0  0  0  0  0  0  0  0  0  0  0
    6.0768  -14.5470   24.3336 N   0  0  0  0  0  0  0  0  0  0  0  0
    6.4168  -13.5628   25.1840 C   0  0  0  0  0  0  0  0  0  0  0  0
    5.9089  -12.2623   25.3123 C   0  0  0  0  0  0  0  0  0  0  0  0
    6.3836  -11.3942   26.2791 C   0  0  0  0  0  0  0  0  0  0  0  0
    7.3870  -11.8457   27.1295 C   0  0  0  0  0  0  0  0  0  0  0  0
    7.8693  -13.1280   26.9814 C   0  0  0  0  0  0  0  0  0  0  0  0
    7.4051  -13.9988   26.0267 C   0  0  0  0  0  0  0  0  0  0  0  0
   10.9778  -16.9888   26.5624 C   0  0  0  0  0  0  0  0  0  0  0  0
   11.5031  -16.6232   27.6559 O   0  0  0  0  0  0  0  0  0  0  0  0
   11.4078  -18.3116   26.1504 N   0  0  0  0  0  0  0  0  0  0  0  0
   12.4172  -18.9869   26.9698 C   0  0  0  0  0  0  0  0  0  0  0  0
   11.6791  -19.8878   27.8908 C   0  0  0  0  0  0  0  0  0  0  0  0
   10.4236  -20.0196   27.8494 O   0  0  0  0  0  0  0  0  0  0  0  0
   12.3137  -20.6611   28.8762 O   0  0  0  0  0  0  0  0  0  0  0  0
  2  1  1  1
  2  3  1  0
  3  4  1  0
  4  8  1  0
  5  4  2  0
  6  2  1  0
  7  6  2  0
  9  6  1  0
 10  9  1  0
 10 11  1  1
 11 12  1  0
 12 20  1  0
 13 12  2  0
 13 14  1  0
 14 15  1  0
 15 16  2  0
 16 17  1  0
 18 17  2  0
 19 18  1  0
 20 19  2  0
 20 15  1  0
 21 23  1  0
 21 10  1  0
 22 21  2  0
 24 23  1  0
 25 24  1  0
 25 27  1  0
 26 25  2  0
M  END
$$$$
