DWG.pdb
     RDKit          3D

 27 28  0  0  1  0  0  0  0  0999 V2000
    9.9921  -17.9829   22.0524 N   0  0  0  0  0  0  0  0  0  0  0  0
   11.0386  -17.0836   22.4579 C   0  0  1  0  0  0  0  0  0  0  0  0
   11.0886  -15.9041   21.4893 C   0  0  0  0  0  0  0  0  0  0  0  0
   11.9217  -16.2598   20.3381 C   0  0  0  0  0  0  0  0  0  0  0  0
   12.5330  -17.3649   20.3155 O   0  0  0  0  0  0  0  0  0  0  0  0
   10.7533  -16.5322   23.8465 C   0  0  0  0  0  0  0  0  0  0  0  0
   11.4994  -15.6455   24.2822 O   0  0  0  0  0  0  0  0  0  0  0  0
   12.1039  -15.4580   19.2253 O   0  0  0  0  0  0  0  0  0  0  0  0
    9.6763  -17.0323   24.5827 N   0  0  0  0  0  0  0  0  0  0  0  0
    9.2096  -16.6457   25.8777 C   0  0  1  0  0  0  0  0  0  0  0  0
    7.7273  -16.2741   25.8441 C   0  0  0  0  0  0  0  0  0  0  0  0
    7.3970  -15.0856   25.0559 C   0  0  0  0  0  0  0  0  0  0  0  0
    7.2532  -14.8669   23.7166 C   0  0  0  0  0  0  0  0  0  0  0  0
    6.8785  -13.5786   23.4962 N   0  0  0  0  0  0  0  0  0  0  0  0
    6.7835  -12.9809   24.6967 C   0  0  0  0  0  0  0  0  0  0  0  0
    6.4145  -11.6695   25.0279 C   0  0  0  0  0  0  0  0  0  0  0  0
    6.3558  -11.2467   26.3437 C   0  0  0  0  0  0  0  0  0  0  0  0
    6.6749  -12.1618   27.3410 C   0  0  0  0  0  0  0  0  0  0  0  0
    7.0353  -13.4442   26.9883 C   0  0  0  0  0  0  0  0  0  0  0  0
    7.0959  -13.8756   25.6862 C   0  0  0  0  0  0  0  0  0  0  0  0
    9.5027  -17.6761   26.8524 C   0  0  0  0  0  0  0  0  0  0  0  0
    9.0751  -17.7359   28.0436 O   0  0  0  0  0  0  0  0  0  0  0  0
   10.3605  -18.7946   26.5095 N   0  0  0  0  0  0  0  0  0  0  0  0
   10.5251  -19.8581   27.5036 C   0  0  0  0  0  0  0  0  0  0  0  0
   11.7232  -19.5038   28.3059 C   0  0  0  0  0  0  0  0  0  0  0  0
   11.9660  -18.3209   28.6764 O   0  0  0  0  0  0  0  0  0  0  0  0
   12.6770  -20.4496   28.7149 O   0  0  0  0  0  0  0  0  0  0  0  0
  2  1  1  6
  2  3  1  0
  3  4  1  0
  4  8  1  0
  5  4  2  0
  6  2  1  0
  7  6  2  0
  9  6  1  0
 10  9  1  0
 10 11  1  6
 11 12  1  0
 12 20  1  0
 13 12  2  0
 13 14  1  0
 14 15  1  0
 15 16  2  0
 16 17  1  0
 18 17  2  0
 19 18  1  0
 20 19  2  0
 20 15  1  0
 21 23  1  0
 21 10  1  0
 22 21  2  0
 24 23  1  0
 25 24  1  0
 25 27  1  0
 26 25  2  0
M  END
$$$$
