DWG.pdb
     RDKit          3D

 27 28  0  0  1  0  0  0  0  0999 V2000
    8.6301  -17.6977   18.9939 N   0  0  0  0  0  0  0  0  0  0  0  0
    9.3444  -16.4502   18.9511 C   0  0  1  0  0  0  0  0  0  0  0  0
    8.7183  -15.5508   17.8877 C   0  0  0  0  0  0  0  0  0  0  0  0
    8.8133  -16.2085   16.5822 C   0  0  0  0  0  0  0  0  0  0  0  0
    7.8892  -16.9752   16.1901 O   0  0  0  0  0  0  0  0  0  0  0  0
    9.2362  -15.7329   20.2881 C   0  0  0  0  0  0  0  0  0  0  0  0
    9.6254  -14.5592   20.3488 O   0  0  0  0  0  0  0  0  0  0  0  0
    9.8706  -16.0557   15.7030 O   0  0  0  0  0  0  0  0  0  0  0  0
    8.7109  -16.4051   21.3945 N   0  0  0  0  0  0  0  0  0  0  0  0
    8.5891  -15.9607   22.7480 C   0  0  1  0  0  0  0  0  0  0  0  0
    7.1272  -15.7158   23.1211 C   0  0  0  0  0  0  0  0  0  0  0  0
    6.8997  -15.2461   24.4887 C   0  0  0  0  0  0  0  0  0  0  0  0
    6.5849  -15.8855   25.6526 C   0  0  0  0  0  0  0  0  0  0  0  0
    6.5393  -14.9897   26.6744 N   0  0  0  0  0  0  0  0  0  0  0  0
    6.8266  -13.7821   26.1580 C   0  0  0  0  0  0  0  0  0  0  0  0
    6.9313  -12.5320   26.7839 C   0  0  0  0  0  0  0  0  0  0  0  0
    7.2631  -11.3936   26.0716 C   0  0  0  0  0  0  0  0  0  0  0  0
    7.4927  -11.5189   24.7057 C   0  0  0  0  0  0  0  0  0  0  0  0
    7.3824  -12.7589   24.1150 C   0  0  0  0  0  0  0  0  0  0  0  0
    7.0550  -13.8957   24.8119 C   0  0  0  0  0  0  0  0  0  0  0  0
    9.2453  -16.8862   23.6482 C   0  0  0  0  0  0  0  0  0  0  0  0
    8.7436  -17.9321   24.1577 O   0  0  0  0  0  0  0  0  0  0  0  0
   10.6215  -16.6715   24.0540 N   0  0  0  0  0  0  0  0  0  0  0  0
   11.1209  -17.4322   25.2022 C   0  0  0  0  0  0  0  0  0  0  0  0
   12.5641  -17.1069   25.3282 C   0  0  0  0  0  0  0  0  0  0  0  0
   13.1543  -16.3211   24.5346 O   0  0  0  0  0  0  0  0  0  0  0  0
   13.3843  -17.6434   26.3338 O   0  0  0  0  0  0  0  0  0  0  0  0
  2  1  1  1
  2  3  1  0
  3  4  1  0
  4  8  1  0
  5  4  2  0
  6  2  1  0
  7  6  2  0
  9  6  1  0
 10  9  1  0
 10 11  1  1
 11 12  1  0
 12 20  1  0
 13 12  2  0
 13 14  1  0
 14 15  1  0
 15 16  2  0
 16 17  1  0
 18 17  2  0
 19 18  1  0
 20 19  2  0
 20 15  1  0
 21 23  1  0
 21 10  1  0
 22 21  2  0
 24 23  1  0
 25 24  1  0
 25 27  1  0
 26 25  2  0
M  END
$$$$
