DWG.pdb
     RDKit          3D

 27 28  0  0  1  0  0  0  0  0999 V2000
    7.5799  -16.4704   21.1669 N   0  0  0  0  0  0  0  0  0  0  0  0
    9.0106  -16.5513   21.2900 C   0  0  1  0  0  0  0  0  0  0  0  0
    9.6561  -15.8844   20.0775 C   0  0  0  0  0  0  0  0  0  0  0  0
    9.9746  -16.9060   19.0772 C   0  0  0  0  0  0  0  0  0  0  0  0
    9.1096  -17.2472   18.2222 O   0  0  0  0  0  0  0  0  0  0  0  0
    9.4771  -15.8076   22.5322 C   0  0  0  0  0  0  0  0  0  0  0  0
    9.6504  -14.5849   22.4443 O   0  0  0  0  0  0  0  0  0  0  0  0
   11.1920  -17.5564   18.9816 O   0  0  0  0  0  0  0  0  0  0  0  0
    9.6956  -16.5107   23.7196 N   0  0  0  0  0  0  0  0  0  0  0  0
   10.1057  -16.0198   24.9982 C   0  0  1  0  0  0  0  0  0  0  0  0
    9.0352  -16.2752   26.0590 C   0  0  0  0  0  0  0  0  0  0  0  0
    7.7394  -15.6428   25.8064 C   0  0  0  0  0  0  0  0  0  0  0  0
    6.5485  -16.1152   25.3365 C   0  0  0  0  0  0  0  0  0  0  0  0
    5.6220  -15.1201   25.3416 N   0  0  0  0  0  0  0  0  0  0  0  0
    6.2258  -14.0167   25.8162 C   0  0  0  0  0  0  0  0  0  0  0  0
    5.7139  -12.7311   26.0417 C   0  0  0  0  0  0  0  0  0  0  0  0
    6.5023  -11.7217   26.5642 C   0  0  0  0  0  0  0  0  0  0  0  0
    7.8285  -12.0143   26.8635 C   0  0  0  0  0  0  0  0  0  0  0  0
    8.3068  -13.2856   26.6315 C   0  0  0  0  0  0  0  0  0  0  0  0
    7.5336  -14.2956   26.1146 C   0  0  0  0  0  0  0  0  0  0  0  0
   11.3943  -16.5700   25.3648 C   0  0  0  0  0  0  0  0  0  0  0  0
   11.9938  -16.4235   26.4714 O   0  0  0  0  0  0  0  0  0  0  0  0
   12.1400  -17.3909   24.4295 N   0  0  0  0  0  0  0  0  0  0  0  0
   13.4036  -17.9725   24.8892 C   0  0  0  0  0  0  0  0  0  0  0  0
   14.4869  -17.2220   24.2050 C   0  0  0  0  0  0  0  0  0  0  0  0
   15.6632  -17.6707   24.1030 O   0  0  0  0  0  0  0  0  0  0  0  0
   14.2919  -15.9606   23.6198 O   0  0  0  0  0  0  0  0  0  0  0  0
  2  1  1  6
  2  3  1  0
  3  4  1  0
  4  8  1  0
  5  4  2  0
  6  2  1  0
  7  6  2  0
  9  6  1  0
 10  9  1  0
 10 11  1  1
 11 12  1  0
 12 20  1  0
 13 12  2  0
 13 14  1  0
 14 15  1  0
 15 16  2  0
 16 17  1  0
 18 17  2  0
 19 18  1  0
 20 19  2  0
 20 15  1  0
 21 23  1  0
 21 10  1  0
 22 21  2  0
 24 23  1  0
 25 24  1  0
 25 27  1  0
 26 25  2  0
M  END
$$$$
