DWG.pdb
     RDKit          3D

 27 28  0  0  1  0  0  0  0  0999 V2000
    7.7439  -17.6756   21.5686 N   0  0  0  0  0  0  0  0  0  0  0  0
    8.6967  -16.7390   21.0362 C   0  0  1  0  0  0  0  0  0  0  0  0
    7.9926  -15.8189   20.0416 C   0  0  0  0  0  0  0  0  0  0  0  0
    8.0722  -16.4054   18.7016 C   0  0  0  0  0  0  0  0  0  0  0  0
    8.2791  -17.6437   18.5630 O   0  0  0  0  0  0  0  0  0  0  0  0
    9.2642  -15.8717   22.1496 C   0  0  0  0  0  0  0  0  0  0  0  0
    9.6354  -14.7268   21.8597 O   0  0  0  0  0  0  0  0  0  0  0  0
    7.9329  -15.6917   17.5245 O   0  0  0  0  0  0  0  0  0  0  0  0
    9.3516  -16.3804   23.4479 N   0  0  0  0  0  0  0  0  0  0  0  0
    9.9127  -15.7800   24.6179 C   0  0  1  0  0  0  0  0  0  0  0  0
    9.0294  -16.0212   25.8419 C   0  0  0  0  0  0  0  0  0  0  0  0
    7.7010  -15.4089   25.7865 C   0  0  0  0  0  0  0  0  0  0  0  0
    6.4559  -15.9070   25.5337 C   0  0  0  0  0  0  0  0  0  0  0  0
    5.5288  -14.9205   25.6603 N   0  0  0  0  0  0  0  0  0  0  0  0
    6.1867  -13.7968   25.9948 C   0  0  0  0  0  0  0  0  0  0  0  0
    5.7007  -12.5091   26.2616 C   0  0  0  0  0  0  0  0  0  0  0  0
    6.5498  -11.4761   26.6157 C   0  0  0  0  0  0  0  0  0  0  0  0
    7.9111  -11.7469   26.7017 C   0  0  0  0  0  0  0  0  0  0  0  0
    8.3627  -13.0209   26.4336 C   0  0  0  0  0  0  0  0  0  0  0  0
    7.5295  -14.0542   26.0825 C   0  0  0  0  0  0  0  0  0  0  0  0
   11.2746  -16.2302   24.8174 C   0  0  0  0  0  0  0  0  0  0  0  0
   11.8889  -16.3200   25.9219 O   0  0  0  0  0  0  0  0  0  0  0  0
   12.0876  -16.6461   23.6902 N   0  0  0  0  0  0  0  0  0  0  0  0
   13.4329  -17.1544   23.9699 C   0  0  0  0  0  0  0  0  0  0  0  0
   14.0304  -17.5106   22.6581 C   0  0  0  0  0  0  0  0  0  0  0  0
   14.3541  -16.6407   21.8014 O   0  0  0  0  0  0  0  0  0  0  0  0
   14.2823  -18.8354   22.2667 O   0  0  0  0  0  0  0  0  0  0  0  0
  2  1  1  1
  2  3  1  0
  3  4  1  0
  4  8  1  0
  5  4  2  0
  6  2  1  0
  7  6  2  0
  9  6  1  0
 10  9  1  0
 10 11  1  1
 11 12  1  0
 12 20  1  0
 13 12  2  0
 13 14  1  0
 14 15  1  0
 15 16  2  0
 16 17  1  0
 18 17  2  0
 19 18  1  0
 20 19  2  0
 20 15  1  0
 21 23  1  0
 21 10  1  0
 22 21  2  0
 24 23  1  0
 25 24  1  0
 25 27  1  0
 26 25  2  0
M  END
$$$$
