HTL.pdb
     RDKit          3D

 26 26  0  0  1  0  0  0  0  0999 V2000
    8.5395  -16.9377   19.2002 N   0  0  0  0  0  0  0  0  0  0  0  0
    8.2162  -15.8732   20.0825 C   0  0  1  0  0  0  0  0  0  0  0  0
    7.1180  -15.0163   19.4616 C   0  0  0  0  0  0  0  0  0  0  0  0
    7.6874  -14.2664   18.3202 C   0  0  0  0  0  0  0  0  0  0  0  0
    8.3390  -13.0719   18.2664 C   0  0  0  0  0  0  0  0  0  0  0  0
    8.6757  -12.7801   16.9822 N   0  0  0  0  0  0  0  0  0  0  0  0
    8.2316  -13.7968   16.2330 C   0  0  0  0  0  0  0  0  0  0  0  0
    7.6242  -14.7168   17.0291 N   0  0  0  0  0  0  0  0  0  0  0  0
    7.9712  -16.2038   21.4787 C   0  0  0  0  0  0  0  0  0  0  0  0
    7.0061  -17.0162   21.7339 O   0  0  0  0  0  0  0  0  0  0  0  0
    8.1467  -18.6264   23.0611 C   0  0  0  0  0  0  0  0  0  0  0  0
    8.9509  -17.7456   23.9699 C   0  0  1  0  0  0  0  0  0  0  0  0
   10.2917  -17.7021   23.5746 O   0  0  0  0  0  0  0  0  0  0  0  0
    8.4173  -16.3213   23.9295 C   0  0  2  0  0  0  0  0  0  0  0  0
    8.6692  -15.7389   22.6017 N   0  0  0  0  0  0  0  0  0  0  0  0
    9.0537  -15.4699   24.9562 C   0  0  0  0  0  0  0  0  0  0  0  0
   10.2445  -15.0309   24.7916 O   0  0  0  0  0  0  0  0  0  0  0  0
    8.1790  -12.1141   25.6610 C   0  0  0  0  0  0  0  0  0  0  0  0
    7.5152  -12.0760   27.0552 C   0  0  1  0  0  0  0  0  0  0  0  0
    6.0260  -11.9361   26.7627 C   0  0  0  0  0  0  0  0  0  0  0  0
    7.7436  -13.3902   27.7571 C   0  0  0  0  0  0  0  0  0  0  0  0
    8.8715  -14.1862   27.1205 C   0  0  2  0  0  0  0  0  0  0  0  0
    8.3564  -15.1242   26.1392 N   0  0  0  0  0  0  0  0  0  0  0  0
    9.7665  -14.8336   28.0874 C   0  0  0  0  0  0  0  0  0  0  0  0
    9.9446  -16.1904   28.2507 O   0  0  0  0  0  0  0  0  0  0  0  0
   10.4566  -14.0970   28.8579 O   0  0  0  0  0  0  0  0  0  0  0  0
  2  1  1  6
  3  2  1  0
  4  3  1  0
  5  4  2  0
  6  7  1  0
  6  5  1  0
  7  8  2  0
  8  4  1  0
  9  2  1  0
  9 15  1  0
 10  9  2  0
 12 11  1  6
 13 12  1  0
 14 12  1  0
 14 15  1  6
 16 17  2  0
 16 14  1  0
 19 18  1  6
 19 21  1  0
 20 19  1  0
 22 21  1  1
 22 24  1  0
 22 23  1  0
 23 16  1  0
 24 25  1  0
 26 24  2  0
M  END
$$$$
