HTL.pdb
     RDKit          3D

 26 26  0  0  1  0  0  0  0  0999 V2000
   11.0136  -16.5621   18.2043 N   0  0  0  0  0  0  0  0  0  0  0  0
   11.1174  -15.7748   19.3813 C   0  0  1  0  0  0  0  0  0  0  0  0
   11.6300  -14.3853   19.0179 C   0  0  0  0  0  0  0  0  0  0  0  0
   13.1094  -14.4010   19.0467 C   0  0  0  0  0  0  0  0  0  0  0  0
   14.0191  -14.8965   18.1627 C   0  0  0  0  0  0  0  0  0  0  0  0
   15.2808  -14.6828   18.6209 N   0  0  0  0  0  0  0  0  0  0  0  0
   15.1565  -14.0521   19.7952 C   0  0  0  0  0  0  0  0  0  0  0  0
   13.8386  -13.8694   20.0759 N   0  0  0  0  0  0  0  0  0  0  0  0
    9.9737  -15.7515   20.2815 C   0  0  0  0  0  0  0  0  0  0  0  0
    8.8103  -15.9422   19.7651 O   0  0  0  0  0  0  0  0  0  0  0  0
    7.9311  -17.4607   20.8419 C   0  0  0  0  0  0  0  0  0  0  0  0
    8.3116  -17.2238   22.2728 C   0  0  1  0  0  0  0  0  0  0  0  0
    9.3691  -18.0539   22.6583 O   0  0  0  0  0  0  0  0  0  0  0  0
    8.7683  -15.7852   22.4645 C   0  0  2  0  0  0  0  0  0  0  0  0
    9.9819  -15.5438   21.6676 N   0  0  0  0  0  0  0  0  0  0  0  0
    9.0579  -15.4879   23.8828 C   0  0  0  0  0  0  0  0  0  0  0  0
   10.2557  -15.5478   24.3295 O   0  0  0  0  0  0  0  0  0  0  0  0
    5.5521  -12.0150   26.5065 C   0  0  0  0  0  0  0  0  0  0  0  0
    6.7841  -12.7378   25.9187 C   0  0  1  0  0  0  0  0  0  0  0  0
    7.9343  -11.7606   26.1306 C   0  0  0  0  0  0  0  0  0  0  0  0
    7.0632  -13.9857   26.7168 C   0  0  0  0  0  0  0  0  0  0  0  0
    8.2428  -14.7655   26.1585 C   0  0  2  0  0  0  0  0  0  0  0  0
    8.0152  -15.1304   24.7717 N   0  0  0  0  0  0  0  0  0  0  0  0
    8.6378  -15.9191   26.9759 C   0  0  0  0  0  0  0  0  0  0  0  0
    9.3955  -15.8810   28.1265 O   0  0  0  0  0  0  0  0  0  0  0  0
    8.2567  -17.0747   26.6127 O   0  0  0  0  0  0  0  0  0  0  0  0
  2  1  1  6
  3  2  1  0
  4  3  1  0
  5  4  2  0
  6  7  1  0
  6  5  1  0
  7  8  2  0
  8  4  1  0
  9  2  1  0
  9 15  1  0
 10  9  2  0
 12 11  1  6
 13 12  1  0
 14 12  1  0
 14 15  1  6
 16 17  2  0
 16 14  1  0
 19 18  1  1
 19 21  1  0
 20 19  1  0
 22 21  1  1
 22 24  1  0
 22 23  1  0
 23 16  1  0
 24 25  1  0
 26 24  2  0
M  END
$$$$
