HTL.pdb
     RDKit          3D

 26 26  0  0  1  0  0  0  0  0999 V2000
    8.1967  -16.5220   19.4648 N   0  0  0  0  0  0  0  0  0  0  0  0
    7.8848  -15.4821   20.3798 C   0  0  1  0  0  0  0  0  0  0  0  0
    6.8744  -14.5334   19.7435 C   0  0  0  0  0  0  0  0  0  0  0  0
    7.4791  -13.9367   18.5320 C   0  0  0  0  0  0  0  0  0  0  0  0
    8.1144  -12.7479   18.3384 C   0  0  0  0  0  0  0  0  0  0  0  0
    8.4994  -12.6293   17.0402 N   0  0  0  0  0  0  0  0  0  0  0  0
    8.1018  -13.7485   16.4226 C   0  0  0  0  0  0  0  0  0  0  0  0
    7.4760  -14.5622   17.3145 N   0  0  0  0  0  0  0  0  0  0  0  0
    7.5422  -15.8616   21.7427 C   0  0  0  0  0  0  0  0  0  0  0  0
    6.3820  -15.5157   22.1794 O   0  0  0  0  0  0  0  0  0  0  0  0
    7.4858  -18.6423   25.6905 C   0  0  0  0  0  0  0  0  0  0  0  0
    7.9450  -18.3440   24.2946 C   0  0  1  0  0  0  0  0  0  0  0  0
    7.1554  -19.0082   23.3505 O   0  0  0  0  0  0  0  0  0  0  0  0
    7.8357  -16.8530   24.0121 C   0  0  2  0  0  0  0  0  0  0  0  0
    8.3337  -16.5712   22.6562 N   0  0  0  0  0  0  0  0  0  0  0  0
    8.6109  -16.0542   24.9843 C   0  0  0  0  0  0  0  0  0  0  0  0
    9.8868  -15.9927   24.9065 O   0  0  0  0  0  0  0  0  0  0  0  0
    6.0864  -11.8129   27.5024 C   0  0  0  0  0  0  0  0  0  0  0  0
    7.0910  -12.7279   26.7679 C   0  0  1  0  0  0  0  0  0  0  0  0
    8.1325  -11.7702   26.2014 C   0  0  0  0  0  0  0  0  0  0  0  0
    7.7667  -13.6350   27.7641 C   0  0  0  0  0  0  0  0  0  0  0  0
    8.6629  -14.6579   27.0849 C   0  0  2  0  0  0  0  0  0  0  0  0
    7.9550  -15.3422   26.0178 N   0  0  0  0  0  0  0  0  0  0  0  0
    9.3079  -15.5967   28.0111 C   0  0  0  0  0  0  0  0  0  0  0  0
   10.4682  -15.3734   28.7206 O   0  0  0  0  0  0  0  0  0  0  0  0
    8.7649  -16.7294   28.1974 O   0  0  0  0  0  0  0  0  0  0  0  0
  2  1  1  6
  3  2  1  0
  4  3  1  0
  5  4  2  0
  6  7  1  0
  6  5  1  0
  7  8  2  0
  8  4  1  0
  9  2  1  0
  9 15  1  0
 10  9  2  0
 12 11  1  1
 13 12  1  0
 14 12  1  0
 14 15  1  6
 16 17  2  0
 16 14  1  0
 19 18  1  1
 19 21  1  0
 20 19  1  0
 22 21  1  1
 22 24  1  0
 22 23  1  0
 23 16  1  0
 24 25  1  0
 26 24  2  0
M  END
$$$$
