HTL.pdb
     RDKit          3D

 26 26  0  0  1  0  0  0  0  0999 V2000
    7.9182  -17.2840   18.7884 N   0  0  0  0  0  0  0  0  0  0  0  0
    8.0084  -16.2088   19.7113 C   0  0  1  0  0  0  0  0  0  0  0  0
    7.1623  -15.0416   19.2139 C   0  0  0  0  0  0  0  0  0  0  0  0
    7.8282  -14.4377   18.0386 C   0  0  0  0  0  0  0  0  0  0  0  0
    9.0235  -14.7101   17.4458 C   0  0  0  0  0  0  0  0  0  0  0  0
    9.2186  -13.8835   16.3847 N   0  0  0  0  0  0  0  0  0  0  0  0
    8.1406  -13.0926   16.3164 C   0  0  0  0  0  0  0  0  0  0  0  0
    7.2775  -13.4130   17.3172 N   0  0  0  0  0  0  0  0  0  0  0  0
    7.8059  -16.5098   21.1210 C   0  0  0  0  0  0  0  0  0  0  0  0
    6.6448  -16.9389   21.4735 O   0  0  0  0  0  0  0  0  0  0  0  0
    8.1642  -19.1300   23.0005 C   0  0  0  0  0  0  0  0  0  0  0  0
    8.8374  -18.1224   23.8835 C   0  0  1  0  0  0  0  0  0  0  0  0
   10.2245  -18.1422   23.7062 O   0  0  0  0  0  0  0  0  0  0  0  0
    8.3545  -16.7199   23.5447 C   0  0  2  0  0  0  0  0  0  0  0  0
    8.7361  -16.3886   22.1624 N   0  0  0  0  0  0  0  0  0  0  0  0
    8.9284  -15.7088   24.4569 C   0  0  0  0  0  0  0  0  0  0  0  0
   10.0734  -15.1898   24.2166 O   0  0  0  0  0  0  0  0  0  0  0  0
    5.9771  -11.6658   26.0973 C   0  0  0  0  0  0  0  0  0  0  0  0
    7.0875  -12.6548   25.6791 C   0  0  1  0  0  0  0  0  0  0  0  0
    8.1472  -11.7795   25.0209 C   0  0  0  0  0  0  0  0  0  0  0  0
    7.6862  -13.2880   26.9090 C   0  0  0  0  0  0  0  0  0  0  0  0
    8.7409  -14.3251   26.5582 C   0  0  2  0  0  0  0  0  0  0  0  0
    8.2209  -15.2959   25.6120 N   0  0  0  0  0  0  0  0  0  0  0  0
    9.3598  -14.9669   27.7245 C   0  0  0  0  0  0  0  0  0  0  0  0
    9.3491  -16.3142   28.0142 O   0  0  0  0  0  0  0  0  0  0  0  0
    9.9726  -14.2346   28.5617 O   0  0  0  0  0  0  0  0  0  0  0  0
  2  1  1  6
  3  2  1  0
  4  3  1  0
  5  4  2  0
  6  7  1  0
  6  5  1  0
  7  8  2  0
  8  4  1  0
  9  2  1  0
  9 15  1  0
 10  9  2  0
 12 11  1  6
 13 12  1  0
 14 12  1  0
 14 15  1  6
 16 17  2  0
 16 14  1  0
 19 18  1  1
 19 21  1  0
 20 19  1  0
 22 21  1  1
 22 24  1  0
 22 23  1  0
 23 16  1  0
 24 25  1  0
 26 24  2  0
M  END
$$$$
