HTL.pdb
     RDKit          3D

 26 26  0  0  1  0  0  0  0  0999 V2000
    7.0607  -20.4608   23.4721 N   0  0  0  0  0  0  0  0  0  0  0  0
    7.0187  -19.1768   24.0767 C   0  0  1  0  0  0  0  0  0  0  0  0
    7.5334  -19.2739   25.5089 C   0  0  0  0  0  0  0  0  0  0  0  0
    6.7945  -20.3482   26.2084 C   0  0  0  0  0  0  0  0  0  0  0  0
    5.8815  -21.2514   25.7556 C   0  0  0  0  0  0  0  0  0  0  0  0
    5.4662  -22.0482   26.7755 N   0  0  0  0  0  0  0  0  0  0  0  0
    6.1228  -21.6393   27.8682 C   0  0  0  0  0  0  0  0  0  0  0  0
    6.9401  -20.6015   27.5457 N   0  0  0  0  0  0  0  0  0  0  0  0
    7.5859  -18.0612   23.3333 C   0  0  0  0  0  0  0  0  0  0  0  0
    8.7983  -18.1821   22.9183 O   0  0  0  0  0  0  0  0  0  0  0  0
    7.4928  -14.0041   20.5940 C   0  0  0  0  0  0  0  0  0  0  0  0
    6.8133  -15.1847   21.2209 C   0  0  1  0  0  0  0  0  0  0  0  0
    6.5487  -16.1776   20.2722 O   0  0  0  0  0  0  0  0  0  0  0  0
    7.7063  -15.8002   22.2880 C   0  0  2  0  0  0  0  0  0  0  0  0
    6.9640  -16.8485   23.0063 N   0  0  0  0  0  0  0  0  0  0  0  0
    8.1725  -14.7896   23.2603 C   0  0  0  0  0  0  0  0  0  0  0  0
    8.1528  -13.5443   22.9654 O   0  0  0  0  0  0  0  0  0  0  0  0
    7.8255  -11.5936   26.9218 C   0  0  0  0  0  0  0  0  0  0  0  0
    7.0196  -12.9011   27.0862 C   0  0  1  0  0  0  0  0  0  0  0  0
    5.5707  -12.4422   27.1996 C   0  0  0  0  0  0  0  0  0  0  0  0
    7.1603  -13.7385   25.8409 C   0  0  0  0  0  0  0  0  0  0  0  0
    8.5513  -14.3385   25.7135 C   0  0  2  0  0  0  0  0  0  0  0  0
    8.6479  -15.1815   24.5353 N   0  0  0  0  0  0  0  0  0  0  0  0
    9.0199  -15.0245   26.9238 C   0  0  0  0  0  0  0  0  0  0  0  0
    9.0299  -16.3862   27.1362 O   0  0  0  0  0  0  0  0  0  0  0  0
    9.4665  -14.3205   27.8817 O   0  0  0  0  0  0  0  0  0  0  0  0
  2  1  1  6
  3  2  1  0
  4  3  1  0
  5  4  2  0
  6  7  1  0
  6  5  1  0
  7  8  2  0
  8  4  1  0
  9  2  1  0
  9 15  1  0
 10  9  2  0
 12 11  1  6
 13 12  1  0
 14 12  1  0
 14 15  1  1
 16 17  2  0
 16 14  1  0
 19 18  1  6
 19 21  1  0
 20 19  1  0
 22 21  1  1
 22 24  1  0
 22 23  1  0
 23 16  1  0
 24 25  1  0
 26 24  2  0
M  END
$$$$
