HTL.pdb
     RDKit          3D

 26 26  0  0  1  0  0  0  0  0999 V2000
    8.9728  -17.8165   18.5214 N   0  0  0  0  0  0  0  0  0  0  0  0
    8.8167  -16.8360   19.5365 C   0  0  1  0  0  0  0  0  0  0  0  0
    7.5783  -15.9958   19.2433 C   0  0  0  0  0  0  0  0  0  0  0  0
    7.9972  -14.7545   18.5552 C   0  0  0  0  0  0  0  0  0  0  0  0
    9.2265  -14.3122   18.1714 C   0  0  0  0  0  0  0  0  0  0  0  0
    9.1200  -13.0975   17.5708 N   0  0  0  0  0  0  0  0  0  0  0  0
    7.8191  -12.7817   17.5809 C   0  0  0  0  0  0  0  0  0  0  0  0
    7.1137  -13.7795   18.1777 N   0  0  0  0  0  0  0  0  0  0  0  0
    8.9006  -17.2777   20.9210 C   0  0  0  0  0  0  0  0  0  0  0  0
    8.0207  -18.1251   21.3261 O   0  0  0  0  0  0  0  0  0  0  0  0
   10.6238  -19.4963   22.9351 C   0  0  0  0  0  0  0  0  0  0  0  0
   10.7304  -18.2276   23.7272 C   0  0  1  0  0  0  0  0  0  0  0  0
   11.9647  -17.6041   23.5185 O   0  0  0  0  0  0  0  0  0  0  0  0
    9.6471  -17.2483   23.3003 C   0  0  2  0  0  0  0  0  0  0  0  0
    9.8389  -16.8879   21.8864 N   0  0  0  0  0  0  0  0  0  0  0  0
    9.6702  -16.0171   24.1174 C   0  0  0  0  0  0  0  0  0  0  0  0
   10.2835  -14.9726   23.7042 O   0  0  0  0  0  0  0  0  0  0  0  0
    6.5642  -11.8651   26.6186 C   0  0  0  0  0  0  0  0  0  0  0  0
    7.8620  -12.6735   26.8380 C   0  0  1  0  0  0  0  0  0  0  0  0
    7.8206  -13.0655   28.3102 C   0  0  0  0  0  0  0  0  0  0  0  0
    7.8183  -13.9302   26.0068 C   0  0  0  0  0  0  0  0  0  0  0  0
    9.0373  -14.8083   26.2394 C   0  0  2  0  0  0  0  0  0  0  0  0
    9.0133  -15.9716   25.3710 N   0  0  0  0  0  0  0  0  0  0  0  0
    9.2527  -15.1722   27.6452 C   0  0  0  0  0  0  0  0  0  0  0  0
   10.0765  -14.5215   28.5381 O   0  0  0  0  0  0  0  0  0  0  0  0
    8.6311  -16.1772   28.1103 O   0  0  0  0  0  0  0  0  0  0  0  0
  2  1  1  6
  3  2  1  0
  4  3  1  0
  5  4  2  0
  6  7  1  0
  6  5  1  0
  7  8  2  0
  8  4  1  0
  9  2  1  0
  9 15  1  0
 10  9  2  0
 12 11  1  6
 13 12  1  0
 14 12  1  0
 14 15  1  6
 16 17  2  0
 16 14  1  0
 19 18  1  6
 19 21  1  0
 20 19  1  0
 22 21  1  1
 22 24  1  0
 22 23  1  0
 23 16  1  0
 24 25  1  0
 26 24  2  0
M  END
$$$$
