HTL.pdb
     RDKit          3D

 26 26  0  0  1  0  0  0  0  0999 V2000
    6.0841  -18.8798   19.8996 N   0  0  0  0  0  0  0  0  0  0  0  0
    6.0051  -17.8652   20.8898 C   0  0  1  0  0  0  0  0  0  0  0  0
    5.7314  -18.5026   22.2478 C   0  0  0  0  0  0  0  0  0  0  0  0
    4.3496  -19.0318   22.2555 C   0  0  0  0  0  0  0  0  0  0  0  0
    3.4204  -19.1298   21.2648 C   0  0  0  0  0  0  0  0  0  0  0  0
    2.2778  -19.6847   21.7484 N   0  0  0  0  0  0  0  0  0  0  0  0
    2.4959  -19.9331   23.0457 C   0  0  0  0  0  0  0  0  0  0  0  0
    3.7553  -19.5422   23.3779 N   0  0  0  0  0  0  0  0  0  0  0  0
    7.0661  -16.8691   20.9224 C   0  0  0  0  0  0  0  0  0  0  0  0
    8.2689  -17.2789   20.7176 O   0  0  0  0  0  0  0  0  0  0  0  0
    8.8972  -12.4305   20.1754 C   0  0  0  0  0  0  0  0  0  0  0  0
    7.8035  -13.4545   20.1155 C   0  0  1  0  0  0  0  0  0  0  0  0
    7.6792  -13.9860   18.8279 O   0  0  0  0  0  0  0  0  0  0  0  0
    8.1115  -14.6090   21.0574 C   0  0  2  0  0  0  0  0  0  0  0  0
    6.9384  -15.4925   21.1530 N   0  0  0  0  0  0  0  0  0  0  0  0
    8.4646  -14.1312   22.4106 C   0  0  0  0  0  0  0  0  0  0  0  0
    8.6762  -12.8878   22.6277 O   0  0  0  0  0  0  0  0  0  0  0  0
    7.9041  -12.2954   26.8680 C   0  0  0  0  0  0  0  0  0  0  0  0
    6.9372  -13.4468   26.5138 C   0  0  1  0  0  0  0  0  0  0  0  0
    5.5490  -12.8344   26.6577 C   0  0  0  0  0  0  0  0  0  0  0  0
    7.1370  -13.8465   25.0743 C   0  0  0  0  0  0  0  0  0  0  0  0
    8.4133  -14.6491   24.8792 C   0  0  2  0  0  0  0  0  0  0  0  0
    8.5739  -15.0408   23.4903 N   0  0  0  0  0  0  0  0  0  0  0  0
    8.5487  -15.7892   25.7942 C   0  0  0  0  0  0  0  0  0  0  0  0
    9.2339  -15.7970   26.9900 O   0  0  0  0  0  0  0  0  0  0  0  0
    7.9890  -16.8848   25.4799 O   0  0  0  0  0  0  0  0  0  0  0  0
  2  1  1  6
  3  2  1  0
  4  3  1  0
  5  4  2  0
  6  7  1  0
  6  5  1  0
  7  8  2  0
  8  4  1  0
  9  2  1  0
  9 15  1  0
 10  9  2  0
 12 11  1  6
 13 12  1  0
 14 12  1  0
 14 15  1  1
 16 17  2  0
 16 14  1  0
 19 18  1  6
 19 21  1  0
 20 19  1  0
 22 21  1  6
 22 24  1  0
 22 23  1  0
 23 16  1  0
 24 25  1  0
 26 24  2  0
M  END
$$$$
