HTL.pdb
     RDKit          3D

 26 26  0  0  1  0  0  0  0  0999 V2000
    8.4350  -16.7916   19.3675 N   0  0  0  0  0  0  0  0  0  0  0  0
    8.3496  -15.8057   20.3857 C   0  0  1  0  0  0  0  0  0  0  0  0
    7.2557  -14.8042   20.0308 C   0  0  0  0  0  0  0  0  0  0  0  0
    7.6659  -14.0608   18.8189 C   0  0  0  0  0  0  0  0  0  0  0  0
    8.5418  -13.0318   18.6506 C   0  0  0  0  0  0  0  0  0  0  0  0
    8.5893  -12.6673   17.3421 N   0  0  0  0  0  0  0  0  0  0  0  0
    7.7392  -13.4722   16.6926 C   0  0  0  0  0  0  0  0  0  0  0  0
    7.1633  -14.3319   17.5749 N   0  0  0  0  0  0  0  0  0  0  0  0
    8.2879  -16.2637   21.7660 C   0  0  0  0  0  0  0  0  0  0  0  0
    7.1479  -16.6697   22.2044 O   0  0  0  0  0  0  0  0  0  0  0  0
    9.2039  -19.2077   23.3558 C   0  0  0  0  0  0  0  0  0  0  0  0
    9.8244  -18.1590   24.2297 C   0  0  1  0  0  0  0  0  0  0  0  0
   11.1663  -17.9516   23.8947 O   0  0  0  0  0  0  0  0  0  0  0  0
    9.1004  -16.8323   24.0542 C   0  0  2  0  0  0  0  0  0  0  0  0
    9.3359  -16.3192   22.6951 N   0  0  0  0  0  0  0  0  0  0  0  0
    9.5590  -15.8255   25.0340 C   0  0  0  0  0  0  0  0  0  0  0  0
   10.6759  -15.2215   24.8730 O   0  0  0  0  0  0  0  0  0  0  0  0
    6.2043  -12.1441   26.9280 C   0  0  0  0  0  0  0  0  0  0  0  0
    7.4527  -12.9234   26.4586 C   0  0  1  0  0  0  0  0  0  0  0  0
    8.4399  -11.8409   26.0384 C   0  0  0  0  0  0  0  0  0  0  0  0
    8.0396  -13.6808   27.6220 C   0  0  0  0  0  0  0  0  0  0  0  0
    9.1918  -14.5757   27.1946 C   0  0  2  0  0  0  0  0  0  0  0  0
    8.7701  -15.5109   26.1671 N   0  0  0  0  0  0  0  0  0  0  0  0
    9.8720  -15.2480   28.3083 C   0  0  0  0  0  0  0  0  0  0  0  0
    9.9681  -16.6092   28.5016 O   0  0  0  0  0  0  0  0  0  0  0  0
   10.4367  -14.5312   29.1914 O   0  0  0  0  0  0  0  0  0  0  0  0
  2  1  1  6
  3  2  1  0
  4  3  1  0
  5  4  2  0
  6  7  1  0
  6  5  1  0
  7  8  2  0
  8  4  1  0
  9  2  1  0
  9 15  1  0
 10  9  2  0
 12 11  1  6
 13 12  1  0
 14 12  1  0
 14 15  1  6
 16 17  2  0
 16 14  1  0
 19 18  1  1
 19 21  1  0
 20 19  1  0
 22 21  1  1
 22 24  1  0
 22 23  1  0
 23 16  1  0
 24 25  1  0
 26 24  2  0
M  END
$$$$
