PEE.pdb
     RDKit          3D

 26 26  0  0  1  0  0  0  0  0999 V2000
    7.9913  -14.3949   18.7857 N   0  0  0  0  0  0  0  0  0  0  0  0
    6.9666  -13.3706   19.0220 C   0  0  0  0  0  0  0  0  0  0  0  0
    7.5477  -12.5882   20.1818 C   0  0  0  0  0  0  0  0  0  0  0  0
    9.0267  -12.6273   19.9561 C   0  0  0  0  0  0  0  0  0  0  0  0
    9.2481  -13.6644   18.8954 C   0  0  1  0  0  0  0  0  0  0  0  0
   10.4055  -14.5445   19.1304 C   0  0  0  0  0  0  0  0  0  0  0  0
   10.2758  -15.6746   19.6459 O   0  0  0  0  0  0  0  0  0  0  0  0
   11.6954  -14.1277   18.7769 N   0  0  0  0  0  0  0  0  0  0  0  0
   12.8486  -14.9520   19.0130 C   0  0  1  0  0  0  0  0  0  0  0  0
   13.9947  -14.7238   18.1167 C   0  0  0  0  0  0  0  0  0  0  0  0
   15.1581  -15.6500   18.2557 C   0  0  0  0  0  0  0  0  0  0  0  0
   16.2691  -15.3522   17.3396 C   0  0  0  0  0  0  0  0  0  0  0  0
   17.3089  -14.8239   17.7657 O   0  0  0  0  0  0  0  0  0  0  0  0
   13.3306  -14.7591   20.4308 C   0  0  0  0  0  0  0  0  0  0  0  0
   13.6173  -13.6396   20.8688 O   0  0  0  0  0  0  0  0  0  0  0  0
   16.1585  -15.6597   16.0014 O   0  0  0  0  0  0  0  0  0  0  0  0
   13.4563  -15.8734   21.2721 N   0  0  0  0  0  0  0  0  0  0  0  0
   13.8375  -15.8383   22.6596 C   0  0  1  0  0  0  0  0  0  0  0  0
   13.3720  -16.9896   23.4638 C   0  0  0  0  0  0  0  0  0  0  0  0
   11.8923  -17.2263   23.3916 C   0  0  0  0  0  0  0  0  0  0  0  0
   11.4247  -18.3901   24.1714 C   0  0  0  0  0  0  0  0  0  0  0  0
   12.2424  -19.1472   24.7396 O   0  0  0  0  0  0  0  0  0  0  0  0
   15.3260  -15.8318   22.7151 C   0  0  0  0  0  0  0  0  0  0  0  0
   15.9890  -16.1053   21.6941 O   0  0  0  0  0  0  0  0  0  0  0  0
   10.0782  -18.6970   24.3101 O   0  0  0  0  0  0  0  0  0  0  0  0
   16.0258  -15.5289   23.8732 O   0  0  0  0  0  0  0  0  0  0  0  0
  1  2  1  0
  1  5  1  0
  2  3  1  0
  3  4  1  0
  5  6  1  1
  5  4  1  0
  6  7  2  0
  8  9  1  0
  8  6  1  0
  9 10  1  6
 11 10  1  0
 12 11  1  0
 12 13  2  0
 14 15  2  0
 14  9  1  0
 16 12  1  0
 17 14  1  0
 18 17  1  0
 18 19  1  1
 20 21  1  0
 20 19  1  0
 21 22  2  0
 23 18  1  0
 23 26  1  0
 24 23  2  0
 25 21  1  0
M  END
$$$$
