PEE.pdb
     RDKit          3D

 26 26  0  0  1  0  0  0  0  0999 V2000
    9.1086  -13.3223   18.0163 N   0  0  0  0  0  0  0  0  0  0  0  0
    7.9044  -12.6084   17.5743 C   0  0  0  0  0  0  0  0  0  0  0  0
    6.7964  -13.3788   18.2627 C   0  0  0  0  0  0  0  0  0  0  0  0
    7.3962  -13.8162   19.5622 C   0  0  0  0  0  0  0  0  0  0  0  0
    8.8697  -13.5674   19.4334 C   0  0  1  0  0  0  0  0  0  0  0  0
    9.7223  -14.6351   19.9834 C   0  0  0  0  0  0  0  0  0  0  0  0
    9.5118  -15.1262   21.1122 O   0  0  0  0  0  0  0  0  0  0  0  0
   10.8037  -15.1299   19.2429 N   0  0  0  0  0  0  0  0  0  0  0  0
   11.6502  -16.1763   19.7463 C   0  0  1  0  0  0  0  0  0  0  0  0
   12.6043  -16.7494   18.7818 C   0  0  0  0  0  0  0  0  0  0  0  0
   13.5564  -17.7769   19.2999 C   0  0  0  0  0  0  0  0  0  0  0  0
   14.4571  -18.3248   18.2748 C   0  0  0  0  0  0  0  0  0  0  0  0
   15.1712  -19.3084   18.5285 O   0  0  0  0  0  0  0  0  0  0  0  0
   12.4423  -15.6670   20.9264 C   0  0  0  0  0  0  0  0  0  0  0  0
   13.0160  -14.5728   20.8954 O   0  0  0  0  0  0  0  0  0  0  0  0
   14.5111  -17.7459   17.0260 O   0  0  0  0  0  0  0  0  0  0  0  0
   12.5306  -16.4507   22.0854 N   0  0  0  0  0  0  0  0  0  0  0  0
   13.0720  -16.0228   23.3484 C   0  0  1  0  0  0  0  0  0  0  0  0
   12.4661  -16.6637   24.5363 C   0  0  0  0  0  0  0  0  0  0  0  0
   13.3209  -17.7282   25.1583 C   0  0  0  0  0  0  0  0  0  0  0  0
   12.7430  -18.3387   26.3725 C   0  0  0  0  0  0  0  0  0  0  0  0
   13.3737  -19.2111   27.0096 O   0  0  0  0  0  0  0  0  0  0  0  0
   14.5222  -16.3630   23.3524 C   0  0  0  0  0  0  0  0  0  0  0  0
   14.9619  -17.2268   22.5667 O   0  0  0  0  0  0  0  0  0  0  0  0
   11.4930  -17.9819   26.8587 O   0  0  0  0  0  0  0  0  0  0  0  0
   15.4273  -15.7514   24.2064 O   0  0  0  0  0  0  0  0  0  0  0  0
  1  2  1  0
  1  5  1  0
  2  3  1  0
  3  4  1  0
  5  6  1  6
  5  4  1  0
  6  7  2  0
  8  9  1  0
  8  6  1  0
  9 10  1  6
 11 10  1  0
 12 11  1  0
 12 13  2  0
 14 15  2  0
 14  9  1  0
 16 12  1  0
 17 14  1  0
 18 17  1  0
 18 19  1  1
 20 21  1  0
 20 19  1  0
 21 22  2  0
 23 18  1  0
 23 26  1  0
 24 23  2  0
 25 21  1  0
M  END
$$$$
