PEE.pdb
     RDKit          3D

 26 26  0  0  1  0  0  0  0  0999 V2000
    9.2424  -14.3205   18.8008 N   0  0  0  0  0  0  0  0  0  0  0  0
    8.6924  -13.5788   17.6594 C   0  0  0  0  0  0  0  0  0  0  0  0
    7.2297  -13.4454   18.0305 C   0  0  0  0  0  0  0  0  0  0  0  0
    7.2319  -13.3184   19.5217 C   0  0  0  0  0  0  0  0  0  0  0  0
    8.6163  -13.6949   19.9592 C   0  0  1  0  0  0  0  0  0  0  0  0
    8.6702  -14.5372   21.1662 C   0  0  0  0  0  0  0  0  0  0  0  0
    8.0328  -14.2439   22.1994 O   0  0  0  0  0  0  0  0  0  0  0  0
    9.4490  -15.7016   21.1829 N   0  0  0  0  0  0  0  0  0  0  0  0
    9.4647  -16.5855   22.3158 C   0  0  1  0  0  0  0  0  0  0  0  0
   10.4123  -17.7103   22.2388 C   0  0  0  0  0  0  0  0  0  0  0  0
   10.3302  -18.7401   23.3174 C   0  0  0  0  0  0  0  0  0  0  0  0
   11.3210  -19.8189   23.1874 C   0  0  0  0  0  0  0  0  0  0  0  0
   11.2122  -20.8551   23.8629 O   0  0  0  0  0  0  0  0  0  0  0  0
    9.7831  -15.8034   23.5674 C   0  0  0  0  0  0  0  0  0  0  0  0
   10.7533  -15.0399   23.6226 O   0  0  0  0  0  0  0  0  0  0  0  0
   12.3764  -19.6819   22.3126 O   0  0  0  0  0  0  0  0  0  0  0  0
    8.9611  -15.9442   24.6942 N   0  0  0  0  0  0  0  0  0  0  0  0
    9.1485  -15.2809   25.9577 C   0  0  1  0  0  0  0  0  0  0  0  0
    7.9599  -14.5623   26.4675 C   0  0  0  0  0  0  0  0  0  0  0  0
    7.8558  -13.1423   25.9950 C   0  0  0  0  0  0  0  0  0  0  0  0
    6.6194  -12.4518   26.4145 C   0  0  0  0  0  0  0  0  0  0  0  0
    5.6212  -13.1044   26.7918 O   0  0  0  0  0  0  0  0  0  0  0  0
    9.5016  -16.3225   26.9623 C   0  0  0  0  0  0  0  0  0  0  0  0
    9.3424  -17.5298   26.6907 O   0  0  0  0  0  0  0  0  0  0  0  0
    6.5050  -11.0687   26.4106 O   0  0  0  0  0  0  0  0  0  0  0  0
   10.0106  -16.0073   28.2130 O   0  0  0  0  0  0  0  0  0  0  0  0
  1  2  1  0
  1  5  1  0
  2  3  1  0
  3  4  1  0
  5  6  1  1
  5  4  1  0
  6  7  2  0
  8  9  1  0
  8  6  1  0
  9 10  1  6
 11 10  1  0
 12 11  1  0
 12 13  2  0
 14 15  2  0
 14  9  1  0
 16 12  1  0
 17 14  1  0
 18 17  1  0
 18 19  1  1
 20 21  1  0
 20 19  1  0
 21 22  2  0
 23 18  1  0
 23 26  1  0
 24 23  2  0
 25 21  1  0
M  END
$$$$
