PEE.pdb
     RDKit          3D

 26 26  0  0  1  0  0  0  0  0999 V2000
    8.0479  -14.8663   19.5173 N   0  0  0  0  0  0  0  0  0  0  0  0
    7.0242  -14.1878   18.7130 C   0  0  0  0  0  0  0  0  0  0  0  0
    7.3527  -12.7253   18.9318 C   0  0  0  0  0  0  0  0  0  0  0  0
    8.8431  -12.6920   19.0634 C   0  0  0  0  0  0  0  0  0  0  0  0
    9.2678  -14.1205   19.2325 C   0  0  1  0  0  0  0  0  0  0  0  0
   10.3194  -14.3323   20.2418 C   0  0  0  0  0  0  0  0  0  0  0  0
   11.4519  -13.8188   20.1263 O   0  0  0  0  0  0  0  0  0  0  0  0
   10.0697  -15.1262   21.3688 N   0  0  0  0  0  0  0  0  0  0  0  0
   11.0786  -15.3677   22.3632 C   0  0  1  0  0  0  0  0  0  0  0  0
   10.6758  -16.2251   23.4907 C   0  0  0  0  0  0  0  0  0  0  0  0
   11.6860  -16.4459   24.5683 C   0  0  0  0  0  0  0  0  0  0  0  0
   11.2345  -17.3575   25.6302 C   0  0  0  0  0  0  0  0  0  0  0  0
   10.1195  -17.2055   26.1550 O   0  0  0  0  0  0  0  0  0  0  0  0
   12.2890  -15.9985   21.7177 C   0  0  0  0  0  0  0  0  0  0  0  0
   12.1945  -17.0200   21.0283 O   0  0  0  0  0  0  0  0  0  0  0  0
   12.0508  -18.3860   26.0470 O   0  0  0  0  0  0  0  0  0  0  0  0
   13.5499  -15.4145   21.9024 N   0  0  0  0  0  0  0  0  0  0  0  0
   14.7859  -15.8915   21.3400 C   0  0  1  0  0  0  0  0  0  0  0  0
   15.4775  -14.9329   20.4502 C   0  0  0  0  0  0  0  0  0  0  0  0
   14.7583  -14.6690   19.1604 C   0  0  0  0  0  0  0  0  0  0  0  0
   15.4694  -13.7541   18.2447 C   0  0  0  0  0  0  0  0  0  0  0  0
   16.4185  -14.1660   17.5417 O   0  0  0  0  0  0  0  0  0  0  0  0
   15.7073  -16.1897   22.4719 C   0  0  0  0  0  0  0  0  0  0  0  0
   16.8193  -16.7101   22.2499 O   0  0  0  0  0  0  0  0  0  0  0  0
   15.1267  -12.4149   18.1209 O   0  0  0  0  0  0  0  0  0  0  0  0
   15.3810  -15.9097   23.7901 O   0  0  0  0  0  0  0  0  0  0  0  0
  1  2  1  0
  1  5  1  0
  2  3  1  0
  3  4  1  0
  5  6  1  1
  5  4  1  0
  6  7  2  0
  8  9  1  0
  8  6  1  0
  9 10  1  1
 11 10  1  0
 12 11  1  0
 12 13  2  0
 14 15  2  0
 14  9  1  0
 16 12  1  0
 17 14  1  0
 18 17  1  0
 18 19  1  6
 20 21  1  0
 20 19  1  0
 21 22  2  0
 23 18  1  0
 23 26  1  0
 24 23  2  0
 25 21  1  0
M  END
$$$$
