PEE.pdb
     RDKit          3D

 26 26  0  0  1  0  0  0  0  0999 V2000
    9.0046  -13.8332   19.0072 N   0  0  0  0  0  0  0  0  0  0  0  0
    7.9158  -12.9654   18.5418 C   0  0  0  0  0  0  0  0  0  0  0  0
    6.7018  -13.5771   19.2105 C   0  0  0  0  0  0  0  0  0  0  0  0
    7.2133  -14.0862   20.5216 C   0  0  0  0  0  0  0  0  0  0  0  0
    8.7090  -14.0385   20.4199 C   0  0  1  0  0  0  0  0  0  0  0  0
    9.3999  -15.2091   20.9872 C   0  0  0  0  0  0  0  0  0  0  0  0
    9.1605  -15.6148   22.1438 O   0  0  0  0  0  0  0  0  0  0  0  0
   10.3547  -15.9025   20.2321 N   0  0  0  0  0  0  0  0  0  0  0  0
   11.0313  -17.0609   20.7470 C   0  0  1  0  0  0  0  0  0  0  0  0
   12.0884  -17.6211   19.8880 C   0  0  0  0  0  0  0  0  0  0  0  0
   12.6305  -18.9601   20.2673 C   0  0  0  0  0  0  0  0  0  0  0  0
   13.6599  -19.4678   19.3481 C   0  0  0  0  0  0  0  0  0  0  0  0
   13.8749  -18.8935   18.2684 O   0  0  0  0  0  0  0  0  0  0  0  0
   11.6524  -16.7353   22.0841 C   0  0  0  0  0  0  0  0  0  0  0  0
   12.1526  -15.6283   22.3115 O   0  0  0  0  0  0  0  0  0  0  0  0
   14.3908  -20.5862   19.6839 O   0  0  0  0  0  0  0  0  0  0  0  0
   11.6632  -17.7087   23.0929 N   0  0  0  0  0  0  0  0  0  0  0  0
   12.1327  -17.5161   24.4397 C   0  0  1  0  0  0  0  0  0  0  0  0
   11.6649  -18.5265   25.4140 C   0  0  0  0  0  0  0  0  0  0  0  0
   12.2159  -18.3418   26.7971 C   0  0  0  0  0  0  0  0  0  0  0  0
   11.8929  -19.4394   27.7310 C   0  0  0  0  0  0  0  0  0  0  0  0
   12.7642  -20.2747   28.0590 O   0  0  0  0  0  0  0  0  0  0  0  0
   13.6204  -17.5850   24.4094 C   0  0  0  0  0  0  0  0  0  0  0  0
   14.1922  -18.3706   23.6267 O   0  0  0  0  0  0  0  0  0  0  0  0
   10.6285  -19.5965   28.2815 O   0  0  0  0  0  0  0  0  0  0  0  0
   14.4181  -16.7997   25.2276 O   0  0  0  0  0  0  0  0  0  0  0  0
  1  2  1  0
  1  5  1  0
  2  3  1  0
  3  4  1  0
  5  6  1  6
  5  4  1  0
  6  7  2  0
  8  9  1  0
  8  6  1  0
  9 10  1  6
 11 10  1  0
 12 11  1  0
 12 13  2  0
 14 15  2  0
 14  9  1  0
 16 12  1  0
 17 14  1  0
 18 17  1  0
 18 19  1  1
 20 21  1  0
 20 19  1  0
 21 22  2  0
 23 18  1  0
 23 26  1  0
 24 23  2  0
 25 21  1  0
M  END
$$$$
