PEE.pdb
     RDKit          3D

 26 26  0  0  1  0  0  0  0  0999 V2000
    9.0594  -13.8215   18.8540 N   0  0  0  0  0  0  0  0  0  0  0  0
    8.1855  -12.8251   18.2226 C   0  0  0  0  0  0  0  0  0  0  0  0
    6.8087  -13.2611   18.6801 C   0  0  0  0  0  0  0  0  0  0  0  0
    7.0281  -13.8130   20.0538 C   0  0  0  0  0  0  0  0  0  0  0  0
    8.5133  -13.9643   20.1981 C   0  0  1  0  0  0  0  0  0  0  0  0
    8.9414  -15.2068   20.8631 C   0  0  0  0  0  0  0  0  0  0  0  0
    8.4023  -15.6060   21.9165 O   0  0  0  0  0  0  0  0  0  0  0  0
    9.9776  -15.9789   20.3219 N   0  0  0  0  0  0  0  0  0  0  0  0
   10.4234  -17.1931   20.9480 C   0  0  1  0  0  0  0  0  0  0  0  0
   11.1911  -18.1124   20.0910 C   0  0  0  0  0  0  0  0  0  0  0  0
   10.4090  -19.0764   19.2606 C   0  0  0  0  0  0  0  0  0  0  0  0
   11.2376  -19.9108   18.3778 C   0  0  0  0  0  0  0  0  0  0  0  0
   11.7499  -19.4260   17.3558 O   0  0  0  0  0  0  0  0  0  0  0  0
   11.2790  -16.8630   22.1474 C   0  0  0  0  0  0  0  0  0  0  0  0
   12.0479  -15.8954   22.1455 O   0  0  0  0  0  0  0  0  0  0  0  0
   11.4483  -21.2374   18.6835 O   0  0  0  0  0  0  0  0  0  0  0  0
   11.2016  -17.6704   23.2907 N   0  0  0  0  0  0  0  0  0  0  0  0
   11.9951  -17.5168   24.4816 C   0  0  1  0  0  0  0  0  0  0  0  0
   11.6700  -18.4603   25.5740 C   0  0  0  0  0  0  0  0  0  0  0  0
   12.6054  -18.3849   26.7444 C   0  0  0  0  0  0  0  0  0  0  0  0
   12.0774  -18.9900   27.9838 C   0  0  0  0  0  0  0  0  0  0  0  0
   10.9192  -19.4609   28.0203 O   0  0  0  0  0  0  0  0  0  0  0  0
   13.4175  -17.7480   24.1049 C   0  0  0  0  0  0  0  0  0  0  0  0
   14.3221  -17.0800   24.6455 O   0  0  0  0  0  0  0  0  0  0  0  0
   12.8264  -19.0647   29.1498 O   0  0  0  0  0  0  0  0  0  0  0  0
   13.7930  -18.6919   23.1611 O   0  0  0  0  0  0  0  0  0  0  0  0
  1  2  1  0
  1  5  1  0
  2  3  1  0
  3  4  1  0
  5  6  1  6
  5  4  1  0
  6  7  2  0
  8  9  1  0
  8  6  1  0
  9 10  1  6
 11 10  1  0
 12 11  1  0
 12 13  2  0
 14 15  2  0
 14  9  1  0
 16 12  1  0
 17 14  1  0
 18 17  1  0
 18 19  1  1
 20 21  1  0
 20 19  1  0
 21 22  2  0
 23 18  1  0
 23 26  1  0
 24 23  2  0
 25 21  1  0
M  END
$$$$
