PEE.pdb
     RDKit          3D

 26 26  0  0  1  0  0  0  0  0999 V2000
    8.9224  -14.5994   18.8245 N   0  0  0  0  0  0  0  0  0  0  0  0
    8.5272  -13.8253   17.6414 C   0  0  0  0  0  0  0  0  0  0  0  0
    7.2768  -13.1152   18.1180 C   0  0  0  0  0  0  0  0  0  0  0  0
    7.5281  -12.8478   19.5690 C   0  0  0  0  0  0  0  0  0  0  0  0
    8.7289  -13.6704   19.9312 C   0  0  1  0  0  0  0  0  0  0  0  0
    8.6391  -14.3442   21.2379 C   0  0  0  0  0  0  0  0  0  0  0  0
    8.3588  -13.7173   22.2810 O   0  0  0  0  0  0  0  0  0  0  0  0
    8.8700  -15.7221   21.3414 N   0  0  0  0  0  0  0  0  0  0  0  0
    8.6913  -16.4286   22.5799 C   0  0  1  0  0  0  0  0  0  0  0  0
    9.0913  -17.8460   22.5734 C   0  0  0  0  0  0  0  0  0  0  0  0
   10.5459  -18.1385   22.4024 C   0  0  0  0  0  0  0  0  0  0  0  0
   10.8674  -19.5733   22.3907 C   0  0  0  0  0  0  0  0  0  0  0  0
   11.3837  -20.0921   21.3876 O   0  0  0  0  0  0  0  0  0  0  0  0
    9.4674  -15.7388   23.6761 C   0  0  0  0  0  0  0  0  0  0  0  0
   10.5845  -15.2526   23.4688 O   0  0  0  0  0  0  0  0  0  0  0  0
   10.5955  -20.3483   23.4966 O   0  0  0  0  0  0  0  0  0  0  0  0
    8.9105  -15.6459   24.9592 N   0  0  0  0  0  0  0  0  0  0  0  0
    9.4881  -14.9450   26.0758 C   0  0  1  0  0  0  0  0  0  0  0  0
    8.7123  -13.7772   26.5483 C   0  0  0  0  0  0  0  0  0  0  0  0
    7.2263  -13.9816   26.5251 C   0  0  0  0  0  0  0  0  0  0  0  0
    6.4462  -12.8224   27.0035 C   0  0  0  0  0  0  0  0  0  0  0  0
    6.1378  -12.7159   28.2111 O   0  0  0  0  0  0  0  0  0  0  0  0
    9.5775  -15.9063   27.2102 C   0  0  0  0  0  0  0  0  0  0  0  0
    9.0684  -17.0408   27.1075 O   0  0  0  0  0  0  0  0  0  0  0  0
    6.0233  -11.8111   26.1523 O   0  0  0  0  0  0  0  0  0  0  0  0
   10.2142  -15.5936   28.4016 O   0  0  0  0  0  0  0  0  0  0  0  0
  1  2  1  0
  1  5  1  0
  2  3  1  0
  3  4  1  0
  5  6  1  1
  5  4  1  0
  6  7  2  0
  8  9  1  0
  8  6  1  0
  9 10  1  6
 11 10  1  0
 12 11  1  0
 12 13  2  0
 14 15  2  0
 14  9  1  0
 16 12  1  0
 17 14  1  0
 18 17  1  0
 18 19  1  1
 20 21  1  0
 20 19  1  0
 21 22  2  0
 23 18  1  0
 23 26  1  0
 24 23  2  0
 25 21  1  0
M  END
$$$$
