PEE.pdb
     RDKit          3D

 26 26  0  0  1  0  0  0  0  0999 V2000
    8.1716  -17.6461   17.2169 N   0  0  0  0  0  0  0  0  0  0  0  0
    8.8132  -17.1970   15.9752 C   0  0  0  0  0  0  0  0  0  0  0  0
   10.1681  -16.7235   16.4601 C   0  0  0  0  0  0  0  0  0  0  0  0
   10.5002  -17.6392   17.5963 C   0  0  0  0  0  0  0  0  0  0  0  0
    9.2283  -18.3672   17.9159 C   0  0  1  0  0  0  0  0  0  0  0  0
    8.9590  -18.5283   19.3550 C   0  0  0  0  0  0  0  0  0  0  0  0
    9.0810  -17.5773   20.1553 O   0  0  0  0  0  0  0  0  0  0  0  0
    8.5554  -19.7689   19.8654 N   0  0  0  0  0  0  0  0  0  0  0  0
    8.2773  -19.9585   21.2624 C   0  0  1  0  0  0  0  0  0  0  0  0
    7.3061  -21.0175   21.5853 C   0  0  0  0  0  0  0  0  0  0  0  0
    7.0932  -21.3232   23.0316 C   0  0  0  0  0  0  0  0  0  0  0  0
    6.1342  -22.4110   23.2754 C   0  0  0  0  0  0  0  0  0  0  0  0
    4.9665  -22.1542   23.6105 O   0  0  0  0  0  0  0  0  0  0  0  0
    9.5578  -20.2715   21.9985 C   0  0  0  0  0  0  0  0  0  0  0  0
   10.3109  -21.1784   21.6274 O   0  0  0  0  0  0  0  0  0  0  0  0
    6.5307  -23.7225   23.1323 O   0  0  0  0  0  0  0  0  0  0  0  0
    9.9032  -19.5178   23.1289 N   0  0  0  0  0  0  0  0  0  0  0  0
   11.0668  -19.7231   23.9508 C   0  0  1  0  0  0  0  0  0  0  0  0
   11.9704  -18.5563   24.0555 C   0  0  0  0  0  0  0  0  0  0  0  0
   11.6096  -17.4209   23.1439 C   0  0  0  0  0  0  0  0  0  0  0  0
   12.7136  -16.4743   22.8865 C   0  0  0  0  0  0  0  0  0  0  0  0
   12.7291  -15.3490   23.4325 O   0  0  0  0  0  0  0  0  0  0  0  0
   10.5928  -20.0416   25.3265 C   0  0  0  0  0  0  0  0  0  0  0  0
    9.3899  -19.8911   25.6219 O   0  0  0  0  0  0  0  0  0  0  0  0
   13.7704  -16.7801   22.0403 O   0  0  0  0  0  0  0  0  0  0  0  0
   11.4436  -20.5085   26.3169 O   0  0  0  0  0  0  0  0  0  0  0  0
  1  2  1  0
  1  5  1  0
  2  3  1  0
  3  4  1  0
  5  6  1  1
  5  4  1  0
  6  7  2  0
  8  9  1  0
  8  6  1  0
  9 10  1  6
 11 10  1  0
 12 11  1  0
 12 13  2  0
 14 15  2  0
 14  9  1  0
 16 12  1  0
 17 14  1  0
 18 17  1  0
 18 19  1  1
 20 21  1  0
 20 19  1  0
 21 22  2  0
 23 18  1  0
 23 26  1  0
 24 23  2  0
 25 21  1  0
M  END
$$$$
