PEE.pdb
     RDKit          3D

 26 26  0  0  1  0  0  0  0  0999 V2000
    8.4161  -14.8068   19.0224 N   0  0  0  0  0  0  0  0  0  0  0  0
    8.3397  -13.8950   17.8744 C   0  0  0  0  0  0  0  0  0  0  0  0
    7.5559  -12.7268   18.4365 C   0  0  0  0  0  0  0  0  0  0  0  0
    7.9753  -12.6501   19.8711 C   0  0  0  0  0  0  0  0  0  0  0  0
    8.7094  -13.9283   20.1482 C   0  0  1  0  0  0  0  0  0  0  0  0
    8.4016  -14.5421   21.4512 C   0  0  0  0  0  0  0  0  0  0  0  0
    8.5841  -13.9294   22.5241 O   0  0  0  0  0  0  0  0  0  0  0  0
    7.8912  -15.8451   21.5173 N   0  0  0  0  0  0  0  0  0  0  0  0
    7.6906  -16.5168   22.7718 C   0  0  1  0  0  0  0  0  0  0  0  0
    7.0178  -17.8248   22.6987 C   0  0  0  0  0  0  0  0  0  0  0  0
    6.7386  -18.5161   23.9929 C   0  0  0  0  0  0  0  0  0  0  0  0
    6.0072  -19.7832   23.8455 C   0  0  0  0  0  0  0  0  0  0  0  0
    4.9954  -19.8435   23.1283 O   0  0  0  0  0  0  0  0  0  0  0  0
    9.0201  -16.7233   23.4570 C   0  0  0  0  0  0  0  0  0  0  0  0
   10.0490  -16.9567   22.8133 O   0  0  0  0  0  0  0  0  0  0  0  0
    6.4445  -20.9106   24.5054 O   0  0  0  0  0  0  0  0  0  0  0  0
    9.0923  -16.6489   24.8550 N   0  0  0  0  0  0  0  0  0  0  0  0
   10.3033  -16.6173   25.6321 C   0  0  1  0  0  0  0  0  0  0  0  0
   10.4529  -15.4332   26.5064 C   0  0  0  0  0  0  0  0  0  0  0  0
    9.4697  -15.3820   27.6383 C   0  0  0  0  0  0  0  0  0  0  0  0
    9.5829  -14.1786   28.4870 C   0  0  0  0  0  0  0  0  0  0  0  0
   10.4560  -14.1078   29.3799 O   0  0  0  0  0  0  0  0  0  0  0  0
   10.3029  -17.8201   26.5109 C   0  0  0  0  0  0  0  0  0  0  0  0
   11.3544  -18.1761   27.0806 O   0  0  0  0  0  0  0  0  0  0  0  0
    8.7406  -13.0854   28.3394 O   0  0  0  0  0  0  0  0  0  0  0  0
    9.1641  -18.5797   26.7315 O   0  0  0  0  0  0  0  0  0  0  0  0
  1  2  1  0
  1  5  1  0
  2  3  1  0
  3  4  1  0
  5  6  1  1
  5  4  1  0
  6  7  2  0
  8  9  1  0
  8  6  1  0
  9 10  1  6
 11 10  1  0
 12 11  1  0
 12 13  2  0
 14 15  2  0
 14  9  1  0
 16 12  1  0
 17 14  1  0
 18 17  1  0
 18 19  1  1
 20 21  1  0
 20 19  1  0
 21 22  2  0
 23 18  1  0
 23 26  1  0
 24 23  2  0
 25 21  1  0
M  END
$$$$
