PEE.pdb
     RDKit          3D

 26 26  0  0  1  0  0  0  0  0999 V2000
    8.1235  -15.0386   19.1383 N   0  0  0  0  0  0  0  0  0  0  0  0
    6.9490  -14.6176   18.3648 C   0  0  0  0  0  0  0  0  0  0  0  0
    6.9513  -13.1151   18.5588 C   0  0  0  0  0  0  0  0  0  0  0  0
    8.4005  -12.7500   18.6373 C   0  0  0  0  0  0  0  0  0  0  0  0
    9.1372  -14.0458   18.8039 C   0  0  1  0  0  0  0  0  0  0  0  0
   10.2419  -14.0024   19.7771 C   0  0  0  0  0  0  0  0  0  0  0  0
   11.2279  -13.2529   19.6167 O   0  0  0  0  0  0  0  0  0  0  0  0
   10.2114  -14.8125   20.9196 N   0  0  0  0  0  0  0  0  0  0  0  0
   11.3045  -14.8482   21.8518 C   0  0  1  0  0  0  0  0  0  0  0  0
   11.0678  -15.6109   23.0892 C   0  0  0  0  0  0  0  0  0  0  0  0
   10.7410  -17.0605   22.9392 C   0  0  0  0  0  0  0  0  0  0  0  0
   10.5253  -17.7575   24.2160 C   0  0  0  0  0  0  0  0  0  0  0  0
   10.5388  -17.1263   25.2851 O   0  0  0  0  0  0  0  0  0  0  0  0
   12.5261  -15.4300   21.1818 C   0  0  0  0  0  0  0  0  0  0  0  0
   12.4494  -16.4207   20.4469 O   0  0  0  0  0  0  0  0  0  0  0  0
   10.3069  -19.1176   24.2288 O   0  0  0  0  0  0  0  0  0  0  0  0
   13.7771  -14.8348   21.3960 N   0  0  0  0  0  0  0  0  0  0  0  0
   15.0109  -15.2255   20.7663 C   0  0  1  0  0  0  0  0  0  0  0  0
   15.6908  -14.1531   20.0069 C   0  0  0  0  0  0  0  0  0  0  0  0
   16.8351  -14.6333   19.1639 C   0  0  0  0  0  0  0  0  0  0  0  0
   17.5676  -13.5580   18.4650 C   0  0  0  0  0  0  0  0  0  0  0  0
   18.6981  -13.1960   18.8594 O   0  0  0  0  0  0  0  0  0  0  0  0
   15.9426  -15.6662   21.8418 C   0  0  0  0  0  0  0  0  0  0  0  0
   17.0068  -16.2463   21.5455 O   0  0  0  0  0  0  0  0  0  0  0  0
   17.0473  -12.9064   17.3555 O   0  0  0  0  0  0  0  0  0  0  0  0
   15.6780  -15.4573   23.1868 O   0  0  0  0  0  0  0  0  0  0  0  0
  1  2  1  0
  1  5  1  0
  2  3  1  0
  3  4  1  0
  5  6  1  1
  5  4  1  0
  6  7  2  0
  8  9  1  0
  8  6  1  0
  9 10  1  1
 11 10  1  0
 12 11  1  0
 12 13  2  0
 14 15  2  0
 14  9  1  0
 16 12  1  0
 17 14  1  0
 18 17  1  0
 18 19  1  1
 20 21  1  0
 20 19  1  0
 21 22  2  0
 23 18  1  0
 23 26  1  0
 24 23  2  0
 25 21  1  0
M  END
$$$$
