PEE.pdb
     RDKit          3D

 26 26  0  0  1  0  0  0  0  0999 V2000
    8.7190  -13.6288   20.1560 N   0  0  0  0  0  0  0  0  0  0  0  0
    8.0910  -12.9366   19.0239 C   0  0  0  0  0  0  0  0  0  0  0  0
    7.0845  -13.9574   18.5342 C   0  0  0  0  0  0  0  0  0  0  0  0
    6.6331  -14.6629   19.7744 C   0  0  0  0  0  0  0  0  0  0  0  0
    7.5994  -14.2564   20.8472 C   0  0  1  0  0  0  0  0  0  0  0  0
    8.0166  -15.3488   21.7427 C   0  0  0  0  0  0  0  0  0  0  0  0
    7.1882  -16.1350   22.2480 O   0  0  0  0  0  0  0  0  0  0  0  0
    9.3704  -15.5323   22.0528 N   0  0  0  0  0  0  0  0  0  0  0  0
    9.8203  -16.6359   22.8557 C   0  0  1  0  0  0  0  0  0  0  0  0
   11.2646  -16.9195   22.8049 C   0  0  0  0  0  0  0  0  0  0  0  0
   11.7382  -18.1502   23.5060 C   0  0  0  0  0  0  0  0  0  0  0  0
   13.1693  -18.4302   23.3164 C   0  0  0  0  0  0  0  0  0  0  0  0
   13.9346  -18.4735   24.2932 O   0  0  0  0  0  0  0  0  0  0  0  0
    9.4507  -16.3985   24.3002 C   0  0  0  0  0  0  0  0  0  0  0  0
    9.5285  -15.2757   24.8106 O   0  0  0  0  0  0  0  0  0  0  0  0
   13.6661  -18.6457   22.0497 O   0  0  0  0  0  0  0  0  0  0  0  0
    9.0086  -17.4743   25.0828 N   0  0  0  0  0  0  0  0  0  0  0  0
    8.6506  -17.4075   26.4753 C   0  0  1  0  0  0  0  0  0  0  0  0
    7.9126  -18.5834   26.9868 C   0  0  0  0  0  0  0  0  0  0  0  0
    6.8253  -19.0666   26.0730 C   0  0  0  0  0  0  0  0  0  0  0  0
    6.2256  -20.3561   26.4715 C   0  0  0  0  0  0  0  0  0  0  0  0
    6.6540  -20.9775   27.4690 O   0  0  0  0  0  0  0  0  0  0  0  0
    9.9137  -17.3021   27.2578 C   0  0  0  0  0  0  0  0  0  0  0  0
   11.0149  -17.4175   26.6826 O   0  0  0  0  0  0  0  0  0  0  0  0
    5.1755  -20.9333   25.7711 O   0  0  0  0  0  0  0  0  0  0  0  0
    9.9244  -17.0763   28.6259 O   0  0  0  0  0  0  0  0  0  0  0  0
  1  2  1  0
  1  5  1  0
  2  3  1  0
  3  4  1  0
  5  6  1  6
  5  4  1  0
  6  7  2  0
  8  9  1  0
  8  6  1  0
  9 10  1  1
 11 10  1  0
 12 11  1  0
 12 13  2  0
 14 15  2  0
 14  9  1  0
 16 12  1  0
 17 14  1  0
 18 17  1  0
 18 19  1  1
 20 21  1  0
 20 19  1  0
 21 22  2  0
 23 18  1  0
 23 26  1  0
 24 23  2  0
 25 21  1  0
M  END
$$$$
