HCH.pdb
     RDKit          3D

 27 28  0  0  1  0  0  0  0  0999 V2000
   23.3465  -14.8067  -16.5732 N   0  0  0  0  0  0  0  0  0  0  0  0
   23.6307  -13.4752  -16.0870 C   0  0  1  0  0  0  0  0  0  0  0  0
   24.8726  -12.9386  -16.7523 C   0  0  0  0  0  0  0  0  0  0  0  0
   26.1095  -13.6587  -16.3696 C   0  0  0  0  0  0  0  0  0  0  0  0
   26.6783  -14.7085  -17.1064 C   0  0  0  0  0  0  0  0  0  0  0  0
   27.7795  -15.1258  -16.4811 N   0  0  0  0  0  0  0  0  0  0  0  0
   27.9231  -14.3774  -15.3796 C   0  0  0  0  0  0  0  0  0  0  0  0
   26.9257  -13.5023  -15.3145 N   0  0  0  0  0  0  0  0  0  0  0  0
   22.5107  -12.5925  -16.5133 C   0  0  0  0  0  0  0  0  0  0  0  0
   21.6967  -13.0834  -17.3341 O   0  0  0  0  0  0  0  0  0  0  0  0
   22.3006  -11.2723  -16.0727 N   0  0  0  0  0  0  0  0  0  0  0  0
   21.1102  -10.5093  -16.3428 C   0  0  1  0  0  0  0  0  0  0  0  0
   19.8520  -11.1685  -15.8477 C   0  0  0  0  0  0  0  0  0  0  0  0
   18.4018  -10.1059  -16.0787 S   0  0  0  0  0  0  0  0  0  0  0  0
   21.1758   -9.1403  -15.7709 C   0  0  0  0  0  0  0  0  0  0  0  0
   21.4147   -8.9811  -14.5471 O   0  0  0  0  0  0  0  0  0  0  0  0
   20.9726   -8.0182  -16.5888 N   0  0  0  0  0  0  0  0  0  0  0  0
   21.1562   -6.6420  -16.0995 C   0  0  1  0  0  0  0  0  0  0  0  0
   21.7359   -5.8271  -17.2027 C   0  0  0  0  0  0  0  0  0  0  0  0
   23.1061   -6.2830  -17.5241 C   0  0  0  0  0  0  0  0  0  0  0  0
   24.1028   -6.6542  -16.6305 C   0  0  0  0  0  0  0  0  0  0  0  0
   25.2136   -7.0094  -17.2992 N   0  0  0  0  0  0  0  0  0  0  0  0
   24.9166   -6.8626  -18.5981 C   0  0  0  0  0  0  0  0  0  0  0  0
   23.6448   -6.4242  -18.7350 N   0  0  0  0  0  0  0  0  0  0  0  0
   19.8223   -6.1226  -15.7397 C   0  0  0  0  0  0  0  0  0  0  0  0
   19.7034   -4.8963  -15.1201 O   0  0  0  0  0  0  0  0  0  0  0  0
   18.7439   -6.7475  -15.9692 O   0  0  0  0  0  0  0  0  0  0  0  0
  2  1  1  6
  2  9  1  0
  3  2  1  0
  3  4  1  0
  4  5  2  0
  5  6  1  0
  7  6  1  0
  8  4  1  0
  8  7  2  0
  9 11  1  0
  9 10  2  0
 11 12  1  0
 12 15  1  0
 12 13  1  1
 14 13  1  0
 15 16  2  0
 17 15  1  0
 17 18  1  0
 18 25  1  0
 19 20  1  0
 18 19  1  6
 20 24  1  0
 21 20  2  0
 21 22  1  0
 22 23  1  0
 24 23  2  0
 25 26  1  0
 27 25  2  0
M  END
$$$$
