HCH.pdb
     RDKit          3D

 27 28  0  0  1  0  0  0  0  0999 V2000
   21.1147  -14.6340  -17.2396 N   0  0  0  0  0  0  0  0  0  0  0  0
   21.1049  -13.3701  -17.9414 C   0  0  1  0  0  0  0  0  0  0  0  0
   19.7239  -13.0898  -18.4773 C   0  0  0  0  0  0  0  0  0  0  0  0
   19.3191  -13.9953  -19.5779 C   0  0  0  0  0  0  0  0  0  0  0  0
   19.4108  -13.6789  -20.9417 C   0  0  0  0  0  0  0  0  0  0  0  0
   18.9637  -14.7135  -21.6543 N   0  0  0  0  0  0  0  0  0  0  0  0
   18.5950  -15.6669  -20.7890 C   0  0  0  0  0  0  0  0  0  0  0  0
   18.8077  -15.2368  -19.5502 N   0  0  0  0  0  0  0  0  0  0  0  0
   21.3946  -12.3014  -16.9467 C   0  0  0  0  0  0  0  0  0  0  0  0
   20.6937  -12.3063  -15.9046 O   0  0  0  0  0  0  0  0  0  0  0  0
   22.3780  -11.3040  -17.0854 N   0  0  0  0  0  0  0  0  0  0  0  0
   22.6155  -10.2626  -16.1203 C   0  0  1  0  0  0  0  0  0  0  0  0
   24.0752   -9.9791  -15.8932 C   0  0  0  0  0  0  0  0  0  0  0  0
   24.9277  -11.3982  -15.1549 S   0  0  0  0  0  0  0  0  0  0  0  0
   21.9446   -8.9896  -16.4875 C   0  0  0  0  0  0  0  0  0  0  0  0
   22.0445   -8.5410  -17.6575 O   0  0  0  0  0  0  0  0  0  0  0  0
   21.1966   -8.2803  -15.5352 N   0  0  0  0  0  0  0  0  0  0  0  0
   20.4823   -7.0352  -15.8614 C   0  0  1  0  0  0  0  0  0  0  0  0
   19.0728   -7.1706  -15.4006 C   0  0  0  0  0  0  0  0  0  0  0  0
   18.3385   -8.1391  -16.2439 C   0  0  0  0  0  0  0  0  0  0  0  0
   18.2388   -8.1452  -17.6295 C   0  0  0  0  0  0  0  0  0  0  0  0
   17.4862   -9.1833  -18.0336 N   0  0  0  0  0  0  0  0  0  0  0  0
   17.1180   -9.8211  -16.9136 C   0  0  0  0  0  0  0  0  0  0  0  0
   17.6319   -9.1917  -15.8328 N   0  0  0  0  0  0  0  0  0  0  0  0
   21.1477   -5.9420  -15.1260 C   0  0  0  0  0  0  0  0  0  0  0  0
   20.7587   -4.6350  -15.3321 O   0  0  0  0  0  0  0  0  0  0  0  0
   22.0825   -6.1292  -14.2911 O   0  0  0  0  0  0  0  0  0  0  0  0
  2  1  1  1
  2  9  1  0
  3  2  1  0
  3  4  1  0
  4  5  2  0
  5  6  1  0
  7  6  1  0
  8  4  1  0
  8  7  2  0
  9 11  1  0
  9 10  2  0
 11 12  1  0
 12 15  1  0
 12 13  1  6
 14 13  1  0
 15 16  2  0
 17 15  1  0
 17 18  1  0
 18 25  1  0
 19 20  1  0
 18 19  1  1
 20 24  1  0
 21 20  2  0
 21 22  1  0
 22 23  1  0
 24 23  2  0
 25 26  1  0
 27 25  2  0
M  END
$$$$
