HCH.pdb
     RDKit          3D

 27 28  0  0  1  0  0  0  0  0999 V2000
   26.5961  -12.4004  -16.4148 N   0  0  0  0  0  0  0  0  0  0  0  0
   26.5200  -10.9807  -16.6772 C   0  0  1  0  0  0  0  0  0  0  0  0
   27.2103  -10.6603  -17.9786 C   0  0  0  0  0  0  0  0  0  0  0  0
   28.6448  -11.0304  -17.9965 C   0  0  0  0  0  0  0  0  0  0  0  0
   29.6191  -10.4764  -17.1525 C   0  0  0  0  0  0  0  0  0  0  0  0
   30.7983  -11.0315  -17.4341 N   0  0  0  0  0  0  0  0  0  0  0  0
   30.6006  -11.9129  -18.4230 C   0  0  0  0  0  0  0  0  0  0  0  0
   29.3148  -11.9111  -18.7575 N   0  0  0  0  0  0  0  0  0  0  0  0
   25.0847  -10.6350  -16.8666 C   0  0  0  0  0  0  0  0  0  0  0  0
   24.3255  -11.5765  -17.2051 O   0  0  0  0  0  0  0  0  0  0  0  0
   24.5259   -9.3543  -16.6977 N   0  0  0  0  0  0  0  0  0  0  0  0
   23.1168   -9.0701  -16.7746 C   0  0  1  0  0  0  0  0  0  0  0  0
   22.2883   -9.8908  -15.8244 C   0  0  0  0  0  0  0  0  0  0  0  0
   20.5340   -9.4413  -15.9030 S   0  0  0  0  0  0  0  0  0  0  0  0
   22.8168   -7.6354  -16.5355 C   0  0  0  0  0  0  0  0  0  0  0  0
   23.2601   -7.0633  -15.5077 O   0  0  0  0  0  0  0  0  0  0  0  0
   22.0396   -6.9099  -17.4514 N   0  0  0  0  0  0  0  0  0  0  0  0
   21.7490   -5.4772  -17.2782 C   0  0  1  0  0  0  0  0  0  0  0  0
   21.2525   -4.9409  -18.5756 C   0  0  0  0  0  0  0  0  0  0  0  0
   21.1327   -3.4675  -18.5199 C   0  0  0  0  0  0  0  0  0  0  0  0
   22.0076   -2.5723  -17.9174 C   0  0  0  0  0  0  0  0  0  0  0  0
   21.5620   -1.3138  -18.0757 N   0  0  0  0  0  0  0  0  0  0  0  0
   20.4202   -1.4187  -18.7699 C   0  0  0  0  0  0  0  0  0  0  0  0
   20.1601   -2.7182  -19.0386 N   0  0  0  0  0  0  0  0  0  0  0  0
   20.6940   -5.3643  -16.2522 C   0  0  0  0  0  0  0  0  0  0  0  0
   20.7050   -4.3091  -15.3644 O   0  0  0  0  0  0  0  0  0  0  0  0
   19.7481   -6.1985  -16.1278 O   0  0  0  0  0  0  0  0  0  0  0  0
  2  1  1  6
  2  9  1  0
  3  2  1  0
  3  4  1  0
  4  5  2  0
  5  6  1  0
  7  6  1  0
  8  4  1  0
  8  7  2  0
  9 11  1  0
  9 10  2  0
 11 12  1  0
 12 15  1  0
 12 13  1  1
 14 13  1  0
 15 16  2  0
 17 15  1  0
 17 18  1  0
 18 25  1  0
 19 20  1  0
 18 19  1  6
 20 24  1  0
 21 20  2  0
 21 22  1  0
 22 23  1  0
 24 23  2  0
 25 26  1  0
 27 25  2  0
M  END
$$$$
