HCH.pdb
     RDKit          3D

 27 28  0  0  1  0  0  0  0  0999 V2000
   29.2809  -31.8431  -16.1927 N   0  0  0  0  0  0  0  0  0  0  0  0
   27.8814  -32.2020  -16.2424 C   0  0  1  0  0  0  0  0  0  0  0  0
   27.4490  -32.7723  -14.9154 C   0  0  0  0  0  0  0  0  0  0  0  0
   27.9218  -34.1569  -14.6819 C   0  0  0  0  0  0  0  0  0  0  0  0
   28.5497  -34.9560  -15.6492 C   0  0  0  0  0  0  0  0  0  0  0  0
   28.8426  -36.1382  -15.1064 N   0  0  0  0  0  0  0  0  0  0  0  0
   28.4222  -36.1109  -13.8351 C   0  0  0  0  0  0  0  0  0  0  0  0
   27.8729  -34.9277  -13.5833 N   0  0  0  0  0  0  0  0  0  0  0  0
   27.1024  -30.9484  -16.4349 C   0  0  0  0  0  0  0  0  0  0  0  0
   27.7352  -29.8728  -16.2932 O   0  0  0  0  0  0  0  0  0  0  0  0
   25.7342  -30.8807  -16.7577 N   0  0  0  0  0  0  0  0  0  0  0  0
   25.0580  -29.6772  -17.1659 C   0  0  1  0  0  0  0  0  0  0  0  0
   25.6403  -29.0548  -18.4053 C   0  0  0  0  0  0  0  0  0  0  0  0
   25.6032  -30.1980  -19.8116 S   0  0  0  0  0  0  0  0  0  0  0  0
   23.6062  -29.8944  -17.3908 C   0  0  0  0  0  0  0  0  0  0  0  0
   23.2012  -30.9798  -17.8787 O   0  0  0  0  0  0  0  0  0  0  0  0
   22.6787  -28.8939  -17.0618 N   0  0  0  0  0  0  0  0  0  0  0  0
   21.2271  -29.0818  -17.2185 C   0  0  1  0  0  0  0  0  0  0  0  0
   20.5744  -28.7899  -15.9124 C   0  0  0  0  0  0  0  0  0  0  0  0
   20.8224  -29.8844  -14.9486 C   0  0  0  0  0  0  0  0  0  0  0  0
   21.0210  -31.2296  -15.2329 C   0  0  0  0  0  0  0  0  0  0  0  0
   21.2155  -31.9182  -14.0947 N   0  0  0  0  0  0  0  0  0  0  0  0
   21.1396  -31.0146  -13.1076 C   0  0  0  0  0  0  0  0  0  0  0  0
   20.9024  -29.7867  -13.6218 N   0  0  0  0  0  0  0  0  0  0  0  0
   20.7671  -28.1166  -18.2360 C   0  0  0  0  0  0  0  0  0  0  0  0
   19.4468  -28.1105  -18.6343 O   0  0  0  0  0  0  0  0  0  0  0  0
   21.5280  -27.2654  -18.7862 O   0  0  0  0  0  0  0  0  0  0  0  0
  2  1  1  1
  2  9  1  0
  3  2  1  0
  3  4  1  0
  4  5  2  0
  5  6  1  0
  7  6  1  0
  8  4  1  0
  8  7  2  0
  9 11  1  0
  9 10  2  0
 11 12  1  0
 12 15  1  0
 12 13  1  6
 14 13  1  0
 15 16  2  0
 17 15  1  0
 17 18  1  0
 18 25  1  0
 19 20  1  0
 18 19  1  1
 20 24  1  0
 21 20  2  0
 21 22  1  0
 22 23  1  0
 24 23  2  0
 25 26  1  0
 27 25  2  0
M  END
$$$$
