HCH.pdb
     RDKit          3D

 27 28  0  0  1  0  0  0  0  0999 V2000
   21.4264  -16.6995  -16.7859 N   0  0  0  0  0  0  0  0  0  0  0  0
   20.7536  -15.4368  -16.9934 C   0  0  1  0  0  0  0  0  0  0  0  0
   19.3613  -15.4950  -16.4180 C   0  0  0  0  0  0  0  0  0  0  0  0
   18.4779  -16.4703  -17.0988 C   0  0  0  0  0  0  0  0  0  0  0  0
   18.4038  -16.6397  -18.4896 C   0  0  0  0  0  0  0  0  0  0  0  0
   17.5136  -17.5949  -18.7598 N   0  0  0  0  0  0  0  0  0  0  0  0
   17.0265  -18.0314  -17.5910 C   0  0  0  0  0  0  0  0  0  0  0  0
   17.6030  -17.3592  -16.6006 N   0  0  0  0  0  0  0  0  0  0  0  0
   21.4876  -14.4030  -16.2137 C   0  0  0  0  0  0  0  0  0  0  0  0
   22.2935  -14.8265  -15.3486 O   0  0  0  0  0  0  0  0  0  0  0  0
   21.3475  -13.0114  -16.3715 N   0  0  0  0  0  0  0  0  0  0  0  0
   22.2147  -12.0370  -15.7626 C   0  0  1  0  0  0  0  0  0  0  0  0
   23.6655  -12.2259  -16.1124 C   0  0  0  0  0  0  0  0  0  0  0  0
   24.7109  -10.9575  -15.3482 S   0  0  0  0  0  0  0  0  0  0  0  0
   21.8291  -10.6450  -16.1074 C   0  0  0  0  0  0  0  0  0  0  0  0
   21.8624  -10.2615  -17.3040 O   0  0  0  0  0  0  0  0  0  0  0  0
   21.4259   -9.7503  -15.1042 N   0  0  0  0  0  0  0  0  0  0  0  0
   21.0117   -8.3689  -15.3994 C   0  0  1  0  0  0  0  0  0  0  0  0
   20.0738   -7.9239  -14.3319 C   0  0  0  0  0  0  0  0  0  0  0  0
   18.7209   -8.4762  -14.5621 C   0  0  0  0  0  0  0  0  0  0  0  0
   18.2989   -9.2558  -15.6317 C   0  0  0  0  0  0  0  0  0  0  0  0
   16.9986   -9.5666  -15.4918 N   0  0  0  0  0  0  0  0  0  0  0  0
   16.6093   -8.9883  -14.3469 C   0  0  0  0  0  0  0  0  0  0  0  0
   17.6480   -8.3298  -13.7850 N   0  0  0  0  0  0  0  0  0  0  0  0
   22.2277   -7.5325  -15.3793 C   0  0  0  0  0  0  0  0  0  0  0  0
   22.1337   -6.1730  -15.5915 O   0  0  0  0  0  0  0  0  0  0  0  0
   23.3900   -7.9939  -15.1735 O   0  0  0  0  0  0  0  0  0  0  0  0
  2  1  1  1
  2  9  1  0
  3  2  1  0
  3  4  1  0
  4  5  2  0
  5  6  1  0
  7  6  1  0
  8  4  1  0
  8  7  2  0
  9 11  1  0
  9 10  2  0
 11 12  1  0
 12 15  1  0
 12 13  1  6
 14 13  1  0
 15 16  2  0
 17 15  1  0
 17 18  1  0
 18 25  1  0
 19 20  1  0
 18 19  1  1
 20 24  1  0
 21 20  2  0
 21 22  1  0
 22 23  1  0
 24 23  2  0
 25 26  1  0
 27 25  2  0
M  END
$$$$
