HCH.pdb
     RDKit          3D

 27 28  0  0  1  0  0  0  0  0999 V2000
   23.0896  -12.5918  -18.2806 N   0  0  0  0  0  0  0  0  0  0  0  0
   22.1028  -11.5357  -18.3100 C   0  0  1  0  0  0  0  0  0  0  0  0
   20.8070  -12.0255  -17.7151 C   0  0  0  0  0  0  0  0  0  0  0  0
   20.1513  -13.0875  -18.5133 C   0  0  0  0  0  0  0  0  0  0  0  0
   19.5780  -12.8911  -19.7787 C   0  0  0  0  0  0  0  0  0  0  0  0
   19.0787  -14.0500  -20.2094 N   0  0  0  0  0  0  0  0  0  0  0  0
   19.3172  -14.9662  -19.2619 C   0  0  0  0  0  0  0  0  0  0  0  0
   19.9574  -14.3901  -18.2503 N   0  0  0  0  0  0  0  0  0  0  0  0
   22.5867  -10.4436  -17.4219 C   0  0  0  0  0  0  0  0  0  0  0  0
   22.9063  -10.7766  -16.2539 O   0  0  0  0  0  0  0  0  0  0  0  0
   22.7100   -9.0901  -17.7878 N   0  0  0  0  0  0  0  0  0  0  0  0
   23.2631   -8.0693  -16.9368 C   0  0  1  0  0  0  0  0  0  0  0  0
   24.3174   -7.2348  -17.6110 C   0  0  0  0  0  0  0  0  0  0  0  0
   25.7133   -8.2442  -18.1752 S   0  0  0  0  0  0  0  0  0  0  0  0
   22.2211   -7.1585  -16.3979 C   0  0  0  0  0  0  0  0  0  0  0  0
   21.2779   -6.7761  -17.1356 O   0  0  0  0  0  0  0  0  0  0  0  0
   22.2809   -6.7195  -15.0664 N   0  0  0  0  0  0  0  0  0  0  0  0
   21.2922   -5.7890  -14.4976 C   0  0  1  0  0  0  0  0  0  0  0  0
   20.9954   -6.2174  -13.1027 C   0  0  0  0  0  0  0  0  0  0  0  0
   20.0868   -7.3848  -13.0973 C   0  0  0  0  0  0  0  0  0  0  0  0
   19.5401   -8.0333  -14.1975 C   0  0  0  0  0  0  0  0  0  0  0  0
   18.7621   -9.0523  -13.7933 N   0  0  0  0  0  0  0  0  0  0  0  0
   18.8203   -9.0431  -12.4542 C   0  0  0  0  0  0  0  0  0  0  0  0
   19.6196   -8.0370  -12.0330 N   0  0  0  0  0  0  0  0  0  0  0  0
   21.9063   -4.4468  -14.4902 C   0  0  0  0  0  0  0  0  0  0  0  0
   21.1439   -3.3409  -14.1779 O   0  0  0  0  0  0  0  0  0  0  0  0
   23.1263   -4.2351  -14.7600 O   0  0  0  0  0  0  0  0  0  0  0  0
  2  1  1  1
  2  9  1  0
  3  2  1  0
  3  4  1  0
  4  5  2  0
  5  6  1  0
  7  6  1  0
  8  4  1  0
  8  7  2  0
  9 11  1  0
  9 10  2  0
 11 12  1  0
 12 15  1  0
 12 13  1  6
 14 13  1  0
 15 16  2  0
 17 15  1  0
 17 18  1  0
 18 25  1  0
 19 20  1  0
 18 19  1  1
 20 24  1  0
 21 20  2  0
 21 22  1  0
 22 23  1  0
 24 23  2  0
 25 26  1  0
 27 25  2  0
M  END
$$$$
