HCH.pdb
     RDKit          3D

 27 28  0  0  1  0  0  0  0  0999 V2000
   19.9096  -10.3640  -17.3525 N   0  0  0  0  0  0  0  0  0  0  0  0
   18.8122  -10.1418  -16.4381 C   0  0  1  0  0  0  0  0  0  0  0  0
   18.5380  -11.3965  -15.6485 C   0  0  0  0  0  0  0  0  0  0  0  0
   18.1597  -12.5562  -16.4894 C   0  0  0  0  0  0  0  0  0  0  0  0
   16.9735  -12.6452  -17.2334 C   0  0  0  0  0  0  0  0  0  0  0  0
   16.9521  -13.8162  -17.8706 N   0  0  0  0  0  0  0  0  0  0  0  0
   18.0801  -14.4654  -17.5545 C   0  0  0  0  0  0  0  0  0  0  0  0
   18.7998  -13.7121  -16.7301 N   0  0  0  0  0  0  0  0  0  0  0  0
   19.2480   -9.1131  -15.4545 C   0  0  0  0  0  0  0  0  0  0  0  0
   18.4216   -8.8165  -14.5565 O   0  0  0  0  0  0  0  0  0  0  0  0
   20.4949   -8.4602  -15.4567 N   0  0  0  0  0  0  0  0  0  0  0  0
   20.8472   -7.3865  -14.5649 C   0  0  1  0  0  0  0  0  0  0  0  0
   21.9365   -7.7491  -13.5929 C   0  0  0  0  0  0  0  0  0  0  0  0
   22.2720   -6.4020  -12.4274 S   0  0  0  0  0  0  0  0  0  0  0  0
   21.2615   -6.1607  -15.2939 C   0  0  0  0  0  0  0  0  0  0  0  0
   22.1424   -6.2286  -16.1881 O   0  0  0  0  0  0  0  0  0  0  0  0
   20.6752   -4.9221  -14.9917 N   0  0  0  0  0  0  0  0  0  0  0  0
   21.0390   -3.6837  -15.6995 C   0  0  1  0  0  0  0  0  0  0  0  0
   19.8468   -2.7918  -15.7239 C   0  0  0  0  0  0  0  0  0  0  0  0
   18.8202   -3.3177  -16.6501 C   0  0  0  0  0  0  0  0  0  0  0  0
   18.8598   -3.3217  -18.0388 C   0  0  0  0  0  0  0  0  0  0  0  0
   17.7428   -3.8851  -18.5308 N   0  0  0  0  0  0  0  0  0  0  0  0
   17.0108   -4.2307  -17.4624 C   0  0  0  0  0  0  0  0  0  0  0  0
   17.6601   -3.8887  -16.3267 N   0  0  0  0  0  0  0  0  0  0  0  0
   22.1278   -3.0448  -14.9347 C   0  0  0  0  0  0  0  0  0  0  0  0
   22.7535   -1.9211  -15.4324 O   0  0  0  0  0  0  0  0  0  0  0  0
   22.5399   -3.4729  -13.8153 O   0  0  0  0  0  0  0  0  0  0  0  0
  2  1  1  6
  2  9  1  0
  3  2  1  0
  3  4  1  0
  4  5  2  0
  5  6  1  0
  7  6  1  0
  8  4  1  0
  8  7  2  0
  9 11  1  0
  9 10  2  0
 11 12  1  0
 12 15  1  0
 12 13  1  1
 14 13  1  0
 15 16  2  0
 17 15  1  0
 17 18  1  0
 18 25  1  0
 19 20  1  0
 18 19  1  1
 20 24  1  0
 21 20  2  0
 21 22  1  0
 22 23  1  0
 24 23  2  0
 25 26  1  0
 27 25  2  0
M  END
$$$$
