HCH.pdb
     RDKit          3D

 27 28  0  0  1  0  0  0  0  0999 V2000
   24.5806  -31.3341   -2.3111 N   0  0  0  0  0  0  0  0  0  0  0  0
   25.3509  -32.2309   -1.4791 C   0  0  1  0  0  0  0  0  0  0  0  0
   26.7089  -32.4623   -2.0915 C   0  0  0  0  0  0  0  0  0  0  0  0
   26.6642  -33.2120   -3.3687 C   0  0  0  0  0  0  0  0  0  0  0  0
   25.5240  -33.8553   -3.8731 C   0  0  0  0  0  0  0  0  0  0  0  0
   25.8332  -34.4298   -5.0360 N   0  0  0  0  0  0  0  0  0  0  0  0
   27.1245  -34.1713   -5.2801 C   0  0  0  0  0  0  0  0  0  0  0  0
   27.6190  -33.4443   -4.2841 N   0  0  0  0  0  0  0  0  0  0  0  0
   25.5874  -31.5459   -0.1789 C   0  0  0  0  0  0  0  0  0  0  0  0
   25.8400  -30.3170   -0.2353 O   0  0  0  0  0  0  0  0  0  0  0  0
   25.5498  -32.1627    1.0857 N   0  0  0  0  0  0  0  0  0  0  0  0
   25.5765  -31.4482    2.3351 C   0  0  1  0  0  0  0  0  0  0  0  0
   24.4119  -30.5132    2.5145 C   0  0  0  0  0  0  0  0  0  0  0  0
   22.8293  -31.3498    2.2299 S   0  0  0  0  0  0  0  0  0  0  0  0
   25.6270  -32.3606    3.5057 C   0  0  0  0  0  0  0  0  0  0  0  0
   24.8964  -33.3830    3.5378 O   0  0  0  0  0  0  0  0  0  0  0  0
   26.4872  -32.0899    4.5810 N   0  0  0  0  0  0  0  0  0  0  0  0
   26.5707  -32.9629    5.7633 C   0  0  1  0  0  0  0  0  0  0  0  0
   27.9482  -32.8647    6.3204 C   0  0  0  0  0  0  0  0  0  0  0  0
   28.8927  -33.6783    5.5239 C   0  0  0  0  0  0  0  0  0  0  0  0
   28.7303  -34.1213    4.2173 C   0  0  0  0  0  0  0  0  0  0  0  0
   29.8036  -34.8348    3.8350 N   0  0  0  0  0  0  0  0  0  0  0  0
   30.6300  -34.8392    4.8903 C   0  0  0  0  0  0  0  0  0  0  0  0
   30.0812  -34.1415    5.9103 N   0  0  0  0  0  0  0  0  0  0  0  0
   25.5939  -32.4609    6.7493 C   0  0  0  0  0  0  0  0  0  0  0  0
   25.4381  -33.1079    7.9572 O   0  0  0  0  0  0  0  0  0  0  0  0
   24.8650  -31.4426    6.5548 O   0  0  0  0  0  0  0  0  0  0  0  0
  2  1  1  6
  2  9  1  0
  3  2  1  0
  3  4  1  0
  4  5  2  0
  5  6  1  0
  7  6  1  0
  8  4  1  0
  8  7  2  0
  9 11  1  0
  9 10  2  0
 11 12  1  0
 12 15  1  0
 12 13  1  1
 14 13  1  0
 15 16  2  0
 17 15  1  0
 17 18  1  0
 18 25  1  0
 19 20  1  0
 18 19  1  1
 20 24  1  0
 21 20  2  0
 21 22  1  0
 22 23  1  0
 24 23  2  0
 25 26  1  0
 27 25  2  0
M  END
$$$$
