SGE.pdb
     RDKit          3D

 20 19  0  0  1  0  0  0  0  0999 V2000
    8.7602  -14.6091   16.9753 O   0  0  0  0  0  0  0  0  0  0  0  0
    8.1256  -15.0075   18.1464 C   0  0  0  0  0  0  0  0  0  0  0  0
    7.7650  -13.7715   18.9467 C   0  0  2  0  0  0  0  0  0  0  0  0
    8.8874  -12.8682   18.9629 N   0  0  0  0  0  0  0  0  0  0  0  0
    7.4286  -14.1870   20.3263 C   0  0  0  0  0  0  0  0  0  0  0  0
    6.4566  -14.9451   20.5806 O   0  0  0  0  0  0  0  0  0  0  0  0
    8.2210  -13.7213   21.4028 N   0  0  0  0  0  0  0  0  0  0  0  0
    7.8004  -14.0063   22.7589 C   0  0  0  0  0  0  0  0  0  0  0  0
    8.4716  -15.2602   23.2371 C   0  0  0  0  0  0  0  0  0  0  0  0
    7.9844  -16.3988   23.0517 O   0  0  0  0  0  0  0  0  0  0  0  0
    9.7091  -15.1760   23.9296 N   0  0  0  0  0  0  0  0  0  0  0  0
   10.3555  -16.3414   24.4823 C   0  0  1  0  0  0  0  0  0  0  0  0
   11.8566  -16.1778   24.4020 C   0  0  0  0  0  0  0  0  0  0  0  0
   12.2688  -16.2303   22.9646 C   0  0  0  0  0  0  0  0  0  0  0  0
   13.7453  -16.1424   22.7984 C   0  0  0  0  0  0  0  0  0  0  0  0
   14.3713  -16.9407   22.0656 O   0  0  0  0  0  0  0  0  0  0  0  0
    9.9110  -16.5545   25.8752 C   0  0  0  0  0  0  0  0  0  0  0  0
    9.4723  -15.5762   26.5188 O   0  0  0  0  0  0  0  0  0  0  0  0
   14.4552  -15.1566   23.4665 O   0  0  0  0  0  0  0  0  0  0  0  0
    9.9554  -17.7855   26.5063 O   0  0  0  0  0  0  0  0  0  0  0  0
  1  2  1  0
  3  2  1  0
  3  4  1  1
  5  3  1  0
  6  5  2  0
  7  5  1  0
  8  7  1  0
  9 11  1  0
  9  8  1  0
 10  9  2  0
 12 11  1  0
 12 13  1  1
 13 14  1  0
 14 15  1  0
 15 16  2  0
 17 12  1  0
 17 20  1  0
 18 17  2  0
 19 15  1  0
M  END
$$$$
