SGE.pdb
     RDKit          3D

 20 19  0  0  1  0  0  0  0  0999 V2000
    9.3146  -14.5433   15.0583 O   0  0  0  0  0  0  0  0  0  0  0  0
    9.3404  -14.2549   16.4182 C   0  0  0  0  0  0  0  0  0  0  0  0
   10.0122  -15.4036   17.1444 C   0  0  2  0  0  0  0  0  0  0  0  0
    9.2977  -16.6248   16.8717 N   0  0  0  0  0  0  0  0  0  0  0  0
    9.9918  -15.1175   18.5959 C   0  0  0  0  0  0  0  0  0  0  0  0
    9.0927  -15.5638   19.3552 O   0  0  0  0  0  0  0  0  0  0  0  0
   11.0137  -14.3157   19.1584 N   0  0  0  0  0  0  0  0  0  0  0  0
   11.0595  -14.1426   20.5954 C   0  0  0  0  0  0  0  0  0  0  0  0
   11.8303  -15.2734   21.2107 C   0  0  0  0  0  0  0  0  0  0  0  0
   11.6912  -16.4626   20.8441 O   0  0  0  0  0  0  0  0  0  0  0  0
   12.7597  -15.0074   22.2515 N   0  0  0  0  0  0  0  0  0  0  0  0
   13.5788  -16.0461   22.8275 C   0  0  1  0  0  0  0  0  0  0  0  0
   14.9970  -15.5467   22.9879 C   0  0  0  0  0  0  0  0  0  0  0  0
   15.5407  -15.2038   21.6367 C   0  0  0  0  0  0  0  0  0  0  0  0
   16.9795  -14.8257   21.6877 C   0  0  0  0  0  0  0  0  0  0  0  0
   17.5645  -14.6174   22.7741 O   0  0  0  0  0  0  0  0  0  0  0  0
   13.0114  -16.4800   24.1208 C   0  0  0  0  0  0  0  0  0  0  0  0
   12.0744  -15.8158   24.6153 O   0  0  0  0  0  0  0  0  0  0  0  0
   17.6993  -14.6982   20.5097 O   0  0  0  0  0  0  0  0  0  0  0  0
   13.4654  -17.5877   24.8156 O   0  0  0  0  0  0  0  0  0  0  0  0
  1  2  1  0
  3  2  1  0
  3  4  1  1
  5  3  1  0
  6  5  2  0
  7  5  1  0
  8  7  1  0
  9 11  1  0
  9  8  1  0
 10  9  2  0
 12 11  1  0
 12 13  1  1
 13 14  1  0
 14 15  1  0
 15 16  2  0
 17 12  1  0
 17 20  1  0
 18 17  2  0
 19 15  1  0
M  END
$$$$
