SGE.pdb
     RDKit          3D

 20 19  0  0  1  0  0  0  0  0999 V2000
   10.0052  -19.4544   17.3822 O   0  0  0  0  0  0  0  0  0  0  0  0
    9.8211  -19.2478   18.7448 C   0  0  0  0  0  0  0  0  0  0  0  0
    8.9959  -17.9907   18.9370 C   0  0  2  0  0  0  0  0  0  0  0  0
    7.8667  -18.0186   18.0424 N   0  0  0  0  0  0  0  0  0  0  0  0
    9.8492  -16.8190   18.6401 C   0  0  0  0  0  0  0  0  0  0  0  0
    9.7926  -16.2091   17.5406 O   0  0  0  0  0  0  0  0  0  0  0  0
   10.7630  -16.3615   19.6195 N   0  0  0  0  0  0  0  0  0  0  0  0
   11.5177  -15.1520   19.3652 C   0  0  0  0  0  0  0  0  0  0  0  0
   12.4024  -14.8585   20.5410 C   0  0  0  0  0  0  0  0  0  0  0  0
   13.1201  -13.8344   20.6059 O   0  0  0  0  0  0  0  0  0  0  0  0
   12.4431  -15.7641   21.6347 N   0  0  0  0  0  0  0  0  0  0  0  0
   13.5602  -15.8104   22.5464 C   0  0  1  0  0  0  0  0  0  0  0  0
   13.3612  -16.9328   23.5399 C   0  0  0  0  0  0  0  0  0  0  0  0
   12.0315  -16.7564   24.2031 C   0  0  0  0  0  0  0  0  0  0  0  0
   11.7442  -17.8371   25.1855 C   0  0  0  0  0  0  0  0  0  0  0  0
   11.1012  -17.6146   26.2357 O   0  0  0  0  0  0  0  0  0  0  0  0
   14.8214  -15.9744   21.7945 C   0  0  0  0  0  0  0  0  0  0  0  0
   14.7738  -16.4753   20.6496 O   0  0  0  0  0  0  0  0  0  0  0  0
   12.1947  -19.1255   24.9420 O   0  0  0  0  0  0  0  0  0  0  0  0
   16.0571  -15.6009   22.2938 O   0  0  0  0  0  0  0  0  0  0  0  0
  1  2  1  0
  3  2  1  0
  3  4  1  6
  5  3  1  0
  6  5  2  0
  7  5  1  0
  8  7  1  0
  9 11  1  0
  9  8  1  0
 10  9  2  0
 12 11  1  0
 12 13  1  1
 13 14  1  0
 14 15  1  0
 15 16  2  0
 17 12  1  0
 17 20  1  0
 18 17  2  0
 19 15  1  0
M  END
$$$$
