SGE.pdb
     RDKit          3D

 20 19  0  0  1  0  0  0  0  0999 V2000
    5.7619  -17.6903   15.9849 O   0  0  0  0  0  0  0  0  0  0  0  0
    4.8687  -18.5581   16.6032 C   0  0  0  0  0  0  0  0  0  0  0  0
    5.6461  -19.4800   17.5218 C   0  0  2  0  0  0  0  0  0  0  0  0
    6.6041  -20.2287   16.7486 N   0  0  0  0  0  0  0  0  0  0  0  0
    4.6929  -20.4017   18.1783 C   0  0  0  0  0  0  0  0  0  0  0  0
    3.8357  -20.0011   19.0084 O   0  0  0  0  0  0  0  0  0  0  0  0
    4.7390  -21.7820   17.8686 N   0  0  0  0  0  0  0  0  0  0  0  0
    3.8392  -22.6859   18.5545 C   0  0  0  0  0  0  0  0  0  0  0  0
    4.6364  -23.7310   19.2782 C   0  0  0  0  0  0  0  0  0  0  0  0
    4.2653  -24.9240   19.3626 O   0  0  0  0  0  0  0  0  0  0  0  0
    5.8634  -23.3753   19.8996 N   0  0  0  0  0  0  0  0  0  0  0  0
    6.6527  -24.3334   20.6347 C   0  0  1  0  0  0  0  0  0  0  0  0
    8.1165  -23.9653   20.5429 C   0  0  0  0  0  0  0  0  0  0  0  0
    8.5328  -24.0079   19.1064 C   0  0  0  0  0  0  0  0  0  0  0  0
    9.9524  -23.6013   18.9190 C   0  0  0  0  0  0  0  0  0  0  0  0
   10.8111  -24.4002   18.4825 O   0  0  0  0  0  0  0  0  0  0  0  0
    6.1994  -24.3916   22.0397 C   0  0  0  0  0  0  0  0  0  0  0  0
    6.6137  -25.3237   22.7632 O   0  0  0  0  0  0  0  0  0  0  0  0
   10.3448  -22.3090   19.2321 O   0  0  0  0  0  0  0  0  0  0  0  0
    5.3367  -23.4644   22.5982 O   0  0  0  0  0  0  0  0  0  0  0  0
  1  2  1  0
  3  2  1  0
  3  4  1  6
  5  3  1  0
  6  5  2  0
  7  5  1  0
  8  7  1  0
  9 11  1  0
  9  8  1  0
 10  9  2  0
 12 11  1  0
 12 13  1  1
 13 14  1  0
 14 15  1  0
 15 16  2  0
 17 12  1  0
 17 20  1  0
 18 17  2  0
 19 15  1  0
M  END
$$$$
