SGE.pdb
     RDKit          3D

 20 19  0  0  1  0  0  0  0  0999 V2000
   -5.1562  -28.8367   25.9610 O   0  0  0  0  0  0  0  0  0  0  0  0
   -4.0430  -29.2494   25.2375 C   0  0  0  0  0  0  0  0  0  0  0  0
   -2.8503  -29.3022   26.1717 C   0  0  2  0  0  0  0  0  0  0  0  0
   -3.0860  -30.2914   27.1926 N   0  0  0  0  0  0  0  0  0  0  0  0
   -2.6774  -27.9684   26.7884 C   0  0  0  0  0  0  0  0  0  0  0  0
   -2.3944  -26.9470   26.1096 O   0  0  0  0  0  0  0  0  0  0  0  0
   -2.8337  -27.8268   28.1880 N   0  0  0  0  0  0  0  0  0  0  0  0
   -2.8983  -26.4963   28.7562 C   0  0  0  0  0  0  0  0  0  0  0  0
   -4.0181  -26.4325   29.7529 C   0  0  0  0  0  0  0  0  0  0  0  0
   -3.9089  -26.8749   30.9192 O   0  0  0  0  0  0  0  0  0  0  0  0
   -5.2598  -25.8515   29.3803 N   0  0  0  0  0  0  0  0  0  0  0  0
   -6.3323  -25.6692   30.3279 C   0  0  1  0  0  0  0  0  0  0  0  0
   -6.7308  -24.2112   30.3722 C   0  0  0  0  0  0  0  0  0  0  0  0
   -7.4824  -23.8809   29.1213 C   0  0  0  0  0  0  0  0  0  0  0  0
   -7.8630  -22.4434   29.0556 C   0  0  0  0  0  0  0  0  0  0  0  0
   -7.6899  -21.6744   30.0275 O   0  0  0  0  0  0  0  0  0  0  0  0
   -7.4781  -26.5297   29.9679 C   0  0  0  0  0  0  0  0  0  0  0  0
   -7.4436  -27.1470   28.8809 O   0  0  0  0  0  0  0  0  0  0  0  0
   -8.4235  -21.9326   27.8950 O   0  0  0  0  0  0  0  0  0  0  0  0
   -8.5914  -26.6882   30.7748 O   0  0  0  0  0  0  0  0  0  0  0  0
  1  2  1  0
  3  2  1  0
  3  4  1  1
  5  3  1  0
  6  5  2  0
  7  5  1  0
  8  7  1  0
  9 11  1  0
  9  8  1  0
 10  9  2  0
 12 11  1  0
 12 13  1  6
 13 14  1  0
 14 15  1  0
 15 16  2  0
 17 12  1  0
 17 20  1  0
 18 17  2  0
 19 15  1  0
M  END
$$$$
