SGE.pdb
     RDKit          3D

 20 19  0  0  1  0  0  0  0  0999 V2000
    8.8131  -14.8443   12.5052 O   0  0  0  0  0  0  0  0  0  0  0  0
   10.0950  -15.0547   13.0006 C   0  0  0  0  0  0  0  0  0  0  0  0
   10.3432  -16.5479   13.0840 C   0  0  2  0  0  0  0  0  0  0  0  0
    9.3349  -17.2433   12.3251 N   0  0  0  0  0  0  0  0  0  0  0  0
   10.2799  -16.9558   14.5048 C   0  0  0  0  0  0  0  0  0  0  0  0
    9.2726  -17.5309   14.9935 O   0  0  0  0  0  0  0  0  0  0  0  0
   11.3844  -16.6945   15.3505 N   0  0  0  0  0  0  0  0  0  0  0  0
   11.3192  -17.1051   16.7377 C   0  0  0  0  0  0  0  0  0  0  0  0
   12.6259  -16.8023   17.4104 C   0  0  0  0  0  0  0  0  0  0  0  0
   13.5898  -16.2785   16.8066 O   0  0  0  0  0  0  0  0  0  0  0  0
   12.7982  -17.1135   18.7857 N   0  0  0  0  0  0  0  0  0  0  0  0
   14.0071  -16.7789   19.4985 C   0  0  1  0  0  0  0  0  0  0  0  0
   13.7160  -16.6843   20.9793 C   0  0  0  0  0  0  0  0  0  0  0  0
   14.9702  -16.2838   21.6902 C   0  0  0  0  0  0  0  0  0  0  0  0
   14.8023  -16.2786   23.1692 C   0  0  0  0  0  0  0  0  0  0  0  0
   13.6812  -16.1172   23.7012 O   0  0  0  0  0  0  0  0  0  0  0  0
   15.0545  -17.7828   19.2188 C   0  0  0  0  0  0  0  0  0  0  0  0
   14.7079  -18.9663   19.0116 O   0  0  0  0  0  0  0  0  0  0  0  0
   15.9073  -16.4560   23.9875 O   0  0  0  0  0  0  0  0  0  0  0  0
   16.4042  -17.4795   19.1744 O   0  0  0  0  0  0  0  0  0  0  0  0
  1  2  1  0
  3  2  1  0
  3  4  1  6
  5  3  1  0
  6  5  2  0
  7  5  1  0
  8  7  1  0
  9 11  1  0
  9  8  1  0
 10  9  2  0
 12 11  1  0
 12 13  1  1
 13 14  1  0
 14 15  1  0
 15 16  2  0
 17 12  1  0
 17 20  1  0
 18 17  2  0
 19 15  1  0
M  END
$$$$
