SGE.pdb
     RDKit          3D

 20 19  0  0  1  0  0  0  0  0999 V2000
    6.4082  -13.2559   19.7708 O   0  0  0  0  0  0  0  0  0  0  0  0
    7.6425  -12.6165   19.7449 C   0  0  0  0  0  0  0  0  0  0  0  0
    8.5881  -13.4234   18.8772 C   0  0  2  0  0  0  0  0  0  0  0  0
    8.0182  -13.5756   17.5625 N   0  0  0  0  0  0  0  0  0  0  0  0
    8.7822  -14.7503   19.5023 C   0  0  0  0  0  0  0  0  0  0  0  0
    8.3360  -15.8075   18.9852 O   0  0  0  0  0  0  0  0  0  0  0  0
    9.4924  -14.8437   20.7232 N   0  0  0  0  0  0  0  0  0  0  0  0
    9.7383  -16.1516   21.2941 C   0  0  0  0  0  0  0  0  0  0  0  0
   10.5108  -16.0019   22.5718 C   0  0  0  0  0  0  0  0  0  0  0  0
   11.0317  -14.9183   22.9219 O   0  0  0  0  0  0  0  0  0  0  0  0
   10.6701  -17.1202   23.4331 N   0  0  0  0  0  0  0  0  0  0  0  0
   11.3982  -17.0295   24.6753 C   0  0  1  0  0  0  0  0  0  0  0  0
   10.8638  -18.0498   25.6551 C   0  0  0  0  0  0  0  0  0  0  0  0
   11.5944  -17.8982   26.9520 C   0  0  0  0  0  0  0  0  0  0  0  0
   11.2044  -18.9380   27.9431 C   0  0  0  0  0  0  0  0  0  0  0  0
   11.7421  -19.0030   29.0712 O   0  0  0  0  0  0  0  0  0  0  0  0
   12.8426  -17.2227   24.4312 C   0  0  0  0  0  0  0  0  0  0  0  0
   13.1966  -17.8740   23.4242 O   0  0  0  0  0  0  0  0  0  0  0  0
   10.2229  -19.8624   27.6201 O   0  0  0  0  0  0  0  0  0  0  0  0
   13.8272  -16.7180   25.2628 O   0  0  0  0  0  0  0  0  0  0  0  0
  1  2  1  0
  3  2  1  0
  3  4  1  6
  5  3  1  0
  6  5  2  0
  7  5  1  0
  8  7  1  0
  9 11  1  0
  9  8  1  0
 10  9  2  0
 12 11  1  0
 12 13  1  1
 13 14  1  0
 14 15  1  0
 15 16  2  0
 17 12  1  0
 17 20  1  0
 18 17  2  0
 19 15  1  0
M  END
$$$$
