SGE.pdb
     RDKit          3D

 20 19  0  0  1  0  0  0  0  0999 V2000
    9.7155  -18.9984   17.7442 O   0  0  0  0  0  0  0  0  0  0  0  0
    8.3479  -18.8952   17.9729 C   0  0  0  0  0  0  0  0  0  0  0  0
    7.9526  -17.4338   17.8958 C   0  0  2  0  0  0  0  0  0  0  0  0
    8.1294  -16.9613   16.5461 N   0  0  0  0  0  0  0  0  0  0  0  0
    8.8154  -16.6646   18.8194 C   0  0  0  0  0  0  0  0  0  0  0  0
    9.7057  -15.8766   18.4063 O   0  0  0  0  0  0  0  0  0  0  0  0
    8.6410  -16.8135   20.2161 N   0  0  0  0  0  0  0  0  0  0  0  0
    9.3025  -15.8851   21.1092 C   0  0  0  0  0  0  0  0  0  0  0  0
    9.9115  -16.6406   22.2537 C   0  0  0  0  0  0  0  0  0  0  0  0
    9.3421  -17.6138   22.7985 O   0  0  0  0  0  0  0  0  0  0  0  0
   11.1831  -16.2539   22.7551 N   0  0  0  0  0  0  0  0  0  0  0  0
   11.8040  -16.9323   23.8667 C   0  0  1  0  0  0  0  0  0  0  0  0
   13.2203  -16.4326   24.0422 C   0  0  0  0  0  0  0  0  0  0  0  0
   13.9050  -16.4542   22.7118 C   0  0  0  0  0  0  0  0  0  0  0  0
   15.3224  -16.0086   22.8005 C   0  0  0  0  0  0  0  0  0  0  0  0
   16.2529  -16.6782   22.2986 O   0  0  0  0  0  0  0  0  0  0  0  0
   11.0059  -16.7299   25.0936 C   0  0  0  0  0  0  0  0  0  0  0  0
   10.2651  -15.7250   25.1656 O   0  0  0  0  0  0  0  0  0  0  0  0
   15.6317  -14.8247   23.4524 O   0  0  0  0  0  0  0  0  0  0  0  0
   11.0363  -17.5983   26.1709 O   0  0  0  0  0  0  0  0  0  0  0  0
  1  2  1  0
  3  2  1  0
  3  4  1  6
  5  3  1  0
  6  5  2  0
  7  5  1  0
  8  7  1  0
  9 11  1  0
  9  8  1  0
 10  9  2  0
 12 11  1  0
 12 13  1  1
 13 14  1  0
 14 15  1  0
 15 16  2  0
 17 12  1  0
 17 20  1  0
 18 17  2  0
 19 15  1  0
M  END
$$$$
