RIS.pdb
     RDKit          3D

 26 25  0  0  1  0  0  0  0  0999 V2000
   25.2220  -24.2694  -17.8599 N   0  0  0  0  0  0  0  0  0  0  0  0
   25.1039  -25.2383  -16.8510 C   0  0  0  0  0  0  0  0  0  0  0  0
   25.9714  -25.3282  -15.8799 N   0  0  0  0  0  0  0  0  0  0  0  0
   24.0249  -26.1678  -16.8477 N   0  0  0  0  0  0  0  0  0  0  0  0
   23.0272  -26.0668  -17.8909 C   0  0  0  0  0  0  0  0  0  0  0  0
   21.6370  -26.2739  -17.3261 C   0  0  0  0  0  0  0  0  0  0  0  0
   21.1861  -25.0410  -16.5852 C   0  0  0  0  0  0  0  0  0  0  0  0
   21.5467  -25.0883  -15.1361 C   0  0  2  0  0  0  0  0  0  0  0  0
   20.6375  -25.9666  -14.4259 N   0  0  0  0  0  0  0  0  0  0  0  0
   21.5387  -23.7468  -14.5055 C   0  0  0  0  0  0  0  0  0  0  0  0
   20.5778  -23.3262  -13.8124 O   0  0  0  0  0  0  0  0  0  0  0  0
   25.8544  -26.0536  -15.1353 C   0  0  0  0  0  0  0  0  0  0  0  0
   25.7080  -22.3649  -11.8249 C   0  0  0  0  0  0  0  0  0  0  0  0
   24.2871  -22.4545  -12.3337 C   0  0  2  0  0  0  0  0  0  0  0  0
   23.9900  -21.4383  -13.3939 C   0  0  0  0  0  0  0  0  0  0  0  0
   24.3591  -20.0350  -12.9761 C   0  0  2  0  0  0  0  0  0  0  0  0
   22.6702  -21.5310  -14.0607 N   0  0  0  0  0  0  0  0  0  0  0  0
   22.6410  -22.8767  -14.6688 C   0  0  0  0  0  0  0  0  0  0  0  0
   22.3087  -20.5761  -15.0663 O   0  0  0  0  0  0  0  0  0  0  0  0
   22.9169  -20.6442  -16.1923 O   0  0  0  0  0  0  0  0  0  0  0  0
   22.6134  -16.8167  -16.1765 C   0  0  0  0  0  0  0  0  0  0  0  0
   22.4105  -18.0850  -16.6596 C   0  0  2  0  0  0  0  0  0  0  0  0
   21.1037  -18.6543  -16.1059 N   0  0  0  0  0  0  0  0  0  0  0  0
   21.3540  -19.5449  -14.9952 C   0  0  0  0  0  0  0  0  0  0  0  0
   20.3974  -19.3531  -17.1974 O   0  0  0  0  0  0  0  0  0  0  0  0
   20.0706  -18.6560  -18.3412 O   0  0  0  0  0  0  0  0  0  0  0  0
  2  3  2  0
  2  1  1  0
  4  2  1  0
  5  6  1  0
  5  4  1  0
  6  7  1  0
  7  8  1  0
  8  9  1  1
 10 11  2  0
 10  8  1  0
 13 14  1  0
 13 12  1  0
 14 16  1  0
 14 15  1  6
 16 17  1  1
 17 10  1  0
 18 16  1  0
 19 18  2  0
 21 20  1  0
 22 21  1  1
 22 23  1  0
 23 18  1  0
 24 22  1  0
 25 24  1  0
 26 24  2  0
M  END
$$$$
