RIS.pdb
     RDKit          3D

 26 25  0  0  1  0  0  0  0  0999 V2000
   24.5622  -25.4152  -18.6042 N   0  0  0  0  0  0  0  0  0  0  0  0
   24.4773  -26.1790  -17.4295 C   0  0  0  0  0  0  0  0  0  0  0  0
   23.3358  -26.6273  -16.9825 N   0  0  0  0  0  0  0  0  0  0  0  0
   25.6419  -26.4970  -16.6740 N   0  0  0  0  0  0  0  0  0  0  0  0
   26.8894  -25.8568  -17.0315 C   0  0  0  0  0  0  0  0  0  0  0  0
   26.7997  -24.3578  -16.8327 C   0  0  0  0  0  0  0  0  0  0  0  0
   27.6545  -23.6449  -17.8491 C   0  0  0  0  0  0  0  0  0  0  0  0
   28.8686  -23.0281  -17.2346 C   0  0  2  0  0  0  0  0  0  0  0  0
   29.8370  -24.0564  -16.9069 N   0  0  0  0  0  0  0  0  0  0  0  0
   28.5512  -22.2374  -16.0216 C   0  0  0  0  0  0  0  0  0  0  0  0
   29.1456  -22.4030  -14.9262 O   0  0  0  0  0  0  0  0  0  0  0  0
   23.3031  -27.2116  -16.1154 C   0  0  0  0  0  0  0  0  0  0  0  0
   27.9196  -17.0778  -16.9269 C   0  0  0  0  0  0  0  0  0  0  0  0
   28.2609  -18.3980  -16.2740 C   0  0  2  0  0  0  0  0  0  0  0  0
   27.0964  -18.9992  -15.5477 C   0  0  0  0  0  0  0  0  0  0  0  0
   26.4029  -18.0120  -14.6398 C   0  0  2  0  0  0  0  0  0  0  0  0
   27.3060  -20.3287  -14.9286 N   0  0  0  0  0  0  0  0  0  0  0  0
   27.5434  -21.2466  -16.0612 C   0  0  0  0  0  0  0  0  0  0  0  0
   26.2885  -20.8978  -14.0953 O   0  0  0  0  0  0  0  0  0  0  0  0
   25.2342  -21.3446  -14.6710 O   0  0  0  0  0  0  0  0  0  0  0  0
   25.8952  -20.5986   -9.9627 C   0  0  0  0  0  0  0  0  0  0  0  0
   25.4576  -21.7807  -10.5052 C   0  0  1  0  0  0  0  0  0  0  0  0
   25.1433  -21.5918  -11.9898 N   0  0  0  0  0  0  0  0  0  0  0  0
   26.2788  -21.0426  -12.6958 C   0  0  0  0  0  0  0  0  0  0  0  0
   23.9660  -20.7097  -12.1109 O   0  0  0  0  0  0  0  0  0  0  0  0
   22.7266  -21.1885  -11.7431 O   0  0  0  0  0  0  0  0  0  0  0  0
  2  3  2  0
  2  1  1  0
  4  2  1  0
  5  6  1  0
  5  4  1  0
  6  7  1  0
  7  8  1  0
  8  9  1  1
 10 11  2  0
 10  8  1  0
 13 14  1  0
 13 12  1  0
 14 16  1  0
 14 15  1  6
 16 17  1  1
 17 10  1  0
 18 16  1  0
 19 18  2  0
 21 20  1  0
 22 21  1  6
 22 23  1  0
 23 18  1  0
 24 22  1  0
 25 24  1  0
 26 24  2  0
M  END
$$$$
