RIS.pdb
     RDKit          3D

 26 25  0  0  1  0  0  0  0  0999 V2000
   20.4195  -27.9213  -16.3931 N   0  0  0  0  0  0  0  0  0  0  0  0
   20.6551  -26.8269  -17.2401 C   0  0  0  0  0  0  0  0  0  0  0  0
   19.7177  -25.9644  -17.5250 N   0  0  0  0  0  0  0  0  0  0  0  0
   21.9355  -26.6134  -17.8259 N   0  0  0  0  0  0  0  0  0  0  0  0
   22.9804  -27.5800  -17.5657 C   0  0  0  0  0  0  0  0  0  0  0  0
   24.1509  -26.9281  -16.8588 C   0  0  0  0  0  0  0  0  0  0  0  0
   24.3664  -25.5323  -17.3854 C   0  0  0  0  0  0  0  0  0  0  0  0
   25.5910  -24.8949  -16.8142 C   0  0  2  0  0  0  0  0  0  0  0  0
   26.5567  -25.9127  -16.4480 N   0  0  0  0  0  0  0  0  0  0  0  0
   25.2917  -24.0449  -15.6372 C   0  0  0  0  0  0  0  0  0  0  0  0
   25.2983  -24.4859  -14.4598 O   0  0  0  0  0  0  0  0  0  0  0  0
   19.9247  -25.1484  -18.1459 C   0  0  0  0  0  0  0  0  0  0  0  0
   27.8497  -19.6279  -15.4245 C   0  0  0  0  0  0  0  0  0  0  0  0
   27.0743  -20.8686  -15.0433 C   0  0  2  0  0  0  0  0  0  0  0  0
   25.6069  -20.6063  -14.8917 C   0  0  0  0  0  0  0  0  0  0  0  0
   25.3141  -19.4449  -13.9723 C   0  0  2  0  0  0  0  0  0  0  0  0
   24.7362  -21.7820  -14.6580 N   0  0  0  0  0  0  0  0  0  0  0  0
   24.9816  -22.6762  -15.8078 C   0  0  0  0  0  0  0  0  0  0  0  0
   23.3206  -21.6071  -14.5198 O   0  0  0  0  0  0  0  0  0  0  0  0
   22.6584  -21.2907  -15.5704 O   0  0  0  0  0  0  0  0  0  0  0  0
   20.3330  -23.3858  -12.3248 C   0  0  0  0  0  0  0  0  0  0  0  0
   20.4112  -22.0258  -12.1592 C   0  0  2  0  0  0  0  0  0  0  0  0
   21.1248  -21.3922  -13.3542 N   0  0  0  0  0  0  0  0  0  0  0  0
   22.5285  -21.7371  -13.3641 C   0  0  0  0  0  0  0  0  0  0  0  0
   20.9383  -19.9294  -13.2893 O   0  0  0  0  0  0  0  0  0  0  0  0
   19.7083  -19.3938  -13.6070 O   0  0  0  0  0  0  0  0  0  0  0  0
  2  3  2  0
  2  1  1  0
  4  2  1  0
  5  6  1  0
  5  4  1  0
  6  7  1  0
  7  8  1  0
  8  9  1  1
 10 11  2  0
 10  8  1  0
 13 14  1  0
 13 12  1  0
 14 16  1  0
 14 15  1  6
 16 17  1  1
 17 10  1  0
 18 16  1  0
 19 18  2  0
 21 20  1  0
 22 21  1  6
 22 23  1  0
 23 18  1  0
 24 22  1  0
 25 24  1  0
 26 24  2  0
M  END
$$$$
