RIS.pdb
     RDKit          3D

 26 25  0  0  1  0  0  0  0  0999 V2000
   30.2101  -18.2255  -19.1889 N   0  0  0  0  0  0  0  0  0  0  0  0
   29.3876  -19.2813  -19.6122 C   0  0  0  0  0  0  0  0  0  0  0  0
   29.4887  -19.7940  -20.8083 N   0  0  0  0  0  0  0  0  0  0  0  0
   28.4033  -19.8384  -18.7467 N   0  0  0  0  0  0  0  0  0  0  0  0
   28.1459  -19.1798  -17.4842 C   0  0  0  0  0  0  0  0  0  0  0  0
   28.8727  -19.8809  -16.3550 C   0  0  0  0  0  0  0  0  0  0  0  0
   27.9333  -20.8069  -15.6257 C   0  0  0  0  0  0  0  0  0  0  0  0
   26.5604  -20.2323  -15.4952 C   0  0  2  0  0  0  0  0  0  0  0  0
   26.6387  -18.8508  -15.0616 N   0  0  0  0  0  0  0  0  0  0  0  0
   25.7100  -21.0021  -14.5562 C   0  0  0  0  0  0  0  0  0  0  0  0
   25.5901  -22.2522  -14.6152 O   0  0  0  0  0  0  0  0  0  0  0  0
   28.8534  -20.5710  -21.1032 C   0  0  0  0  0  0  0  0  0  0  0  0
   26.4452  -20.7697   -9.5842 C   0  0  0  0  0  0  0  0  0  0  0  0
   25.9597  -21.2629  -10.9285 C   0  0  2  0  0  0  0  0  0  0  0  0
   24.5883  -20.7617  -11.2646 C   0  0  0  0  0  0  0  0  0  0  0  0
   23.5833  -21.0357  -10.1715 C   0  0  2  0  0  0  0  0  0  0  0  0
   24.0808  -21.0576  -12.6247 N   0  0  0  0  0  0  0  0  0  0  0  0
   24.9891  -20.3357  -13.5389 C   0  0  0  0  0  0  0  0  0  0  0  0
   22.7323  -20.7209  -12.9736 O   0  0  0  0  0  0  0  0  0  0  0  0
   22.4647  -19.4838  -13.1744 O   0  0  0  0  0  0  0  0  0  0  0  0
   19.1111  -22.4908  -11.4711 C   0  0  0  0  0  0  0  0  0  0  0  0
   19.7407  -21.2777  -11.5935 C   0  0  2  0  0  0  0  0  0  0  0  0
   20.2666  -21.1013  -13.0187 N   0  0  0  0  0  0  0  0  0  0  0  0
   21.6268  -21.5767  -13.1334 C   0  0  0  0  0  0  0  0  0  0  0  0
   20.1715  -19.6733  -13.3797 O   0  0  0  0  0  0  0  0  0  0  0  0
   19.2069  -19.2699  -14.2783 O   0  0  0  0  0  0  0  0  0  0  0  0
  2  3  2  0
  2  1  1  0
  4  2  1  0
  5  6  1  0
  5  4  1  0
  6  7  1  0
  7  8  1  0
  8  9  1  1
 10 11  2  0
 10  8  1  0
 13 14  1  0
 13 12  1  0
 14 16  1  0
 14 15  1  6
 16 17  1  6
 17 10  1  0
 18 16  1  0
 19 18  2  0
 21 20  1  0
 22 21  1  6
 22 23  1  0
 23 18  1  0
 24 22  1  0
 25 24  1  0
 26 24  2  0
M  END
$$$$
