RIS.pdb
     RDKit          3D

 26 25  0  0  1  0  0  0  0  0999 V2000
   27.8921  -31.8293  -15.2806 N   0  0  0  0  0  0  0  0  0  0  0  0
   27.4059  -33.1435  -15.3642 C   0  0  0  0  0  0  0  0  0  0  0  0
   27.2080  -33.7310  -16.5129 N   0  0  0  0  0  0  0  0  0  0  0  0
   27.1075  -33.8927  -14.1904 N   0  0  0  0  0  0  0  0  0  0  0  0
   27.1629  -33.2178  -12.9115 C   0  0  0  0  0  0  0  0  0  0  0  0
   26.8614  -34.1816  -11.7824 C   0  0  0  0  0  0  0  0  0  0  0  0
   26.8907  -33.4603  -10.4592 C   0  0  0  0  0  0  0  0  0  0  0  0
   25.5688  -33.4997   -9.7640 C   0  0  2  0  0  0  0  0  0  0  0  0
   24.6269  -32.6264  -10.4368 N   0  0  0  0  0  0  0  0  0  0  0  0
   25.6679  -33.1196   -8.3346 C   0  0  0  0  0  0  0  0  0  0  0  0
   25.1482  -32.0729   -7.8710 O   0  0  0  0  0  0  0  0  0  0  0  0
   26.9130  -34.7341  -16.5469 C   0  0  0  0  0  0  0  0  0  0  0  0
   22.7133  -32.4976   -5.5540 C   0  0  0  0  0  0  0  0  0  0  0  0
   24.1547  -32.4386   -6.0065 C   0  0  2  0  0  0  0  0  0  0  0  0
   24.9397  -33.6438   -5.5865 C   0  0  0  0  0  0  0  0  0  0  0  0
   24.6914  -34.0290   -4.1478 C   0  0  2  0  0  0  0  0  0  0  0  0
   26.3697  -33.6805   -5.9722 N   0  0  0  0  0  0  0  0  0  0  0  0
   26.3688  -33.9448   -7.4254 C   0  0  0  0  0  0  0  0  0  0  0  0
   27.2552  -34.6173   -5.3462 O   0  0  0  0  0  0  0  0  0  0  0  0
   26.9657  -35.8617   -5.4453 O   0  0  0  0  0  0  0  0  0  0  0  0
   31.2298  -34.8067   -5.1522 C   0  0  0  0  0  0  0  0  0  0  0  0
   30.6877  -35.0139   -3.9087 C   0  0  2  0  0  0  0  0  0  0  0  0
   29.2205  -35.4253   -4.0381 N   0  0  0  0  0  0  0  0  0  0  0  0
   28.4317  -34.3617   -4.6178 C   0  0  0  0  0  0  0  0  0  0  0  0
   28.7166  -35.7906   -2.6997 O   0  0  0  0  0  0  0  0  0  0  0  0
   27.7149  -35.0344   -2.1291 O   0  0  0  0  0  0  0  0  0  0  0  0
  2  3  2  0
  2  1  1  0
  4  2  1  0
  5  6  1  0
  5  4  1  0
  6  7  1  0
  7  8  1  0
  8  9  1  6
 10 11  2  0
 10  8  1  0
 13 14  1  0
 13 12  1  0
 14 16  1  0
 14 15  1  6
 16 17  1  1
 17 10  1  0
 18 16  1  0
 19 18  2  0
 21 20  1  0
 22 21  1  6
 22 23  1  0
 23 18  1  0
 24 22  1  0
 25 24  1  0
 26 24  2  0
M  END
$$$$
