RIS.pdb
     RDKit          3D

 26 25  0  0  1  0  0  0  0  0999 V2000
   17.1092  -26.0534   -9.8380 N   0  0  0  0  0  0  0  0  0  0  0  0
   17.2834  -25.9660   -8.4479 C   0  0  0  0  0  0  0  0  0  0  0  0
   16.7350  -26.8242   -7.6315 N   0  0  0  0  0  0  0  0  0  0  0  0
   18.0711  -24.9299   -7.8697 N   0  0  0  0  0  0  0  0  0  0  0  0
   18.6827  -23.9583   -8.7506 C   0  0  0  0  0  0  0  0  0  0  0  0
   19.4312  -22.9087   -7.9551 C   0  0  0  0  0  0  0  0  0  0  0  0
   20.7808  -23.4347   -7.5380 C   0  0  0  0  0  0  0  0  0  0  0  0
   21.5810  -22.4143   -6.7959 C   0  0  2  0  0  0  0  0  0  0  0  0
   20.7709  -21.8047   -5.7593 N   0  0  0  0  0  0  0  0  0  0  0  0
   22.1249  -21.3620   -7.6871 C   0  0  0  0  0  0  0  0  0  0  0  0
   21.5773  -20.2390   -7.8274 O   0  0  0  0  0  0  0  0  0  0  0  0
   16.8788  -26.7343   -6.5992 C   0  0  0  0  0  0  0  0  0  0  0  0
   27.0119  -19.9316   -7.0814 C   0  0  0  0  0  0  0  0  0  0  0  0
   25.5454  -19.9663   -7.4476 C   0  0  2  0  0  0  0  0  0  0  0  0
   25.3128  -20.4489   -8.8469 C   0  0  0  0  0  0  0  0  0  0  0  0
   26.2144  -19.7752   -9.8534 C   0  0  2  0  0  0  0  0  0  0  0  0
   23.9043  -20.5594   -9.2927 N   0  0  0  0  0  0  0  0  0  0  0  0
   23.3074  -21.5958   -8.4259 C   0  0  0  0  0  0  0  0  0  0  0  0
   23.6096  -20.8900  -10.6556 O   0  0  0  0  0  0  0  0  0  0  0  0
   24.0130  -22.0266  -11.0889 O   0  0  0  0  0  0  0  0  0  0  0  0
   21.6711  -18.5156  -13.4502 C   0  0  0  0  0  0  0  0  0  0  0  0
   21.5225  -19.8699  -13.6148 C   0  0  1  0  0  0  0  0  0  0  0  0
   22.6889  -20.6090  -12.9577 N   0  0  0  0  0  0  0  0  0  0  0  0
   22.9204  -20.1257  -11.6152 C   0  0  0  0  0  0  0  0  0  0  0  0
   23.8887  -20.4330  -13.7992 O   0  0  0  0  0  0  0  0  0  0  0  0
   23.9102  -20.9839  -15.0629 O   0  0  0  0  0  0  0  0  0  0  0  0
  2  3  2  0
  2  1  1  0
  4  2  1  0
  5  6  1  0
  5  4  1  0
  6  7  1  0
  7  8  1  0
  8  9  1  1
 10 11  2  0
 10  8  1  0
 13 14  1  0
 13 12  1  0
 14 16  1  0
 14 15  1  6
 16 17  1  6
 17 10  1  0
 18 16  1  0
 19 18  2  0
 21 20  1  0
 22 21  1  1
 22 23  1  0
 23 18  1  0
 24 22  1  0
 25 24  1  0
 26 24  2  0
M  END
$$$$
