QYV.pdb
     RDKit          3D

 29 29  0  0  1  0  0  0  0  0999 V2000
    7.1264  -19.0471   19.8462 N   0  0  0  0  0  0  0  0  0  0  0  0
    6.6937  -20.3578   19.5504 C   0  0  0  0  0  0  0  0  0  0  0  0
    7.5336  -21.1830   19.0492 O   0  0  0  0  0  0  0  0  0  0  0  0
    5.3275  -20.8383   19.7863 C   0  0  0  0  0  0  0  0  0  0  0  0
    4.3871  -19.8134   20.3445 C   0  0  0  0  0  0  0  0  0  0  0  0
    4.5472  -19.7193   21.8231 C   0  0  2  0  0  0  0  0  0  0  0  0
    3.3249  -20.0766   22.5332 N   0  0  0  0  0  0  0  0  0  0  0  0
    4.9273  -18.3208   22.2431 C   0  0  0  0  0  0  0  0  0  0  0  0
    4.3385  -17.3412   21.7473 O   0  0  0  0  0  0  0  0  0  0  0  0
    7.7293  -11.5215   27.0705 O   0  0  0  0  0  0  0  0  0  0  0  0
    7.4794  -12.8047   26.5715 C   0  0  0  0  0  0  0  0  0  0  0  0
    6.1942  -13.2498   26.3619 C   0  0  0  0  0  0  0  0  0  0  0  0
    5.9604  -14.5161   25.8699 C   0  0  0  0  0  0  0  0  0  0  0  0
    7.0030  -15.3833   25.5696 C   0  0  0  0  0  0  0  0  0  0  0  0
    6.7087  -16.7157   25.0526 C   0  0  0  0  0  0  0  0  0  0  0  0
    6.4201  -16.7604   23.5673 C   0  0  2  0  0  0  0  0  0  0  0  0
    5.9461  -18.0783   23.1961 N   0  0  0  0  0  0  0  0  0  0  0  0
    7.5885  -16.3497   22.7523 C   0  0  0  0  0  0  0  0  0  0  0  0
    8.5770  -17.1170   22.6847 O   0  0  0  0  0  0  0  0  0  0  0  0
    8.2789  -14.9284   25.7826 C   0  0  0  0  0  0  0  0  0  0  0  0
    8.5431  -13.6549   26.2783 C   0  0  0  0  0  0  0  0  0  0  0  0
    7.0299  -13.5319   19.6787 C   0  0  0  0  0  0  0  0  0  0  0  0
    8.3722  -13.5314   20.3770 C   0  0  1  0  0  0  0  0  0  0  0  0
    8.3408  -12.4389   21.4230 C   0  0  0  0  0  0  0  0  0  0  0  0
    8.6483  -14.8368   21.0706 C   0  0  2  0  0  0  0  0  0  0  0  0
    7.6153  -15.1336   22.0605 N   0  0  0  0  0  0  0  0  0  0  0  0
    9.9330  -14.7167   21.7959 C   0  0  0  0  0  0  0  0  0  0  0  0
    9.9439  -14.7298   23.0429 O   0  0  0  0  0  0  0  0  0  0  0  0
   11.1166  -14.5908   21.1008 O   0  0  0  0  0  0  0  0  0  0  0  0
  1  2  1  0
  2  3  2  0
  2  4  1  0
  4  5  1  0
  6  5  1  0
  6  7  1  1
  8  6  1  0
  8  9  2  0
 10 11  1  0
 11 12  2  0
 12 13  1  0
 14 13  2  0
 14 15  1  0
 16 15  1  1
 16 17  1  0
 17  8  1  0
 18 16  1  0
 18 26  1  0
 19 18  2  0
 20 14  1  0
 21 20  2  0
 21 11  1  0
 23 22  1  1
 23 25  1  0
 24 23  1  0
 25 26  1  1
 25 27  1  0
 27 28  2  0
 27 29  1  0
M  END
$$$$
