QYV.pdb
     RDKit          3D

 29 29  0  0  1  0  0  0  0  0999 V2000
    8.5497  -17.7957   17.0994 N   0  0  0  0  0  0  0  0  0  0  0  0
    9.1333  -18.9618   17.6400 C   0  0  0  0  0  0  0  0  0  0  0  0
    8.9258  -20.0803   17.0539 O   0  0  0  0  0  0  0  0  0  0  0  0
    9.9734  -18.9710   18.8430 C   0  0  0  0  0  0  0  0  0  0  0  0
   10.2679  -17.6176   19.4156 C   0  0  0  0  0  0  0  0  0  0  0  0
   10.4549  -17.7127   20.8911 C   0  0  2  0  0  0  0  0  0  0  0  0
    9.8174  -18.8980   21.4517 N   0  0  0  0  0  0  0  0  0  0  0  0
    9.8777  -16.5082   21.5931 C   0  0  0  0  0  0  0  0  0  0  0  0
    9.0730  -15.7674   20.9967 O   0  0  0  0  0  0  0  0  0  0  0  0
    5.4856  -11.3180   26.8474 O   0  0  0  0  0  0  0  0  0  0  0  0
    6.1435  -12.2620   26.0512 C   0  0  0  0  0  0  0  0  0  0  0  0
    5.9555  -13.6115   26.2437 C   0  0  0  0  0  0  0  0  0  0  0  0
    6.6093  -14.5322   25.4530 C   0  0  0  0  0  0  0  0  0  0  0  0
    7.4748  -14.1369   24.4411 C   0  0  0  0  0  0  0  0  0  0  0  0
    8.1470  -15.1464   23.6297 C   0  0  0  0  0  0  0  0  0  0  0  0
    9.6586  -15.0781   23.6724 C   0  0  2  0  0  0  0  0  0  0  0  0
   10.2240  -16.1847   22.9274 N   0  0  0  0  0  0  0  0  0  0  0  0
   10.1828  -15.0271   25.0583 C   0  0  0  0  0  0  0  0  0  0  0  0
   10.6659  -13.9510   25.4817 O   0  0  0  0  0  0  0  0  0  0  0  0
    7.6539  -12.7898   24.2589 C   0  0  0  0  0  0  0  0  0  0  0  0
    7.0065  -11.8391   25.0427 C   0  0  0  0  0  0  0  0  0  0  0  0
   10.2608  -15.1105   29.5490 C   0  0  0  0  0  0  0  0  0  0  0  0
    9.8137  -15.1406   28.1038 C   0  0  1  0  0  0  0  0  0  0  0  0
    9.9838  -13.7450   27.5453 C   0  0  0  0  0  0  0  0  0  0  0  0
   10.6441  -16.0816   27.2753 C   0  0  2  0  0  0  0  0  0  0  0  0
   10.1522  -16.1439   25.9009 N   0  0  0  0  0  0  0  0  0  0  0  0
   10.5218  -17.4403   27.8498 C   0  0  0  0  0  0  0  0  0  0  0  0
    9.8231  -18.2966   27.2719 O   0  0  0  0  0  0  0  0  0  0  0  0
   11.1756  -17.7639   29.0193 O   0  0  0  0  0  0  0  0  0  0  0  0
  1  2  1  0
  2  3  2  0
  2  4  1  0
  4  5  1  0
  6  5  1  0
  6  7  1  1
  8  6  1  0
  8  9  2  0
 10 11  1  0
 11 12  2  0
 12 13  1  0
 14 13  2  0
 14 15  1  0
 16 15  1  1
 16 17  1  0
 17  8  1  0
 18 16  1  0
 18 26  1  0
 19 18  2  0
 20 14  1  0
 21 20  2  0
 21 11  1  0
 23 22  1  1
 23 25  1  0
 24 23  1  0
 25 26  1  6
 25 27  1  0
 27 28  2  0
 27 29  1  0
M  END
$$$$
