QYV.pdb
     RDKit          3D

 29 29  0  0  1  0  0  0  0  0999 V2000
    5.6833  -18.2291   19.8211 N   0  0  0  0  0  0  0  0  0  0  0  0
    6.7211  -19.1825   19.9026 C   0  0  0  0  0  0  0  0  0  0  0  0
    6.5945  -20.1593   20.7195 O   0  0  0  0  0  0  0  0  0  0  0  0
    7.9475  -19.1236   19.0992 C   0  0  0  0  0  0  0  0  0  0  0  0
    9.1622  -18.6492   19.8380 C   0  0  0  0  0  0  0  0  0  0  0  0
    9.3898  -17.1997   19.5770 C   0  0  2  0  0  0  0  0  0  0  0  0
   10.5834  -16.9658   18.7730 N   0  0  0  0  0  0  0  0  0  0  0  0
    9.5494  -16.4315   20.8658 C   0  0  0  0  0  0  0  0  0  0  0  0
   10.6847  -16.2530   21.3467 O   0  0  0  0  0  0  0  0  0  0  0  0
    7.1070  -11.6395   28.0002 O   0  0  0  0  0  0  0  0  0  0  0  0
    7.1586  -12.2984   26.7669 C   0  0  0  0  0  0  0  0  0  0  0  0
    7.9025  -11.7985   25.7226 C   0  0  0  0  0  0  0  0  0  0  0  0
    7.9456  -12.4564   24.5120 C   0  0  0  0  0  0  0  0  0  0  0  0
    7.2465  -13.6381   24.3016 C   0  0  0  0  0  0  0  0  0  0  0  0
    7.3196  -14.2995   23.0031 C   0  0  0  0  0  0  0  0  0  0  0  0
    8.5215  -15.2030   22.8282 C   0  0  2  0  0  0  0  0  0  0  0  0
    8.4364  -15.8976   21.5595 N   0  0  0  0  0  0  0  0  0  0  0  0
    8.6875  -16.1474   23.9588 C   0  0  0  0  0  0  0  0  0  0  0  0
    7.7694  -16.9650   24.2022 O   0  0  0  0  0  0  0  0  0  0  0  0
    6.5091  -14.1262   25.3495 C   0  0  0  0  0  0  0  0  0  0  0  0
    6.4481  -13.4822   26.5819 C   0  0  0  0  0  0  0  0  0  0  0  0
   11.5205  -18.5484   24.2494 C   0  0  0  0  0  0  0  0  0  0  0  0
   11.4171  -17.8250   25.5743 C   0  0  1  0  0  0  0  0  0  0  0  0
   12.4654  -16.7343   25.5804 C   0  0  0  0  0  0  0  0  0  0  0  0
   10.0708  -17.1824   25.7632 C   0  0  2  0  0  0  0  0  0  0  0  0
    9.8369  -16.1490   24.7570 N   0  0  0  0  0  0  0  0  0  0  0  0
   10.0514  -16.5213   27.0874 C   0  0  0  0  0  0  0  0  0  0  0  0
   10.1118  -17.2109   28.1249 O   0  0  0  0  0  0  0  0  0  0  0  0
    9.9670  -15.1487   27.1800 O   0  0  0  0  0  0  0  0  0  0  0  0
  1  2  1  0
  2  3  2  0
  2  4  1  0
  4  5  1  0
  6  5  1  0
  6  7  1  6
  8  6  1  0
  8  9  2  0
 10 11  1  0
 11 12  2  0
 12 13  1  0
 14 13  2  0
 14 15  1  0
 16 15  1  1
 16 17  1  0
 17  8  1  0
 18 16  1  0
 18 26  1  0
 19 18  2  0
 20 14  1  0
 21 20  2  0
 21 11  1  0
 23 22  1  6
 23 25  1  0
 24 23  1  0
 25 26  1  6
 25 27  1  0
 27 28  2  0
 27 29  1  0
M  END
$$$$
