QYV.pdb
     RDKit          3D

 29 29  0  0  1  0  0  0  0  0999 V2000
    8.6613  -12.4443   18.7924 N   0  0  0  0  0  0  0  0  0  0  0  0
    8.2609  -13.3829   17.8170 C   0  0  0  0  0  0  0  0  0  0  0  0
    8.8664  -13.3927   16.6897 O   0  0  0  0  0  0  0  0  0  0  0  0
    7.1841  -14.3591   18.0182 C   0  0  0  0  0  0  0  0  0  0  0  0
    6.8093  -14.5972   19.4497 C   0  0  0  0  0  0  0  0  0  0  0  0
    7.8158  -15.4795   20.1052 C   0  0  2  0  0  0  0  0  0  0  0  0
    7.9984  -16.7349   19.3869 N   0  0  0  0  0  0  0  0  0  0  0  0
    7.4079  -15.8167   21.5183 C   0  0  0  0  0  0  0  0  0  0  0  0
    6.2466  -15.5816   21.9030 O   0  0  0  0  0  0  0  0  0  0  0  0
    8.1532  -18.9615   29.8405 O   0  0  0  0  0  0  0  0  0  0  0  0
    8.2313  -18.7200   28.4645 C   0  0  0  0  0  0  0  0  0  0  0  0
    9.4409  -18.4947   27.8482 C   0  0  0  0  0  0  0  0  0  0  0  0
    9.5054  -18.2577   26.4917 C   0  0  0  0  0  0  0  0  0  0  0  0
    8.3627  -18.2376   25.7023 C   0  0  0  0  0  0  0  0  0  0  0  0
    8.4780  -17.9808   24.2705 C   0  0  0  0  0  0  0  0  0  0  0  0
    8.0335  -16.5977   23.8454 C   0  0  2  0  0  0  0  0  0  0  0  0
    8.3131  -16.4003   22.4375 N   0  0  0  0  0  0  0  0  0  0  0  0
    8.6371  -15.5297   24.6779 C   0  0  0  0  0  0  0  0  0  0  0  0
    9.8762  -15.3504   24.6244 O   0  0  0  0  0  0  0  0  0  0  0  0
    7.1636  -18.4635   26.3276 C   0  0  0  0  0  0  0  0  0  0  0  0
    7.0701  -18.7052   27.6952 C   0  0  0  0  0  0  0  0  0  0  0  0
    7.4409  -11.8318   24.9626 C   0  0  0  0  0  0  0  0  0  0  0  0
    7.5907  -12.4364   26.3415 C   0  0  1  0  0  0  0  0  0  0  0  0
    6.2114  -12.8406   26.8136 C   0  0  0  0  0  0  0  0  0  0  0  0
    8.4602  -13.6632   26.3287 C   0  0  2  0  0  0  0  0  0  0  0  0
    7.8625  -14.7213   25.5174 N   0  0  0  0  0  0  0  0  0  0  0  0
    8.5649  -14.1749   27.7137 C   0  0  0  0  0  0  0  0  0  0  0  0
    7.9509  -15.2104   28.0395 O   0  0  0  0  0  0  0  0  0  0  0  0
    9.3368  -13.5135   28.6445 O   0  0  0  0  0  0  0  0  0  0  0  0
  1  2  1  0
  2  3  2  0
  2  4  1  0
  4  5  1  0
  6  5  1  0
  6  7  1  6
  8  6  1  0
  8  9  2  0
 10 11  1  0
 11 12  2  0
 12 13  1  0
 14 13  2  0
 14 15  1  0
 16 15  1  1
 16 17  1  0
 17  8  1  0
 18 16  1  0
 18 26  1  0
 19 18  2  0
 20 14  1  0
 21 20  2  0
 21 11  1  0
 23 22  1  6
 23 25  1  0
 24 23  1  0
 25 26  1  6
 25 27  1  0
 27 28  2  0
 27 29  1  0
M  END
$$$$
