QYV.pdb
     RDKit          3D

 29 29  0  0  1  0  0  0  0  0999 V2000
    8.4602  -12.7530   16.2311 N   0  0  0  0  0  0  0  0  0  0  0  0
    8.4001  -14.1254   15.9062 C   0  0  0  0  0  0  0  0  0  0  0  0
    7.9831  -14.4634   14.7446 O   0  0  0  0  0  0  0  0  0  0  0  0
    8.7921  -15.1992   16.8261 C   0  0  0  0  0  0  0  0  0  0  0  0
    9.2230  -14.7378   18.1855 C   0  0  0  0  0  0  0  0  0  0  0  0
    9.1634  -15.8678   19.1553 C   0  0  2  0  0  0  0  0  0  0  0  0
    7.8966  -16.5861   19.0867 N   0  0  0  0  0  0  0  0  0  0  0  0
    9.3360  -15.3802   20.5728 C   0  0  0  0  0  0  0  0  0  0  0  0
   10.4009  -14.8326   20.9165 O   0  0  0  0  0  0  0  0  0  0  0  0
    7.2469  -12.1497   28.5326 O   0  0  0  0  0  0  0  0  0  0  0  0
    7.2354  -12.6635   27.2311 C   0  0  0  0  0  0  0  0  0  0  0  0
    7.9162  -12.0377   26.2120 C   0  0  0  0  0  0  0  0  0  0  0  0
    7.8974  -12.5532   24.9336 C   0  0  0  0  0  0  0  0  0  0  0  0
    7.1972  -13.7132   24.6279 C   0  0  0  0  0  0  0  0  0  0  0  0
    7.2035  -14.2219   23.2603 C   0  0  0  0  0  0  0  0  0  0  0  0
    8.4143  -15.0603   22.9105 C   0  0  2  0  0  0  0  0  0  0  0  0
    8.3140  -15.5254   21.5419 N   0  0  0  0  0  0  0  0  0  0  0  0
    8.6159  -16.1838   23.8566 C   0  0  0  0  0  0  0  0  0  0  0  0
    7.7081  -17.0388   23.9805 O   0  0  0  0  0  0  0  0  0  0  0  0
    6.5229  -14.3276   25.6516 C   0  0  0  0  0  0  0  0  0  0  0  0
    6.5252  -13.8286   26.9509 C   0  0  0  0  0  0  0  0  0  0  0  0
   11.2043  -18.7850   23.7695 C   0  0  0  0  0  0  0  0  0  0  0  0
   11.2652  -18.1819   25.1558 C   0  0  1  0  0  0  0  0  0  0  0  0
   12.4079  -17.1907   25.1713 C   0  0  0  0  0  0  0  0  0  0  0  0
   10.0017  -17.4464   25.5075 C   0  0  2  0  0  0  0  0  0  0  0  0
    9.7876  -16.3128   24.6107 N   0  0  0  0  0  0  0  0  0  0  0  0
   10.1437  -16.9044   26.8776 C   0  0  0  0  0  0  0  0  0  0  0  0
   10.3115  -15.6800   27.0450 O   0  0  0  0  0  0  0  0  0  0  0  0
   10.0914  -17.7452   27.9685 O   0  0  0  0  0  0  0  0  0  0  0  0
  1  2  1  0
  2  3  2  0
  2  4  1  0
  4  5  1  0
  6  5  1  0
  6  7  1  1
  8  6  1  0
  8  9  2  0
 10 11  1  0
 11 12  2  0
 12 13  1  0
 14 13  2  0
 14 15  1  0
 16 15  1  1
 16 17  1  0
 17  8  1  0
 18 16  1  0
 18 26  1  0
 19 18  2  0
 20 14  1  0
 21 20  2  0
 21 11  1  0
 23 22  1  6
 23 25  1  0
 24 23  1  0
 25 26  1  6
 25 27  1  0
 27 28  2  0
 27 29  1  0
M  END
$$$$
