QYV.pdb
     RDKit          3D

 29 29  0  0  1  0  0  0  0  0999 V2000
    8.9677  -21.9739   20.6839 N   0  0  0  0  0  0  0  0  0  0  0  0
    9.9718  -21.4088   19.8684 C   0  0  0  0  0  0  0  0  0  0  0  0
   10.8918  -22.1713   19.4104 O   0  0  0  0  0  0  0  0  0  0  0  0
   10.0256  -19.9875   19.5080 C   0  0  0  0  0  0  0  0  0  0  0  0
   10.0512  -19.0432   20.6716 C   0  0  0  0  0  0  0  0  0  0  0  0
    9.8626  -17.6417   20.2013 C   0  0  2  0  0  0  0  0  0  0  0  0
   10.9004  -17.2313   19.2631 N   0  0  0  0  0  0  0  0  0  0  0  0
    9.8812  -16.6712   21.3565 C   0  0  0  0  0  0  0  0  0  0  0  0
   10.9644  -16.2082   21.7619 O   0  0  0  0  0  0  0  0  0  0  0  0
    6.8801  -11.2869   27.7844 O   0  0  0  0  0  0  0  0  0  0  0  0
    7.0121  -12.1027   26.6552 C   0  0  0  0  0  0  0  0  0  0  0  0
    7.7843  -11.7165   25.5837 C   0  0  0  0  0  0  0  0  0  0  0  0
    7.9067  -12.5286   24.4765 C   0  0  0  0  0  0  0  0  0  0  0  0
    7.2616  -13.7564   24.4007 C   0  0  0  0  0  0  0  0  0  0  0  0
    7.4181  -14.5826   23.2082 C   0  0  0  0  0  0  0  0  0  0  0  0
    8.6555  -15.4546   23.2096 C   0  0  2  0  0  0  0  0  0  0  0  0
    8.6920  -16.2614   22.0067 N   0  0  0  0  0  0  0  0  0  0  0  0
    8.7573  -16.2887   24.4310 C   0  0  0  0  0  0  0  0  0  0  0  0
    7.8390  -17.1029   24.6842 O   0  0  0  0  0  0  0  0  0  0  0  0
    6.4953  -14.1302   25.4745 C   0  0  0  0  0  0  0  0  0  0  0  0
    6.3545  -13.3296   26.6044 C   0  0  0  0  0  0  0  0  0  0  0  0
   11.7205  -18.4596   25.2532 C   0  0  0  0  0  0  0  0  0  0  0  0
   11.3877  -17.6651   26.4972 C   0  0  1  0  0  0  0  0  0  0  0  0
   12.3707  -16.5183   26.5816 C   0  0  0  0  0  0  0  0  0  0  0  0
    9.9993  -17.0897   26.4450 C   0  0  2  0  0  0  0  0  0  0  0  0
    9.8469  -16.1902   25.3036 N   0  0  0  0  0  0  0  0  0  0  0  0
    9.7803  -16.2888   27.6704 C   0  0  0  0  0  0  0  0  0  0  0  0
    9.6717  -15.0490   27.5888 O   0  0  0  0  0  0  0  0  0  0  0  0
    9.6956  -16.9054   28.9001 O   0  0  0  0  0  0  0  0  0  0  0  0
  1  2  1  0
  2  3  2  0
  2  4  1  0
  4  5  1  0
  6  5  1  0
  6  7  1  6
  8  6  1  0
  8  9  2  0
 10 11  1  0
 11 12  2  0
 12 13  1  0
 14 13  2  0
 14 15  1  0
 16 15  1  1
 16 17  1  0
 17  8  1  0
 18 16  1  0
 18 26  1  0
 19 18  2  0
 20 14  1  0
 21 20  2  0
 21 11  1  0
 23 22  1  6
 23 25  1  0
 24 23  1  0
 25 26  1  6
 25 27  1  0
 27 28  2  0
 27 29  1  0
M  END
$$$$
