QYV.pdb
     RDKit          3D

 29 29  0  0  1  0  0  0  0  0999 V2000
    8.9173  -17.7029   16.5050 N   0  0  0  0  0  0  0  0  0  0  0  0
    8.6879  -17.7239   17.8976 C   0  0  0  0  0  0  0  0  0  0  0  0
    9.0677  -18.7463   18.5669 O   0  0  0  0  0  0  0  0  0  0  0  0
    8.0362  -16.6343   18.6333 C   0  0  0  0  0  0  0  0  0  0  0  0
    8.8425  -16.0659   19.7616 C   0  0  0  0  0  0  0  0  0  0  0  0
    8.0269  -15.0873   20.5350 C   0  0  2  0  0  0  0  0  0  0  0  0
    8.1269  -13.7374   19.9935 N   0  0  0  0  0  0  0  0  0  0  0  0
    8.4626  -15.0339   21.9786 C   0  0  0  0  0  0  0  0  0  0  0  0
    9.4163  -14.3057   22.3136 O   0  0  0  0  0  0  0  0  0  0  0  0
    6.7770  -10.0160   26.8681 O   0  0  0  0  0  0  0  0  0  0  0  0
    6.8233  -11.3543   26.4623 C   0  0  0  0  0  0  0  0  0  0  0  0
    7.7870  -12.2114   26.9424 C   0  0  0  0  0  0  0  0  0  0  0  0
    7.8226  -13.5280   26.5352 C   0  0  0  0  0  0  0  0  0  0  0  0
    6.8960  -14.0352   25.6333 C   0  0  0  0  0  0  0  0  0  0  0  0
    6.9728  -15.4351   25.2287 C   0  0  0  0  0  0  0  0  0  0  0  0
    8.1818  -15.7765   24.3842 C   0  0  2  0  0  0  0  0  0  0  0  0
    7.8155  -15.7946   22.9824 N   0  0  0  0  0  0  0  0  0  0  0  0
    8.8197  -17.0488   24.7993 C   0  0  0  0  0  0  0  0  0  0  0  0
    8.2119  -18.1248   24.5913 O   0  0  0  0  0  0  0  0  0  0  0  0
    5.9408  -13.1717   25.1623 C   0  0  0  0  0  0  0  0  0  0  0  0
    5.8820  -11.8382   25.5566 C   0  0  0  0  0  0  0  0  0  0  0  0
   12.3410  -18.2283   23.8760 C   0  0  0  0  0  0  0  0  0  0  0  0
   12.1701  -18.3389   25.3753 C   0  0  1  0  0  0  0  0  0  0  0  0
   12.8359  -17.1325   25.9997 C   0  0  0  0  0  0  0  0  0  0  0  0
   10.7218  -18.3372   25.7802 C   0  0  2  0  0  0  0  0  0  0  0  0
   10.0764  -17.0784   25.4142 N   0  0  0  0  0  0  0  0  0  0  0  0
   10.6495  -18.4582   27.2536 C   0  0  0  0  0  0  0  0  0  0  0  0
   10.2144  -17.5068   27.9326 O   0  0  0  0  0  0  0  0  0  0  0  0
   11.0601  -19.6159   27.8788 O   0  0  0  0  0  0  0  0  0  0  0  0
  1  2  1  0
  2  3  2  0
  2  4  1  0
  4  5  1  0
  6  5  1  0
  6  7  1  6
  8  6  1  0
  8  9  2  0
 10 11  1  0
 11 12  2  0
 12 13  1  0
 14 13  2  0
 14 15  1  0
 16 15  1  1
 16 17  1  0
 17  8  1  0
 18 16  1  0
 18 26  1  0
 19 18  2  0
 20 14  1  0
 21 20  2  0
 21 11  1  0
 23 22  1  6
 23 25  1  0
 24 23  1  0
 25 26  1  1
 25 27  1  0
 27 28  2  0
 27 29  1  0
M  END
$$$$
