RAF.pdb
     RDKit          3D

 28 28  0  0  1  0  0  0  0  0999 V2000
    7.9456  -12.1993   18.6700 N   0  0  0  0  0  0  0  0  0  0  0  0
    8.2852  -13.4524   18.0906 C   0  0  0  0  0  0  0  0  0  0  0  0
    8.2198  -13.5367   16.8059 N   0  0  0  0  0  0  0  0  0  0  0  0
    8.6807  -14.5717   18.8745 N   0  0  0  0  0  0  0  0  0  0  0  0
    7.6660  -15.4414   19.4282 C   0  0  0  0  0  0  0  0  0  0  0  0
    6.5861  -14.6538   20.1393 C   0  0  0  0  0  0  0  0  0  0  0  0
    6.5544  -15.0725   21.5672 C   0  0  0  0  0  0  0  0  0  0  0  0
    6.7823  -16.5513   21.7665 C   0  0  2  0  0  0  0  0  0  0  0  0
    5.8782  -17.3714   21.0251 N   0  0  0  0  0  0  0  0  0  0  0  0
    6.7709  -16.9476   23.1792 C   0  0  0  0  0  0  0  0  0  0  0  0
    5.7295  -16.9408   23.8748 O   0  0  0  0  0  0  0  0  0  0  0  0
    8.5748  -14.3756   16.3101 C   0  0  0  0  0  0  0  0  0  0  0  0
    8.5368  -19.1354   25.4173 C   0  0  1  0  0  0  0  0  0  0  0  0
    8.0198  -17.7269   25.2239 N   0  0  0  0  0  0  0  0  0  0  0  0
    7.9766  -17.3602   23.8082 C   0  0  0  0  0  0  0  0  0  0  0  0
    9.0019  -16.8081   25.8696 O   0  0  0  0  0  0  0  0  0  0  0  0
   10.0244  -16.4785   25.2197 N   0  0  0  0  0  0  0  0  0  0  0  0
    8.8326  -16.2982   27.1677 C   0  0  1  0  0  0  0  0  0  0  0  0
    9.8332  -15.4184   27.7148 C   0  0  0  0  0  0  0  0  0  0  0  0
    9.2107  -14.2068   28.3633 C   0  0  0  0  0  0  0  0  0  0  0  0
    8.4220  -13.4721   27.3815 C   0  0  0  0  0  0  0  0  0  0  0  0
    8.9507  -13.1938   26.1475 C   0  0  0  0  0  0  0  0  0  0  0  0
    8.2272  -12.5187   25.1664 C   0  0  0  0  0  0  0  0  0  0  0  0
    6.9310  -12.1280   25.4790 C   0  0  0  0  0  0  0  0  0  0  0  0
    6.3710  -12.3912   26.7059 C   0  0  0  0  0  0  0  0  0  0  0  0
    7.1406  -13.0726   27.6563 C   0  0  0  0  0  0  0  0  0  0  0  0
   10.6206  -16.2114   28.6785 O   0  0  0  0  0  0  0  0  0  0  0  0
   11.7494  -15.6900   29.2903 O   0  0  0  0  0  0  0  0  0  0  0  0
  2  1  1  0
  2  4  1  0
  3  2  2  0
  4  5  1  0
  5  6  1  0
  6  7  1  0
  7  8  1  0
  8  9  1  6
 10  8  1  0
 11 10  2  0
 13 12  1  6
 13 15  1  0
 13 14  1  0
 14 10  1  0
 15 17  1  0
 16 15  2  0
 17 18  1  0
 18 26  1  0
 19 20  1  0
 18 19  1  1
 20 25  2  0
 21 22  2  0
 21 20  1  0
 22 23  1  0
 23 24  2  0
 25 24  1  0
 26 28  2  0
 26 27  1  0
M  END
$$$$
