RAF.pdb
     RDKit          3D

 28 28  0  0  1  0  0  0  0  0999 V2000
    7.6827  -12.6995   15.2158 N   0  0  0  0  0  0  0  0  0  0  0  0
    7.6910  -14.1192   15.1415 C   0  0  0  0  0  0  0  0  0  0  0  0
    6.9841  -14.6576   14.2076 N   0  0  0  0  0  0  0  0  0  0  0  0
    8.4376  -14.9248   16.0457 N   0  0  0  0  0  0  0  0  0  0  0  0
    8.5569  -14.5126   17.4272 C   0  0  0  0  0  0  0  0  0  0  0  0
    7.3403  -13.7350   17.8827 C   0  0  0  0  0  0  0  0  0  0  0  0
    6.9620  -14.1994   19.2452 C   0  0  0  0  0  0  0  0  0  0  0  0
    8.1120  -14.1981   20.2230 C   0  0  2  0  0  0  0  0  0  0  0  0
    9.3926  -14.2755   19.5954 N   0  0  0  0  0  0  0  0  0  0  0  0
    7.9948  -15.2424   21.2470 C   0  0  0  0  0  0  0  0  0  0  0  0
    6.9145  -15.5060   21.8231 O   0  0  0  0  0  0  0  0  0  0  0  0
    6.9261  -15.6887   14.1130 C   0  0  0  0  0  0  0  0  0  0  0  0
   10.1432  -18.1162   22.3721 C   0  0  2  0  0  0  0  0  0  0  0  0
    9.0567  -17.0873   22.5948 N   0  0  0  0  0  0  0  0  0  0  0  0
    9.1380  -16.0004   21.6188 C   0  0  0  0  0  0  0  0  0  0  0  0
    9.3024  -16.4745   23.9326 O   0  0  0  0  0  0  0  0  0  0  0  0
   10.1961  -15.5978   24.0302 N   0  0  0  0  0  0  0  0  0  0  0  0
    8.5803  -16.8345   25.0827 C   0  0  1  0  0  0  0  0  0  0  0  0
    8.8211  -16.1290   26.3150 C   0  0  0  0  0  0  0  0  0  0  0  0
    7.5492  -15.5416   26.8749 C   0  0  0  0  0  0  0  0  0  0  0  0
    7.4093  -14.1584   26.4354 C   0  0  0  0  0  0  0  0  0  0  0  0
    7.0316  -13.8840   25.1463 C   0  0  0  0  0  0  0  0  0  0  0  0
    6.8581  -12.5800   24.6865 C   0  0  0  0  0  0  0  0  0  0  0  0
    7.0828  -11.5463   25.5872 C   0  0  0  0  0  0  0  0  0  0  0  0
    7.4621  -11.7866   26.8860 C   0  0  0  0  0  0  0  0  0  0  0  0
    7.6223  -13.1150   27.2974 C   0  0  0  0  0  0  0  0  0  0  0  0
    9.4357  -17.0932   27.2479 O   0  0  0  0  0  0  0  0  0  0  0  0
   10.0233  -16.6774   28.4321 O   0  0  0  0  0  0  0  0  0  0  0  0
  2  1  1  0
  2  4  1  0
  3  2  2  0
  4  5  1  0
  5  6  1  0
  6  7  1  0
  7  8  1  0
  8  9  1  6
 10  8  1  0
 11 10  2  0
 13 12  1  6
 13 15  1  0
 13 14  1  0
 14 10  1  0
 15 17  1  0
 16 15  2  0
 17 18  1  0
 18 26  1  0
 19 20  1  0
 18 19  1  1
 20 25  2  0
 21 22  2  0
 21 20  1  0
 22 23  1  0
 23 24  2  0
 25 24  1  0
 26 28  2  0
 26 27  1  0
M  END
$$$$
