RAF.pdb
     RDKit          3D

 28 28  0  0  1  0  0  0  0  0999 V2000
    7.7457  -15.0608   15.4166 N   0  0  0  0  0  0  0  0  0  0  0  0
    8.2069  -14.3272   16.5437 C   0  0  0  0  0  0  0  0  0  0  0  0
    8.1593  -13.0416   16.4609 N   0  0  0  0  0  0  0  0  0  0  0  0
    8.7011  -14.9634   17.7163 N   0  0  0  0  0  0  0  0  0  0  0  0
    9.3726  -16.2394   17.5990 C   0  0  0  0  0  0  0  0  0  0  0  0
    8.5113  -17.3710   18.1184 C   0  0  0  0  0  0  0  0  0  0  0  0
    9.3193  -18.1876   19.0648 C   0  0  0  0  0  0  0  0  0  0  0  0
    8.8960  -18.0343   20.5056 C   0  0  2  0  0  0  0  0  0  0  0  0
    7.5213  -18.3487   20.7314 N   0  0  0  0  0  0  0  0  0  0  0  0
    9.2008  -16.7081   21.0545 C   0  0  0  0  0  0  0  0  0  0  0  0
   10.3605  -16.2357   21.0762 O   0  0  0  0  0  0  0  0  0  0  0  0
    8.5316  -12.4463   17.2242 C   0  0  0  0  0  0  0  0  0  0  0  0
    7.1233  -13.7171   22.0291 C   0  0  2  0  0  0  0  0  0  0  0  0
    8.3943  -14.5374   22.0470 N   0  0  0  0  0  0  0  0  0  0  0  0
    8.1564  -15.9065   21.5895 C   0  0  0  0  0  0  0  0  0  0  0  0
    8.8309  -14.6361   23.4701 O   0  0  0  0  0  0  0  0  0  0  0  0
    9.3063  -13.6117   24.0189 N   0  0  0  0  0  0  0  0  0  0  0  0
    8.7336  -15.8206   24.2192 C   0  0  1  0  0  0  0  0  0  0  0  0
    9.1177  -15.8096   25.6073 C   0  0  0  0  0  0  0  0  0  0  0  0
    7.9161  -15.7074   26.5139 C   0  0  0  0  0  0  0  0  0  0  0  0
    7.5009  -14.3143   26.6275 C   0  0  0  0  0  0  0  0  0  0  0  0
    6.2129  -13.9562   26.3230 C   0  0  0  0  0  0  0  0  0  0  0  0
    5.7610  -12.6434   26.4416 C   0  0  0  0  0  0  0  0  0  0  0  0
    6.6686  -11.6894   26.8851 C   0  0  0  0  0  0  0  0  0  0  0  0
    7.9664  -12.0146   27.1987 C   0  0  0  0  0  0  0  0  0  0  0  0
    8.3697  -13.3482   27.0623 C   0  0  0  0  0  0  0  0  0  0  0  0
    9.8828  -17.0478   25.8502 O   0  0  0  0  0  0  0  0  0  0  0  0
   10.4334  -17.3242   27.0915 O   0  0  0  0  0  0  0  0  0  0  0  0
  2  1  1  0
  2  4  1  0
  3  2  2  0
  4  5  1  0
  5  6  1  0
  6  7  1  0
  7  8  1  0
  8  9  1  6
 10  8  1  0
 11 10  2  0
 13 12  1  6
 13 15  1  0
 13 14  1  0
 14 10  1  0
 15 17  1  0
 16 15  2  0
 17 18  1  0
 18 26  1  0
 19 20  1  0
 18 19  1  1
 20 25  2  0
 21 22  2  0
 21 20  1  0
 22 23  1  0
 23 24  2  0
 25 24  1  0
 26 28  2  0
 26 27  1  0
M  END
$$$$
