RAF.pdb
     RDKit          3D

 28 28  0  0  1  0  0  0  0  0999 V2000
    8.2728  -12.8679   16.5666 N   0  0  0  0  0  0  0  0  0  0  0  0
    8.5191  -14.2644   16.4655 C   0  0  0  0  0  0  0  0  0  0  0  0
    9.0381  -14.6859   15.3633 N   0  0  0  0  0  0  0  0  0  0  0  0
    8.2140  -15.1698   17.5196 N   0  0  0  0  0  0  0  0  0  0  0  0
    8.4798  -14.7790   18.8867 C   0  0  0  0  0  0  0  0  0  0  0  0
    7.2646  -14.1460   19.5306 C   0  0  0  0  0  0  0  0  0  0  0  0
    6.7442  -15.0700   20.5749 C   0  0  0  0  0  0  0  0  0  0  0  0
    7.8296  -15.7999   21.3284 C   0  0  2  0  0  0  0  0  0  0  0  0
    8.0966  -17.1068   20.8178 N   0  0  0  0  0  0  0  0  0  0  0  0
    7.5769  -15.8707   22.7720 C   0  0  0  0  0  0  0  0  0  0  0  0
    7.2621  -14.8680   23.4531 O   0  0  0  0  0  0  0  0  0  0  0  0
    9.3166  -15.6788   15.2531 C   0  0  0  0  0  0  0  0  0  0  0  0
    7.4129  -18.6846   25.3246 C   0  0  1  0  0  0  0  0  0  0  0  0
    7.4172  -17.2378   24.8822 N   0  0  0  0  0  0  0  0  0  0  0  0
    7.6867  -17.1151   23.4495 C   0  0  0  0  0  0  0  0  0  0  0  0
    8.5503  -16.5690   25.5853 O   0  0  0  0  0  0  0  0  0  0  0  0
    9.6441  -16.4579   24.9788 N   0  0  0  0  0  0  0  0  0  0  0  0
    8.4466  -16.0603   26.8907 C   0  0  1  0  0  0  0  0  0  0  0  0
    9.5760  -15.3839   27.4748 C   0  0  0  0  0  0  0  0  0  0  0  0
    9.1409  -14.2463   28.3651 C   0  0  0  0  0  0  0  0  0  0  0  0
    8.1320  -13.4443   27.6833 C   0  0  0  0  0  0  0  0  0  0  0  0
    8.4735  -12.7090   26.5777 C   0  0  0  0  0  0  0  0  0  0  0  0
    7.5400  -11.9486   25.8761 C   0  0  0  0  0  0  0  0  0  0  0  0
    6.2291  -11.9562   26.3366 C   0  0  0  0  0  0  0  0  0  0  0  0
    5.8534  -12.6822   27.4412 C   0  0  0  0  0  0  0  0  0  0  0  0
    6.8301  -13.4295   28.1100 C   0  0  0  0  0  0  0  0  0  0  0  0
   10.3452  -16.3990   28.2202 O   0  0  0  0  0  0  0  0  0  0  0  0
   11.5685  -16.0975   28.7971 O   0  0  0  0  0  0  0  0  0  0  0  0
  2  1  1  0
  2  4  1  0
  3  2  2  0
  4  5  1  0
  5  6  1  0
  6  7  1  0
  7  8  1  0
  8  9  1  6
 10  8  1  0
 11 10  2  0
 13 12  1  6
 13 15  1  0
 13 14  1  0
 14 10  1  0
 15 17  1  0
 16 15  2  0
 17 18  1  0
 18 26  1  0
 19 20  1  0
 18 19  1  1
 20 25  2  0
 21 22  2  0
 21 20  1  0
 22 23  1  0
 23 24  2  0
 25 24  1  0
 26 28  2  0
 26 27  1  0
M  END
$$$$
