KSN.pdb
     RDKit          3D

 24 23  0  0  1  0  0  0  0  0999 V2000
   26.0428  -20.2114   -9.7176 N   0  0  0  0  0  0  0  0  0  0  0  0
   25.8879  -20.9698  -10.9310 C   0  0  1  0  0  0  0  0  0  0  0  0
   24.5441  -21.6150  -11.0982 C   0  0  0  0  0  0  0  0  0  0  0  0
   23.3633  -20.8320  -10.6778 C   0  0  0  0  0  0  0  0  0  0  0  0
   22.4598  -20.3917  -11.7869 C   0  0  0  0  0  0  0  0  0  0  0  0
   21.6096  -21.5579  -12.2948 C   0  0  0  0  0  0  0  0  0  0  0  0
   20.7770  -21.0778  -13.3737 N   0  0  0  0  0  0  0  0  0  0  0  0
   26.1069  -19.9953  -12.0629 C   0  0  0  0  0  0  0  0  0  0  0  0
   25.8790  -18.8022  -11.8148 O   0  0  0  0  0  0  0  0  0  0  0  0
   28.0661  -18.9300  -16.3080 O   0  0  0  0  0  0  0  0  0  0  0  0
   27.8892  -19.9128  -15.3363 C   0  0  0  0  0  0  0  0  0  0  0  0
   26.7941  -19.4703  -14.4284 C   0  0  2  0  0  0  0  0  0  0  0  0
   26.5446  -20.3877  -13.3388 N   0  0  0  0  0  0  0  0  0  0  0  0
   25.5308  -19.4175  -15.2523 C   0  0  0  0  0  0  0  0  0  0  0  0
   24.7964  -20.4268  -15.4098 O   0  0  0  0  0  0  0  0  0  0  0  0
   21.3051  -15.8963  -17.1992 N   0  0  0  0  0  0  0  0  0  0  0  0
   22.4833  -16.4502  -17.7702 C   0  0  0  0  0  0  0  0  0  0  0  0
   22.5422  -16.7868  -18.9807 O   0  0  0  0  0  0  0  0  0  0  0  0
   23.6699  -16.6356  -16.9189 C   0  0  0  0  0  0  0  0  0  0  0  0
   23.8851  -18.1069  -16.6417 C   0  0  2  0  0  0  0  0  0  0  0  0
   25.1307  -18.2030  -15.8833 N   0  0  0  0  0  0  0  0  0  0  0  0
   24.0962  -18.8670  -17.9013 C   0  0  0  0  0  0  0  0  0  0  0  0
   23.0042  -19.5064  -18.4948 O   0  0  0  0  0  0  0  0  0  0  0  0
   25.2076  -18.9757  -18.4785 O   0  0  0  0  0  0  0  0  0  0  0  0
  2  1  1  1
  3  2  1  0
  4  5  1  0
  4  3  1  0
  5  6  1  0
  6  7  1  0
  8 13  1  0
  8  2  1  0
  9  8  2  0
 10 11  1  0
 12 11  1  6
 12 13  1  0
 12 14  1  0
 14 15  2  0
 17 16  1  0
 17 19  1  0
 18 17  2  0
 20 19  1  6
 21 14  1  0
 21 20  1  0
 22 20  1  0
 22 23  1  0
 24 22  2  0
M  END
$$$$
