KSN.pdb
     RDKit          3D

 24 23  0  0  1  0  0  0  0  0999 V2000
   19.5421  -13.0135  -16.5755 N   0  0  0  0  0  0  0  0  0  0  0  0
   19.5063  -11.6480  -17.0290 C   0  0  1  0  0  0  0  0  0  0  0  0
   18.1476  -11.1588  -17.4345 C   0  0  0  0  0  0  0  0  0  0  0  0
   17.4614  -11.8948  -18.5169 C   0  0  0  0  0  0  0  0  0  0  0  0
   16.3308  -12.7717  -18.0774 C   0  0  0  0  0  0  0  0  0  0  0  0
   15.6761  -13.4611  -19.2761 C   0  0  0  0  0  0  0  0  0  0  0  0
   14.5894  -14.2810  -18.7916 N   0  0  0  0  0  0  0  0  0  0  0  0
   20.0029  -10.8119  -15.8744 C   0  0  0  0  0  0  0  0  0  0  0  0
   19.2520  -10.7281  -14.8916 O   0  0  0  0  0  0  0  0  0  0  0  0
   23.5055   -8.8756  -13.3325 O   0  0  0  0  0  0  0  0  0  0  0  0
   23.1657   -9.6434  -14.4444 C   0  0  0  0  0  0  0  0  0  0  0  0
   21.7449   -9.3541  -14.7864 C   0  0  2  0  0  0  0  0  0  0  0  0
   21.2433  -10.1524  -15.8828 N   0  0  0  0  0  0  0  0  0  0  0  0
   21.6817   -7.9133  -15.2313 C   0  0  0  0  0  0  0  0  0  0  0  0
   22.0914   -7.5478  -16.3633 O   0  0  0  0  0  0  0  0  0  0  0  0
   18.3774   -2.9379  -14.8572 N   0  0  0  0  0  0  0  0  0  0  0  0
   19.6362   -3.5923  -14.9474 C   0  0  0  0  0  0  0  0  0  0  0  0
   20.6738   -2.9914  -15.3269 O   0  0  0  0  0  0  0  0  0  0  0  0
   19.7277   -5.0164  -14.5859 C   0  0  0  0  0  0  0  0  0  0  0  0
   21.1537   -5.4988  -14.7334 C   0  0  2  0  0  0  0  0  0  0  0  0
   21.1477   -6.9134  -14.3662 N   0  0  0  0  0  0  0  0  0  0  0  0
   22.0558   -4.8148  -13.7705 C   0  0  0  0  0  0  0  0  0  0  0  0
   22.5658   -3.5561  -14.1007 O   0  0  0  0  0  0  0  0  0  0  0  0
   22.3970   -5.2991  -12.6618 O   0  0  0  0  0  0  0  0  0  0  0  0
  2  1  1  1
  3  2  1  0
  4  5  1  0
  4  3  1  0
  5  6  1  0
  6  7  1  0
  8 13  1  0
  8  2  1  0
  9  8  2  0
 10 11  1  0
 12 11  1  6
 12 13  1  0
 12 14  1  0
 14 15  2  0
 17 16  1  0
 17 19  1  0
 18 17  2  0
 20 19  1  1
 21 14  1  0
 21 20  1  0
 22 20  1  0
 22 23  1  0
 24 22  2  0
M  END
$$$$
