KSN.pdb
     RDKit          3D

 24 23  0  0  1  0  0  0  0  0999 V2000
   16.0062  -14.3334  -16.3905 N   0  0  0  0  0  0  0  0  0  0  0  0
   17.4398  -14.2080  -16.3668 C   0  0  1  0  0  0  0  0  0  0  0  0
   18.1673  -15.1780  -17.2497 C   0  0  0  0  0  0  0  0  0  0  0  0
   17.5563  -16.5111  -17.4338 C   0  0  0  0  0  0  0  0  0  0  0  0
   18.3829  -17.6648  -16.9584 C   0  0  0  0  0  0  0  0  0  0  0  0
   17.6605  -18.9915  -17.2017 C   0  0  0  0  0  0  0  0  0  0  0  0
   18.5295  -20.0664  -16.7807 N   0  0  0  0  0  0  0  0  0  0  0  0
   17.7434  -12.8033  -16.8288 C   0  0  0  0  0  0  0  0  0  0  0  0
   18.8755  -12.6091  -17.2951 O   0  0  0  0  0  0  0  0  0  0  0  0
   15.0885   -9.7247  -16.1490 O   0  0  0  0  0  0  0  0  0  0  0  0
   15.8827   -9.5448  -17.2796 C   0  0  0  0  0  0  0  0  0  0  0  0
   17.1026  -10.3854  -17.1234 C   0  0  2  0  0  0  0  0  0  0  0  0
   16.8151  -11.7520  -16.7480 N   0  0  0  0  0  0  0  0  0  0  0  0
   17.9121   -9.7855  -15.9998 C   0  0  0  0  0  0  0  0  0  0  0  0
   17.6473  -10.0166  -14.7918 O   0  0  0  0  0  0  0  0  0  0  0  0
   21.5120   -7.2907  -13.4170 N   0  0  0  0  0  0  0  0  0  0  0  0
   21.9886   -8.4101  -14.1524 C   0  0  0  0  0  0  0  0  0  0  0  0
   23.1339   -8.8938  -13.9617 O   0  0  0  0  0  0  0  0  0  0  0  0
   21.1154   -9.0213  -15.1677 C   0  0  0  0  0  0  0  0  0  0  0  0
   19.7891   -8.2956  -15.2164 C   0  0  2  0  0  0  0  0  0  0  0  0
   19.0153   -8.9275  -16.2831 N   0  0  0  0  0  0  0  0  0  0  0  0
   19.9677   -6.8731  -15.6080 C   0  0  0  0  0  0  0  0  0  0  0  0
   19.4025   -6.4267  -16.8058 O   0  0  0  0  0  0  0  0  0  0  0  0
   20.6026   -6.0306  -14.9244 O   0  0  0  0  0  0  0  0  0  0  0  0
  2  1  1  6
  3  2  1  0
  4  5  1  0
  4  3  1  0
  5  6  1  0
  6  7  1  0
  8 13  1  0
  8  2  1  0
  9  8  2  0
 10 11  1  0
 12 11  1  1
 12 13  1  0
 12 14  1  0
 14 15  2  0
 17 16  1  0
 17 19  1  0
 18 17  2  0
 20 19  1  6
 21 14  1  0
 21 20  1  0
 22 20  1  0
 22 23  1  0
 24 22  2  0
M  END
$$$$
