KSN.pdb
     RDKit          3D

 24 23  0  0  1  0  0  0  0  0999 V2000
   20.7296  -19.6162  -13.7478 N   0  0  0  0  0  0  0  0  0  0  0  0
   21.4692  -20.7579  -13.2778 C   0  0  1  0  0  0  0  0  0  0  0  0
   21.1872  -22.0330  -14.0157 C   0  0  0  0  0  0  0  0  0  0  0  0
   19.8481  -22.6324  -13.8384 C   0  0  0  0  0  0  0  0  0  0  0  0
   19.5089  -23.0381  -12.4382 C   0  0  0  0  0  0  0  0  0  0  0  0
   18.1565  -23.7518  -12.3883 C   0  0  0  0  0  0  0  0  0  0  0  0
   17.7917  -23.9387  -11.0028 N   0  0  0  0  0  0  0  0  0  0  0  0
   22.9280  -20.4078  -13.4455 C   0  0  0  0  0  0  0  0  0  0  0  0
   23.2059  -19.6346  -14.3738 O   0  0  0  0  0  0  0  0  0  0  0  0
   25.6191  -22.3826  -11.2485 O   0  0  0  0  0  0  0  0  0  0  0  0
   26.2027  -21.2042  -11.7092 C   0  0  0  0  0  0  0  0  0  0  0  0
   25.3504  -20.6670  -12.8065 C   0  0  2  0  0  0  0  0  0  0  0  0
   23.9390  -20.9142  -12.6118 N   0  0  0  0  0  0  0  0  0  0  0  0
   25.7494  -21.3892  -14.0702 C   0  0  0  0  0  0  0  0  0  0  0  0
   25.2849  -22.5205  -14.3652 O   0  0  0  0  0  0  0  0  0  0  0  0
   24.8868  -20.1670  -17.2637 N   0  0  0  0  0  0  0  0  0  0  0  0
   26.1471  -19.6951  -17.7219 C   0  0  0  0  0  0  0  0  0  0  0  0
   26.2447  -18.7614  -18.5589 O   0  0  0  0  0  0  0  0  0  0  0  0
   27.3748  -20.3184  -17.2010 C   0  0  0  0  0  0  0  0  0  0  0  0
   27.0239  -21.4368  -16.2451 C   0  0  2  0  0  0  0  0  0  0  0  0
   26.6781  -20.7982  -14.9768 N   0  0  0  0  0  0  0  0  0  0  0  0
   28.2004  -22.3042  -15.9759 C   0  0  0  0  0  0  0  0  0  0  0  0
   28.5792  -23.2452  -16.9374 O   0  0  0  0  0  0  0  0  0  0  0  0
   28.8889  -22.2482  -14.9256 O   0  0  0  0  0  0  0  0  0  0  0  0
  2  1  1  6
  3  2  1  0
  4  5  1  0
  4  3  1  0
  5  6  1  0
  6  7  1  0
  8 13  1  0
  8  2  1  0
  9  8  2  0
 10 11  1  0
 12 11  1  1
 12 13  1  0
 12 14  1  0
 14 15  2  0
 17 16  1  0
 17 19  1  0
 18 17  2  0
 20 19  1  6
 21 14  1  0
 21 20  1  0
 22 20  1  0
 22 23  1  0
 24 22  2  0
M  END
$$$$
