KSN.pdb
     RDKit          3D

 24 23  0  0  1  0  0  0  0  0999 V2000
   17.0996  -12.4104  -15.5199 N   0  0  0  0  0  0  0  0  0  0  0  0
   17.3402  -11.1112  -16.0906 C   0  0  1  0  0  0  0  0  0  0  0  0
   16.1205  -10.2472  -16.2157 C   0  0  0  0  0  0  0  0  0  0  0  0
   15.0222  -10.7507  -17.0669 C   0  0  0  0  0  0  0  0  0  0  0  0
   13.7524  -11.0785  -16.3456 C   0  0  0  0  0  0  0  0  0  0  0  0
   12.6440  -11.4515  -17.3321 C   0  0  0  0  0  0  0  0  0  0  0  0
   11.4766  -11.8449  -16.5772 N   0  0  0  0  0  0  0  0  0  0  0  0
   18.3300  -10.4307  -15.1762 C   0  0  0  0  0  0  0  0  0  0  0  0
   18.1019  -10.5103  -13.9603 O   0  0  0  0  0  0  0  0  0  0  0  0
   22.0847   -9.7587  -16.3324 O   0  0  0  0  0  0  0  0  0  0  0  0
   21.8155   -9.7007  -14.9666 C   0  0  0  0  0  0  0  0  0  0  0  0
   20.4512   -9.1288  -14.7904 C   0  0  2  0  0  0  0  0  0  0  0  0
   19.4576   -9.7374  -15.6468 N   0  0  0  0  0  0  0  0  0  0  0  0
   20.5287   -7.6725  -15.1788 C   0  0  0  0  0  0  0  0  0  0  0  0
   20.2941   -7.2832  -16.3519 O   0  0  0  0  0  0  0  0  0  0  0  0
   21.1426   -2.6332  -15.0133 N   0  0  0  0  0  0  0  0  0  0  0  0
   19.9546   -3.1115  -14.3962 C   0  0  0  0  0  0  0  0  0  0  0  0
   19.0061   -2.3435  -14.0921 O   0  0  0  0  0  0  0  0  0  0  0  0
   19.8310   -4.5491  -14.1042 C   0  0  0  0  0  0  0  0  0  0  0  0
   21.0653   -5.2832  -14.5790 C   0  0  2  0  0  0  0  0  0  0  0  0
   20.8755   -6.6847  -14.2106 N   0  0  0  0  0  0  0  0  0  0  0  0
   22.2794   -4.8166  -13.8599 C   0  0  0  0  0  0  0  0  0  0  0  0
   23.1687   -3.9638  -14.5196 O   0  0  0  0  0  0  0  0  0  0  0  0
   22.5655   -5.1420  -12.6798 O   0  0  0  0  0  0  0  0  0  0  0  0
  2  1  1  1
  3  2  1  0
  4  5  1  0
  4  3  1  0
  5  6  1  0
  6  7  1  0
  8 13  1  0
  8  2  1  0
  9  8  2  0
 10 11  1  0
 12 11  1  6
 12 13  1  0
 12 14  1  0
 14 15  2  0
 17 16  1  0
 17 19  1  0
 18 17  2  0
 20 19  1  1
 21 14  1  0
 21 20  1  0
 22 20  1  0
 22 23  1  0
 24 22  2  0
M  END
$$$$
