KSN.pdb
     RDKit          3D

 24 23  0  0  1  0  0  0  0  0999 V2000
   23.9702  -21.0119  -16.4676 N   0  0  0  0  0  0  0  0  0  0  0  0
   23.0162  -19.9864  -16.1364 C   0  0  1  0  0  0  0  0  0  0  0  0
   22.3708  -20.1432  -14.7915 C   0  0  0  0  0  0  0  0  0  0  0  0
   22.2034  -21.5198  -14.2805 C   0  0  0  0  0  0  0  0  0  0  0  0
   23.4514  -22.1681  -13.7680 C   0  0  0  0  0  0  0  0  0  0  0  0
   23.1616  -23.5784  -13.2501 C   0  0  0  0  0  0  0  0  0  0  0  0
   24.4068  -24.1677  -12.8145 N   0  0  0  0  0  0  0  0  0  0  0  0
   23.7777  -18.6834  -16.1646 C   0  0  0  0  0  0  0  0  0  0  0  0
   23.2012  -17.6976  -15.6821 O   0  0  0  0  0  0  0  0  0  0  0  0
   27.7021  -18.1432  -15.9970 O   0  0  0  0  0  0  0  0  0  0  0  0
   27.2133  -17.4306  -17.0900 C   0  0  0  0  0  0  0  0  0  0  0  0
   25.7378  -17.3000  -16.9314 C   0  0  2  0  0  0  0  0  0  0  0  0
   25.0702  -18.5620  -16.7014 N   0  0  0  0  0  0  0  0  0  0  0  0
   25.2001  -16.7526  -18.2310 C   0  0  0  0  0  0  0  0  0  0  0  0
   24.6025  -17.4820  -19.0638 O   0  0  0  0  0  0  0  0  0  0  0  0
   20.8973  -15.3097  -20.2430 N   0  0  0  0  0  0  0  0  0  0  0  0
   22.3152  -15.3724  -20.3228 C   0  0  0  0  0  0  0  0  0  0  0  0
   22.9060  -15.8295  -21.3347 O   0  0  0  0  0  0  0  0  0  0  0  0
   23.1161  -14.8880  -19.1865 C   0  0  0  0  0  0  0  0  0  0  0  0
   24.5629  -14.7334  -19.5997 C   0  0  2  0  0  0  0  0  0  0  0  0
   25.3583  -15.3726  -18.5534 N   0  0  0  0  0  0  0  0  0  0  0  0
   24.9660  -13.3031  -19.6244 C   0  0  0  0  0  0  0  0  0  0  0  0
   24.8744  -12.5968  -20.8270 O   0  0  0  0  0  0  0  0  0  0  0  0
   25.3906  -12.6754  -18.6215 O   0  0  0  0  0  0  0  0  0  0  0  0
  2  1  1  1
  3  2  1  0
  4  5  1  0
  4  3  1  0
  5  6  1  0
  6  7  1  0
  8 13  1  0
  8  2  1  0
  9  8  2  0
 10 11  1  0
 12 11  1  6
 12 13  1  0
 12 14  1  0
 14 15  2  0
 17 16  1  0
 17 19  1  0
 18 17  2  0
 20 19  1  1
 21 14  1  0
 21 20  1  0
 22 20  1  0
 22 23  1  0
 24 22  2  0
M  END
$$$$
