LMQ.pdb
     RDKit          3D

 26 25  0  0  1  0  0  0  0  0999 V2000
    8.2112  -12.0361   19.2957 C   0  0  0  0  0  0  0  0  0  0  0  0
    7.8407  -13.3186   19.9842 C   0  0  1  0  0  0  0  0  0  0  0  0
    6.7972  -14.0237   19.1749 C   0  0  0  0  0  0  0  0  0  0  0  0
    9.0676  -14.1935   20.1263 C   0  0  0  0  0  0  0  0  0  0  0  0
    8.8016  -15.4215   20.9358 C   0  0  2  0  0  0  0  0  0  0  0  0
    7.4927  -15.9299   20.6559 N   0  0  0  0  0  0  0  0  0  0  0  0
    8.9286  -15.0452   22.3779 C   0  0  0  0  0  0  0  0  0  0  0  0
   10.0436  -14.7174   22.8545 O   0  0  0  0  0  0  0  0  0  0  0  0
    7.2468  -11.4341   28.2577 C   0  0  0  0  0  0  0  0  0  0  0  0
    7.4373  -12.0513   26.5697 S   0  0  0  0  0  0  0  0  0  0  0  0
    6.5840  -13.6772   26.4934 C   0  0  0  0  0  0  0  0  0  0  0  0
    6.6463  -14.1114   25.0634 C   0  0  0  0  0  0  0  0  0  0  0  0
    7.9454  -14.6926   24.6323 C   0  0  2  0  0  0  0  0  0  0  0  0
    7.8015  -15.0546   23.2146 N   0  0  0  0  0  0  0  0  0  0  0  0
    8.3207  -15.9533   25.3207 C   0  0  0  0  0  0  0  0  0  0  0  0
    7.4718  -16.8764   25.2823 O   0  0  0  0  0  0  0  0  0  0  0  0
   12.1584  -19.6328   23.6047 N   0  0  0  0  0  0  0  0  0  0  0  0
   12.7885  -18.4855   24.2105 C   0  0  0  0  0  0  0  0  0  0  0  0
   13.9043  -18.1820   23.7926 O   0  0  0  0  0  0  0  0  0  0  0  0
   12.0493  -17.7847   25.2665 C   0  0  0  0  0  0  0  0  0  0  0  0
   10.7092  -18.2692   25.6329 C   0  0  0  0  0  0  0  0  0  0  0  0
    9.8778  -17.4494   26.5566 C   0  0  2  0  0  0  0  0  0  0  0  0
    9.5237  -16.1684   25.9883 N   0  0  0  0  0  0  0  0  0  0  0  0
   10.2779  -17.4131   27.9633 C   0  0  0  0  0  0  0  0  0  0  0  0
   10.2585  -16.2172   28.6950 O   0  0  0  0  0  0  0  0  0  0  0  0
   10.6706  -18.4275   28.6260 O   0  0  0  0  0  0  0  0  0  0  0  0
  2  3  1  6
  2  1  1  0
  4  5  1  0
  4  2  1  0
  5  7  1  0
  5  6  1  1
  7  8  2  0
  9 10  1  0
 10 11  1  0
 12 11  1  0
 13 12  1  1
 13 14  1  0
 14  7  1  0
 15 13  1  0
 16 15  2  0
 17 18  1  0
 18 20  1  0
 18 19  2  0
 20 21  1  0
 22 21  1  6
 22 23  1  0
 22 24  1  0
 23 15  1  0
 24 25  1  0
 26 24  2  0
M  END
$$$$
