LMQ.pdb
     RDKit          3D

 26 25  0  0  1  0  0  0  0  0999 V2000
    8.2960  -21.2401   21.3177 C   0  0  0  0  0  0  0  0  0  0  0  0
    7.8757  -19.9364   20.7017 C   0  0  1  0  0  0  0  0  0  0  0  0
    6.3807  -19.8810   20.6475 C   0  0  0  0  0  0  0  0  0  0  0  0
    8.4088  -18.7864   21.5291 C   0  0  0  0  0  0  0  0  0  0  0  0
    7.9931  -17.4557   20.9906 C   0  0  2  0  0  0  0  0  0  0  0  0
    8.4513  -17.2971   19.6434 N   0  0  0  0  0  0  0  0  0  0  0  0
    8.5828  -16.4072   21.8797 C   0  0  0  0  0  0  0  0  0  0  0  0
    9.7311  -15.9517   21.6521 O   0  0  0  0  0  0  0  0  0  0  0  0
    6.3498  -11.1676   27.2784 C   0  0  0  0  0  0  0  0  0  0  0  0
    5.9922  -12.6040   26.2414 S   0  0  0  0  0  0  0  0  0  0  0  0
    7.5356  -13.0032   25.3270 C   0  0  0  0  0  0  0  0  0  0  0  0
    7.2169  -14.1895   24.4736 C   0  0  0  0  0  0  0  0  0  0  0  0
    8.3706  -14.7694   23.7360 C   0  0  2  0  0  0  0  0  0  0  0  0
    7.8580  -15.9208   22.9791 N   0  0  0  0  0  0  0  0  0  0  0  0
    9.4472  -15.3176   24.5988 C   0  0  0  0  0  0  0  0  0  0  0  0
    9.9816  -14.5085   25.3949 O   0  0  0  0  0  0  0  0  0  0  0  0
   10.2528  -19.1493   29.1477 N   0  0  0  0  0  0  0  0  0  0  0  0
    9.5489  -19.6639   27.9987 C   0  0  0  0  0  0  0  0  0  0  0  0
    8.9057  -20.6990   28.1618 O   0  0  0  0  0  0  0  0  0  0  0  0
    9.6610  -18.9136   26.7429 C   0  0  0  0  0  0  0  0  0  0  0  0
   10.3979  -17.6401   26.7431 C   0  0  0  0  0  0  0  0  0  0  0  0
   10.9328  -17.1208   25.4545 C   0  0  2  0  0  0  0  0  0  0  0  0
    9.8885  -16.6382   24.5793 N   0  0  0  0  0  0  0  0  0  0  0  0
   11.9765  -17.9075   24.7972 C   0  0  0  0  0  0  0  0  0  0  0  0
   11.8527  -18.3077   23.4592 O   0  0  0  0  0  0  0  0  0  0  0  0
   13.0519  -18.2905   25.3623 O   0  0  0  0  0  0  0  0  0  0  0  0
  2  3  1  1
  2  1  1  0
  4  5  1  0
  4  2  1  0
  5  7  1  0
  5  6  1  6
  7  8  2  0
  9 10  1  0
 10 11  1  0
 12 11  1  0
 13 12  1  1
 13 14  1  0
 14  7  1  0
 15 13  1  0
 16 15  2  0
 17 18  1  0
 18 20  1  0
 18 19  2  0
 20 21  1  0
 22 21  1  1
 22 23  1  0
 22 24  1  0
 23 15  1  0
 24 25  1  0
 26 24  2  0
M  END
$$$$
