LMQ.pdb
     RDKit          3D

 26 25  0  0  1  0  0  0  0  0999 V2000
    7.1054  -22.7687   24.3095 C   0  0  0  0  0  0  0  0  0  0  0  0
    6.1529  -21.6715   23.9289 C   0  0  1  0  0  0  0  0  0  0  0  0
    5.0921  -21.5590   24.9792 C   0  0  0  0  0  0  0  0  0  0  0  0
    6.9048  -20.3634   23.8072 C   0  0  0  0  0  0  0  0  0  0  0  0
    6.0059  -19.2183   23.4690 C   0  0  2  0  0  0  0  0  0  0  0  0
    5.4526  -19.3879   22.1594 N   0  0  0  0  0  0  0  0  0  0  0  0
    6.8238  -17.9681   23.5429 C   0  0  0  0  0  0  0  0  0  0  0  0
    7.6951  -17.7249   22.6714 O   0  0  0  0  0  0  0  0  0  0  0  0
    7.0686  -10.9411   27.0029 C   0  0  0  0  0  0  0  0  0  0  0  0
    6.2314  -12.5089   26.6751 S   0  0  0  0  0  0  0  0  0  0  0  0
    7.4107  -13.5612   25.7372 C   0  0  0  0  0  0  0  0  0  0  0  0
    6.7058  -14.8574   25.4925 C   0  0  0  0  0  0  0  0  0  0  0  0
    7.4491  -15.8363   24.6555 C   0  0  2  0  0  0  0  0  0  0  0  0
    6.6257  -17.0525   24.5884 N   0  0  0  0  0  0  0  0  0  0  0  0
    8.7494  -16.2760   25.2212 C   0  0  0  0  0  0  0  0  0  0  0  0
    8.6911  -17.1306   26.1379 O   0  0  0  0  0  0  0  0  0  0  0  0
   15.7310  -17.4109   23.5031 N   0  0  0  0  0  0  0  0  0  0  0  0
   14.8400  -16.3336   23.8578 C   0  0  0  0  0  0  0  0  0  0  0  0
   15.1065  -15.2228   23.4030 O   0  0  0  0  0  0  0  0  0  0  0  0
   13.7009  -16.6537   24.7252 C   0  0  0  0  0  0  0  0  0  0  0  0
   12.3710  -16.1367   24.3661 C   0  0  0  0  0  0  0  0  0  0  0  0
   11.2344  -16.3715   25.2985 C   0  0  2  0  0  0  0  0  0  0  0  0
    9.9954  -15.8110   24.8085 N   0  0  0  0  0  0  0  0  0  0  0  0
   11.4852  -16.1657   26.7251 C   0  0  0  0  0  0  0  0  0  0  0  0
   12.1202  -17.1455   27.5013 O   0  0  0  0  0  0  0  0  0  0  0  0
   11.1569  -15.1170   27.3692 O   0  0  0  0  0  0  0  0  0  0  0  0
  2  3  1  1
  2  1  1  0
  4  5  1  0
  4  2  1  0
  5  7  1  0
  5  6  1  6
  7  8  2  0
  9 10  1  0
 10 11  1  0
 12 11  1  0
 13 12  1  1
 13 14  1  0
 14  7  1  0
 15 13  1  0
 16 15  2  0
 17 18  1  0
 18 20  1  0
 18 19  2  0
 20 21  1  0
 22 21  1  6
 22 23  1  0
 22 24  1  0
 23 15  1  0
 24 25  1  0
 26 24  2  0
M  END
$$$$
