LMQ.pdb
     RDKit          3D

 26 25  0  0  1  0  0  0  0  0999 V2000
    7.4331  -12.1901   18.7659 C   0  0  0  0  0  0  0  0  0  0  0  0
    8.0291  -13.5155   19.1455 C   0  0  1  0  0  0  0  0  0  0  0  0
    9.5102  -13.3596   19.2976 C   0  0  0  0  0  0  0  0  0  0  0  0
    7.4205  -13.9941   20.4461 C   0  0  0  0  0  0  0  0  0  0  0  0
    8.1833  -15.1292   21.0490 C   0  0  2  0  0  0  0  0  0  0  0  0
    7.3785  -16.3131   21.0759 N   0  0  0  0  0  0  0  0  0  0  0  0
    8.5757  -14.7215   22.4337 C   0  0  0  0  0  0  0  0  0  0  0  0
    9.5042  -13.8953   22.6152 O   0  0  0  0  0  0  0  0  0  0  0  0
    6.8574  -11.6287   27.6825 C   0  0  0  0  0  0  0  0  0  0  0  0
    5.6404  -12.5407   26.7061 S   0  0  0  0  0  0  0  0  0  0  0  0
    6.5187  -13.1967   25.2310 C   0  0  0  0  0  0  0  0  0  0  0  0
    7.1325  -14.4927   25.6561 C   0  0  0  0  0  0  0  0  0  0  0  0
    8.3486  -14.8970   24.9018 C   0  0  2  0  0  0  0  0  0  0  0  0
    7.9092  -15.2590   23.5462 N   0  0  0  0  0  0  0  0  0  0  0  0
    9.0315  -16.1063   25.4266 C   0  0  0  0  0  0  0  0  0  0  0  0
    8.3127  -17.1232   25.5785 O   0  0  0  0  0  0  0  0  0  0  0  0
   14.3173  -16.0282   24.4980 N   0  0  0  0  0  0  0  0  0  0  0  0
   13.3873  -16.5621   23.5335 C   0  0  0  0  0  0  0  0  0  0  0  0
   13.5664  -16.2466   22.3587 O   0  0  0  0  0  0  0  0  0  0  0  0
   12.3146  -17.4290   24.0338 C   0  0  0  0  0  0  0  0  0  0  0  0
   12.2536  -17.7191   25.4750 C   0  0  0  0  0  0  0  0  0  0  0  0
   11.0049  -17.3977   26.2192 C   0  0  2  0  0  0  0  0  0  0  0  0
   10.3836  -16.1791   25.7518 N   0  0  0  0  0  0  0  0  0  0  0  0
   11.0311  -17.5608   27.6728 C   0  0  0  0  0  0  0  0  0  0  0  0
   11.5006  -18.7420   28.2645 O   0  0  0  0  0  0  0  0  0  0  0  0
   10.6392  -16.6778   28.5029 O   0  0  0  0  0  0  0  0  0  0  0  0
  2  3  1  1
  2  1  1  0
  4  5  1  0
  4  2  1  0
  5  7  1  0
  5  6  1  1
  7  8  2  0
  9 10  1  0
 10 11  1  0
 12 11  1  0
 13 12  1  1
 13 14  1  0
 14  7  1  0
 15 13  1  0
 16 15  2  0
 17 18  1  0
 18 20  1  0
 18 19  2  0
 20 21  1  0
 22 21  1  1
 22 23  1  0
 22 24  1  0
 23 15  1  0
 24 25  1  0
 26 24  2  0
M  END
$$$$
