LMQ.pdb
     RDKit          3D

 26 25  0  0  1  0  0  0  0  0999 V2000
    7.6714  -12.1860   19.2006 C   0  0  0  0  0  0  0  0  0  0  0  0
    7.7262  -13.6651   19.4561 C   0  0  1  0  0  0  0  0  0  0  0  0
    7.7346  -14.3876   18.1450 C   0  0  0  0  0  0  0  0  0  0  0  0
    8.9754  -14.0004   20.2424 C   0  0  0  0  0  0  0  0  0  0  0  0
    8.8134  -15.2330   21.0720 C   0  0  2  0  0  0  0  0  0  0  0  0
    7.5300  -15.8246   20.8416 N   0  0  0  0  0  0  0  0  0  0  0  0
    8.9648  -14.8329   22.5054 C   0  0  0  0  0  0  0  0  0  0  0  0
    9.9788  -14.1962   22.8849 O   0  0  0  0  0  0  0  0  0  0  0  0
    6.5000  -11.0662   26.8062 C   0  0  0  0  0  0  0  0  0  0  0  0
    7.6609  -12.4489   26.8868 S   0  0  0  0  0  0  0  0  0  0  0  0
    6.6682  -13.9908   26.7654 C   0  0  0  0  0  0  0  0  0  0  0  0
    6.7467  -14.4231   25.3357 C   0  0  0  0  0  0  0  0  0  0  0  0
    8.1151  -14.7243   24.8377 C   0  0  2  0  0  0  0  0  0  0  0  0
    7.9738  -15.1656   23.4424 N   0  0  0  0  0  0  0  0  0  0  0  0
    8.7969  -15.8442   25.5341 C   0  0  0  0  0  0  0  0  0  0  0  0
    9.2379  -15.5932   26.6815 O   0  0  0  0  0  0  0  0  0  0  0  0
   12.9620  -19.6850   23.1201 N   0  0  0  0  0  0  0  0  0  0  0  0
   13.0687  -19.8851   24.5445 C   0  0  0  0  0  0  0  0  0  0  0  0
   14.1140  -20.3848   24.9562 O   0  0  0  0  0  0  0  0  0  0  0  0
   11.9285  -19.4786   25.3735 C   0  0  0  0  0  0  0  0  0  0  0  0
   10.9338  -18.5555   24.8050 C   0  0  0  0  0  0  0  0  0  0  0  0
    9.7898  -18.1225   25.6534 C   0  0  2  0  0  0  0  0  0  0  0  0
    8.9726  -17.1210   25.0065 N   0  0  0  0  0  0  0  0  0  0  0  0
   10.0615  -17.8787   27.0701 C   0  0  0  0  0  0  0  0  0  0  0  0
   10.7690  -18.8077   27.8461 O   0  0  0  0  0  0  0  0  0  0  0  0
    9.6891  -16.8394   27.7056 O   0  0  0  0  0  0  0  0  0  0  0  0
  2  3  1  6
  2  1  1  0
  4  5  1  0
  4  2  1  0
  5  7  1  0
  5  6  1  1
  7  8  2  0
  9 10  1  0
 10 11  1  0
 12 11  1  0
 13 12  1  1
 13 14  1  0
 14  7  1  0
 15 13  1  0
 16 15  2  0
 17 18  1  0
 18 20  1  0
 18 19  2  0
 20 21  1  0
 22 21  1  6
 22 23  1  0
 22 24  1  0
 23 15  1  0
 24 25  1  0
 26 24  2  0
M  END
$$$$
