LMQ.pdb
     RDKit          3D

 26 25  0  0  1  0  0  0  0  0999 V2000
    7.5522  -12.3767   18.8234 C   0  0  0  0  0  0  0  0  0  0  0  0
    7.7581  -13.7623   19.3656 C   0  0  1  0  0  0  0  0  0  0  0  0
    8.5384  -14.5650   18.3717 C   0  0  0  0  0  0  0  0  0  0  0  0
    8.5078  -13.6895   20.6785 C   0  0  0  0  0  0  0  0  0  0  0  0
    8.5774  -15.0129   21.3695 C   0  0  2  0  0  0  0  0  0  0  0  0
    7.3397  -15.7179   21.2235 N   0  0  0  0  0  0  0  0  0  0  0  0
    8.8733  -14.7514   22.8123 C   0  0  0  0  0  0  0  0  0  0  0  0
    9.9059  -14.1189   23.1459 O   0  0  0  0  0  0  0  0  0  0  0  0
    7.0891  -10.8533   27.3740 C   0  0  0  0  0  0  0  0  0  0  0  0
    5.8956  -11.9446   26.5672 S   0  0  0  0  0  0  0  0  0  0  0  0
    6.7950  -12.8286   25.2303 C   0  0  0  0  0  0  0  0  0  0  0  0
    7.0372  -14.2140   25.7393 C   0  0  0  0  0  0  0  0  0  0  0  0
    8.2614  -14.8772   25.2171 C   0  0  2  0  0  0  0  0  0  0  0  0
    7.9987  -15.2109   23.8096 N   0  0  0  0  0  0  0  0  0  0  0  0
    8.5939  -16.1691   25.8689 C   0  0  0  0  0  0  0  0  0  0  0  0
    7.6398  -16.7718   26.4170 O   0  0  0  0  0  0  0  0  0  0  0  0
    5.9285  -18.7222   25.1264 N   0  0  0  0  0  0  0  0  0  0  0  0
    7.1455  -19.2730   25.6703 C   0  0  0  0  0  0  0  0  0  0  0  0
    7.1895  -19.4200   26.8902 O   0  0  0  0  0  0  0  0  0  0  0  0
    8.2190  -19.6074   24.7277 C   0  0  0  0  0  0  0  0  0  0  0  0
    9.2651  -18.6073   24.4631 C   0  0  0  0  0  0  0  0  0  0  0  0
   10.1029  -18.1285   25.5967 C   0  0  2  0  0  0  0  0  0  0  0  0
    9.8647  -16.7373   25.9084 N   0  0  0  0  0  0  0  0  0  0  0  0
   11.5088  -18.5330   25.6077 C   0  0  0  0  0  0  0  0  0  0  0  0
   11.9136  -19.7434   26.1884 O   0  0  0  0  0  0  0  0  0  0  0  0
   12.4594  -17.8447   25.1126 O   0  0  0  0  0  0  0  0  0  0  0  0
  2  3  1  6
  2  1  1  0
  4  5  1  0
  4  2  1  0
  5  7  1  0
  5  6  1  1
  7  8  2  0
  9 10  1  0
 10 11  1  0
 12 11  1  0
 13 12  1  1
 13 14  1  0
 14  7  1  0
 15 13  1  0
 16 15  2  0
 17 18  1  0
 18 20  1  0
 18 19  2  0
 20 21  1  0
 22 21  1  6
 22 23  1  0
 22 24  1  0
 23 15  1  0
 24 25  1  0
 26 24  2  0
M  END
$$$$
