LMQ.pdb
     RDKit          3D

 26 25  0  0  1  0  0  0  0  0999 V2000
    6.7254  -13.5282   18.7426 C   0  0  0  0  0  0  0  0  0  0  0  0
    7.9407  -14.1576   18.1238 C   0  0  1  0  0  0  0  0  0  0  0  0
    8.4005  -13.3101   16.9787 C   0  0  0  0  0  0  0  0  0  0  0  0
    9.0386  -14.2720   19.1596 C   0  0  0  0  0  0  0  0  0  0  0  0
    8.8307  -15.4266   20.0856 C   0  0  2  0  0  0  0  0  0  0  0  0
    7.4567  -15.8291   20.0810 N   0  0  0  0  0  0  0  0  0  0  0  0
    9.2515  -14.9877   21.4523 C   0  0  0  0  0  0  0  0  0  0  0  0
   10.3828  -14.4736   21.6358 O   0  0  0  0  0  0  0  0  0  0  0  0
    6.4193  -11.7435   27.8095 C   0  0  0  0  0  0  0  0  0  0  0  0
    6.2399  -12.3992   26.1349 S   0  0  0  0  0  0  0  0  0  0  0  0
    7.6145  -13.5911   25.8752 C   0  0  0  0  0  0  0  0  0  0  0  0
    7.4901  -14.0662   24.4624 C   0  0  0  0  0  0  0  0  0  0  0  0
    8.7472  -14.5713   23.8493 C   0  0  2  0  0  0  0  0  0  0  0  0
    8.3852  -15.1461   22.5455 N   0  0  0  0  0  0  0  0  0  0  0  0
    9.4014  -15.6761   24.5947 C   0  0  0  0  0  0  0  0  0  0  0  0
    8.7155  -16.7140   24.7565 O   0  0  0  0  0  0  0  0  0  0  0  0
   10.6103  -14.2273   29.9779 N   0  0  0  0  0  0  0  0  0  0  0  0
   10.9647  -15.6225   30.0679 C   0  0  0  0  0  0  0  0  0  0  0  0
   11.0729  -16.0941   31.1983 O   0  0  0  0  0  0  0  0  0  0  0  0
   11.1649  -16.3536   28.8117 C   0  0  0  0  0  0  0  0  0  0  0  0
   10.9021  -15.6611   27.5405 C   0  0  0  0  0  0  0  0  0  0  0  0
   11.0951  -16.4047   26.2653 C   0  0  2  0  0  0  0  0  0  0  0  0
   10.6939  -15.6323   25.1113 N   0  0  0  0  0  0  0  0  0  0  0  0
   10.6880  -17.8097   26.2415 C   0  0  0  0  0  0  0  0  0  0  0  0
    9.3748  -18.1818   25.9209 O   0  0  0  0  0  0  0  0  0  0  0  0
   11.4611  -18.7872   26.5050 O   0  0  0  0  0  0  0  0  0  0  0  0
  2  3  1  6
  2  1  1  0
  4  5  1  0
  4  2  1  0
  5  7  1  0
  5  6  1  1
  7  8  2  0
  9 10  1  0
 10 11  1  0
 12 11  1  0
 13 12  1  1
 13 14  1  0
 14  7  1  0
 15 13  1  0
 16 15  2  0
 17 18  1  0
 18 20  1  0
 18 19  2  0
 20 21  1  0
 22 21  1  1
 22 23  1  0
 22 24  1  0
 23 15  1  0
 24 25  1  0
 26 24  2  0
M  END
$$$$
