LMQ.pdb
     RDKit          3D

 26 25  0  0  1  0  0  0  0  0999 V2000
    8.9895  -12.8315   27.3366 C   0  0  0  0  0  0  0  0  0  0  0  0
    7.8125  -13.6516   26.8914 C   0  0  1  0  0  0  0  0  0  0  0  0
    6.9204  -12.8036   26.0393 C   0  0  0  0  0  0  0  0  0  0  0  0
    8.2956  -14.8514   26.1051 C   0  0  0  0  0  0  0  0  0  0  0  0
    7.1685  -15.6854   25.5875 C   0  0  2  0  0  0  0  0  0  0  0  0
    7.0243  -16.8731   26.3740 N   0  0  0  0  0  0  0  0  0  0  0  0
    7.4776  -16.0247   24.1639 C   0  0  0  0  0  0  0  0  0  0  0  0
    7.7065  -17.2131   23.8278 O   0  0  0  0  0  0  0  0  0  0  0  0
    8.1924  -11.4909   19.3621 C   0  0  0  0  0  0  0  0  0  0  0  0
    7.0506  -12.7463   18.7405 S   0  0  0  0  0  0  0  0  0  0  0  0
    7.5543  -14.3475   19.4889 C   0  0  0  0  0  0  0  0  0  0  0  0
    7.4145  -14.1760   20.9682 C   0  0  0  0  0  0  0  0  0  0  0  0
    7.7485  -15.3757   21.7808 C   0  0  2  0  0  0  0  0  0  0  0  0
    7.5153  -15.0168   23.1873 N   0  0  0  0  0  0  0  0  0  0  0  0
    9.1717  -15.7935   21.7155 C   0  0  0  0  0  0  0  0  0  0  0  0
    9.7797  -15.5160   20.6537 O   0  0  0  0  0  0  0  0  0  0  0  0
   13.2431  -14.6194   19.2668 N   0  0  0  0  0  0  0  0  0  0  0  0
   13.4434  -14.2834   20.6551 C   0  0  0  0  0  0  0  0  0  0  0  0
   14.4426  -13.6198   20.9251 O   0  0  0  0  0  0  0  0  0  0  0  0
   12.4449  -14.7598   21.6189 C   0  0  0  0  0  0  0  0  0  0  0  0
   11.9160  -16.1250   21.4731 C   0  0  0  0  0  0  0  0  0  0  0  0
   11.2628  -16.7700   22.6451 C   0  0  2  0  0  0  0  0  0  0  0  0
    9.8545  -16.4563   22.7322 N   0  0  0  0  0  0  0  0  0  0  0  0
   11.9844  -16.7346   23.9172 C   0  0  0  0  0  0  0  0  0  0  0  0
   11.3280  -16.4311   25.1184 O   0  0  0  0  0  0  0  0  0  0  0  0
   13.2310  -16.9637   24.0437 O   0  0  0  0  0  0  0  0  0  0  0  0
  2  3  1  6
  2  1  1  0
  4  5  1  0
  4  2  1  0
  5  7  1  0
  5  6  1  1
  7  8  2  0
  9 10  1  0
 10 11  1  0
 12 11  1  0
 13 12  1  6
 13 14  1  0
 14  7  1  0
 15 13  1  0
 16 15  2  0
 17 18  1  0
 18 20  1  0
 18 19  2  0
 20 21  1  0
 22 21  1  6
 22 23  1  0
 22 24  1  0
 23 15  1  0
 24 25  1  0
 26 24  2  0
M  END
$$$$
