IHH.pdb
     RDKit          3D

 29 30  0  0  1  0  0  0  0  0999 V2000
    7.7024  -12.2120   22.8358 C   0  0  0  0  0  0  0  0  0  0  0  0
    7.4132  -13.5218   22.1398 C   0  0  0  0  0  0  0  0  0  0  0  0
    8.2952  -13.6657   20.8915 C   0  0  2  0  0  0  0  0  0  0  0  0
    7.8123  -12.6072   19.9237 C   0  0  0  0  0  0  0  0  0  0  0  0
    7.9950  -15.0157   20.2830 C   0  0  2  0  0  0  0  0  0  0  0  0
    6.5691  -15.1360   20.0600 N   0  0  0  0  0  0  0  0  0  0  0  0
    8.4168  -16.1260   21.1989 C   0  0  0  0  0  0  0  0  0  0  0  0
    7.5964  -16.6823   21.9736 O   0  0  0  0  0  0  0  0  0  0  0  0
    9.7559  -16.5981   21.2332 N   0  0  0  0  0  0  0  0  0  0  0  0
   10.2188  -17.6650   22.0977 C   0  0  1  0  0  0  0  0  0  0  0  0
   11.5485  -18.1812   21.5578 C   0  0  0  0  0  0  0  0  0  0  0  0
   11.3476  -18.9156   20.2947 C   0  0  0  0  0  0  0  0  0  0  0  0
   10.6288  -20.0686   20.0941 C   0  0  0  0  0  0  0  0  0  0  0  0
   10.7228  -20.3684   18.7972 N   0  0  0  0  0  0  0  0  0  0  0  0
   11.4713  -19.4508   18.1746 C   0  0  0  0  0  0  0  0  0  0  0  0
   11.8491  -18.5662   19.0981 N   0  0  0  0  0  0  0  0  0  0  0  0
   10.4068  -17.0945   23.4575 C   0  0  0  0  0  0  0  0  0  0  0  0
   10.9303  -15.9416   23.6306 O   0  0  0  0  0  0  0  0  0  0  0  0
    9.9827  -17.8783   24.5633 N   0  0  0  0  0  0  0  0  0  0  0  0
    9.9889  -17.3516   25.9054 C   0  0  1  0  0  0  0  0  0  0  0  0
    8.5971  -17.1142   26.4317 C   0  0  0  0  0  0  0  0  0  0  0  0
    7.9637  -15.9115   25.9009 C   0  0  0  0  0  0  0  0  0  0  0  0
    8.5346  -15.0243   25.0274 C   0  0  0  0  0  0  0  0  0  0  0  0
    7.6205  -14.0702   24.7982 N   0  0  0  0  0  0  0  0  0  0  0  0
    6.5126  -14.3482   25.5037 C   0  0  0  0  0  0  0  0  0  0  0  0
    6.7369  -15.4724   26.1700 N   0  0  0  0  0  0  0  0  0  0  0  0
   10.8058  -18.2066   26.7633 C   0  0  0  0  0  0  0  0  0  0  0  0
   11.3225  -19.2979   26.4020 O   0  0  0  0  0  0  0  0  0  0  0  0
   11.0529  -17.8255   28.0731 O   0  0  0  0  0  0  0  0  0  0  0  0
  2  1  1  0
  3  2  1  0
  3  4  1  6
  5  3  1  0
  5  6  1  1
  7  5  1  0
  7  8  2  0
  9  7  1  0
 10  9  1  0
 10 11  1  6
 12 11  1  0
 12 16  1  0
 13 14  1  0
 13 12  2  0
 14 15  1  0
 15 16  2  0
 17 10  1  0
 18 17  2  0
 19 17  1  0
 20 19  1  0
 20 21  1  1
 21 22  1  0
 22 26  1  0
 23 22  2  0
 23 24  1  0
 24 25  1  0
 26 25  2  0
 27 29  1  0
 27 20  1  0
 28 27  2  0
M  END
$$$$
