IHH.pdb
     RDKit          3D

 29 30  0  0  1  0  0  0  0  0999 V2000
    7.9107  -12.1478   28.2977 C   0  0  0  0  0  0  0  0  0  0  0  0
    7.1024  -12.4760   27.0638 C   0  0  0  0  0  0  0  0  0  0  0  0
    7.5968  -13.7882   26.4389 C   0  0  2  0  0  0  0  0  0  0  0  0
    9.0222  -13.5242   26.0043 C   0  0  0  0  0  0  0  0  0  0  0  0
    6.7746  -14.0305   25.1946 C   0  0  2  0  0  0  0  0  0  0  0  0
    5.3717  -14.0889   25.5494 N   0  0  0  0  0  0  0  0  0  0  0  0
    7.1446  -15.3325   24.5487 C   0  0  0  0  0  0  0  0  0  0  0  0
    6.6531  -16.4214   24.9431 O   0  0  0  0  0  0  0  0  0  0  0  0
    8.0628  -15.3955   23.4669 N   0  0  0  0  0  0  0  0  0  0  0  0
    8.3887  -16.6108   22.7482 C   0  0  1  0  0  0  0  0  0  0  0  0
    8.7497  -16.2410   21.3133 C   0  0  0  0  0  0  0  0  0  0  0  0
    7.8221  -15.2210   20.7895 C   0  0  0  0  0  0  0  0  0  0  0  0
    6.4608  -15.1525   20.9579 C   0  0  0  0  0  0  0  0  0  0  0  0
    6.0401  -14.0640   20.3106 N   0  0  0  0  0  0  0  0  0  0  0  0
    7.0817  -13.4458   19.7423 C   0  0  0  0  0  0  0  0  0  0  0  0
    8.1673  -14.1603   20.0404 N   0  0  0  0  0  0  0  0  0  0  0  0
    9.5564  -17.2352   23.4237 C   0  0  0  0  0  0  0  0  0  0  0  0
   10.0936  -18.3043   22.9748 O   0  0  0  0  0  0  0  0  0  0  0  0
   10.0573  -16.5998   24.5910 N   0  0  0  0  0  0  0  0  0  0  0  0
   11.1466  -17.1658   25.3471 C   0  0  1  0  0  0  0  0  0  0  0  0
   12.3927  -16.3220   25.2718 C   0  0  0  0  0  0  0  0  0  0  0  0
   12.9951  -16.2780   23.9435 C   0  0  0  0  0  0  0  0  0  0  0  0
   13.9366  -17.1484   23.4615 C   0  0  0  0  0  0  0  0  0  0  0  0
   14.2175  -16.7550   22.2107 N   0  0  0  0  0  0  0  0  0  0  0  0
   13.4777  -15.6739   21.9162 C   0  0  0  0  0  0  0  0  0  0  0  0
   12.7385  -15.3957   22.9812 N   0  0  0  0  0  0  0  0  0  0  0  0
   10.7037  -17.4429   26.7115 C   0  0  0  0  0  0  0  0  0  0  0  0
    9.5441  -17.2124   27.1479 O   0  0  0  0  0  0  0  0  0  0  0  0
   11.5918  -17.9983   27.6196 O   0  0  0  0  0  0  0  0  0  0  0  0
  2  1  1  0
  3  2  1  0
  3  4  1  6
  5  3  1  0
  5  6  1  1
  7  5  1  0
  7  8  2  0
  9  7  1  0
 10  9  1  0
 10 11  1  6
 12 11  1  0
 12 16  1  0
 13 14  1  0
 13 12  2  0
 14 15  1  0
 15 16  2  0
 17 10  1  0
 18 17  2  0
 19 17  1  0
 20 19  1  0
 20 21  1  1
 21 22  1  0
 22 26  1  0
 23 22  2  0
 23 24  1  0
 24 25  1  0
 26 25  2  0
 27 29  1  0
 27 20  1  0
 28 27  2  0
M  END
$$$$
