IHH.pdb
     RDKit          3D

 29 30  0  0  1  0  0  0  0  0999 V2000
    7.4922  -11.7605   20.9285 C   0  0  0  0  0  0  0  0  0  0  0  0
    7.4563  -13.2113   20.5073 C   0  0  0  0  0  0  0  0  0  0  0  0
    8.8151  -13.6298   19.9284 C   0  0  2  0  0  0  0  0  0  0  0  0
    8.9695  -12.8511   18.6398 C   0  0  0  0  0  0  0  0  0  0  0  0
    8.7189  -15.0947   19.5711 C   0  0  2  0  0  0  0  0  0  0  0  0
    7.5761  -15.3044   18.7065 N   0  0  0  0  0  0  0  0  0  0  0  0
    8.5340  -15.9380   20.7974 C   0  0  0  0  0  0  0  0  0  0  0  0
    7.6021  -16.7793   20.8785 O   0  0  0  0  0  0  0  0  0  0  0  0
    9.3989  -15.8260   21.9184 N   0  0  0  0  0  0  0  0  0  0  0  0
    9.2373  -16.5773   23.1470 C   0  0  1  0  0  0  0  0  0  0  0  0
    9.3999  -18.0603   22.8308 C   0  0  0  0  0  0  0  0  0  0  0  0
   10.4490  -18.2639   21.8144 C   0  0  0  0  0  0  0  0  0  0  0  0
   11.2365  -17.3132   21.2124 C   0  0  0  0  0  0  0  0  0  0  0  0
   12.0422  -17.9527   20.3624 N   0  0  0  0  0  0  0  0  0  0  0  0
   11.7932  -19.2665   20.4057 C   0  0  0  0  0  0  0  0  0  0  0  0
   10.8175  -19.4476   21.2963 N   0  0  0  0  0  0  0  0  0  0  0  0
   10.2999  -16.1365   24.0885 C   0  0  0  0  0  0  0  0  0  0  0  0
   11.1596  -15.2510   23.7569 O   0  0  0  0  0  0  0  0  0  0  0  0
   10.3274  -16.7361   25.3757 N   0  0  0  0  0  0  0  0  0  0  0  0
    9.5142  -16.2362   26.4562 C   0  0  1  0  0  0  0  0  0  0  0  0
    8.0699  -16.0777   26.0572 C   0  0  0  0  0  0  0  0  0  0  0  0
    7.5553  -14.7236   26.2332 C   0  0  0  0  0  0  0  0  0  0  0  0
    8.2570  -13.6584   26.7323 C   0  0  0  0  0  0  0  0  0  0  0  0
    7.4197  -12.6110   26.7258 N   0  0  0  0  0  0  0  0  0  0  0  0
    6.2318  -13.0044   26.2392 C   0  0  0  0  0  0  0  0  0  0  0  0
    6.3300  -14.2931   25.9436 N   0  0  0  0  0  0  0  0  0  0  0  0
    9.7107  -17.0669   27.6418 C   0  0  0  0  0  0  0  0  0  0  0  0
   10.0037  -16.6244   28.7849 O   0  0  0  0  0  0  0  0  0  0  0  0
    9.5738  -18.4429   27.5435 O   0  0  0  0  0  0  0  0  0  0  0  0
  2  1  1  0
  3  2  1  0
  3  4  1  6
  5  3  1  0
  5  6  1  6
  7  5  1  0
  7  8  2  0
  9  7  1  0
 10  9  1  0
 10 11  1  6
 12 11  1  0
 12 16  1  0
 13 14  1  0
 13 12  2  0
 14 15  1  0
 15 16  2  0
 17 10  1  0
 18 17  2  0
 19 17  1  0
 20 19  1  0
 20 21  1  6
 21 22  1  0
 22 26  1  0
 23 22  2  0
 23 24  1  0
 24 25  1  0
 26 25  2  0
 27 29  1  0
 27 20  1  0
 28 27  2  0
M  END
$$$$
