IHH.pdb
     RDKit          3D

 29 30  0  0  1  0  0  0  0  0999 V2000
    8.1230  -11.3369   19.2023 C   0  0  0  0  0  0  0  0  0  0  0  0
    8.7816  -12.6227   18.7593 C   0  0  0  0  0  0  0  0  0  0  0  0
    8.4832  -13.7453   19.7631 C   0  0  2  0  0  0  0  0  0  0  0  0
    9.0804  -13.2901   21.0771 C   0  0  0  0  0  0  0  0  0  0  0  0
    9.2474  -14.9674   19.3101 C   0  0  2  0  0  0  0  0  0  0  0  0
    8.7170  -15.4231   18.0418 N   0  0  0  0  0  0  0  0  0  0  0  0
    9.1108  -16.0864   20.2993 C   0  0  0  0  0  0  0  0  0  0  0  0
    8.0059  -16.6553   20.4950 O   0  0  0  0  0  0  0  0  0  0  0  0
   10.2178  -16.5530   21.0570 N   0  0  0  0  0  0  0  0  0  0  0  0
   10.1518  -17.6529   21.9982 C   0  0  1  0  0  0  0  0  0  0  0  0
   11.1782  -18.7030   21.5862 C   0  0  0  0  0  0  0  0  0  0  0  0
   10.7227  -19.4346   20.3893 C   0  0  0  0  0  0  0  0  0  0  0  0
   11.2602  -19.4032   19.1258 C   0  0  0  0  0  0  0  0  0  0  0  0
   10.5260  -20.2194   18.3671 N   0  0  0  0  0  0  0  0  0  0  0  0
    9.5490  -20.7624   19.1025 C   0  0  0  0  0  0  0  0  0  0  0  0
    9.6770  -20.2768   20.3377 N   0  0  0  0  0  0  0  0  0  0  0  0
   10.4832  -17.1156   23.3440 C   0  0  0  0  0  0  0  0  0  0  0  0
   11.4944  -16.3564   23.5287 O   0  0  0  0  0  0  0  0  0  0  0  0
    9.6334  -17.4766   24.4232 N   0  0  0  0  0  0  0  0  0  0  0  0
    9.8462  -16.9622   25.7532 C   0  0  1  0  0  0  0  0  0  0  0  0
    8.5513  -16.6950   26.4757 C   0  0  0  0  0  0  0  0  0  0  0  0
    7.7773  -15.5946   25.9103 C   0  0  0  0  0  0  0  0  0  0  0  0
    8.1853  -14.7643   24.9001 C   0  0  0  0  0  0  0  0  0  0  0  0
    7.1834  -13.8987   24.6875 N   0  0  0  0  0  0  0  0  0  0  0  0
    6.1796  -14.1755   25.5351 C   0  0  0  0  0  0  0  0  0  0  0  0
    6.5562  -15.2106   26.2731 N   0  0  0  0  0  0  0  0  0  0  0  0
   10.7556  -17.8450   26.4799 C   0  0  0  0  0  0  0  0  0  0  0  0
   11.0904  -18.9984   26.0981 O   0  0  0  0  0  0  0  0  0  0  0  0
   11.3100  -17.4203   27.6775 O   0  0  0  0  0  0  0  0  0  0  0  0
  2  1  1  0
  3  2  1  0
  3  4  1  1
  5  3  1  0
  5  6  1  6
  7  5  1  0
  7  8  2  0
  9  7  1  0
 10  9  1  0
 10 11  1  6
 12 11  1  0
 12 16  1  0
 13 14  1  0
 13 12  2  0
 14 15  1  0
 15 16  2  0
 17 10  1  0
 18 17  2  0
 19 17  1  0
 20 19  1  0
 20 21  1  1
 21 22  1  0
 22 26  1  0
 23 22  2  0
 23 24  1  0
 24 25  1  0
 26 25  2  0
 27 29  1  0
 27 20  1  0
 28 27  2  0
M  END
$$$$
