IHH.pdb
     RDKit          3D

 29 30  0  0  1  0  0  0  0  0999 V2000
    6.7956  -12.5799   25.2547 C   0  0  0  0  0  0  0  0  0  0  0  0
    6.7886  -13.7192   24.2620 C   0  0  0  0  0  0  0  0  0  0  0  0
    7.9680  -13.5827   23.2888 C   0  0  2  0  0  0  0  0  0  0  0  0
    7.6510  -12.3803   22.4262 C   0  0  0  0  0  0  0  0  0  0  0  0
    7.9580  -14.8028   22.3976 C   0  0  2  0  0  0  0  0  0  0  0  0
    6.6135  -15.0307   21.9098 N   0  0  0  0  0  0  0  0  0  0  0  0
    8.3917  -16.0248   23.1512 C   0  0  0  0  0  0  0  0  0  0  0  0
    7.5530  -16.8445   23.6067 O   0  0  0  0  0  0  0  0  0  0  0  0
    9.7632  -16.3113   23.3841 N   0  0  0  0  0  0  0  0  0  0  0  0
   10.2435  -17.5239   24.0156 C   0  0  1  0  0  0  0  0  0  0  0  0
   11.2148  -18.2124   23.0625 C   0  0  0  0  0  0  0  0  0  0  0  0
   10.4987  -18.7590   21.8948 C   0  0  0  0  0  0  0  0  0  0  0  0
   10.3728  -18.2022   20.6456 C   0  0  0  0  0  0  0  0  0  0  0  0
    9.6435  -19.0455   19.9122 N   0  0  0  0  0  0  0  0  0  0  0  0
    9.3060  -20.1095   20.6498 C   0  0  0  0  0  0  0  0  0  0  0  0
    9.8331  -19.9258   21.8606 N   0  0  0  0  0  0  0  0  0  0  0  0
   10.9460  -17.1334   25.2662 C   0  0  0  0  0  0  0  0  0  0  0  0
   11.3387  -15.9335   25.4639 O   0  0  0  0  0  0  0  0  0  0  0  0
   11.1669  -18.1445   26.2389 N   0  0  0  0  0  0  0  0  0  0  0  0
   11.0691  -17.8654   27.6500 C   0  0  1  0  0  0  0  0  0  0  0  0
    9.7866  -17.1581   28.0042 C   0  0  0  0  0  0  0  0  0  0  0  0
    9.9277  -15.7114   28.1324 C   0  0  0  0  0  0  0  0  0  0  0  0
    9.3514  -14.7747   27.3158 C   0  0  0  0  0  0  0  0  0  0  0  0
    9.7337  -13.5756   27.7787 N   0  0  0  0  0  0  0  0  0  0  0  0
   10.5235  -13.7524   28.8499 C   0  0  0  0  0  0  0  0  0  0  0  0
   10.6321  -15.0581   29.0529 N   0  0  0  0  0  0  0  0  0  0  0  0
   11.2942  -19.0933   28.4088 C   0  0  0  0  0  0  0  0  0  0  0  0
   10.7232  -20.1926   28.1767 O   0  0  0  0  0  0  0  0  0  0  0  0
   12.1913  -19.0897   29.4657 O   0  0  0  0  0  0  0  0  0  0  0  0
  2  1  1  0
  3  2  1  0
  3  4  1  6
  5  3  1  0
  5  6  1  1
  7  5  1  0
  7  8  2  0
  9  7  1  0
 10  9  1  0
 10 11  1  6
 12 11  1  0
 12 16  1  0
 13 14  1  0
 13 12  2  0
 14 15  1  0
 15 16  2  0
 17 10  1  0
 18 17  2  0
 19 17  1  0
 20 19  1  0
 20 21  1  6
 21 22  1  0
 22 26  1  0
 23 22  2  0
 23 24  1  0
 24 25  1  0
 26 25  2  0
 27 29  1  0
 27 20  1  0
 28 27  2  0
M  END
$$$$
