IHH.pdb
     RDKit          3D

 29 30  0  0  1  0  0  0  0  0999 V2000
    7.7467  -11.7913   19.1010 C   0  0  0  0  0  0  0  0  0  0  0  0
    8.2520  -13.1496   18.6728 C   0  0  0  0  0  0  0  0  0  0  0  0
    8.3076  -14.0993   19.8777 C   0  0  2  0  0  0  0  0  0  0  0  0
    9.3223  -13.4991   20.8267 C   0  0  0  0  0  0  0  0  0  0  0  0
    8.8613  -15.4163   19.3860 C   0  0  2  0  0  0  0  0  0  0  0  0
    7.9215  -16.0182   18.4630 N   0  0  0  0  0  0  0  0  0  0  0  0
    9.0714  -16.3714   20.5232 C   0  0  0  0  0  0  0  0  0  0  0  0
    8.0989  -16.8802   21.1382 O   0  0  0  0  0  0  0  0  0  0  0  0
   10.3720  -16.7434   20.9558 N   0  0  0  0  0  0  0  0  0  0  0  0
   10.6340  -17.6266   22.0743 C   0  0  1  0  0  0  0  0  0  0  0  0
   11.7795  -18.5592   21.6949 C   0  0  0  0  0  0  0  0  0  0  0  0
   11.2941  -19.6591   20.8405 C   0  0  0  0  0  0  0  0  0  0  0  0
   10.0082  -19.8973   20.4212 C   0  0  0  0  0  0  0  0  0  0  0  0
   10.0393  -20.9983   19.6677 N   0  0  0  0  0  0  0  0  0  0  0  0
   11.2924  -21.4615   19.5965 C   0  0  0  0  0  0  0  0  0  0  0  0
   12.0530  -20.6364   20.3167 N   0  0  0  0  0  0  0  0  0  0  0  0
   11.0255  -16.7826   23.2337 C   0  0  0  0  0  0  0  0  0  0  0  0
   11.9118  -15.8684   23.1241 O   0  0  0  0  0  0  0  0  0  0  0  0
   10.3778  -17.0279   24.4736 N   0  0  0  0  0  0  0  0  0  0  0  0
   10.7410  -16.3066   25.6680 C   0  0  1  0  0  0  0  0  0  0  0  0
    9.5354  -15.8571   26.4520 C   0  0  0  0  0  0  0  0  0  0  0  0
    9.8627  -15.2329   27.7298 C   0  0  0  0  0  0  0  0  0  0  0  0
   10.1325  -15.8941   28.8987 C   0  0  0  0  0  0  0  0  0  0  0  0
   10.3803  -14.9540   29.8223 N   0  0  0  0  0  0  0  0  0  0  0  0
   10.2701  -13.7429   29.2533 C   0  0  0  0  0  0  0  0  0  0  0  0
    9.9545  -13.9292   27.9791 N   0  0  0  0  0  0  0  0  0  0  0  0
   11.6903  -17.0972   26.4478 C   0  0  0  0  0  0  0  0  0  0  0  0
   12.6657  -16.6182   27.0863 O   0  0  0  0  0  0  0  0  0  0  0  0
   11.5417  -18.4739   26.5149 O   0  0  0  0  0  0  0  0  0  0  0  0
  2  1  1  0
  3  2  1  0
  3  4  1  1
  5  3  1  0
  5  6  1  6
  7  5  1  0
  7  8  2  0
  9  7  1  0
 10  9  1  0
 10 11  1  6
 12 11  1  0
 12 16  1  0
 13 14  1  0
 13 12  2  0
 14 15  1  0
 15 16  2  0
 17 10  1  0
 18 17  2  0
 19 17  1  0
 20 19  1  0
 20 21  1  1
 21 22  1  0
 22 26  1  0
 23 22  2  0
 23 24  1  0
 24 25  1  0
 26 25  2  0
 27 29  1  0
 27 20  1  0
 28 27  2  0
M  END
$$$$
