IHH.pdb
     RDKit          3D

 29 30  0  0  1  0  0  0  0  0999 V2000
    7.6847  -11.2274   19.0440 C   0  0  0  0  0  0  0  0  0  0  0  0
    8.0874  -12.2950   18.0533 C   0  0  0  0  0  0  0  0  0  0  0  0
    8.8493  -13.4209   18.7665 C   0  0  2  0  0  0  0  0  0  0  0  0
   10.0634  -12.7650   19.3881 C   0  0  0  0  0  0  0  0  0  0  0  0
    9.3376  -14.3764   17.7028 C   0  0  2  0  0  0  0  0  0  0  0  0
    8.2105  -14.8435   16.9224 N   0  0  0  0  0  0  0  0  0  0  0  0
   10.0046  -15.5714   18.3162 C   0  0  0  0  0  0  0  0  0  0  0  0
    9.3399  -16.5737   18.6856 O   0  0  0  0  0  0  0  0  0  0  0  0
   11.4109  -15.6260   18.5072 N   0  0  0  0  0  0  0  0  0  0  0  0
   12.1229  -16.8016   18.9665 C   0  0  1  0  0  0  0  0  0  0  0  0
   13.3040  -17.0460   18.0330 C   0  0  0  0  0  0  0  0  0  0  0  0
   12.8436  -17.5944   16.7437 C   0  0  0  0  0  0  0  0  0  0  0  0
   12.6859  -16.9299   15.5521 C   0  0  0  0  0  0  0  0  0  0  0  0
   12.2510  -17.8222   14.6603 N   0  0  0  0  0  0  0  0  0  0  0  0
   12.1291  -19.0204   15.2429 C   0  0  0  0  0  0  0  0  0  0  0  0
   12.4936  -18.8717   16.5168 N   0  0  0  0  0  0  0  0  0  0  0  0
   12.6094  -16.5251   20.3437 C   0  0  0  0  0  0  0  0  0  0  0  0
   13.2039  -15.4318   20.6342 O   0  0  0  0  0  0  0  0  0  0  0  0
   12.3898  -17.5224   21.3308 N   0  0  0  0  0  0  0  0  0  0  0  0
   12.7192  -17.2955   22.7159 C   0  0  1  0  0  0  0  0  0  0  0  0
   11.6142  -17.7296   23.6438 C   0  0  0  0  0  0  0  0  0  0  0  0
   10.3478  -17.0419   23.4141 C   0  0  0  0  0  0  0  0  0  0  0  0
   10.1969  -15.7040   23.1619 C   0  0  0  0  0  0  0  0  0  0  0  0
    8.8817  -15.4882   23.0132 N   0  0  0  0  0  0  0  0  0  0  0  0
    8.2281  -16.6508   23.1667 C   0  0  0  0  0  0  0  0  0  0  0  0
    9.1343  -17.5875   23.4103 N   0  0  0  0  0  0  0  0  0  0  0  0
   14.0141  -17.9015   23.0169 C   0  0  0  0  0  0  0  0  0  0  0  0
   14.6839  -18.5972   22.2072 O   0  0  0  0  0  0  0  0  0  0  0  0
   14.5789  -17.7216   24.2701 O   0  0  0  0  0  0  0  0  0  0  0  0
  2  1  1  0
  3  2  1  0
  3  4  1  6
  5  3  1  0
  5  6  1  1
  7  5  1  0
  7  8  2  0
  9  7  1  0
 10  9  1  0
 10 11  1  6
 12 11  1  0
 12 16  1  0
 13 14  1  0
 13 12  2  0
 14 15  1  0
 15 16  2  0
 17 10  1  0
 18 17  2  0
 19 17  1  0
 20 19  1  0
 20 21  1  1
 21 22  1  0
 22 26  1  0
 23 22  2  0
 23 24  1  0
 24 25  1  0
 26 25  2  0
 27 29  1  0
 27 20  1  0
 28 27  2  0
M  END
$$$$
