IHH.pdb
     RDKit          3D

 29 30  0  0  1  0  0  0  0  0999 V2000
    7.7300  -12.1981   18.0402 C   0  0  0  0  0  0  0  0  0  0  0  0
    7.8982  -13.5912   18.6012 C   0  0  0  0  0  0  0  0  0  0  0  0
    8.1124  -13.5296   20.1201 C   0  0  2  0  0  0  0  0  0  0  0  0
    9.4715  -12.8936   20.3173 C   0  0  0  0  0  0  0  0  0  0  0  0
    8.1945  -14.9531   20.6199 C   0  0  2  0  0  0  0  0  0  0  0  0
    6.9955  -15.6678   20.2340 N   0  0  0  0  0  0  0  0  0  0  0  0
    8.2983  -14.9945   22.1155 C   0  0  0  0  0  0  0  0  0  0  0  0
    7.9084  -14.0317   22.8253 O   0  0  0  0  0  0  0  0  0  0  0  0
    8.8392  -16.1177   22.7960 N   0  0  0  0  0  0  0  0  0  0  0  0
    9.2712  -16.0985   24.1791 C   0  0  1  0  0  0  0  0  0  0  0  0
    8.0636  -16.3837   25.0659 C   0  0  0  0  0  0  0  0  0  0  0  0
    7.3196  -15.1418   25.3474 C   0  0  0  0  0  0  0  0  0  0  0  0
    7.5275  -13.8940   24.8126 C   0  0  0  0  0  0  0  0  0  0  0  0
    6.6203  -13.0791   25.3548 N   0  0  0  0  0  0  0  0  0  0  0  0
    5.8509  -13.7642   26.2085 C   0  0  0  0  0  0  0  0  0  0  0  0
    6.2857  -15.0246   26.1976 N   0  0  0  0  0  0  0  0  0  0  0  0
   10.2920  -17.1659   24.3478 C   0  0  0  0  0  0  0  0  0  0  0  0
   10.3330  -18.1786   23.5695 O   0  0  0  0  0  0  0  0  0  0  0  0
   11.2249  -17.0211   25.4089 N   0  0  0  0  0  0  0  0  0  0  0  0
   10.9099  -17.4440   26.7507 C   0  0  1  0  0  0  0  0  0  0  0  0
    9.7028  -16.7324   27.3048 C   0  0  0  0  0  0  0  0  0  0  0  0
    9.9984  -15.4155   27.8595 C   0  0  0  0  0  0  0  0  0  0  0  0
   11.2135  -14.7843   27.8214 C   0  0  0  0  0  0  0  0  0  0  0  0
   11.0524  -13.6051   28.4393 N   0  0  0  0  0  0  0  0  0  0  0  0
    9.7791  -13.4985   28.8518 C   0  0  0  0  0  0  0  0  0  0  0  0
    9.1499  -14.6085   28.4914 N   0  0  0  0  0  0  0  0  0  0  0  0
   10.8069  -18.9007   26.7936 C   0  0  0  0  0  0  0  0  0  0  0  0
   11.4330  -19.6387   27.6010 O   0  0  0  0  0  0  0  0  0  0  0  0
    9.9726  -19.5542   25.9000 O   0  0  0  0  0  0  0  0  0  0  0  0
  2  1  1  0
  3  2  1  0
  3  4  1  6
  5  3  1  0
  5  6  1  1
  7  5  1  0
  7  8  2  0
  9  7  1  0
 10  9  1  0
 10 11  1  1
 12 11  1  0
 12 16  1  0
 13 14  1  0
 13 12  2  0
 14 15  1  0
 15 16  2  0
 17 10  1  0
 18 17  2  0
 19 17  1  0
 20 19  1  0
 20 21  1  6
 21 22  1  0
 22 26  1  0
 23 22  2  0
 23 24  1  0
 24 25  1  0
 26 25  2  0
 27 29  1  0
 27 20  1  0
 28 27  2  0
M  END
$$$$
