KVM.pdb
     RDKit          3D

 25 24  0  0  1  0  0  0  0  0999 V2000
   25.5748  -25.2910  -16.3237 N   0  0  0  0  0  0  0  0  0  0  0  0
   24.8366  -24.1345  -15.8676 C   0  0  1  0  0  0  0  0  0  0  0  0
   23.5509  -24.5475  -15.1476 C   0  0  0  0  0  0  0  0  0  0  0  0
   22.5603  -25.0615  -16.1396 C   0  0  0  0  0  0  0  0  0  0  0  0
   21.7652  -23.9639  -16.7605 C   0  0  0  0  0  0  0  0  0  0  0  0
   20.7281  -24.5100  -17.7121 C   0  0  0  0  0  0  0  0  0  0  0  0
   19.9688  -23.3644  -18.2358 N   0  0  0  0  0  0  0  0  0  0  0  0
   25.6787  -23.3348  -14.9471 C   0  0  0  0  0  0  0  0  0  0  0  0
   26.5379  -23.8949  -14.1920 O   0  0  0  0  0  0  0  0  0  0  0  0
   27.1438  -19.7253  -15.9496 C   0  0  0  0  0  0  0  0  0  0  0  0
   26.4220  -19.7664  -14.6504 C   0  0  2  0  0  0  0  0  0  0  0  0
   26.9668  -18.6979  -13.7263 C   0  0  0  0  0  0  0  0  0  0  0  0
   26.3468  -21.1076  -13.9870 C   0  0  2  0  0  0  0  0  0  0  0  0
   25.5356  -21.9382  -14.8985 N   0  0  0  0  0  0  0  0  0  0  0  0
   25.6866  -21.1135  -12.6699 C   0  0  0  0  0  0  0  0  0  0  0  0
   24.4509  -21.3253  -12.5711 O   0  0  0  0  0  0  0  0  0  0  0  0
   28.1027  -19.0301   -6.7055 C   0  0  0  0  0  0  0  0  0  0  0  0
   26.4698  -19.6957   -6.3949 S   0  0  0  0  0  0  0  0  0  0  0  0
   25.6383  -20.2782   -7.8624 C   0  0  0  0  0  0  0  0  0  0  0  0
   26.5596  -20.3304   -9.0833 C   0  0  0  0  0  0  0  0  0  0  0  0
   25.6640  -20.8294  -10.2243 C   0  0  2  0  0  0  0  0  0  0  0  0
   26.3987  -20.8853  -11.4647 N   0  0  0  0  0  0  0  0  0  0  0  0
   24.4752  -19.9783  -10.3838 C   0  0  0  0  0  0  0  0  0  0  0  0
   23.2861  -20.2301   -9.7220 O   0  0  0  0  0  0  0  0  0  0  0  0
   24.5301  -18.9857  -11.1443 O   0  0  0  0  0  0  0  0  0  0  0  0
  2  1  1  1
  3  2  1  0
  3  4  1  0
  4  5  1  0
  5  6  1  0
  7  6  1  0
  8  9  2  0
  8  2  1  0
 11 10  1  6
 11 13  1  0
 11 12  1  0
 13 14  1  6
 14  8  1  0
 15 22  1  0
 15 13  1  0
 16 15  2  0
 17 18  1  0
 18 19  1  0
 19 20  1  0
 21 20  1  1
 21 23  1  0
 21 22  1  0
 23 24  1  0
 25 23  2  0
M  END
$$$$
