KVM.pdb
     RDKit          3D

 25 24  0  0  1  0  0  0  0  0999 V2000
   26.0041  -19.3880  -16.4635 N   0  0  0  0  0  0  0  0  0  0  0  0
   26.5212  -20.1859  -15.3744 C   0  0  1  0  0  0  0  0  0  0  0  0
   28.0417  -20.0524  -15.2641 C   0  0  0  0  0  0  0  0  0  0  0  0
   28.6893  -20.6528  -16.4682 C   0  0  0  0  0  0  0  0  0  0  0  0
   28.6822  -22.1430  -16.4260 C   0  0  0  0  0  0  0  0  0  0  0  0
   29.5380  -22.7258  -17.5248 C   0  0  0  0  0  0  0  0  0  0  0  0
   29.6166  -24.1764  -17.2951 N   0  0  0  0  0  0  0  0  0  0  0  0
   25.8978  -19.7571  -14.1003 C   0  0  0  0  0  0  0  0  0  0  0  0
   25.7835  -18.5224  -13.8099 O   0  0  0  0  0  0  0  0  0  0  0  0
   22.5267  -20.3661  -13.2282 C   0  0  0  0  0  0  0  0  0  0  0  0
   23.3377  -20.9072  -12.1056 C   0  0  2  0  0  0  0  0  0  0  0  0
   22.5435  -20.8379  -10.8184 C   0  0  0  0  0  0  0  0  0  0  0  0
   24.7131  -20.3322  -11.9568 C   0  0  2  0  0  0  0  0  0  0  0  0
   25.4227  -20.7180  -13.1922 N   0  0  0  0  0  0  0  0  0  0  0  0
   25.4852  -20.8546  -10.8159 C   0  0  0  0  0  0  0  0  0  0  0  0
   25.7725  -22.0767  -10.7397 O   0  0  0  0  0  0  0  0  0  0  0  0
   28.1063  -18.2590   -4.5107 C   0  0  0  0  0  0  0  0  0  0  0  0
   28.9596  -19.4316   -5.5609 S   0  0  0  0  0  0  0  0  0  0  0  0
   27.8718  -20.3984   -6.5933 C   0  0  0  0  0  0  0  0  0  0  0  0
   27.3741  -19.6247   -7.8164 C   0  0  0  0  0  0  0  0  0  0  0  0
   26.5164  -20.6332   -8.5910 C   0  0  2  0  0  0  0  0  0  0  0  0
   25.9379  -20.0203   -9.7621 N   0  0  0  0  0  0  0  0  0  0  0  0
   25.4544  -21.1960   -7.7435 C   0  0  0  0  0  0  0  0  0  0  0  0
   25.6694  -22.2690   -6.8963 O   0  0  0  0  0  0  0  0  0  0  0  0
   24.3089  -20.6931   -7.7819 O   0  0  0  0  0  0  0  0  0  0  0  0
  2  1  1  6
  3  2  1  0
  3  4  1  0
  4  5  1  0
  5  6  1  0
  7  6  1  0
  8  9  2  0
  8  2  1  0
 11 10  1  6
 11 13  1  0
 11 12  1  0
 13 14  1  6
 14  8  1  0
 15 22  1  0
 15 13  1  0
 16 15  2  0
 17 18  1  0
 18 19  1  0
 19 20  1  0
 21 20  1  1
 21 23  1  0
 21 22  1  0
 23 24  1  0
 25 23  2  0
M  END
$$$$
