KVM.pdb
     RDKit          3D

 25 24  0  0  1  0  0  0  0  0999 V2000
   28.2125  -21.3805  -17.8453 N   0  0  0  0  0  0  0  0  0  0  0  0
   27.9303  -22.0005  -16.5701 C   0  0  1  0  0  0  0  0  0  0  0  0
   29.2155  -22.4792  -15.8911 C   0  0  0  0  0  0  0  0  0  0  0  0
   29.7449  -23.6800  -16.6035 C   0  0  0  0  0  0  0  0  0  0  0  0
   29.0640  -24.9344  -16.1731 C   0  0  0  0  0  0  0  0  0  0  0  0
   29.6388  -26.1391  -16.8786 C   0  0  0  0  0  0  0  0  0  0  0  0
   28.9202  -27.3218  -16.3806 N   0  0  0  0  0  0  0  0  0  0  0  0
   27.2397  -21.0327  -15.6855 C   0  0  0  0  0  0  0  0  0  0  0  0
   27.6650  -19.8386  -15.5624 O   0  0  0  0  0  0  0  0  0  0  0  0
   23.9062  -19.6768  -15.9106 C   0  0  0  0  0  0  0  0  0  0  0  0
   24.0186  -20.3765  -14.6036 C   0  0  2  0  0  0  0  0  0  0  0  0
   23.0552  -19.7642  -13.6089 C   0  0  0  0  0  0  0  0  0  0  0  0
   25.4041  -20.5048  -14.0482 C   0  0  2  0  0  0  0  0  0  0  0  0
   26.0987  -21.4275  -14.9674 N   0  0  0  0  0  0  0  0  0  0  0  0
   25.4803  -21.0808  -12.6943 C   0  0  0  0  0  0  0  0  0  0  0  0
   25.0930  -22.2567  -12.4732 O   0  0  0  0  0  0  0  0  0  0  0  0
   28.5339  -18.7886   -7.1186 C   0  0  0  0  0  0  0  0  0  0  0  0
   27.4956  -20.1550   -6.6077 S   0  0  0  0  0  0  0  0  0  0  0  0
   26.5569  -20.8833   -7.9391 C   0  0  0  0  0  0  0  0  0  0  0  0
   26.7303  -20.1360   -9.2634 C   0  0  0  0  0  0  0  0  0  0  0  0
   25.8935  -20.9336  -10.2715 C   0  0  2  0  0  0  0  0  0  0  0  0
   25.9869  -20.3515  -11.5884 N   0  0  0  0  0  0  0  0  0  0  0  0
   24.4847  -21.0108   -9.8564 C   0  0  0  0  0  0  0  0  0  0  0  0
   23.5322  -20.1031  -10.2855 O   0  0  0  0  0  0  0  0  0  0  0  0
   24.1225  -21.9285   -9.0861 O   0  0  0  0  0  0  0  0  0  0  0  0
  2  1  1  6
  3  2  1  0
  3  4  1  0
  4  5  1  0
  5  6  1  0
  7  6  1  0
  8  9  2  0
  8  2  1  0
 11 10  1  6
 11 13  1  0
 11 12  1  0
 13 14  1  6
 14  8  1  0
 15 22  1  0
 15 13  1  0
 16 15  2  0
 17 18  1  0
 18 19  1  0
 19 20  1  0
 21 20  1  1
 21 23  1  0
 21 22  1  0
 23 24  1  0
 25 23  2  0
M  END
$$$$
