KVM.pdb
     RDKit          3D

 25 24  0  0  1  0  0  0  0  0999 V2000
   20.6669  -20.9875  -13.3538 N   0  0  0  0  0  0  0  0  0  0  0  0
   21.9783  -21.0807  -13.9553 C   0  0  1  0  0  0  0  0  0  0  0  0
   21.9899  -20.4630  -15.3554 C   0  0  0  0  0  0  0  0  0  0  0  0
   21.1541  -21.2882  -16.2775 C   0  0  0  0  0  0  0  0  0  0  0  0
   19.7006  -21.1846  -15.9630 C   0  0  0  0  0  0  0  0  0  0  0  0
   18.8695  -21.9662  -16.9518 C   0  0  0  0  0  0  0  0  0  0  0  0
   17.4836  -21.9606  -16.4593 N   0  0  0  0  0  0  0  0  0  0  0  0
   22.9700  -20.3830  -13.1035 C   0  0  0  0  0  0  0  0  0  0  0  0
   22.7415  -19.2126  -12.6564 O   0  0  0  0  0  0  0  0  0  0  0  0
   25.5823  -20.3484   -9.3718 C   0  0  0  0  0  0  0  0  0  0  0  0
   24.8310  -20.9376  -10.5114 C   0  0  2  0  0  0  0  0  0  0  0  0
   24.9299  -22.4478  -10.4658 C   0  0  0  0  0  0  0  0  0  0  0  0
   25.1599  -20.3869  -11.8653 C   0  0  2  0  0  0  0  0  0  0  0  0
   24.1831  -21.0123  -12.7783 N   0  0  0  0  0  0  0  0  0  0  0  0
   26.5083  -20.7160  -12.3595 C   0  0  0  0  0  0  0  0  0  0  0  0
   26.8158  -21.9009  -12.6480 O   0  0  0  0  0  0  0  0  0  0  0  0
   31.3510  -21.9656   -9.4208 C   0  0  0  0  0  0  0  0  0  0  0  0
   31.8515  -22.2315  -11.1192 S   0  0  0  0  0  0  0  0  0  0  0  0
   30.8792  -21.3222  -12.3074 C   0  0  0  0  0  0  0  0  0  0  0  0
   29.4625  -21.0257  -11.8100 C   0  0  0  0  0  0  0  0  0  0  0  0
   28.8415  -20.1508  -12.9062 C   0  0  2  0  0  0  0  0  0  0  0  0
   27.5127  -19.7299  -12.5337 N   0  0  0  0  0  0  0  0  0  0  0  0
   28.8008  -20.8562  -14.1960 C   0  0  0  0  0  0  0  0  0  0  0  0
   29.4122  -20.3605  -15.3343 O   0  0  0  0  0  0  0  0  0  0  0  0
   28.1929  -21.9472  -14.2786 O   0  0  0  0  0  0  0  0  0  0  0  0
  2  1  1  1
  3  2  1  0
  3  4  1  0
  4  5  1  0
  5  6  1  0
  7  6  1  0
  8  9  2  0
  8  2  1  0
 11 10  1  1
 11 13  1  0
 11 12  1  0
 13 14  1  6
 14  8  1  0
 15 22  1  0
 15 13  1  0
 16 15  2  0
 17 18  1  0
 18 19  1  0
 19 20  1  0
 21 20  1  1
 21 23  1  0
 21 22  1  0
 23 24  1  0
 25 23  2  0
M  END
$$$$
