KVM.pdb
     RDKit          3D

 25 24  0  0  1  0  0  0  0  0999 V2000
   26.3406  -23.6518  -16.0915 N   0  0  0  0  0  0  0  0  0  0  0  0
   27.6343  -23.2295  -15.6034 C   0  0  1  0  0  0  0  0  0  0  0  0
   28.6621  -23.1749  -16.7358 C   0  0  0  0  0  0  0  0  0  0  0  0
   28.6696  -24.4734  -17.4731 C   0  0  0  0  0  0  0  0  0  0  0  0
   29.0945  -25.6094  -16.6064 C   0  0  0  0  0  0  0  0  0  0  0  0
   29.2093  -26.8893  -17.3988 C   0  0  0  0  0  0  0  0  0  0  0  0
   29.7464  -27.9172  -16.4942 N   0  0  0  0  0  0  0  0  0  0  0  0
   27.5205  -21.8902  -14.9795 C   0  0  0  0  0  0  0  0  0  0  0  0
   28.3816  -20.9821  -15.2161 O   0  0  0  0  0  0  0  0  0  0  0  0
   25.0622  -19.7694  -16.0085 C   0  0  0  0  0  0  0  0  0  0  0  0
   24.8668  -19.9136  -14.5417 C   0  0  2  0  0  0  0  0  0  0  0  0
   24.1200  -18.7119  -14.0025 C   0  0  0  0  0  0  0  0  0  0  0  0
   26.0980  -20.2220  -13.7457 C   0  0  2  0  0  0  0  0  0  0  0  0
   26.4517  -21.6072  -14.1130 N   0  0  0  0  0  0  0  0  0  0  0  0
   25.9203  -20.1786  -12.2838 C   0  0  0  0  0  0  0  0  0  0  0  0
   25.7882  -19.0807  -11.6846 O   0  0  0  0  0  0  0  0  0  0  0  0
   29.2950  -20.0838   -6.9340 C   0  0  0  0  0  0  0  0  0  0  0  0
   27.6764  -19.3259   -7.0409 S   0  0  0  0  0  0  0  0  0  0  0  0
   26.4905  -20.2873   -7.9647 C   0  0  0  0  0  0  0  0  0  0  0  0
   26.7591  -20.2695   -9.4713 C   0  0  0  0  0  0  0  0  0  0  0  0
   25.7127  -21.2221  -10.0634 C   0  0  2  0  0  0  0  0  0  0  0  0
   25.8885  -21.3531  -11.4894 N   0  0  0  0  0  0  0  0  0  0  0  0
   24.3457  -20.7679   -9.7664 C   0  0  0  0  0  0  0  0  0  0  0  0
   23.7087  -21.0579   -8.5725 O   0  0  0  0  0  0  0  0  0  0  0  0
   23.7259  -20.0927  -10.6187 O   0  0  0  0  0  0  0  0  0  0  0  0
  2  1  1  6
  3  2  1  0
  3  4  1  0
  4  5  1  0
  5  6  1  0
  7  6  1  0
  8  9  2  0
  8  2  1  0
 11 10  1  6
 11 13  1  0
 11 12  1  0
 13 14  1  6
 14  8  1  0
 15 22  1  0
 15 13  1  0
 16 15  2  0
 17 18  1  0
 18 19  1  0
 19 20  1  0
 21 20  1  6
 21 23  1  0
 21 22  1  0
 23 24  1  0
 25 23  2  0
M  END
$$$$
