KVM.pdb
     RDKit          3D

 25 24  0  0  1  0  0  0  0  0999 V2000
   22.6680  -15.9039  -16.5429 N   0  0  0  0  0  0  0  0  0  0  0  0
   22.5792  -14.6360  -17.2319 C   0  0  1  0  0  0  0  0  0  0  0  0
   21.1886  -14.4313  -17.8370 C   0  0  0  0  0  0  0  0  0  0  0  0
   20.9346  -15.4695  -18.8798 C   0  0  0  0  0  0  0  0  0  0  0  0
   19.9849  -16.5179  -18.4096 C   0  0  0  0  0  0  0  0  0  0  0  0
   19.6314  -17.4751  -19.5224 C   0  0  0  0  0  0  0  0  0  0  0  0
   18.7786  -18.5239  -18.9427 N   0  0  0  0  0  0  0  0  0  0  0  0
   22.8700  -13.5320  -16.2872 C   0  0  0  0  0  0  0  0  0  0  0  0
   22.3885  -13.5349  -15.1081 O   0  0  0  0  0  0  0  0  0  0  0  0
   26.3249  -12.3379  -15.3785 C   0  0  0  0  0  0  0  0  0  0  0  0
   25.5106  -11.2005  -15.8821 C   0  0  2  0  0  0  0  0  0  0  0  0
   26.0001   -9.9065  -15.2670 C   0  0  0  0  0  0  0  0  0  0  0  0
   24.0252  -11.3587  -15.7667 C   0  0  2  0  0  0  0  0  0  0  0  0
   23.6872  -12.4617  -16.6874 N   0  0  0  0  0  0  0  0  0  0  0  0
   23.2409  -10.1799  -16.1740 C   0  0  0  0  0  0  0  0  0  0  0  0
   23.2194   -9.8056  -17.3745 O   0  0  0  0  0  0  0  0  0  0  0  0
   17.5289   -9.3183  -17.4687 C   0  0  0  0  0  0  0  0  0  0  0  0
   17.9506   -7.6224  -17.0788 S   0  0  0  0  0  0  0  0  0  0  0  0
   19.6557   -7.3950  -16.6045 C   0  0  0  0  0  0  0  0  0  0  0  0
   20.2800   -8.6618  -16.0147 C   0  0  0  0  0  0  0  0  0  0  0  0
   21.7384   -8.2802  -15.7316 C   0  0  2  0  0  0  0  0  0  0  0  0
   22.4812   -9.4191  -15.2491 N   0  0  0  0  0  0  0  0  0  0  0  0
   21.8253   -7.1778  -14.7620 C   0  0  0  0  0  0  0  0  0  0  0  0
   21.5702   -5.8621  -15.1071 O   0  0  0  0  0  0  0  0  0  0  0  0
   22.1410   -7.4278  -13.5769 O   0  0  0  0  0  0  0  0  0  0  0  0
  2  1  1  1
  3  2  1  0
  3  4  1  0
  4  5  1  0
  5  6  1  0
  7  6  1  0
  8  9  2  0
  8  2  1  0
 11 10  1  1
 11 13  1  0
 11 12  1  0
 13 14  1  6
 14  8  1  0
 15 22  1  0
 15 13  1  0
 16 15  2  0
 17 18  1  0
 18 19  1  0
 19 20  1  0
 21 20  1  1
 21 23  1  0
 21 22  1  0
 23 24  1  0
 25 23  2  0
M  END
$$$$
