KVM.pdb
     RDKit          3D

 25 24  0  0  1  0  0  0  0  0999 V2000
   24.3477  -21.4109  -16.4774 N   0  0  0  0  0  0  0  0  0  0  0  0
   23.7992  -20.5821  -15.4274 C   0  0  1  0  0  0  0  0  0  0  0  0
   22.2752  -20.4922  -15.5327 C   0  0  0  0  0  0  0  0  0  0  0  0
   21.8535  -20.7145  -16.9478 C   0  0  0  0  0  0  0  0  0  0  0  0
   20.3725  -20.6560  -17.1087 C   0  0  0  0  0  0  0  0  0  0  0  0
   19.9758  -20.7513  -18.5623 C   0  0  0  0  0  0  0  0  0  0  0  0
   18.5118  -20.6244  -18.6253 N   0  0  0  0  0  0  0  0  0  0  0  0
   24.1672  -21.1411  -14.1053 C   0  0  0  0  0  0  0  0  0  0  0  0
   23.9991  -22.3768  -13.8468 O   0  0  0  0  0  0  0  0  0  0  0  0
   27.5020  -20.9404  -12.5732 C   0  0  0  0  0  0  0  0  0  0  0  0
   26.5197  -20.3855  -11.6049 C   0  0  2  0  0  0  0  0  0  0  0  0
   27.0106  -20.6094  -10.1902 C   0  0  0  0  0  0  0  0  0  0  0  0
   25.0996  -20.8254  -11.7902 C   0  0  2  0  0  0  0  0  0  0  0  0
   24.7098  -20.3050  -13.1154 N   0  0  0  0  0  0  0  0  0  0  0  0
   24.1484  -20.2885  -10.8015 C   0  0  0  0  0  0  0  0  0  0  0  0
   23.5391  -19.2094  -11.0157 O   0  0  0  0  0  0  0  0  0  0  0  0
   19.1232  -22.7520  -11.3109 C   0  0  0  0  0  0  0  0  0  0  0  0
   18.7422  -21.7697   -9.8631 S   0  0  0  0  0  0  0  0  0  0  0  0
   20.1756  -21.0413   -9.0892 C   0  0  0  0  0  0  0  0  0  0  0  0
   21.4672  -21.3084   -9.8656 C   0  0  0  0  0  0  0  0  0  0  0  0
   22.5820  -20.7655   -8.9627 C   0  0  2  0  0  0  0  0  0  0  0  0
   23.8742  -20.9503   -9.5774 N   0  0  0  0  0  0  0  0  0  0  0  0
   22.5601  -21.4070   -7.6395 C   0  0  0  0  0  0  0  0  0  0  0  0
   21.6782  -21.0265   -6.6431 O   0  0  0  0  0  0  0  0  0  0  0  0
   23.3651  -22.3336   -7.3945 O   0  0  0  0  0  0  0  0  0  0  0  0
  2  1  1  6
  3  2  1  0
  3  4  1  0
  4  5  1  0
  5  6  1  0
  7  6  1  0
  8  9  2  0
  8  2  1  0
 11 10  1  6
 11 13  1  0
 11 12  1  0
 13 14  1  6
 14  8  1  0
 15 22  1  0
 15 13  1  0
 16 15  2  0
 17 18  1  0
 18 19  1  0
 19 20  1  0
 21 20  1  6
 21 23  1  0
 21 22  1  0
 23 24  1  0
 25 23  2  0
M  END
$$$$
