KVM.pdb
     RDKit          3D

 25 24  0  0  1  0  0  0  0  0999 V2000
   15.7136  -24.1668   -2.9046 N   0  0  0  0  0  0  0  0  0  0  0  0
   14.7824  -23.6903   -1.9065 C   0  0  1  0  0  0  0  0  0  0  0  0
   13.6561  -24.6999   -1.6739 C   0  0  0  0  0  0  0  0  0  0  0  0
   12.8581  -24.8622   -2.9256 C   0  0  0  0  0  0  0  0  0  0  0  0
   11.9684  -23.6936   -3.1805 C   0  0  0  0  0  0  0  0  0  0  0  0
   11.0410  -23.9549   -4.3428 C   0  0  0  0  0  0  0  0  0  0  0  0
   10.0803  -22.8424   -4.3946 N   0  0  0  0  0  0  0  0  0  0  0  0
   15.4967  -23.4502   -0.6305 C   0  0  0  0  0  0  0  0  0  0  0  0
   16.4474  -24.2116   -0.2586 O   0  0  0  0  0  0  0  0  0  0  0  0
   17.3442  -20.2610    0.3417 C   0  0  0  0  0  0  0  0  0  0  0  0
   16.2209  -20.5771    1.2629 C   0  0  2  0  0  0  0  0  0  0  0  0
   16.4473  -19.9022    2.5993 C   0  0  0  0  0  0  0  0  0  0  0  0
   15.8848  -22.0297    1.4092 C   0  0  2  0  0  0  0  0  0  0  0  0
   15.1279  -22.3701    0.1886 N   0  0  0  0  0  0  0  0  0  0  0  0
   15.0360  -22.3579    2.5679 C   0  0  0  0  0  0  0  0  0  0  0  0
   13.7830  -22.2835    2.4885 O   0  0  0  0  0  0  0  0  0  0  0  0
   15.2276  -26.9175    7.5542 C   0  0  0  0  0  0  0  0  0  0  0  0
   14.6941  -25.3501    8.2358 S   0  0  0  0  0  0  0  0  0  0  0  0
   14.2262  -24.1497    7.0013 C   0  0  0  0  0  0  0  0  0  0  0  0
   15.3324  -23.8944    5.9748 C   0  0  0  0  0  0  0  0  0  0  0  0
   14.6829  -22.9876    4.9218 C   0  0  2  0  0  0  0  0  0  0  0  0
   15.5787  -22.7688    3.8121 N   0  0  0  0  0  0  0  0  0  0  0  0
   14.2785  -21.6978    5.5014 C   0  0  0  0  0  0  0  0  0  0  0  0
   12.9744  -21.4280    5.8779 O   0  0  0  0  0  0  0  0  0  0  0  0
   15.1384  -20.8031    5.6649 O   0  0  0  0  0  0  0  0  0  0  0  0
  2  1  1  6
  3  2  1  0
  3  4  1  0
  4  5  1  0
  5  6  1  0
  7  6  1  0
  8  9  2  0
  8  2  1  0
 11 10  1  6
 11 13  1  0
 11 12  1  0
 13 14  1  6
 14  8  1  0
 15 22  1  0
 15 13  1  0
 16 15  2  0
 17 18  1  0
 18 19  1  0
 19 20  1  0
 21 20  1  1
 21 23  1  0
 21 22  1  0
 23 24  1  0
 25 23  2  0
M  END
$$$$
