WCW.pdb
     RDKit          3D

 35 38  0  0  1  0  0  0  0  0999 V2000
    9.4106  -20.4574   27.1020 N   0  0  0  0  0  0  0  0  0  0  0  0
    9.4328  -19.3211   26.1501 C   0  0  1  0  0  0  0  0  0  0  0  0
   10.7848  -18.6997   26.2256 C   0  0  0  0  0  0  0  0  0  0  0  0
   11.1012  -18.0657   27.5139 C   0  0  0  0  0  0  0  0  0  0  0  0
   11.2579  -18.6785   28.7447 C   0  0  0  0  0  0  0  0  0  0  0  0
   11.6131  -17.7892   29.6779 N   0  0  0  0  0  0  0  0  0  0  0  0
   11.6930  -16.5838   29.0759 C   0  0  0  0  0  0  0  0  0  0  0  0
   12.0203  -15.3473   29.6116 C   0  0  0  0  0  0  0  0  0  0  0  0
   12.0328  -14.2252   28.8142 C   0  0  0  0  0  0  0  0  0  0  0  0
   11.7150  -14.3705   27.4792 C   0  0  0  0  0  0  0  0  0  0  0  0
   11.3983  -15.6008   26.9722 C   0  0  0  0  0  0  0  0  0  0  0  0
   11.3755  -16.7494   27.7365 C   0  0  0  0  0  0  0  0  0  0  0  0
    8.8978  -19.7181   24.8551 C   0  0  0  0  0  0  0  0  0  0  0  0
    9.5369  -20.5867   24.1857 O   0  0  0  0  0  0  0  0  0  0  0  0
    7.7178  -19.2049   24.2757 N   0  0  0  0  0  0  0  0  0  0  0  0
    7.4718  -18.6895   22.9824 C   0  0  1  0  0  0  0  0  0  0  0  0
    6.0308  -18.6037   22.5245 C   0  0  0  0  0  0  0  0  0  0  0  0
    4.9735  -18.3867   23.9522 S   0  0  0  0  0  0  0  0  0  0  0  0
    8.2377  -17.4777   22.6591 C   0  0  0  0  0  0  0  0  0  0  0  0
    8.4486  -17.1809   21.4263 O   0  0  0  0  0  0  0  0  0  0  0  0
    8.7998  -16.5580   23.5771 N   0  0  0  0  0  0  0  0  0  0  0  0
    9.5607  -15.4049   23.2460 C   0  0  1  0  0  0  0  0  0  0  0  0
    8.8635  -14.1026   23.1276 C   0  0  0  0  0  0  0  0  0  0  0  0
    7.4747  -14.1975   23.6241 C   0  0  0  0  0  0  0  0  0  0  0  0
    6.7814  -15.3588   23.8541 C   0  0  0  0  0  0  0  0  0  0  0  0
    5.5312  -15.0363   24.2938 N   0  0  0  0  0  0  0  0  0  0  0  0
    5.4527  -13.6838   24.3351 C   0  0  0  0  0  0  0  0  0  0  0  0
    4.4223  -12.8445   24.7032 C   0  0  0  0  0  0  0  0  0  0  0  0
    4.5835  -11.4701   24.6622 C   0  0  0  0  0  0  0  0  0  0  0  0
    5.7694  -10.8973   24.2541 C   0  0  0  0  0  0  0  0  0  0  0  0
    6.7933  -11.7508   23.8869 C   0  0  0  0  0  0  0  0  0  0  0  0
    6.6391  -13.1183   23.9258 C   0  0  0  0  0  0  0  0  0  0  0  0
   10.7681  -15.3708   24.1278 C   0  0  0  0  0  0  0  0  0  0  0  0
   11.7136  -14.5693   23.9529 O   0  0  0  0  0  0  0  0  0  0  0  0
   10.8426  -16.2599   25.1720 O   0  0  0  0  0  0  0  0  0  0  0  0
  2  3  1  0
  2  1  1  1
  4  3  1  0
  5  4  2  0
  6  7  1  0
  6  5  1  0
  7 12  2  0
  8  7  1  0
  8  9  2  0
  9 10  1  0
 10 11  2  0
 12  4  1  0
 12 11  1  0
 13  2  1  0
 13 15  1  0
 14 13  2  0
 16 15  1  0
 16 17  1  1
 17 18  1  0
 19 20  2  0
 19 16  1  0
 21 19  1  0
 22 21  1  0
 22 33  1  0
 22 23  1  1
 24 23  1  0
 25 24  2  0
 26 27  1  0
 26 25  1  0
 27 32  2  0
 28 29  2  0
 28 27  1  0
 29 30  1  0
 30 31  2  0
 32 24  1  0
 32 31  1  0
 33 35  1  0
 34 33  2  0
M  END
$$$$
