WCW.pdb
     RDKit          3D

 35 38  0  0  1  0  0  0  0  0999 V2000
    8.9808  -17.7834   19.6121 N   0  0  0  0  0  0  0  0  0  0  0  0
    8.9156  -17.0624   20.9058 C   0  0  1  0  0  0  0  0  0  0  0  0
    7.5418  -16.5008   21.0369 C   0  0  0  0  0  0  0  0  0  0  0  0
    7.2054  -15.4584   20.0560 C   0  0  0  0  0  0  0  0  0  0  0  0
    6.2228  -15.4957   19.0823 C   0  0  0  0  0  0  0  0  0  0  0  0
    6.1624  -14.3348   18.4216 N   0  0  0  0  0  0  0  0  0  0  0  0
    7.1020  -13.5219   18.9490 C   0  0  0  0  0  0  0  0  0  0  0  0
    7.4367  -12.2197   18.6098 C   0  0  0  0  0  0  0  0  0  0  0  0
    8.4484  -11.5655   19.2758 C   0  0  0  0  0  0  0  0  0  0  0  0
    9.1089  -12.2401   20.2824 C   0  0  0  0  0  0  0  0  0  0  0  0
    8.7594  -13.5234   20.6018 C   0  0  0  0  0  0  0  0  0  0  0  0
    7.7515  -14.2134   19.9600 C   0  0  0  0  0  0  0  0  0  0  0  0
    9.4627  -17.8765   21.9822 C   0  0  0  0  0  0  0  0  0  0  0  0
    9.2369  -19.1254   21.9605 O   0  0  0  0  0  0  0  0  0  0  0  0
   10.2258  -17.3831   23.0618 N   0  0  0  0  0  0  0  0  0  0  0  0
   10.8284  -18.0542   24.1505 C   0  0  1  0  0  0  0  0  0  0  0  0
   11.9082  -19.0689   23.8376 C   0  0  0  0  0  0  0  0  0  0  0  0
   12.5784  -19.7041   25.3709 S   0  0  0  0  0  0  0  0  0  0  0  0
   11.1877  -17.1796   25.2755 C   0  0  0  0  0  0  0  0  0  0  0  0
   12.1471  -16.3365   25.1312 O   0  0  0  0  0  0  0  0  0  0  0  0
   10.5842  -17.1515   26.5560 N   0  0  0  0  0  0  0  0  0  0  0  0
   10.9336  -16.2856   27.6266 C   0  0  1  0  0  0  0  0  0  0  0  0
   10.3346  -14.9308   27.6700 C   0  0  0  0  0  0  0  0  0  0  0  0
    8.9042  -14.9713   27.3005 C   0  0  0  0  0  0  0  0  0  0  0  0
    8.1400  -16.1032   27.1696 C   0  0  0  0  0  0  0  0  0  0  0  0
    6.8785  -15.7337   26.8059 N   0  0  0  0  0  0  0  0  0  0  0  0
    6.8635  -14.3816   26.7127 C   0  0  0  0  0  0  0  0  0  0  0  0
    5.8513  -13.5051   26.3825 C   0  0  0  0  0  0  0  0  0  0  0  0
    6.0816  -12.1401   26.3554 C   0  0  0  0  0  0  0  0  0  0  0  0
    7.3207  -11.6141   26.6540 C   0  0  0  0  0  0  0  0  0  0  0  0
    8.3261  -12.5048   26.9821 C   0  0  0  0  0  0  0  0  0  0  0  0
    8.1032  -13.8629   27.0108 C   0  0  0  0  0  0  0  0  0  0  0  0
   10.8072  -17.0481   28.9068 C   0  0  0  0  0  0  0  0  0  0  0  0
   11.0796  -16.5506   30.0227 O   0  0  0  0  0  0  0  0  0  0  0  0
   10.3768  -18.3514   28.8537 O   0  0  0  0  0  0  0  0  0  0  0  0
  2  3  1  0
  2  1  1  6
  4  3  1  0
  5  4  2  0
  6  7  1  0
  6  5  1  0
  7 12  2  0
  8  7  1  0
  8  9  2  0
  9 10  1  0
 10 11  2  0
 12  4  1  0
 12 11  1  0
 13  2  1  0
 13 15  1  0
 14 13  2  0
 16 15  1  0
 16 17  1  6
 17 18  1  0
 19 20  2  0
 19 16  1  0
 21 19  1  0
 22 21  1  0
 22 33  1  0
 22 23  1  1
 24 23  1  0
 25 24  2  0
 26 27  1  0
 26 25  1  0
 27 32  2  0
 28 29  2  0
 28 27  1  0
 29 30  1  0
 30 31  2  0
 32 24  1  0
 32 31  1  0
 33 35  1  0
 34 33  2  0
M  END
$$$$
