WCW.pdb
     RDKit          3D

 35 38  0  0  1  0  0  0  0  0999 V2000
    8.5655  -17.1165   21.1309 N   0  0  0  0  0  0  0  0  0  0  0  0
    7.3046  -16.5774   21.6943 C   0  0  1  0  0  0  0  0  0  0  0  0
    6.2842  -16.5975   20.6088 C   0  0  0  0  0  0  0  0  0  0  0  0
    6.5672  -15.6994   19.4795 C   0  0  0  0  0  0  0  0  0  0  0  0
    6.1046  -15.8004   18.1792 C   0  0  0  0  0  0  0  0  0  0  0  0
    6.5142  -14.7602   17.4457 N   0  0  0  0  0  0  0  0  0  0  0  0
    7.2502  -13.9649   18.2504 C   0  0  0  0  0  0  0  0  0  0  0  0
    7.8955  -12.7713   17.9643 C   0  0  0  0  0  0  0  0  0  0  0  0
    8.6117  -12.1164   18.9407 C   0  0  0  0  0  0  0  0  0  0  0  0
    8.6632  -12.6793   20.1996 C   0  0  0  0  0  0  0  0  0  0  0  0
    8.0161  -13.8561   20.4595 C   0  0  0  0  0  0  0  0  0  0  0  0
    7.2874  -14.5428   19.5101 C   0  0  0  0  0  0  0  0  0  0  0  0
    7.0006  -17.1996   22.9754 C   0  0  0  0  0  0  0  0  0  0  0  0
    6.5874  -18.3997   22.9734 O   0  0  0  0  0  0  0  0  0  0  0  0
    7.1231  -16.5673   24.2310 N   0  0  0  0  0  0  0  0  0  0  0  0
    7.7713  -15.3669   24.6019 C   0  0  1  0  0  0  0  0  0  0  0  0
    7.1620  -14.5609   25.7300 C   0  0  0  0  0  0  0  0  0  0  0  0
    5.5343  -15.2070   26.1000 S   0  0  0  0  0  0  0  0  0  0  0  0
    9.2321  -15.4793   24.7163 C   0  0  0  0  0  0  0  0  0  0  0  0
    9.9463  -14.4111   24.6870 O   0  0  0  0  0  0  0  0  0  0  0  0
    9.9838  -16.6708   24.8575 N   0  0  0  0  0  0  0  0  0  0  0  0
   11.3977  -16.7604   24.9623 C   0  0  1  0  0  0  0  0  0  0  0  0
   12.0858  -15.9606   26.0031 C   0  0  0  0  0  0  0  0  0  0  0  0
   11.4421  -16.1396   27.3214 C   0  0  0  0  0  0  0  0  0  0  0  0
   11.3007  -17.3284   27.9915 C   0  0  0  0  0  0  0  0  0  0  0  0
   10.6461  -17.0889   29.1638 N   0  0  0  0  0  0  0  0  0  0  0  0
   10.3846  -15.7600   29.2175 C   0  0  0  0  0  0  0  0  0  0  0  0
    9.7501  -14.9970   30.1751 C   0  0  0  0  0  0  0  0  0  0  0  0
    9.6010  -13.6313   30.0036 C   0  0  0  0  0  0  0  0  0  0  0  0
   10.0767  -12.9920   28.8784 C   0  0  0  0  0  0  0  0  0  0  0  0
   10.7096  -13.7696   27.9263 C   0  0  0  0  0  0  0  0  0  0  0  0
   10.8610  -15.1280   28.0913 C   0  0  0  0  0  0  0  0  0  0  0  0
   11.7777  -18.2067   24.9561 C   0  0  0  0  0  0  0  0  0  0  0  0
   10.9328  -19.1303   24.9480 O   0  0  0  0  0  0  0  0  0  0  0  0
   13.1117  -18.5340   24.9629 O   0  0  0  0  0  0  0  0  0  0  0  0
  2  3  1  0
  2  1  1  6
  4  3  1  0
  5  4  2  0
  6  7  1  0
  6  5  1  0
  7 12  2  0
  8  7  1  0
  8  9  2  0
  9 10  1  0
 10 11  2  0
 12  4  1  0
 12 11  1  0
 13  2  1  0
 13 15  1  0
 14 13  2  0
 16 15  1  0
 16 17  1  1
 17 18  1  0
 19 20  2  0
 19 16  1  0
 21 19  1  0
 22 21  1  0
 22 33  1  0
 22 23  1  1
 24 23  1  0
 25 24  2  0
 26 27  1  0
 26 25  1  0
 27 32  2  0
 28 29  2  0
 28 27  1  0
 29 30  1  0
 30 31  2  0
 32 24  1  0
 32 31  1  0
 33 35  1  0
 34 33  2  0
M  END
$$$$
