WCW.pdb
     RDKit          3D

 35 38  0  0  1  0  0  0  0  0999 V2000
    8.7442  -17.5808   20.4860 N   0  0  0  0  0  0  0  0  0  0  0  0
    9.0077  -16.7239   21.6668 C   0  0  1  0  0  0  0  0  0  0  0  0
    7.7406  -16.0123   21.9955 C   0  0  0  0  0  0  0  0  0  0  0  0
    7.2060  -15.1729   20.9131 C   0  0  0  0  0  0  0  0  0  0  0  0
    5.9254  -15.1796   20.3886 C   0  0  0  0  0  0  0  0  0  0  0  0
    5.7852  -14.2261   19.4617 N   0  0  0  0  0  0  0  0  0  0  0  0
    6.9678  -13.5829   19.3636 C   0  0  0  0  0  0  0  0  0  0  0  0
    7.3339  -12.5243   18.5461 C   0  0  0  0  0  0  0  0  0  0  0  0
    8.6125  -12.0166   18.5962 C   0  0  0  0  0  0  0  0  0  0  0  0
    9.5066  -12.5880   19.4786 C   0  0  0  0  0  0  0  0  0  0  0  0
    9.1221  -13.6296   20.2775 C   0  0  0  0  0  0  0  0  0  0  0  0
    7.8511  -14.1663   20.2589 C   0  0  0  0  0  0  0  0  0  0  0  0
    9.7002  -17.4718   22.7069 C   0  0  0  0  0  0  0  0  0  0  0  0
    9.1254  -18.4951   23.1901 O   0  0  0  0  0  0  0  0  0  0  0  0
   10.9687  -17.1434   23.2308 N   0  0  0  0  0  0  0  0  0  0  0  0
   11.6829  -17.6796   24.3268 C   0  0  1  0  0  0  0  0  0  0  0  0
   13.0763  -18.2110   24.0629 C   0  0  0  0  0  0  0  0  0  0  0  0
   13.0323  -19.2889   22.6346 S   0  0  0  0  0  0  0  0  0  0  0  0
   11.6132  -16.8672   25.5493 C   0  0  0  0  0  0  0  0  0  0  0  0
   12.1621  -15.7049   25.5606 O   0  0  0  0  0  0  0  0  0  0  0  0
   10.9924  -17.2227   26.7712 N   0  0  0  0  0  0  0  0  0  0  0  0
   10.9792  -16.4450   27.9599 C   0  0  1  0  0  0  0  0  0  0  0  0
   10.4040  -15.0800   27.9105 C   0  0  0  0  0  0  0  0  0  0  0  0
    9.0749  -15.0877   27.2642 C   0  0  0  0  0  0  0  0  0  0  0  0
    8.3019  -16.1966   27.0299 C   0  0  0  0  0  0  0  0  0  0  0  0
    7.1554  -15.8008   26.4062 N   0  0  0  0  0  0  0  0  0  0  0  0
    7.2199  -14.4552   26.2560 C   0  0  0  0  0  0  0  0  0  0  0  0
    6.3337  -13.5605   25.6939 C   0  0  0  0  0  0  0  0  0  0  0  0
    6.6257  -12.2076   25.6571 C   0  0  0  0  0  0  0  0  0  0  0  0
    7.8033  -11.7121   26.1756 C   0  0  0  0  0  0  0  0  0  0  0  0
    8.6827  -12.6208   26.7348 C   0  0  0  0  0  0  0  0  0  0  0  0
    8.3978  -13.9671   26.7745 C   0  0  0  0  0  0  0  0  0  0  0  0
   10.4410  -17.2922   29.0685 C   0  0  0  0  0  0  0  0  0  0  0  0
    9.9365  -18.4216   28.8759 O   0  0  0  0  0  0  0  0  0  0  0  0
   10.5007  -16.8074   30.3523 O   0  0  0  0  0  0  0  0  0  0  0  0
  2  3  1  0
  2  1  1  6
  4  3  1  0
  5  4  2  0
  6  7  1  0
  6  5  1  0
  7 12  2  0
  8  7  1  0
  8  9  2  0
  9 10  1  0
 10 11  2  0
 12  4  1  0
 12 11  1  0
 13  2  1  0
 13 15  1  0
 14 13  2  0
 16 15  1  0
 16 17  1  6
 17 18  1  0
 19 20  2  0
 19 16  1  0
 21 19  1  0
 22 21  1  0
 22 33  1  0
 22 23  1  6
 24 23  1  0
 25 24  2  0
 26 27  1  0
 26 25  1  0
 27 32  2  0
 28 29  2  0
 28 27  1  0
 29 30  1  0
 30 31  2  0
 32 24  1  0
 32 31  1  0
 33 35  1  0
 34 33  2  0
M  END
$$$$
