WCW.pdb
     RDKit          3D

 35 38  0  0  1  0  0  0  0  0999 V2000
    7.9705  -17.5958   20.6989 N   0  0  0  0  0  0  0  0  0  0  0  0
    8.7055  -16.7580   21.6766 C   0  0  1  0  0  0  0  0  0  0  0  0
    7.7855  -15.6720   22.1169 C   0  0  0  0  0  0  0  0  0  0  0  0
    7.3276  -14.7783   21.0429 C   0  0  0  0  0  0  0  0  0  0  0  0
    6.0294  -14.5632   20.6145 C   0  0  0  0  0  0  0  0  0  0  0  0
    5.9912  -13.6258   19.6617 N   0  0  0  0  0  0  0  0  0  0  0  0
    7.2593  -13.2146   19.4504 C   0  0  0  0  0  0  0  0  0  0  0  0
    7.7452  -12.2643   18.5650 C   0  0  0  0  0  0  0  0  0  0  0  0
    9.0947  -11.9999   18.5000 C   0  0  0  0  0  0  0  0  0  0  0  0
    9.9376  -12.7020   19.3372 C   0  0  0  0  0  0  0  0  0  0  0  0
    9.4353  -13.6327   20.2048 C   0  0  0  0  0  0  0  0  0  0  0  0
    8.0905  -13.9261   20.3018 C   0  0  0  0  0  0  0  0  0  0  0  0
    9.3673  -17.5856   22.6755 C   0  0  0  0  0  0  0  0  0  0  0  0
    8.6761  -18.4650   23.2757 O   0  0  0  0  0  0  0  0  0  0  0  0
   10.7271  -17.4833   23.0386 N   0  0  0  0  0  0  0  0  0  0  0  0
   11.4148  -17.9439   24.1847 C   0  0  1  0  0  0  0  0  0  0  0  0
   12.9045  -18.1855   24.0583 C   0  0  0  0  0  0  0  0  0  0  0  0
   13.6748  -16.7381   23.3406 S   0  0  0  0  0  0  0  0  0  0  0  0
   11.0629  -17.2383   25.4248 C   0  0  0  0  0  0  0  0  0  0  0  0
   11.3091  -15.9804   25.5207 O   0  0  0  0  0  0  0  0  0  0  0  0
   10.4633  -17.7973   26.5792 N   0  0  0  0  0  0  0  0  0  0  0  0
   10.2290  -17.1255   27.8088 C   0  0  1  0  0  0  0  0  0  0  0  0
    8.8317  -16.9618   28.2748 C   0  0  0  0  0  0  0  0  0  0  0  0
    8.0005  -16.3110   27.2405 C   0  0  0  0  0  0  0  0  0  0  0  0
    7.0757  -16.9359   26.4427 C   0  0  0  0  0  0  0  0  0  0  0  0
    6.5258  -16.0072   25.6089 N   0  0  0  0  0  0  0  0  0  0  0  0
    7.1075  -14.8156   25.8900 C   0  0  0  0  0  0  0  0  0  0  0  0
    6.9195  -13.5623   25.3462 C   0  0  0  0  0  0  0  0  0  0  0  0
    7.6445  -12.4771   25.8086 C   0  0  0  0  0  0  0  0  0  0  0  0
    8.5726  -12.6108   26.8194 C   0  0  0  0  0  0  0  0  0  0  0  0
    8.7513  -13.8733   27.3543 C   0  0  0  0  0  0  0  0  0  0  0  0
    8.0333  -14.9560   26.8989 C   0  0  0  0  0  0  0  0  0  0  0  0
   11.1508  -17.6968   28.8384 C   0  0  0  0  0  0  0  0  0  0  0  0
   11.8855  -18.6859   28.6174 O   0  0  0  0  0  0  0  0  0  0  0  0
   11.1892  -17.1119   30.0806 O   0  0  0  0  0  0  0  0  0  0  0  0
  2  3  1  0
  2  1  1  6
  4  3  1  0
  5  4  2  0
  6  7  1  0
  6  5  1  0
  7 12  2  0
  8  7  1  0
  8  9  2  0
  9 10  1  0
 10 11  2  0
 12  4  1  0
 12 11  1  0
 13  2  1  0
 13 15  1  0
 14 13  2  0
 16 15  1  0
 16 17  1  6
 17 18  1  0
 19 20  2  0
 19 16  1  0
 21 19  1  0
 22 21  1  0
 22 33  1  0
 22 23  1  1
 24 23  1  0
 25 24  2  0
 26 27  1  0
 26 25  1  0
 27 32  2  0
 28 29  2  0
 28 27  1  0
 29 30  1  0
 30 31  2  0
 32 24  1  0
 32 31  1  0
 33 35  1  0
 34 33  2  0
M  END
$$$$
