WCW.pdb
     RDKit          3D

 35 38  0  0  1  0  0  0  0  0999 V2000
    6.3940  -17.7891   24.6022 N   0  0  0  0  0  0  0  0  0  0  0  0
    7.3281  -16.7400   24.1281 C   0  0  1  0  0  0  0  0  0  0  0  0
    7.6879  -15.8966   25.3024 C   0  0  0  0  0  0  0  0  0  0  0  0
    6.6484  -14.9438   25.7192 C   0  0  0  0  0  0  0  0  0  0  0  0
    5.5318  -15.1939   26.4973 C   0  0  0  0  0  0  0  0  0  0  0  0
    4.8503  -14.0670   26.7288 N   0  0  0  0  0  0  0  0  0  0  0  0
    5.5065  -13.0646   26.1071 C   0  0  0  0  0  0  0  0  0  0  0  0
    5.2027  -11.7130   26.0449 C   0  0  0  0  0  0  0  0  0  0  0  0
    6.0099  -10.8505   25.3380 C   0  0  0  0  0  0  0  0  0  0  0  0
    7.1198  -11.3693   24.7030 C   0  0  0  0  0  0  0  0  0  0  0  0
    7.4014  -12.7056   24.7808 C   0  0  0  0  0  0  0  0  0  0  0  0
    6.6194  -13.6026   25.4793 C   0  0  0  0  0  0  0  0  0  0  0  0
    8.3852  -17.3174   23.3096 C   0  0  0  0  0  0  0  0  0  0  0  0
    8.7404  -18.5123   23.5485 O   0  0  0  0  0  0  0  0  0  0  0  0
    9.0579  -16.6466   22.2661 N   0  0  0  0  0  0  0  0  0  0  0  0
   10.4212  -16.6518   21.8919 C   0  0  1  0  0  0  0  0  0  0  0  0
   10.8264  -15.7988   20.7080 C   0  0  0  0  0  0  0  0  0  0  0  0
   12.4867  -16.2413   20.2069 S   0  0  0  0  0  0  0  0  0  0  0  0
   11.3575  -16.5316   23.0182 C   0  0  0  0  0  0  0  0  0  0  0  0
   11.7077  -15.3615   23.4188 O   0  0  0  0  0  0  0  0  0  0  0  0
   11.9507  -17.5910   23.7465 N   0  0  0  0  0  0  0  0  0  0  0  0
   13.1062  -17.4975   24.5675 C   0  0  1  0  0  0  0  0  0  0  0  0
   13.0297  -17.9929   25.9622 C   0  0  0  0  0  0  0  0  0  0  0  0
   11.8147  -17.4910   26.6374 C   0  0  0  0  0  0  0  0  0  0  0  0
   10.6261  -18.1655   26.7584 C   0  0  0  0  0  0  0  0  0  0  0  0
    9.7450  -17.3717   27.4319 N   0  0  0  0  0  0  0  0  0  0  0  0
   10.3854  -16.2136   27.7252 C   0  0  0  0  0  0  0  0  0  0  0  0
    9.9585  -15.0823   28.3883 C   0  0  0  0  0  0  0  0  0  0  0  0
   10.8117  -14.0070   28.5693 C   0  0  0  0  0  0  0  0  0  0  0  0
   12.1065  -14.0292   28.0959 C   0  0  0  0  0  0  0  0  0  0  0  0
   12.5203  -15.1693   27.4321 C   0  0  0  0  0  0  0  0  0  0  0  0
   11.6766  -16.2417   27.2492 C   0  0  0  0  0  0  0  0  0  0  0  0
   14.2732  -18.0271   23.7968 C   0  0  0  0  0  0  0  0  0  0  0  0
   14.1555  -18.5705   22.6753 O   0  0  0  0  0  0  0  0  0  0  0  0
   15.5270  -17.9146   24.3462 O   0  0  0  0  0  0  0  0  0  0  0  0
  2  3  1  0
  2  1  1  1
  4  3  1  0
  5  4  2  0
  6  7  1  0
  6  5  1  0
  7 12  2  0
  8  7  1  0
  8  9  2  0
  9 10  1  0
 10 11  2  0
 12  4  1  0
 12 11  1  0
 13  2  1  0
 13 15  1  0
 14 13  2  0
 16 15  1  0
 16 17  1  6
 17 18  1  0
 19 20  2  0
 19 16  1  0
 21 19  1  0
 22 21  1  0
 22 33  1  0
 22 23  1  1
 24 23  1  0
 25 24  2  0
 26 27  1  0
 26 25  1  0
 27 32  2  0
 28 29  2  0
 28 27  1  0
 29 30  1  0
 30 31  2  0
 32 24  1  0
 32 31  1  0
 33 35  1  0
 34 33  2  0
M  END
$$$$
