WCW.pdb
     RDKit          3D

 35 38  0  0  1  0  0  0  0  0999 V2000
    7.2503  -20.7466   21.2229 N   0  0  0  0  0  0  0  0  0  0  0  0
    7.5238  -19.3886   21.7510 C   0  0  1  0  0  0  0  0  0  0  0  0
    8.6817  -19.4950   22.6826 C   0  0  0  0  0  0  0  0  0  0  0  0
    8.4187  -20.2637   23.9081 C   0  0  0  0  0  0  0  0  0  0  0  0
    8.8010  -21.5629   24.1926 C   0  0  0  0  0  0  0  0  0  0  0  0
    8.4454  -21.9027   25.4360 N   0  0  0  0  0  0  0  0  0  0  0  0
    7.8255  -20.8359   25.9833 C   0  0  0  0  0  0  0  0  0  0  0  0
    7.2727  -20.6857   27.2462 C   0  0  0  0  0  0  0  0  0  0  0  0
    6.6695  -19.5014   27.6051 C   0  0  0  0  0  0  0  0  0  0  0  0
    6.6359  -18.4798   26.6779 C   0  0  0  0  0  0  0  0  0  0  0  0
    7.1905  -18.6497   25.4391 C   0  0  0  0  0  0  0  0  0  0  0  0
    7.8050  -19.8193   25.0409 C   0  0  0  0  0  0  0  0  0  0  0  0
    7.5587  -18.4097   20.6733 C   0  0  0  0  0  0  0  0  0  0  0  0
    8.2717  -18.6672   19.6553 O   0  0  0  0  0  0  0  0  0  0  0  0
    6.8619  -17.1826   20.6724 N   0  0  0  0  0  0  0  0  0  0  0  0
    7.3308  -15.8536   20.5597 C   0  0  1  0  0  0  0  0  0  0  0  0
    6.3265  -14.7370   20.7546 C   0  0  0  0  0  0  0  0  0  0  0  0
    7.0589  -13.1908   20.2289 S   0  0  0  0  0  0  0  0  0  0  0  0
    8.5979  -15.5986   21.2590 C   0  0  0  0  0  0  0  0  0  0  0  0
    9.5716  -15.0616   20.6141 O   0  0  0  0  0  0  0  0  0  0  0  0
    8.8937  -15.8868   22.6132 N   0  0  0  0  0  0  0  0  0  0  0  0
   10.0599  -15.4858   23.3184 C   0  0  1  0  0  0  0  0  0  0  0  0
    9.9606  -14.3568   24.2734 C   0  0  0  0  0  0  0  0  0  0  0  0
    8.7338  -14.4602   25.0910 C   0  0  0  0  0  0  0  0  0  0  0  0
    8.1115  -15.6252   25.4622 C   0  0  0  0  0  0  0  0  0  0  0  0
    7.0074  -15.3102   26.1983 N   0  0  0  0  0  0  0  0  0  0  0  0
    6.9479  -13.9586   26.2813 C   0  0  0  0  0  0  0  0  0  0  0  0
    6.0421  -13.1258   26.9039 C   0  0  0  0  0  0  0  0  0  0  0  0
    6.1952  -11.7509   26.8491 C   0  0  0  0  0  0  0  0  0  0  0  0
    7.2491  -11.1713   26.1751 C   0  0  0  0  0  0  0  0  0  0  0  0
    8.1488  -12.0184   25.5548 C   0  0  0  0  0  0  0  0  0  0  0  0
    8.0019  -13.3863   25.6058 C   0  0  0  0  0  0  0  0  0  0  0  0
   10.7079  -16.7080   23.8864 C   0  0  0  0  0  0  0  0  0  0  0  0
   10.1391  -17.8225   23.9239 O   0  0  0  0  0  0  0  0  0  0  0  0
   11.9808  -16.6005   24.3913 O   0  0  0  0  0  0  0  0  0  0  0  0
  2  3  1  0
  2  1  1  6
  4  3  1  0
  5  4  2  0
  6  7  1  0
  6  5  1  0
  7 12  2  0
  8  7  1  0
  8  9  2  0
  9 10  1  0
 10 11  2  0
 12  4  1  0
 12 11  1  0
 13  2  1  0
 13 15  1  0
 14 13  2  0
 16 15  1  0
 16 17  1  1
 17 18  1  0
 19 20  2  0
 19 16  1  0
 21 19  1  0
 22 21  1  0
 22 33  1  0
 22 23  1  1
 24 23  1  0
 25 24  2  0
 26 27  1  0
 26 25  1  0
 27 32  2  0
 28 29  2  0
 28 27  1  0
 29 30  1  0
 30 31  2  0
 32 24  1  0
 32 31  1  0
 33 35  1  0
 34 33  2  0
M  END
$$$$
