WCW.pdb
     RDKit          3D

 35 38  0  0  1  0  0  0  0  0999 V2000
    5.8403  -20.0445   20.7665 N   0  0  0  0  0  0  0  0  0  0  0  0
    5.6659  -18.6863   21.3345 C   0  0  1  0  0  0  0  0  0  0  0  0
    5.0734  -18.8414   22.6928 C   0  0  0  0  0  0  0  0  0  0  0  0
    3.7961  -19.5688   22.7291 C   0  0  0  0  0  0  0  0  0  0  0  0
    3.3871  -20.5187   23.6485 C   0  0  0  0  0  0  0  0  0  0  0  0
    2.1324  -20.9101   23.4031 N   0  0  0  0  0  0  0  0  0  0  0  0
    1.7014  -20.2264   22.3221 C   0  0  0  0  0  0  0  0  0  0  0  0
    0.4764  -20.2767   21.6740 C   0  0  0  0  0  0  0  0  0  0  0  0
    0.2427  -19.4928   20.5668 C   0  0  0  0  0  0  0  0  0  0  0  0
    1.2552  -18.6631   20.1299 C   0  0  0  0  0  0  0  0  0  0  0  0
    2.4543  -18.6279   20.7870 C   0  0  0  0  0  0  0  0  0  0  0  0
    2.7282  -19.3959   21.9002 C   0  0  0  0  0  0  0  0  0  0  0  0
    6.8762  -17.8940   21.1668 C   0  0  0  0  0  0  0  0  0  0  0  0
    7.9716  -18.3813   21.5838 O   0  0  0  0  0  0  0  0  0  0  0  0
    6.9290  -16.6126   20.5782 N   0  0  0  0  0  0  0  0  0  0  0  0
    7.6560  -15.4567   20.9443 C   0  0  1  0  0  0  0  0  0  0  0  0
    7.1615  -14.1234   20.4234 C   0  0  0  0  0  0  0  0  0  0  0  0
    8.3443  -12.8506   20.8529 S   0  0  0  0  0  0  0  0  0  0  0  0
    8.0289  -15.4020   22.3648 C   0  0  0  0  0  0  0  0  0  0  0  0
    7.1756  -15.7750   23.2507 O   0  0  0  0  0  0  0  0  0  0  0  0
    9.2643  -14.9671   22.9025 N   0  0  0  0  0  0  0  0  0  0  0  0
    9.7714  -15.2789   24.1923 C   0  0  1  0  0  0  0  0  0  0  0  0
    8.9141  -16.0452   25.1274 C   0  0  0  0  0  0  0  0  0  0  0  0
    7.6763  -15.3016   25.4424 C   0  0  0  0  0  0  0  0  0  0  0  0
    6.3962  -15.7699   25.2867 C   0  0  0  0  0  0  0  0  0  0  0  0
    5.5277  -14.7912   25.6715 N   0  0  0  0  0  0  0  0  0  0  0  0
    6.2670  -13.7246   26.0626 C   0  0  0  0  0  0  0  0  0  0  0  0
    5.8928  -12.4852   26.5377 C   0  0  0  0  0  0  0  0  0  0  0  0
    6.8483  -11.5431   26.8791 C   0  0  0  0  0  0  0  0  0  0  0  0
    8.1957  -11.8086   26.7560 C   0  0  0  0  0  0  0  0  0  0  0  0
    8.5560  -13.0548   26.2774 C   0  0  0  0  0  0  0  0  0  0  0  0
    7.6106  -13.9956   25.9364 C   0  0  0  0  0  0  0  0  0  0  0  0
   11.1487  -15.8389   24.0320 C   0  0  0  0  0  0  0  0  0  0  0  0
   11.7118  -15.9474   22.9193 O   0  0  0  0  0  0  0  0  0  0  0  0
   11.8222  -16.2545   25.1546 O   0  0  0  0  0  0  0  0  0  0  0  0
  2  3  1  0
  2  1  1  1
  4  3  1  0
  5  4  2  0
  6  7  1  0
  6  5  1  0
  7 12  2  0
  8  7  1  0
  8  9  2  0
  9 10  1  0
 10 11  2  0
 12  4  1  0
 12 11  1  0
 13  2  1  0
 13 15  1  0
 14 13  2  0
 16 15  1  0
 16 17  1  1
 17 18  1  0
 19 20  2  0
 19 16  1  0
 21 19  1  0
 22 21  1  0
 22 33  1  0
 22 23  1  6
 24 23  1  0
 25 24  2  0
 26 27  1  0
 26 25  1  0
 27 32  2  0
 28 29  2  0
 28 27  1  0
 29 30  1  0
 30 31  2  0
 32 24  1  0
 32 31  1  0
 33 35  1  0
 34 33  2  0
M  END
$$$$
