WCW.pdb
     RDKit          3D

 35 38  0  0  1  0  0  0  0  0999 V2000
    8.0557  -17.9157   19.5541 N   0  0  0  0  0  0  0  0  0  0  0  0
    8.4206  -17.1248   20.7537 C   0  0  1  0  0  0  0  0  0  0  0  0
    7.3196  -16.1519   21.0009 C   0  0  0  0  0  0  0  0  0  0  0  0
    7.2357  -15.0546   20.0258 C   0  0  0  0  0  0  0  0  0  0  0  0
    6.3072  -14.8894   19.0130 C   0  0  0  0  0  0  0  0  0  0  0  0
    6.5032  -13.7330   18.3710 N   0  0  0  0  0  0  0  0  0  0  0  0
    7.5601  -13.1251   18.9499 C   0  0  0  0  0  0  0  0  0  0  0  0
    8.1571  -11.9106   18.6473 C   0  0  0  0  0  0  0  0  0  0  0  0
    9.2477  -11.4737   19.3648 C   0  0  0  0  0  0  0  0  0  0  0  0
    9.7200  -12.2741   20.3849 C   0  0  0  0  0  0  0  0  0  0  0  0
    9.1131  -13.4669   20.6675 C   0  0  0  0  0  0  0  0  0  0  0  0
    8.0181  -13.9400   19.9738 C   0  0  0  0  0  0  0  0  0  0  0  0
    8.8641  -17.9949   21.8340 C   0  0  0  0  0  0  0  0  0  0  0  0
    8.0256  -18.8110   22.3262 O   0  0  0  0  0  0  0  0  0  0  0  0
   10.1620  -17.9995   22.3879 N   0  0  0  0  0  0  0  0  0  0  0  0
   10.6534  -18.5659   23.5864 C   0  0  1  0  0  0  0  0  0  0  0  0
   11.8131  -19.5341   23.4802 C   0  0  0  0  0  0  0  0  0  0  0  0
   11.3663  -20.8651   22.3700 S   0  0  0  0  0  0  0  0  0  0  0  0
   10.8227  -17.6040   24.6844 C   0  0  0  0  0  0  0  0  0  0  0  0
   11.5073  -16.5353   24.4804 O   0  0  0  0  0  0  0  0  0  0  0  0
   10.3059  -17.7147   25.9979 N   0  0  0  0  0  0  0  0  0  0  0  0
   10.4747  -16.7702   27.0456 C   0  0  1  0  0  0  0  0  0  0  0  0
   10.2613  -15.3339   26.7496 C   0  0  0  0  0  0  0  0  0  0  0  0
    8.8690  -15.0816   26.3226 C   0  0  0  0  0  0  0  0  0  0  0  0
    7.9385  -16.0400   26.0097 C   0  0  0  0  0  0  0  0  0  0  0  0
    6.7797  -15.4169   25.6507 N   0  0  0  0  0  0  0  0  0  0  0  0
    6.9930  -14.0814   25.7412 C   0  0  0  0  0  0  0  0  0  0  0  0
    6.1610  -13.0098   25.4939 C   0  0  0  0  0  0  0  0  0  0  0  0
    6.6139  -11.7122   25.6612 C   0  0  0  0  0  0  0  0  0  0  0  0
    7.9020  -11.4483   26.0763 C   0  0  0  0  0  0  0  0  0  0  0  0
    8.7252  -12.5323   26.3194 C   0  0  0  0  0  0  0  0  0  0  0  0
    8.2805  -13.8248   26.1550 C   0  0  0  0  0  0  0  0  0  0  0  0
    9.7286  -17.2617   28.2447 C   0  0  0  0  0  0  0  0  0  0  0  0
    9.7311  -16.6566   29.3406 O   0  0  0  0  0  0  0  0  0  0  0  0
    9.0129  -18.4293   28.1383 O   0  0  0  0  0  0  0  0  0  0  0  0
  2  3  1  0
  2  1  1  6
  4  3  1  0
  5  4  2  0
  6  7  1  0
  6  5  1  0
  7 12  2  0
  8  7  1  0
  8  9  2  0
  9 10  1  0
 10 11  2  0
 12  4  1  0
 12 11  1  0
 13  2  1  0
 13 15  1  0
 14 13  2  0
 16 15  1  0
 16 17  1  6
 17 18  1  0
 19 20  2  0
 19 16  1  0
 21 19  1  0
 22 21  1  0
 22 33  1  0
 22 23  1  6
 24 23  1  0
 25 24  2  0
 26 27  1  0
 26 25  1  0
 27 32  2  0
 28 29  2  0
 28 27  1  0
 29 30  1  0
 30 31  2  0
 32 24  1  0
 32 31  1  0
 33 35  1  0
 34 33  2  0
M  END
$$$$
