WCW.pdb
     RDKit          3D

 35 38  0  0  1  0  0  0  0  0999 V2000
    7.6428  -17.8513   21.3398 N   0  0  0  0  0  0  0  0  0  0  0  0
    8.5472  -16.9166   22.0513 C   0  0  1  0  0  0  0  0  0  0  0  0
    7.7305  -15.7509   22.4914 C   0  0  0  0  0  0  0  0  0  0  0  0
    7.1921  -14.9272   21.3988 C   0  0  0  0  0  0  0  0  0  0  0  0
    5.8786  -14.8368   20.9731 C   0  0  0  0  0  0  0  0  0  0  0  0
    5.7550  -13.9301   19.9982 N   0  0  0  0  0  0  0  0  0  0  0  0
    6.9815  -13.4149   19.7696 C   0  0  0  0  0  0  0  0  0  0  0  0
    7.3791  -12.4479   18.8587 C   0  0  0  0  0  0  0  0  0  0  0  0
    8.7001  -12.0683   18.7794 C   0  0  0  0  0  0  0  0  0  0  0  0
    9.6042  -12.6734   19.6284 C   0  0  0  0  0  0  0  0  0  0  0  0
    9.1885  -13.6228   20.5211 C   0  0  0  0  0  0  0  0  0  0  0  0
    7.8749  -14.0301   20.6330 C   0  0  0  0  0  0  0  0  0  0  0  0
    9.3662  -17.6262   23.0242 C   0  0  0  0  0  0  0  0  0  0  0  0
    8.7924  -18.4514   23.7994 O   0  0  0  0  0  0  0  0  0  0  0  0
   10.7592  -17.4637   23.1807 N   0  0  0  0  0  0  0  0  0  0  0  0
   11.5879  -17.6339   24.3134 C   0  0  1  0  0  0  0  0  0  0  0  0
   13.0796  -17.4534   24.1240 C   0  0  0  0  0  0  0  0  0  0  0  0
   13.4914  -17.7381   22.4056 S   0  0  0  0  0  0  0  0  0  0  0  0
   11.0918  -16.9749   25.5296 C   0  0  0  0  0  0  0  0  0  0  0  0
   11.1880  -15.6973   25.6329 O   0  0  0  0  0  0  0  0  0  0  0  0
   10.4982  -17.6003   26.6527 N   0  0  0  0  0  0  0  0  0  0  0  0
   10.3374  -17.0260   27.9420 C   0  0  1  0  0  0  0  0  0  0  0  0
    8.9681  -16.7167   28.4171 C   0  0  0  0  0  0  0  0  0  0  0  0
    8.1672  -16.0817   27.3496 C   0  0  0  0  0  0  0  0  0  0  0  0
    7.3528  -16.7352   26.4596 C   0  0  0  0  0  0  0  0  0  0  0  0
    6.7960  -15.8119   25.6244 N   0  0  0  0  0  0  0  0  0  0  0  0
    7.2637  -14.5953   25.9961 C   0  0  0  0  0  0  0  0  0  0  0  0
    7.0212  -13.3355   25.4901 C   0  0  0  0  0  0  0  0  0  0  0  0
    7.6262  -12.2227   26.0491 C   0  0  0  0  0  0  0  0  0  0  0  0
    8.4860  -12.3344   27.1212 C   0  0  0  0  0  0  0  0  0  0  0  0
    8.7206  -13.6035   27.6172 C   0  0  0  0  0  0  0  0  0  0  0  0
    8.1218  -14.7137   27.0658 C   0  0  0  0  0  0  0  0  0  0  0  0
   11.1540  -17.8175   28.9131 C   0  0  0  0  0  0  0  0  0  0  0  0
   11.7302  -18.8849   28.6036 O   0  0  0  0  0  0  0  0  0  0  0  0
   11.2732  -17.3536   30.2004 O   0  0  0  0  0  0  0  0  0  0  0  0
  2  3  1  0
  2  1  1  1
  4  3  1  0
  5  4  2  0
  6  7  1  0
  6  5  1  0
  7 12  2  0
  8  7  1  0
  8  9  2  0
  9 10  1  0
 10 11  2  0
 12  4  1  0
 12 11  1  0
 13  2  1  0
 13 15  1  0
 14 13  2  0
 16 15  1  0
 16 17  1  6
 17 18  1  0
 19 20  2  0
 19 16  1  0
 21 19  1  0
 22 21  1  0
 22 33  1  0
 22 23  1  1
 24 23  1  0
 25 24  2  0
 26 27  1  0
 26 25  1  0
 27 32  2  0
 28 29  2  0
 28 27  1  0
 29 30  1  0
 30 31  2  0
 32 24  1  0
 32 31  1  0
 33 35  1  0
 34 33  2  0
M  END
$$$$
