KQK.pdb
     RDKit          3D

 28 27  0  0  1  0  0  0  0  0999 V2000
   24.3270  -31.5988   -9.0021 N   0  0  0  0  0  0  0  0  0  0  0  0
   25.0501  -32.7488   -8.5565 C   0  0  1  0  0  0  0  0  0  0  0  0
   26.2454  -33.0767   -9.4867 C   0  0  0  0  0  0  0  0  0  0  0  0
   25.7180  -34.0784  -10.4610 C   0  0  0  0  0  0  0  0  0  0  0  0
   26.7772  -34.5609  -11.3865 C   0  0  0  0  0  0  0  0  0  0  0  0
   26.3525  -35.5281  -12.4437 C   0  0  0  0  0  0  0  0  0  0  0  0
   27.3713  -35.9502  -13.3541 N   0  0  0  0  0  0  0  0  0  0  0  0
   25.6172  -32.6360   -7.1948 C   0  0  0  0  0  0  0  0  0  0  0  0
   26.2056  -31.5770   -6.8804 O   0  0  0  0  0  0  0  0  0  0  0  0
   22.6957  -33.8596   -2.4780 N   0  0  0  0  0  0  0  0  0  0  0  0
   23.9177  -33.8617   -1.7512 C   0  0  0  0  0  0  0  0  0  0  0  0
   23.8715  -33.9179   -0.4978 O   0  0  0  0  0  0  0  0  0  0  0  0
   25.2486  -33.7969   -2.4869 C   0  0  0  0  0  0  0  0  0  0  0  0
   24.9378  -33.7325   -3.9338 C   0  0  0  0  0  0  0  0  0  0  0  0
   26.0678  -33.5230   -4.8678 C   0  0  2  0  0  0  0  0  0  0  0  0
   25.5221  -33.6600   -6.2522 N   0  0  0  0  0  0  0  0  0  0  0  0
   27.2135  -34.4299   -4.7835 C   0  0  0  0  0  0  0  0  0  0  0  0
   27.0204  -35.6615   -5.1090 O   0  0  0  0  0  0  0  0  0  0  0  0
   28.5302  -34.1357   -4.3931 N   0  0  0  0  0  0  0  0  0  0  0  0
   29.5461  -35.2360   -4.2075 C   0  0  1  0  0  0  0  0  0  0  0  0
   30.8908  -34.6741   -4.3204 C   0  0  0  0  0  0  0  0  0  0  0  0
   32.0629  -35.4488   -3.9802 C   0  0  0  0  0  0  0  0  0  0  0  0
   33.4598  -35.0466   -3.9735 C   0  0  0  0  0  0  0  0  0  0  0  0
   34.4964  -36.1182   -3.7891 C   0  0  0  0  0  0  0  0  0  0  0  0
   35.8441  -35.5664   -3.8308 N   0  0  0  0  0  0  0  0  0  0  0  0
   29.2344  -35.5608   -2.7460 C   0  0  0  0  0  0  0  0  0  0  0  0
   29.6339  -36.6946   -2.2826 O   0  0  0  0  0  0  0  0  0  0  0  0
   28.5720  -34.8020   -1.8452 O   0  0  0  0  0  0  0  0  0  0  0  0
  2  1  1  6
  2  3  1  0
  3  4  1  0
  4  5  1  0
  5  6  1  0
  7  6  1  0
  8  2  1  0
  8  9  2  0
 10 11  1  0
 11 13  1  0
 11 12  2  0
 13 14  1  0
 15 14  1  1
 15 16  1  0
 16  8  1  0
 17 15  1  0
 18 17  2  0
 19 17  1  0
 20 19  1  0
 20 26  1  0
 20 21  1  1
 22 23  1  0
 22 21  1  0
 23 24  1  0
 24 25  1  0
 26 28  1  0
 27 26  2  0
M  END
$$$$
