KQK.pdb
     RDKit          3D

 28 27  0  0  1  0  0  0  0  0999 V2000
   12.6116  -19.1918    1.9771 N   0  0  0  0  0  0  0  0  0  0  0  0
   13.4163  -20.2928    2.4064 C   0  0  1  0  0  0  0  0  0  0  0  0
   14.5096  -20.6496    1.3678 C   0  0  0  0  0  0  0  0  0  0  0  0
   13.8240  -21.5143    0.3613 C   0  0  0  0  0  0  0  0  0  0  0  0
   14.7372  -21.9066   -0.7448 C   0  0  0  0  0  0  0  0  0  0  0  0
   14.1392  -22.7116   -1.8529 C   0  0  0  0  0  0  0  0  0  0  0  0
   15.0161  -23.0416   -2.9331 N   0  0  0  0  0  0  0  0  0  0  0  0
   14.1285  -20.0792    3.6853 C   0  0  0  0  0  0  0  0  0  0  0  0
   13.9158  -19.0192    4.3159 O   0  0  0  0  0  0  0  0  0  0  0  0
   17.2678  -24.5240    6.5357 N   0  0  0  0  0  0  0  0  0  0  0  0
   16.4785  -23.9412    7.5647 C   0  0  0  0  0  0  0  0  0  0  0  0
   16.3596  -24.5565    8.6526 O   0  0  0  0  0  0  0  0  0  0  0  0
   15.7962  -22.5989    7.3419 C   0  0  0  0  0  0  0  0  0  0  0  0
   16.1649  -22.1497    5.9794 C   0  0  0  0  0  0  0  0  0  0  0  0
   15.6798  -20.8205    5.5424 C   0  0  2  0  0  0  0  0  0  0  0  0
   15.0242  -21.0095    4.2130 N   0  0  0  0  0  0  0  0  0  0  0  0
   16.6601  -19.7472    5.3710 C   0  0  0  0  0  0  0  0  0  0  0  0
   17.3139  -19.7127    4.2613 O   0  0  0  0  0  0  0  0  0  0  0  0
   16.9916  -18.7190    6.2685 N   0  0  0  0  0  0  0  0  0  0  0  0
   18.0489  -17.7000    5.9208 C   0  0  1  0  0  0  0  0  0  0  0  0
   17.4503  -16.3664    5.9184 C   0  0  0  0  0  0  0  0  0  0  0  0
   18.2476  -15.1822    5.6913 C   0  0  0  0  0  0  0  0  0  0  0  0
   17.8240  -13.7954    5.5881 C   0  0  0  0  0  0  0  0  0  0  0  0
   18.8665  -12.7681    5.2491 C   0  0  0  0  0  0  0  0  0  0  0  0
   18.2709  -11.4540    5.0462 N   0  0  0  0  0  0  0  0  0  0  0  0
   18.9250  -17.8794    7.1614 C   0  0  0  0  0  0  0  0  0  0  0  0
   18.3650  -18.3173    8.2358 O   0  0  0  0  0  0  0  0  0  0  0  0
   20.2462  -17.6293    7.2934 O   0  0  0  0  0  0  0  0  0  0  0  0
  2  1  1  6
  2  3  1  0
  3  4  1  0
  4  5  1  0
  5  6  1  0
  7  6  1  0
  8  2  1  0
  8  9  2  0
 10 11  1  0
 11 13  1  0
 11 12  2  0
 13 14  1  0
 15 14  1  6
 15 16  1  0
 16  8  1  0
 17 15  1  0
 18 17  2  0
 19 17  1  0
 20 19  1  0
 20 26  1  0
 20 21  1  1
 22 23  1  0
 22 21  1  0
 23 24  1  0
 24 25  1  0
 26 28  1  0
 27 26  2  0
M  END
$$$$
