KQK.pdb
     RDKit          3D

 28 27  0  0  1  0  0  0  0  0999 V2000
   15.7180  -14.2555  -14.9281 N   0  0  0  0  0  0  0  0  0  0  0  0
   16.3496  -13.2337  -15.7033 C   0  0  1  0  0  0  0  0  0  0  0  0
   16.5477  -13.6660  -17.1782 C   0  0  0  0  0  0  0  0  0  0  0  0
   17.3260  -14.9390  -17.1102 C   0  0  0  0  0  0  0  0  0  0  0  0
   17.5065  -15.5496  -18.4540 C   0  0  0  0  0  0  0  0  0  0  0  0
   18.1485  -16.8986  -18.4955 C   0  0  0  0  0  0  0  0  0  0  0  0
   17.7772  -17.8030  -17.4519 N   0  0  0  0  0  0  0  0  0  0  0  0
   15.6157  -11.9502  -15.7539 C   0  0  0  0  0  0  0  0  0  0  0  0
   14.3651  -11.9802  -15.7944 O   0  0  0  0  0  0  0  0  0  0  0  0
   12.0091   -9.8230  -14.3043 N   0  0  0  0  0  0  0  0  0  0  0  0
   12.4748   -8.4988  -14.0781 C   0  0  0  0  0  0  0  0  0  0  0  0
   11.6356   -7.6037  -13.8117 O   0  0  0  0  0  0  0  0  0  0  0  0
   13.9616   -8.1834  -14.1597 C   0  0  0  0  0  0  0  0  0  0  0  0
   14.6487   -9.4420  -14.5312 C   0  0  0  0  0  0  0  0  0  0  0  0
   15.5099   -9.4217  -15.7358 C   0  0  2  0  0  0  0  0  0  0  0  0
   16.2609  -10.7134  -15.7583 N   0  0  0  0  0  0  0  0  0  0  0  0
   16.5102   -8.3598  -15.8545 C   0  0  0  0  0  0  0  0  0  0  0  0
   17.5523   -8.4397  -15.1011 O   0  0  0  0  0  0  0  0  0  0  0  0
   16.4950   -7.2399  -16.7020 N   0  0  0  0  0  0  0  0  0  0  0  0
   17.6335   -6.2495  -16.6953 C   0  0  1  0  0  0  0  0  0  0  0  0
   17.5917   -5.4593  -17.9244 C   0  0  0  0  0  0  0  0  0  0  0  0
   18.4790   -4.3367  -18.1298 C   0  0  0  0  0  0  0  0  0  0  0  0
   18.6293   -3.4866  -19.2994 C   0  0  0  0  0  0  0  0  0  0  0  0
   19.6931   -2.4264  -19.2625 C   0  0  0  0  0  0  0  0  0  0  0  0
   21.0172   -3.0084  -19.0873 N   0  0  0  0  0  0  0  0  0  0  0  0
   17.1643   -5.4030  -15.5113 C   0  0  0  0  0  0  0  0  0  0  0  0
   18.0555   -4.7564  -14.8425 O   0  0  0  0  0  0  0  0  0  0  0  0
   15.9048   -5.2377  -15.0505 O   0  0  0  0  0  0  0  0  0  0  0  0
  2  1  1  1
  2  3  1  0
  3  4  1  0
  4  5  1  0
  5  6  1  0
  7  6  1  0
  8  2  1  0
  8  9  2  0
 10 11  1  0
 11 13  1  0
 11 12  2  0
 13 14  1  0
 15 14  1  1
 15 16  1  0
 16  8  1  0
 17 15  1  0
 18 17  2  0
 19 17  1  0
 20 19  1  0
 20 26  1  0
 20 21  1  6
 22 23  1  0
 22 21  1  0
 23 24  1  0
 24 25  1  0
 26 28  1  0
 27 26  2  0
M  END
$$$$
