KQK.pdb
     RDKit          3D

 28 27  0  0  1  0  0  0  0  0999 V2000
   13.9873  -10.7519  -13.3828 N   0  0  0  0  0  0  0  0  0  0  0  0
   15.3441  -10.6029  -12.9575 C   0  0  1  0  0  0  0  0  0  0  0  0
   16.3376  -11.2486  -13.9563 C   0  0  0  0  0  0  0  0  0  0  0  0
   15.6230  -12.4418  -14.5006 C   0  0  0  0  0  0  0  0  0  0  0  0
   16.4179  -13.1310  -15.5515 C   0  0  0  0  0  0  0  0  0  0  0  0
   15.8076  -14.3523  -16.1594 C   0  0  0  0  0  0  0  0  0  0  0  0
   15.0214  -15.1640  -15.2830 N   0  0  0  0  0  0  0  0  0  0  0  0
   15.7919   -9.2028  -12.7906 C   0  0  0  0  0  0  0  0  0  0  0  0
   15.4440   -8.3599  -13.6479 O   0  0  0  0  0  0  0  0  0  0  0  0
   15.9632   -6.5246   -7.5674 N   0  0  0  0  0  0  0  0  0  0  0  0
   14.9712   -6.1299   -8.5063 C   0  0  0  0  0  0  0  0  0  0  0  0
   13.9249   -5.5817   -8.0806 O   0  0  0  0  0  0  0  0  0  0  0  0
   15.1830   -6.3713   -9.9942 C   0  0  0  0  0  0  0  0  0  0  0  0
   16.5207   -6.9895  -10.1436 C   0  0  0  0  0  0  0  0  0  0  0  0
   16.9564   -7.3560  -11.5107 C   0  0  2  0  0  0  0  0  0  0  0  0
   16.5836   -8.7879  -11.7195 N   0  0  0  0  0  0  0  0  0  0  0  0
   18.3791   -7.2474  -11.8369 C   0  0  0  0  0  0  0  0  0  0  0  0
   19.1880   -8.0520  -11.2382 O   0  0  0  0  0  0  0  0  0  0  0  0
   19.0010   -6.3698  -12.7400 N   0  0  0  0  0  0  0  0  0  0  0  0
   20.4752   -6.4863  -13.0408 C   0  0  1  0  0  0  0  0  0  0  0  0
   20.6674   -6.5546  -14.4883 C   0  0  0  0  0  0  0  0  0  0  0  0
   21.9867   -6.5037  -15.0771 C   0  0  0  0  0  0  0  0  0  0  0  0
   22.3676   -6.5157  -16.4800 C   0  0  0  0  0  0  0  0  0  0  0  0
   23.8262   -6.3744  -16.8108 C   0  0  0  0  0  0  0  0  0  0  0  0
   24.0531   -6.4368  -18.2487 N   0  0  0  0  0  0  0  0  0  0  0  0
   20.9018   -5.1134  -12.5193 C   0  0  0  0  0  0  0  0  0  0  0  0
   20.0070   -4.1889  -12.4550 O   0  0  0  0  0  0  0  0  0  0  0  0
   22.1276   -4.7208  -12.1082 O   0  0  0  0  0  0  0  0  0  0  0  0
  2  1  1  6
  2  3  1  0
  3  4  1  0
  4  5  1  0
  5  6  1  0
  7  6  1  0
  8  2  1  0
  8  9  2  0
 10 11  1  0
 11 13  1  0
 11 12  2  0
 13 14  1  0
 15 14  1  1
 15 16  1  0
 16  8  1  0
 17 15  1  0
 18 17  2  0
 19 17  1  0
 20 19  1  0
 20 26  1  0
 20 21  1  6
 22 23  1  0
 22 21  1  0
 23 24  1  0
 24 25  1  0
 26 28  1  0
 27 26  2  0
M  END
$$$$
