KQK.pdb
     RDKit          3D

 28 27  0  0  1  0  0  0  0  0999 V2000
   19.7273  -15.0723  -18.8503 N   0  0  0  0  0  0  0  0  0  0  0  0
   20.5387  -13.9867  -18.3953 C   0  0  1  0  0  0  0  0  0  0  0  0
   21.6502  -13.6287  -19.4140 C   0  0  0  0  0  0  0  0  0  0  0  0
   22.3478  -14.9182  -19.6990 C   0  0  0  0  0  0  0  0  0  0  0  0
   23.4770  -14.7380  -20.6497 C   0  0  0  0  0  0  0  0  0  0  0  0
   24.2440  -15.9666  -21.0186 C   0  0  0  0  0  0  0  0  0  0  0  0
   25.2084  -15.8144  -22.0635 N   0  0  0  0  0  0  0  0  0  0  0  0
   19.8046  -12.7280  -18.1397 C   0  0  0  0  0  0  0  0  0  0  0  0
   19.3208  -12.1118  -19.1158 O   0  0  0  0  0  0  0  0  0  0  0  0
   15.6751  -12.1701  -14.2851 N   0  0  0  0  0  0  0  0  0  0  0  0
   15.8303  -10.7582  -14.3481 C   0  0  0  0  0  0  0  0  0  0  0  0
   15.0251  -10.0359  -13.7107 O   0  0  0  0  0  0  0  0  0  0  0  0
   16.9525  -10.1453  -15.1740 C   0  0  0  0  0  0  0  0  0  0  0  0
   17.7417  -11.2693  -15.7288 C   0  0  0  0  0  0  0  0  0  0  0  0
   18.8836  -10.9342  -16.6103 C   0  0  2  0  0  0  0  0  0  0  0  0
   19.6318  -12.2037  -16.8585 N   0  0  0  0  0  0  0  0  0  0  0  0
   19.8669   -9.9618  -16.1309 C   0  0  0  0  0  0  0  0  0  0  0  0
   20.8243  -10.4026  -15.3898 O   0  0  0  0  0  0  0  0  0  0  0  0
   19.9172   -8.5801  -16.3778 N   0  0  0  0  0  0  0  0  0  0  0  0
   21.0203   -7.7303  -15.7964 C   0  0  1  0  0  0  0  0  0  0  0  0
   20.9720   -6.3997  -16.3997 C   0  0  0  0  0  0  0  0  0  0  0  0
   21.8208   -5.3276  -15.9306 C   0  0  0  0  0  0  0  0  0  0  0  0
   21.9200   -3.9583  -16.4085 C   0  0  0  0  0  0  0  0  0  0  0  0
   22.8853   -3.0418  -15.7122 C   0  0  0  0  0  0  0  0  0  0  0  0
   22.8281   -1.6935  -16.2617 N   0  0  0  0  0  0  0  0  0  0  0  0
   20.5019   -7.6736  -14.3588 C   0  0  0  0  0  0  0  0  0  0  0  0
   19.2267   -7.6972  -14.1771 O   0  0  0  0  0  0  0  0  0  0  0  0
   21.2181   -7.5941  -13.2158 O   0  0  0  0  0  0  0  0  0  0  0  0
  2  1  1  6
  2  3  1  0
  3  4  1  0
  4  5  1  0
  5  6  1  0
  7  6  1  0
  8  2  1  0
  8  9  2  0
 10 11  1  0
 11 13  1  0
 11 12  2  0
 13 14  1  0
 15 14  1  1
 15 16  1  0
 16  8  1  0
 17 15  1  0
 18 17  2  0
 19 17  1  0
 20 19  1  0
 20 26  1  0
 20 21  1  6
 22 23  1  0
 22 21  1  0
 23 24  1  0
 24 25  1  0
 26 28  1  0
 27 26  2  0
M  END
$$$$
