KQK.pdb
     RDKit          3D

 28 27  0  0  1  0  0  0  0  0999 V2000
   22.2248  -15.9747  -17.0533 N   0  0  0  0  0  0  0  0  0  0  0  0
   22.2923  -14.6688  -17.6313 C   0  0  1  0  0  0  0  0  0  0  0  0
   20.9524  -14.2594  -18.2936 C   0  0  0  0  0  0  0  0  0  0  0  0
   20.4757  -15.4862  -18.9997 C   0  0  0  0  0  0  0  0  0  0  0  0
   19.2501  -15.2231  -19.7996 C   0  0  0  0  0  0  0  0  0  0  0  0
   18.6449  -16.3951  -20.5023 C   0  0  0  0  0  0  0  0  0  0  0  0
   19.3731  -16.8983  -21.6255 N   0  0  0  0  0  0  0  0  0  0  0  0
   22.6198  -13.5850  -16.6791 C   0  0  0  0  0  0  0  0  0  0  0  0
   21.9535  -13.4982  -15.6232 O   0  0  0  0  0  0  0  0  0  0  0  0
   27.9973  -10.8857  -16.6389 N   0  0  0  0  0  0  0  0  0  0  0  0
   27.7453  -11.7925  -15.5732 C   0  0  0  0  0  0  0  0  0  0  0  0
   28.7229  -12.2704  -14.9467 O   0  0  0  0  0  0  0  0  0  0  0  0
   26.3167  -12.1695  -15.2075 C   0  0  0  0  0  0  0  0  0  0  0  0
   25.4238  -11.3296  -16.0389 C   0  0  0  0  0  0  0  0  0  0  0  0
   23.9665  -11.5738  -15.9398 C   0  0  2  0  0  0  0  0  0  0  0  0
   23.6378  -12.6600  -16.9119 N   0  0  0  0  0  0  0  0  0  0  0  0
   23.0567  -10.4659  -16.2347 C   0  0  0  0  0  0  0  0  0  0  0  0
   22.7327  -10.2765  -17.4673 O   0  0  0  0  0  0  0  0  0  0  0  0
   22.4671   -9.5606  -15.3372 N   0  0  0  0  0  0  0  0  0  0  0  0
   21.5451   -8.4725  -15.8301 C   0  0  1  0  0  0  0  0  0  0  0  0
   20.1823   -8.9951  -15.9090 C   0  0  0  0  0  0  0  0  0  0  0  0
   19.0920   -8.1864  -16.4063 C   0  0  0  0  0  0  0  0  0  0  0  0
   17.6755   -8.5031  -16.4861 C   0  0  0  0  0  0  0  0  0  0  0  0
   16.7734   -7.5116  -17.1644 C   0  0  0  0  0  0  0  0  0  0  0  0
   15.3901   -7.9692  -17.1698 N   0  0  0  0  0  0  0  0  0  0  0  0
   21.6773   -7.5310  -14.6323 C   0  0  0  0  0  0  0  0  0  0  0  0
   22.0712   -8.0324  -13.5128 O   0  0  0  0  0  0  0  0  0  0  0  0
   21.4252   -6.2045  -14.5814 O   0  0  0  0  0  0  0  0  0  0  0  0
  2  1  1  1
  2  3  1  0
  3  4  1  0
  4  5  1  0
  5  6  1  0
  7  6  1  0
  8  2  1  0
  8  9  2  0
 10 11  1  0
 11 13  1  0
 11 12  2  0
 13 14  1  0
 15 14  1  6
 15 16  1  0
 16  8  1  0
 17 15  1  0
 18 17  2  0
 19 17  1  0
 20 19  1  0
 20 26  1  0
 20 21  1  1
 22 23  1  0
 22 21  1  0
 23 24  1  0
 24 25  1  0
 26 28  1  0
 27 26  2  0
M  END
$$$$
