KQK.pdb
     RDKit          3D

 28 27  0  0  1  0  0  0  0  0999 V2000
   24.1044  -18.5669  -15.8445 N   0  0  0  0  0  0  0  0  0  0  0  0
   23.1083  -19.1429  -16.6930 C   0  0  1  0  0  0  0  0  0  0  0  0
   23.7135  -20.1763  -17.6765 C   0  0  0  0  0  0  0  0  0  0  0  0
   23.8064  -19.4617  -18.9847 C   0  0  0  0  0  0  0  0  0  0  0  0
   22.8259  -19.9858  -19.9722 C   0  0  0  0  0  0  0  0  0  0  0  0
   21.4740  -19.3486  -19.9760 C   0  0  0  0  0  0  0  0  0  0  0  0
   20.5401  -19.8632  -20.9289 N   0  0  0  0  0  0  0  0  0  0  0  0
   22.0212  -19.8507  -15.9819 C   0  0  0  0  0  0  0  0  0  0  0  0
   21.7147  -21.0040  -16.3591 O   0  0  0  0  0  0  0  0  0  0  0  0
   21.5896  -19.3812  -10.2013 N   0  0  0  0  0  0  0  0  0  0  0  0
   20.3585  -20.0859  -10.2980 C   0  0  0  0  0  0  0  0  0  0  0  0
   19.8034  -20.4739   -9.2408 O   0  0  0  0  0  0  0  0  0  0  0  0
   19.7350  -20.3589  -11.6595 C   0  0  0  0  0  0  0  0  0  0  0  0
   20.6681  -19.8201  -12.6759 C   0  0  0  0  0  0  0  0  0  0  0  0
   20.3418  -20.0606  -14.1003 C   0  0  2  0  0  0  0  0  0  0  0  0
   21.3277  -19.2846  -14.9119 N   0  0  0  0  0  0  0  0  0  0  0  0
   19.0147  -19.6743  -14.5818 C   0  0  0  0  0  0  0  0  0  0  0  0
   18.7815  -18.4161  -14.7326 O   0  0  0  0  0  0  0  0  0  0  0  0
   17.9338  -20.5061  -14.9172 N   0  0  0  0  0  0  0  0  0  0  0  0
   16.5861  -19.9214  -15.2623 C   0  0  1  0  0  0  0  0  0  0  0  0
   15.7117  -20.9845  -15.7542 C   0  0  0  0  0  0  0  0  0  0  0  0
   15.3084  -22.0827  -14.9050 C   0  0  0  0  0  0  0  0  0  0  0  0
   14.4392  -23.2077  -15.2089 C   0  0  0  0  0  0  0  0  0  0  0  0
   14.1609  -24.1942  -14.1106 C   0  0  0  0  0  0  0  0  0  0  0  0
   13.3491  -25.3058  -14.5883 N   0  0  0  0  0  0  0  0  0  0  0  0
   16.1702  -19.5121  -13.8487 C   0  0  0  0  0  0  0  0  0  0  0  0
   16.7711  -20.0744  -12.8576 O   0  0  0  0  0  0  0  0  0  0  0  0
   15.2258  -18.6177  -13.4826 O   0  0  0  0  0  0  0  0  0  0  0  0
  2  1  1  1
  2  3  1  0
  3  4  1  0
  4  5  1  0
  5  6  1  0
  7  6  1  0
  8  2  1  0
  8  9  2  0
 10 11  1  0
 11 13  1  0
 11 12  2  0
 13 14  1  0
 15 14  1  1
 15 16  1  0
 16  8  1  0
 17 15  1  0
 18 17  2  0
 19 17  1  0
 20 19  1  0
 20 26  1  0
 20 21  1  1
 22 23  1  0
 22 21  1  0
 23 24  1  0
 24 25  1  0
 26 28  1  0
 27 26  2  0
M  END
$$$$
