KQK.pdb
     RDKit          3D

 28 27  0  0  1  0  0  0  0  0999 V2000
   24.3290  -19.7965  -16.9271 N   0  0  0  0  0  0  0  0  0  0  0  0
   23.8820  -20.8213  -16.0361 C   0  0  1  0  0  0  0  0  0  0  0  0
   25.0625  -21.6484  -15.4671 C   0  0  0  0  0  0  0  0  0  0  0  0
   25.7092  -22.2754  -16.6586 C   0  0  0  0  0  0  0  0  0  0  0  0
   26.8284  -23.1747  -16.2714 C   0  0  0  0  0  0  0  0  0  0  0  0
   27.6461  -23.7436  -17.3855 C   0  0  0  0  0  0  0  0  0  0  0  0
   28.7949  -24.5016  -16.9974 N   0  0  0  0  0  0  0  0  0  0  0  0
   23.1260  -20.3354  -14.8609 C   0  0  0  0  0  0  0  0  0  0  0  0
   23.4408  -19.2299  -14.3656 O   0  0  0  0  0  0  0  0  0  0  0  0
   20.7832  -17.0409  -15.2418 N   0  0  0  0  0  0  0  0  0  0  0  0
   19.8783  -18.0545  -15.6604 C   0  0  0  0  0  0  0  0  0  0  0  0
   19.2436  -17.8889  -16.7309 O   0  0  0  0  0  0  0  0  0  0  0  0
   19.6903  -19.3103  -14.8210 C   0  0  0  0  0  0  0  0  0  0  0  0
   20.6566  -19.2281  -13.7013 C   0  0  0  0  0  0  0  0  0  0  0  0
   21.2275  -20.4974  -13.1954 C   0  0  2  0  0  0  0  0  0  0  0  0
   22.0808  -21.0587  -14.2861 N   0  0  0  0  0  0  0  0  0  0  0  0
   20.3052  -21.5636  -12.8019 C   0  0  0  0  0  0  0  0  0  0  0  0
   20.0334  -22.4667  -13.6798 O   0  0  0  0  0  0  0  0  0  0  0  0
   19.6633  -21.7479  -11.5663 N   0  0  0  0  0  0  0  0  0  0  0  0
   18.8842  -23.0081  -11.2799 C   0  0  1  0  0  0  0  0  0  0  0  0
   18.8921  -23.2626   -9.8405 C   0  0  0  0  0  0  0  0  0  0  0  0
   18.1514  -24.3626   -9.2649 C   0  0  0  0  0  0  0  0  0  0  0  0
   17.9795  -24.7226   -7.8671 C   0  0  0  0  0  0  0  0  0  0  0  0
   16.9832  -25.7979   -7.5384 C   0  0  0  0  0  0  0  0  0  0  0  0
   16.9112  -26.0343   -6.1025 N   0  0  0  0  0  0  0  0  0  0  0  0
   17.5078  -22.5039  -11.7158 C   0  0  0  0  0  0  0  0  0  0  0  0
   17.2716  -21.2410  -11.6219 O   0  0  0  0  0  0  0  0  0  0  0  0
   16.4693  -23.2226  -12.1963 O   0  0  0  0  0  0  0  0  0  0  0  0
  2  1  1  1
  2  3  1  0
  3  4  1  0
  4  5  1  0
  5  6  1  0
  7  6  1  0
  8  2  1  0
  8  9  2  0
 10 11  1  0
 11 13  1  0
 11 12  2  0
 13 14  1  0
 15 14  1  6
 15 16  1  0
 16  8  1  0
 17 15  1  0
 18 17  2  0
 19 17  1  0
 20 19  1  0
 20 26  1  0
 20 21  1  1
 22 23  1  0
 22 21  1  0
 23 24  1  0
 24 25  1  0
 26 28  1  0
 27 26  2  0
M  END
$$$$
