KQK.pdb
     RDKit          3D

 28 27  0  0  1  0  0  0  0  0999 V2000
   15.7698  -12.6665  -13.6528 N   0  0  0  0  0  0  0  0  0  0  0  0
   15.9744  -11.2612  -13.8180 C   0  0  1  0  0  0  0  0  0  0  0  0
   14.6409  -10.5053  -14.0455 C   0  0  0  0  0  0  0  0  0  0  0  0
   13.9308  -11.2785  -15.1080 C   0  0  0  0  0  0  0  0  0  0  0  0
   12.6073  -10.6840  -15.4338 C   0  0  0  0  0  0  0  0  0  0  0  0
   11.7855  -11.3998  -16.4564 C   0  0  0  0  0  0  0  0  0  0  0  0
   10.5725  -10.7536  -16.8515 N   0  0  0  0  0  0  0  0  0  0  0  0
   16.6284  -10.5906  -12.6729 C   0  0  0  0  0  0  0  0  0  0  0  0
   16.3487  -10.9786  -11.5163 O   0  0  0  0  0  0  0  0  0  0  0  0
   21.5040   -7.0540  -13.2763 N   0  0  0  0  0  0  0  0  0  0  0  0
   21.3041   -6.7587  -11.8999 C   0  0  0  0  0  0  0  0  0  0  0  0
   22.1375   -6.0235  -11.3157 O   0  0  0  0  0  0  0  0  0  0  0  0
   20.1019   -7.3272  -11.1594 C   0  0  0  0  0  0  0  0  0  0  0  0
   19.3878   -8.2092  -12.1114 C   0  0  0  0  0  0  0  0  0  0  0  0
   18.1004   -8.7929  -11.6698 C   0  0  2  0  0  0  0  0  0  0  0  0
   17.5405   -9.5471  -12.8320 N   0  0  0  0  0  0  0  0  0  0  0  0
   17.0454   -7.8834  -11.2202 C   0  0  0  0  0  0  0  0  0  0  0  0
   16.3363   -7.3035  -12.1263 O   0  0  0  0  0  0  0  0  0  0  0  0
   16.6846   -7.5509   -9.9042 N   0  0  0  0  0  0  0  0  0  0  0  0
   15.5945   -6.5435   -9.6321 C   0  0  1  0  0  0  0  0  0  0  0  0
   14.6236   -7.1229   -8.7057 C   0  0  0  0  0  0  0  0  0  0  0  0
   13.3890   -6.4430   -8.3844 C   0  0  0  0  0  0  0  0  0  0  0  0
   12.3355   -6.8378   -7.4638 C   0  0  0  0  0  0  0  0  0  0  0  0
   11.1570   -5.9185   -7.3122 C   0  0  0  0  0  0  0  0  0  0  0  0
   10.1998   -6.4372   -6.3440 N   0  0  0  0  0  0  0  0  0  0  0  0
   16.4509   -5.5019   -8.9108 C   0  0  0  0  0  0  0  0  0  0  0  0
   17.6009   -5.8727   -8.4639 O   0  0  0  0  0  0  0  0  0  0  0  0
   16.1575   -4.2062   -8.6641 O   0  0  0  0  0  0  0  0  0  0  0  0
  2  1  1  1
  2  3  1  0
  3  4  1  0
  4  5  1  0
  5  6  1  0
  7  6  1  0
  8  2  1  0
  8  9  2  0
 10 11  1  0
 11 13  1  0
 11 12  2  0
 13 14  1  0
 15 14  1  6
 15 16  1  0
 16  8  1  0
 17 15  1  0
 18 17  2  0
 19 17  1  0
 20 19  1  0
 20 26  1  0
 20 21  1  1
 22 23  1  0
 22 21  1  0
 23 24  1  0
 24 25  1  0
 26 28  1  0
 27 26  2  0
M  END
$$$$
