KQK.pdb
     RDKit          3D

 28 27  0  0  1  0  0  0  0  0999 V2000
   27.8111  -19.2467  -18.3981 N   0  0  0  0  0  0  0  0  0  0  0  0
   26.7382  -18.5770  -17.7314 C   0  0  1  0  0  0  0  0  0  0  0  0
   25.8091  -17.8388  -18.7281 C   0  0  0  0  0  0  0  0  0  0  0  0
   26.7290  -17.1214  -19.6606 C   0  0  0  0  0  0  0  0  0  0  0  0
   26.9804  -15.7227  -19.2227 C   0  0  0  0  0  0  0  0  0  0  0  0
   27.7460  -14.8531  -20.1667 C   0  0  0  0  0  0  0  0  0  0  0  0
   27.9369  -13.4966  -19.7562 N   0  0  0  0  0  0  0  0  0  0  0  0
   25.8568  -19.4580  -16.9343 C   0  0  0  0  0  0  0  0  0  0  0  0
   25.2167  -20.3550  -17.5278 O   0  0  0  0  0  0  0  0  0  0  0  0
   27.1379  -20.9295  -11.3554 N   0  0  0  0  0  0  0  0  0  0  0  0
   25.8049  -21.4145  -11.2586 C   0  0  0  0  0  0  0  0  0  0  0  0
   25.4537  -22.0015  -10.2058 O   0  0  0  0  0  0  0  0  0  0  0  0
   24.8318  -21.2210  -12.4130 C   0  0  0  0  0  0  0  0  0  0  0  0
   25.5802  -20.5451  -13.4980 C   0  0  0  0  0  0  0  0  0  0  0  0
   24.8492  -20.2475  -14.7511 C   0  0  2  0  0  0  0  0  0  0  0  0
   25.7120  -19.3279  -15.5529 N   0  0  0  0  0  0  0  0  0  0  0  0
   23.5386  -19.6035  -14.6523 C   0  0  0  0  0  0  0  0  0  0  0  0
   23.5136  -18.3552  -14.3341 O   0  0  0  0  0  0  0  0  0  0  0  0
   22.2716  -20.1697  -14.8681 N   0  0  0  0  0  0  0  0  0  0  0  0
   21.0153  -19.3717  -14.6189 C   0  0  1  0  0  0  0  0  0  0  0  0
   19.9856  -19.7849  -15.5706 C   0  0  0  0  0  0  0  0  0  0  0  0
   18.6365  -19.2713  -15.4925 C   0  0  0  0  0  0  0  0  0  0  0  0
   17.4918  -19.5637  -16.3393 C   0  0  0  0  0  0  0  0  0  0  0  0
   16.2001  -18.8576  -16.0393 C   0  0  0  0  0  0  0  0  0  0  0  0
   15.1703  -19.1981  -17.0120 N   0  0  0  0  0  0  0  0  0  0  0  0
   20.6943  -19.9202  -13.2279 C   0  0  0  0  0  0  0  0  0  0  0  0
   21.1185  -21.1005  -12.9334 O   0  0  0  0  0  0  0  0  0  0  0  0
   20.0006  -19.3221  -12.2345 O   0  0  0  0  0  0  0  0  0  0  0  0
  2  1  1  6
  2  3  1  0
  3  4  1  0
  4  5  1  0
  5  6  1  0
  7  6  1  0
  8  2  1  0
  8  9  2  0
 10 11  1  0
 11 13  1  0
 11 12  2  0
 13 14  1  0
 15 14  1  1
 15 16  1  0
 16  8  1  0
 17 15  1  0
 18 17  2  0
 19 17  1  0
 20 19  1  0
 20 26  1  0
 20 21  1  6
 22 23  1  0
 22 21  1  0
 23 24  1  0
 24 25  1  0
 26 28  1  0
 27 26  2  0
M  END
$$$$
