KQK.pdb
     RDKit          3D

 28 27  0  0  1  0  0  0  0  0999 V2000
   25.7288  -22.6610  -14.1176 N   0  0  0  0  0  0  0  0  0  0  0  0
   25.6445  -21.5335  -13.2426 C   0  0  1  0  0  0  0  0  0  0  0  0
   26.4310  -20.3159  -13.7907 C   0  0  0  0  0  0  0  0  0  0  0  0
   26.0438  -20.2174  -15.2298 C   0  0  0  0  0  0  0  0  0  0  0  0
   27.2042  -20.4442  -16.1317 C   0  0  0  0  0  0  0  0  0  0  0  0
   26.9481  -20.3119  -17.5982 C   0  0  0  0  0  0  0  0  0  0  0  0
   28.0540  -20.6015  -18.4572 N   0  0  0  0  0  0  0  0  0  0  0  0
   24.2709  -21.0461  -12.9893 C   0  0  0  0  0  0  0  0  0  0  0  0
   24.1167  -20.0753  -12.2145 O   0  0  0  0  0  0  0  0  0  0  0  0
   23.2164  -19.2153  -15.9341 N   0  0  0  0  0  0  0  0  0  0  0  0
   22.1464  -18.4286  -15.4266 C   0  0  0  0  0  0  0  0  0  0  0  0
   22.1710  -17.1875  -15.6145 O   0  0  0  0  0  0  0  0  0  0  0  0
   20.9997  -19.0871  -14.6726 C   0  0  0  0  0  0  0  0  0  0  0  0
   21.2913  -20.5387  -14.6281 C   0  0  0  0  0  0  0  0  0  0  0  0
   21.7657  -21.1023  -13.3434 C   0  0  2  0  0  0  0  0  0  0  0  0
   23.1460  -21.6243  -13.5779 N   0  0  0  0  0  0  0  0  0  0  0  0
   21.0045  -22.2001  -12.7455 C   0  0  0  0  0  0  0  0  0  0  0  0
   21.1716  -23.3773  -13.2420 O   0  0  0  0  0  0  0  0  0  0  0  0
   20.0984  -22.1491  -11.6736 N   0  0  0  0  0  0  0  0  0  0  0  0
   19.4016  -23.3972  -11.1898 C   0  0  1  0  0  0  0  0  0  0  0  0
   19.0159  -23.2219   -9.7908 C   0  0  0  0  0  0  0  0  0  0  0  0
   18.4728  -24.3146   -9.0156 C   0  0  0  0  0  0  0  0  0  0  0  0
   18.1272  -24.3568   -7.6042 C   0  0  0  0  0  0  0  0  0  0  0  0
   17.5399  -25.6300   -7.0648 C   0  0  0  0  0  0  0  0  0  0  0  0
   17.3525  -25.5588   -5.6217 N   0  0  0  0  0  0  0  0  0  0  0  0
   18.1681  -23.3073  -12.0892 C   0  0  0  0  0  0  0  0  0  0  0  0
   17.5305  -24.3965  -12.3476 O   0  0  0  0  0  0  0  0  0  0  0  0
   17.6397  -22.2097  -12.6740 O   0  0  0  0  0  0  0  0  0  0  0  0
  2  1  1  6
  2  3  1  0
  3  4  1  0
  4  5  1  0
  5  6  1  0
  7  6  1  0
  8  2  1  0
  8  9  2  0
 10 11  1  0
 11 13  1  0
 11 12  2  0
 13 14  1  0
 15 14  1  6
 15 16  1  0
 16  8  1  0
 17 15  1  0
 18 17  2  0
 19 17  1  0
 20 19  1  0
 20 26  1  0
 20 21  1  1
 22 23  1  0
 22 21  1  0
 23 24  1  0
 24 25  1  0
 26 28  1  0
 27 26  2  0
M  END
$$$$
