KQK.pdb
     RDKit          3D

 28 27  0  0  1  0  0  0  0  0999 V2000
   20.9228  -29.1980  -12.4457 N   0  0  0  0  0  0  0  0  0  0  0  0
   20.5480  -29.0272  -11.0766 C   0  0  1  0  0  0  0  0  0  0  0  0
   21.5778  -29.6663  -10.1110 C   0  0  0  0  0  0  0  0  0  0  0  0
   21.5214  -31.1316  -10.3949 C   0  0  0  0  0  0  0  0  0  0  0  0
   22.4937  -31.8934   -9.5670 C   0  0  0  0  0  0  0  0  0  0  0  0
   22.6149  -33.3554   -9.8523 C   0  0  0  0  0  0  0  0  0  0  0  0
   23.6355  -34.0528   -9.1334 N   0  0  0  0  0  0  0  0  0  0  0  0
   20.4070  -27.6199  -10.6429 C   0  0  0  0  0  0  0  0  0  0  0  0
   21.3228  -26.8149  -10.9253 O   0  0  0  0  0  0  0  0  0  0  0  0
   16.8883  -24.0481  -12.2197 N   0  0  0  0  0  0  0  0  0  0  0  0
   17.5681  -23.0683  -11.4456 C   0  0  0  0  0  0  0  0  0  0  0  0
   17.1915  -21.8731  -11.5236 O   0  0  0  0  0  0  0  0  0  0  0  0
   18.7270  -23.4703  -10.5443 C   0  0  0  0  0  0  0  0  0  0  0  0
   18.9196  -24.9289  -10.7159 C   0  0  0  0  0  0  0  0  0  0  0  0
   19.1661  -25.7346   -9.4980 C   0  0  2  0  0  0  0  0  0  0  0  0
   19.2978  -27.1577   -9.9342 N   0  0  0  0  0  0  0  0  0  0  0  0
   18.1548  -25.7184   -8.4401 C   0  0  0  0  0  0  0  0  0  0  0  0
   17.9369  -24.5965   -7.8449 O   0  0  0  0  0  0  0  0  0  0  0  0
   17.3633  -26.7815   -7.9755 N   0  0  0  0  0  0  0  0  0  0  0  0
   16.7200  -26.7283   -6.6115 C   0  0  1  0  0  0  0  0  0  0  0  0
   17.7056  -26.2757   -5.6315 C   0  0  0  0  0  0  0  0  0  0  0  0
   17.3585  -26.0983   -4.2394 C   0  0  0  0  0  0  0  0  0  0  0  0
   17.5175  -27.0220   -3.1282 C   0  0  0  0  0  0  0  0  0  0  0  0
   16.9503  -26.6197   -1.7965 C   0  0  0  0  0  0  0  0  0  0  0  0
   17.1612  -27.6561   -0.7944 N   0  0  0  0  0  0  0  0  0  0  0  0
   15.7159  -25.6113   -6.8999 C   0  0  0  0  0  0  0  0  0  0  0  0
   15.8045  -24.9989   -8.0298 O   0  0  0  0  0  0  0  0  0  0  0  0
   14.7200  -25.1590   -6.1066 O   0  0  0  0  0  0  0  0  0  0  0  0
  2  1  1  6
  2  3  1  0
  3  4  1  0
  4  5  1  0
  5  6  1  0
  7  6  1  0
  8  2  1  0
  8  9  2  0
 10 11  1  0
 11 13  1  0
 11 12  2  0
 13 14  1  0
 15 14  1  6
 15 16  1  0
 16  8  1  0
 17 15  1  0
 18 17  2  0
 19 17  1  0
 20 19  1  0
 20 26  1  0
 20 21  1  1
 22 23  1  0
 22 21  1  0
 23 24  1  0
 24 25  1  0
 26 28  1  0
 27 26  2  0
M  END
$$$$
