KQK.pdb
     RDKit          3D

 28 27  0  0  1  0  0  0  0  0999 V2000
   25.2140  -22.3677  -15.5819 N   0  0  0  0  0  0  0  0  0  0  0  0
   25.4869  -21.6691  -14.3648 C   0  0  1  0  0  0  0  0  0  0  0  0
   26.4508  -20.4760  -14.5863 C   0  0  0  0  0  0  0  0  0  0  0  0
   27.5872  -21.0347  -15.3782 C   0  0  0  0  0  0  0  0  0  0  0  0
   27.3723  -20.8772  -16.8412 C   0  0  0  0  0  0  0  0  0  0  0  0
   28.5176  -21.2428  -17.7292 C   0  0  0  0  0  0  0  0  0  0  0  0
   29.4211  -22.2252  -17.2160 N   0  0  0  0  0  0  0  0  0  0  0  0
   24.2957  -21.1063  -13.6919 C   0  0  0  0  0  0  0  0  0  0  0  0
   24.4420  -20.0953  -12.9687 O   0  0  0  0  0  0  0  0  0  0  0  0
   22.0514  -17.3698  -15.5318 N   0  0  0  0  0  0  0  0  0  0  0  0
   20.8542  -17.5021  -14.7764 C   0  0  0  0  0  0  0  0  0  0  0  0
   20.0166  -16.5673  -14.8088 O   0  0  0  0  0  0  0  0  0  0  0  0
   20.6028  -18.7548  -13.9490 C   0  0  0  0  0  0  0  0  0  0  0  0
   21.7850  -19.6301  -14.1236 C   0  0  0  0  0  0  0  0  0  0  0  0
   21.7870  -20.9278  -13.4101 C   0  0  2  0  0  0  0  0  0  0  0  0
   23.0215  -21.6568  -13.8315 N   0  0  0  0  0  0  0  0  0  0  0  0
   20.6683  -21.8442  -13.6359 C   0  0  0  0  0  0  0  0  0  0  0  0
   20.5255  -22.3247  -14.8228 O   0  0  0  0  0  0  0  0  0  0  0  0
   19.7075  -22.2895  -12.7133 N   0  0  0  0  0  0  0  0  0  0  0  0
   18.5908  -23.2092  -13.1428 C   0  0  1  0  0  0  0  0  0  0  0  0
   17.9833  -23.8146  -11.9591 C   0  0  0  0  0  0  0  0  0  0  0  0
   18.0820  -25.2340  -11.7030 C   0  0  0  0  0  0  0  0  0  0  0  0
   18.8102  -25.9298  -10.6547 C   0  0  0  0  0  0  0  0  0  0  0  0
   18.5676  -27.4036  -10.4934 C   0  0  0  0  0  0  0  0  0  0  0  0
   19.5052  -27.9958   -9.5484 N   0  0  0  0  0  0  0  0  0  0  0  0
   17.6589  -22.1453  -13.7247 C   0  0  0  0  0  0  0  0  0  0  0  0
   17.9076  -20.9115  -13.4497 O   0  0  0  0  0  0  0  0  0  0  0  0
   16.5727  -22.3254  -14.5079 O   0  0  0  0  0  0  0  0  0  0  0  0
  2  1  1  6
  2  3  1  0
  3  4  1  0
  4  5  1  0
  5  6  1  0
  7  6  1  0
  8  2  1  0
  8  9  2  0
 10 11  1  0
 11 13  1  0
 11 12  2  0
 13 14  1  0
 15 14  1  6
 15 16  1  0
 16  8  1  0
 17 15  1  0
 18 17  2  0
 19 17  1  0
 20 19  1  0
 20 26  1  0
 20 21  1  1
 22 23  1  0
 22 21  1  0
 23 24  1  0
 24 25  1  0
 26 28  1  0
 27 26  2  0
M  END
$$$$
