KQK.pdb
     RDKit          3D

 28 27  0  0  1  0  0  0  0  0999 V2000
   27.4912  -18.6941  -18.2705 N   0  0  0  0  0  0  0  0  0  0  0  0
   26.3311  -18.0685  -17.7167 C   0  0  1  0  0  0  0  0  0  0  0  0
   25.6453  -17.1196  -18.7321 C   0  0  0  0  0  0  0  0  0  0  0  0
   26.7436  -16.2583  -19.2639 C   0  0  0  0  0  0  0  0  0  0  0  0
   26.3526  -14.8241  -19.3023 C   0  0  0  0  0  0  0  0  0  0  0  0
   27.3715  -13.8665  -19.8298 C   0  0  0  0  0  0  0  0  0  0  0  0
   27.0026  -12.4849  -19.8130 N   0  0  0  0  0  0  0  0  0  0  0  0
   25.2784  -19.0039  -17.2636 C   0  0  0  0  0  0  0  0  0  0  0  0
   24.6428  -19.6492  -18.1274 O   0  0  0  0  0  0  0  0  0  0  0  0
   25.7291  -22.3842  -12.4777 N   0  0  0  0  0  0  0  0  0  0  0  0
   24.8655  -23.1407  -13.3164 C   0  0  0  0  0  0  0  0  0  0  0  0
   24.7296  -24.3679  -13.0887 O   0  0  0  0  0  0  0  0  0  0  0  0
   24.1259  -22.4672  -14.4638 C   0  0  0  0  0  0  0  0  0  0  0  0
   24.5366  -21.0441  -14.4640 C   0  0  0  0  0  0  0  0  0  0  0  0
   23.9132  -20.1520  -15.4684 C   0  0  2  0  0  0  0  0  0  0  0  0
   24.9681  -19.1934  -15.9168 N   0  0  0  0  0  0  0  0  0  0  0  0
   22.7657  -19.3416  -15.0577 C   0  0  0  0  0  0  0  0  0  0  0  0
   22.8987  -18.6180  -14.0000 O   0  0  0  0  0  0  0  0  0  0  0  0
   21.5090  -19.2350  -15.6758 N   0  0  0  0  0  0  0  0  0  0  0  0
   20.2586  -19.0312  -14.8558 C   0  0  1  0  0  0  0  0  0  0  0  0
   19.1338  -19.6849  -15.5224 C   0  0  0  0  0  0  0  0  0  0  0  0
   17.8232  -19.7360  -14.9144 C   0  0  0  0  0  0  0  0  0  0  0  0
   16.6093  -20.3710  -15.4006 C   0  0  0  0  0  0  0  0  0  0  0  0
   15.3444  -20.1539  -14.6196 C   0  0  0  0  0  0  0  0  0  0  0  0
   14.2138  -20.8311  -15.2409 N   0  0  0  0  0  0  0  0  0  0  0  0
   20.6824  -19.8390  -13.6284 C   0  0  0  0  0  0  0  0  0  0  0  0
   20.8028  -19.2140  -12.5083 O   0  0  0  0  0  0  0  0  0  0  0  0
   20.9623  -21.1588  -13.5537 O   0  0  0  0  0  0  0  0  0  0  0  0
  2  1  1  6
  2  3  1  0
  3  4  1  0
  4  5  1  0
  5  6  1  0
  7  6  1  0
  8  2  1  0
  8  9  2  0
 10 11  1  0
 11 13  1  0
 11 12  2  0
 13 14  1  0
 15 14  1  1
 15 16  1  0
 16  8  1  0
 17 15  1  0
 18 17  2  0
 19 17  1  0
 20 19  1  0
 20 26  1  0
 20 21  1  6
 22 23  1  0
 22 21  1  0
 23 24  1  0
 24 25  1  0
 26 28  1  0
 27 26  2  0
M  END
$$$$
