EII.pdb
     RDKit          3D

 26 25  0  0  1  0  0  0  0  0999 V2000
    9.8030  -15.6603   19.9840 N   0  0  0  0  0  0  0  0  0  0  0  0
    9.5508  -16.5118   21.0895 C   0  0  1  0  0  0  0  0  0  0  0  0
   10.3873  -17.7402   21.0620 C   0  0  0  0  0  0  0  0  0  0  0  0
    9.9018  -18.8180   20.1743 C   0  0  0  0  0  0  0  0  0  0  0  0
   10.6435  -20.0705   20.1393 C   0  0  0  0  0  0  0  0  0  0  0  0
   10.3576  -21.0160   19.4030 O   0  0  0  0  0  0  0  0  0  0  0  0
    9.6907  -15.7608   22.3660 C   0  0  0  0  0  0  0  0  0  0  0  0
   10.7789  -15.0937   22.5826 O   0  0  0  0  0  0  0  0  0  0  0  0
   11.7658  -20.2727   20.9754 O   0  0  0  0  0  0  0  0  0  0  0  0
    5.7571  -12.8113   24.4071 C   0  0  0  0  0  0  0  0  0  0  0  0
    7.1128  -13.3382   24.0513 C   0  0  0  0  0  0  0  0  0  0  0  0
    7.6698  -14.3309   24.9867 C   0  0  2  0  0  0  0  0  0  0  0  0
    7.8118  -13.6687   26.3480 C   0  0  0  0  0  0  0  0  0  0  0  0
    8.9995  -14.9369   24.6466 C   0  0  2  0  0  0  0  0  0  0  0  0
    8.7410  -15.6975   23.3926 N   0  0  0  0  0  0  0  0  0  0  0  0
    9.3841  -15.9171   25.6738 C   0  0  0  0  0  0  0  0  0  0  0  0
    9.6004  -17.1324   25.3163 O   0  0  0  0  0  0  0  0  0  0  0  0
   10.1594  -13.4787   30.2464 C   0  0  0  0  0  0  0  0  0  0  0  0
   10.8839  -14.1952   29.1581 C   0  0  0  0  0  0  0  0  0  0  0  0
   10.7834  -15.6748   29.1682 C   0  0  2  0  0  0  0  0  0  0  0  0
   11.9635  -16.3433   29.8406 C   0  0  0  0  0  0  0  0  0  0  0  0
   10.5633  -16.3325   27.8391 C   0  0  2  0  0  0  0  0  0  0  0  0
    9.5493  -15.6672   27.0461 N   0  0  0  0  0  0  0  0  0  0  0  0
   10.3109  -17.7841   27.9590 C   0  0  0  0  0  0  0  0  0  0  0  0
    9.1727  -18.2283   28.2175 O   0  0  0  0  0  0  0  0  0  0  0  0
   11.3467  -18.6770   27.7847 O   0  0  0  0  0  0  0  0  0  0  0  0
  2  1  1  6
  2  3  1  0
  4  3  1  0
  4  5  1  0
  5  9  1  0
  6  5  2  0
  7  2  1  0
  8  7  2  0
 10 11  1  0
 11 12  1  0
 12 14  1  0
 12 13  1  1
 14 15  1  6
 15  7  1  0
 16 17  2  0
 16 14  1  0
 18 19  1  0
 19 20  1  0
 20 22  1  0
 20 21  1  6
 22 23  1  1
 23 16  1  0
 24 22  1  0
 25 24  2  0
 26 24  1  0
M  END
$$$$
