EII.pdb
     RDKit          3D

 26 25  0  0  1  0  0  0  0  0999 V2000
   11.9622  -16.3494   18.8127 N   0  0  0  0  0  0  0  0  0  0  0  0
   11.8972  -17.0294   20.0555 C   0  0  1  0  0  0  0  0  0  0  0  0
   13.2291  -17.5055   20.5122 C   0  0  0  0  0  0  0  0  0  0  0  0
   13.6243  -18.8446   20.0263 C   0  0  0  0  0  0  0  0  0  0  0  0
   14.8950  -19.3952   20.4761 C   0  0  0  0  0  0  0  0  0  0  0  0
   15.3748  -20.4475   20.0513 O   0  0  0  0  0  0  0  0  0  0  0  0
   11.2187  -16.1845   21.0748 C   0  0  0  0  0  0  0  0  0  0  0  0
   11.6807  -14.9984   21.3114 O   0  0  0  0  0  0  0  0  0  0  0  0
   15.6683  -18.7294   21.4550 O   0  0  0  0  0  0  0  0  0  0  0  0
    6.4052  -14.8283   20.4207 C   0  0  0  0  0  0  0  0  0  0  0  0
    7.8272  -14.9107   20.8823 C   0  0  0  0  0  0  0  0  0  0  0  0
    8.0239  -15.4969   22.2197 C   0  0  2  0  0  0  0  0  0  0  0  0
    7.2189  -14.6784   23.2166 C   0  0  0  0  0  0  0  0  0  0  0  0
    9.4276  -15.5791   22.7430 C   0  0  2  0  0  0  0  0  0  0  0  0
   10.0982  -16.5472   21.8315 N   0  0  0  0  0  0  0  0  0  0  0  0
    9.4303  -16.1787   24.0863 C   0  0  0  0  0  0  0  0  0  0  0  0
    9.7632  -17.4138   24.2095 O   0  0  0  0  0  0  0  0  0  0  0  0
   10.3767  -13.5131   29.6462 C   0  0  0  0  0  0  0  0  0  0  0  0
   10.5642  -14.6371   28.6849 C   0  0  0  0  0  0  0  0  0  0  0  0
    9.8807  -14.5003   27.3758 C   0  0  2  0  0  0  0  0  0  0  0  0
    8.4612  -13.9892   27.5003 C   0  0  0  0  0  0  0  0  0  0  0  0
    9.8680  -15.7204   26.5049 C   0  0  2  0  0  0  0  0  0  0  0  0
    9.1015  -15.5331   25.2895 N   0  0  0  0  0  0  0  0  0  0  0  0
    9.4582  -16.9368   27.2382 C   0  0  0  0  0  0  0  0  0  0  0  0
   10.1601  -17.4121   28.1553 O   0  0  0  0  0  0  0  0  0  0  0  0
    8.2779  -17.5698   26.9112 O   0  0  0  0  0  0  0  0  0  0  0  0
  2  1  1  6
  2  3  1  0
  4  3  1  0
  4  5  1  0
  5  9  1  0
  6  5  2  0
  7  2  1  0
  8  7  2  0
 10 11  1  0
 11 12  1  0
 12 14  1  0
 12 13  1  1
 14 15  1  6
 15  7  1  0
 16 17  2  0
 16 14  1  0
 18 19  1  0
 19 20  1  0
 20 22  1  0
 20 21  1  1
 22 23  1  6
 23 16  1  0
 24 22  1  0
 25 24  2  0
 26 24  1  0
M  END
$$$$
