EII.pdb
     RDKit          3D

 26 25  0  0  1  0  0  0  0  0999 V2000
    8.0359  -14.7729   20.2146 N   0  0  0  0  0  0  0  0  0  0  0  0
    7.3992  -15.3823   21.3255 C   0  0  1  0  0  0  0  0  0  0  0  0
    7.2841  -16.8566   21.1750 C   0  0  0  0  0  0  0  0  0  0  0  0
    6.5208  -17.3156   19.9951 C   0  0  0  0  0  0  0  0  0  0  0  0
    6.2194  -18.7352   19.8771 C   0  0  0  0  0  0  0  0  0  0  0  0
    5.0808  -19.2017   19.9402 O   0  0  0  0  0  0  0  0  0  0  0  0
    8.0789  -14.9944   22.5907 C   0  0  0  0  0  0  0  0  0  0  0  0
    9.3666  -14.8601   22.5926 O   0  0  0  0  0  0  0  0  0  0  0  0
    7.2508  -19.6818   19.6779 O   0  0  0  0  0  0  0  0  0  0  0  0
    5.6756  -11.5617   26.0236 C   0  0  0  0  0  0  0  0  0  0  0  0
    6.7224  -12.2691   25.2200 C   0  0  0  0  0  0  0  0  0  0  0  0
    7.2404  -13.5140   25.8142 C   0  0  2  0  0  0  0  0  0  0  0  0
    7.9089  -13.1641   27.1342 C   0  0  0  0  0  0  0  0  0  0  0  0
    8.2288  -14.3081   25.0123 C   0  0  2  0  0  0  0  0  0  0  0  0
    7.4548  -14.7525   23.8201 N   0  0  0  0  0  0  0  0  0  0  0  0
    8.6183  -15.5200   25.7497 C   0  0  0  0  0  0  0  0  0  0  0  0
    7.7128  -16.3863   26.0343 O   0  0  0  0  0  0  0  0  0  0  0  0
   12.8995  -19.7741   25.5152 C   0  0  0  0  0  0  0  0  0  0  0  0
   11.8065  -19.1467   26.3115 C   0  0  0  0  0  0  0  0  0  0  0  0
   11.3888  -17.7866   25.8927 C   0  0  2  0  0  0  0  0  0  0  0  0
   12.5342  -16.7971   25.8690 C   0  0  0  0  0  0  0  0  0  0  0  0
   10.2546  -17.1767   26.6603 C   0  0  2  0  0  0  0  0  0  0  0  0
    9.9103  -15.8497   26.1911 N   0  0  0  0  0  0  0  0  0  0  0  0
   10.4758  -17.2092   28.1215 C   0  0  0  0  0  0  0  0  0  0  0  0
   10.7050  -16.1662   28.7690 O   0  0  0  0  0  0  0  0  0  0  0  0
   10.4314  -18.4111   28.7953 O   0  0  0  0  0  0  0  0  0  0  0  0
  2  1  1  6
  2  3  1  0
  4  3  1  0
  4  5  1  0
  5  9  1  0
  6  5  2  0
  7  2  1  0
  8  7  2  0
 10 11  1  0
 11 12  1  0
 12 14  1  0
 12 13  1  1
 14 15  1  6
 15  7  1  0
 16 17  2  0
 16 14  1  0
 18 19  1  0
 19 20  1  0
 20 22  1  0
 20 21  1  1
 22 23  1  6
 23 16  1  0
 24 22  1  0
 25 24  2  0
 26 24  1  0
M  END
$$$$
