EII.pdb
     RDKit          3D

 26 25  0  0  1  0  0  0  0  0999 V2000
   11.2722  -17.0961   18.9322 N   0  0  0  0  0  0  0  0  0  0  0  0
   11.6849  -17.3418   20.2665 C   0  0  1  0  0  0  0  0  0  0  0  0
   13.1609  -17.4661   20.3900 C   0  0  0  0  0  0  0  0  0  0  0  0
   13.6701  -18.8452   20.5458 C   0  0  0  0  0  0  0  0  0  0  0  0
   14.6230  -19.1131   21.6137 C   0  0  0  0  0  0  0  0  0  0  0  0
   15.8321  -19.2636   21.4315 O   0  0  0  0  0  0  0  0  0  0  0  0
   11.1257  -16.3106   21.1813 C   0  0  0  0  0  0  0  0  0  0  0  0
   11.9258  -15.4343   21.6988 O   0  0  0  0  0  0  0  0  0  0  0  0
   14.1960  -19.2177   22.9577 O   0  0  0  0  0  0  0  0  0  0  0  0
    6.8201  -13.5053   19.7803 C   0  0  0  0  0  0  0  0  0  0  0  0
    8.1243  -13.9224   20.3863 C   0  0  0  0  0  0  0  0  0  0  0  0
    8.0250  -14.6180   21.6814 C   0  0  2  0  0  0  0  0  0  0  0  0
    7.2742  -13.7138   22.6461 C   0  0  0  0  0  0  0  0  0  0  0  0
    9.3041  -15.0206   22.3540 C   0  0  2  0  0  0  0  0  0  0  0  0
    9.7829  -16.1833   21.5560 N   0  0  0  0  0  0  0  0  0  0  0  0
    9.0259  -15.5146   23.7114 C   0  0  0  0  0  0  0  0  0  0  0  0
    8.7363  -16.7568   23.8682 O   0  0  0  0  0  0  0  0  0  0  0  0
   10.6416  -13.8016   29.5121 C   0  0  0  0  0  0  0  0  0  0  0  0
   10.2447  -14.8267   28.5050 C   0  0  0  0  0  0  0  0  0  0  0  0
    9.8701  -14.3163   27.1638 C   0  0  2  0  0  0  0  0  0  0  0  0
    8.8616  -13.1888   27.2204 C   0  0  0  0  0  0  0  0  0  0  0  0
    9.3819  -15.3366   26.1798 C   0  0  2  0  0  0  0  0  0  0  0  0
    9.0432  -14.7586   24.8950 N   0  0  0  0  0  0  0  0  0  0  0  0
    8.2861  -16.1682   26.7211 C   0  0  0  0  0  0  0  0  0  0  0  0
    8.5044  -17.0694   27.5576 O   0  0  0  0  0  0  0  0  0  0  0  0
    6.9908  -15.9543   26.3004 O   0  0  0  0  0  0  0  0  0  0  0  0
  2  1  1  6
  2  3  1  0
  4  3  1  0
  4  5  1  0
  5  9  1  0
  6  5  2  0
  7  2  1  0
  8  7  2  0
 10 11  1  0
 11 12  1  0
 12 14  1  0
 12 13  1  1
 14 15  1  6
 15  7  1  0
 16 17  2  0
 16 14  1  0
 18 19  1  0
 19 20  1  0
 20 22  1  0
 20 21  1  1
 22 23  1  6
 23 16  1  0
 24 22  1  0
 25 24  2  0
 26 24  1  0
M  END
$$$$
