EII.pdb
     RDKit          3D

 26 25  0  0  1  0  0  0  0  0999 V2000
   10.4176  -18.4324   19.9914 N   0  0  0  0  0  0  0  0  0  0  0  0
   11.4136  -17.6087   20.5749 C   0  0  1  0  0  0  0  0  0  0  0  0
   12.5501  -17.3522   19.6519 C   0  0  0  0  0  0  0  0  0  0  0  0
   13.1573  -18.5554   19.0445 C   0  0  0  0  0  0  0  0  0  0  0  0
   14.3837  -18.3968   18.2756 C   0  0  0  0  0  0  0  0  0  0  0  0
   15.4802  -18.1463   18.7784 O   0  0  0  0  0  0  0  0  0  0  0  0
   10.8100  -16.3511   21.0919 C   0  0  0  0  0  0  0  0  0  0  0  0
   11.5899  -15.4305   21.5613 O   0  0  0  0  0  0  0  0  0  0  0  0
   14.3791  -18.5262   16.8675 O   0  0  0  0  0  0  0  0  0  0  0  0
    6.9037  -13.4623   18.7755 C   0  0  0  0  0  0  0  0  0  0  0  0
    8.0924  -13.8174   19.6140 C   0  0  0  0  0  0  0  0  0  0  0  0
    7.7840  -14.3847   20.9384 C   0  0  2  0  0  0  0  0  0  0  0  0
    7.0019  -13.3456   21.7261 C   0  0  0  0  0  0  0  0  0  0  0  0
    8.9373  -14.8163   21.7953 C   0  0  2  0  0  0  0  0  0  0  0  0
    9.4440  -16.0474   21.1279 N   0  0  0  0  0  0  0  0  0  0  0  0
    8.4546  -15.2151   23.1265 C   0  0  0  0  0  0  0  0  0  0  0  0
    8.5023  -16.4571   23.4531 O   0  0  0  0  0  0  0  0  0  0  0  0
    7.7234  -12.4819   28.7115 C   0  0  0  0  0  0  0  0  0  0  0  0
    7.8576  -13.6975   27.8589 C   0  0  0  0  0  0  0  0  0  0  0  0
    7.7031  -13.4932   26.3981 C   0  0  2  0  0  0  0  0  0  0  0  0
    6.3349  -12.9704   26.0154 C   0  0  0  0  0  0  0  0  0  0  0  0
    8.0176  -14.6726   25.5277 C   0  0  2  0  0  0  0  0  0  0  0  0
    7.9319  -14.3645   24.1144 N   0  0  0  0  0  0  0  0  0  0  0  0
    7.2254  -15.8686   25.8846 C   0  0  0  0  0  0  0  0  0  0  0  0
    6.1075  -16.0861   25.3722 O   0  0  0  0  0  0  0  0  0  0  0  0
    7.7204  -16.7704   26.8023 O   0  0  0  0  0  0  0  0  0  0  0  0
  2  1  1  6
  2  3  1  0
  4  3  1  0
  4  5  1  0
  5  9  1  0
  6  5  2  0
  7  2  1  0
  8  7  2  0
 10 11  1  0
 11 12  1  0
 12 14  1  0
 12 13  1  1
 14 15  1  6
 15  7  1  0
 16 17  2  0
 16 14  1  0
 18 19  1  0
 19 20  1  0
 20 22  1  0
 20 21  1  1
 22 23  1  6
 23 16  1  0
 24 22  1  0
 25 24  2  0
 26 24  1  0
M  END
$$$$
