EII.pdb
     RDKit          3D

 26 25  0  0  1  0  0  0  0  0999 V2000
    7.0624  -17.7089   20.8117 N   0  0  0  0  0  0  0  0  0  0  0  0
    7.3684  -17.8452   22.1897 C   0  0  1  0  0  0  0  0  0  0  0  0
    8.1465  -19.0782   22.4788 C   0  0  0  0  0  0  0  0  0  0  0  0
    7.3932  -20.3449   22.3628 C   0  0  0  0  0  0  0  0  0  0  0  0
    8.0884  -21.5910   22.6533 C   0  0  0  0  0  0  0  0  0  0  0  0
    7.5726  -22.7046   22.5459 O   0  0  0  0  0  0  0  0  0  0  0  0
    8.0425  -16.6194   22.6956 C   0  0  0  0  0  0  0  0  0  0  0  0
    9.0463  -16.1397   22.0335 O   0  0  0  0  0  0  0  0  0  0  0  0
    9.4341  -21.5867   23.0875 O   0  0  0  0  0  0  0  0  0  0  0  0
    5.2889  -13.0422   25.8263 C   0  0  0  0  0  0  0  0  0  0  0  0
    6.2159  -13.5567   24.7689 C   0  0  0  0  0  0  0  0  0  0  0  0
    7.5294  -14.0186   25.2511 C   0  0  2  0  0  0  0  0  0  0  0  0
    8.2744  -12.8181   25.8129 C   0  0  0  0  0  0  0  0  0  0  0  0
    8.4394  -14.6824   24.2602 C   0  0  2  0  0  0  0  0  0  0  0  0
    7.6972  -15.9065   23.8498 N   0  0  0  0  0  0  0  0  0  0  0  0
    9.6717  -15.1290   24.9282 C   0  0  0  0  0  0  0  0  0  0  0  0
   10.7644  -14.4940   24.6949 O   0  0  0  0  0  0  0  0  0  0  0  0
   11.1525  -13.7268   29.9221 C   0  0  0  0  0  0  0  0  0  0  0  0
   11.4548  -14.8170   28.9512 C   0  0  0  0  0  0  0  0  0  0  0  0
   10.5036  -14.9724   27.8239 C   0  0  2  0  0  0  0  0  0  0  0  0
    9.0553  -14.9355   28.2627 C   0  0  0  0  0  0  0  0  0  0  0  0
   10.7016  -16.1756   26.9518 C   0  0  2  0  0  0  0  0  0  0  0  0
    9.7936  -16.2047   25.8230 N   0  0  0  0  0  0  0  0  0  0  0  0
   10.6783  -17.4407   27.7162 C   0  0  0  0  0  0  0  0  0  0  0  0
   11.5537  -17.7038   28.5672 O   0  0  0  0  0  0  0  0  0  0  0  0
    9.6739  -18.3583   27.4934 O   0  0  0  0  0  0  0  0  0  0  0  0
  2  1  1  6
  2  3  1  0
  4  3  1  0
  4  5  1  0
  5  9  1  0
  6  5  2  0
  7  2  1  0
  8  7  2  0
 10 11  1  0
 11 12  1  0
 12 14  1  0
 12 13  1  6
 14 15  1  1
 15  7  1  0
 16 17  2  0
 16 14  1  0
 18 19  1  0
 19 20  1  0
 20 22  1  0
 20 21  1  1
 22 23  1  6
 23 16  1  0
 24 22  1  0
 25 24  2  0
 26 24  1  0
M  END
$$$$
