EII.pdb
     RDKit          3D

 26 25  0  0  1  0  0  0  0  0999 V2000
   12.5205  -16.5712   19.3292 N   0  0  0  0  0  0  0  0  0  0  0  0
   11.9913  -17.3039   20.4219 C   0  0  1  0  0  0  0  0  0  0  0  0
   13.0017  -18.1950   21.0501 C   0  0  0  0  0  0  0  0  0  0  0  0
   13.6115  -19.1959   20.1491 C   0  0  0  0  0  0  0  0  0  0  0  0
   14.1758  -20.4022   20.7380 C   0  0  0  0  0  0  0  0  0  0  0  0
   13.4984  -21.3070   21.2283 O   0  0  0  0  0  0  0  0  0  0  0  0
   11.3585  -16.3847   21.4056 C   0  0  0  0  0  0  0  0  0  0  0  0
   11.9983  -15.3185   21.7661 O   0  0  0  0  0  0  0  0  0  0  0  0
   15.5747  -20.6035   20.7790 O   0  0  0  0  0  0  0  0  0  0  0  0
    6.3662  -14.8300   20.8510 C   0  0  0  0  0  0  0  0  0  0  0  0
    7.8093  -14.8162   21.2502 C   0  0  0  0  0  0  0  0  0  0  0  0
    8.1090  -15.4291   22.5561 C   0  0  2  0  0  0  0  0  0  0  0  0
    7.4132  -14.6107   23.6321 C   0  0  0  0  0  0  0  0  0  0  0  0
    9.5509  -15.5500   22.9527 C   0  0  2  0  0  0  0  0  0  0  0  0
   10.1046  -16.5557   22.0041 N   0  0  0  0  0  0  0  0  0  0  0  0
    9.6558  -16.1265   24.3020 C   0  0  0  0  0  0  0  0  0  0  0  0
    9.7767  -17.4004   24.4206 O   0  0  0  0  0  0  0  0  0  0  0  0
   10.1434  -12.6800   28.6662 C   0  0  0  0  0  0  0  0  0  0  0  0
   10.5134  -13.7491   27.6953 C   0  0  0  0  0  0  0  0  0  0  0  0
    9.9140  -15.0849   27.9321 C   0  0  2  0  0  0  0  0  0  0  0  0
   10.4767  -15.7775   29.1549 C   0  0  0  0  0  0  0  0  0  0  0  0
    9.9623  -16.0454   26.7821 C   0  0  2  0  0  0  0  0  0  0  0  0
    9.6402  -15.4195   25.5156 N   0  0  0  0  0  0  0  0  0  0  0  0
    9.1547  -17.2600   27.0228 C   0  0  0  0  0  0  0  0  0  0  0  0
    7.9345  -17.2938   26.7591 O   0  0  0  0  0  0  0  0  0  0  0  0
    9.7501  -18.3861   27.5501 O   0  0  0  0  0  0  0  0  0  0  0  0
  2  1  1  6
  2  3  1  0
  4  3  1  0
  4  5  1  0
  5  9  1  0
  6  5  2  0
  7  2  1  0
  8  7  2  0
 10 11  1  0
 11 12  1  0
 12 14  1  0
 12 13  1  1
 14 15  1  6
 15  7  1  0
 16 17  2  0
 16 14  1  0
 18 19  1  0
 19 20  1  0
 20 22  1  0
 20 21  1  1
 22 23  1  6
 23 16  1  0
 24 22  1  0
 25 24  2  0
 26 24  1  0
M  END
$$$$
