IWN.pdb
     RDKit          3D

 31 32  0  0  1  0  0  0  0  0999 V2000
    8.2081  -15.5556   16.4986 C   0  0  0  0  0  0  0  0  0  0  0  0
    7.4968  -15.2724   17.7817 C   0  0  0  0  0  0  0  0  0  0  0  0
    8.3980  -15.0588   18.9752 C   0  0  2  0  0  0  0  0  0  0  0  0
    9.1430  -16.3908   19.1572 C   0  0  0  0  0  0  0  0  0  0  0  0
    7.5222  -14.8877   20.1993 C   0  0  2  0  0  0  0  0  0  0  0  0
    6.8722  -13.5827   20.0188 N   0  0  0  0  0  0  0  0  0  0  0  0
    8.2362  -14.8700   21.4710 C   0  0  0  0  0  0  0  0  0  0  0  0
    8.9938  -13.8694   21.7405 O   0  0  0  0  0  0  0  0  0  0  0  0
    8.2073  -15.8452   22.4950 N   0  0  0  0  0  0  0  0  0  0  0  0
    9.0174  -15.8271   23.6916 C   0  0  1  0  0  0  0  0  0  0  0  0
    8.3054  -16.1730   24.9518 C   0  0  0  0  0  0  0  0  0  0  0  0
    7.2233  -15.2939   25.3709 C   0  0  0  0  0  0  0  0  0  0  0  0
    5.8873  -15.5967   25.3957 C   0  0  0  0  0  0  0  0  0  0  0  0
    5.2159  -14.5235   25.8289 N   0  0  0  0  0  0  0  0  0  0  0  0
    6.0526  -13.5050   26.0983 C   0  0  0  0  0  0  0  0  0  0  0  0
    5.8587  -12.2187   26.5625 C   0  0  0  0  0  0  0  0  0  0  0  0
    6.9217  -11.3612   26.7597 C   0  0  0  0  0  0  0  0  0  0  0  0
    8.1893  -11.8252   26.4793 C   0  0  0  0  0  0  0  0  0  0  0  0
    8.3657  -13.1056   26.0185 C   0  0  0  0  0  0  0  0  0  0  0  0
    7.3244  -13.9927   25.8086 C   0  0  0  0  0  0  0  0  0  0  0  0
   10.3074  -16.5341   23.5019 C   0  0  0  0  0  0  0  0  0  0  0  0
   10.3396  -17.6666   22.9039 O   0  0  0  0  0  0  0  0  0  0  0  0
   15.4307  -16.7290   21.8303 N   0  0  0  0  0  0  0  0  0  0  0  0
   15.0945  -16.1231   23.0717 C   0  0  0  0  0  0  0  0  0  0  0  0
   16.0013  -16.0455   23.9217 O   0  0  0  0  0  0  0  0  0  0  0  0
   13.7543  -15.6269   23.3137 C   0  0  0  0  0  0  0  0  0  0  0  0
   12.7760  -16.6996   23.7323 C   0  0  2  0  0  0  0  0  0  0  0  0
   11.5097  -15.9650   23.9778 N   0  0  0  0  0  0  0  0  0  0  0  0
   13.1889  -17.3564   24.9723 C   0  0  0  0  0  0  0  0  0  0  0  0
   12.5733  -17.2422   26.1936 O   0  0  0  0  0  0  0  0  0  0  0  0
   14.2163  -18.1134   24.9478 O   0  0  0  0  0  0  0  0  0  0  0  0
  2  1  1  0
  3  2  1  0
  3  4  1  1
  5  7  1  0
  5  3  1  0
  5  6  1  6
  7  8  2  0
  9  7  1  0
 10  9  1  0
 10 11  1  1
 12 13  2  0
 12 11  1  0
 14 13  1  0
 15 20  2  0
 15 14  1  0
 16 15  1  0
 17 18  1  0
 17 16  2  0
 18 19  2  0
 19 20  1  0
 20 12  1  0
 21 10  1  0
 22 21  2  0
 23 24  1  0
 24 26  1  0
 25 24  2  0
 27 26  1  1
 27 28  1  0
 28 21  1  0
 29 27  1  0
 29 30  1  0
 31 29  2  0
M  END
$$$$
