IWN.pdb
     RDKit          3D

 31 32  0  0  1  0  0  0  0  0999 V2000
    6.7043  -12.5723   18.9215 C   0  0  0  0  0  0  0  0  0  0  0  0
    7.2721  -13.8444   19.4616 C   0  0  0  0  0  0  0  0  0  0  0  0
    7.9491  -13.7188   20.8063 C   0  0  2  0  0  0  0  0  0  0  0  0
    9.1799  -12.8338   20.5532 C   0  0  0  0  0  0  0  0  0  0  0  0
    8.4768  -15.0845   21.1950 C   0  0  2  0  0  0  0  0  0  0  0  0
    7.2926  -15.9537   21.2191 N   0  0  0  0  0  0  0  0  0  0  0  0
    9.1169  -15.1489   22.5039 C   0  0  0  0  0  0  0  0  0  0  0  0
    9.9460  -14.2256   22.8324 O   0  0  0  0  0  0  0  0  0  0  0  0
    8.9422  -16.1305   23.5071 N   0  0  0  0  0  0  0  0  0  0  0  0
    9.6487  -16.1751   24.7670 C   0  0  1  0  0  0  0  0  0  0  0  0
    8.7896  -16.2313   25.9809 C   0  0  0  0  0  0  0  0  0  0  0  0
    7.6291  -15.3530   26.0194 C   0  0  0  0  0  0  0  0  0  0  0  0
    6.3273  -15.7079   25.7820 C   0  0  0  0  0  0  0  0  0  0  0  0
    5.5608  -14.6178   25.9007 N   0  0  0  0  0  0  0  0  0  0  0  0
    6.3001  -13.5373   26.2106 C   0  0  0  0  0  0  0  0  0  0  0  0
    5.9884  -12.2111   26.4383 C   0  0  0  0  0  0  0  0  0  0  0  0
    6.9665  -11.2898   26.7519 C   0  0  0  0  0  0  0  0  0  0  0  0
    8.2703  -11.7307   26.8323 C   0  0  0  0  0  0  0  0  0  0  0  0
    8.5641  -13.0513   26.6032 C   0  0  0  0  0  0  0  0  0  0  0  0
    7.6104  -14.0027   26.2863 C   0  0  0  0  0  0  0  0  0  0  0  0
   10.7539  -17.1642   24.7513 C   0  0  0  0  0  0  0  0  0  0  0  0
   11.3342  -17.4993   25.8432 O   0  0  0  0  0  0  0  0  0  0  0  0
   12.7009  -22.2436   22.9404 N   0  0  0  0  0  0  0  0  0  0  0  0
   12.8593  -20.8838   22.5572 C   0  0  0  0  0  0  0  0  0  0  0  0
   13.9198  -20.5845   21.9771 O   0  0  0  0  0  0  0  0  0  0  0  0
   11.8230  -19.9104   22.8389 C   0  0  0  0  0  0  0  0  0  0  0  0
   12.3227  -18.6851   23.5681 C   0  0  2  0  0  0  0  0  0  0  0  0
   11.1747  -17.7447   23.5340 N   0  0  0  0  0  0  0  0  0  0  0  0
   13.4576  -18.0697   22.8804 C   0  0  0  0  0  0  0  0  0  0  0  0
   14.7800  -18.1978   23.2245 O   0  0  0  0  0  0  0  0  0  0  0  0
   13.2278  -17.3380   21.8601 O   0  0  0  0  0  0  0  0  0  0  0  0
  2  1  1  0
  3  2  1  0
  3  4  1  6
  5  7  1  0
  5  3  1  0
  5  6  1  1
  7  8  2  0
  9  7  1  0
 10  9  1  0
 10 11  1  1
 12 13  2  0
 12 11  1  0
 14 13  1  0
 15 20  2  0
 15 14  1  0
 16 15  1  0
 17 18  1  0
 17 16  2  0
 18 19  2  0
 19 20  1  0
 20 12  1  0
 21 10  1  0
 22 21  2  0
 23 24  1  0
 24 26  1  0
 25 24  2  0
 27 26  1  6
 27 28  1  0
 28 21  1  0
 29 27  1  0
 29 30  1  0
 31 29  2  0
M  END
$$$$
