IWN.pdb
     RDKit          3D

 31 32  0  0  1  0  0  0  0  0999 V2000
    7.2163  -12.3742   18.2743 C   0  0  0  0  0  0  0  0  0  0  0  0
    7.0089  -13.6213   19.0705 C   0  0  0  0  0  0  0  0  0  0  0  0
    7.6300  -13.6077   20.4476 C   0  0  2  0  0  0  0  0  0  0  0  0
    9.1453  -13.5294   20.2022 C   0  0  0  0  0  0  0  0  0  0  0  0
    7.3701  -14.9536   21.0925 C   0  0  2  0  0  0  0  0  0  0  0  0
    5.9078  -15.0436   21.2016 N   0  0  0  0  0  0  0  0  0  0  0  0
    7.9383  -15.1188   22.4256 C   0  0  0  0  0  0  0  0  0  0  0  0
    7.5226  -14.3590   23.3731 O   0  0  0  0  0  0  0  0  0  0  0  0
    8.9269  -16.0423   22.8382 N   0  0  0  0  0  0  0  0  0  0  0  0
    9.5761  -16.0530   24.1293 C   0  0  1  0  0  0  0  0  0  0  0  0
    8.7134  -16.4467   25.2762 C   0  0  0  0  0  0  0  0  0  0  0  0
    7.6416  -15.5350   25.6501 C   0  0  0  0  0  0  0  0  0  0  0  0
    6.2959  -15.7803   25.5731 C   0  0  0  0  0  0  0  0  0  0  0  0
    5.6406  -14.6931   25.9958 N   0  0  0  0  0  0  0  0  0  0  0  0
    6.4975  -13.7207   26.3563 C   0  0  0  0  0  0  0  0  0  0  0  0
    6.3247  -12.4423   26.8499 C   0  0  0  0  0  0  0  0  0  0  0  0
    7.4056  -11.6382   27.1484 C   0  0  0  0  0  0  0  0  0  0  0  0
    8.6695  -12.1477   26.9397 C   0  0  0  0  0  0  0  0  0  0  0  0
    8.8250  -13.4196   26.4485 C   0  0  0  0  0  0  0  0  0  0  0  0
    7.7653  -14.2538   26.1378 C   0  0  0  0  0  0  0  0  0  0  0  0
   10.8905  -16.7389   24.0864 C   0  0  0  0  0  0  0  0  0  0  0  0
   10.9491  -18.0107   23.9437 O   0  0  0  0  0  0  0  0  0  0  0  0
   16.3976  -16.2023   22.5632 N   0  0  0  0  0  0  0  0  0  0  0  0
   15.7672  -16.0831   23.8319 C   0  0  0  0  0  0  0  0  0  0  0  0
   16.4418  -16.4095   24.8263 O   0  0  0  0  0  0  0  0  0  0  0  0
   14.4039  -15.6025   23.9381 C   0  0  0  0  0  0  0  0  0  0  0  0
   13.3731  -16.7060   23.9880 C   0  0  2  0  0  0  0  0  0  0  0  0
   12.0868  -15.9965   24.2019 N   0  0  0  0  0  0  0  0  0  0  0  0
   13.6041  -17.6137   25.1115 C   0  0  0  0  0  0  0  0  0  0  0  0
   13.3123  -17.3630   26.4290 O   0  0  0  0  0  0  0  0  0  0  0  0
   14.1261  -18.7543   24.8758 O   0  0  0  0  0  0  0  0  0  0  0  0
  2  1  1  0
  3  2  1  0
  3  4  1  6
  5  7  1  0
  5  3  1  0
  5  6  1  1
  7  8  2  0
  9  7  1  0
 10  9  1  0
 10 11  1  1
 12 13  2  0
 12 11  1  0
 14 13  1  0
 15 20  2  0
 15 14  1  0
 16 15  1  0
 17 18  1  0
 17 16  2  0
 18 19  2  0
 19 20  1  0
 20 12  1  0
 21 10  1  0
 22 21  2  0
 23 24  1  0
 24 26  1  0
 25 24  2  0
 27 26  1  1
 27 28  1  0
 28 21  1  0
 29 27  1  0
 29 30  1  0
 31 29  2  0
M  END
$$$$
