IWN.pdb
     RDKit          3D

 31 32  0  0  1  0  0  0  0  0999 V2000
    8.7833  -15.0718   15.7123 C   0  0  0  0  0  0  0  0  0  0  0  0
    8.0024  -14.5387   16.8691 C   0  0  0  0  0  0  0  0  0  0  0  0
    8.6691  -14.6997   18.2152 C   0  0  2  0  0  0  0  0  0  0  0  0
    8.8324  -16.2166   18.4018 C   0  0  0  0  0  0  0  0  0  0  0  0
    7.6938  -14.2403   19.2794 C   0  0  2  0  0  0  0  0  0  0  0  0
    7.5530  -12.7940   19.0631 N   0  0  0  0  0  0  0  0  0  0  0  0
    8.1335  -14.4556   20.6533 C   0  0  0  0  0  0  0  0  0  0  0  0
    9.1327  -13.7818   21.0952 O   0  0  0  0  0  0  0  0  0  0  0  0
    7.5863  -15.3424   21.6096 N   0  0  0  0  0  0  0  0  0  0  0  0
    8.1466  -15.6180   22.9130 C   0  0  1  0  0  0  0  0  0  0  0  0
    7.1888  -16.1445   23.9231 C   0  0  0  0  0  0  0  0  0  0  0  0
    6.7320  -15.2238   24.9543 C   0  0  0  0  0  0  0  0  0  0  0  0
    5.7343  -15.4477   25.8661 C   0  0  0  0  0  0  0  0  0  0  0  0
    5.6064  -14.3587   26.6327 N   0  0  0  0  0  0  0  0  0  0  0  0
    6.4841  -13.4056   26.2704 C   0  0  0  0  0  0  0  0  0  0  0  0
    6.7474  -12.1338   26.7404 C   0  0  0  0  0  0  0  0  0  0  0  0
    7.7327  -11.3513   26.1739 C   0  0  0  0  0  0  0  0  0  0  0  0
    8.4511  -11.8756   25.1206 C   0  0  0  0  0  0  0  0  0  0  0  0
    8.1776  -13.1407   24.6647 C   0  0  0  0  0  0  0  0  0  0  0  0
    7.1976  -13.9534   25.2074 C   0  0  0  0  0  0  0  0  0  0  0  0
    9.4204  -16.3727   22.8237 C   0  0  0  0  0  0  0  0  0  0  0  0
    9.5763  -17.2691   21.9218 O   0  0  0  0  0  0  0  0  0  0  0  0
   14.4701  -17.5520   22.1289 N   0  0  0  0  0  0  0  0  0  0  0  0
   14.0830  -16.6177   23.1281 C   0  0  0  0  0  0  0  0  0  0  0  0
   14.9348  -16.3343   23.9911 O   0  0  0  0  0  0  0  0  0  0  0  0
   12.7553  -16.0363   23.1223 C   0  0  0  0  0  0  0  0  0  0  0  0
   11.6859  -16.9589   23.6590 C   0  0  2  0  0  0  0  0  0  0  0  0
   10.4709  -16.1091   23.7306 N   0  0  0  0  0  0  0  0  0  0  0  0
   12.0072  -17.4376   25.0033 C   0  0  0  0  0  0  0  0  0  0  0  0
   12.8625  -18.4648   25.3148 O   0  0  0  0  0  0  0  0  0  0  0  0
   11.4545  -16.8661   26.0018 O   0  0  0  0  0  0  0  0  0  0  0  0
  2  1  1  0
  3  2  1  0
  3  4  1  1
  5  7  1  0
  5  3  1  0
  5  6  1  1
  7  8  2  0
  9  7  1  0
 10  9  1  0
 10 11  1  1
 12 13  2  0
 12 11  1  0
 14 13  1  0
 15 20  2  0
 15 14  1  0
 16 15  1  0
 17 18  1  0
 17 16  2  0
 18 19  2  0
 19 20  1  0
 20 12  1  0
 21 10  1  0
 22 21  2  0
 23 24  1  0
 24 26  1  0
 25 24  2  0
 27 26  1  1
 27 28  1  0
 28 21  1  0
 29 27  1  0
 29 30  1  0
 31 29  2  0
M  END
$$$$
