IWN.pdb
     RDKit          3D

 31 32  0  0  1  0  0  0  0  0999 V2000
    6.7429  -12.5753   19.0870 C   0  0  0  0  0  0  0  0  0  0  0  0
    7.3471  -13.8705   19.5223 C   0  0  0  0  0  0  0  0  0  0  0  0
    7.8841  -13.8795   20.9343 C   0  0  2  0  0  0  0  0  0  0  0  0
    8.9630  -12.7852   20.9589 C   0  0  0  0  0  0  0  0  0  0  0  0
    8.6033  -15.1945   21.1542 C   0  0  2  0  0  0  0  0  0  0  0  0
    7.5546  -16.2188   21.0585 N   0  0  0  0  0  0  0  0  0  0  0  0
    9.2574  -15.3307   22.4506 C   0  0  0  0  0  0  0  0  0  0  0  0
   10.2734  -14.5906   22.7110 O   0  0  0  0  0  0  0  0  0  0  0  0
    8.9112  -16.2029   23.5089 N   0  0  0  0  0  0  0  0  0  0  0  0
    9.5900  -16.2854   24.7820 C   0  0  1  0  0  0  0  0  0  0  0  0
    8.7046  -16.3804   25.9744 C   0  0  0  0  0  0  0  0  0  0  0  0
    7.5691  -15.4714   26.0377 C   0  0  0  0  0  0  0  0  0  0  0  0
    6.2547  -15.7888   25.8168 C   0  0  0  0  0  0  0  0  0  0  0  0
    5.5200  -14.6794   25.9561 N   0  0  0  0  0  0  0  0  0  0  0  0
    6.2929  -13.6221   26.2640 C   0  0  0  0  0  0  0  0  0  0  0  0
    6.0208  -12.2900   26.5074 C   0  0  0  0  0  0  0  0  0  0  0  0
    7.0281  -11.3983   26.8141 C   0  0  0  0  0  0  0  0  0  0  0  0
    8.3204  -11.8751   26.8714 C   0  0  0  0  0  0  0  0  0  0  0  0
    8.5749  -13.2011   26.6268 C   0  0  0  0  0  0  0  0  0  0  0  0
    7.5910  -14.1235   26.3161 C   0  0  0  0  0  0  0  0  0  0  0  0
   10.6975  -17.2717   24.7602 C   0  0  0  0  0  0  0  0  0  0  0  0
   11.3374  -17.5460   25.8357 O   0  0  0  0  0  0  0  0  0  0  0  0
   10.1522  -21.0908   23.1340 N   0  0  0  0  0  0  0  0  0  0  0  0
   10.7130  -20.2444   22.1390 C   0  0  0  0  0  0  0  0  0  0  0  0
   10.0162  -20.0265   21.1302 O   0  0  0  0  0  0  0  0  0  0  0  0
   12.0343  -19.6742   22.3120 C   0  0  0  0  0  0  0  0  0  0  0  0
   12.1887  -18.8743   23.5845 C   0  0  2  0  0  0  0  0  0  0  0  0
   11.0550  -17.9165   23.5551 N   0  0  0  0  0  0  0  0  0  0  0  0
   13.4425  -18.1213   23.6031 C   0  0  0  0  0  0  0  0  0  0  0  0
   13.5748  -16.7637   23.4513 O   0  0  0  0  0  0  0  0  0  0  0  0
   14.5343  -18.7600   23.7741 O   0  0  0  0  0  0  0  0  0  0  0  0
  2  1  1  0
  3  2  1  0
  3  4  1  6
  5  7  1  0
  5  3  1  0
  5  6  1  1
  7  8  2  0
  9  7  1  0
 10  9  1  0
 10 11  1  1
 12 13  2  0
 12 11  1  0
 14 13  1  0
 15 20  2  0
 15 14  1  0
 16 15  1  0
 17 18  1  0
 17 16  2  0
 18 19  2  0
 19 20  1  0
 20 12  1  0
 21 10  1  0
 22 21  2  0
 23 24  1  0
 24 26  1  0
 25 24  2  0
 27 26  1  6
 27 28  1  0
 28 21  1  0
 29 27  1  0
 29 30  1  0
 31 29  2  0
M  END
$$$$
