IWN.pdb
     RDKit          3D

 31 32  0  0  1  0  0  0  0  0999 V2000
    7.4318  -12.3580   17.9055 C   0  0  0  0  0  0  0  0  0  0  0  0
    7.1737  -13.5601   18.7544 C   0  0  0  0  0  0  0  0  0  0  0  0
    7.9217  -13.5849   20.0667 C   0  0  2  0  0  0  0  0  0  0  0  0
    9.4063  -13.6753   19.6791 C   0  0  0  0  0  0  0  0  0  0  0  0
    7.5845  -14.8813   20.7742 C   0  0  2  0  0  0  0  0  0  0  0  0
    6.1184  -14.8901   20.8671 N   0  0  0  0  0  0  0  0  0  0  0  0
    8.1281  -15.0081   22.1216 C   0  0  0  0  0  0  0  0  0  0  0  0
    8.3445  -13.9423   22.8035 O   0  0  0  0  0  0  0  0  0  0  0  0
    8.4636  -16.1956   22.8128 N   0  0  0  0  0  0  0  0  0  0  0  0
    9.2956  -16.2715   23.9920 C   0  0  1  0  0  0  0  0  0  0  0  0
    8.5722  -16.5026   25.2719 C   0  0  0  0  0  0  0  0  0  0  0  0
    7.5302  -15.5517   25.6317 C   0  0  0  0  0  0  0  0  0  0  0  0
    6.1776  -15.7429   25.5270 C   0  0  0  0  0  0  0  0  0  0  0  0
    5.5575  -14.6334   25.9449 N   0  0  0  0  0  0  0  0  0  0  0  0
    6.4450  -13.6981   26.3291 C   0  0  0  0  0  0  0  0  0  0  0  0
    6.3132  -12.4172   26.8286 C   0  0  0  0  0  0  0  0  0  0  0  0
    7.4190  -11.6586   27.1539 C   0  0  0  0  0  0  0  0  0  0  0  0
    8.6656  -12.2164   26.9659 C   0  0  0  0  0  0  0  0  0  0  0  0
    8.7803  -13.4902   26.4685 C   0  0  0  0  0  0  0  0  0  0  0  0
    7.6948  -14.2796   26.1312 C   0  0  0  0  0  0  0  0  0  0  0  0
   10.4745  -17.1477   23.7868 C   0  0  0  0  0  0  0  0  0  0  0  0
   10.4989  -17.9768   22.8103 O   0  0  0  0  0  0  0  0  0  0  0  0
   14.8672  -18.3402   21.8760 N   0  0  0  0  0  0  0  0  0  0  0  0
   14.5748  -17.0960   22.4986 C   0  0  0  0  0  0  0  0  0  0  0  0
   15.5086  -16.2761   22.5794 O   0  0  0  0  0  0  0  0  0  0  0  0
   13.2465  -16.8176   23.0074 C   0  0  0  0  0  0  0  0  0  0  0  0
   12.8708  -17.6491   24.2116 C   0  0  2  0  0  0  0  0  0  0  0  0
   11.5789  -17.0752   24.6647 N   0  0  0  0  0  0  0  0  0  0  0  0
   13.8504  -17.5161   25.2897 C   0  0  0  0  0  0  0  0  0  0  0  0
   14.9551  -18.3072   25.4829 O   0  0  0  0  0  0  0  0  0  0  0  0
   13.6889  -16.5855   26.1482 O   0  0  0  0  0  0  0  0  0  0  0  0
  2  1  1  0
  3  2  1  0
  3  4  1  6
  5  7  1  0
  5  3  1  0
  5  6  1  1
  7  8  2  0
  9  7  1  0
 10  9  1  0
 10 11  1  1
 12 13  2  0
 12 11  1  0
 14 13  1  0
 15 20  2  0
 15 14  1  0
 16 15  1  0
 17 18  1  0
 17 16  2  0
 18 19  2  0
 19 20  1  0
 20 12  1  0
 21 10  1  0
 22 21  2  0
 23 24  1  0
 24 26  1  0
 25 24  2  0
 27 26  1  6
 27 28  1  0
 28 21  1  0
 29 27  1  0
 29 30  1  0
 31 29  2  0
M  END
$$$$
