IWN.pdb
     RDKit          3D

 31 32  0  0  1  0  0  0  0  0999 V2000
    7.9560  -12.0993   19.1803 C   0  0  0  0  0  0  0  0  0  0  0  0
    7.5414  -13.1889   20.1147 C   0  0  0  0  0  0  0  0  0  0  0  0
    8.0270  -14.5690   19.7384 C   0  0  2  0  0  0  0  0  0  0  0  0
    7.3032  -14.9033   18.4243 C   0  0  0  0  0  0  0  0  0  0  0  0
    7.5089  -15.5467   20.7730 C   0  0  2  0  0  0  0  0  0  0  0  0
    6.0599  -15.3101   20.8234 N   0  0  0  0  0  0  0  0  0  0  0  0
    8.0478  -15.3667   22.1162 C   0  0  0  0  0  0  0  0  0  0  0  0
    7.9988  -14.2006   22.6506 O   0  0  0  0  0  0  0  0  0  0  0  0
    8.6423  -16.3425   22.9497 N   0  0  0  0  0  0  0  0  0  0  0  0
    9.4784  -16.0677   24.0960 C   0  0  1  0  0  0  0  0  0  0  0  0
    8.8262  -16.2467   25.4216 C   0  0  0  0  0  0  0  0  0  0  0  0
    7.6761  -15.4053   25.7195 C   0  0  0  0  0  0  0  0  0  0  0  0
    6.3567  -15.7379   25.5593 C   0  0  0  0  0  0  0  0  0  0  0  0
    5.6067  -14.6941   25.9309 N   0  0  0  0  0  0  0  0  0  0  0  0
    6.3742  -13.6666   26.3374 C   0  0  0  0  0  0  0  0  0  0  0  0
    6.0879  -12.4003   26.8089 C   0  0  0  0  0  0  0  0  0  0  0  0
    7.0932  -11.5265   27.1690 C   0  0  0  0  0  0  0  0  0  0  0  0
    8.3982  -11.9535   27.0449 C   0  0  0  0  0  0  0  0  0  0  0  0
    8.6667  -13.2144   26.5747 C   0  0  0  0  0  0  0  0  0  0  0  0
    7.6852  -14.1169   26.2040 C   0  0  0  0  0  0  0  0  0  0  0  0
   10.8128  -16.7044   23.9778 C   0  0  0  0  0  0  0  0  0  0  0  0
   10.9089  -17.9585   23.7339 O   0  0  0  0  0  0  0  0  0  0  0  0
   15.6976  -17.3394   22.7558 N   0  0  0  0  0  0  0  0  0  0  0  0
   15.4444  -15.9530   22.9421 C   0  0  0  0  0  0  0  0  0  0  0  0
   16.2809  -15.1614   22.4683 O   0  0  0  0  0  0  0  0  0  0  0  0
   14.2630  -15.5058   23.6527 C   0  0  0  0  0  0  0  0  0  0  0  0
   13.2961  -16.6185   23.9841 C   0  0  2  0  0  0  0  0  0  0  0  0
   11.9870  -15.9344   24.1324 N   0  0  0  0  0  0  0  0  0  0  0  0
   13.6334  -17.2715   25.2487 C   0  0  0  0  0  0  0  0  0  0  0  0
   12.9494  -17.1481   26.4322 O   0  0  0  0  0  0  0  0  0  0  0  0
   14.6562  -18.0342   25.2868 O   0  0  0  0  0  0  0  0  0  0  0  0
  2  1  1  0
  3  2  1  0
  3  4  1  6
  5  7  1  0
  5  3  1  0
  5  6  1  1
  7  8  2  0
  9  7  1  0
 10  9  1  0
 10 11  1  1
 12 13  2  0
 12 11  1  0
 14 13  1  0
 15 20  2  0
 15 14  1  0
 16 15  1  0
 17 18  1  0
 17 16  2  0
 18 19  2  0
 19 20  1  0
 20 12  1  0
 21 10  1  0
 22 21  2  0
 23 24  1  0
 24 26  1  0
 25 24  2  0
 27 26  1  1
 27 28  1  0
 28 21  1  0
 29 27  1  0
 29 30  1  0
 31 29  2  0
M  END
$$$$
