IWN.pdb
     RDKit          3D

 31 32  0  0  1  0  0  0  0  0999 V2000
    6.9297  -12.4349   18.2979 C   0  0  0  0  0  0  0  0  0  0  0  0
    7.0553  -13.7057   19.0736 C   0  0  0  0  0  0  0  0  0  0  0  0
    7.8168  -13.5855   20.3729 C   0  0  2  0  0  0  0  0  0  0  0  0
    9.2506  -13.2135   19.9632 C   0  0  0  0  0  0  0  0  0  0  0  0
    7.8945  -14.9624   20.9998 C   0  0  2  0  0  0  0  0  0  0  0  0
    6.4979  -15.4020   21.1194 N   0  0  0  0  0  0  0  0  0  0  0  0
    8.5009  -15.0031   22.3256 C   0  0  0  0  0  0  0  0  0  0  0  0
    8.8418  -13.8984   22.8835 O   0  0  0  0  0  0  0  0  0  0  0  0
    8.7767  -16.1417   23.1182 N   0  0  0  0  0  0  0  0  0  0  0  0
    9.5078  -16.1370   24.3648 C   0  0  1  0  0  0  0  0  0  0  0  0
    8.6824  -16.3069   25.5914 C   0  0  0  0  0  0  0  0  0  0  0  0
    7.5355  -15.4249   25.7526 C   0  0  0  0  0  0  0  0  0  0  0  0
    6.2214  -15.7445   25.5334 C   0  0  0  0  0  0  0  0  0  0  0  0
    5.4738  -14.6624   25.7786 N   0  0  0  0  0  0  0  0  0  0  0  0
    6.2377  -13.6214   26.1563 C   0  0  0  0  0  0  0  0  0  0  0  0
    5.9516  -12.3184   26.5140 C   0  0  0  0  0  0  0  0  0  0  0  0
    6.9522  -11.4384   26.8722 C   0  0  0  0  0  0  0  0  0  0  0  0
    8.2523  -11.8970   26.8634 C   0  0  0  0  0  0  0  0  0  0  0  0
    8.5207  -13.1943   26.5054 C   0  0  0  0  0  0  0  0  0  0  0  0
    7.5438  -14.1041   26.1403 C   0  0  0  0  0  0  0  0  0  0  0  0
   10.7097  -17.0044   24.3091 C   0  0  0  0  0  0  0  0  0  0  0  0
   10.6379  -18.1722   23.7872 O   0  0  0  0  0  0  0  0  0  0  0  0
   14.1070  -16.5324   22.4274 N   0  0  0  0  0  0  0  0  0  0  0  0
   14.6023  -15.9914   23.6452 C   0  0  0  0  0  0  0  0  0  0  0  0
   15.2933  -14.9590   23.5603 O   0  0  0  0  0  0  0  0  0  0  0  0
   14.3043  -16.6282   24.9127 C   0  0  0  0  0  0  0  0  0  0  0  0
   13.0759  -17.5072   24.8769 C   0  0  2  0  0  0  0  0  0  0  0  0
   11.9420  -16.5503   24.8297 N   0  0  0  0  0  0  0  0  0  0  0  0
   12.9563  -18.3217   26.0858 C   0  0  0  0  0  0  0  0  0  0  0  0
   13.6278  -19.4902   26.3454 O   0  0  0  0  0  0  0  0  0  0  0  0
   12.1588  -17.9353   27.0045 O   0  0  0  0  0  0  0  0  0  0  0  0
  2  1  1  0
  3  2  1  0
  3  4  1  6
  5  7  1  0
  5  3  1  0
  5  6  1  1
  7  8  2  0
  9  7  1  0
 10  9  1  0
 10 11  1  1
 12 13  2  0
 12 11  1  0
 14 13  1  0
 15 20  2  0
 15 14  1  0
 16 15  1  0
 17 18  1  0
 17 16  2  0
 18 19  2  0
 19 20  1  0
 20 12  1  0
 21 10  1  0
 22 21  2  0
 23 24  1  0
 24 26  1  0
 25 24  2  0
 27 26  1  1
 27 28  1  0
 28 21  1  0
 29 27  1  0
 29 30  1  0
 31 29  2  0
M  END
$$$$
