IWN.pdb
     RDKit          3D

 31 32  0  0  1  0  0  0  0  0999 V2000
    6.5952  -12.4137   19.1783 C   0  0  0  0  0  0  0  0  0  0  0  0
    7.3386  -13.6559   19.5477 C   0  0  0  0  0  0  0  0  0  0  0  0
    7.9086  -13.6642   20.9467 C   0  0  2  0  0  0  0  0  0  0  0  0
    8.9846  -12.5666   20.9467 C   0  0  0  0  0  0  0  0  0  0  0  0
    8.6367  -14.9771   21.1487 C   0  0  2  0  0  0  0  0  0  0  0  0
    7.5897  -16.0048   21.0725 N   0  0  0  0  0  0  0  0  0  0  0  0
    9.3179  -15.1138   22.4311 C   0  0  0  0  0  0  0  0  0  0  0  0
   10.3645  -14.4046   22.6535 O   0  0  0  0  0  0  0  0  0  0  0  0
    8.9692  -15.9560   23.5125 N   0  0  0  0  0  0  0  0  0  0  0  0
    9.6999  -16.0705   24.7541 C   0  0  1  0  0  0  0  0  0  0  0  0
    8.8644  -16.1871   25.9801 C   0  0  0  0  0  0  0  0  0  0  0  0
    7.6715  -15.3561   26.0573 C   0  0  0  0  0  0  0  0  0  0  0  0
    6.3765  -15.7666   25.8795 C   0  0  0  0  0  0  0  0  0  0  0  0
    5.5716  -14.7069   26.0176 N   0  0  0  0  0  0  0  0  0  0  0  0
    6.2782  -13.5932   26.2830 C   0  0  0  0  0  0  0  0  0  0  0  0
    5.9222  -12.2778   26.5078 C   0  0  0  0  0  0  0  0  0  0  0  0
    6.8739  -11.3134   26.7688 C   0  0  0  0  0  0  0  0  0  0  0  0
    8.1969  -11.7000   26.7992 C   0  0  0  0  0  0  0  0  0  0  0  0
    8.5349  -13.0107   26.5735 C   0  0  0  0  0  0  0  0  0  0  0  0
    7.6085  -14.0041   26.3086 C   0  0  0  0  0  0  0  0  0  0  0  0
   10.7991  -17.0622   24.6642 C   0  0  0  0  0  0  0  0  0  0  0  0
   11.4833  -17.3618   25.7051 O   0  0  0  0  0  0  0  0  0  0  0  0
   13.4284  -20.6896   20.4050 N   0  0  0  0  0  0  0  0  0  0  0  0
   13.2864  -20.1152   21.6977 C   0  0  0  0  0  0  0  0  0  0  0  0
   14.1134  -20.4645   22.5606 O   0  0  0  0  0  0  0  0  0  0  0  0
   12.2224  -19.1707   21.9745 C   0  0  0  0  0  0  0  0  0  0  0  0
   12.2224  -18.6549   23.3947 C   0  0  2  0  0  0  0  0  0  0  0  0
   11.1000  -17.6842   23.4320 N   0  0  0  0  0  0  0  0  0  0  0  0
   13.4646  -17.9528   23.7167 C   0  0  0  0  0  0  0  0  0  0  0  0
   13.8575  -16.7336   23.2240 O   0  0  0  0  0  0  0  0  0  0  0  0
   14.2813  -18.5016   24.5297 O   0  0  0  0  0  0  0  0  0  0  0  0
  2  1  1  0
  3  2  1  0
  3  4  1  6
  5  7  1  0
  5  3  1  0
  5  6  1  1
  7  8  2  0
  9  7  1  0
 10  9  1  0
 10 11  1  1
 12 13  2  0
 12 11  1  0
 14 13  1  0
 15 20  2  0
 15 14  1  0
 16 15  1  0
 17 18  1  0
 17 16  2  0
 18 19  2  0
 19 20  1  0
 20 12  1  0
 21 10  1  0
 22 21  2  0
 23 24  1  0
 24 26  1  0
 25 24  2  0
 27 26  1  6
 27 28  1  0
 28 21  1  0
 29 27  1  0
 29 30  1  0
 31 29  2  0
M  END
$$$$
