IWN.pdb
     RDKit          3D

 31 32  0  0  1  0  0  0  0  0999 V2000
    6.6597  -12.5407   18.7900 C   0  0  0  0  0  0  0  0  0  0  0  0
    7.2496  -13.8497   19.2033 C   0  0  0  0  0  0  0  0  0  0  0  0
    7.9022  -13.8516   20.5658 C   0  0  2  0  0  0  0  0  0  0  0  0
    9.1179  -12.9213   20.4283 C   0  0  0  0  0  0  0  0  0  0  0  0
    8.4525  -15.2399   20.8201 C   0  0  2  0  0  0  0  0  0  0  0  0
    7.2787  -16.1227   20.7890 N   0  0  0  0  0  0  0  0  0  0  0  0
    9.1200  -15.4131   22.1053 C   0  0  0  0  0  0  0  0  0  0  0  0
   10.2675  -14.8664   22.2843 O   0  0  0  0  0  0  0  0  0  0  0  0
    8.6571  -16.1306   23.2328 N   0  0  0  0  0  0  0  0  0  0  0  0
    9.4042  -16.3500   24.4502 C   0  0  1  0  0  0  0  0  0  0  0  0
    8.5970  -16.3784   25.7002 C   0  0  0  0  0  0  0  0  0  0  0  0
    7.5128  -15.4139   25.8176 C   0  0  0  0  0  0  0  0  0  0  0  0
    6.1827  -15.6471   25.5860 C   0  0  0  0  0  0  0  0  0  0  0  0
    5.5097  -14.5086   25.7882 N   0  0  0  0  0  0  0  0  0  0  0  0
    6.3396  -13.5129   26.1489 C   0  0  0  0  0  0  0  0  0  0  0  0
    6.1408  -12.1831   26.4649 C   0  0  0  0  0  0  0  0  0  0  0  0
    7.1958  -11.3653   26.8145 C   0  0  0  0  0  0  0  0  0  0  0  0
    8.4603  -11.9138   26.8400 C   0  0  0  0  0  0  0  0  0  0  0  0
    8.6417  -13.2366   26.5232 C   0  0  0  0  0  0  0  0  0  0  0  0
    7.6086  -14.0861   26.1680 C   0  0  0  0  0  0  0  0  0  0  0  0
   10.3694  -17.4684   24.3178 C   0  0  0  0  0  0  0  0  0  0  0  0
   10.4409  -18.1316   23.2240 O   0  0  0  0  0  0  0  0  0  0  0  0
   14.9900  -19.4794   24.3955 N   0  0  0  0  0  0  0  0  0  0  0  0
   14.5865  -18.2028   23.9174 C   0  0  0  0  0  0  0  0  0  0  0  0
   15.4056  -17.5830   23.2133 O   0  0  0  0  0  0  0  0  0  0  0  0
   13.2799  -17.6687   24.2466 C   0  0  0  0  0  0  0  0  0  0  0  0
   12.4425  -18.5941   25.0982 C   0  0  2  0  0  0  0  0  0  0  0  0
   11.2171  -17.8106   25.3948 N   0  0  0  0  0  0  0  0  0  0  0  0
   13.1088  -18.9235   26.3580 C   0  0  0  0  0  0  0  0  0  0  0  0
   13.2930  -18.0772   27.4226 O   0  0  0  0  0  0  0  0  0  0  0  0
   13.5743  -20.1020   26.5110 O   0  0  0  0  0  0  0  0  0  0  0  0
  2  1  1  0
  3  2  1  0
  3  4  1  6
  5  7  1  0
  5  3  1  0
  5  6  1  1
  7  8  2  0
  9  7  1  0
 10  9  1  0
 10 11  1  1
 12 13  2  0
 12 11  1  0
 14 13  1  0
 15 20  2  0
 15 14  1  0
 16 15  1  0
 17 18  1  0
 17 16  2  0
 18 19  2  0
 19 20  1  0
 20 12  1  0
 21 10  1  0
 22 21  2  0
 23 24  1  0
 24 26  1  0
 25 24  2  0
 27 26  1  6
 27 28  1  0
 28 21  1  0
 29 27  1  0
 29 30  1  0
 31 29  2  0
M  END
$$$$
