YQN.pdb
     RDKit          3D

 30 30  0  0  1  0  0  0  0  0999 V2000
    6.8207  -12.1417   17.0186 O   0  0  0  0  0  0  0  0  0  0  0  0
    7.2869  -12.7748   18.1695 C   0  0  0  0  0  0  0  0  0  0  0  0
    8.5030  -12.4764   18.7409 C   0  0  0  0  0  0  0  0  0  0  0  0
    8.9397  -13.1142   19.8748 C   0  0  0  0  0  0  0  0  0  0  0  0
    8.1564  -14.0964   20.4916 C   0  0  0  0  0  0  0  0  0  0  0  0
    8.6700  -14.7488   21.7069 C   0  0  0  0  0  0  0  0  0  0  0  0
    9.6393  -15.8305   21.3060 C   0  0  2  0  0  0  0  0  0  0  0  0
    9.0246  -16.6511   20.2880 N   0  0  0  0  0  0  0  0  0  0  0  0
   10.0871  -16.6519   22.4414 C   0  0  0  0  0  0  0  0  0  0  0  0
    9.7848  -17.8924   22.4914 O   0  0  0  0  0  0  0  0  0  0  0  0
    6.9468  -14.3960   19.9269 C   0  0  0  0  0  0  0  0  0  0  0  0
    6.5131  -13.7390   18.7712 C   0  0  0  0  0  0  0  0  0  0  0  0
   14.5443  -14.7717   21.2236 N   0  0  0  0  0  0  0  0  0  0  0  0
   15.2584  -15.3097   22.3522 C   0  0  0  0  0  0  0  0  0  0  0  0
   16.4651  -15.5902   22.2669 O   0  0  0  0  0  0  0  0  0  0  0  0
   14.5136  -15.5097   23.5965 C   0  0  0  0  0  0  0  0  0  0  0  0
   13.0524  -15.2467   23.4021 C   0  0  0  0  0  0  0  0  0  0  0  0
   12.2747  -16.5091   23.6881 C   0  0  2  0  0  0  0  0  0  0  0  0
   10.8583  -16.1421   23.5169 N   0  0  0  0  0  0  0  0  0  0  0  0
   12.5129  -16.9115   25.1190 C   0  0  0  0  0  0  0  0  0  0  0  0
   13.2745  -17.8877   25.4091 O   0  0  0  0  0  0  0  0  0  0  0  0
    7.4494  -18.1303   25.1589 N   0  0  0  0  0  0  0  0  0  0  0  0
    8.5005  -17.8351   26.0916 C   0  0  0  0  0  0  0  0  0  0  0  0
    8.3805  -18.2217   27.2731 O   0  0  0  0  0  0  0  0  0  0  0  0
    9.6853  -17.0979   25.6668 C   0  0  0  0  0  0  0  0  0  0  0  0
   10.6394  -16.7064   26.7584 C   0  0  2  0  0  0  0  0  0  0  0  0
   11.8505  -16.1521   26.1092 N   0  0  0  0  0  0  0  0  0  0  0  0
   11.1297  -17.8244   27.5784 C   0  0  0  0  0  0  0  0  0  0  0  0
   11.9148  -18.8071   27.0235 O   0  0  0  0  0  0  0  0  0  0  0  0
   10.8413  -17.8966   28.7841 O   0  0  0  0  0  0  0  0  0  0  0  0
  2  1  1  0
  3  2  2  0
  4  3  1  0
  5 11  1  0
  5  4  2  0
  6  5  1  0
  7  6  1  0
  7  8  1  6
  9  7  1  0
  9 10  2  0
 11 12  2  0
 12  2  1  0
 13 14  1  0
 14 15  2  0
 14 16  1  0
 16 17  1  0
 18 17  1  1
 18 19  1  0
 19  9  1  0
 20 18  1  0
 21 20  2  0
 22 23  1  0
 23 24  2  0
 25 23  1  0
 26 25  1  6
 26 27  1  0
 26 28  1  0
 27 20  1  0
 28 29  1  0
 30 28  2  0
M  END
$$$$
