YQN.pdb
     RDKit          3D

 30 30  0  0  1  0  0  0  0  0999 V2000
    7.1721  -11.6455   19.1576 O   0  0  0  0  0  0  0  0  0  0  0  0
    7.9149  -12.6908   19.7038 C   0  0  0  0  0  0  0  0  0  0  0  0
    7.3494  -13.6801   20.4757 C   0  0  0  0  0  0  0  0  0  0  0  0
    8.1027  -14.6992   21.0024 C   0  0  0  0  0  0  0  0  0  0  0  0
    9.4810  -14.7659   20.7697 C   0  0  0  0  0  0  0  0  0  0  0  0
   10.2429  -15.8806   21.3557 C   0  0  0  0  0  0  0  0  0  0  0  0
   10.7316  -16.7734   20.2448 C   0  0  2  0  0  0  0  0  0  0  0  0
    9.5908  -17.2575   19.5020 N   0  0  0  0  0  0  0  0  0  0  0  0
   11.5567  -17.8923   20.7261 C   0  0  0  0  0  0  0  0  0  0  0  0
   10.9993  -18.9377   21.2050 O   0  0  0  0  0  0  0  0  0  0  0  0
   10.0473  -13.7845   20.0029 C   0  0  0  0  0  0  0  0  0  0  0  0
    9.2688  -12.7512   19.4719 C   0  0  0  0  0  0  0  0  0  0  0  0
   14.7389  -22.1476   20.0874 N   0  0  0  0  0  0  0  0  0  0  0  0
   13.8920  -21.6393   19.0398 C   0  0  0  0  0  0  0  0  0  0  0  0
   13.3520  -22.4086   18.2283 O   0  0  0  0  0  0  0  0  0  0  0  0
   13.6908  -20.1910   18.9698 C   0  0  0  0  0  0  0  0  0  0  0  0
   14.5737  -19.4731   19.9431 C   0  0  0  0  0  0  0  0  0  0  0  0
   13.7577  -19.0513   21.1416 C   0  0  2  0  0  0  0  0  0  0  0  0
   12.9744  -17.8880   20.6905 N   0  0  0  0  0  0  0  0  0  0  0  0
   14.6944  -18.6226   22.2392 C   0  0  0  0  0  0  0  0  0  0  0  0
   14.7598  -19.2641   23.3353 O   0  0  0  0  0  0  0  0  0  0  0  0
   18.0288  -15.9464   19.9136 N   0  0  0  0  0  0  0  0  0  0  0  0
   17.7733  -15.7106   21.3068 C   0  0  0  0  0  0  0  0  0  0  0  0
   17.5452  -14.5426   21.6858 O   0  0  0  0  0  0  0  0  0  0  0  0
   17.7801  -16.8142   22.2606 C   0  0  0  0  0  0  0  0  0  0  0  0
   16.4903  -17.0573   22.9902 C   0  0  2  0  0  0  0  0  0  0  0  0
   15.4872  -17.4811   21.9855 N   0  0  0  0  0  0  0  0  0  0  0  0
   15.9075  -15.8657   23.6251 C   0  0  0  0  0  0  0  0  0  0  0  0
   14.7021  -15.3632   23.1955 O   0  0  0  0  0  0  0  0  0  0  0  0
   16.4962  -15.2961   24.5585 O   0  0  0  0  0  0  0  0  0  0  0  0
  2  1  1  0
  3  2  2  0
  4  3  1  0
  5 11  1  0
  5  4  2  0
  6  5  1  0
  7  6  1  0
  7  8  1  1
  9  7  1  0
  9 10  2  0
 11 12  2  0
 12  2  1  0
 13 14  1  0
 14 15  2  0
 14 16  1  0
 16 17  1  0
 18 17  1  6
 18 19  1  0
 19  9  1  0
 20 18  1  0
 21 20  2  0
 22 23  1  0
 23 24  2  0
 25 23  1  0
 26 25  1  6
 26 27  1  0
 26 28  1  0
 27 20  1  0
 28 29  1  0
 30 28  2  0
M  END
$$$$
