YQN.pdb
     RDKit          3D

 30 30  0  0  1  0  0  0  0  0999 V2000
    7.4670  -11.9417   17.3775 O   0  0  0  0  0  0  0  0  0  0  0  0
    7.5344  -12.6137   18.5967 C   0  0  0  0  0  0  0  0  0  0  0  0
    8.5036  -12.3501   19.5378 C   0  0  0  0  0  0  0  0  0  0  0  0
    8.5485  -13.0259   20.7314 C   0  0  0  0  0  0  0  0  0  0  0  0
    7.6028  -14.0125   21.0325 C   0  0  0  0  0  0  0  0  0  0  0  0
    7.6941  -14.7064   22.3274 C   0  0  0  0  0  0  0  0  0  0  0  0
    8.5989  -15.9016   22.1763 C   0  0  2  0  0  0  0  0  0  0  0  0
    8.0952  -16.7335   21.1077 N   0  0  0  0  0  0  0  0  0  0  0  0
    8.7430  -16.6754   23.4192 C   0  0  0  0  0  0  0  0  0  0  0  0
    7.7097  -16.9774   24.1076 O   0  0  0  0  0  0  0  0  0  0  0  0
    6.6376  -14.2777   20.0998 C   0  0  0  0  0  0  0  0  0  0  0  0
    6.6026  -13.5821   18.8871 C   0  0  0  0  0  0  0  0  0  0  0  0
    9.9028  -20.4770   20.2176 N   0  0  0  0  0  0  0  0  0  0  0  0
    9.6940  -21.2340   21.4243 C   0  0  0  0  0  0  0  0  0  0  0  0
    9.1846  -22.3658   21.3856 O   0  0  0  0  0  0  0  0  0  0  0  0
   10.1048  -20.6240   22.6901 C   0  0  0  0  0  0  0  0  0  0  0  0
    9.8381  -19.1506   22.6938 C   0  0  0  0  0  0  0  0  0  0  0  0
   10.3168  -18.5591   23.9981 C   0  0  2  0  0  0  0  0  0  0  0  0
    9.9922  -17.1243   23.9184 N   0  0  0  0  0  0  0  0  0  0  0  0
   11.8104  -18.7251   24.0863 C   0  0  0  0  0  0  0  0  0  0  0  0
   12.3306  -19.8477   24.3803 O   0  0  0  0  0  0  0  0  0  0  0  0
   16.5919  -16.6851   21.3668 N   0  0  0  0  0  0  0  0  0  0  0  0
   15.9451  -16.4194   22.6209 C   0  0  0  0  0  0  0  0  0  0  0  0
   16.6418  -16.0478   23.5886 O   0  0  0  0  0  0  0  0  0  0  0  0
   14.5022  -16.5807   22.7616 C   0  0  0  0  0  0  0  0  0  0  0  0
   14.0520  -17.7247   23.6238 C   0  0  2  0  0  0  0  0  0  0  0  0
   12.5918  -17.5771   23.8271 N   0  0  0  0  0  0  0  0  0  0  0  0
   14.6219  -17.7361   24.9794 C   0  0  0  0  0  0  0  0  0  0  0  0
   15.7882  -18.4149   25.2421 O   0  0  0  0  0  0  0  0  0  0  0  0
   14.0575  -17.1325   25.9063 O   0  0  0  0  0  0  0  0  0  0  0  0
  2  1  1  0
  3  2  2  0
  4  3  1  0
  5 11  1  0
  5  4  2  0
  6  5  1  0
  7  6  1  0
  7  8  1  6
  9  7  1  0
  9 10  2  0
 11 12  2  0
 12  2  1  0
 13 14  1  0
 14 15  2  0
 14 16  1  0
 16 17  1  0
 18 17  1  6
 18 19  1  0
 19  9  1  0
 20 18  1  0
 21 20  2  0
 22 23  1  0
 23 24  2  0
 25 23  1  0
 26 25  1  6
 26 27  1  0
 26 28  1  0
 27 20  1  0
 28 29  1  0
 30 28  2  0
M  END
$$$$
