YQN.pdb
     RDKit          3D

 30 30  0  0  1  0  0  0  0  0999 V2000
    6.8507  -12.6397   16.2456 O   0  0  0  0  0  0  0  0  0  0  0  0
    7.3240  -13.0485   17.4911 C   0  0  0  0  0  0  0  0  0  0  0  0
    8.2317  -12.3133   18.2191 C   0  0  0  0  0  0  0  0  0  0  0  0
    8.6825  -12.7377   19.4439 C   0  0  0  0  0  0  0  0  0  0  0  0
    8.2302  -13.9412   19.9965 C   0  0  0  0  0  0  0  0  0  0  0  0
    8.7434  -14.3501   21.3140 C   0  0  0  0  0  0  0  0  0  0  0  0
   10.0592  -15.0594   21.1251 C   0  0  2  0  0  0  0  0  0  0  0  0
    9.8644  -16.1653   20.2160 N   0  0  0  0  0  0  0  0  0  0  0  0
   10.6521  -15.5195   22.3905 C   0  0  0  0  0  0  0  0  0  0  0  0
   10.8499  -14.6904   23.3424 O   0  0  0  0  0  0  0  0  0  0  0  0
    7.3278  -14.6752   19.2763 C   0  0  0  0  0  0  0  0  0  0  0  0
    6.8761  -14.2319   18.0292 C   0  0  0  0  0  0  0  0  0  0  0  0
   10.1472  -19.8276   26.1147 N   0  0  0  0  0  0  0  0  0  0  0  0
   11.5691  -19.7312   26.3188 C   0  0  0  0  0  0  0  0  0  0  0  0
   12.0928  -20.1567   27.3613 O   0  0  0  0  0  0  0  0  0  0  0  0
   12.3693  -19.1192   25.2567 C   0  0  0  0  0  0  0  0  0  0  0  0
   11.5034  -18.6403   24.1328 C   0  0  0  0  0  0  0  0  0  0  0  0
   11.8956  -17.2290   23.7657 C   0  0  2  0  0  0  0  0  0  0  0  0
   11.0284  -16.8654   22.6317 N   0  0  0  0  0  0  0  0  0  0  0  0
   13.3311  -17.2273   23.3123 C   0  0  0  0  0  0  0  0  0  0  0  0
   14.0259  -18.2923   23.3261 O   0  0  0  0  0  0  0  0  0  0  0  0
   16.6324  -15.3877   19.6372 N   0  0  0  0  0  0  0  0  0  0  0  0
   15.4098  -14.6417   19.7389 C   0  0  0  0  0  0  0  0  0  0  0  0
   15.1704  -13.7625   18.8847 O   0  0  0  0  0  0  0  0  0  0  0  0
   14.4658  -14.9058   20.8191 C   0  0  0  0  0  0  0  0  0  0  0  0
   14.8690  -15.9739   21.7947 C   0  0  2  0  0  0  0  0  0  0  0  0
   13.8560  -15.9905   22.8758 N   0  0  0  0  0  0  0  0  0  0  0  0
   16.1474  -15.7317   22.4799 C   0  0  0  0  0  0  0  0  0  0  0  0
   16.2495  -14.7597   23.4468 O   0  0  0  0  0  0  0  0  0  0  0  0
   17.1532  -16.4019   22.1948 O   0  0  0  0  0  0  0  0  0  0  0  0
  2  1  1  0
  3  2  2  0
  4  3  1  0
  5 11  1  0
  5  4  2  0
  6  5  1  0
  7  6  1  0
  7  8  1  6
  9  7  1  0
  9 10  2  0
 11 12  2  0
 12  2  1  0
 13 14  1  0
 14 15  2  0
 14 16  1  0
 16 17  1  0
 18 17  1  6
 18 19  1  0
 19  9  1  0
 20 18  1  0
 21 20  2  0
 22 23  1  0
 23 24  2  0
 25 23  1  0
 26 25  1  6
 26 27  1  0
 26 28  1  0
 27 20  1  0
 28 29  1  0
 30 28  2  0
M  END
$$$$
