YQN.pdb
     RDKit          3D

 30 30  0  0  1  0  0  0  0  0999 V2000
    6.3179  -11.8479   21.3257 O   0  0  0  0  0  0  0  0  0  0  0  0
    7.4109  -12.5972   20.8937 C   0  0  0  0  0  0  0  0  0  0  0  0
    7.7265  -12.7519   19.5629 C   0  0  0  0  0  0  0  0  0  0  0  0
    8.8086  -13.4952   19.1629 C   0  0  0  0  0  0  0  0  0  0  0  0
    9.6326  -14.1247   20.1027 C   0  0  0  0  0  0  0  0  0  0  0  0
   10.7816  -14.9087   19.6214 C   0  0  0  0  0  0  0  0  0  0  0  0
   10.3122  -15.8463   18.5395 C   0  0  2  0  0  0  0  0  0  0  0  0
    9.3364  -16.7520   19.1008 N   0  0  0  0  0  0  0  0  0  0  0  0
   11.4119  -16.5891   17.9044 C   0  0  0  0  0  0  0  0  0  0  0  0
   11.7266  -17.7525   18.3291 O   0  0  0  0  0  0  0  0  0  0  0  0
    9.3226  -13.9736   21.4266 C   0  0  0  0  0  0  0  0  0  0  0  0
    8.2170  -13.2136   21.8215 C   0  0  0  0  0  0  0  0  0  0  0  0
   14.0388  -15.3780   12.3910 N   0  0  0  0  0  0  0  0  0  0  0  0
   14.8033  -16.5243   12.8085 C   0  0  0  0  0  0  0  0  0  0  0  0
   15.6863  -17.0013   12.0771 O   0  0  0  0  0  0  0  0  0  0  0  0
   14.5042  -17.1008   14.1205 C   0  0  0  0  0  0  0  0  0  0  0  0
   13.4588  -16.3038   14.8375 C   0  0  0  0  0  0  0  0  0  0  0  0
   13.2829  -16.8513   16.2337 C   0  0  2  0  0  0  0  0  0  0  0  0
   12.1682  -16.0841   16.8162 N   0  0  0  0  0  0  0  0  0  0  0  0
   14.5363  -16.5803   17.0221 C   0  0  0  0  0  0  0  0  0  0  0  0
   15.6354  -17.1466   16.7242 O   0  0  0  0  0  0  0  0  0  0  0  0
   16.5979  -12.4938   16.9992 N   0  0  0  0  0  0  0  0  0  0  0  0
   16.8872  -13.4161   18.0610 C   0  0  0  0  0  0  0  0  0  0  0  0
   18.0670  -13.7920   18.2246 O   0  0  0  0  0  0  0  0  0  0  0  0
   15.8234  -13.9044   18.9314 C   0  0  0  0  0  0  0  0  0  0  0  0
   15.6124  -15.3912   18.9372 C   0  0  2  0  0  0  0  0  0  0  0  0
   14.4238  -15.6723   18.0985 N   0  0  0  0  0  0  0  0  0  0  0  0
   15.2887  -15.9624   20.2530 C   0  0  0  0  0  0  0  0  0  0  0  0
   14.1020  -16.6264   20.4545 O   0  0  0  0  0  0  0  0  0  0  0  0
   16.0832  -15.8529   21.2013 O   0  0  0  0  0  0  0  0  0  0  0  0
  2  1  1  0
  3  2  2  0
  4  3  1  0
  5 11  1  0
  5  4  2  0
  6  5  1  0
  7  6  1  0
  7  8  1  1
  9  7  1  0
  9 10  2  0
 11 12  2  0
 12  2  1  0
 13 14  1  0
 14 15  2  0
 14 16  1  0
 16 17  1  0
 18 17  1  6
 18 19  1  0
 19  9  1  0
 20 18  1  0
 21 20  2  0
 22 23  1  0
 23 24  2  0
 25 23  1  0
 26 25  1  1
 26 27  1  0
 26 28  1  0
 27 20  1  0
 28 29  1  0
 30 28  2  0
M  END
$$$$
