YQN.pdb
     RDKit          3D

 30 30  0  0  1  0  0  0  0  0999 V2000
    5.2721  -10.2201   26.5740 O   0  0  0  0  0  0  0  0  0  0  0  0
    6.0179  -11.3748   26.3442 C   0  0  0  0  0  0  0  0  0  0  0  0
    6.4570  -11.7388   25.0916 C   0  0  0  0  0  0  0  0  0  0  0  0
    7.1904  -12.8814   24.8913 C   0  0  0  0  0  0  0  0  0  0  0  0
    7.5180  -13.7198   25.9627 C   0  0  0  0  0  0  0  0  0  0  0  0
    8.3082  -14.9323   25.6945 C   0  0  0  0  0  0  0  0  0  0  0  0
    7.7411  -15.6246   24.4823 C   0  0  2  0  0  0  0  0  0  0  0  0
    6.4643  -16.2031   24.8326 N   0  0  0  0  0  0  0  0  0  0  0  0
    8.6439  -16.6449   23.9270 C   0  0  0  0  0  0  0  0  0  0  0  0
    8.4920  -17.8734   24.2439 O   0  0  0  0  0  0  0  0  0  0  0  0
    7.0836  -13.3618   27.2097 C   0  0  0  0  0  0  0  0  0  0  0  0
    6.3368  -12.1949   27.4007 C   0  0  0  0  0  0  0  0  0  0  0  0
   12.6466  -17.7702   19.2988 N   0  0  0  0  0  0  0  0  0  0  0  0
   11.2788  -17.3651   19.1034 C   0  0  0  0  0  0  0  0  0  0  0  0
   10.7209  -17.5166   18.0044 O   0  0  0  0  0  0  0  0  0  0  0  0
   10.5745  -16.7744   20.2427 C   0  0  0  0  0  0  0  0  0  0  0  0
   11.4360  -16.7655   21.4675 C   0  0  0  0  0  0  0  0  0  0  0  0
   10.6733  -17.3747   22.6196 C   0  0  2  0  0  0  0  0  0  0  0  0
    9.7037  -16.3456   23.0334 N   0  0  0  0  0  0  0  0  0  0  0  0
   11.6314  -17.6363   23.7509 C   0  0  0  0  0  0  0  0  0  0  0  0
   12.1151  -16.6808   24.4366 O   0  0  0  0  0  0  0  0  0  0  0  0
   12.5904  -20.3161   28.4089 N   0  0  0  0  0  0  0  0  0  0  0  0
   12.6061  -20.9601   27.1256 C   0  0  0  0  0  0  0  0  0  0  0  0
   13.2060  -22.0493   27.0082 O   0  0  0  0  0  0  0  0  0  0  0  0
   11.9344  -20.3537   25.9817 C   0  0  0  0  0  0  0  0  0  0  0  0
   12.7289  -19.3301   25.2227 C   0  0  2  0  0  0  0  0  0  0  0  0
   11.9586  -18.9871   24.0043 N   0  0  0  0  0  0  0  0  0  0  0  0
   14.0291  -19.8041   24.7253 C   0  0  0  0  0  0  0  0  0  0  0  0
   15.1382  -19.7836   25.5373 O   0  0  0  0  0  0  0  0  0  0  0  0
   14.1436  -20.2298   23.5644 O   0  0  0  0  0  0  0  0  0  0  0  0
  2  1  1  0
  3  2  2  0
  4  3  1  0
  5 11  1  0
  5  4  2  0
  6  5  1  0
  7  6  1  0
  7  8  1  1
  9  7  1  0
  9 10  2  0
 11 12  2  0
 12  2  1  0
 13 14  1  0
 14 15  2  0
 14 16  1  0
 16 17  1  0
 18 17  1  6
 18 19  1  0
 19  9  1  0
 20 18  1  0
 21 20  2  0
 22 23  1  0
 23 24  2  0
 25 23  1  0
 26 25  1  6
 26 27  1  0
 26 28  1  0
 27 20  1  0
 28 29  1  0
 30 28  2  0
M  END
$$$$
