YQN.pdb
     RDKit          3D

 30 30  0  0  1  0  0  0  0  0999 V2000
    7.9901  -12.4361   17.6973 O   0  0  0  0  0  0  0  0  0  0  0  0
    7.7861  -12.9295   18.9847 C   0  0  0  0  0  0  0  0  0  0  0  0
    6.7880  -13.8277   19.2868 C   0  0  0  0  0  0  0  0  0  0  0  0
    6.6076  -14.2989   20.5631 C   0  0  0  0  0  0  0  0  0  0  0  0
    7.4394  -13.8778   21.6068 C   0  0  0  0  0  0  0  0  0  0  0  0
    7.2049  -14.4149   22.9570 C   0  0  0  0  0  0  0  0  0  0  0  0
    8.2517  -15.4568   23.2549 C   0  0  2  0  0  0  0  0  0  0  0  0
    8.4084  -16.3030   22.0943 N   0  0  0  0  0  0  0  0  0  0  0  0
    7.9428  -16.2581   24.4495 C   0  0  0  0  0  0  0  0  0  0  0  0
    7.7597  -15.6823   25.5755 O   0  0  0  0  0  0  0  0  0  0  0  0
    8.4329  -12.9850   21.3110 C   0  0  0  0  0  0  0  0  0  0  0  0
    8.6064  -12.5123   20.0063 C   0  0  0  0  0  0  0  0  0  0  0  0
    5.4874  -21.9157   24.6089 N   0  0  0  0  0  0  0  0  0  0  0  0
    5.7959  -21.7436   26.0047 C   0  0  0  0  0  0  0  0  0  0  0  0
    5.4649  -22.6006   26.8401 O   0  0  0  0  0  0  0  0  0  0  0  0
    6.5124  -20.5293   26.3987 C   0  0  0  0  0  0  0  0  0  0  0  0
    6.7787  -19.6492   25.2169 C   0  0  0  0  0  0  0  0  0  0  0  0
    7.5577  -18.4350   25.6632 C   0  0  2  0  0  0  0  0  0  0  0  0
    7.8292  -17.6716   24.4328 N   0  0  0  0  0  0  0  0  0  0  0  0
    8.8618  -18.8891   26.2626 C   0  0  0  0  0  0  0  0  0  0  0  0
    8.8898  -19.5689   27.3370 O   0  0  0  0  0  0  0  0  0  0  0  0
   14.1752  -20.5617   25.2363 N   0  0  0  0  0  0  0  0  0  0  0  0
   13.6983  -19.2092   25.1653 C   0  0  0  0  0  0  0  0  0  0  0  0
   14.5049  -18.2771   25.3667 O   0  0  0  0  0  0  0  0  0  0  0  0
   12.2988  -18.9297   24.8639 C   0  0  0  0  0  0  0  0  0  0  0  0
   11.3395  -19.0792   26.0095 C   0  0  2  0  0  0  0  0  0  0  0  0
   10.0383  -18.5217   25.5722 N   0  0  0  0  0  0  0  0  0  0  0  0
   11.6928  -18.3116   27.2131 C   0  0  0  0  0  0  0  0  0  0  0  0
   12.4353  -18.8872   28.2168 O   0  0  0  0  0  0  0  0  0  0  0  0
   11.3252  -17.1322   27.3399 O   0  0  0  0  0  0  0  0  0  0  0  0
  2  1  1  0
  3  2  2  0
  4  3  1  0
  5 11  1  0
  5  4  2  0
  6  5  1  0
  7  6  1  0
  7  8  1  6
  9  7  1  0
  9 10  2  0
 11 12  2  0
 12  2  1  0
 13 14  1  0
 14 15  2  0
 14 16  1  0
 16 17  1  0
 18 17  1  6
 18 19  1  0
 19  9  1  0
 20 18  1  0
 21 20  2  0
 22 23  1  0
 23 24  2  0
 25 23  1  0
 26 25  1  6
 26 27  1  0
 26 28  1  0
 27 20  1  0
 28 29  1  0
 30 28  2  0
M  END
$$$$
