YQN.pdb
     RDKit          3D

 30 30  0  0  1  0  0  0  0  0999 V2000
    5.0193  -10.6063   28.0585 O   0  0  0  0  0  0  0  0  0  0  0  0
    5.7466  -11.5514   27.3371 C   0  0  0  0  0  0  0  0  0  0  0  0
    6.3691  -11.2583   26.1451 C   0  0  0  0  0  0  0  0  0  0  0  0
    7.0797  -12.2070   25.4534 C   0  0  0  0  0  0  0  0  0  0  0  0
    7.1951  -13.5134   25.9416 C   0  0  0  0  0  0  0  0  0  0  0  0
    7.9700  -14.4925   25.1624 C   0  0  0  0  0  0  0  0  0  0  0  0
    7.0194  -15.3171   24.3337 C   0  0  2  0  0  0  0  0  0  0  0  0
    6.1176  -16.0166   25.2198 N   0  0  0  0  0  0  0  0  0  0  0  0
    7.7062  -16.2582   23.4354 C   0  0  0  0  0  0  0  0  0  0  0  0
    7.1755  -17.3894   23.1680 O   0  0  0  0  0  0  0  0  0  0  0  0
    6.5779  -13.8092   27.1262 C   0  0  0  0  0  0  0  0  0  0  0  0
    5.8566  -12.8335   27.8216 C   0  0  0  0  0  0  0  0  0  0  0  0
    7.8104  -12.6954   19.5824 N   0  0  0  0  0  0  0  0  0  0  0  0
    8.1451  -13.7739   18.6892 C   0  0  0  0  0  0  0  0  0  0  0  0
    8.2525  -13.5785   17.4676 O   0  0  0  0  0  0  0  0  0  0  0  0
    8.3552  -15.1001   19.2722 C   0  0  0  0  0  0  0  0  0  0  0  0
    8.2284  -15.0632   20.7638 C   0  0  0  0  0  0  0  0  0  0  0  0
    9.1437  -16.1004   21.3693 C   0  0  2  0  0  0  0  0  0  0  0  0
    8.9568  -15.9831   22.8259 N   0  0  0  0  0  0  0  0  0  0  0  0
   10.5667  -15.7527   21.0226 C   0  0  0  0  0  0  0  0  0  0  0  0
   10.9197  -14.5465   20.8279 O   0  0  0  0  0  0  0  0  0  0  0  0
   11.8132  -19.4214   24.8052 N   0  0  0  0  0  0  0  0  0  0  0  0
   12.0341  -18.0544   24.4255 C   0  0  0  0  0  0  0  0  0  0  0  0
   12.7796  -17.3473   25.1356 O   0  0  0  0  0  0  0  0  0  0  0  0
   11.3999  -17.5026   23.2334 C   0  0  0  0  0  0  0  0  0  0  0  0
   12.3217  -17.1698   22.0956 C   0  0  2  0  0  0  0  0  0  0  0  0
   11.4767  -16.8291   20.9272 N   0  0  0  0  0  0  0  0  0  0  0  0
   13.1642  -18.2851   21.6388 C   0  0  0  0  0  0  0  0  0  0  0  0
   12.7080  -19.1597   20.6813 O   0  0  0  0  0  0  0  0  0  0  0  0
   14.3001  -18.4529   22.1118 O   0  0  0  0  0  0  0  0  0  0  0  0
  2  1  1  0
  3  2  2  0
  4  3  1  0
  5 11  1  0
  5  4  2  0
  6  5  1  0
  7  6  1  0
  7  8  1  1
  9  7  1  0
  9 10  2  0
 11 12  2  0
 12  2  1  0
 13 14  1  0
 14 15  2  0
 14 16  1  0
 16 17  1  0
 18 17  1  6
 18 19  1  0
 19  9  1  0
 20 18  1  0
 21 20  2  0
 22 23  1  0
 23 24  2  0
 25 23  1  0
 26 25  1  1
 26 27  1  0
 26 28  1  0
 27 20  1  0
 28 29  1  0
 30 28  2  0
M  END
$$$$
