YQN.pdb
     RDKit          3D

 30 30  0  0  1  0  0  0  0  0999 V2000
    4.9713  -11.1211   27.6728 O   0  0  0  0  0  0  0  0  0  0  0  0
    5.8433  -12.0383   27.0890 C   0  0  0  0  0  0  0  0  0  0  0  0
    6.1205  -13.2629   27.6530 C   0  0  0  0  0  0  0  0  0  0  0  0
    6.9833  -14.1490   27.0582 C   0  0  0  0  0  0  0  0  0  0  0  0
    7.6140  -13.8336   25.8494 C   0  0  0  0  0  0  0  0  0  0  0  0
    8.5289  -14.8198   25.2520 C   0  0  0  0  0  0  0  0  0  0  0  0
    7.8010  -15.5600   24.1601 C   0  0  2  0  0  0  0  0  0  0  0  0
    6.7583  -16.3620   24.7579 N   0  0  0  0  0  0  0  0  0  0  0  0
    8.6920  -16.3900   23.3344 C   0  0  0  0  0  0  0  0  0  0  0  0
    8.9135  -17.6064   23.6573 O   0  0  0  0  0  0  0  0  0  0  0  0
    7.3413  -12.6174   25.2852 C   0  0  0  0  0  0  0  0  0  0  0  0
    6.4603  -11.7230   25.9013 C   0  0  0  0  0  0  0  0  0  0  0  0
    9.9650  -13.0102   18.5723 N   0  0  0  0  0  0  0  0  0  0  0  0
   10.9959  -13.5362   19.4287 C   0  0  0  0  0  0  0  0  0  0  0  0
   12.1949  -13.3210   19.1875 O   0  0  0  0  0  0  0  0  0  0  0  0
   10.5798  -14.3266   20.5885 C   0  0  0  0  0  0  0  0  0  0  0  0
   10.9367  -15.7706   20.4169 C   0  0  0  0  0  0  0  0  0  0  0  0
   10.5890  -16.5249   21.6781 C   0  0  2  0  0  0  0  0  0  0  0  0
    9.3399  -15.9148   22.1658 N   0  0  0  0  0  0  0  0  0  0  0  0
   11.6786  -16.3015   22.6924 C   0  0  0  0  0  0  0  0  0  0  0  0
   11.5761  -15.3947   23.5781 O   0  0  0  0  0  0  0  0  0  0  0  0
   13.9502  -19.5664   25.9713 N   0  0  0  0  0  0  0  0  0  0  0  0
   12.5919  -19.5057   25.5099 C   0  0  0  0  0  0  0  0  0  0  0  0
   11.7339  -20.2162   26.0748 O   0  0  0  0  0  0  0  0  0  0  0  0
   12.2216  -18.6311   24.4028 C   0  0  0  0  0  0  0  0  0  0  0  0
   13.3280  -17.7894   23.8348 C   0  0  2  0  0  0  0  0  0  0  0  0
   12.8077  -17.1462   22.6057 N   0  0  0  0  0  0  0  0  0  0  0  0
   14.5112  -18.5431   23.3937 C   0  0  0  0  0  0  0  0  0  0  0  0
   14.4145  -19.4660   22.3795 O   0  0  0  0  0  0  0  0  0  0  0  0
   15.6149  -18.3563   23.9314 O   0  0  0  0  0  0  0  0  0  0  0  0
  2  1  1  0
  3  2  2  0
  4  3  1  0
  5 11  1  0
  5  4  2  0
  6  5  1  0
  7  6  1  0
  7  8  1  1
  9  7  1  0
  9 10  2  0
 11 12  2  0
 12  2  1  0
 13 14  1  0
 14 15  2  0
 14 16  1  0
 16 17  1  0
 18 17  1  6
 18 19  1  0
 19  9  1  0
 20 18  1  0
 21 20  2  0
 22 23  1  0
 23 24  2  0
 25 23  1  0
 26 25  1  6
 26 27  1  0
 26 28  1  0
 27 20  1  0
 28 29  1  0
 30 28  2  0
M  END
$$$$
