YQN.pdb
     RDKit          3D

 30 30  0  0  1  0  0  0  0  0999 V2000
    8.6358  -12.2626   17.4999 O   0  0  0  0  0  0  0  0  0  0  0  0
    8.2455  -12.7852   18.7316 C   0  0  0  0  0  0  0  0  0  0  0  0
    9.1376  -13.0333   19.7499 C   0  0  0  0  0  0  0  0  0  0  0  0
    8.7281  -13.5484   20.9542 C   0  0  0  0  0  0  0  0  0  0  0  0
    7.3794  -13.8403   21.1876 C   0  0  0  0  0  0  0  0  0  0  0  0
    6.9922  -14.3894   22.4971 C   0  0  0  0  0  0  0  0  0  0  0  0
    7.5619  -15.7779   22.6304 C   0  0  2  0  0  0  0  0  0  0  0  0
    7.0957  -16.5796   21.5225 N   0  0  0  0  0  0  0  0  0  0  0  0
    7.2307  -16.4153   23.9143 C   0  0  0  0  0  0  0  0  0  0  0  0
    6.1457  -16.1122   24.5173 O   0  0  0  0  0  0  0  0  0  0  0  0
    6.4891  -13.5951   20.1781 C   0  0  0  0  0  0  0  0  0  0  0  0
    6.9190  -13.0700   18.9553 C   0  0  0  0  0  0  0  0  0  0  0  0
    5.8633  -21.5495   25.7666 N   0  0  0  0  0  0  0  0  0  0  0  0
    6.5272  -21.2576   24.5228 C   0  0  0  0  0  0  0  0  0  0  0  0
    6.6846  -22.1396   23.6630 O   0  0  0  0  0  0  0  0  0  0  0  0
    7.0040  -19.8899   24.3104 C   0  0  0  0  0  0  0  0  0  0  0  0
    6.5298  -18.9754   25.3971 C   0  0  0  0  0  0  0  0  0  0  0  0
    7.6516  -18.0449   25.7925 C   0  0  2  0  0  0  0  0  0  0  0  0
    8.0614  -17.3759   24.5456 N   0  0  0  0  0  0  0  0  0  0  0  0
    8.8003  -18.8653   26.3154 C   0  0  0  0  0  0  0  0  0  0  0  0
    8.8610  -20.1185   26.1077 O   0  0  0  0  0  0  0  0  0  0  0  0
   12.2711  -16.6622   25.0318 N   0  0  0  0  0  0  0  0  0  0  0  0
   12.1998  -17.9984   25.5527 C   0  0  0  0  0  0  0  0  0  0  0  0
   12.1399  -18.9531   24.7496 O   0  0  0  0  0  0  0  0  0  0  0  0
   12.1974  -18.2357   26.9919 C   0  0  0  0  0  0  0  0  0  0  0  0
   10.9758  -18.9142   27.5418 C   0  0  2  0  0  0  0  0  0  0  0  0
    9.7950  -18.1725   27.0409 N   0  0  0  0  0  0  0  0  0  0  0  0
   10.8540  -18.8712   29.0067 C   0  0  0  0  0  0  0  0  0  0  0  0
   11.7625  -19.5266   29.8036 O   0  0  0  0  0  0  0  0  0  0  0  0
    9.9284  -18.2421   29.5449 O   0  0  0  0  0  0  0  0  0  0  0  0
  2  1  1  0
  3  2  2  0
  4  3  1  0
  5 11  1  0
  5  4  2  0
  6  5  1  0
  7  6  1  0
  7  8  1  6
  9  7  1  0
  9 10  2  0
 11 12  2  0
 12  2  1  0
 13 14  1  0
 14 15  2  0
 14 16  1  0
 16 17  1  0
 18 17  1  6
 18 19  1  0
 19  9  1  0
 20 18  1  0
 21 20  2  0
 22 23  1  0
 23 24  2  0
 25 23  1  0
 26 25  1  1
 26 27  1  0
 26 28  1  0
 27 20  1  0
 28 29  1  0
 30 28  2  0
M  END
$$$$
