DIM.pdb
     RDKit          3D

 25 24  0  0  1  0  0  0  0  0999 V2000
   22.8278  -18.3647  -17.3868 N   0  0  0  0  0  0  0  0  0  0  0  0
   22.4696  -19.6095  -16.7435 C   0  0  1  0  0  0  0  0  0  0  0  0
   21.9244  -20.6304  -17.6960 C   0  0  0  0  0  0  0  0  0  0  0  0
   20.6193  -20.1571  -18.2059 C   0  0  0  0  0  0  0  0  0  0  0  0
   20.1919  -19.0113  -17.9447 O   0  0  0  0  0  0  0  0  0  0  0  0
   23.6255  -20.0915  -15.9729 C   0  0  0  0  0  0  0  0  0  0  0  0
   23.7338  -21.2682  -15.5361 O   0  0  0  0  0  0  0  0  0  0  0  0
   19.8260  -20.9846  -18.9978 O   0  0  0  0  0  0  0  0  0  0  0  0
   28.3580  -17.6937  -17.2165 C   0  0  0  0  0  0  0  0  0  0  0  0
   27.4789  -18.8228  -16.7519 C   0  0  0  0  0  0  0  0  0  0  0  0
   27.0570  -18.7525  -15.3211 C   0  0  2  0  0  0  0  0  0  0  0  0
   28.2806  -19.1265  -14.4874 C   0  0  0  0  0  0  0  0  0  0  0  0
   25.9265  -19.7002  -15.0039 C   0  0  2  0  0  0  0  0  0  0  0  0
   24.7042  -19.2196  -15.6798 N   0  0  0  0  0  0  0  0  0  0  0  0
   25.5812  -19.6980  -13.5728 C   0  0  0  0  0  0  0  0  0  0  0  0
   24.9795  -18.7067  -13.0866 O   0  0  0  0  0  0  0  0  0  0  0  0
   20.6723  -19.4983   -9.4256 C   0  0  0  0  0  0  0  0  0  0  0  0
   21.7342  -20.8715   -9.9412 S   0  0  0  0  0  0  0  0  0  0  0  0
   23.3381  -20.1948  -10.4271 C   0  0  0  0  0  0  0  0  0  0  0  0
   24.3076  -21.3008  -10.8525 C   0  0  0  0  0  0  0  0  0  0  0  0
   25.5974  -20.6108  -11.2246 C   0  0  2  0  0  0  0  0  0  0  0  0
   25.8602  -20.7325  -12.6503 N   0  0  0  0  0  0  0  0  0  0  0  0
   26.6976  -21.1074  -10.4003 C   0  0  0  0  0  0  0  0  0  0  0  0
   26.6688  -20.9046   -9.0286 O   0  0  0  0  0  0  0  0  0  0  0  0
   27.6850  -21.7181  -10.8722 O   0  0  0  0  0  0  0  0  0  0  0  0
  2  1  1  6
  2  3  1  0
  3  4  1  0
  4  8  1  0
  4  5  2  0
  6  7  2  0
  6  2  1  0
  9 10  1  0
 10 11  1  0
 11 12  1  1
 11 13  1  0
 13 14  1  6
 14  6  1  0
 15 22  1  0
 15 13  1  0
 16 15  2  0
 18 17  1  0
 19 18  1  0
 21 20  1  1
 20 19  1  0
 21 22  1  0
 21 23  1  0
 23 24  1  0
 25 23  2  0
M  END
$$$$
