DIM.pdb
     RDKit          3D

 25 24  0  0  1  0  0  0  0  0999 V2000
   21.2860  -13.2862  -18.5738 N   0  0  0  0  0  0  0  0  0  0  0  0
   22.1660  -12.1811  -18.8831 C   0  0  1  0  0  0  0  0  0  0  0  0
   21.5709  -11.2070  -19.8545 C   0  0  0  0  0  0  0  0  0  0  0  0
   21.2128  -11.9292  -21.0944 C   0  0  0  0  0  0  0  0  0  0  0  0
   21.9210  -12.8602  -21.5366 O   0  0  0  0  0  0  0  0  0  0  0  0
   22.5989  -11.5566  -17.6243 C   0  0  0  0  0  0  0  0  0  0  0  0
   22.0182  -11.7320  -16.5202 O   0  0  0  0  0  0  0  0  0  0  0  0
   20.0659  -11.5866  -21.8075 O   0  0  0  0  0  0  0  0  0  0  0  0
   27.4042  -11.9821  -15.7099 C   0  0  0  0  0  0  0  0  0  0  0  0
   25.9426  -11.6737  -15.8885 C   0  0  0  0  0  0  0  0  0  0  0  0
   25.6239  -10.2402  -16.1596 C   0  0  2  0  0  0  0  0  0  0  0  0
   26.0958   -9.4510  -14.9402 C   0  0  0  0  0  0  0  0  0  0  0  0
   24.1480  -10.0048  -16.3677 C   0  0  2  0  0  0  0  0  0  0  0  0
   23.7286  -10.7005  -17.6014 N   0  0  0  0  0  0  0  0  0  0  0  0
   23.8391   -8.5878  -16.6206 C   0  0  0  0  0  0  0  0  0  0  0  0
   24.2904   -8.0350  -17.6560 O   0  0  0  0  0  0  0  0  0  0  0  0
   18.5334   -5.1809  -18.7144 C   0  0  0  0  0  0  0  0  0  0  0  0
   20.2422   -5.1450  -19.3123 S   0  0  0  0  0  0  0  0  0  0  0  0
   21.3433   -5.1481  -17.8791 C   0  0  0  0  0  0  0  0  0  0  0  0
   21.7854   -6.5680  -17.5148 C   0  0  0  0  0  0  0  0  0  0  0  0
   22.5657   -6.4496  -16.2283 C   0  0  2  0  0  0  0  0  0  0  0  0
   23.0554   -7.7492  -15.7951 N   0  0  0  0  0  0  0  0  0  0  0  0
   21.7663   -5.7751  -15.2072 C   0  0  0  0  0  0  0  0  0  0  0  0
   21.6288   -4.3957  -15.2483 O   0  0  0  0  0  0  0  0  0  0  0  0
   21.1865   -6.3849  -14.2784 O   0  0  0  0  0  0  0  0  0  0  0  0
  2  1  1  1
  2  3  1  0
  3  4  1  0
  4  8  1  0
  4  5  2  0
  6  7  2  0
  6  2  1  0
  9 10  1  0
 10 11  1  0
 11 12  1  1
 11 13  1  0
 13 14  1  6
 14  6  1  0
 15 22  1  0
 15 13  1  0
 16 15  2  0
 18 17  1  0
 19 18  1  0
 21 20  1  6
 20 19  1  0
 21 22  1  0
 21 23  1  0
 23 24  1  0
 25 23  2  0
M  END
$$$$
