DIM.pdb
     RDKit          3D

 25 24  0  0  1  0  0  0  0  0999 V2000
   27.5224  -23.7990  -18.0653 N   0  0  0  0  0  0  0  0  0  0  0  0
   26.3207  -23.0104  -17.9060 C   0  0  1  0  0  0  0  0  0  0  0  0
   25.1852  -23.4859  -18.7612 C   0  0  0  0  0  0  0  0  0  0  0  0
   25.3248  -22.8953  -20.1099 C   0  0  0  0  0  0  0  0  0  0  0  0
   25.1167  -23.5683  -21.1431 O   0  0  0  0  0  0  0  0  0  0  0  0
   25.9849  -22.9467  -16.4759 C   0  0  0  0  0  0  0  0  0  0  0  0
   26.2138  -23.8799  -15.6610 O   0  0  0  0  0  0  0  0  0  0  0  0
   25.6954  -21.5611  -20.2639 O   0  0  0  0  0  0  0  0  0  0  0  0
   28.1238  -19.2139  -13.8490 C   0  0  0  0  0  0  0  0  0  0  0  0
   27.3642  -20.4793  -14.1411 C   0  0  0  0  0  0  0  0  0  0  0  0
   25.8785  -20.3664  -14.0406 C   0  0  2  0  0  0  0  0  0  0  0  0
   25.5608  -20.0955  -12.5715 C   0  0  0  0  0  0  0  0  0  0  0  0
   25.1714  -21.6242  -14.4818 C   0  0  2  0  0  0  0  0  0  0  0  0
   25.3675  -21.7901  -15.9364 N   0  0  0  0  0  0  0  0  0  0  0  0
   23.7117  -21.5316  -14.3151 C   0  0  0  0  0  0  0  0  0  0  0  0
   23.0789  -20.6308  -14.9228 O   0  0  0  0  0  0  0  0  0  0  0  0
   16.6842  -24.0284  -11.8752 C   0  0  0  0  0  0  0  0  0  0  0  0
   18.4514  -24.4171  -11.8046 S   0  0  0  0  0  0  0  0  0  0  0  0
   19.3660  -23.0208  -12.4975 C   0  0  0  0  0  0  0  0  0  0  0  0
   20.8701  -23.3034  -12.5440 C   0  0  0  0  0  0  0  0  0  0  0  0
   21.4921  -22.1533  -13.2979 C   0  0  2  0  0  0  0  0  0  0  0  0
   22.9119  -22.3821  -13.5175 N   0  0  0  0  0  0  0  0  0  0  0  0
   21.2198  -20.8896  -12.6157 C   0  0  0  0  0  0  0  0  0  0  0  0
   20.1705  -20.0923  -13.0481 O   0  0  0  0  0  0  0  0  0  0  0  0
   21.8940  -20.4776  -11.6429 O   0  0  0  0  0  0  0  0  0  0  0  0
  2  1  1  1
  2  3  1  0
  3  4  1  0
  4  8  1  0
  4  5  2  0
  6  7  2  0
  6  2  1  0
  9 10  1  0
 10 11  1  0
 11 12  1  1
 11 13  1  0
 13 14  1  6
 14  6  1  0
 15 22  1  0
 15 13  1  0
 16 15  2  0
 18 17  1  0
 19 18  1  0
 21 20  1  1
 20 19  1  0
 21 22  1  0
 21 23  1  0
 23 24  1  0
 25 23  2  0
M  END
$$$$
