DIM.pdb
     RDKit          3D

 25 24  0  0  1  0  0  0  0  0999 V2000
   13.2892  -26.5545   -9.2032 N   0  0  0  0  0  0  0  0  0  0  0  0
   13.4927  -25.7428   -8.0238 C   0  0  1  0  0  0  0  0  0  0  0  0
   12.3628  -25.8332   -7.0431 C   0  0  0  0  0  0  0  0  0  0  0  0
   11.2502  -24.9825   -7.5182 C   0  0  0  0  0  0  0  0  0  0  0  0
   11.1529  -24.6432   -8.7179 O   0  0  0  0  0  0  0  0  0  0  0  0
   14.7990  -26.0800   -7.4391 C   0  0  0  0  0  0  0  0  0  0  0  0
   15.1101  -27.2336   -7.0397 O   0  0  0  0  0  0  0  0  0  0  0  0
   10.2734  -24.5337   -6.6320 O   0  0  0  0  0  0  0  0  0  0  0  0
   19.0791  -23.3129   -9.3725 C   0  0  0  0  0  0  0  0  0  0  0  0
   18.3056  -24.4515   -8.7653 C   0  0  0  0  0  0  0  0  0  0  0  0
   18.1169  -24.3743   -7.2859 C   0  0  2  0  0  0  0  0  0  0  0  0
   19.4879  -24.6182   -6.6588 C   0  0  0  0  0  0  0  0  0  0  0  0
   17.1412  -25.4045   -6.7725 C   0  0  2  0  0  0  0  0  0  0  0  0
   15.7977  -25.0841   -7.2961 N   0  0  0  0  0  0  0  0  0  0  0  0
   16.9893  -25.3487   -5.3093 C   0  0  0  0  0  0  0  0  0  0  0  0
   16.0448  -24.6827   -4.8137 O   0  0  0  0  0  0  0  0  0  0  0  0
   12.8810  -27.3774   -2.2076 C   0  0  0  0  0  0  0  0  0  0  0  0
   14.2229  -28.2304   -1.3412 S   0  0  0  0  0  0  0  0  0  0  0  0
   15.7278  -27.2458   -1.5201 C   0  0  0  0  0  0  0  0  0  0  0  0
   16.1046  -27.0600   -2.9924 C   0  0  0  0  0  0  0  0  0  0  0  0
   17.3943  -26.2760   -3.0019 C   0  0  2  0  0  0  0  0  0  0  0  0
   17.8206  -25.9919   -4.3635 N   0  0  0  0  0  0  0  0  0  0  0  0
   18.4172  -26.9674   -2.2195 C   0  0  0  0  0  0  0  0  0  0  0  0
   18.5918  -26.6406   -0.8830 O   0  0  0  0  0  0  0  0  0  0  0  0
   19.1601  -27.8564   -2.6975 O   0  0  0  0  0  0  0  0  0  0  0  0
  2  1  1  6
  2  3  1  0
  3  4  1  0
  4  8  1  0
  4  5  2  0
  6  7  2  0
  6  2  1  0
  9 10  1  0
 10 11  1  0
 11 12  1  1
 11 13  1  0
 13 14  1  6
 14  6  1  0
 15 22  1  0
 15 13  1  0
 16 15  2  0
 18 17  1  0
 19 18  1  0
 21 20  1  6
 20 19  1  0
 21 22  1  0
 21 23  1  0
 23 24  1  0
 25 23  2  0
M  END
$$$$
