DIM.pdb
     RDKit          3D

 25 24  0  0  1  0  0  0  0  0999 V2000
   22.1427  -14.3648  -17.9009 N   0  0  0  0  0  0  0  0  0  0  0  0
   22.1060  -12.9619  -18.2499 C   0  0  1  0  0  0  0  0  0  0  0  0
   20.9396  -12.6004  -19.1192 C   0  0  0  0  0  0  0  0  0  0  0  0
   21.0435  -13.3482  -20.3909 C   0  0  0  0  0  0  0  0  0  0  0  0
   22.1395  -13.4967  -20.9744 O   0  0  0  0  0  0  0  0  0  0  0  0
   22.1799  -12.1669  -17.0152 C   0  0  0  0  0  0  0  0  0  0  0  0
   21.5132  -12.4226  -15.9773 O   0  0  0  0  0  0  0  0  0  0  0  0
   19.9113  -13.9113  -20.9759 O   0  0  0  0  0  0  0  0  0  0  0  0
   27.0483   -9.9929  -15.9879 C   0  0  0  0  0  0  0  0  0  0  0  0
   25.5884   -9.9374  -16.3469 C   0  0  0  0  0  0  0  0  0  0  0  0
   24.6509  -10.3588  -15.2636 C   0  0  2  0  0  0  0  0  0  0  0  0
   24.9992  -11.8068  -14.9250 C   0  0  0  0  0  0  0  0  0  0  0  0
   23.2046  -10.2775  -15.6858 C   0  0  2  0  0  0  0  0  0  0  0  0
   23.0358  -11.0392  -16.9401 N   0  0  0  0  0  0  0  0  0  0  0  0
   22.8003   -8.9048  -16.0312 C   0  0  0  0  0  0  0  0  0  0  0  0
   23.1415   -8.4239  -17.1419 O   0  0  0  0  0  0  0  0  0  0  0  0
   18.2894   -2.7986  -16.9175 C   0  0  0  0  0  0  0  0  0  0  0  0
   18.3781   -4.5061  -16.3215 S   0  0  0  0  0  0  0  0  0  0  0  0
   20.1202   -4.9607  -16.1642 C   0  0  0  0  0  0  0  0  0  0  0  0
   20.2817   -6.3873  -15.6322 C   0  0  0  0  0  0  0  0  0  0  0  0
   21.7666   -6.6521  -15.5792 C   0  0  2  0  0  0  0  0  0  0  0  0
   22.0360   -8.0356  -15.2191 N   0  0  0  0  0  0  0  0  0  0  0  0
   22.4236   -5.6960  -14.6899 C   0  0  0  0  0  0  0  0  0  0  0  0
   22.7935   -4.4517  -15.1784 O   0  0  0  0  0  0  0  0  0  0  0  0
   22.6766   -5.9417  -13.4873 O   0  0  0  0  0  0  0  0  0  0  0  0
  2  1  1  1
  2  3  1  0
  3  4  1  0
  4  8  1  0
  4  5  2  0
  6  7  2  0
  6  2  1  0
  9 10  1  0
 10 11  1  0
 11 12  1  6
 11 13  1  0
 13 14  1  6
 14  6  1  0
 15 22  1  0
 15 13  1  0
 16 15  2  0
 18 17  1  0
 19 18  1  0
 21 20  1  1
 20 19  1  0
 21 22  1  0
 21 23  1  0
 23 24  1  0
 25 23  2  0
M  END
$$$$
