DIM.pdb
     RDKit          3D

 25 24  0  0  1  0  0  0  0  0999 V2000
   29.1276  -22.9020  -16.6142 N   0  0  0  0  0  0  0  0  0  0  0  0
   27.6832  -22.9671  -16.6427 C   0  0  1  0  0  0  0  0  0  0  0  0
   27.1508  -24.3527  -16.4341 C   0  0  0  0  0  0  0  0  0  0  0  0
   26.3775  -24.7511  -17.6301 C   0  0  0  0  0  0  0  0  0  0  0  0
   26.8405  -24.6137  -18.7836 O   0  0  0  0  0  0  0  0  0  0  0  0
   27.1481  -21.9879  -15.6852 C   0  0  0  0  0  0  0  0  0  0  0  0
   27.5924  -21.8378  -14.5159 O   0  0  0  0  0  0  0  0  0  0  0  0
   25.1014  -25.2948  -17.4997 O   0  0  0  0  0  0  0  0  0  0  0  0
   27.6062  -17.1057  -16.2310 C   0  0  0  0  0  0  0  0  0  0  0  0
   27.2506  -18.4493  -15.6552 C   0  0  0  0  0  0  0  0  0  0  0  0
   25.7918  -18.7685  -15.6400 C   0  0  2  0  0  0  0  0  0  0  0  0
   25.1292  -17.7341  -14.7326 C   0  0  0  0  0  0  0  0  0  0  0  0
   25.5078  -20.1530  -15.1115 C   0  0  2  0  0  0  0  0  0  0  0  0
   26.0714  -21.1421  -16.0526 N   0  0  0  0  0  0  0  0  0  0  0  0
   24.0671  -20.4537  -15.0800 C   0  0  0  0  0  0  0  0  0  0  0  0
   23.3488  -20.1267  -16.0590 O   0  0  0  0  0  0  0  0  0  0  0  0
   20.1692  -25.4083  -12.9358 C   0  0  0  0  0  0  0  0  0  0  0  0
   19.3878  -23.9250  -12.2516 S   0  0  0  0  0  0  0  0  0  0  0  0
   20.0079  -22.4896  -13.1579 C   0  0  0  0  0  0  0  0  0  0  0  0
   21.5350  -22.4010  -13.0908 C   0  0  0  0  0  0  0  0  0  0  0  0
   21.9346  -21.2897  -14.0307 C   0  0  2  0  0  0  0  0  0  0  0  0
   23.3769  -21.0998  -14.0287 N   0  0  0  0  0  0  0  0  0  0  0  0
   21.2006  -20.0658  -13.7145 C   0  0  0  0  0  0  0  0  0  0  0  0
   20.0394  -19.7664  -14.4113 O   0  0  0  0  0  0  0  0  0  0  0  0
   21.5685  -19.2556  -12.8319 O   0  0  0  0  0  0  0  0  0  0  0  0
  2  1  1  1
  2  3  1  0
  3  4  1  0
  4  8  1  0
  4  5  2  0
  6  7  2  0
  6  2  1  0
  9 10  1  0
 10 11  1  0
 11 12  1  1
 11 13  1  0
 13 14  1  6
 14  6  1  0
 15 22  1  0
 15 13  1  0
 16 15  2  0
 18 17  1  0
 19 18  1  0
 21 20  1  1
 20 19  1  0
 21 22  1  0
 21 23  1  0
 23 24  1  0
 25 23  2  0
M  END
$$$$
