DIM.pdb
     RDKit          3D

 25 24  0  0  1  0  0  0  0  0999 V2000
   18.9791  -12.1408  -18.5358 N   0  0  0  0  0  0  0  0  0  0  0  0
   19.8074  -10.9844  -18.7970 C   0  0  1  0  0  0  0  0  0  0  0  0
   19.0765   -9.8825  -19.5028 C   0  0  0  0  0  0  0  0  0  0  0  0
   18.6923  -10.3530  -20.8513 C   0  0  0  0  0  0  0  0  0  0  0  0
   18.9400  -11.5180  -21.2325 O   0  0  0  0  0  0  0  0  0  0  0  0
   20.4293  -10.5554  -17.5356 C   0  0  0  0  0  0  0  0  0  0  0  0
   19.9017  -10.7206  -16.4036 O   0  0  0  0  0  0  0  0  0  0  0  0
   18.0383   -9.5012  -21.7389 O   0  0  0  0  0  0  0  0  0  0  0  0
   25.9707  -10.3956  -15.0863 C   0  0  0  0  0  0  0  0  0  0  0  0
   24.5818   -9.8179  -15.1166 C   0  0  0  0  0  0  0  0  0  0  0  0
   23.7640  -10.1911  -16.3090 C   0  0  2  0  0  0  0  0  0  0  0  0
   24.5290   -9.6951  -17.5343 C   0  0  0  0  0  0  0  0  0  0  0  0
   22.3914   -9.5647  -16.2885 C   0  0  2  0  0  0  0  0  0  0  0  0
   21.6941   -9.9151  -17.5426 N   0  0  0  0  0  0  0  0  0  0  0  0
   22.4491   -8.0937  -16.2976 C   0  0  0  0  0  0  0  0  0  0  0  0
   22.9758   -7.5047  -17.2759 O   0  0  0  0  0  0  0  0  0  0  0  0
   19.7299   -1.1597  -16.8624 C   0  0  0  0  0  0  0  0  0  0  0  0
   19.3943   -2.9317  -16.7007 S   0  0  0  0  0  0  0  0  0  0  0  0
   20.8669   -3.7265  -16.0181 C   0  0  0  0  0  0  0  0  0  0  0  0
   20.6934   -5.2450  -15.9271 C   0  0  0  0  0  0  0  0  0  0  0  0
   21.9961   -5.7870  -15.3913 C   0  0  2  0  0  0  0  0  0  0  0  0
   21.9531   -7.2374  -15.2878 N   0  0  0  0  0  0  0  0  0  0  0  0
   22.3370   -5.1377  -14.1269 C   0  0  0  0  0  0  0  0  0  0  0  0
   22.2231   -5.8486  -12.9415 O   0  0  0  0  0  0  0  0  0  0  0  0
   22.7343   -3.9514  -14.0518 O   0  0  0  0  0  0  0  0  0  0  0  0
  2  1  1  1
  2  3  1  0
  3  4  1  0
  4  8  1  0
  4  5  2  0
  6  7  2  0
  6  2  1  0
  9 10  1  0
 10 11  1  0
 11 12  1  6
 11 13  1  0
 13 14  1  6
 14  6  1  0
 15 22  1  0
 15 13  1  0
 16 15  2  0
 18 17  1  0
 19 18  1  0
 21 20  1  1
 20 19  1  0
 21 22  1  0
 21 23  1  0
 23 24  1  0
 25 23  2  0
M  END
$$$$
