DIM.pdb
     RDKit          3D

 25 24  0  0  1  0  0  0  0  0999 V2000
   15.1898  -13.2174  -17.1524 N   0  0  0  0  0  0  0  0  0  0  0  0
   15.6735  -12.4970  -15.9954 C   0  0  1  0  0  0  0  0  0  0  0  0
   16.5595  -13.3239  -15.1135 C   0  0  0  0  0  0  0  0  0  0  0  0
   15.7701  -14.4475  -14.5643 C   0  0  0  0  0  0  0  0  0  0  0  0
   16.2318  -15.6088  -14.5158 O   0  0  0  0  0  0  0  0  0  0  0  0
   16.3046  -11.2483  -16.4476 C   0  0  0  0  0  0  0  0  0  0  0  0
   17.0165  -11.1591  -17.4831 O   0  0  0  0  0  0  0  0  0  0  0  0
   14.4798  -14.2377  -14.0824 O   0  0  0  0  0  0  0  0  0  0  0  0
   13.4729   -6.7598  -16.4822 C   0  0  0  0  0  0  0  0  0  0  0  0
   14.6253   -7.6536  -16.8517 C   0  0  0  0  0  0  0  0  0  0  0  0
   15.7612   -7.6597  -15.8823 C   0  0  2  0  0  0  0  0  0  0  0  0
   16.4722   -6.3168  -16.0361 C   0  0  0  0  0  0  0  0  0  0  0  0
   16.7403   -8.7774  -16.1452 C   0  0  2  0  0  0  0  0  0  0  0  0
   16.1310  -10.0505  -15.7095 N   0  0  0  0  0  0  0  0  0  0  0  0
   17.9597   -8.6544  -15.3297 C   0  0  0  0  0  0  0  0  0  0  0  0
   17.8663   -8.6776  -14.0759 O   0  0  0  0  0  0  0  0  0  0  0  0
   22.9012  -12.1881  -13.9437 C   0  0  0  0  0  0  0  0  0  0  0  0
   23.7741  -10.6453  -14.3129 S   0  0  0  0  0  0  0  0  0  0  0  0
   22.5821   -9.2888  -14.2378 C   0  0  0  0  0  0  0  0  0  0  0  0
   21.4242   -9.5051  -15.2159 C   0  0  0  0  0  0  0  0  0  0  0  0
   20.4372   -8.3939  -14.9531 C   0  0  2  0  0  0  0  0  0  0  0  0
   19.2770   -8.5118  -15.8230 N   0  0  0  0  0  0  0  0  0  0  0  0
   21.0947   -7.0926  -15.0573 C   0  0  0  0  0  0  0  0  0  0  0  0
   21.5955   -6.4870  -13.9146 O   0  0  0  0  0  0  0  0  0  0  0  0
   21.2343   -6.4811  -16.1423 O   0  0  0  0  0  0  0  0  0  0  0  0
  2  1  1  6
  2  3  1  0
  3  4  1  0
  4  8  1  0
  4  5  2  0
  6  7  2  0
  6  2  1  0
  9 10  1  0
 10 11  1  0
 11 12  1  6
 11 13  1  0
 13 14  1  1
 14  6  1  0
 15 22  1  0
 15 13  1  0
 16 15  2  0
 18 17  1  0
 19 18  1  0
 21 20  1  6
 20 19  1  0
 21 22  1  0
 21 23  1  0
 23 24  1  0
 25 23  2  0
M  END
$$$$
