DIM.pdb
     RDKit          3D

 25 24  0  0  1  0  0  0  0  0999 V2000
   28.3631  -21.2224  -15.1126 N   0  0  0  0  0  0  0  0  0  0  0  0
   27.5751  -20.2570  -14.3789 C   0  0  1  0  0  0  0  0  0  0  0  0
   26.8032  -19.3284  -15.2669 C   0  0  0  0  0  0  0  0  0  0  0  0
   27.7572  -18.5472  -16.0835 C   0  0  0  0  0  0  0  0  0  0  0  0
   27.9896  -18.8407  -17.2767 O   0  0  0  0  0  0  0  0  0  0  0  0
   26.7303  -20.9746  -13.4128 C   0  0  0  0  0  0  0  0  0  0  0  0
   26.2040  -22.0962  -13.6411 O   0  0  0  0  0  0  0  0  0  0  0  0
   28.4271  -17.4542  -15.5380 O   0  0  0  0  0  0  0  0  0  0  0  0
   27.2759  -20.4596   -8.0038 C   0  0  0  0  0  0  0  0  0  0  0  0
   26.8358  -21.0356   -9.3221 C   0  0  0  0  0  0  0  0  0  0  0  0
   25.5784  -20.4555   -9.8813 C   0  0  2  0  0  0  0  0  0  0  0  0
   24.4369  -20.9605   -9.0012 C   0  0  0  0  0  0  0  0  0  0  0  0
   25.3326  -20.8753  -11.3096 C   0  0  2  0  0  0  0  0  0  0  0  0
   26.4642  -20.4128  -12.1387 N   0  0  0  0  0  0  0  0  0  0  0  0
   24.1543  -20.2118  -11.8914 C   0  0  0  0  0  0  0  0  0  0  0  0
   24.3150  -19.3595  -12.8019 O   0  0  0  0  0  0  0  0  0  0  0  0
   19.7478  -23.3934  -16.6560 C   0  0  0  0  0  0  0  0  0  0  0  0
   21.1709  -23.3232  -15.5386 S   0  0  0  0  0  0  0  0  0  0  0  0
   20.9162  -21.9570  -14.3832 C   0  0  0  0  0  0  0  0  0  0  0  0
   22.0727  -21.8427  -13.3863 C   0  0  0  0  0  0  0  0  0  0  0  0
   21.7518  -20.6626  -12.5017 C   0  0  2  0  0  0  0  0  0  0  0  0
   22.8078  -20.4413  -11.5259 N   0  0  0  0  0  0  0  0  0  0  0  0
   20.4364  -20.8292  -11.8865 C   0  0  0  0  0  0  0  0  0  0  0  0
   20.2971  -21.6643  -10.7880 O   0  0  0  0  0  0  0  0  0  0  0  0
   19.4070  -20.2487  -12.3036 O   0  0  0  0  0  0  0  0  0  0  0  0
  2  1  1  6
  2  3  1  0
  3  4  1  0
  4  8  1  0
  4  5  2  0
  6  7  2  0
  6  2  1  0
  9 10  1  0
 10 11  1  0
 11 12  1  1
 11 13  1  0
 13 14  1  6
 14  6  1  0
 15 22  1  0
 15 13  1  0
 16 15  2  0
 18 17  1  0
 19 18  1  0
 21 20  1  1
 20 19  1  0
 21 22  1  0
 21 23  1  0
 23 24  1  0
 25 23  2  0
M  END
$$$$
