YGM.pdb
     RDKit          3D

 25 25  0  0  1  0  0  0  0  0999 V2000
   21.7412  -15.9000  -19.7362 O   0  0  0  0  0  0  0  0  0  0  0  0
   22.6747  -16.6307  -19.0109 C   0  0  0  0  0  0  0  0  0  0  0  0
   23.9838  -16.1946  -18.8687 C   0  0  0  0  0  0  0  0  0  0  0  0
   24.8863  -16.9402  -18.1440 C   0  0  0  0  0  0  0  0  0  0  0  0
   24.5582  -18.1383  -17.5275 C   0  0  0  0  0  0  0  0  0  0  0  0
   25.5482  -18.9031  -16.7607 C   0  0  0  0  0  0  0  0  0  0  0  0
   25.1092  -19.1656  -15.3145 C   0  0  2  0  0  0  0  0  0  0  0  0
   25.0323  -17.8954  -14.6523 N   0  0  0  0  0  0  0  0  0  0  0  0
   26.1736  -19.9807  -14.6863 C   0  0  0  0  0  0  0  0  0  0  0  0
   26.4970  -21.1225  -15.0990 O   0  0  0  0  0  0  0  0  0  0  0  0
   23.2469  -18.5688  -17.6737 C   0  0  0  0  0  0  0  0  0  0  0  0
   22.3451  -17.8210  -18.3995 C   0  0  0  0  0  0  0  0  0  0  0  0
   26.8793  -19.4761  -13.5649 N   0  0  0  0  0  0  0  0  0  0  0  0
   27.8380  -20.2201  -12.8164 C   0  0  0  0  0  0  0  0  0  0  0  0
   27.2718  -20.8154  -11.5788 C   0  0  0  0  0  0  0  0  0  0  0  0
   27.3739  -22.0570  -11.4321 O   0  0  0  0  0  0  0  0  0  0  0  0
   29.4055  -19.9329   -5.4279 C   0  0  0  0  0  0  0  0  0  0  0  0
   27.8361  -19.4703   -6.1172 S   0  0  0  0  0  0  0  0  0  0  0  0
   27.3860  -20.2196   -7.6746 C   0  0  0  0  0  0  0  0  0  0  0  0
   26.0135  -19.9858   -8.1698 C   0  0  0  0  0  0  0  0  0  0  0  0
   25.7585  -20.5375   -9.5393 C   0  0  2  0  0  0  0  0  0  0  0  0
   26.6336  -20.0656  -10.5739 N   0  0  0  0  0  0  0  0  0  0  0  0
   24.3439  -20.5500   -9.9258 C   0  0  0  0  0  0  0  0  0  0  0  0
   23.4244  -21.3218   -9.2339 O   0  0  0  0  0  0  0  0  0  0  0  0
   23.9117  -19.8662  -10.8931 O   0  0  0  0  0  0  0  0  0  0  0  0
  1  2  1  0
  2 12  2  0
  2  3  1  0
  3  4  2  0
  4  5  1  0
  5  6  1  0
  6  7  1  0
  7  8  1  1
  7  9  1  0
  9 10  2  0
 11  5  2  0
 12 11  1  0
 13  9  1  0
 13 14  1  0
 15 14  1  0
 15 22  1  0
 16 15  2  0
 17 18  1  0
 18 19  1  0
 20 19  1  0
 21 22  1  0
 21 20  1  1
 23 21  1  0
 24 23  1  0
 25 23  2  0
M  END
$$$$
