YGM.pdb
     RDKit          3D

 25 25  0  0  1  0  0  0  0  0999 V2000
   20.9720  -19.1743  -15.1552 O   0  0  0  0  0  0  0  0  0  0  0  0
   21.1145  -17.8767  -15.6321 C   0  0  0  0  0  0  0  0  0  0  0  0
   20.8182  -16.7773  -14.8398 C   0  0  0  0  0  0  0  0  0  0  0  0
   20.9693  -15.5035  -15.3399 C   0  0  0  0  0  0  0  0  0  0  0  0
   21.4134  -15.2422  -16.6274 C   0  0  0  0  0  0  0  0  0  0  0  0
   21.5644  -13.8695  -17.1233 C   0  0  0  0  0  0  0  0  0  0  0  0
   20.2245  -13.2131  -17.4793 C   0  0  2  0  0  0  0  0  0  0  0  0
   19.6161  -14.0093  -18.5058 N   0  0  0  0  0  0  0  0  0  0  0  0
   20.5369  -11.8714  -18.0220 C   0  0  0  0  0  0  0  0  0  0  0  0
   20.7529  -11.6580  -19.2412 O   0  0  0  0  0  0  0  0  0  0  0  0
   21.7081  -16.3465  -17.4147 C   0  0  0  0  0  0  0  0  0  0  0  0
   21.5561  -17.6207  -16.9122 C   0  0  0  0  0  0  0  0  0  0  0  0
   20.6022  -10.7555  -17.1500 N   0  0  0  0  0  0  0  0  0  0  0  0
   20.9317   -9.4309  -17.5620 C   0  0  0  0  0  0  0  0  0  0  0  0
   20.9078   -8.4533  -16.4439 C   0  0  0  0  0  0  0  0  0  0  0  0
   20.5079   -8.8589  -15.3261 O   0  0  0  0  0  0  0  0  0  0  0  0
   22.9561   -1.1018  -13.8384 C   0  0  0  0  0  0  0  0  0  0  0  0
   22.9028   -2.2830  -15.1628 S   0  0  0  0  0  0  0  0  0  0  0  0
   22.0510   -3.8193  -14.8406 C   0  0  0  0  0  0  0  0  0  0  0  0
   22.0229   -4.8216  -15.9260 C   0  0  0  0  0  0  0  0  0  0  0  0
   21.3030   -6.0859  -15.5684 C   0  0  2  0  0  0  0  0  0  0  0  0
   21.3065   -7.1103  -16.5732 N   0  0  0  0  0  0  0  0  0  0  0  0
   19.9904   -5.8731  -14.9501 C   0  0  0  0  0  0  0  0  0  0  0  0
   19.8466   -5.8631  -13.5719 O   0  0  0  0  0  0  0  0  0  0  0  0
   18.9505   -5.6924  -15.6401 O   0  0  0  0  0  0  0  0  0  0  0  0
  1  2  1  0
  2 12  2  0
  2  3  1  0
  3  4  2  0
  4  5  1  0
  5  6  1  0
  6  7  1  0
  7  8  1  6
  7  9  1  0
  9 10  2  0
 11  5  2  0
 12 11  1  0
 13  9  1  0
 13 14  1  0
 15 14  1  0
 15 22  1  0
 16 15  2  0
 17 18  1  0
 18 19  1  0
 20 19  1  0
 21 22  1  0
 21 20  1  6
 23 21  1  0
 24 23  1  0
 25 23  2  0
M  END
$$$$
