YGM.pdb
     RDKit          3D

 25 25  0  0  1  0  0  0  0  0999 V2000
   18.3993  -19.7345  -14.0777 O   0  0  0  0  0  0  0  0  0  0  0  0
   19.7172  -20.1267  -13.8760 C   0  0  0  0  0  0  0  0  0  0  0  0
   20.3308  -21.0563  -14.7028 C   0  0  0  0  0  0  0  0  0  0  0  0
   21.6380  -21.4253  -14.4781 C   0  0  0  0  0  0  0  0  0  0  0  0
   22.4045  -20.9094  -13.4439 C   0  0  0  0  0  0  0  0  0  0  0  0
   23.7965  -21.3257  -13.2388 C   0  0  0  0  0  0  0  0  0  0  0  0
   24.8091  -20.2726  -13.7062 C   0  0  2  0  0  0  0  0  0  0  0  0
   24.6022  -20.0727  -15.1116 N   0  0  0  0  0  0  0  0  0  0  0  0
   26.1556  -20.8480  -13.4874 C   0  0  0  0  0  0  0  0  0  0  0  0
   26.9200  -21.1816  -14.4271 O   0  0  0  0  0  0  0  0  0  0  0  0
   21.7846  -19.9798  -12.6206 C   0  0  0  0  0  0  0  0  0  0  0  0
   20.4760  -19.6119  -12.8472 C   0  0  0  0  0  0  0  0  0  0  0  0
   26.6330  -21.0436  -12.1669 N   0  0  0  0  0  0  0  0  0  0  0  0
   27.9783  -21.3847  -11.8400 C   0  0  0  0  0  0  0  0  0  0  0  0
   28.2367  -21.3866  -10.3773 C   0  0  0  0  0  0  0  0  0  0  0  0
   28.8949  -22.3444   -9.9049 O   0  0  0  0  0  0  0  0  0  0  0  0
   29.9393  -20.1065   -3.9212 C   0  0  0  0  0  0  0  0  0  0  0  0
   28.5646  -19.1262   -4.4700 S   0  0  0  0  0  0  0  0  0  0  0  0
   27.5435  -19.8189   -5.7612 C   0  0  0  0  0  0  0  0  0  0  0  0
   27.9600  -19.5802   -7.1588 C   0  0  0  0  0  0  0  0  0  0  0  0
   27.3401  -20.5200   -8.1474 C   0  0  2  0  0  0  0  0  0  0  0  0
   27.7857  -20.3798   -9.5041 N   0  0  0  0  0  0  0  0  0  0  0  0
   25.8855  -20.6523   -8.0168 C   0  0  0  0  0  0  0  0  0  0  0  0
   25.0471  -20.3711   -9.0836 O   0  0  0  0  0  0  0  0  0  0  0  0
   25.3445  -21.0234   -6.9399 O   0  0  0  0  0  0  0  0  0  0  0  0
  1  2  1  0
  2 12  2  0
  2  3  1  0
  3  4  2  0
  4  5  1  0
  5  6  1  0
  6  7  1  0
  7  8  1  6
  7  9  1  0
  9 10  2  0
 11  5  2  0
 12 11  1  0
 13  9  1  0
 13 14  1  0
 15 14  1  0
 15 22  1  0
 16 15  2  0
 17 18  1  0
 18 19  1  0
 20 19  1  0
 21 22  1  0
 21 20  1  1
 23 21  1  0
 24 23  1  0
 25 23  2  0
M  END
$$$$
