YGM.pdb
     RDKit          3D

 25 25  0  0  1  0  0  0  0  0999 V2000
   28.5387  -20.0877   -5.8858 O   0  0  0  0  0  0  0  0  0  0  0  0
   28.1548  -20.1764   -7.2185 C   0  0  0  0  0  0  0  0  0  0  0  0
   26.9639  -19.6245   -7.6674 C   0  0  0  0  0  0  0  0  0  0  0  0
   26.6102  -19.7283   -8.9939 C   0  0  0  0  0  0  0  0  0  0  0  0
   27.3949  -20.3705   -9.9398 C   0  0  0  0  0  0  0  0  0  0  0  0
   26.9848  -20.4577  -11.3460 C   0  0  0  0  0  0  0  0  0  0  0  0
   25.5135  -20.8579  -11.5145 C   0  0  2  0  0  0  0  0  0  0  0  0
   25.3994  -22.2388  -11.1430 N   0  0  0  0  0  0  0  0  0  0  0  0
   25.1926  -20.7103  -12.9523 C   0  0  0  0  0  0  0  0  0  0  0  0
   25.3324  -21.6404  -13.7853 O   0  0  0  0  0  0  0  0  0  0  0  0
   28.5850  -20.9203   -9.4841 C   0  0  0  0  0  0  0  0  0  0  0  0
   28.9372  -20.8154   -8.1560 C   0  0  0  0  0  0  0  0  0  0  0  0
   24.7024  -19.4735  -13.4422 N   0  0  0  0  0  0  0  0  0  0  0  0
   24.2085  -19.2709  -14.7643 C   0  0  0  0  0  0  0  0  0  0  0  0
   22.8031  -19.7212  -14.9333 C   0  0  0  0  0  0  0  0  0  0  0  0
   21.8967  -18.8695  -14.7698 O   0  0  0  0  0  0  0  0  0  0  0  0
   20.5412  -25.7407  -17.8326 C   0  0  0  0  0  0  0  0  0  0  0  0
   19.4574  -25.2025  -16.5334 S   0  0  0  0  0  0  0  0  0  0  0  0
   19.6617  -23.5253  -15.9545 C   0  0  0  0  0  0  0  0  0  0  0  0
   21.0423  -23.0153  -15.8225 C   0  0  0  0  0  0  0  0  0  0  0  0
   21.1257  -21.6123  -15.3034 C   0  0  2  0  0  0  0  0  0  0  0  0
   22.4408  -21.0398  -15.2639 N   0  0  0  0  0  0  0  0  0  0  0  0
   20.3453  -21.3778  -14.0841 C   0  0  0  0  0  0  0  0  0  0  0  0
   19.0454  -20.9028  -14.1521 O   0  0  0  0  0  0  0  0  0  0  0  0
   20.8206  -21.5964  -12.9368 O   0  0  0  0  0  0  0  0  0  0  0  0
  1  2  1  0
  2 12  2  0
  2  3  1  0
  3  4  2  0
  4  5  1  0
  5  6  1  0
  6  7  1  0
  7  8  1  6
  7  9  1  0
  9 10  2  0
 11  5  2  0
 12 11  1  0
 13  9  1  0
 13 14  1  0
 15 14  1  0
 15 22  1  0
 16 15  2  0
 17 18  1  0
 18 19  1  0
 20 19  1  0
 21 22  1  0
 21 20  1  1
 23 21  1  0
 24 23  1  0
 25 23  2  0
M  END
$$$$
