YGM.pdb
     RDKit          3D

 25 25  0  0  1  0  0  0  0  0999 V2000
   20.9032  -18.3731  -17.3043 O   0  0  0  0  0  0  0  0  0  0  0  0
   21.6586  -19.1038  -16.3949 C   0  0  0  0  0  0  0  0  0  0  0  0
   22.7598  -18.5505  -15.7582 C   0  0  0  0  0  0  0  0  0  0  0  0
   23.4890  -19.2992  -14.8619 C   0  0  0  0  0  0  0  0  0  0  0  0
   23.1818  -20.6140  -14.5457 C   0  0  0  0  0  0  0  0  0  0  0  0
   23.9820  -21.3787  -13.5823 C   0  0  0  0  0  0  0  0  0  0  0  0
   23.5158  -21.1860  -12.1337 C   0  0  2  0  0  0  0  0  0  0  0  0
   22.4453  -20.2313  -12.1510 N   0  0  0  0  0  0  0  0  0  0  0  0
   24.6628  -20.6208  -11.3873 C   0  0  0  0  0  0  0  0  0  0  0  0
   24.8584  -19.3860  -11.2623 O   0  0  0  0  0  0  0  0  0  0  0  0
   22.0790  -21.1615  -15.1862 C   0  0  0  0  0  0  0  0  0  0  0  0
   21.3505  -20.4104  -16.0830 C   0  0  0  0  0  0  0  0  0  0  0  0
   25.6014  -21.4883  -10.7737 N   0  0  0  0  0  0  0  0  0  0  0  0
   26.7384  -21.0493  -10.0337 C   0  0  0  0  0  0  0  0  0  0  0  0
   26.4002  -20.6185   -8.6529 C   0  0  0  0  0  0  0  0  0  0  0  0
   25.4098  -21.1570   -8.1026 O   0  0  0  0  0  0  0  0  0  0  0  0
   28.4949  -20.3905   -2.0739 C   0  0  0  0  0  0  0  0  0  0  0  0
   27.8433  -20.9621   -3.6233 S   0  0  0  0  0  0  0  0  0  0  0  0
   28.9964  -21.1089   -4.9792 C   0  0  0  0  0  0  0  0  0  0  0  0
   28.4490  -21.0242   -6.3492 C   0  0  0  0  0  0  0  0  0  0  0  0
   27.6973  -19.7583   -6.6270 C   0  0  2  0  0  0  0  0  0  0  0  0
   27.1263  -19.6479   -7.9387 N   0  0  0  0  0  0  0  0  0  0  0  0
   28.3863  -18.5428   -6.1813 C   0  0  0  0  0  0  0  0  0  0  0  0
   29.5091  -18.0772   -6.8464 O   0  0  0  0  0  0  0  0  0  0  0  0
   27.9890  -17.8793   -5.1853 O   0  0  0  0  0  0  0  0  0  0  0  0
  1  2  1  0
  2 12  2  0
  2  3  1  0
  3  4  2  0
  4  5  1  0
  5  6  1  0
  6  7  1  0
  7  8  1  6
  7  9  1  0
  9 10  2  0
 11  5  2  0
 12 11  1  0
 13  9  1  0
 13 14  1  0
 15 14  1  0
 15 22  1  0
 16 15  2  0
 17 18  1  0
 18 19  1  0
 20 19  1  0
 21 22  1  0
 21 20  1  6
 23 21  1  0
 24 23  1  0
 25 23  2  0
M  END
$$$$
