YGM.pdb
     RDKit          3D

 25 25  0  0  1  0  0  0  0  0999 V2000
   18.7300  -19.1180  -16.1009 O   0  0  0  0  0  0  0  0  0  0  0  0
   19.9968  -19.4778  -15.6568 C   0  0  0  0  0  0  0  0  0  0  0  0
   20.2696  -19.6494  -14.3076 C   0  0  0  0  0  0  0  0  0  0  0  0
   21.5345  -20.0062  -13.8977 C   0  0  0  0  0  0  0  0  0  0  0  0
   22.5869  -20.2114  -14.7772 C   0  0  0  0  0  0  0  0  0  0  0  0
   23.9212  -20.5942  -14.3015 C   0  0  0  0  0  0  0  0  0  0  0  0
   24.7432  -19.3981  -13.8048 C   0  0  2  0  0  0  0  0  0  0  0  0
   24.5537  -18.3287  -14.7420 N   0  0  0  0  0  0  0  0  0  0  0  0
   26.1628  -19.8183  -13.8231 C   0  0  0  0  0  0  0  0  0  0  0  0
   27.0948  -19.0697  -14.2098 O   0  0  0  0  0  0  0  0  0  0  0  0
   22.3072  -20.0381  -16.1255 C   0  0  0  0  0  0  0  0  0  0  0  0
   21.0404  -19.6809  -16.5337 C   0  0  0  0  0  0  0  0  0  0  0  0
   26.5186  -21.1204  -13.3897 N   0  0  0  0  0  0  0  0  0  0  0  0
   27.7810  -21.4623  -12.8218 C   0  0  0  0  0  0  0  0  0  0  0  0
   27.7861  -21.3954  -11.3379 C   0  0  0  0  0  0  0  0  0  0  0  0
   28.7488  -21.9286  -10.7357 O   0  0  0  0  0  0  0  0  0  0  0  0
   29.3872  -19.2669   -5.4532 C   0  0  0  0  0  0  0  0  0  0  0  0
   27.6309  -19.0974   -5.6506 S   0  0  0  0  0  0  0  0  0  0  0  0
   26.8437  -20.1772   -6.8355 C   0  0  0  0  0  0  0  0  0  0  0  0
   27.1687  -19.9725   -8.2624 C   0  0  0  0  0  0  0  0  0  0  0  0
   26.4879  -20.9361   -9.1859 C   0  0  2  0  0  0  0  0  0  0  0  0
   26.7771  -20.7714  -10.5817 N   0  0  0  0  0  0  0  0  0  0  0  0
   25.0635  -21.1348   -8.8998 C   0  0  0  0  0  0  0  0  0  0  0  0
   24.6526  -21.7576   -7.7322 O   0  0  0  0  0  0  0  0  0  0  0  0
   24.1643  -20.7512   -9.6963 O   0  0  0  0  0  0  0  0  0  0  0  0
  1  2  1  0
  2 12  2  0
  2  3  1  0
  3  4  2  0
  4  5  1  0
  5  6  1  0
  6  7  1  0
  7  8  1  6
  7  9  1  0
  9 10  2  0
 11  5  2  0
 12 11  1  0
 13  9  1  0
 13 14  1  0
 15 14  1  0
 15 22  1  0
 16 15  2  0
 17 18  1  0
 18 19  1  0
 20 19  1  0
 21 22  1  0
 21 20  1  1
 23 21  1  0
 24 23  1  0
 25 23  2  0
M  END
$$$$
