YGM.pdb
     RDKit          3D

 25 25  0  0  1  0  0  0  0  0999 V2000
   17.7437  -20.3760  -18.0191 O   0  0  0  0  0  0  0  0  0  0  0  0
   18.8530  -20.1549  -17.2117 C   0  0  0  0  0  0  0  0  0  0  0  0
   18.7248  -19.6416  -15.9294 C   0  0  0  0  0  0  0  0  0  0  0  0
   19.8424  -19.4334  -15.1528 C   0  0  0  0  0  0  0  0  0  0  0  0
   21.1296  -19.7137  -15.5860 C   0  0  0  0  0  0  0  0  0  0  0  0
   22.2962  -19.4807  -14.7269 C   0  0  0  0  0  0  0  0  0  0  0  0
   22.8208  -20.7648  -14.0721 C   0  0  2  0  0  0  0  0  0  0  0  0
   21.7866  -21.2602  -13.2102 N   0  0  0  0  0  0  0  0  0  0  0  0
   23.9945  -20.3796  -13.2560 C   0  0  0  0  0  0  0  0  0  0  0  0
   23.9019  -19.7252  -12.1875 O   0  0  0  0  0  0  0  0  0  0  0  0
   21.2508  -20.2271  -16.8697 C   0  0  0  0  0  0  0  0  0  0  0  0
   20.1309  -20.4347  -17.6454 C   0  0  0  0  0  0  0  0  0  0  0  0
   25.2970  -20.7523  -13.6737 N   0  0  0  0  0  0  0  0  0  0  0  0
   26.4888  -20.4619  -12.9468 C   0  0  0  0  0  0  0  0  0  0  0  0
   26.5406  -21.1375  -11.6250 C   0  0  0  0  0  0  0  0  0  0  0  0
   25.8737  -22.1907  -11.4844 O   0  0  0  0  0  0  0  0  0  0  0  0
   28.0734  -19.2276   -3.9303 C   0  0  0  0  0  0  0  0  0  0  0  0
   28.4344  -19.0097   -5.6549 S   0  0  0  0  0  0  0  0  0  0  0  0
   27.4661  -19.9680   -6.8098 C   0  0  0  0  0  0  0  0  0  0  0  0
   27.8208  -19.8685   -8.2408 C   0  0  0  0  0  0  0  0  0  0  0  0
   26.9365  -20.6726   -9.1442 C   0  0  2  0  0  0  0  0  0  0  0  0
   27.2913  -20.6616  -10.5345 N   0  0  0  0  0  0  0  0  0  0  0  0
   25.5026  -20.4837   -8.9017 C   0  0  0  0  0  0  0  0  0  0  0  0
   24.8204  -21.2912   -8.0059 O   0  0  0  0  0  0  0  0  0  0  0  0
   24.8395  -19.5884   -9.4923 O   0  0  0  0  0  0  0  0  0  0  0  0
  1  2  1  0
  2 12  2  0
  2  3  1  0
  3  4  2  0
  4  5  1  0
  5  6  1  0
  6  7  1  0
  7  8  1  1
  7  9  1  0
  9 10  2  0
 11  5  2  0
 12 11  1  0
 13  9  1  0
 13 14  1  0
 15 14  1  0
 15 22  1  0
 16 15  2  0
 17 18  1  0
 18 19  1  0
 20 19  1  0
 21 22  1  0
 21 20  1  1
 23 21  1  0
 24 23  1  0
 25 23  2  0
M  END
$$$$
