CDV.pdb
     RDKit          3D

 22 21  0  0  1  0  0  0  0  0999 V2000
   19.2632  -13.8719  -16.4032 N   0  0  0  0  0  0  0  0  0  0  0  0
   18.7172  -12.7252  -17.0894 C   0  0  1  0  0  0  0  0  0  0  0  0
   17.2402  -12.8535  -17.3315 C   0  0  0  0  0  0  0  0  0  0  0  0
   16.9987  -14.0489  -18.6781 S   0  0  0  0  0  0  0  0  0  0  0  0
   18.9345  -11.5296  -16.2266 C   0  0  0  0  0  0  0  0  0  0  0  0
   18.5794  -11.6461  -15.0103 O   0  0  0  0  0  0  0  0  0  0  0  0
   19.4961  -10.3311  -16.7012 N   0  0  0  0  0  0  0  0  0  0  0  0
   19.5995   -9.1907  -15.7845 C   0  0  1  0  0  0  0  0  0  0  0  0
   21.0293   -8.9197  -15.4418 C   0  0  0  0  0  0  0  0  0  0  0  0
   21.2848   -7.7897  -14.5525 C   0  0  0  0  0  0  0  0  0  0  0  0
   20.3907   -7.0938  -14.0461 O   0  0  0  0  0  0  0  0  0  0  0  0
   18.9600   -8.0057  -16.4254 C   0  0  0  0  0  0  0  0  0  0  0  0
   19.1067   -7.6957  -17.6034 O   0  0  0  0  0  0  0  0  0  0  0  0
   22.6014   -7.4599  -14.2444 O   0  0  0  0  0  0  0  0  0  0  0  0
   15.1658   -6.7153  -15.4387 C   0  0  0  0  0  0  0  0  0  0  0  0
   16.0028   -6.1958  -16.6086 C   0  0  1  0  0  0  0  0  0  0  0  0
   15.3956   -4.9895  -17.2436 C   0  0  0  0  0  0  0  0  0  0  0  0
   17.4408   -6.0401  -16.2399 C   0  0  2  0  0  0  0  0  0  0  0  0
   18.1054   -7.1280  -15.6738 N   0  0  0  0  0  0  0  0  0  0  0  0
   17.5334   -4.8696  -15.3260 C   0  0  0  0  0  0  0  0  0  0  0  0
   17.7951   -4.9846  -14.1032 O   0  0  0  0  0  0  0  0  0  0  0  0
   17.3262   -3.5962  -15.8243 O   0  0  0  0  0  0  0  0  0  0  0  0
  2  1  1  1
  2  3  1  0
  3  4  1  0
  5  2  1  0
  5  7  1  0
  6  5  2  0
  8  7  1  0
  8 12  1  0
  8  9  1  6
 10  9  1  0
 11 10  2  0
 12 19  1  0
 13 12  2  0
 14 10  1  0
 16 15  1  1
 16 17  1  0
 18 20  1  0
 18 16  1  0
 18 19  1  1
 20 22  1  0
 21 20  2  0
M  END
$$$$
