CDV.pdb
     RDKit          3D

 22 21  0  0  1  0  0  0  0  0999 V2000
   18.0970  -15.6067  -15.6381 N   0  0  0  0  0  0  0  0  0  0  0  0
   17.3252  -14.4940  -16.1380 C   0  0  1  0  0  0  0  0  0  0  0  0
   15.8460  -14.7153  -15.9982 C   0  0  0  0  0  0  0  0  0  0  0  0
   15.3397  -15.9116  -17.2682 S   0  0  0  0  0  0  0  0  0  0  0  0
   17.6831  -13.2912  -15.3341 C   0  0  0  0  0  0  0  0  0  0  0  0
   17.8256  -13.4770  -14.0835 O   0  0  0  0  0  0  0  0  0  0  0  0
   17.8590  -12.0148  -15.8972 N   0  0  0  0  0  0  0  0  0  0  0  0
   18.3309  -10.9247  -15.0367 C   0  0  1  0  0  0  0  0  0  0  0  0
   19.1717   -9.9655  -15.8167 C   0  0  0  0  0  0  0  0  0  0  0  0
   19.7537   -8.8521  -15.0719 C   0  0  0  0  0  0  0  0  0  0  0  0
   19.0850   -8.0241  -14.4335 O   0  0  0  0  0  0  0  0  0  0  0  0
   17.1465  -10.2458  -14.4365 C   0  0  0  0  0  0  0  0  0  0  0  0
   16.1144   -9.9903  -15.0486 O   0  0  0  0  0  0  0  0  0  0  0  0
   21.1366   -8.6953  -15.0671 O   0  0  0  0  0  0  0  0  0  0  0  0
   14.3264   -9.0165  -10.6457 C   0  0  0  0  0  0  0  0  0  0  0  0
   15.4826   -9.8397  -11.2153 C   0  0  1  0  0  0  0  0  0  0  0  0
   15.1293  -11.2822  -11.3605 C   0  0  0  0  0  0  0  0  0  0  0  0
   16.0561   -9.2190  -12.4458 C   0  0  2  0  0  0  0  0  0  0  0  0
   17.1460   -9.8376  -13.0585 N   0  0  0  0  0  0  0  0  0  0  0  0
   16.4085   -7.8146  -12.1033 C   0  0  0  0  0  0  0  0  0  0  0  0
   17.5953   -7.4304  -11.9592 O   0  0  0  0  0  0  0  0  0  0  0  0
   15.4030   -6.8805  -11.9328 O   0  0  0  0  0  0  0  0  0  0  0  0
  2  1  1  1
  2  3  1  0
  3  4  1  0
  5  2  1  0
  5  7  1  0
  6  5  2  0
  8  7  1  0
  8 12  1  0
  8  9  1  6
 10  9  1  0
 11 10  2  0
 12 19  1  0
 13 12  2  0
 14 10  1  0
 16 15  1  6
 16 17  1  0
 18 20  1  0
 18 16  1  0
 18 19  1  1
 20 22  1  0
 21 20  2  0
M  END
$$$$
