CDV.pdb
     RDKit          3D

 22 21  0  0  1  0  0  0  0  0999 V2000
   15.7751  -13.4575  -14.3452 N   0  0  0  0  0  0  0  0  0  0  0  0
   15.0601  -12.2046  -14.2898 C   0  0  1  0  0  0  0  0  0  0  0  0
   13.7098  -12.3447  -13.6467 C   0  0  0  0  0  0  0  0  0  0  0  0
   12.6385  -13.2581  -14.7949 S   0  0  0  0  0  0  0  0  0  0  0  0
   15.8611  -11.2571  -13.4641 C   0  0  0  0  0  0  0  0  0  0  0  0
   16.2453  -11.6901  -12.3311 O   0  0  0  0  0  0  0  0  0  0  0  0
   16.1876   -9.9562  -13.8864 N   0  0  0  0  0  0  0  0  0  0  0  0
   17.0300   -9.1254  -13.0195 C   0  0  1  0  0  0  0  0  0  0  0  0
   18.0143   -8.3470  -13.8325 C   0  0  0  0  0  0  0  0  0  0  0  0
   18.9174   -7.4662  -13.0967 C   0  0  0  0  0  0  0  0  0  0  0  0
   19.6896   -6.6601  -13.6392 O   0  0  0  0  0  0  0  0  0  0  0  0
   16.1491   -8.2237  -12.2228 C   0  0  0  0  0  0  0  0  0  0  0  0
   15.2850   -7.4997  -12.7068 O   0  0  0  0  0  0  0  0  0  0  0  0
   18.9259   -7.5205  -11.7060 O   0  0  0  0  0  0  0  0  0  0  0  0
   13.7629   -6.9693   -8.1864 C   0  0  0  0  0  0  0  0  0  0  0  0
   14.5558   -7.9939   -8.9991 C   0  0  1  0  0  0  0  0  0  0  0  0
   13.6824   -9.0664   -9.5591 C   0  0  0  0  0  0  0  0  0  0  0  0
   15.4489   -7.3407  -10.0010 C   0  0  2  0  0  0  0  0  0  0  0  0
   16.2659   -8.1483  -10.7923 N   0  0  0  0  0  0  0  0  0  0  0  0
   16.2860   -6.3560   -9.2640 C   0  0  0  0  0  0  0  0  0  0  0  0
   17.5013   -6.5522   -9.0157 O   0  0  0  0  0  0  0  0  0  0  0  0
   15.7215   -5.1716   -8.8267 O   0  0  0  0  0  0  0  0  0  0  0  0
  2  1  1  1
  2  3  1  0
  3  4  1  0
  5  2  1  0
  5  7  1  0
  6  5  2  0
  8  7  1  0
  8 12  1  0
  8  9  1  6
 10  9  1  0
 11 10  2  0
 12 19  1  0
 13 12  2  0
 14 10  1  0
 16 15  1  6
 16 17  1  0
 18 20  1  0
 18 16  1  0
 18 19  1  1
 20 22  1  0
 21 20  2  0
M  END
$$$$
