CDV.pdb
     RDKit          3D

 22 21  0  0  1  0  0  0  0  0999 V2000
   14.0859   -9.2807  -10.9577 N   0  0  0  0  0  0  0  0  0  0  0  0
   14.6913   -8.1079  -10.3730 C   0  0  1  0  0  0  0  0  0  0  0  0
   15.4263   -8.4180   -9.1002 C   0  0  0  0  0  0  0  0  0  0  0  0
   14.1960   -8.8764   -7.8445 S   0  0  0  0  0  0  0  0  0  0  0  0
   15.6799   -7.5687  -11.3493 C   0  0  0  0  0  0  0  0  0  0  0  0
   16.1817   -8.4113  -12.1598 O   0  0  0  0  0  0  0  0  0  0  0  0
   16.0548   -6.2142  -11.3948 N   0  0  0  0  0  0  0  0  0  0  0  0
   16.9107   -5.7573  -12.4948 C   0  0  1  0  0  0  0  0  0  0  0  0
   16.4360   -4.4395  -13.0178 C   0  0  0  0  0  0  0  0  0  0  0  0
   17.1528   -3.8972  -14.1690 C   0  0  0  0  0  0  0  0  0  0  0  0
   17.9310   -4.5602  -14.8726 O   0  0  0  0  0  0  0  0  0  0  0  0
   18.3152   -5.6722  -12.0009 C   0  0  0  0  0  0  0  0  0  0  0  0
   18.6244   -5.4079  -10.8435 O   0  0  0  0  0  0  0  0  0  0  0  0
   16.9642   -2.5614  -14.5110 O   0  0  0  0  0  0  0  0  0  0  0  0
   21.0198   -8.3413  -11.8437 C   0  0  0  0  0  0  0  0  0  0  0  0
   21.5513   -7.1682  -12.6685 C   0  0  1  0  0  0  0  0  0  0  0  0
   21.7479   -7.5311  -14.1026 C   0  0  0  0  0  0  0  0  0  0  0  0
   20.7522   -5.9262  -12.4513 C   0  0  2  0  0  0  0  0  0  0  0  0
   19.4261   -5.9026  -12.8833 N   0  0  0  0  0  0  0  0  0  0  0  0
   21.5020   -4.8079  -13.0844 C   0  0  0  0  0  0  0  0  0  0  0  0
   22.6264   -4.4285  -12.6735 O   0  0  0  0  0  0  0  0  0  0  0  0
   20.9556   -4.1475  -14.1698 O   0  0  0  0  0  0  0  0  0  0  0  0
  2  1  1  6
  2  3  1  0
  3  4  1  0
  5  2  1  0
  5  7  1  0
  6  5  2  0
  8  7  1  0
  8 12  1  0
  8  9  1  1
 10  9  1  0
 11 10  2  0
 12 19  1  0
 13 12  2  0
 14 10  1  0
 16 15  1  1
 16 17  1  0
 18 20  1  0
 18 16  1  0
 18 19  1  6
 20 22  1  0
 21 20  2  0
M  END
$$$$
