CDV.pdb
     RDKit          3D

 22 21  0  0  1  0  0  0  0  0999 V2000
   18.3476  -13.1799  -16.0264 N   0  0  0  0  0  0  0  0  0  0  0  0
   17.8341  -12.0144  -16.7060 C   0  0  1  0  0  0  0  0  0  0  0  0
   16.3330  -11.9992  -16.7605 C   0  0  0  0  0  0  0  0  0  0  0  0
   15.7327  -13.5333  -15.9946 S   0  0  0  0  0  0  0  0  0  0  0  0
   18.2739  -10.8107  -15.9453 C   0  0  0  0  0  0  0  0  0  0  0  0
   18.2777  -10.9211  -14.6778 O   0  0  0  0  0  0  0  0  0  0  0  0
   18.6665   -9.6110  -16.5649 N   0  0  0  0  0  0  0  0  0  0  0  0
   19.0946   -8.4902  -15.7210 C   0  0  1  0  0  0  0  0  0  0  0  0
   20.5615   -8.5716  -15.4435 C   0  0  0  0  0  0  0  0  0  0  0  0
   21.1442   -7.4698  -14.6822 C   0  0  0  0  0  0  0  0  0  0  0  0
   20.6493   -7.0135  -13.6395 O   0  0  0  0  0  0  0  0  0  0  0  0
   18.7413   -7.2150  -16.4086 C   0  0  0  0  0  0  0  0  0  0  0  0
   19.0729   -6.9354  -17.5562 O   0  0  0  0  0  0  0  0  0  0  0  0
   22.3225   -6.8859  -15.1378 O   0  0  0  0  0  0  0  0  0  0  0  0
   15.6690   -5.7736  -17.8414 C   0  0  0  0  0  0  0  0  0  0  0  0
   16.1023   -4.8646  -16.6904 C   0  0  1  0  0  0  0  0  0  0  0  0
   15.1909   -4.9726  -15.5136 C   0  0  0  0  0  0  0  0  0  0  0  0
   17.5500   -5.0275  -16.3654 C   0  0  2  0  0  0  0  0  0  0  0  0
   17.9651   -6.2049  -15.7431 N   0  0  0  0  0  0  0  0  0  0  0  0
   17.9454   -3.8587  -15.5339 C   0  0  0  0  0  0  0  0  0  0  0  0
   18.2939   -3.9696  -14.3326 O   0  0  0  0  0  0  0  0  0  0  0  0
   17.9352   -2.5917  -16.0881 O   0  0  0  0  0  0  0  0  0  0  0  0
  2  1  1  1
  2  3  1  0
  3  4  1  0
  5  2  1  0
  5  7  1  0
  6  5  2  0
  8  7  1  0
  8 12  1  0
  8  9  1  6
 10  9  1  0
 11 10  2  0
 12 19  1  0
 13 12  2  0
 14 10  1  0
 16 15  1  6
 16 17  1  0
 18 20  1  0
 18 16  1  0
 18 19  1  1
 20 22  1  0
 21 20  2  0
M  END
$$$$
