CDV.pdb
     RDKit          3D

 22 21  0  0  1  0  0  0  0  0999 V2000
   17.9138  -15.7380  -17.5251 N   0  0  0  0  0  0  0  0  0  0  0  0
   17.5096  -14.9051  -16.4175 C   0  0  1  0  0  0  0  0  0  0  0  0
   17.9864  -15.4390  -15.0968 C   0  0  0  0  0  0  0  0  0  0  0  0
   17.0104  -16.9218  -14.7109 S   0  0  0  0  0  0  0  0  0  0  0  0
   18.1197  -13.5592  -16.6110 C   0  0  0  0  0  0  0  0  0  0  0  0
   19.2864  -13.5421  -17.1185 O   0  0  0  0  0  0  0  0  0  0  0  0
   17.4683  -12.3627  -16.2626 N   0  0  0  0  0  0  0  0  0  0  0  0
   18.1167  -11.0878  -16.5876 C   0  0  1  0  0  0  0  0  0  0  0  0
   17.0960  -10.0112  -16.7732 C   0  0  0  0  0  0  0  0  0  0  0  0
   17.6015   -8.6832  -17.1105 C   0  0  0  0  0  0  0  0  0  0  0  0
   18.5472   -8.4815  -17.8885 O   0  0  0  0  0  0  0  0  0  0  0  0
   19.0726  -10.7481  -15.4945 C   0  0  0  0  0  0  0  0  0  0  0  0
   18.8507  -10.9328  -14.3022 O   0  0  0  0  0  0  0  0  0  0  0  0
   16.9998   -7.5678  -16.5352 O   0  0  0  0  0  0  0  0  0  0  0  0
   23.6308   -9.9436  -13.8729 C   0  0  0  0  0  0  0  0  0  0  0  0
   22.7116  -10.3401  -15.0291 C   0  0  1  0  0  0  0  0  0  0  0  0
   22.8448  -11.7832  -15.3853 C   0  0  0  0  0  0  0  0  0  0  0  0
   21.3067   -9.8880  -14.8052 C   0  0  2  0  0  0  0  0  0  0  0  0
   20.3533  -10.1642  -15.7852 N   0  0  0  0  0  0  0  0  0  0  0  0
   21.3540   -8.4220  -14.5557 C   0  0  0  0  0  0  0  0  0  0  0  0
   20.9012   -7.5815  -15.3716 O   0  0  0  0  0  0  0  0  0  0  0  0
   21.9150   -7.9464  -13.3845 O   0  0  0  0  0  0  0  0  0  0  0  0
  2  1  1  6
  2  3  1  0
  3  4  1  0
  5  2  1  0
  5  7  1  0
  6  5  2  0
  8  7  1  0
  8 12  1  0
  8  9  1  1
 10  9  1  0
 11 10  2  0
 12 19  1  0
 13 12  2  0
 14 10  1  0
 16 15  1  1
 16 17  1  0
 18 20  1  0
 18 16  1  0
 18 19  1  6
 20 22  1  0
 21 20  2  0
M  END
$$$$
