WDV.pdb
     RDKit          3D

 30 31  0  0  1  0  0  0  0  0999 V2000
   26.9345  -20.3954  -12.2437 N   0  0  0  0  0  0  0  0  0  0  0  0
   25.8468  -21.1982  -11.6868 C   0  0  1  0  0  0  0  0  0  0  0  0
   26.0030  -21.2658  -10.2027 C   0  0  0  0  0  0  0  0  0  0  0  0
   27.3485  -21.0791   -9.6633 C   0  0  0  0  0  0  0  0  0  0  0  0
   28.5687  -21.4220  -10.2549 C   0  0  0  0  0  0  0  0  0  0  0  0
   29.5752  -21.1089   -9.4354 N   0  0  0  0  0  0  0  0  0  0  0  0
   29.0669  -20.5702   -8.3218 C   0  0  0  0  0  0  0  0  0  0  0  0
   29.6884  -20.0644   -7.1662 C   0  0  0  0  0  0  0  0  0  0  0  0
   28.9595  -19.5302   -6.1287 C   0  0  0  0  0  0  0  0  0  0  0  0
   27.5881  -19.5030   -6.2511 C   0  0  0  0  0  0  0  0  0  0  0  0
   26.9870  -19.9988   -7.3818 C   0  0  0  0  0  0  0  0  0  0  0  0
   27.6929  -20.5396   -8.4363 C   0  0  0  0  0  0  0  0  0  0  0  0
   24.5360  -20.7419  -12.1736 C   0  0  0  0  0  0  0  0  0  0  0  0
   24.0175  -19.6409  -11.8649 O   0  0  0  0  0  0  0  0  0  0  0  0
   23.7357  -21.5551  -13.0635 N   0  0  0  0  0  0  0  0  0  0  0  0
   22.4217  -21.1790  -13.4834 C   0  0  1  0  0  0  0  0  0  0  0  0
   22.3954  -20.6177  -14.8875 C   0  0  0  0  0  0  0  0  0  0  0  0
   22.2080  -19.1607  -14.9237 C   0  0  0  0  0  0  0  0  0  0  0  0
   21.3544  -18.6505  -14.1454 O   0  0  0  0  0  0  0  0  0  0  0  0
   21.4301  -22.2748  -13.3049 C   0  0  0  0  0  0  0  0  0  0  0  0
   21.7258  -23.4725  -13.5364 O   0  0  0  0  0  0  0  0  0  0  0  0
   22.8979  -18.3080  -15.7473 O   0  0  0  0  0  0  0  0  0  0  0  0
   19.1711  -23.3601  -10.3097 C   0  0  0  0  0  0  0  0  0  0  0  0
   18.3122  -23.0330  -11.5318 C   0  0  1  0  0  0  0  0  0  0  0  0
   17.5327  -21.7710  -11.3360 C   0  0  0  0  0  0  0  0  0  0  0  0
   19.1591  -23.0553  -12.7582 C   0  0  2  0  0  0  0  0  0  0  0  0
   20.0992  -21.9749  -12.8586 N   0  0  0  0  0  0  0  0  0  0  0  0
   18.2814  -23.0927  -13.9751 C   0  0  0  0  0  0  0  0  0  0  0  0
   17.4182  -24.1290  -14.2499 O   0  0  0  0  0  0  0  0  0  0  0  0
   18.3083  -22.1424  -14.8137 O   0  0  0  0  0  0  0  0  0  0  0  0
  2 13  1  0
  2  3  1  0
  2  1  1  1
  3  4  1  0
  4  5  2  0
  4 12  1  0
  5  6  1  0
  6  7  1  0
  7  8  2  0
  9  8  1  0
 10  9  2  0
 11 12  2  0
 11 10  1  0
 12  7  1  0
 13 14  2  0
 15 16  1  0
 15 13  1  0
 16 20  1  0
 17 18  1  0
 16 17  1  6
 18 22  1  0
 19 18  2  0
 20 21  2  0
 24 23  1  1
 24 26  1  0
 25 24  1  0
 26 28  1  0
 27 20  1  0
 26 27  1  6
 28 30  2  0
 28 29  1  0
M  END
$$$$
