WDV.pdb
     RDKit          3D

 30 31  0  0  1  0  0  0  0  0999 V2000
   28.7902  -28.7103  -18.1236 N   0  0  0  0  0  0  0  0  0  0  0  0
   27.9673  -29.0113  -16.9532 C   0  0  1  0  0  0  0  0  0  0  0  0
   26.7164  -28.1970  -17.0159 C   0  0  0  0  0  0  0  0  0  0  0  0
   26.8543  -26.7488  -16.8756 C   0  0  0  0  0  0  0  0  0  0  0  0
   27.8044  -25.9125  -17.4709 C   0  0  0  0  0  0  0  0  0  0  0  0
   27.6105  -24.6515  -17.0773 N   0  0  0  0  0  0  0  0  0  0  0  0
   26.5657  -24.6209  -16.2429 C   0  0  0  0  0  0  0  0  0  0  0  0
   25.9460  -23.5543  -15.5677 C   0  0  0  0  0  0  0  0  0  0  0  0
   24.8518  -23.7505  -14.7570 C   0  0  0  0  0  0  0  0  0  0  0  0
   24.3722  -25.0343  -14.6209 C   0  0  0  0  0  0  0  0  0  0  0  0
   24.9818  -26.0717  -15.2825 C   0  0  0  0  0  0  0  0  0  0  0  0
   26.0793  -25.9035  -16.1009 C   0  0  0  0  0  0  0  0  0  0  0  0
   27.7812  -30.4605  -16.7831 C   0  0  0  0  0  0  0  0  0  0  0  0
   27.2565  -31.2064  -17.6459 O   0  0  0  0  0  0  0  0  0  0  0  0
   28.2010  -31.1395  -15.5763 N   0  0  0  0  0  0  0  0  0  0  0  0
   28.0048  -32.5405  -15.3687 C   0  0  1  0  0  0  0  0  0  0  0  0
   29.2946  -33.2739  -15.0762 C   0  0  0  0  0  0  0  0  0  0  0  0
   30.1874  -33.3589  -16.2402 C   0  0  0  0  0  0  0  0  0  0  0  0
   29.6813  -33.2290  -17.3899 O   0  0  0  0  0  0  0  0  0  0  0  0
   26.9603  -32.8251  -14.3470 C   0  0  0  0  0  0  0  0  0  0  0  0
   26.9828  -32.2823  -13.2155 O   0  0  0  0  0  0  0  0  0  0  0  0
   31.5408  -33.5706  -16.1686 O   0  0  0  0  0  0  0  0  0  0  0  0
   23.3218  -34.7776  -15.3575 C   0  0  0  0  0  0  0  0  0  0  0  0
   23.4878  -33.8802  -14.1306 C   0  0  1  0  0  0  0  0  0  0  0  0
   22.4477  -34.1660  -13.0937 C   0  0  0  0  0  0  0  0  0  0  0  0
   24.8926  -33.9606  -13.6391 C   0  0  2  0  0  0  0  0  0  0  0  0
   25.8940  -33.7392  -14.6437 N   0  0  0  0  0  0  0  0  0  0  0  0
   25.1160  -35.2846  -12.9684 C   0  0  0  0  0  0  0  0  0  0  0  0
   24.5739  -35.6108  -11.7459 O   0  0  0  0  0  0  0  0  0  0  0  0
   25.8326  -36.1709  -13.5232 O   0  0  0  0  0  0  0  0  0  0  0  0
  2 13  1  0
  2  3  1  0
  2  1  1  6
  3  4  1  0
  4  5  2  0
  4 12  1  0
  5  6  1  0
  6  7  1  0
  7  8  2  0
  9  8  1  0
 10  9  2  0
 11 12  2  0
 11 10  1  0
 12  7  1  0
 13 14  2  0
 15 16  1  0
 15 13  1  0
 16 20  1  0
 17 18  1  0
 16 17  1  1
 18 22  1  0
 19 18  2  0
 20 21  2  0
 24 23  1  6
 24 26  1  0
 25 24  1  0
 26 28  1  0
 27 20  1  0
 26 27  1  6
 28 30  2  0
 28 29  1  0
M  END
$$$$
