WDV.pdb
     RDKit          3D

 30 31  0  0  1  0  0  0  0  0999 V2000
   28.7182  -19.1244  -12.7722 N   0  0  0  0  0  0  0  0  0  0  0  0
   27.9375  -20.3179  -13.0942 C   0  0  1  0  0  0  0  0  0  0  0  0
   27.0775  -20.6669  -11.9235 C   0  0  0  0  0  0  0  0  0  0  0  0
   27.6706  -20.5308  -10.5947 C   0  0  0  0  0  0  0  0  0  0  0  0
   27.2920  -19.6597   -9.5678 C   0  0  0  0  0  0  0  0  0  0  0  0
   28.0942  -19.8241   -8.5133 N   0  0  0  0  0  0  0  0  0  0  0  0
   28.9910  -20.7730   -8.8032 C   0  0  0  0  0  0  0  0  0  0  0  0
   30.0360  -21.3280   -8.0433 C   0  0  0  0  0  0  0  0  0  0  0  0
   30.8410  -22.3261   -8.5421 C   0  0  0  0  0  0  0  0  0  0  0  0
   30.5953  -22.7740   -9.8210 C   0  0  0  0  0  0  0  0  0  0  0  0
   29.5736  -22.2278  -10.5582 C   0  0  0  0  0  0  0  0  0  0  0  0
   28.7518  -21.2269  -10.0833 C   0  0  0  0  0  0  0  0  0  0  0  0
   27.2408  -20.1754  -14.3818 C   0  0  0  0  0  0  0  0  0  0  0  0
   27.6426  -19.4436  -15.3195 O   0  0  0  0  0  0  0  0  0  0  0  0
   26.0123  -20.8878  -14.6590 N   0  0  0  0  0  0  0  0  0  0  0  0
   25.4290  -20.9459  -15.9631 C   0  0  1  0  0  0  0  0  0  0  0  0
   26.3719  -21.5142  -17.0000 C   0  0  0  0  0  0  0  0  0  0  0  0
   26.5757  -22.9629  -16.8630 C   0  0  0  0  0  0  0  0  0  0  0  0
   25.6904  -23.7355  -17.3257 O   0  0  0  0  0  0  0  0  0  0  0  0
   24.1129  -21.6414  -15.9689 C   0  0  0  0  0  0  0  0  0  0  0  0
   23.9091  -22.6680  -15.2760 O   0  0  0  0  0  0  0  0  0  0  0  0
   27.6658  -23.5418  -16.2646 O   0  0  0  0  0  0  0  0  0  0  0  0
   20.9772  -19.5016  -18.0751 C   0  0  0  0  0  0  0  0  0  0  0  0
   21.2541  -19.4554  -16.5720 C   0  0  1  0  0  0  0  0  0  0  0  0
   20.0529  -19.0015  -15.8039 C   0  0  0  0  0  0  0  0  0  0  0  0
   21.8180  -20.7614  -16.1274 C   0  0  2  0  0  0  0  0  0  0  0  0
   23.0389  -21.1418  -16.7799 N   0  0  0  0  0  0  0  0  0  0  0  0
   20.7853  -21.8379  -16.2929 C   0  0  0  0  0  0  0  0  0  0  0  0
   19.6364  -21.9023  -15.5376 O   0  0  0  0  0  0  0  0  0  0  0  0
   20.9434  -22.7493  -17.1597 O   0  0  0  0  0  0  0  0  0  0  0  0
  2 13  1  0
  2  3  1  0
  2  1  1  1
  3  4  1  0
  4  5  2  0
  4 12  1  0
  5  6  1  0
  6  7  1  0
  7  8  2  0
  9  8  1  0
 10  9  2  0
 11 12  2  0
 11 10  1  0
 12  7  1  0
 13 14  2  0
 15 16  1  0
 15 13  1  0
 16 20  1  0
 17 18  1  0
 16 17  1  6
 18 22  1  0
 19 18  2  0
 20 21  2  0
 24 23  1  6
 24 26  1  0
 25 24  1  0
 26 28  1  0
 27 20  1  0
 26 27  1  6
 28 30  2  0
 28 29  1  0
M  END
$$$$
