WDV.pdb
     RDKit          3D

 30 31  0  0  1  0  0  0  0  0999 V2000
   26.5184  -18.8746   -9.1536 N   0  0  0  0  0  0  0  0  0  0  0  0
   26.5385  -20.2156   -9.7360 C   0  0  1  0  0  0  0  0  0  0  0  0
   26.0969  -21.2008   -8.7036 C   0  0  0  0  0  0  0  0  0  0  0  0
   26.4446  -20.9130   -7.3135 C   0  0  0  0  0  0  0  0  0  0  0  0
   25.5905  -20.8495   -6.2076 C   0  0  0  0  0  0  0  0  0  0  0  0
   26.2874  -20.5388   -5.1120 N   0  0  0  0  0  0  0  0  0  0  0  0
   27.5731  -20.3944   -5.4510 C   0  0  0  0  0  0  0  0  0  0  0  0
   28.7089  -20.0877   -4.6806 C   0  0  0  0  0  0  0  0  0  0  0  0
   29.9622  -20.0048   -5.2423 C   0  0  0  0  0  0  0  0  0  0  0  0
   30.0785  -20.2322   -6.5956 C   0  0  0  0  0  0  0  0  0  0  0  0
   28.9657  -20.5309   -7.3425 C   0  0  0  0  0  0  0  0  0  0  0  0
   27.6982  -20.6204   -6.8056 C   0  0  0  0  0  0  0  0  0  0  0  0
   25.8137  -20.2588  -11.0152 C   0  0  0  0  0  0  0  0  0  0  0  0
   24.8950  -19.4623  -11.3282 O   0  0  0  0  0  0  0  0  0  0  0  0
   26.1195  -21.2503  -12.0237 N   0  0  0  0  0  0  0  0  0  0  0  0
   25.5229  -21.2418  -13.3230 C   0  0  1  0  0  0  0  0  0  0  0  0
   26.3570  -21.9695  -14.3536 C   0  0  0  0  0  0  0  0  0  0  0  0
   27.6265  -21.2923  -14.6518 C   0  0  0  0  0  0  0  0  0  0  0  0
   28.6887  -21.9742  -14.6137 O   0  0  0  0  0  0  0  0  0  0  0  0
   24.1147  -21.7239  -13.3075 C   0  0  0  0  0  0  0  0  0  0  0  0
   23.8046  -22.8305  -12.8027 O   0  0  0  0  0  0  0  0  0  0  0  0
   27.7428  -19.9634  -14.9710 O   0  0  0  0  0  0  0  0  0  0  0  0
   20.9164  -19.6152  -12.2987 C   0  0  0  0  0  0  0  0  0  0  0  0
   20.6903  -20.3402  -13.6259 C   0  0  1  0  0  0  0  0  0  0  0  0
   20.5883  -19.3796  -14.7685 C   0  0  0  0  0  0  0  0  0  0  0  0
   21.7227  -21.4015  -13.7977 C   0  0  2  0  0  0  0  0  0  0  0  0
   23.0724  -20.9189  -13.8787 N   0  0  0  0  0  0  0  0  0  0  0  0
   21.3959  -22.2306  -15.0053 C   0  0  0  0  0  0  0  0  0  0  0  0
   22.2167  -22.3128  -16.1073 O   0  0  0  0  0  0  0  0  0  0  0  0
   20.3213  -22.9015  -15.0500 O   0  0  0  0  0  0  0  0  0  0  0  0
  2 13  1  0
  2  3  1  0
  2  1  1  1
  3  4  1  0
  4  5  2  0
  4 12  1  0
  5  6  1  0
  6  7  1  0
  7  8  2  0
  9  8  1  0
 10  9  2  0
 11 12  2  0
 11 10  1  0
 12  7  1  0
 13 14  2  0
 15 16  1  0
 15 13  1  0
 16 20  1  0
 17 18  1  0
 16 17  1  6
 18 22  1  0
 19 18  2  0
 20 21  2  0
 24 23  1  1
 24 26  1  0
 25 24  1  0
 26 28  1  0
 27 20  1  0
 26 27  1  6
 28 30  2  0
 28 29  1  0
M  END
$$$$
