WDV.pdb
     RDKit          3D

 30 31  0  0  1  0  0  0  0  0999 V2000
   28.9717  -20.9349  -10.5793 N   0  0  0  0  0  0  0  0  0  0  0  0
   27.5632  -20.8535  -10.1955 C   0  0  1  0  0  0  0  0  0  0  0  0
   27.4462  -20.0460   -8.9442 C   0  0  0  0  0  0  0  0  0  0  0  0
   28.5039  -20.2010   -7.9475 C   0  0  0  0  0  0  0  0  0  0  0  0
   29.7679  -20.7760   -8.1156 C   0  0  0  0  0  0  0  0  0  0  0  0
   30.4374  -20.7479   -6.9608 N   0  0  0  0  0  0  0  0  0  0  0  0
   29.6635  -20.1747   -6.0328 C   0  0  0  0  0  0  0  0  0  0  0  0
   29.8947  -19.8918   -4.6748 C   0  0  0  0  0  0  0  0  0  0  0  0
   28.9477  -19.2685   -3.8952 C   0  0  0  0  0  0  0  0  0  0  0  0
   27.7518  -18.9242   -4.4851 C   0  0  0  0  0  0  0  0  0  0  0  0
   27.5319  -19.2034   -5.8115 C   0  0  0  0  0  0  0  0  0  0  0  0
   28.4631  -19.8269   -6.6158 C   0  0  0  0  0  0  0  0  0  0  0  0
   26.7219  -20.4181  -11.3208 C   0  0  0  0  0  0  0  0  0  0  0  0
   27.1031  -19.6239  -12.2154 O   0  0  0  0  0  0  0  0  0  0  0  0
   25.3622  -20.8884  -11.4736 N   0  0  0  0  0  0  0  0  0  0  0  0
   24.5946  -20.6642  -12.6589 C   0  0  1  0  0  0  0  0  0  0  0  0
   25.2279  -21.2746  -13.8892 C   0  0  0  0  0  0  0  0  0  0  0  0
   24.4552  -21.0349  -15.1158 C   0  0  0  0  0  0  0  0  0  0  0  0
   23.7544  -19.9865  -15.1831 O   0  0  0  0  0  0  0  0  0  0  0  0
   23.1725  -21.0760  -12.5042 C   0  0  0  0  0  0  0  0  0  0  0  0
   22.8589  -22.2501  -12.1899 O   0  0  0  0  0  0  0  0  0  0  0  0
   24.4394  -21.8733  -16.2014 O   0  0  0  0  0  0  0  0  0  0  0  0
   20.6699  -18.8398  -10.3867 C   0  0  0  0  0  0  0  0  0  0  0  0
   20.0314  -19.3040  -11.6962 C   0  0  1  0  0  0  0  0  0  0  0  0
   19.8389  -18.1666  -12.6492 C   0  0  0  0  0  0  0  0  0  0  0  0
   20.8035  -20.4528  -12.2490 C   0  0  2  0  0  0  0  0  0  0  0  0
   22.1205  -20.1225  -12.7154 N   0  0  0  0  0  0  0  0  0  0  0  0
   20.0151  -21.1080  -13.3454 C   0  0  0  0  0  0  0  0  0  0  0  0
   20.4517  -21.1779  -14.6489 O   0  0  0  0  0  0  0  0  0  0  0  0
   18.8884  -21.6334  -13.0980 O   0  0  0  0  0  0  0  0  0  0  0  0
  2 13  1  0
  2  3  1  0
  2  1  1  6
  3  4  1  0
  4  5  2  0
  4 12  1  0
  5  6  1  0
  6  7  1  0
  7  8  2  0
  9  8  1  0
 10  9  2  0
 11 12  2  0
 11 10  1  0
 12  7  1  0
 13 14  2  0
 15 16  1  0
 15 13  1  0
 16 20  1  0
 17 18  1  0
 16 17  1  6
 18 22  1  0
 19 18  2  0
 20 21  2  0
 24 23  1  1
 24 26  1  0
 25 24  1  0
 26 28  1  0
 27 20  1  0
 26 27  1  6
 28 30  2  0
 28 29  1  0
M  END
$$$$
