WDV.pdb
     RDKit          3D

 30 31  0  0  1  0  0  0  0  0999 V2000
   26.8968  -19.7335  -11.8004 N   0  0  0  0  0  0  0  0  0  0  0  0
   26.1110  -20.9577  -11.9476 C   0  0  1  0  0  0  0  0  0  0  0  0
   26.0564  -21.6617  -10.6312 C   0  0  0  0  0  0  0  0  0  0  0  0
   26.7914  -21.0596   -9.5206 C   0  0  0  0  0  0  0  0  0  0  0  0
   26.2843  -20.2862   -8.4711 C   0  0  0  0  0  0  0  0  0  0  0  0
   27.2789  -19.9031   -7.6670 N   0  0  0  0  0  0  0  0  0  0  0  0
   28.4273  -20.3948   -8.1446 C   0  0  0  0  0  0  0  0  0  0  0  0
   29.7480  -20.2989   -7.6712 C   0  0  0  0  0  0  0  0  0  0  0  0
   30.7951  -20.9093   -8.3226 C   0  0  0  0  0  0  0  0  0  0  0  0
   30.5144  -21.6256   -9.4647 C   0  0  0  0  0  0  0  0  0  0  0  0
   29.2227  -21.7153   -9.9221 C   0  0  0  0  0  0  0  0  0  0  0  0
   28.1547  -21.1138   -9.2894 C   0  0  0  0  0  0  0  0  0  0  0  0
   24.8132  -20.6918  -12.5869 C   0  0  0  0  0  0  0  0  0  0  0  0
   24.0859  -19.7054  -12.3143 O   0  0  0  0  0  0  0  0  0  0  0  0
   24.2744  -21.5749  -13.5986 N   0  0  0  0  0  0  0  0  0  0  0  0
   23.0742  -21.2846  -14.3194 C   0  0  1  0  0  0  0  0  0  0  0  0
   23.1978  -21.5706  -15.7993 C   0  0  0  0  0  0  0  0  0  0  0  0
   23.9812  -20.5575  -16.5198 C   0  0  0  0  0  0  0  0  0  0  0  0
   23.9955  -19.3800  -16.0635 O   0  0  0  0  0  0  0  0  0  0  0  0
   21.8784  -21.9422  -13.7248 C   0  0  0  0  0  0  0  0  0  0  0  0
   21.8095  -23.1890  -13.5973 O   0  0  0  0  0  0  0  0  0  0  0  0
   24.7036  -20.7993  -17.6604 O   0  0  0  0  0  0  0  0  0  0  0  0
   20.0464  -21.1473  -10.4294 C   0  0  0  0  0  0  0  0  0  0  0  0
   19.0108  -21.1978  -11.5533 C   0  0  1  0  0  0  0  0  0  0  0  0
   18.3927  -19.8567  -11.7941 C   0  0  0  0  0  0  0  0  0  0  0  0
   19.6147  -21.8287  -12.7611 C   0  0  2  0  0  0  0  0  0  0  0  0
   20.7673  -21.1489  -13.2811 N   0  0  0  0  0  0  0  0  0  0  0  0
   18.5708  -21.9699  -13.8303 C   0  0  0  0  0  0  0  0  0  0  0  0
   18.6572  -21.3466  -15.0545 O   0  0  0  0  0  0  0  0  0  0  0  0
   17.5457  -22.6892  -13.6336 O   0  0  0  0  0  0  0  0  0  0  0  0
  2 13  1  0
  2  3  1  0
  2  1  1  1
  3  4  1  0
  4  5  2  0
  4 12  1  0
  5  6  1  0
  6  7  1  0
  7  8  2  0
  9  8  1  0
 10  9  2  0
 11 12  2  0
 11 10  1  0
 12  7  1  0
 13 14  2  0
 15 16  1  0
 15 13  1  0
 16 20  1  0
 17 18  1  0
 16 17  1  6
 18 22  1  0
 19 18  2  0
 20 21  2  0
 24 23  1  1
 24 26  1  0
 25 24  1  0
 26 28  1  0
 27 20  1  0
 26 27  1  6
 28 30  2  0
 28 29  1  0
M  END
$$$$
