WDV.pdb
     RDKit          3D

 30 31  0  0  1  0  0  0  0  0999 V2000
   20.5338  -18.9965  -13.8155 N   0  0  0  0  0  0  0  0  0  0  0  0
   20.4401  -20.4494  -13.6807 C   0  0  1  0  0  0  0  0  0  0  0  0
   21.8161  -21.0302  -13.7105 C   0  0  0  0  0  0  0  0  0  0  0  0
   22.6670  -20.6748  -14.8444 C   0  0  0  0  0  0  0  0  0  0  0  0
   23.8988  -20.0124  -14.8225 C   0  0  0  0  0  0  0  0  0  0  0  0
   24.3528  -19.8553  -16.0682 N   0  0  0  0  0  0  0  0  0  0  0  0
   23.4670  -20.3901  -16.9157 C   0  0  0  0  0  0  0  0  0  0  0  0
   23.4720  -20.5018  -18.3175 C   0  0  0  0  0  0  0  0  0  0  0  0
   22.4461  -21.1176  -18.9969 C   0  0  0  0  0  0  0  0  0  0  0  0
   21.4003  -21.6282  -18.2607 C   0  0  0  0  0  0  0  0  0  0  0  0
   21.4010  -21.5156  -16.8921 C   0  0  0  0  0  0  0  0  0  0  0  0
   22.4157  -20.9038  -16.1859 C   0  0  0  0  0  0  0  0  0  0  0  0
   19.6075  -20.8315  -12.5299 C   0  0  0  0  0  0  0  0  0  0  0  0
   19.6773  -20.2857  -11.4015 O   0  0  0  0  0  0  0  0  0  0  0  0
   18.6274  -21.8917  -12.6256 N   0  0  0  0  0  0  0  0  0  0  0  0
   17.7581  -22.2415  -11.5456 C   0  0  1  0  0  0  0  0  0  0  0  0
   16.3087  -22.3314  -11.9679 C   0  0  0  0  0  0  0  0  0  0  0  0
   15.6876  -21.0173  -12.1840 C   0  0  0  0  0  0  0  0  0  0  0  0
   16.2987  -19.9938  -11.7671 O   0  0  0  0  0  0  0  0  0  0  0  0
   18.2043  -23.4670  -10.8280 C   0  0  0  0  0  0  0  0  0  0  0  0
   18.7094  -24.4396  -11.4399 O   0  0  0  0  0  0  0  0  0  0  0  0
   14.4834  -20.8198  -12.8103 O   0  0  0  0  0  0  0  0  0  0  0  0
   17.0853  -24.2397   -6.7544 C   0  0  0  0  0  0  0  0  0  0  0  0
   18.4293  -24.7489   -7.2766 C   0  0  1  0  0  0  0  0  0  0  0  0
   18.8266  -26.0320   -6.6174 C   0  0  0  0  0  0  0  0  0  0  0  0
   18.4000  -24.7994   -8.7659 C   0  0  2  0  0  0  0  0  0  0  0  0
   18.0618  -23.5578   -9.4025 N   0  0  0  0  0  0  0  0  0  0  0  0
   17.4633  -25.8831   -9.2143 C   0  0  0  0  0  0  0  0  0  0  0  0
   16.1417  -25.6557   -9.5248 O   0  0  0  0  0  0  0  0  0  0  0  0
   17.8720  -27.0780   -9.3243 O   0  0  0  0  0  0  0  0  0  0  0  0
  2 13  1  0
  2  3  1  0
  2  1  1  1
  3  4  1  0
  4  5  2  0
  4 12  1  0
  5  6  1  0
  6  7  1  0
  7  8  2  0
  9  8  1  0
 10  9  2  0
 11 12  2  0
 11 10  1  0
 12  7  1  0
 13 14  2  0
 15 16  1  0
 15 13  1  0
 16 20  1  0
 17 18  1  0
 16 17  1  6
 18 22  1  0
 19 18  2  0
 20 21  2  0
 24 23  1  1
 24 26  1  0
 25 24  1  0
 26 28  1  0
 27 20  1  0
 26 27  1  6
 28 30  2  0
 28 29  1  0
M  END
$$$$
