WDV.pdb
     RDKit          3D

 30 31  0  0  1  0  0  0  0  0999 V2000
   26.8871  -19.2756  -11.5239 N   0  0  0  0  0  0  0  0  0  0  0  0
   26.5149  -20.6776  -11.7065 C   0  0  1  0  0  0  0  0  0  0  0  0
   26.1530  -21.2614  -10.3799 C   0  0  0  0  0  0  0  0  0  0  0  0
   26.9257  -20.8177   -9.2215 C   0  0  0  0  0  0  0  0  0  0  0  0
   26.4712  -20.1137   -8.1015 C   0  0  0  0  0  0  0  0  0  0  0  0
   27.4885  -19.8763   -7.2700 N   0  0  0  0  0  0  0  0  0  0  0  0
   28.6013  -20.3978   -7.7975 C   0  0  0  0  0  0  0  0  0  0  0  0
   29.9249  -20.4367   -7.3240 C   0  0  0  0  0  0  0  0  0  0  0  0
   30.9289  -21.0529   -8.0350 C   0  0  0  0  0  0  0  0  0  0  0  0
   30.6015  -21.6379   -9.2380 C   0  0  0  0  0  0  0  0  0  0  0  0
   29.3073  -21.5963   -9.6952 C   0  0  0  0  0  0  0  0  0  0  0  0
   28.2819  -20.9858   -9.0033 C   0  0  0  0  0  0  0  0  0  0  0  0
   25.5125  -20.8351  -12.7714 C   0  0  0  0  0  0  0  0  0  0  0  0
   24.5125  -20.0887  -12.9095 O   0  0  0  0  0  0  0  0  0  0  0  0
   25.6156  -21.8906  -13.7558 N   0  0  0  0  0  0  0  0  0  0  0  0
   24.6254  -22.1075  -14.7641 C   0  0  1  0  0  0  0  0  0  0  0  0
   25.0436  -23.1474  -15.7795 C   0  0  0  0  0  0  0  0  0  0  0  0
   24.1069  -23.2645  -16.9056 C   0  0  0  0  0  0  0  0  0  0  0  0
   23.0923  -22.5127  -16.9171 O   0  0  0  0  0  0  0  0  0  0  0  0
   23.2825  -22.3990  -14.1918 C   0  0  0  0  0  0  0  0  0  0  0  0
   23.0594  -23.4491  -13.5412 O   0  0  0  0  0  0  0  0  0  0  0  0
   24.2554  -24.1375  -17.9531 O   0  0  0  0  0  0  0  0  0  0  0  0
   21.0846  -20.0068  -12.0653 C   0  0  0  0  0  0  0  0  0  0  0  0
   20.2297  -20.6068  -13.1821 C   0  0  1  0  0  0  0  0  0  0  0  0
   19.8031  -19.5665  -14.1693 C   0  0  0  0  0  0  0  0  0  0  0  0
   20.9358  -21.7759  -13.7787 C   0  0  2  0  0  0  0  0  0  0  0  0
   22.2042  -21.4699  -14.3776 N   0  0  0  0  0  0  0  0  0  0  0  0
   20.0403  -22.4484  -14.7779 C   0  0  0  0  0  0  0  0  0  0  0  0
   18.8552  -23.0594  -14.4362 O   0  0  0  0  0  0  0  0  0  0  0  0
   20.3567  -22.4759  -16.0051 O   0  0  0  0  0  0  0  0  0  0  0  0
  2 13  1  0
  2  3  1  0
  2  1  1  1
  3  4  1  0
  4  5  2  0
  4 12  1  0
  5  6  1  0
  6  7  1  0
  7  8  2  0
  9  8  1  0
 10  9  2  0
 11 12  2  0
 11 10  1  0
 12  7  1  0
 13 14  2  0
 15 16  1  0
 15 13  1  0
 16 20  1  0
 17 18  1  0
 16 17  1  1
 18 22  1  0
 19 18  2  0
 20 21  2  0
 24 23  1  1
 24 26  1  0
 25 24  1  0
 26 28  1  0
 27 20  1  0
 26 27  1  6
 28 30  2  0
 28 29  1  0
M  END
$$$$
