WDV.pdb
     RDKit          3D

 30 31  0  0  1  0  0  0  0  0999 V2000
   23.7690  -24.4824  -17.6832 N   0  0  0  0  0  0  0  0  0  0  0  0
   23.7472  -25.3891  -16.5364 C   0  0  1  0  0  0  0  0  0  0  0  0
   24.8425  -25.0081  -15.5946 C   0  0  0  0  0  0  0  0  0  0  0  0
   26.2121  -25.0764  -16.1000 C   0  0  0  0  0  0  0  0  0  0  0  0
   27.0723  -24.0156  -16.4025 C   0  0  0  0  0  0  0  0  0  0  0  0
   28.2342  -24.4886  -16.8596 N   0  0  0  0  0  0  0  0  0  0  0  0
   28.1761  -25.8247  -16.8709 C   0  0  0  0  0  0  0  0  0  0  0  0
   29.1251  -26.7934  -17.2431 C   0  0  0  0  0  0  0  0  0  0  0  0
   28.8552  -28.1399  -17.1570 C   0  0  0  0  0  0  0  0  0  0  0  0
   27.6163  -28.5206  -16.6915 C   0  0  0  0  0  0  0  0  0  0  0  0
   26.6937  -27.5699  -16.3299 C   0  0  0  0  0  0  0  0  0  0  0  0
   26.9376  -26.2144  -16.4060 C   0  0  0  0  0  0  0  0  0  0  0  0
   22.4016  -25.4847  -15.9501 C   0  0  0  0  0  0  0  0  0  0  0  0
   21.5456  -24.5680  -16.0052 O   0  0  0  0  0  0  0  0  0  0  0  0
   21.9651  -26.6740  -15.2509 N   0  0  0  0  0  0  0  0  0  0  0  0
   20.6358  -26.8320  -14.7485 C   0  0  1  0  0  0  0  0  0  0  0  0
   20.1281  -28.2509  -14.8757 C   0  0  0  0  0  0  0  0  0  0  0  0
   18.7763  -28.4317  -14.3287 C   0  0  0  0  0  0  0  0  0  0  0  0
   17.8867  -27.5951  -14.6504 O   0  0  0  0  0  0  0  0  0  0  0  0
   20.4837  -26.3100  -13.3628 C   0  0  0  0  0  0  0  0  0  0  0  0
   21.2169  -26.7100  -12.4259 O   0  0  0  0  0  0  0  0  0  0  0  0
   18.4074  -29.4507  -13.4879 O   0  0  0  0  0  0  0  0  0  0  0  0
   18.3143  -22.9874  -13.0200 C   0  0  0  0  0  0  0  0  0  0  0  0
   18.6905  -23.4920  -11.6264 C   0  0  1  0  0  0  0  0  0  0  0  0
   17.5023  -23.5408  -10.7184 C   0  0  0  0  0  0  0  0  0  0  0  0
   19.4344  -24.7782  -11.7447 C   0  0  2  0  0  0  0  0  0  0  0  0
   19.4804  -25.3256  -13.0711 N   0  0  0  0  0  0  0  0  0  0  0  0
   18.8581  -25.7825  -10.7897 C   0  0  0  0  0  0  0  0  0  0  0  0
   19.0214  -25.7046   -9.4252 O   0  0  0  0  0  0  0  0  0  0  0  0
   18.1824  -26.7637  -11.2228 O   0  0  0  0  0  0  0  0  0  0  0  0
  2 13  1  0
  2  3  1  0
  2  1  1  6
  3  4  1  0
  4  5  2  0
  4 12  1  0
  5  6  1  0
  6  7  1  0
  7  8  2  0
  9  8  1  0
 10  9  2  0
 11 12  2  0
 11 10  1  0
 12  7  1  0
 13 14  2  0
 15 16  1  0
 15 13  1  0
 16 20  1  0
 17 18  1  0
 16 17  1  1
 18 22  1  0
 19 18  2  0
 20 21  2  0
 24 23  1  6
 24 26  1  0
 25 24  1  0
 26 28  1  0
 27 20  1  0
 26 27  1  6
 28 30  2  0
 28 29  1  0
M  END
$$$$
