WDV.pdb
     RDKit          3D

 30 31  0  0  1  0  0  0  0  0999 V2000
   27.7257  -19.8852  -11.4263 N   0  0  0  0  0  0  0  0  0  0  0  0
   26.8364  -21.0442  -11.4849 C   0  0  1  0  0  0  0  0  0  0  0  0
   26.3851  -21.3812  -10.1013 C   0  0  0  0  0  0  0  0  0  0  0  0
   27.2358  -20.9446   -8.9960 C   0  0  0  0  0  0  0  0  0  0  0  0
   26.9274  -20.0347   -7.9793 C   0  0  0  0  0  0  0  0  0  0  0  0
   27.9780  -19.8850   -7.1691 N   0  0  0  0  0  0  0  0  0  0  0  0
   28.9720  -20.6629   -7.6112 C   0  0  0  0  0  0  0  0  0  0  0  0
   30.2701  -20.8834   -7.1172 C   0  0  0  0  0  0  0  0  0  0  0  0
   31.1382  -21.7567   -7.7311 C   0  0  0  0  0  0  0  0  0  0  0  0
   30.6990  -22.4181   -8.8564 C   0  0  0  0  0  0  0  0  0  0  0  0
   29.4305  -22.1983   -9.3341 C   0  0  0  0  0  0  0  0  0  0  0  0
   28.5401  -21.3290   -8.7388 C   0  0  0  0  0  0  0  0  0  0  0  0
   25.7692  -20.8554  -12.4794 C   0  0  0  0  0  0  0  0  0  0  0  0
   25.0836  -19.8087  -12.5824 O   0  0  0  0  0  0  0  0  0  0  0  0
   25.4297  -21.8927  -13.4293 N   0  0  0  0  0  0  0  0  0  0  0  0
   24.3895  -21.7435  -14.3989 C   0  0  1  0  0  0  0  0  0  0  0  0
   24.5893  -22.6263  -15.6105 C   0  0  0  0  0  0  0  0  0  0  0  0
   25.8649  -22.3831  -16.2981 C   0  0  0  0  0  0  0  0  0  0  0  0
   26.7001  -23.3286  -16.3561 O   0  0  0  0  0  0  0  0  0  0  0  0
   23.0324  -21.9082  -13.8097 C   0  0  0  0  0  0  0  0  0  0  0  0
   22.7349  -22.9104  -13.1151 O   0  0  0  0  0  0  0  0  0  0  0  0
   26.2174  -21.1950  -16.8861 O   0  0  0  0  0  0  0  0  0  0  0  0
   21.1267  -19.2942  -11.7710 C   0  0  0  0  0  0  0  0  0  0  0  0
   20.1584  -19.8629  -12.8089 C   0  0  1  0  0  0  0  0  0  0  0  0
   19.7348  -18.8218  -13.7964 C   0  0  0  0  0  0  0  0  0  0  0  0
   20.7420  -21.0929  -13.4156 C   0  0  2  0  0  0  0  0  0  0  0  0
   22.0264  -20.9081  -14.0299 N   0  0  0  0  0  0  0  0  0  0  0  0
   19.7740  -21.6743  -14.4044 C   0  0  0  0  0  0  0  0  0  0  0  0
   18.5452  -22.1811  -14.0470 O   0  0  0  0  0  0  0  0  0  0  0  0
   20.0665  -21.7183  -15.6370 O   0  0  0  0  0  0  0  0  0  0  0  0
  2 13  1  0
  2  3  1  0
  2  1  1  1
  3  4  1  0
  4  5  2  0
  4 12  1  0
  5  6  1  0
  6  7  1  0
  7  8  2  0
  9  8  1  0
 10  9  2  0
 11 12  2  0
 11 10  1  0
 12  7  1  0
 13 14  2  0
 15 16  1  0
 15 13  1  0
 16 20  1  0
 17 18  1  0
 16 17  1  6
 18 22  1  0
 19 18  2  0
 20 21  2  0
 24 23  1  1
 24 26  1  0
 25 24  1  0
 26 28  1  0
 27 20  1  0
 26 27  1  6
 28 30  2  0
 28 29  1  0
M  END
$$$$
