ILC.pdb
     RDKit          3D

 23 22  0  0  1  0  0  0  0  0999 V2000
   18.0796  -12.6950  -15.4855 C   0  0  0  0  0  0  0  0  0  0  0  0
   17.5286  -12.7981  -14.0894 C   0  0  0  0  0  0  0  0  0  0  0  0
   16.9270  -11.4955  -13.6378 C   0  0  2  0  0  0  0  0  0  0  0  0
   17.9698  -10.3924  -13.7542 C   0  0  0  0  0  0  0  0  0  0  0  0
   16.3286  -11.5267  -12.2532 C   0  0  2  0  0  0  0  0  0  0  0  0
   15.2132  -12.5099  -12.3515 N   0  0  0  0  0  0  0  0  0  0  0  0
   15.6630  -10.2681  -11.8498 C   0  0  0  0  0  0  0  0  0  0  0  0
   14.6432   -9.8216  -12.4911 O   0  0  0  0  0  0  0  0  0  0  0  0
   13.6038   -6.3276   -9.1829 C   0  0  0  0  0  0  0  0  0  0  0  0
   15.0179   -6.5581   -8.6741 C   0  0  1  0  0  0  0  0  0  0  0  0
   15.1061   -6.3171   -7.1895 C   0  0  0  0  0  0  0  0  0  0  0  0
   15.4955   -7.9527   -9.0161 C   0  0  0  0  0  0  0  0  0  0  0  0
   15.5206   -8.1471  -10.4961 C   0  0  2  0  0  0  0  0  0  0  0  0
   16.0607   -9.4702  -10.7703 N   0  0  0  0  0  0  0  0  0  0  0  0
   16.3650   -7.1548  -11.1970 C   0  0  0  0  0  0  0  0  0  0  0  0
   17.6034   -7.2067  -11.0391 O   0  0  0  0  0  0  0  0  0  0  0  0
   15.8218   -6.1460  -12.0422 N   0  0  0  0  0  0  0  0  0  0  0  0
   16.6808   -5.1554  -12.6590 C   0  0  1  0  0  0  0  0  0  0  0  0
   16.9609   -5.5312  -14.1177 C   0  0  0  0  0  0  0  0  0  0  0  0
   17.8851   -4.1735  -14.8800 S   0  0  0  0  0  0  0  0  0  0  0  0
   15.9866   -3.8302  -12.6315 C   0  0  0  0  0  0  0  0  0  0  0  0
   16.7202   -2.6532  -12.6263 O   0  0  0  0  0  0  0  0  0  0  0  0
   14.7308   -3.7409  -12.6124 O   0  0  0  0  0  0  0  0  0  0  0  0
  2  1  1  0
  2  3  1  0
  3  4  1  1
  5  3  1  0
  5  6  1  6
  7  5  1  0
  8  7  2  0
 10  9  1  1
 11 10  1  0
 12 10  1  0
 13 12  1  1
 13 14  1  0
 14  7  1  0
 15 17  1  0
 15 13  1  0
 16 15  2  0
 18 17  1  0
 18 21  1  0
 18 19  1  6
 20 19  1  0
 21 22  1  0
 23 21  2  0
M  END
$$$$
