ILC.pdb
     RDKit          3D

 23 22  0  0  1  0  0  0  0  0999 V2000
   23.9644  -20.6244   -7.9301 C   0  0  0  0  0  0  0  0  0  0  0  0
   24.2715  -21.5184   -9.1003 C   0  0  0  0  0  0  0  0  0  0  0  0
   25.4156  -20.9826   -9.9167 C   0  0  2  0  0  0  0  0  0  0  0  0
   26.0225  -19.7813   -9.2050 C   0  0  0  0  0  0  0  0  0  0  0  0
   25.0635  -20.6417  -11.3436 C   0  0  2  0  0  0  0  0  0  0  0  0
   24.7050  -21.9494  -11.9615 N   0  0  0  0  0  0  0  0  0  0  0  0
   26.2054  -20.1629  -12.1540 C   0  0  0  0  0  0  0  0  0  0  0  0
   26.4237  -18.9073  -12.3164 O   0  0  0  0  0  0  0  0  0  0  0  0
   30.7609  -22.2409  -11.1734 C   0  0  0  0  0  0  0  0  0  0  0  0
   29.6638  -21.2856  -11.6153 C   0  0  1  0  0  0  0  0  0  0  0  0
   29.9613  -19.8763  -11.1731 C   0  0  0  0  0  0  0  0  0  0  0  0
   29.4680  -21.3426  -13.1148 C   0  0  0  0  0  0  0  0  0  0  0  0
   28.2945  -20.5132  -13.5195 C   0  0  2  0  0  0  0  0  0  0  0  0
   27.1271  -20.9970  -12.7980 N   0  0  0  0  0  0  0  0  0  0  0  0
   28.0011  -20.5909  -14.9675 C   0  0  0  0  0  0  0  0  0  0  0  0
   28.8913  -20.2521  -15.7762 O   0  0  0  0  0  0  0  0  0  0  0  0
   26.7467  -21.0357  -15.4732 N   0  0  0  0  0  0  0  0  0  0  0  0
   26.4839  -21.0445  -16.8981 C   0  0  1  0  0  0  0  0  0  0  0  0
   26.1527  -22.4649  -17.3673 C   0  0  0  0  0  0  0  0  0  0  0  0
   26.6181  -23.6150  -16.0485 S   0  0  0  0  0  0  0  0  0  0  0  0
   25.3082  -20.1622  -17.1776 C   0  0  0  0  0  0  0  0  0  0  0  0
   24.8488  -19.9947  -18.4755 O   0  0  0  0  0  0  0  0  0  0  0  0
   24.7053  -19.5511  -16.2566 O   0  0  0  0  0  0  0  0  0  0  0  0
  2  1  1  0
  2  3  1  0
  3  4  1  1
  5  3  1  0
  5  6  1  6
  7  5  1  0
  8  7  2  0
 10  9  1  6
 11 10  1  0
 12 10  1  0
 13 12  1  6
 13 14  1  0
 14  7  1  0
 15 17  1  0
 15 13  1  0
 16 15  2  0
 18 17  1  0
 18 21  1  0
 18 19  1  1
 20 19  1  0
 21 22  1  0
 23 21  2  0
M  END
$$$$
