ILC.pdb
     RDKit          3D

 23 22  0  0  1  0  0  0  0  0999 V2000
   28.1786  -19.4433  -15.9680 C   0  0  0  0  0  0  0  0  0  0  0  0
   27.5914  -20.5758  -15.1706 C   0  0  0  0  0  0  0  0  0  0  0  0
   26.3700  -20.1377  -14.4097 C   0  0  2  0  0  0  0  0  0  0  0  0
   26.7447  -19.0019  -13.4676 C   0  0  0  0  0  0  0  0  0  0  0  0
   25.6635  -21.2436  -13.6654 C   0  0  2  0  0  0  0  0  0  0  0  0
   25.5167  -22.3342  -14.6701 N   0  0  0  0  0  0  0  0  0  0  0  0
   24.2719  -20.9232  -13.2775 C   0  0  0  0  0  0  0  0  0  0  0  0
   24.0213  -20.1620  -12.2733 O   0  0  0  0  0  0  0  0  0  0  0  0
   19.5579  -18.6124  -13.9686 C   0  0  0  0  0  0  0  0  0  0  0  0
   19.7272  -19.9998  -14.5672 C   0  0  1  0  0  0  0  0  0  0  0  0
   18.9431  -20.1379  -15.8463 C   0  0  0  0  0  0  0  0  0  0  0  0
   21.1889  -20.3130  -14.8027 C   0  0  0  0  0  0  0  0  0  0  0  0
   21.7748  -20.9946  -13.6106 C   0  0  2  0  0  0  0  0  0  0  0  0
   23.1336  -21.3969  -13.9409 N   0  0  0  0  0  0  0  0  0  0  0  0
   21.0251  -22.2049  -13.2079 C   0  0  0  0  0  0  0  0  0  0  0  0
   21.0568  -23.2039  -13.9577 O   0  0  0  0  0  0  0  0  0  0  0  0
   20.2712  -22.2744  -12.0021 N   0  0  0  0  0  0  0  0  0  0  0  0
   19.5872  -23.4951  -11.6261 C   0  0  1  0  0  0  0  0  0  0  0  0
   19.5710  -23.6455  -10.1014 C   0  0  0  0  0  0  0  0  0  0  0  0
   18.7433  -22.1947   -9.4026 S   0  0  0  0  0  0  0  0  0  0  0  0
   18.1746  -23.4271  -12.1148 C   0  0  0  0  0  0  0  0  0  0  0  0
   17.4086  -24.5793  -12.2114 O   0  0  0  0  0  0  0  0  0  0  0  0
   17.6418  -22.3367  -12.4500 O   0  0  0  0  0  0  0  0  0  0  0  0
  2  1  1  0
  2  3  1  0
  3  4  1  1
  5  3  1  0
  5  6  1  6
  7  5  1  0
  8  7  2  0
 10  9  1  6
 11 10  1  0
 12 10  1  0
 13 12  1  6
 13 14  1  0
 14  7  1  0
 15 17  1  0
 15 13  1  0
 16 15  2  0
 18 17  1  0
 18 21  1  0
 18 19  1  1
 20 19  1  0
 21 22  1  0
 23 21  2  0
M  END
$$$$
