ILC.pdb
     RDKit          3D

 23 22  0  0  1  0  0  0  0  0999 V2000
   27.9132  -17.4253  -18.0587 C   0  0  0  0  0  0  0  0  0  0  0  0
   28.4244  -18.2090  -16.8806 C   0  0  0  0  0  0  0  0  0  0  0  0
   27.3026  -18.8851  -16.1410 C   0  0  2  0  0  0  0  0  0  0  0  0
   26.2545  -17.8486  -15.7598 C   0  0  0  0  0  0  0  0  0  0  0  0
   27.7355  -19.6816  -14.9351 C   0  0  2  0  0  0  0  0  0  0  0  0
   28.5819  -20.7732  -15.4940 N   0  0  0  0  0  0  0  0  0  0  0  0
   26.6348  -20.3956  -14.2507 C   0  0  0  0  0  0  0  0  0  0  0  0
   26.1385  -21.4749  -14.7400 O   0  0  0  0  0  0  0  0  0  0  0  0
   26.3101  -20.1989   -8.8133 C   0  0  0  0  0  0  0  0  0  0  0  0
   26.2647  -20.7186  -10.2414 C   0  0  1  0  0  0  0  0  0  0  0  0
   26.4129  -22.2175  -10.2780 C   0  0  0  0  0  0  0  0  0  0  0  0
   24.9870  -20.2933  -10.9318 C   0  0  0  0  0  0  0  0  0  0  0  0
   24.9990  -20.7227  -12.3616 C   0  0  2  0  0  0  0  0  0  0  0  0
   26.0484  -19.9842  -13.0478 N   0  0  0  0  0  0  0  0  0  0  0  0
   23.7215  -20.4547  -13.0583 C   0  0  0  0  0  0  0  0  0  0  0  0
   23.3985  -19.2679  -13.2776 O   0  0  0  0  0  0  0  0  0  0  0  0
   22.8489  -21.4948  -13.4871 N   0  0  0  0  0  0  0  0  0  0  0  0
   21.6103  -21.1863  -14.1729 C   0  0  1  0  0  0  0  0  0  0  0  0
   21.1282  -22.4030  -14.9696 C   0  0  0  0  0  0  0  0  0  0  0  0
   19.5252  -21.9935  -15.7052 S   0  0  0  0  0  0  0  0  0  0  0  0
   20.5695  -20.8376  -13.1561 C   0  0  0  0  0  0  0  0  0  0  0  0
   19.5814  -19.9104  -13.4521 O   0  0  0  0  0  0  0  0  0  0  0  0
   20.5562  -21.3671  -12.0138 O   0  0  0  0  0  0  0  0  0  0  0  0
  2  1  1  0
  2  3  1  0
  3  4  1  1
  5  3  1  0
  5  6  1  6
  7  5  1  0
  8  7  2  0
 10  9  1  1
 11 10  1  0
 12 10  1  0
 13 12  1  1
 13 14  1  0
 14  7  1  0
 15 17  1  0
 15 13  1  0
 16 15  2  0
 18 17  1  0
 18 21  1  0
 18 19  1  1
 20 19  1  0
 21 22  1  0
 23 21  2  0
M  END
$$$$
