ILC.pdb
     RDKit          3D

 23 22  0  0  1  0  0  0  0  0999 V2000
   19.4307  -15.5807  -18.2364 C   0  0  0  0  0  0  0  0  0  0  0  0
   19.9080  -14.2857  -18.8351 C   0  0  0  0  0  0  0  0  0  0  0  0
   20.0766  -13.2228  -17.7842 C   0  0  2  0  0  0  0  0  0  0  0  0
   18.7732  -13.0664  -17.0131 C   0  0  0  0  0  0  0  0  0  0  0  0
   20.5549  -11.8915  -18.3087 C   0  0  2  0  0  0  0  0  0  0  0  0
   21.8641  -12.1935  -18.9530 N   0  0  0  0  0  0  0  0  0  0  0  0
   20.8919  -10.9084  -17.2552 C   0  0  0  0  0  0  0  0  0  0  0  0
   20.0066  -10.5057  -16.4156 O   0  0  0  0  0  0  0  0  0  0  0  0
   25.9459  -10.4313  -15.2284 C   0  0  0  0  0  0  0  0  0  0  0  0
   24.4259  -10.3969  -15.2362 C   0  0  1  0  0  0  0  0  0  0  0  0
   23.8751  -10.4524  -13.8349 C   0  0  0  0  0  0  0  0  0  0  0  0
   23.9159   -9.1698  -15.9602 C   0  0  0  0  0  0  0  0  0  0  0  0
   22.4374   -9.2529  -16.1496 C   0  0  2  0  0  0  0  0  0  0  0  0
   22.1594  -10.3423  -17.0734 N   0  0  0  0  0  0  0  0  0  0  0  0
   21.8546   -8.0156  -16.7139 C   0  0  0  0  0  0  0  0  0  0  0  0
   21.9450   -7.8203  -17.9447 O   0  0  0  0  0  0  0  0  0  0  0  0
   21.1967   -7.0418  -15.9102 N   0  0  0  0  0  0  0  0  0  0  0  0
   20.6050   -5.8634  -16.5109 C   0  0  1  0  0  0  0  0  0  0  0  0
   19.4958   -6.2667  -17.4880 C   0  0  0  0  0  0  0  0  0  0  0  0
   18.6446   -4.7611  -18.0239 S   0  0  0  0  0  0  0  0  0  0  0  0
   20.0065   -5.0194  -15.4302 C   0  0  0  0  0  0  0  0  0  0  0  0
   20.0419   -3.6357  -15.5189 O   0  0  0  0  0  0  0  0  0  0  0  0
   19.4584   -5.5301  -14.4182 O   0  0  0  0  0  0  0  0  0  0  0  0
  2  1  1  0
  2  3  1  0
  3  4  1  6
  5  3  1  0
  5  6  1  1
  7  5  1  0
  8  7  2  0
 10  9  1  1
 11 10  1  0
 12 10  1  0
 13 12  1  6
 13 14  1  0
 14  7  1  0
 15 17  1  0
 15 13  1  0
 16 15  2  0
 18 17  1  0
 18 21  1  0
 18 19  1  6
 20 19  1  0
 21 22  1  0
 23 21  2  0
M  END
$$$$
