ILC.pdb
     RDKit          3D

 23 22  0  0  1  0  0  0  0  0999 V2000
   24.1218  -27.2602  -17.1952 C   0  0  0  0  0  0  0  0  0  0  0  0
   25.1766  -26.3723  -16.5934 C   0  0  0  0  0  0  0  0  0  0  0  0
   26.4851  -26.4991  -17.3243 C   0  0  2  0  0  0  0  0  0  0  0  0
   26.8646  -27.9701  -17.4252 C   0  0  0  0  0  0  0  0  0  0  0  0
   27.6146  -25.6910  -16.7350 C   0  0  2  0  0  0  0  0  0  0  0  0
   27.2219  -24.2734  -16.9727 N   0  0  0  0  0  0  0  0  0  0  0  0
   28.9016  -25.8319  -17.4516 C   0  0  0  0  0  0  0  0  0  0  0  0
   29.0827  -25.2915  -18.6031 O   0  0  0  0  0  0  0  0  0  0  0  0
   33.4903  -25.6370  -14.6684 C   0  0  0  0  0  0  0  0  0  0  0  0
   32.5145  -25.4575  -15.8204 C   0  0  1  0  0  0  0  0  0  0  0  0
   32.9462  -24.3341  -16.7268 C   0  0  0  0  0  0  0  0  0  0  0  0
   32.3590  -26.7431  -16.6034 C   0  0  0  0  0  0  0  0  0  0  0  0
   31.2956  -26.5966  -17.6409 C   0  0  2  0  0  0  0  0  0  0  0  0
   30.0081  -26.5383  -16.9652 N   0  0  0  0  0  0  0  0  0  0  0  0
   31.2589  -27.7249  -18.5972 C   0  0  0  0  0  0  0  0  0  0  0  0
   30.9317  -28.8546  -18.1755 O   0  0  0  0  0  0  0  0  0  0  0  0
   31.5814  -27.5729  -19.9756 N   0  0  0  0  0  0  0  0  0  0  0  0
   31.4639  -28.6901  -20.8909 C   0  0  1  0  0  0  0  0  0  0  0  0
   30.5582  -28.3170  -22.0691 C   0  0  0  0  0  0  0  0  0  0  0  0
   29.8260  -29.8402  -22.7190 S   0  0  0  0  0  0  0  0  0  0  0  0
   32.8227  -29.0256  -21.4198 C   0  0  0  0  0  0  0  0  0  0  0  0
   33.8827  -28.1497  -21.2391 O   0  0  0  0  0  0  0  0  0  0  0  0
   33.0459  -30.0995  -22.0381 O   0  0  0  0  0  0  0  0  0  0  0  0
  2  1  1  0
  2  3  1  0
  3  4  1  1
  5  3  1  0
  5  6  1  6
  7  5  1  0
  8  7  2  0
 10  9  1  1
 11 10  1  0
 12 10  1  0
 13 12  1  1
 13 14  1  0
 14  7  1  0
 15 17  1  0
 15 13  1  0
 16 15  2  0
 18 17  1  0
 18 21  1  0
 18 19  1  6
 20 19  1  0
 21 22  1  0
 23 21  2  0
M  END
$$$$
