ILC.pdb
     RDKit          3D

 23 22  0  0  1  0  0  0  0  0999 V2000
   15.1647  -12.2311  -19.0723 C   0  0  0  0  0  0  0  0  0  0  0  0
   16.4947  -12.5817  -18.4629 C   0  0  0  0  0  0  0  0  0  0  0  0
   17.0584  -11.4319  -17.6737 C   0  0  2  0  0  0  0  0  0  0  0  0
   17.2412  -10.2322  -18.5930 C   0  0  0  0  0  0  0  0  0  0  0  0
   18.3365  -11.7439  -16.9352 C   0  0  2  0  0  0  0  0  0  0  0  0
   17.9436  -12.7683  -15.9270 N   0  0  0  0  0  0  0  0  0  0  0  0
   18.8587  -10.6227  -16.1228 C   0  0  0  0  0  0  0  0  0  0  0  0
   18.1998  -10.1680  -15.1179 O   0  0  0  0  0  0  0  0  0  0  0  0
   23.8110  -10.3429  -14.3156 C   0  0  0  0  0  0  0  0  0  0  0  0
   22.3240  -10.0288  -14.3577 C   0  0  1  0  0  0  0  0  0  0  0  0
   21.8230   -9.5942  -13.0049 C   0  0  0  0  0  0  0  0  0  0  0  0
   22.0228   -8.9745  -15.4006 C   0  0  0  0  0  0  0  0  0  0  0  0
   20.5484   -8.8313  -15.5868 C   0  0  2  0  0  0  0  0  0  0  0  0
   20.0760   -9.9719  -16.3570 N   0  0  0  0  0  0  0  0  0  0  0  0
   20.1729   -7.6003  -16.3165 C   0  0  0  0  0  0  0  0  0  0  0  0
   20.3961   -7.5425  -17.5445 O   0  0  0  0  0  0  0  0  0  0  0  0
   19.5686   -6.4823  -15.6746 N   0  0  0  0  0  0  0  0  0  0  0  0
   19.1992   -5.3040  -16.4327 C   0  0  1  0  0  0  0  0  0  0  0  0
   17.6747   -5.2063  -16.5511 C   0  0  0  0  0  0  0  0  0  0  0  0
   17.2710   -3.6108  -17.3061 S   0  0  0  0  0  0  0  0  0  0  0  0
   19.7016   -4.0911  -15.7149 C   0  0  0  0  0  0  0  0  0  0  0  0
   20.1674   -2.9961  -16.4274 O   0  0  0  0  0  0  0  0  0  0  0  0
   19.7181   -4.0251  -14.4577 O   0  0  0  0  0  0  0  0  0  0  0  0
  2  1  1  0
  2  3  1  0
  3  4  1  6
  5  3  1  0
  5  6  1  1
  7  5  1  0
  8  7  2  0
 10  9  1  1
 11 10  1  0
 12 10  1  0
 13 12  1  6
 13 14  1  0
 14  7  1  0
 15 17  1  0
 15 13  1  0
 16 15  2  0
 18 17  1  0
 18 21  1  0
 18 19  1  1
 20 19  1  0
 21 22  1  0
 23 21  2  0
M  END
$$$$
