AVE.pdb
     RDKit          3D

 22 21  0  0  1  0  0  0  0  0999 V2000
    7.2362  -11.4290   26.7699 C   0  0  0  0  0  0  0  0  0  0  0  0
    6.2304  -12.2126   25.9578 C   0  0  2  0  0  0  0  0  0  0  0  0
    5.1790  -12.6460   26.8505 N   0  0  0  0  0  0  0  0  0  0  0  0
    6.8943  -13.3656   25.3413 C   0  0  0  0  0  0  0  0  0  0  0  0
    7.1504  -14.3923   26.0246 O   0  0  0  0  0  0  0  0  0  0  0  0
    8.5824  -13.1578   21.3539 C   0  0  0  0  0  0  0  0  0  0  0  0
    7.6555  -14.2533   21.7912 C   0  0  1  0  0  0  0  0  0  0  0  0
    8.0621  -15.5341   21.0593 C   0  0  0  0  0  0  0  0  0  0  0  0
    7.7743  -14.5228   23.2623 C   0  0  2  0  0  0  0  0  0  0  0  0
    7.2677  -13.3750   23.9833 N   0  0  0  0  0  0  0  0  0  0  0  0
    9.1325  -14.8918   23.6330 C   0  0  0  0  0  0  0  0  0  0  0  0
   10.0394  -14.0382   23.7297 O   0  0  0  0  0  0  0  0  0  0  0  0
    9.4555  -16.2394   23.8938 N   0  0  0  0  0  0  0  0  0  0  0  0
   10.8344  -16.6095   24.1880 C   0  0  1  0  0  0  0  0  0  0  0  0
   10.8315  -17.7742   25.1257 C   0  0  0  0  0  0  0  0  0  0  0  0
   10.3111  -17.5180   26.4942 C   0  0  0  0  0  0  0  0  0  0  0  0
   10.3615  -18.7085   27.3631 C   0  0  0  0  0  0  0  0  0  0  0  0
    9.5149  -19.6218   27.1855 O   0  0  0  0  0  0  0  0  0  0  0  0
   11.5899  -16.8825   22.9462 C   0  0  0  0  0  0  0  0  0  0  0  0
   12.9671  -16.7974   22.9628 O   0  0  0  0  0  0  0  0  0  0  0  0
   11.2854  -18.8910   28.3721 O   0  0  0  0  0  0  0  0  0  0  0  0
   11.0253  -17.1900   21.8697 O   0  0  0  0  0  0  0  0  0  0  0  0
  2  1  1  1
  2  3  1  0
  4  2  1  0
  5  4  2  0
  7  6  1  6
  7  9  1  0
  8  7  1  0
  9 10  1  1
  9 11  1  0
 10  4  1  0
 11 12  2  0
 13 11  1  0
 13 14  1  0
 14 15  1  1
 16 15  1  0
 17 21  1  0
 17 16  1  0
 18 17  2  0
 19 20  1  0
 19 14  1  0
 22 19  2  0
M  END
$$$$
