AVE.pdb
     RDKit          3D

 22 21  0  0  1  0  0  0  0  0999 V2000
    8.0503  -19.0848   19.1831 C   0  0  0  0  0  0  0  0  0  0  0  0
    8.1186  -17.6174   18.8268 C   0  0  2  0  0  0  0  0  0  0  0  0
    8.9143  -17.4878   17.6266 N   0  0  0  0  0  0  0  0  0  0  0  0
    8.7280  -16.8749   19.9348 C   0  0  0  0  0  0  0  0  0  0  0  0
    9.9800  -16.7570   20.0088 O   0  0  0  0  0  0  0  0  0  0  0  0
    7.8239  -13.8931   23.8203 C   0  0  0  0  0  0  0  0  0  0  0  0
    7.4127  -14.5857   22.5548 C   0  0  1  0  0  0  0  0  0  0  0  0
    7.2142  -13.5179   21.4769 C   0  0  0  0  0  0  0  0  0  0  0  0
    8.4789  -15.5211   22.0657 C   0  0  2  0  0  0  0  0  0  0  0  0
    7.9544  -16.2723   20.9457 N   0  0  0  0  0  0  0  0  0  0  0  0
    8.9937  -16.3577   23.1396 C   0  0  0  0  0  0  0  0  0  0  0  0
    8.3204  -17.2936   23.6203 O   0  0  0  0  0  0  0  0  0  0  0  0
   10.2809  -16.1243   23.6659 N   0  0  0  0  0  0  0  0  0  0  0  0
   10.8130  -17.0081   24.6959 C   0  0  1  0  0  0  0  0  0  0  0  0
   12.3068  -16.9634   24.6449 C   0  0  0  0  0  0  0  0  0  0  0  0
   12.9776  -18.0966   23.9558 C   0  0  0  0  0  0  0  0  0  0  0  0
   14.1877  -17.6887   23.2181 C   0  0  0  0  0  0  0  0  0  0  0  0
   14.5734  -16.4946   23.3043 O   0  0  0  0  0  0  0  0  0  0  0  0
   10.2798  -16.6549   26.0293 C   0  0  0  0  0  0  0  0  0  0  0  0
    9.4944  -15.5283   26.1642 O   0  0  0  0  0  0  0  0  0  0  0  0
   14.9353  -18.5386   22.4282 O   0  0  0  0  0  0  0  0  0  0  0  0
   10.5149  -17.3426   27.0510 O   0  0  0  0  0  0  0  0  0  0  0  0
  2  1  1  1
  2  3  1  0
  4  2  1  0
  5  4  2  0
  7  6  1  1
  7  9  1  0
  8  7  1  0
  9 10  1  6
  9 11  1  0
 10  4  1  0
 11 12  2  0
 13 11  1  0
 13 14  1  0
 14 15  1  1
 16 15  1  0
 17 21  1  0
 17 16  1  0
 18 17  2  0
 19 20  1  0
 19 14  1  0
 22 19  2  0
M  END
$$$$
