AVE.pdb
     RDKit          3D

 22 21  0  0  1  0  0  0  0  0999 V2000
    6.4338  -15.8737   21.1250 C   0  0  0  0  0  0  0  0  0  0  0  0
    6.9393  -14.4596   21.2975 C   0  0  2  0  0  0  0  0  0  0  0  0
    7.7892  -14.1505   20.1694 N   0  0  0  0  0  0  0  0  0  0  0  0
    7.6896  -14.3602   22.5535 C   0  0  0  0  0  0  0  0  0  0  0  0
    8.9177  -14.6387   22.5844 O   0  0  0  0  0  0  0  0  0  0  0  0
    7.4765  -12.9085   27.3228 C   0  0  0  0  0  0  0  0  0  0  0  0
    6.8722  -13.0325   25.9554 C   0  0  1  0  0  0  0  0  0  0  0  0
    6.7393  -11.6250   25.3700 C   0  0  0  0  0  0  0  0  0  0  0  0
    7.7542  -13.8191   25.0311 C   0  0  2  0  0  0  0  0  0  0  0  0
    7.0809  -13.9565   23.7576 N   0  0  0  0  0  0  0  0  0  0  0  0
    8.1532  -15.0888   25.6202 C   0  0  0  0  0  0  0  0  0  0  0  0
    7.3223  -15.9918   25.8537 O   0  0  0  0  0  0  0  0  0  0  0  0
    9.5048  -15.3273   25.9435 N   0  0  0  0  0  0  0  0  0  0  0  0
    9.9132  -16.6417   26.4236 C   0  0  1  0  0  0  0  0  0  0  0  0
   11.1480  -17.0603   25.6914 C   0  0  0  0  0  0  0  0  0  0  0  0
   11.7711  -18.3380   26.1252 C   0  0  0  0  0  0  0  0  0  0  0  0
   12.9694  -18.6912   25.3416 C   0  0  0  0  0  0  0  0  0  0  0  0
   12.8653  -18.7923   24.0921 O   0  0  0  0  0  0  0  0  0  0  0  0
   10.0967  -16.6402   27.8911 C   0  0  0  0  0  0  0  0  0  0  0  0
   10.0765  -17.8392   28.5739 O   0  0  0  0  0  0  0  0  0  0  0  0
   14.2135  -18.9227   25.8927 O   0  0  0  0  0  0  0  0  0  0  0  0
   10.2704  -15.5850   28.5457 O   0  0  0  0  0  0  0  0  0  0  0  0
  2  1  1  6
  2  3  1  0
  4  2  1  0
  5  4  2  0
  7  6  1  1
  7  9  1  0
  8  7  1  0
  9 10  1  6
  9 11  1  0
 10  4  1  0
 11 12  2  0
 13 11  1  0
 13 14  1  0
 14 15  1  6
 16 15  1  0
 17 21  1  0
 17 16  1  0
 18 17  2  0
 19 20  1  0
 19 14  1  0
 22 19  2  0
M  END
$$$$
