AVE.pdb
     RDKit          3D

 22 21  0  0  1  0  0  0  0  0999 V2000
    5.7177  -17.8827   23.3913 C   0  0  0  0  0  0  0  0  0  0  0  0
    5.5883  -16.4180   23.0407 C   0  0  2  0  0  0  0  0  0  0  0  0
    5.6608  -16.2972   21.6018 N   0  0  0  0  0  0  0  0  0  0  0  0
    6.6740  -15.6666   23.6788 C   0  0  0  0  0  0  0  0  0  0  0  0
    7.8076  -15.6005   23.1336 O   0  0  0  0  0  0  0  0  0  0  0  0
    7.8879  -12.6501   27.4594 C   0  0  0  0  0  0  0  0  0  0  0  0
    6.8755  -13.3636   26.6130 C   0  0  1  0  0  0  0  0  0  0  0  0
    6.1014  -12.3108   25.8170 C   0  0  0  0  0  0  0  0  0  0  0  0
    7.5314  -14.2794   25.6220 C   0  0  2  0  0  0  0  0  0  0  0  0
    6.4996  -14.9986   24.9063 N   0  0  0  0  0  0  0  0  0  0  0  0
    8.5123  -15.1461   26.2586 C   0  0  0  0  0  0  0  0  0  0  0  0
    8.1684  -16.0805   27.0128 O   0  0  0  0  0  0  0  0  0  0  0  0
    9.8895  -14.9444   26.0330 N   0  0  0  0  0  0  0  0  0  0  0  0
   10.8471  -15.9641   26.4430 C   0  0  1  0  0  0  0  0  0  0  0  0
   12.1018  -15.7950   25.6474 C   0  0  0  0  0  0  0  0  0  0  0  0
   13.2250  -16.7082   25.9846 C   0  0  0  0  0  0  0  0  0  0  0  0
   14.4163  -16.4935   25.1423 C   0  0  0  0  0  0  0  0  0  0  0  0
   14.4236  -16.9640   23.9757 O   0  0  0  0  0  0  0  0  0  0  0  0
   11.0886  -15.9136   27.9012 C   0  0  0  0  0  0  0  0  0  0  0  0
   11.6086  -17.0224   28.5370 O   0  0  0  0  0  0  0  0  0  0  0  0
   15.5392  -15.8036   25.5522 O   0  0  0  0  0  0  0  0  0  0  0  0
   10.8371  -14.8961   28.5893 O   0  0  0  0  0  0  0  0  0  0  0  0
  2  1  1  6
  2  3  1  0
  4  2  1  0
  5  4  2  0
  7  6  1  6
  7  9  1  0
  8  7  1  0
  9 10  1  1
  9 11  1  0
 10  4  1  0
 11 12  2  0
 13 11  1  0
 13 14  1  0
 14 15  1  6
 16 15  1  0
 17 21  1  0
 17 16  1  0
 18 17  2  0
 19 20  1  0
 19 14  1  0
 22 19  2  0
M  END
$$$$
