AVE.pdb
     RDKit          3D

 22 21  0  0  1  0  0  0  0  0999 V2000
    6.3718  -16.5975   21.8136 C   0  0  0  0  0  0  0  0  0  0  0  0
    6.9078  -15.1946   21.6416 C   0  0  2  0  0  0  0  0  0  0  0  0
    7.6921  -15.1640   20.4274 N   0  0  0  0  0  0  0  0  0  0  0  0
    7.7344  -14.8434   22.8008 C   0  0  0  0  0  0  0  0  0  0  0  0
    8.9360  -15.2164   22.8615 O   0  0  0  0  0  0  0  0  0  0  0  0
    5.8961  -13.2089   26.3456 C   0  0  0  0  0  0  0  0  0  0  0  0
    7.2026  -12.6915   25.8205 C   0  0  1  0  0  0  0  0  0  0  0  0
    8.0581  -12.2718   27.0176 C   0  0  0  0  0  0  0  0  0  0  0  0
    7.9603  -13.7544   25.0809 C   0  0  2  0  0  0  0  0  0  0  0  0
    7.2300  -14.0877   23.8769 N   0  0  0  0  0  0  0  0  0  0  0  0
    8.2414  -14.9030   25.9296 C   0  0  0  0  0  0  0  0  0  0  0  0
    7.3835  -15.7859   26.1414 O   0  0  0  0  0  0  0  0  0  0  0  0
    9.5057  -15.0430   26.5380 N   0  0  0  0  0  0  0  0  0  0  0  0
    9.8506  -16.2885   27.2124 C   0  0  1  0  0  0  0  0  0  0  0  0
   10.8183  -17.0461   26.3605 C   0  0  0  0  0  0  0  0  0  0  0  0
   11.3103  -18.3367   26.9093 C   0  0  0  0  0  0  0  0  0  0  0  0
   12.2297  -19.0396   25.9952 C   0  0  0  0  0  0  0  0  0  0  0  0
   11.9082  -20.1812   25.5759 O   0  0  0  0  0  0  0  0  0  0  0  0
   10.3717  -16.0321   28.5725 C   0  0  0  0  0  0  0  0  0  0  0  0
   10.4932  -17.0842   29.4570 O   0  0  0  0  0  0  0  0  0  0  0  0
   13.4352  -18.5244   25.5635 O   0  0  0  0  0  0  0  0  0  0  0  0
   10.7095  -14.8879   28.9583 O   0  0  0  0  0  0  0  0  0  0  0  0
  2  1  1  1
  2  3  1  0
  4  2  1  0
  5  4  2  0
  7  6  1  1
  7  9  1  0
  8  7  1  0
  9 10  1  6
  9 11  1  0
 10  4  1  0
 11 12  2  0
 13 11  1  0
 13 14  1  0
 14 15  1  6
 16 15  1  0
 17 21  1  0
 17 16  1  0
 18 17  2  0
 19 20  1  0
 19 14  1  0
 22 19  2  0
M  END
$$$$
