AVE.pdb
     RDKit          3D

 22 21  0  0  1  0  0  0  0  0999 V2000
    6.3150  -14.7187   20.5327 C   0  0  0  0  0  0  0  0  0  0  0  0
    6.8388  -13.3713   20.9744 C   0  0  2  0  0  0  0  0  0  0  0  0
    7.6596  -12.8421   19.9083 N   0  0  0  0  0  0  0  0  0  0  0  0
    7.6249  -13.5327   22.2017 C   0  0  0  0  0  0  0  0  0  0  0  0
    8.8622  -13.7609   22.1390 O   0  0  0  0  0  0  0  0  0  0  0  0
    7.5706  -13.0178   27.1560 C   0  0  0  0  0  0  0  0  0  0  0  0
    6.8994  -12.9420   25.8165 C   0  0  1  0  0  0  0  0  0  0  0  0
    6.6898  -11.4645   25.4780 C   0  0  0  0  0  0  0  0  0  0  0  0
    7.7568  -13.5305   24.7351 C   0  0  2  0  0  0  0  0  0  0  0  0
    7.0416  -13.4413   23.4803 N   0  0  0  0  0  0  0  0  0  0  0  0
    8.1879  -14.8806   25.0663 C   0  0  0  0  0  0  0  0  0  0  0  0
    7.3733  -15.8227   25.1630 O   0  0  0  0  0  0  0  0  0  0  0  0
    9.5532  -15.1551   25.2878 N   0  0  0  0  0  0  0  0  0  0  0  0
    9.9917  -16.5307   25.4889 C   0  0  1  0  0  0  0  0  0  0  0  0
   11.3173  -16.7166   24.8225 C   0  0  0  0  0  0  0  0  0  0  0  0
   12.0210  -17.9962   25.0988 C   0  0  0  0  0  0  0  0  0  0  0  0
   13.3282  -18.0938   24.4232 C   0  0  0  0  0  0  0  0  0  0  0  0
   13.4003  -18.7225   23.3361 O   0  0  0  0  0  0  0  0  0  0  0  0
   10.0261  -16.8747   26.9268 C   0  0  0  0  0  0  0  0  0  0  0  0
   10.2072  -15.8705   27.8558 O   0  0  0  0  0  0  0  0  0  0  0  0
   14.4935  -17.5361   24.9090 O   0  0  0  0  0  0  0  0  0  0  0  0
    9.8973  -18.0516   27.3398 O   0  0  0  0  0  0  0  0  0  0  0  0
  2  1  1  6
  2  3  1  0
  4  2  1  0
  5  4  2  0
  7  6  1  1
  7  9  1  0
  8  7  1  0
  9 10  1  6
  9 11  1  0
 10  4  1  0
 11 12  2  0
 13 11  1  0
 13 14  1  0
 14 15  1  1
 16 15  1  0
 17 21  1  0
 17 16  1  0
 18 17  2  0
 19 20  1  0
 19 14  1  0
 22 19  2  0
M  END
$$$$
