AVE.pdb
     RDKit          3D

 22 21  0  0  1  0  0  0  0  0999 V2000
    6.9936  -18.3252   18.2681 C   0  0  0  0  0  0  0  0  0  0  0  0
    7.5863  -17.0023   17.8397 C   0  0  2  0  0  0  0  0  0  0  0  0
    8.4191  -17.2421   16.6825 N   0  0  0  0  0  0  0  0  0  0  0  0
    8.3779  -16.4438   18.9405 C   0  0  0  0  0  0  0  0  0  0  0  0
    9.5583  -16.8368   19.1382 O   0  0  0  0  0  0  0  0  0  0  0  0
    7.9143  -12.6706   19.9058 C   0  0  0  0  0  0  0  0  0  0  0  0
    7.9934  -13.4907   21.1594 C   0  0  1  0  0  0  0  0  0  0  0  0
    6.5675  -13.7102   21.6692 C   0  0  0  0  0  0  0  0  0  0  0  0
    8.5872  -14.8434   20.8977 C   0  0  2  0  0  0  0  0  0  0  0  0
    7.8624  -15.4619   19.8086 N   0  0  0  0  0  0  0  0  0  0  0  0
    8.6294  -15.6545   22.1055 C   0  0  0  0  0  0  0  0  0  0  0  0
    7.7690  -16.5302   22.3363 O   0  0  0  0  0  0  0  0  0  0  0  0
    9.6572  -15.4645   23.0521 N   0  0  0  0  0  0  0  0  0  0  0  0
    9.8625  -16.4510   24.1055 C   0  0  1  0  0  0  0  0  0  0  0  0
   10.3772  -17.7130   23.4905 C   0  0  0  0  0  0  0  0  0  0  0  0
   11.7679  -17.6727   22.9677 C   0  0  0  0  0  0  0  0  0  0  0  0
   12.1912  -18.9453   22.3543 C   0  0  0  0  0  0  0  0  0  0  0  0
   13.4056  -19.2680   22.4107 O   0  0  0  0  0  0  0  0  0  0  0  0
   10.7578  -15.9271   25.1596 C   0  0  0  0  0  0  0  0  0  0  0  0
   10.8813  -16.6220   26.3454 O   0  0  0  0  0  0  0  0  0  0  0  0
   11.3348  -19.8173   21.7130 O   0  0  0  0  0  0  0  0  0  0  0  0
   11.4139  -14.8680   25.0191 O   0  0  0  0  0  0  0  0  0  0  0  0
  2  1  1  1
  2  3  1  0
  4  2  1  0
  5  4  2  0
  7  6  1  6
  7  9  1  0
  8  7  1  0
  9 10  1  6
  9 11  1  0
 10  4  1  0
 11 12  2  0
 13 11  1  0
 13 14  1  0
 14 15  1  6
 16 15  1  0
 17 21  1  0
 17 16  1  0
 18 17  2  0
 19 20  1  0
 19 14  1  0
 22 19  2  0
M  END
$$$$
