NCQ.pdb
     RDKit          3D

 24 23  0  0  1  0  0  0  0  0999 V2000
    8.7002  -18.4529   19.8709 N   0  0  0  0  0  0  0  0  0  0  0  0
    8.6638  -17.0726   19.5465 C   0  0  0  0  0  0  0  0  0  0  0  0
    8.2232  -16.7168   18.4273 O   0  0  0  0  0  0  0  0  0  0  0  0
    9.1477  -16.0852   20.5391 C   0  0  0  0  0  0  0  0  0  0  0  0
    7.9871  -15.6582   21.4200 C   0  0  2  0  0  0  0  0  0  0  0  0
    7.0263  -14.9954   20.5843 N   0  0  0  0  0  0  0  0  0  0  0  0
    8.4345  -14.7650   22.5129 C   0  0  0  0  0  0  0  0  0  0  0  0
    9.6649  -14.6426   22.7681 O   0  0  0  0  0  0  0  0  0  0  0  0
    7.5463  -14.0077   23.3253 N   0  0  0  0  0  0  0  0  0  0  0  0
    7.8916  -13.4851   24.6123 C   0  0  1  0  0  0  0  0  0  0  0  0
    6.8587  -12.5382   25.1751 C   0  0  0  0  0  0  0  0  0  0  0  0
    5.7042  -13.3779   26.2914 S   0  0  0  0  0  0  0  0  0  0  0  0
    8.0745  -14.5666   25.6292 C   0  0  0  0  0  0  0  0  0  0  0  0
    7.4449  -15.6471   25.4923 O   0  0  0  0  0  0  0  0  0  0  0  0
   11.6887  -18.2606   25.0513 N   0  0  0  0  0  0  0  0  0  0  0  0
   12.2044  -17.0054   25.4471 C   0  0  0  0  0  0  0  0  0  0  0  0
   13.3779  -16.7084   25.0460 O   0  0  0  0  0  0  0  0  0  0  0  0
   11.4527  -16.0470   26.2801 C   0  0  0  0  0  0  0  0  0  0  0  0
   10.1192  -16.4809   26.7432 C   0  0  0  0  0  0  0  0  0  0  0  0
    9.3576  -15.5291   27.5914 C   0  0  2  0  0  0  0  0  0  0  0  0
    8.9284  -14.4102   26.7314 N   0  0  0  0  0  0  0  0  0  0  0  0
    9.9682  -14.9768   28.7823 C   0  0  0  0  0  0  0  0  0  0  0  0
   10.0199  -13.7281   28.9745 O   0  0  0  0  0  0  0  0  0  0  0  0
   10.5200  -15.7617   29.7786 O   0  0  0  0  0  0  0  0  0  0  0  0
  2  1  1  0
  2  4  1  0
  3  2  2  0
  4  5  1  0
  5  7  1  0
  5  6  1  6
  7  8  2  0
  9  7  1  0
  9 10  1  0
 10 13  1  0
 11 12  1  0
 10 11  1  1
 13 21  1  0
 14 13  2  0
 16 15  1  0
 17 16  2  0
 18 16  1  0
 19 18  1  0
 20 19  1  6
 21 20  1  0
 22 20  1  0
 22 24  1  0
 23 22  2  0
M  END
$$$$
