NCQ.pdb
     RDKit          3D

 24 23  0  0  1  0  0  0  0  0999 V2000
    7.8049  -17.6662   14.5597 N   0  0  0  0  0  0  0  0  0  0  0  0
    7.7300  -18.0316   15.9282 C   0  0  0  0  0  0  0  0  0  0  0  0
    7.2881  -19.1640   16.2376 O   0  0  0  0  0  0  0  0  0  0  0  0
    8.1762  -17.0651   16.9584 C   0  0  0  0  0  0  0  0  0  0  0  0
    8.0642  -17.7127   18.3271 C   0  0  2  0  0  0  0  0  0  0  0  0
    6.6888  -18.0707   18.5290 N   0  0  0  0  0  0  0  0  0  0  0  0
    8.5309  -16.8032   19.3983 C   0  0  0  0  0  0  0  0  0  0  0  0
    9.7187  -16.3751   19.3938 O   0  0  0  0  0  0  0  0  0  0  0  0
    7.7081  -16.3608   20.4706 N   0  0  0  0  0  0  0  0  0  0  0  0
    8.1783  -15.5584   21.5585 C   0  0  1  0  0  0  0  0  0  0  0  0
    7.0810  -15.1063   22.4922 C   0  0  0  0  0  0  0  0  0  0  0  0
    7.7352  -14.2142   23.9275 S   0  0  0  0  0  0  0  0  0  0  0  0
    9.1806  -16.2820   22.4006 C   0  0  0  0  0  0  0  0  0  0  0  0
    8.9528  -17.4735   22.7335 O   0  0  0  0  0  0  0  0  0  0  0  0
   15.6084  -14.9953   22.2936 N   0  0  0  0  0  0  0  0  0  0  0  0
   15.2148  -16.3156   22.6099 C   0  0  0  0  0  0  0  0  0  0  0  0
   15.9945  -17.2561   22.2443 O   0  0  0  0  0  0  0  0  0  0  0  0
   13.9707  -16.6383   23.3348 C   0  0  0  0  0  0  0  0  0  0  0  0
   12.7282  -16.0349   22.8122 C   0  0  0  0  0  0  0  0  0  0  0  0
   11.4621  -16.3984   23.4980 C   0  0  2  0  0  0  0  0  0  0  0  0
   10.3677  -15.6694   22.8296 N   0  0  0  0  0  0  0  0  0  0  0  0
   11.3329  -16.1996   24.9263 C   0  0  0  0  0  0  0  0  0  0  0  0
   10.6986  -15.2121   25.3967 O   0  0  0  0  0  0  0  0  0  0  0  0
   11.8768  -17.0642   25.8589 O   0  0  0  0  0  0  0  0  0  0  0  0
  2  1  1  0
  2  4  1  0
  3  2  2  0
  4  5  1  0
  5  7  1  0
  5  6  1  1
  7  8  2  0
  9  7  1  0
  9 10  1  0
 10 13  1  0
 11 12  1  0
 10 11  1  1
 13 21  1  0
 14 13  2  0
 16 15  1  0
 17 16  2  0
 18 16  1  0
 19 18  1  0
 20 19  1  6
 21 20  1  0
 22 20  1  0
 22 24  1  0
 23 22  2  0
M  END
$$$$
