NCQ.pdb
     RDKit          3D

 24 23  0  0  1  0  0  0  0  0999 V2000
    7.7381  -12.1915   16.9818 N   0  0  0  0  0  0  0  0  0  0  0  0
    8.4104  -13.1071   17.8312 C   0  0  0  0  0  0  0  0  0  0  0  0
    9.4045  -13.7341   17.3930 O   0  0  0  0  0  0  0  0  0  0  0  0
    7.9207  -13.2997   19.2159 C   0  0  0  0  0  0  0  0  0  0  0  0
    7.9318  -14.7821   19.5439 C   0  0  2  0  0  0  0  0  0  0  0  0
    6.9620  -15.4224   18.7011 N   0  0  0  0  0  0  0  0  0  0  0  0
    7.6254  -15.0248   20.9721 C   0  0  0  0  0  0  0  0  0  0  0  0
    6.8609  -14.2394   21.5989 O   0  0  0  0  0  0  0  0  0  0  0  0
    8.1489  -16.1182   21.7157 N   0  0  0  0  0  0  0  0  0  0  0  0
    7.8845  -16.3375   23.1052 C   0  0  1  0  0  0  0  0  0  0  0  0
    7.0125  -17.5416   23.3700 C   0  0  0  0  0  0  0  0  0  0  0  0
    6.4539  -17.6099   25.0926 S   0  0  0  0  0  0  0  0  0  0  0  0
    9.1398  -16.5413   23.8925 C   0  0  0  0  0  0  0  0  0  0  0  0
   10.0290  -17.3062   23.4378 O   0  0  0  0  0  0  0  0  0  0  0  0
   10.0936  -13.4492   29.4163 N   0  0  0  0  0  0  0  0  0  0  0  0
   10.3964  -14.8223   29.5612 C   0  0  0  0  0  0  0  0  0  0  0  0
   10.4840  -15.2741   30.7505 O   0  0  0  0  0  0  0  0  0  0  0  0
   10.6029  -15.7314   28.4173 C   0  0  0  0  0  0  0  0  0  0  0  0
   10.5001  -15.1314   27.0719 C   0  0  0  0  0  0  0  0  0  0  0  0
   10.5906  -16.0556   25.9130 C   0  0  2  0  0  0  0  0  0  0  0  0
    9.3537  -15.9036   25.1237 N   0  0  0  0  0  0  0  0  0  0  0  0
   10.8165  -17.4686   26.1335 C   0  0  0  0  0  0  0  0  0  0  0  0
    9.8517  -18.2794   26.2359 O   0  0  0  0  0  0  0  0  0  0  0  0
   12.0801  -18.0217   26.2372 O   0  0  0  0  0  0  0  0  0  0  0  0
  2  1  1  0
  2  4  1  0
  3  2  2  0
  4  5  1  0
  5  7  1  0
  5  6  1  6
  7  8  2  0
  9  7  1  0
  9 10  1  0
 10 13  1  0
 11 12  1  0
 10 11  1  6
 13 21  1  0
 14 13  2  0
 16 15  1  0
 17 16  2  0
 18 16  1  0
 19 18  1  0
 20 19  1  1
 21 20  1  0
 22 20  1  0
 22 24  1  0
 23 22  2  0
M  END
$$$$
