NCQ.pdb
     RDKit          3D

 24 23  0  0  1  0  0  0  0  0999 V2000
    5.8165  -15.8585   18.8988 N   0  0  0  0  0  0  0  0  0  0  0  0
    7.2121  -16.1106   18.9141 C   0  0  0  0  0  0  0  0  0  0  0  0
    7.6782  -17.0259   18.1941 O   0  0  0  0  0  0  0  0  0  0  0  0
    8.0849  -15.2854   19.7811 C   0  0  0  0  0  0  0  0  0  0  0  0
    7.2235  -14.3230   20.5792 C   0  0  2  0  0  0  0  0  0  0  0  0
    6.9981  -13.1621   19.7655 N   0  0  0  0  0  0  0  0  0  0  0  0
    7.8693  -13.9483   21.8579 C   0  0  0  0  0  0  0  0  0  0  0  0
    8.4324  -12.8247   21.9785 O   0  0  0  0  0  0  0  0  0  0  0  0
    7.9024  -14.7932   23.0014 N   0  0  0  0  0  0  0  0  0  0  0  0
    8.4851  -14.4182   24.2538 C   0  0  1  0  0  0  0  0  0  0  0  0
    7.7745  -13.2698   24.9294 C   0  0  0  0  0  0  0  0  0  0  0  0
    6.0436  -13.6626   25.2945 S   0  0  0  0  0  0  0  0  0  0  0  0
    8.4914  -15.5485   25.2334 C   0  0  0  0  0  0  0  0  0  0  0  0
    7.4417  -16.2225   25.3957 O   0  0  0  0  0  0  0  0  0  0  0  0
   12.2409  -18.4143   22.6607 N   0  0  0  0  0  0  0  0  0  0  0  0
   12.5525  -19.0701   23.8735 C   0  0  0  0  0  0  0  0  0  0  0  0
   13.1935  -20.1693   23.7899 O   0  0  0  0  0  0  0  0  0  0  0  0
   12.1797  -18.5409   25.1996 C   0  0  0  0  0  0  0  0  0  0  0  0
   11.4131  -17.2788   25.2137 C   0  0  0  0  0  0  0  0  0  0  0  0
   10.1882  -17.2435   26.0525 C   0  0  2  0  0  0  0  0  0  0  0  0
    9.6349  -15.8783   25.9765 N   0  0  0  0  0  0  0  0  0  0  0  0
   10.2578  -17.6272   27.4468 C   0  0  0  0  0  0  0  0  0  0  0  0
   10.2065  -16.7632   28.3686 O   0  0  0  0  0  0  0  0  0  0  0  0
   10.3748  -18.9418   27.8609 O   0  0  0  0  0  0  0  0  0  0  0  0
  2  1  1  0
  2  4  1  0
  3  2  2  0
  4  5  1  0
  5  7  1  0
  5  6  1  6
  7  8  2  0
  9  7  1  0
  9 10  1  0
 10 13  1  0
 11 12  1  0
 10 11  1  1
 13 21  1  0
 14 13  2  0
 16 15  1  0
 17 16  2  0
 18 16  1  0
 19 18  1  0
 20 19  1  1
 21 20  1  0
 22 20  1  0
 22 24  1  0
 23 22  2  0
M  END
$$$$
