NCQ.pdb
     RDKit          3D

 24 23  0  0  1  0  0  0  0  0999 V2000
    7.7096  -12.5881   16.0175 N   0  0  0  0  0  0  0  0  0  0  0  0
    8.4715  -13.5900   16.6713 C   0  0  0  0  0  0  0  0  0  0  0  0
    9.6118  -13.8766   16.2344 O   0  0  0  0  0  0  0  0  0  0  0  0
    7.9002  -14.2732   17.8550 C   0  0  0  0  0  0  0  0  0  0  0  0
    8.9815  -15.1118   18.5132 C   0  0  2  0  0  0  0  0  0  0  0  0
    9.3757  -16.1270   17.5779 N   0  0  0  0  0  0  0  0  0  0  0  0
    8.5039  -15.7204   19.7757 C   0  0  0  0  0  0  0  0  0  0  0  0
    7.2766  -15.9707   19.9343 O   0  0  0  0  0  0  0  0  0  0  0  0
    9.3586  -16.0555   20.8618 N   0  0  0  0  0  0  0  0  0  0  0  0
    8.9244  -16.7557   22.0322 C   0  0  1  0  0  0  0  0  0  0  0  0
    8.6110  -18.2115   21.7820 C   0  0  0  0  0  0  0  0  0  0  0  0
    9.9012  -19.0255   20.8039 S   0  0  0  0  0  0  0  0  0  0  0  0
    9.9493  -16.7234   23.1211 C   0  0  0  0  0  0  0  0  0  0  0  0
   11.1674  -16.6637   22.8125 O   0  0  0  0  0  0  0  0  0  0  0  0
    9.8886  -13.9762   29.9649 N   0  0  0  0  0  0  0  0  0  0  0  0
    9.6224  -14.0905   28.5814 C   0  0  0  0  0  0  0  0  0  0  0  0
    8.6495  -13.4073   28.1199 O   0  0  0  0  0  0  0  0  0  0  0  0
   10.4121  -14.9435   27.6723 C   0  0  0  0  0  0  0  0  0  0  0  0
    9.7019  -15.4897   26.4983 C   0  0  0  0  0  0  0  0  0  0  0  0
   10.4910  -16.3345   25.5662 C   0  0  2  0  0  0  0  0  0  0  0  0
    9.5907  -16.7577   24.4771 N   0  0  0  0  0  0  0  0  0  0  0  0
   11.1818  -17.5057   26.0637 C   0  0  0  0  0  0  0  0  0  0  0  0
   10.6753  -18.6596   25.9605 O   0  0  0  0  0  0  0  0  0  0  0  0
   12.4247  -17.4465   26.6678 O   0  0  0  0  0  0  0  0  0  0  0  0
  2  1  1  0
  2  4  1  0
  3  2  2  0
  4  5  1  0
  5  7  1  0
  5  6  1  6
  7  8  2  0
  9  7  1  0
  9 10  1  0
 10 13  1  0
 11 12  1  0
 10 11  1  6
 13 21  1  0
 14 13  2  0
 16 15  1  0
 17 16  2  0
 18 16  1  0
 19 18  1  0
 20 19  1  1
 21 20  1  0
 22 20  1  0
 22 24  1  0
 23 22  2  0
M  END
$$$$
