NCQ.pdb
     RDKit          3D

 24 23  0  0  1  0  0  0  0  0999 V2000
   10.2489  -18.1413   14.5703 N   0  0  0  0  0  0  0  0  0  0  0  0
   10.6133  -18.6832   15.8293 C   0  0  0  0  0  0  0  0  0  0  0  0
   11.0261  -19.8660   15.8919 O   0  0  0  0  0  0  0  0  0  0  0  0
   10.4969  -17.8374   17.0398 C   0  0  0  0  0  0  0  0  0  0  0  0
   10.0790  -18.7058   18.2131 C   0  0  2  0  0  0  0  0  0  0  0  0
    8.7579  -19.1981   17.9423 N   0  0  0  0  0  0  0  0  0  0  0  0
   10.1048  -17.9491   19.4855 C   0  0  0  0  0  0  0  0  0  0  0  0
   11.1572  -17.3527   19.8472 O   0  0  0  0  0  0  0  0  0  0  0  0
    8.9895  -17.8415   20.3613 N   0  0  0  0  0  0  0  0  0  0  0  0
    9.0201  -17.1426   21.6100 C   0  0  1  0  0  0  0  0  0  0  0  0
    7.7320  -16.4218   21.9289 C   0  0  0  0  0  0  0  0  0  0  0  0
    7.1023  -15.4943   20.5051 S   0  0  0  0  0  0  0  0  0  0  0  0
    9.2905  -18.0578   22.7617 C   0  0  0  0  0  0  0  0  0  0  0  0
    9.0695  -19.2891   22.6289 O   0  0  0  0  0  0  0  0  0  0  0  0
   14.0472  -19.6591   22.2637 N   0  0  0  0  0  0  0  0  0  0  0  0
   13.0803  -20.5721   22.7427 C   0  0  0  0  0  0  0  0  0  0  0  0
   13.2023  -21.7887   22.3804 O   0  0  0  0  0  0  0  0  0  0  0  0
   11.9670  -20.1821   23.6293 C   0  0  0  0  0  0  0  0  0  0  0  0
   11.8680  -18.7488   23.9710 C   0  0  0  0  0  0  0  0  0  0  0  0
   10.7283  -18.3378   24.8299 C   0  0  2  0  0  0  0  0  0  0  0  0
    9.7837  -17.5820   23.9859 N   0  0  0  0  0  0  0  0  0  0  0  0
   10.9724  -17.5722   26.0342 C   0  0  0  0  0  0  0  0  0  0  0  0
   11.5461  -18.0890   27.0354 O   0  0  0  0  0  0  0  0  0  0  0  0
   10.6096  -16.2442   26.1684 O   0  0  0  0  0  0  0  0  0  0  0  0
  2  1  1  0
  2  4  1  0
  3  2  2  0
  4  5  1  0
  5  7  1  0
  5  6  1  6
  7  8  2  0
  9  7  1  0
  9 10  1  0
 10 13  1  0
 11 12  1  0
 10 11  1  1
 13 21  1  0
 14 13  2  0
 16 15  1  0
 17 16  2  0
 18 16  1  0
 19 18  1  0
 20 19  1  6
 21 20  1  0
 22 20  1  0
 22 24  1  0
 23 22  2  0
M  END
$$$$
