NCQ.pdb
     RDKit          3D

 24 23  0  0  1  0  0  0  0  0999 V2000
   12.3437  -17.2907   16.3598 N   0  0  0  0  0  0  0  0  0  0  0  0
   11.7350  -17.8913   17.4913 C   0  0  0  0  0  0  0  0  0  0  0  0
   11.1378  -18.9863   17.3580 O   0  0  0  0  0  0  0  0  0  0  0  0
   11.8200  -17.2091   18.8035 C   0  0  0  0  0  0  0  0  0  0  0  0
   10.7155  -17.7301   19.7056 C   0  0  2  0  0  0  0  0  0  0  0  0
    9.4990  -17.7417   18.9434 N   0  0  0  0  0  0  0  0  0  0  0  0
   10.5650  -16.8943   20.9185 C   0  0  0  0  0  0  0  0  0  0  0  0
   11.5648  -16.6548   21.6515 O   0  0  0  0  0  0  0  0  0  0  0  0
    9.3312  -16.3211   21.3326 N   0  0  0  0  0  0  0  0  0  0  0  0
    9.1377  -15.6674   22.5912 C   0  0  1  0  0  0  0  0  0  0  0  0
    7.8063  -14.9642   22.7066 C   0  0  0  0  0  0  0  0  0  0  0  0
    7.5899  -14.1815   24.3266 S   0  0  0  0  0  0  0  0  0  0  0  0
    9.2142  -16.6222   23.7399 C   0  0  0  0  0  0  0  0  0  0  0  0
    8.8287  -17.8083   23.5756 O   0  0  0  0  0  0  0  0  0  0  0  0
   14.3386  -18.6591   24.4537 N   0  0  0  0  0  0  0  0  0  0  0  0
   13.4248  -19.3996   25.2378 C   0  0  0  0  0  0  0  0  0  0  0  0
   13.6113  -20.6590   25.3105 O   0  0  0  0  0  0  0  0  0  0  0  0
   12.2958  -18.7852   25.9627 C   0  0  0  0  0  0  0  0  0  0  0  0
   11.4480  -17.8526   25.1931 C   0  0  0  0  0  0  0  0  0  0  0  0
   10.3630  -17.1603   25.9340 C   0  0  2  0  0  0  0  0  0  0  0  0
    9.7039  -16.2325   24.9956 N   0  0  0  0  0  0  0  0  0  0  0  0
   10.6686  -16.4347   27.1490 C   0  0  0  0  0  0  0  0  0  0  0  0
   10.5681  -15.1755   27.2043 O   0  0  0  0  0  0  0  0  0  0  0  0
   11.0763  -17.0570   28.3151 O   0  0  0  0  0  0  0  0  0  0  0  0
  2  1  1  0
  2  4  1  0
  3  2  2  0
  4  5  1  0
  5  7  1  0
  5  6  1  6
  7  8  2  0
  9  7  1  0
  9 10  1  0
 10 13  1  0
 11 12  1  0
 10 11  1  6
 13 21  1  0
 14 13  2  0
 16 15  1  0
 17 16  2  0
 18 16  1  0
 19 18  1  0
 20 19  1  6
 21 20  1  0
 22 20  1  0
 22 24  1  0
 23 22  2  0
M  END
$$$$
