NCQ.pdb
     RDKit          3D

 24 23  0  0  1  0  0  0  0  0999 V2000
    7.2882  -19.8493   19.0966 N   0  0  0  0  0  0  0  0  0  0  0  0
    8.6906  -19.9092   19.2999 C   0  0  0  0  0  0  0  0  0  0  0  0
    9.3880  -20.6385   18.5548 O   0  0  0  0  0  0  0  0  0  0  0  0
    9.2967  -19.1079   20.3885 C   0  0  0  0  0  0  0  0  0  0  0  0
    9.2137  -17.6359   20.0257 C   0  0  2  0  0  0  0  0  0  0  0  0
   10.1532  -17.3939   18.9676 N   0  0  0  0  0  0  0  0  0  0  0  0
    9.5053  -16.7716   21.1921 C   0  0  0  0  0  0  0  0  0  0  0  0
   10.6720  -16.7276   21.6727 O   0  0  0  0  0  0  0  0  0  0  0  0
    8.5309  -15.9580   21.8333 N   0  0  0  0  0  0  0  0  0  0  0  0
    8.7967  -15.1551   22.9880 C   0  0  1  0  0  0  0  0  0  0  0  0
    7.5917  -14.3894   23.4800 C   0  0  0  0  0  0  0  0  0  0  0  0
    7.9627  -13.4212   24.9663 S   0  0  0  0  0  0  0  0  0  0  0  0
    9.2811  -15.9722   24.1434 C   0  0  0  0  0  0  0  0  0  0  0  0
    8.5742  -16.9279   24.5550 O   0  0  0  0  0  0  0  0  0  0  0  0
    8.9170  -13.2905   27.9458 N   0  0  0  0  0  0  0  0  0  0  0  0
    9.9180  -13.9483   28.6963 C   0  0  0  0  0  0  0  0  0  0  0  0
   10.3104  -13.3759   29.7661 O   0  0  0  0  0  0  0  0  0  0  0  0
   10.5064  -15.2430   28.3025 C   0  0  0  0  0  0  0  0  0  0  0  0
    9.9432  -15.8831   27.0967 C   0  0  0  0  0  0  0  0  0  0  0  0
   10.9061  -16.3248   26.0560 C   0  0  2  0  0  0  0  0  0  0  0  0
   10.5014  -15.7029   24.7811 N   0  0  0  0  0  0  0  0  0  0  0  0
   11.1185  -17.7380   25.8233 C   0  0  0  0  0  0  0  0  0  0  0  0
   11.4800  -18.5098   26.7573 O   0  0  0  0  0  0  0  0  0  0  0  0
   10.9360  -18.3333   24.5881 O   0  0  0  0  0  0  0  0  0  0  0  0
  2  1  1  0
  2  4  1  0
  3  2  2  0
  4  5  1  0
  5  7  1  0
  5  6  1  6
  7  8  2  0
  9  7  1  0
  9 10  1  0
 10 13  1  0
 11 12  1  0
 10 11  1  1
 13 21  1  0
 14 13  2  0
 16 15  1  0
 17 16  2  0
 18 16  1  0
 19 18  1  0
 20 19  1  1
 21 20  1  0
 22 20  1  0
 22 24  1  0
 23 22  2  0
M  END
$$$$
