NRH.pdb
     RDKit          3D

 30 30  0  0  1  0  0  0  0  0999 V2000
   34.6053   -6.0803  -14.7787 N   0  0  0  0  0  0  0  0  0  0  0  0
   35.0860   -7.3755  -15.1074 C   0  0  0  0  0  0  0  0  0  0  0  0
   36.1911   -7.7221  -14.6170 O   0  0  0  0  0  0  0  0  0  0  0  0
   34.3066   -8.2643  -15.9903 C   0  0  0  0  0  0  0  0  0  0  0  0
   33.0199   -7.5291  -16.3801 C   0  0  2  0  0  0  0  0  0  0  0  0
   32.2591   -7.4005  -15.1398 N   0  0  0  0  0  0  0  0  0  0  0  0
   32.2424   -8.3095  -17.3780 C   0  0  0  0  0  0  0  0  0  0  0  0
   32.7821   -8.6530  -18.4611 O   0  0  0  0  0  0  0  0  0  0  0  0
   26.1184  -13.5956  -14.9654 N   0  0  0  0  0  0  0  0  0  0  0  0
   26.2826  -13.2683  -16.3322 C   0  0  0  0  0  0  0  0  0  0  0  0
   25.3808  -13.5583  -17.2270 N   0  0  0  0  0  0  0  0  0  0  0  0
   27.4415  -12.6007  -16.8311 N   0  0  0  0  0  0  0  0  0  0  0  0
   28.4886  -12.1725  -15.9665 C   0  0  0  0  0  0  0  0  0  0  0  0
   29.6608  -11.5346  -16.6980 C   0  0  0  0  0  0  0  0  0  0  0  0
   29.1514  -10.2694  -17.3170 C   0  0  0  0  0  0  0  0  0  0  0  0
   30.1368   -9.4884  -18.1309 C   0  0  2  0  0  0  0  0  0  0  0  0
   30.9038   -8.6800  -17.1445 N   0  0  0  0  0  0  0  0  0  0  0  0
   29.5394   -8.5310  -19.0852 C   0  0  0  0  0  0  0  0  0  0  0  0
   29.1509   -7.3846  -18.6512 O   0  0  0  0  0  0  0  0  0  0  0  0
   25.6066  -13.3026  -18.2121 N   0  0  0  0  0  0  0  0  0  0  0  0
   29.3592   -8.7799  -20.4771 C   0  0  1  0  0  0  0  0  0  0  0  0
   28.8685   -7.7111  -21.3390 C   0  0  0  0  0  0  0  0  0  0  0  0
   29.7486   -6.5001  -21.1957 C   0  0  0  0  0  0  0  0  0  0  0  0
   29.3980   -5.4236  -22.1394 C   0  0  0  0  0  0  0  0  0  0  0  0
   30.1136   -4.2621  -22.3922 N   0  0  0  0  0  0  0  0  0  0  0  0
   29.4643   -3.5232  -23.3080 C   0  0  0  0  0  0  0  0  0  0  0  0
   28.3503   -4.1951  -23.6398 N   0  0  0  0  0  0  0  0  0  0  0  0
   28.3019   -5.3358  -22.9442 C   0  0  0  0  0  0  0  0  0  0  0  0
   28.8210   -8.1791  -22.7384 O   0  0  0  0  0  0  0  0  0  0  0  0
   28.2967   -7.3508  -23.7168 O   0  0  0  0  0  0  0  0  0  0  0  0
  2  1  1  0
  3  2  2  0
  4  2  1  0
  4  5  1  0
  5  6  1  1
  7  5  1  0
  7  8  2  0
 10 12  1  0
 10  9  1  0
 11 10  2  0
 13 14  1  0
 13 12  1  0
 14 15  1  0
 16 15  1  1
 16 17  1  0
 17  7  1  0
 18 16  1  0
 19 18  2  0
 20 18  1  0
 21 28  1  0
 21 20  1  0
 21 22  1  6
 23 22  1  0
 24 23  2  0
 25 24  1  0
 26 25  1  0
 26 27  2  0
 27 23  1  0
 28 29  1  0
 30 28  2  0
M  END
$$$$
