NRH.pdb
     RDKit          3D

 30 30  0  0  1  0  0  0  0  0999 V2000
   29.2166  -11.8744  -16.4796 N   0  0  0  0  0  0  0  0  0  0  0  0
   27.8717  -12.1883  -16.1491 C   0  0  0  0  0  0  0  0  0  0  0  0
   27.6693  -13.2471  -15.5010 O   0  0  0  0  0  0  0  0  0  0  0  0
   26.7698  -11.2965  -16.5582 C   0  0  0  0  0  0  0  0  0  0  0  0
   25.6672  -12.1640  -17.1746 C   0  0  2  0  0  0  0  0  0  0  0  0
   26.2382  -12.6911  -18.4115 N   0  0  0  0  0  0  0  0  0  0  0  0
   24.4577  -11.3538  -17.4746 C   0  0  0  0  0  0  0  0  0  0  0  0
   24.3450  -10.7891  -18.5929 O   0  0  0  0  0  0  0  0  0  0  0  0
   17.1824  -11.5589  -13.6500 N   0  0  0  0  0  0  0  0  0  0  0  0
   16.6089  -11.3860  -14.9320 C   0  0  0  0  0  0  0  0  0  0  0  0
   15.3555  -11.0681  -15.0929 N   0  0  0  0  0  0  0  0  0  0  0  0
   17.3551  -11.5468  -16.1382 N   0  0  0  0  0  0  0  0  0  0  0  0
   18.7250  -11.9346  -16.1244 C   0  0  0  0  0  0  0  0  0  0  0  0
   19.6804  -10.8116  -16.5015 C   0  0  0  0  0  0  0  0  0  0  0  0
   21.0585  -11.3979  -16.5139 C   0  0  0  0  0  0  0  0  0  0  0  0
   22.1726  -10.4606  -16.8657 C   0  0  2  0  0  0  0  0  0  0  0  0
   23.4220  -11.1975  -16.5329 N   0  0  0  0  0  0  0  0  0  0  0  0
   22.2037   -9.2062  -16.0849 C   0  0  0  0  0  0  0  0  0  0  0  0
   22.3670   -9.2732  -14.8112 O   0  0  0  0  0  0  0  0  0  0  0  0
   15.0240  -10.9740  -16.0768 N   0  0  0  0  0  0  0  0  0  0  0  0
   22.0684   -7.9013  -16.6423 C   0  0  2  0  0  0  0  0  0  0  0  0
   21.8885   -6.7579  -15.7555 C   0  0  0  0  0  0  0  0  0  0  0  0
   22.0116   -5.4821  -16.5421 C   0  0  0  0  0  0  0  0  0  0  0  0
   21.8006   -4.2791  -15.7171 C   0  0  0  0  0  0  0  0  0  0  0  0
   22.4376   -3.9536  -14.5283 N   0  0  0  0  0  0  0  0  0  0  0  0
   21.9654   -2.7815  -14.0704 C   0  0  0  0  0  0  0  0  0  0  0  0
   21.0409   -2.3586  -14.9473 N   0  0  0  0  0  0  0  0  0  0  0  0
   20.9352   -3.2500  -15.9380 C   0  0  0  0  0  0  0  0  0  0  0  0
   20.5786   -6.8496  -15.0807 O   0  0  0  0  0  0  0  0  0  0  0  0
   20.4956   -6.6134  -13.7185 O   0  0  0  0  0  0  0  0  0  0  0  0
  2  1  1  0
  3  2  2  0
  4  2  1  0
  4  5  1  0
  5  6  1  6
  7  5  1  0
  7  8  2  0
 10 12  1  0
 10  9  1  0
 11 10  2  0
 13 14  1  0
 13 12  1  0
 14 15  1  0
 16 15  1  1
 16 17  1  0
 17  7  1  0
 18 16  1  0
 19 18  2  0
 20 18  1  0
 21 28  1  0
 21 20  1  0
 21 22  1  6
 23 22  1  0
 24 23  2  0
 25 24  1  0
 26 25  1  0
 26 27  2  0
 27 23  1  0
 28 29  1  0
 30 28  2  0
M  END
$$$$
