NRH.pdb
     RDKit          3D

 30 30  0  0  1  0  0  0  0  0999 V2000
   27.5953  -22.3074  -16.5253 N   0  0  0  0  0  0  0  0  0  0  0  0
   27.7828  -20.9262  -16.2541 C   0  0  0  0  0  0  0  0  0  0  0  0
   28.8731  -20.4111  -16.6118 O   0  0  0  0  0  0  0  0  0  0  0  0
   26.7300  -20.1435  -15.5789 C   0  0  0  0  0  0  0  0  0  0  0  0
   25.6388  -21.1181  -15.1235 C   0  0  2  0  0  0  0  0  0  0  0  0
   24.9345  -21.5050  -16.3434 N   0  0  0  0  0  0  0  0  0  0  0  0
   24.6993  -20.4611  -14.1775 C   0  0  0  0  0  0  0  0  0  0  0  0
   25.1074  -20.0913  -13.0466 O   0  0  0  0  0  0  0  0  0  0  0  0
   20.6621  -16.8057  -19.2108 N   0  0  0  0  0  0  0  0  0  0  0  0
   19.7507  -17.6869  -18.5821 C   0  0  0  0  0  0  0  0  0  0  0  0
   18.7597  -18.2343  -19.2273 N   0  0  0  0  0  0  0  0  0  0  0  0
   19.8469  -18.0397  -17.2023 N   0  0  0  0  0  0  0  0  0  0  0  0
   20.9059  -17.5609  -16.3797 C   0  0  0  0  0  0  0  0  0  0  0  0
   21.7811  -18.6667  -15.8077 C   0  0  0  0  0  0  0  0  0  0  0  0
   21.6324  -18.6132  -14.3182 C   0  0  0  0  0  0  0  0  0  0  0  0
   22.3942  -19.6419  -13.5405 C   0  0  2  0  0  0  0  0  0  0  0  0
   23.3498  -20.2378  -14.5134 N   0  0  0  0  0  0  0  0  0  0  0  0
   21.5795  -20.7572  -13.0145 C   0  0  0  0  0  0  0  0  0  0  0  0
   21.1704  -21.6636  -13.8296 O   0  0  0  0  0  0  0  0  0  0  0  0
   18.1498  -18.8784  -18.6795 N   0  0  0  0  0  0  0  0  0  0  0  0
   21.2066  -20.9140  -11.6477 C   0  0  2  0  0  0  0  0  0  0  0  0
   20.3807  -22.0499  -11.2556 C   0  0  0  0  0  0  0  0  0  0  0  0
   20.4137  -22.2082   -9.7604 C   0  0  0  0  0  0  0  0  0  0  0  0
   19.5060  -23.2641   -9.2772 C   0  0  0  0  0  0  0  0  0  0  0  0
   18.6082  -24.0087  -10.0285 N   0  0  0  0  0  0  0  0  0  0  0  0
   17.9511  -24.8645   -9.2272 C   0  0  0  0  0  0  0  0  0  0  0  0
   18.4161  -24.6757   -7.9820 N   0  0  0  0  0  0  0  0  0  0  0  0
   19.3487  -23.7181   -8.0020 C   0  0  0  0  0  0  0  0  0  0  0  0
   19.0015  -21.8584  -11.7459 O   0  0  0  0  0  0  0  0  0  0  0  0
   18.2927  -22.9455  -12.2295 O   0  0  0  0  0  0  0  0  0  0  0  0
  2  1  1  0
  3  2  2  0
  4  2  1  0
  4  5  1  0
  5  6  1  6
  7  5  1  0
  7  8  2  0
 10 12  1  0
 10  9  1  0
 11 10  2  0
 13 14  1  0
 13 12  1  0
 14 15  1  0
 16 15  1  6
 16 17  1  0
 17  7  1  0
 18 16  1  0
 19 18  2  0
 20 18  1  0
 21 28  1  0
 21 20  1  0
 21 22  1  1
 23 22  1  0
 24 23  2  0
 25 24  1  0
 26 25  1  0
 26 27  2  0
 27 23  1  0
 28 29  1  0
 30 28  2  0
M  END
$$$$
