NRH.pdb
     RDKit          3D

 30 30  0  0  1  0  0  0  0  0999 V2000
   27.9065  -18.1738  -19.4637 N   0  0  0  0  0  0  0  0  0  0  0  0
   26.5038  -17.9801  -19.3577 C   0  0  0  0  0  0  0  0  0  0  0  0
   26.0127  -16.9848  -19.9495 O   0  0  0  0  0  0  0  0  0  0  0  0
   25.6724  -18.9189  -18.5802 C   0  0  0  0  0  0  0  0  0  0  0  0
   26.6048  -19.9521  -17.9388 C   0  0  2  0  0  0  0  0  0  0  0  0
   26.9124  -20.9055  -19.0019 N   0  0  0  0  0  0  0  0  0  0  0  0
   25.9333  -20.6458  -16.8087 C   0  0  0  0  0  0  0  0  0  0  0  0
   25.0683  -21.5287  -17.0422 O   0  0  0  0  0  0  0  0  0  0  0  0
   23.8943  -20.3607   -9.6336 N   0  0  0  0  0  0  0  0  0  0  0  0
   24.9685  -20.8986   -8.8860 C   0  0  0  0  0  0  0  0  0  0  0  0
   24.8169  -21.3245   -7.6638 N   0  0  0  0  0  0  0  0  0  0  0  0
   26.2912  -21.0136   -9.4103 N   0  0  0  0  0  0  0  0  0  0  0  0
   26.6251  -20.5361  -10.7095 C   0  0  0  0  0  0  0  0  0  0  0  0
   25.6972  -21.0452  -11.8031 C   0  0  0  0  0  0  0  0  0  0  0  0
   26.2481  -20.5525  -13.1059 C   0  0  0  0  0  0  0  0  0  0  0  0
   25.5120  -20.9791  -14.3385 C   0  0  2  0  0  0  0  0  0  0  0  0
   26.2401  -20.3404  -15.4684 N   0  0  0  0  0  0  0  0  0  0  0  0
   24.1122  -20.5128  -14.4233 C   0  0  0  0  0  0  0  0  0  0  0  0
   23.8865  -19.2778  -14.7012 O   0  0  0  0  0  0  0  0  0  0  0  0
   25.6776  -21.6584   -7.1795 N   0  0  0  0  0  0  0  0  0  0  0  0
   22.9689  -21.3398  -14.2214 C   0  0  1  0  0  0  0  0  0  0  0  0
   21.6388  -20.7990  -14.4757 C   0  0  0  0  0  0  0  0  0  0  0  0
   21.4913  -20.4836  -15.9387 C   0  0  0  0  0  0  0  0  0  0  0  0
   21.3332  -19.0416  -16.1996 C   0  0  0  0  0  0  0  0  0  0  0  0
   21.2564  -18.0218  -15.2619 N   0  0  0  0  0  0  0  0  0  0  0  0
   21.1014  -16.8435  -15.8894 C   0  0  0  0  0  0  0  0  0  0  0  0
   21.0784  -17.0981  -17.2074 N   0  0  0  0  0  0  0  0  0  0  0  0
   21.2167  -18.4133  -17.4031 C   0  0  0  0  0  0  0  0  0  0  0  0
   20.6134  -21.7616  -14.0269 O   0  0  0  0  0  0  0  0  0  0  0  0
   19.3523  -21.3035  -13.6834 O   0  0  0  0  0  0  0  0  0  0  0  0
  2  1  1  0
  3  2  2  0
  4  2  1  0
  4  5  1  0
  5  6  1  6
  7  5  1  0
  7  8  2  0
 10 12  1  0
 10  9  1  0
 11 10  2  0
 13 14  1  0
 13 12  1  0
 14 15  1  0
 16 15  1  1
 16 17  1  0
 17  7  1  0
 18 16  1  0
 19 18  2  0
 20 18  1  0
 21 28  1  0
 21 20  1  0
 21 22  1  1
 23 22  1  0
 24 23  2  0
 25 24  1  0
 26 25  1  0
 26 27  2  0
 27 23  1  0
 28 29  1  0
 30 28  2  0
M  END
$$$$
