NRH.pdb
     RDKit          3D

 30 30  0  0  1  0  0  0  0  0999 V2000
   41.9789  -12.7661  -15.2030 N   0  0  0  0  0  0  0  0  0  0  0  0
   41.7536  -13.7994  -14.2553 C   0  0  0  0  0  0  0  0  0  0  0  0
   41.5802  -14.9627  -14.7009 O   0  0  0  0  0  0  0  0  0  0  0  0
   41.7272  -13.5011  -12.8106 C   0  0  0  0  0  0  0  0  0  0  0  0
   42.1158  -12.0302  -12.6272 C   0  0  2  0  0  0  0  0  0  0  0  0
   43.5727  -12.0011  -12.7298 N   0  0  0  0  0  0  0  0  0  0  0  0
   41.6871  -11.5285  -11.2954 C   0  0  0  0  0  0  0  0  0  0  0  0
   40.4675  -11.5352  -10.9876 O   0  0  0  0  0  0  0  0  0  0  0  0
   47.6269  -11.4410   -5.1710 N   0  0  0  0  0  0  0  0  0  0  0  0
   47.1967  -12.6390   -5.7890 C   0  0  0  0  0  0  0  0  0  0  0  0
   47.8771  -13.7468   -5.7009 N   0  0  0  0  0  0  0  0  0  0  0  0
   45.9930  -12.7238   -6.5516 N   0  0  0  0  0  0  0  0  0  0  0  0
   45.3032  -11.5589   -6.9927 C   0  0  0  0  0  0  0  0  0  0  0  0
   44.0560  -11.8619   -7.8105 C   0  0  0  0  0  0  0  0  0  0  0  0
   43.4560  -10.5443   -8.1942 C   0  0  0  0  0  0  0  0  0  0  0  0
   42.1939  -10.6019   -8.9987 C   0  0  2  0  0  0  0  0  0  0  0  0
   42.6166  -11.0398  -10.3567 N   0  0  0  0  0  0  0  0  0  0  0  0
   41.5030   -9.3068   -9.1707 C   0  0  0  0  0  0  0  0  0  0  0  0
   41.9737   -8.4612  -10.0173 O   0  0  0  0  0  0  0  0  0  0  0  0
   47.4588  -14.5851   -6.1582 N   0  0  0  0  0  0  0  0  0  0  0  0
   40.3305   -8.9135   -8.4618 C   0  0  2  0  0  0  0  0  0  0  0  0
   39.7965   -7.5696   -8.6490 C   0  0  0  0  0  0  0  0  0  0  0  0
   38.3040   -7.5874   -8.4658 C   0  0  0  0  0  0  0  0  0  0  0  0
   37.6978   -6.2488   -8.5807 C   0  0  0  0  0  0  0  0  0  0  0  0
   37.7499   -5.3941   -9.6725 N   0  0  0  0  0  0  0  0  0  0  0  0
   37.0872   -4.2598   -9.3886 C   0  0  0  0  0  0  0  0  0  0  0  0
   36.6165   -4.3801   -8.1370 N   0  0  0  0  0  0  0  0  0  0  0  0
   36.9776   -5.5694   -7.6445 C   0  0  0  0  0  0  0  0  0  0  0  0
   40.4435   -6.6382   -7.7038 O   0  0  0  0  0  0  0  0  0  0  0  0
   40.8302   -5.3823   -8.1413 O   0  0  0  0  0  0  0  0  0  0  0  0
  2  1  1  0
  3  2  2  0
  4  2  1  0
  4  5  1  0
  5  6  1  1
  7  5  1  0
  7  8  2  0
 10 12  1  0
 10  9  1  0
 11 10  2  0
 13 14  1  0
 13 12  1  0
 14 15  1  0
 16 15  1  1
 16 17  1  0
 17  7  1  0
 18 16  1  0
 19 18  2  0
 20 18  1  0
 21 28  1  0
 21 20  1  0
 21 22  1  1
 23 22  1  0
 24 23  2  0
 25 24  1  0
 26 25  1  0
 26 27  2  0
 27 23  1  0
 28 29  1  0
 30 28  2  0
M  END
$$$$
