NRH.pdb
     RDKit          3D

 30 30  0  0  1  0  0  0  0  0999 V2000
   17.7233  -11.2973  -17.6132 N   0  0  0  0  0  0  0  0  0  0  0  0
   17.4446   -9.9511  -17.2572 C   0  0  0  0  0  0  0  0  0  0  0  0
   16.4702   -9.3943  -17.8252 O   0  0  0  0  0  0  0  0  0  0  0  0
   18.2756   -9.2505  -16.2595 C   0  0  0  0  0  0  0  0  0  0  0  0
   19.3186  -10.2435  -15.7359 C   0  0  2  0  0  0  0  0  0  0  0  0
   18.6558  -10.9616  -14.6503 N   0  0  0  0  0  0  0  0  0  0  0  0
   20.5184   -9.5330  -15.2211 C   0  0  0  0  0  0  0  0  0  0  0  0
   20.5222   -9.0823  -14.0467 O   0  0  0  0  0  0  0  0  0  0  0  0
   28.5164  -11.8894  -17.1848 N   0  0  0  0  0  0  0  0  0  0  0  0
   27.7344  -12.0721  -16.0197 C   0  0  0  0  0  0  0  0  0  0  0  0
   27.8438  -13.1336  -15.2717 N   0  0  0  0  0  0  0  0  0  0  0  0
   26.7723  -11.1142  -15.5790 N   0  0  0  0  0  0  0  0  0  0  0  0
   26.3743  -10.0213  -16.4003 C   0  0  0  0  0  0  0  0  0  0  0  0
   25.4100   -9.0636  -15.7154 C   0  0  0  0  0  0  0  0  0  0  0  0
   24.0265   -9.5647  -15.9949 C   0  0  0  0  0  0  0  0  0  0  0  0
   22.9014   -8.7269  -15.4701 C   0  0  2  0  0  0  0  0  0  0  0  0
   21.6646   -9.3471  -16.0182 N   0  0  0  0  0  0  0  0  0  0  0  0
   22.9041   -7.3210  -15.9255 C   0  0  0  0  0  0  0  0  0  0  0  0
   22.6454   -7.0691  -17.1597 O   0  0  0  0  0  0  0  0  0  0  0  0
   27.2002  -13.1921  -14.4536 N   0  0  0  0  0  0  0  0  0  0  0  0
   23.1721   -6.1986  -15.0887 C   0  0  2  0  0  0  0  0  0  0  0  0
   23.0755   -4.8527  -15.6414 C   0  0  0  0  0  0  0  0  0  0  0  0
   22.4272   -3.9384  -14.6388 C   0  0  0  0  0  0  0  0  0  0  0  0
   20.9626   -4.0943  -14.5861 C   0  0  0  0  0  0  0  0  0  0  0  0
   20.1774   -4.9247  -15.3729 N   0  0  0  0  0  0  0  0  0  0  0  0
   18.8853   -4.7767  -15.0341 C   0  0  0  0  0  0  0  0  0  0  0  0
   18.8374   -3.8678  -14.0472 N   0  0  0  0  0  0  0  0  0  0  0  0
   20.0781   -3.4529  -13.7718 C   0  0  0  0  0  0  0  0  0  0  0  0
   24.4183   -4.3701  -16.0202 O   0  0  0  0  0  0  0  0  0  0  0  0
   24.5543   -3.1217  -16.6042 O   0  0  0  0  0  0  0  0  0  0  0  0
  2  1  1  0
  3  2  2  0
  4  2  1  0
  4  5  1  0
  5  6  1  1
  7  5  1  0
  7  8  2  0
 10 12  1  0
 10  9  1  0
 11 10  2  0
 13 14  1  0
 13 12  1  0
 14 15  1  0
 16 15  1  6
 16 17  1  0
 17  7  1  0
 18 16  1  0
 19 18  2  0
 20 18  1  0
 21 28  1  0
 21 20  1  0
 21 22  1  6
 23 22  1  0
 24 23  2  0
 25 24  1  0
 26 25  1  0
 26 27  2  0
 27 23  1  0
 28 29  1  0
 30 28  2  0
M  END
$$$$
