NRH.pdb
     RDKit          3D

 30 30  0  0  1  0  0  0  0  0999 V2000
   19.1557  -24.2319  -11.1480 N   0  0  0  0  0  0  0  0  0  0  0  0
   18.4773  -23.2247  -11.8840 C   0  0  0  0  0  0  0  0  0  0  0  0
   17.2561  -23.4084  -12.1224 O   0  0  0  0  0  0  0  0  0  0  0  0
   19.1929  -22.0184  -12.3422 C   0  0  0  0  0  0  0  0  0  0  0  0
   20.6671  -22.1701  -11.9526 C   0  0  2  0  0  0  0  0  0  0  0  0
   20.6964  -22.0391  -10.4980 N   0  0  0  0  0  0  0  0  0  0  0  0
   21.4951  -21.1062  -12.5784 C   0  0  0  0  0  0  0  0  0  0  0  0
   21.1164  -19.9077  -12.5271 O   0  0  0  0  0  0  0  0  0  0  0  0
   29.2260  -22.8347  -15.9536 N   0  0  0  0  0  0  0  0  0  0  0  0
   27.9886  -22.8338  -16.6400 C   0  0  0  0  0  0  0  0  0  0  0  0
   27.7608  -23.6145  -17.6581 N   0  0  0  0  0  0  0  0  0  0  0  0
   26.9037  -21.9823  -16.2719 N   0  0  0  0  0  0  0  0  0  0  0  0
   27.0268  -21.0228  -15.2272 C   0  0  0  0  0  0  0  0  0  0  0  0
   25.7803  -20.1720  -15.0308 C   0  0  0  0  0  0  0  0  0  0  0  0
   24.8312  -20.9763  -14.1966 C   0  0  0  0  0  0  0  0  0  0  0  0
   23.5026  -20.3454  -13.9132 C   0  0  2  0  0  0  0  0  0  0  0  0
   22.7052  -21.4033  -13.2350 N   0  0  0  0  0  0  0  0  0  0  0  0
   22.7345  -19.9421  -15.1096 C   0  0  0  0  0  0  0  0  0  0  0  0
   22.2056  -20.8561  -15.8434 O   0  0  0  0  0  0  0  0  0  0  0  0
   26.8088  -23.5603  -18.0795 N   0  0  0  0  0  0  0  0  0  0  0  0
   22.5253  -18.5937  -15.5217 C   0  0  2  0  0  0  0  0  0  0  0  0
   21.7304  -18.3233  -16.7139 C   0  0  0  0  0  0  0  0  0  0  0  0
   21.2595  -16.8952  -16.6958 C   0  0  0  0  0  0  0  0  0  0  0  0
   20.4428  -16.5476  -17.8725 C   0  0  0  0  0  0  0  0  0  0  0  0
   19.6139  -17.3908  -18.5985 N   0  0  0  0  0  0  0  0  0  0  0  0
   19.0485  -16.7072  -19.6080 C   0  0  0  0  0  0  0  0  0  0  0  0
   19.5040  -15.4463  -19.5350 N   0  0  0  0  0  0  0  0  0  0  0  0
   20.3406  -15.3411  -18.4976 C   0  0  0  0  0  0  0  0  0  0  0  0
   22.5276  -18.6117  -17.9225 O   0  0  0  0  0  0  0  0  0  0  0  0
   23.7636  -18.0079  -18.0840 O   0  0  0  0  0  0  0  0  0  0  0  0
  2  1  1  0
  3  2  2  0
  4  2  1  0
  4  5  1  0
  5  6  1  1
  7  5  1  0
  7  8  2  0
 10 12  1  0
 10  9  1  0
 11 10  2  0
 13 14  1  0
 13 12  1  0
 14 15  1  0
 16 15  1  6
 16 17  1  0
 17  7  1  0
 18 16  1  0
 19 18  2  0
 20 18  1  0
 21 28  1  0
 21 20  1  0
 21 22  1  1
 23 22  1  0
 24 23  2  0
 25 24  1  0
 26 25  1  0
 26 27  2  0
 27 23  1  0
 28 29  1  0
 30 28  2  0
M  END
$$$$
