NRH.pdb
     RDKit          3D

 30 30  0  0  1  0  0  0  0  0999 V2000
   25.5248  -18.3536  -21.0863 N   0  0  0  0  0  0  0  0  0  0  0  0
   25.7217  -19.7478  -20.9016 C   0  0  0  0  0  0  0  0  0  0  0  0
   26.2492  -20.3861  -21.8483 O   0  0  0  0  0  0  0  0  0  0  0  0
   25.3172  -20.4034  -19.6432 C   0  0  0  0  0  0  0  0  0  0  0  0
   24.6073  -19.3584  -18.7759 C   0  0  2  0  0  0  0  0  0  0  0  0
   25.6346  -18.3765  -18.4377 N   0  0  0  0  0  0  0  0  0  0  0  0
   24.0626  -19.9752  -17.5381 C   0  0  0  0  0  0  0  0  0  0  0  0
   23.2975  -20.9704  -17.6199 O   0  0  0  0  0  0  0  0  0  0  0  0
   25.9968  -21.9577  -10.1723 N   0  0  0  0  0  0  0  0  0  0  0  0
   26.8866  -21.3795  -11.1085 C   0  0  0  0  0  0  0  0  0  0  0  0
   28.0194  -21.9404  -11.4250 N   0  0  0  0  0  0  0  0  0  0  0  0
   26.6126  -20.1457  -11.7719 N   0  0  0  0  0  0  0  0  0  0  0  0
   25.3765  -19.4609  -11.5977 C   0  0  0  0  0  0  0  0  0  0  0  0
   24.2753  -19.9438  -12.5307 C   0  0  0  0  0  0  0  0  0  0  0  0
   24.7519  -19.7001  -13.9296 C   0  0  0  0  0  0  0  0  0  0  0  0
   23.7974  -20.0618  -15.0256 C   0  0  2  0  0  0  0  0  0  0  0  0
   24.3810  -19.4728  -16.2614 N   0  0  0  0  0  0  0  0  0  0  0  0
   22.4415  -19.4903  -14.8873 C   0  0  0  0  0  0  0  0  0  0  0  0
   22.2310  -18.2890  -15.2949 O   0  0  0  0  0  0  0  0  0  0  0  0
   28.6341  -21.4073  -12.0768 N   0  0  0  0  0  0  0  0  0  0  0  0
   21.3247  -20.1792  -14.3305 C   0  0  1  0  0  0  0  0  0  0  0  0
   20.0075  -19.5545  -14.3639 C   0  0  0  0  0  0  0  0  0  0  0  0
   19.5916  -19.3250  -15.7908 C   0  0  0  0  0  0  0  0  0  0  0  0
   18.2367  -18.7568  -15.9070 C   0  0  0  0  0  0  0  0  0  0  0  0
   17.0729  -19.4252  -16.2591 N   0  0  0  0  0  0  0  0  0  0  0  0
   16.0425  -18.5623  -16.2668 C   0  0  0  0  0  0  0  0  0  0  0  0
   16.5322  -17.3595  -15.9263 N   0  0  0  0  0  0  0  0  0  0  0  0
   17.8469  -17.4662  -15.7086 C   0  0  0  0  0  0  0  0  0  0  0  0
   19.0333  -20.4030  -13.6494 O   0  0  0  0  0  0  0  0  0  0  0  0
   17.8582  -19.8424  -13.1775 O   0  0  0  0  0  0  0  0  0  0  0  0
  2  1  1  0
  3  2  2  0
  4  2  1  0
  4  5  1  0
  5  6  1  1
  7  5  1  0
  7  8  2  0
 10 12  1  0
 10  9  1  0
 11 10  2  0
 13 14  1  0
 13 12  1  0
 14 15  1  0
 16 15  1  1
 16 17  1  0
 17  7  1  0
 18 16  1  0
 19 18  2  0
 20 18  1  0
 21 28  1  0
 21 20  1  0
 21 22  1  1
 23 22  1  0
 24 23  2  0
 25 24  1  0
 26 25  1  0
 26 27  2  0
 27 23  1  0
 28 29  1  0
 30 28  2  0
M  END
$$$$
