NRH.pdb
     RDKit          3D

 30 30  0  0  1  0  0  0  0  0999 V2000
   27.6485  -23.3655  -17.5369 N   0  0  0  0  0  0  0  0  0  0  0  0
   26.5632  -22.4727  -17.7409 C   0  0  0  0  0  0  0  0  0  0  0  0
   26.5507  -21.8158  -18.8135 O   0  0  0  0  0  0  0  0  0  0  0  0
   25.5028  -22.3345  -16.7244 C   0  0  0  0  0  0  0  0  0  0  0  0
   25.9060  -23.1740  -15.5075 C   0  0  2  0  0  0  0  0  0  0  0  0
   25.6157  -24.5563  -15.8799 N   0  0  0  0  0  0  0  0  0  0  0  0
   25.1137  -22.7901  -14.3100 C   0  0  0  0  0  0  0  0  0  0  0  0
   23.9615  -23.2668  -14.1434 O   0  0  0  0  0  0  0  0  0  0  0  0
   30.0083  -21.7568   -8.9758 N   0  0  0  0  0  0  0  0  0  0  0  0
   29.6686  -20.9549  -10.0912 C   0  0  0  0  0  0  0  0  0  0  0  0
   30.4749  -20.7984  -11.1028 N   0  0  0  0  0  0  0  0  0  0  0  0
   28.4255  -20.2605  -10.1912 N   0  0  0  0  0  0  0  0  0  0  0  0
   27.2813  -20.6636   -9.4458 C   0  0  0  0  0  0  0  0  0  0  0  0
   26.3257  -21.5523  -10.2289 C   0  0  0  0  0  0  0  0  0  0  0  0
   25.7171  -20.7002  -11.2998 C   0  0  0  0  0  0  0  0  0  0  0  0
   24.7705  -21.3886  -12.2342 C   0  0  2  0  0  0  0  0  0  0  0  0
   25.6201  -21.8980  -13.3449 N   0  0  0  0  0  0  0  0  0  0  0  0
   23.7532  -20.5119  -12.8512 C   0  0  0  0  0  0  0  0  0  0  0  0
   24.1337  -19.4147  -13.4033 O   0  0  0  0  0  0  0  0  0  0  0  0
   30.1276  -20.2017  -11.8840 N   0  0  0  0  0  0  0  0  0  0  0  0
   22.3562  -20.7925  -12.8874 C   0  0  1  0  0  0  0  0  0  0  0  0
   21.4424  -19.8112  -13.4603 C   0  0  0  0  0  0  0  0  0  0  0  0
   21.2515  -20.0912  -14.9254 C   0  0  0  0  0  0  0  0  0  0  0  0
   20.2943  -19.1699  -15.5637 C   0  0  0  0  0  0  0  0  0  0  0  0
   20.4820  -17.8235  -15.8414 N   0  0  0  0  0  0  0  0  0  0  0  0
   19.3748  -17.3235  -16.4162 C   0  0  0  0  0  0  0  0  0  0  0  0
   18.4891  -18.3282  -16.5075 N   0  0  0  0  0  0  0  0  0  0  0  0
   19.0314  -19.4393  -15.9989 C   0  0  0  0  0  0  0  0  0  0  0  0
   20.1569  -19.8415  -12.7348 O   0  0  0  0  0  0  0  0  0  0  0  0
   19.3252  -18.7349  -12.7750 O   0  0  0  0  0  0  0  0  0  0  0  0
  2  1  1  0
  3  2  2  0
  4  2  1  0
  4  5  1  0
  5  6  1  6
  7  5  1  0
  7  8  2  0
 10 12  1  0
 10  9  1  0
 11 10  2  0
 13 14  1  0
 13 12  1  0
 14 15  1  0
 16 15  1  1
 16 17  1  0
 17  7  1  0
 18 16  1  0
 19 18  2  0
 20 18  1  0
 21 28  1  0
 21 20  1  0
 21 22  1  1
 23 22  1  0
 24 23  2  0
 25 24  1  0
 26 25  1  0
 26 27  2  0
 27 23  1  0
 28 29  1  0
 30 28  2  0
M  END
$$$$
