MTM.pdb
     RDKit          3D

 24 23  0  0  1  0  0  0  0  0999 V2000
    7.8932  -11.7756   18.9542 C   0  0  0  0  0  0  0  0  0  0  0  0
    7.2880  -12.3534   20.5248 S   0  0  0  0  0  0  0  0  0  0  0  0
    7.2058  -14.0955   20.7864 C   0  0  0  0  0  0  0  0  0  0  0  0
    8.2580  -14.9323   20.1845 C   0  0  0  0  0  0  0  0  0  0  0  0
    8.2448  -16.3926   20.3621 C   0  0  2  0  0  0  0  0  0  0  0  0
    7.1049  -17.1058   19.8740 N   0  0  0  0  0  0  0  0  0  0  0  0
    8.4236  -16.7973   21.8027 C   0  0  0  0  0  0  0  0  0  0  0  0
    7.4442  -17.1107   22.5336 O   0  0  0  0  0  0  0  0  0  0  0  0
   10.9883  -19.3424   23.1675 C   0  0  0  0  0  0  0  0  0  0  0  0
   11.0987  -18.0612   23.9793 C   0  0  1  0  0  0  0  0  0  0  0  0
   12.2198  -17.3206   23.6245 O   0  0  0  0  0  0  0  0  0  0  0  0
    9.8393  -17.2108   23.7732 C   0  0  2  0  0  0  0  0  0  0  0  0
    9.7125  -16.8427   22.4012 N   0  0  0  0  0  0  0  0  0  0  0  0
    9.9499  -16.0558   24.6888 C   0  0  0  0  0  0  0  0  0  0  0  0
   10.5538  -14.9885   24.4320 O   0  0  0  0  0  0  0  0  0  0  0  0
    7.1978  -10.9822   27.3915 C   0  0  0  0  0  0  0  0  0  0  0  0
    6.6118  -12.4430   26.4583 S   0  0  0  0  0  0  0  0  0  0  0  0
    8.0213  -13.5352   26.0713 C   0  0  0  0  0  0  0  0  0  0  0  0
    8.2637  -14.4564   27.2326 C   0  0  0  0  0  0  0  0  0  0  0  0
    9.5529  -15.2260   27.0356 C   0  0  2  0  0  0  0  0  0  0  0  0
    9.3216  -16.1663   25.9589 N   0  0  0  0  0  0  0  0  0  0  0  0
   10.0126  -15.8607   28.2650 C   0  0  0  0  0  0  0  0  0  0  0  0
   10.4260  -15.1786   29.2275 O   0  0  0  0  0  0  0  0  0  0  0  0
    9.9985  -17.2358   28.3861 O   0  0  0  0  0  0  0  0  0  0  0  0
  1  2  1  0
  2  3  1  0
  4  3  1  0
  5  4  1  0
  5  6  1  1
  7  5  1  0
  7  8  2  0
 10  9  1  6
 10 12  1  0
 11 10  1  0
 12 13  1  6
 13  7  1  0
 14 12  1  0
 15 14  2  0
 16 17  1  0
 17 18  1  0
 18 19  1  0
 20 19  1  1
 20 21  1  0
 20 22  1  0
 21 14  1  0
 22 24  1  0
 23 22  2  0
M  END
$$$$
