MTM.pdb
     RDKit          3D

 24 23  0  0  1  0  0  0  0  0999 V2000
    9.7871  -11.8779   19.2278 C   0  0  0  0  0  0  0  0  0  0  0  0
    8.0765  -11.9832   19.7068 S   0  0  0  0  0  0  0  0  0  0  0  0
    7.2117  -13.4788   19.3525 C   0  0  0  0  0  0  0  0  0  0  0  0
    7.3646  -14.6017   20.2935 C   0  0  0  0  0  0  0  0  0  0  0  0
    8.1024  -15.8119   19.8998 C   0  0  2  0  0  0  0  0  0  0  0  0
    7.5810  -16.5762   18.8088 N   0  0  0  0  0  0  0  0  0  0  0  0
    8.2890  -16.7696   21.0482 C   0  0  0  0  0  0  0  0  0  0  0  0
    7.3139  -17.3586   21.5903 O   0  0  0  0  0  0  0  0  0  0  0  0
    9.8582  -19.9585   21.6346 C   0  0  0  0  0  0  0  0  0  0  0  0
   10.5537  -19.0194   22.6078 C   0  0  1  0  0  0  0  0  0  0  0  0
   11.8193  -18.6587   22.1615 O   0  0  0  0  0  0  0  0  0  0  0  0
    9.7031  -17.7584   22.8034 C   0  0  2  0  0  0  0  0  0  0  0  0
    9.5809  -17.0505   21.5715 N   0  0  0  0  0  0  0  0  0  0  0  0
   10.3463  -16.9724   23.8772 C   0  0  0  0  0  0  0  0  0  0  0  0
   11.1051  -15.9920   23.6963 O   0  0  0  0  0  0  0  0  0  0  0  0
   10.4706  -12.1777   28.9702 C   0  0  0  0  0  0  0  0  0  0  0  0
    9.3635  -13.5660   28.5283 S   0  0  0  0  0  0  0  0  0  0  0  0
   10.3559  -15.0404   28.1152 C   0  0  0  0  0  0  0  0  0  0  0  0
    9.7799  -15.6946   26.8919 C   0  0  0  0  0  0  0  0  0  0  0  0
   10.7309  -16.7452   26.3580 C   0  0  2  0  0  0  0  0  0  0  0  0
   10.0823  -17.3604   25.2188 N   0  0  0  0  0  0  0  0  0  0  0  0
   11.1278  -17.7046   27.3815 C   0  0  0  0  0  0  0  0  0  0  0  0
   10.5919  -18.8318   27.4516 O   0  0  0  0  0  0  0  0  0  0  0  0
   12.1093  -17.3805   28.2966 O   0  0  0  0  0  0  0  0  0  0  0  0
  1  2  1  0
  2  3  1  0
  4  3  1  0
  5  4  1  0
  5  6  1  6
  7  5  1  0
  7  8  2  0
 10  9  1  6
 10 12  1  0
 11 10  1  0
 12 13  1  6
 13  7  1  0
 14 12  1  0
 15 14  2  0
 16 17  1  0
 17 18  1  0
 18 19  1  0
 20 19  1  1
 20 21  1  0
 20 22  1  0
 21 14  1  0
 22 24  1  0
 23 22  2  0
M  END
$$$$
