MTM.pdb
     RDKit          3D

 24 23  0  0  1  0  0  0  0  0999 V2000
    8.4837  -11.5380   19.5172 C   0  0  0  0  0  0  0  0  0  0  0  0
    7.9864  -12.2846   17.9803 S   0  0  0  0  0  0  0  0  0  0  0  0
    8.0705  -14.0414   17.8519 C   0  0  0  0  0  0  0  0  0  0  0  0
    8.9078  -14.7634   18.8253 C   0  0  0  0  0  0  0  0  0  0  0  0
    8.9949  -16.2316   18.7928 C   0  0  2  0  0  0  0  0  0  0  0  0
    8.2054  -16.9173   17.8167 N   0  0  0  0  0  0  0  0  0  0  0  0
    8.6719  -16.8555   20.1259 C   0  0  0  0  0  0  0  0  0  0  0  0
    7.5073  -17.2449   20.4151 O   0  0  0  0  0  0  0  0  0  0  0  0
   10.1176  -19.7388   22.0695 C   0  0  0  0  0  0  0  0  0  0  0  0
   10.2264  -18.5128   22.9628 C   0  0  1  0  0  0  0  0  0  0  0  0
   11.5281  -18.0297   23.0196 O   0  0  0  0  0  0  0  0  0  0  0  0
    9.2957  -17.4113   22.4411 C   0  0  2  0  0  0  0  0  0  0  0  0
    9.6737  -17.0319   21.1194 N   0  0  0  0  0  0  0  0  0  0  0  0
    9.3582  -16.3027   23.4165 C   0  0  0  0  0  0  0  0  0  0  0  0
   10.1193  -15.3111   23.3319 O   0  0  0  0  0  0  0  0  0  0  0  0
    6.7048  -11.0138   27.4858 C   0  0  0  0  0  0  0  0  0  0  0  0
    6.7847  -12.2644   26.1525 S   0  0  0  0  0  0  0  0  0  0  0  0
    6.9251  -13.9328   26.8777 C   0  0  0  0  0  0  0  0  0  0  0  0
    7.0335  -14.9431   25.7713 C   0  0  0  0  0  0  0  0  0  0  0  0
    8.4747  -15.3685   25.5846 C   0  0  2  0  0  0  0  0  0  0  0  0
    8.4862  -16.3682   24.5371 N   0  0  0  0  0  0  0  0  0  0  0  0
    9.0815  -15.8302   26.8272 C   0  0  0  0  0  0  0  0  0  0  0  0
    9.4003  -15.0240   27.7279 O   0  0  0  0  0  0  0  0  0  0  0  0
    9.3154  -17.1755   27.0302 O   0  0  0  0  0  0  0  0  0  0  0  0
  1  2  1  0
  2  3  1  0
  4  3  1  0
  5  4  1  0
  5  6  1  6
  7  5  1  0
  7  8  2  0
 10  9  1  6
 10 12  1  0
 11 10  1  0
 12 13  1  6
 13  7  1  0
 14 12  1  0
 15 14  2  0
 16 17  1  0
 17 18  1  0
 18 19  1  0
 20 19  1  1
 20 21  1  0
 20 22  1  0
 21 14  1  0
 22 24  1  0
 23 22  2  0
M  END
$$$$
