MTM.pdb
     RDKit          3D

 24 23  0  0  1  0  0  0  0  0999 V2000
    6.5006  -11.3375   24.9549 C   0  0  0  0  0  0  0  0  0  0  0  0
    6.3858  -12.4886   26.3072 S   0  0  0  0  0  0  0  0  0  0  0  0
    6.3782  -14.2103   25.9260 C   0  0  0  0  0  0  0  0  0  0  0  0
    6.3188  -14.6009   24.5069 C   0  0  0  0  0  0  0  0  0  0  0  0
    6.2210  -16.0182   24.1250 C   0  0  2  0  0  0  0  0  0  0  0  0
    5.3013  -16.8355   24.8544 N   0  0  0  0  0  0  0  0  0  0  0  0
    7.5542  -16.7189   24.1731 C   0  0  0  0  0  0  0  0  0  0  0  0
    7.7634  -17.7024   24.9351 O   0  0  0  0  0  0  0  0  0  0  0  0
    9.7507  -17.6942   21.1634 C   0  0  0  0  0  0  0  0  0  0  0  0
   10.6434  -16.9895   22.1730 C   0  0  1  0  0  0  0  0  0  0  0  0
   10.9947  -15.7136   21.7489 O   0  0  0  0  0  0  0  0  0  0  0  0
    9.9214  -16.8977   23.5229 C   0  0  2  0  0  0  0  0  0  0  0  0
    8.6387  -16.2973   23.3559 N   0  0  0  0  0  0  0  0  0  0  0  0
   10.8126  -16.1481   24.4331 C   0  0  0  0  0  0  0  0  0  0  0  0
   10.6230  -14.9713   24.8189 O   0  0  0  0  0  0  0  0  0  0  0  0
   10.0750  -13.5808   28.5844 C   0  0  0  0  0  0  0  0  0  0  0  0
   11.5140  -14.5094   29.2289 S   0  0  0  0  0  0  0  0  0  0  0  0
   11.5126  -16.2020   28.5475 C   0  0  0  0  0  0  0  0  0  0  0  0
   11.2498  -16.1378   27.0700 C   0  0  0  0  0  0  0  0  0  0  0  0
   12.3259  -16.8843   26.3097 C   0  0  2  0  0  0  0  0  0  0  0  0
   11.9745  -16.8159   24.9066 N   0  0  0  0  0  0  0  0  0  0  0  0
   12.5007  -18.2485   26.7933 C   0  0  0  0  0  0  0  0  0  0  0  0
   11.7471  -19.1698   26.4113 O   0  0  0  0  0  0  0  0  0  0  0  0
   13.5093  -18.5464   27.6875 O   0  0  0  0  0  0  0  0  0  0  0  0
  1  2  1  0
  2  3  1  0
  4  3  1  0
  5  4  1  0
  5  6  1  1
  7  5  1  0
  7  8  2  0
 10  9  1  6
 10 12  1  0
 11 10  1  0
 12 13  1  6
 13  7  1  0
 14 12  1  0
 15 14  2  0
 16 17  1  0
 17 18  1  0
 18 19  1  0
 20 19  1  1
 20 21  1  0
 20 22  1  0
 21 14  1  0
 22 24  1  0
 23 22  2  0
M  END
$$$$
