MTM.pdb
     RDKit          3D

 24 23  0  0  1  0  0  0  0  0999 V2000
    9.0330  -11.6804   19.4517 C   0  0  0  0  0  0  0  0  0  0  0  0
    8.1854  -12.3630   18.0437 S   0  0  0  0  0  0  0  0  0  0  0  0
    7.8625  -14.0967   18.0366 C   0  0  0  0  0  0  0  0  0  0  0  0
    8.8123  -14.9767   18.7390 C   0  0  0  0  0  0  0  0  0  0  0  0
    8.6053  -16.4329   18.7624 C   0  0  2  0  0  0  0  0  0  0  0  0
    7.5621  -16.9637   17.9400 N   0  0  0  0  0  0  0  0  0  0  0  0
    8.3666  -16.9565   20.1551 C   0  0  0  0  0  0  0  0  0  0  0  0
    7.2087  -17.0291   20.6508 O   0  0  0  0  0  0  0  0  0  0  0  0
    9.8492  -20.0822   22.0105 C   0  0  0  0  0  0  0  0  0  0  0  0
   10.1384  -18.8215   22.8105 C   0  0  1  0  0  0  0  0  0  0  0  0
   11.4606  -18.4161   22.6745 O   0  0  0  0  0  0  0  0  0  0  0  0
    9.2086  -17.6933   22.3474 C   0  0  2  0  0  0  0  0  0  0  0  0
    9.4443  -17.3932   20.9733 N   0  0  0  0  0  0  0  0  0  0  0  0
    9.4434  -16.5486   23.2526 C   0  0  0  0  0  0  0  0  0  0  0  0
   10.1467  -15.5481   22.9808 O   0  0  0  0  0  0  0  0  0  0  0  0
    6.1380  -11.4160   27.7314 C   0  0  0  0  0  0  0  0  0  0  0  0
    6.0643  -12.8302   26.5727 S   0  0  0  0  0  0  0  0  0  0  0  0
    7.6229  -13.7758   26.6518 C   0  0  0  0  0  0  0  0  0  0  0  0
    7.5920  -14.8634   25.6163 C   0  0  0  0  0  0  0  0  0  0  0  0
    8.9511  -15.5210   25.5010 C   0  0  2  0  0  0  0  0  0  0  0  0
    8.8218  -16.5877   24.5302 N   0  0  0  0  0  0  0  0  0  0  0  0
    9.4581  -15.9749   26.7904 C   0  0  0  0  0  0  0  0  0  0  0  0
    9.3836  -17.1768   27.1260 O   0  0  0  0  0  0  0  0  0  0  0  0
   10.0329  -15.0773   27.6677 O   0  0  0  0  0  0  0  0  0  0  0  0
  1  2  1  0
  2  3  1  0
  4  3  1  0
  5  4  1  0
  5  6  1  6
  7  5  1  0
  7  8  2  0
 10  9  1  6
 10 12  1  0
 11 10  1  0
 12 13  1  6
 13  7  1  0
 14 12  1  0
 15 14  2  0
 16 17  1  0
 17 18  1  0
 18 19  1  0
 20 19  1  1
 20 21  1  0
 20 22  1  0
 21 14  1  0
 22 24  1  0
 23 22  2  0
M  END
$$$$
