MTM.pdb
     RDKit          3D

 24 23  0  0  1  0  0  0  0  0999 V2000
    8.9593  -11.4298   20.0643 C   0  0  0  0  0  0  0  0  0  0  0  0
    7.9816  -12.1022   18.7381 S   0  0  0  0  0  0  0  0  0  0  0  0
    7.9721  -13.8529   18.5265 C   0  0  0  0  0  0  0  0  0  0  0  0
    9.1070  -14.6183   19.0706 C   0  0  0  0  0  0  0  0  0  0  0  0
    9.1162  -16.0880   19.0081 C   0  0  2  0  0  0  0  0  0  0  0  0
    8.2991  -16.7106   18.0126 N   0  0  0  0  0  0  0  0  0  0  0  0
    8.7500  -16.7209   20.3257 C   0  0  0  0  0  0  0  0  0  0  0  0
    7.8591  -17.6098   20.4137 O   0  0  0  0  0  0  0  0  0  0  0  0
    8.7416  -19.1434   21.5405 C   0  0  0  0  0  0  0  0  0  0  0  0
    9.4436  -18.4645   22.7064 C   0  0  1  0  0  0  0  0  0  0  0  0
   10.8258  -18.5697   22.6084 O   0  0  0  0  0  0  0  0  0  0  0  0
    9.0468  -16.9840   22.7549 C   0  0  2  0  0  0  0  0  0  0  0  0
    9.3983  -16.3393   21.5323 N   0  0  0  0  0  0  0  0  0  0  0  0
    9.7087  -16.4038   23.9423 C   0  0  0  0  0  0  0  0  0  0  0  0
   10.9154  -16.0727   24.0043 O   0  0  0  0  0  0  0  0  0  0  0  0
    6.3210  -11.3187   25.2945 C   0  0  0  0  0  0  0  0  0  0  0  0
    6.4503  -13.0399   25.9020 S   0  0  0  0  0  0  0  0  0  0  0  0
    8.1856  -13.4191   26.3194 C   0  0  0  0  0  0  0  0  0  0  0  0
    8.2602  -14.7989   26.9081 C   0  0  0  0  0  0  0  0  0  0  0  0
    9.4146  -15.5694   26.3026 C   0  0  2  0  0  0  0  0  0  0  0  0
    8.9125  -16.2066   25.1031 N   0  0  0  0  0  0  0  0  0  0  0  0
   10.0101  -16.5076   27.2463 C   0  0  0  0  0  0  0  0  0  0  0  0
   10.5709  -16.1056   28.2887 O   0  0  0  0  0  0  0  0  0  0  0  0
    9.9636  -17.8655   27.0015 O   0  0  0  0  0  0  0  0  0  0  0  0
  1  2  1  0
  2  3  1  0
  4  3  1  0
  5  4  1  0
  5  6  1  6
  7  5  1  0
  7  8  2  0
 10  9  1  6
 10 12  1  0
 11 10  1  0
 12 13  1  6
 13  7  1  0
 14 12  1  0
 15 14  2  0
 16 17  1  0
 17 18  1  0
 18 19  1  0
 20 19  1  1
 20 21  1  0
 20 22  1  0
 21 14  1  0
 22 24  1  0
 23 22  2  0
M  END
$$$$
