CIW.pdb
     RDKit          3D

 29 30  0  0  1  0  0  0  0  0999 V2000
   12.9981  -16.3775   19.1451 N   0  0  0  0  0  0  0  0  0  0  0  0
   11.5940  -16.7238   19.2503 C   0  0  1  0  0  0  0  0  0  0  0  0
   11.4572  -18.2311   19.2159 C   0  0  0  0  0  0  0  0  0  0  0  0
   11.9595  -18.8524   17.5883 S   0  0  0  0  0  0  0  0  0  0  0  0
   11.0882  -16.1594   20.5276 C   0  0  0  0  0  0  0  0  0  0  0  0
   11.8636  -15.8918   21.4797 O   0  0  0  0  0  0  0  0  0  0  0  0
    6.7194  -12.9909   20.3194 C   0  0  0  0  0  0  0  0  0  0  0  0
    7.9997  -13.6789   20.7216 C   0  0  0  0  0  0  0  0  0  0  0  0
    7.7769  -14.8231   21.6801 C   0  0  2  0  0  0  0  0  0  0  0  0
    7.0171  -14.4143   22.8976 C   0  0  0  0  0  0  0  0  0  0  0  0
    9.1119  -15.4686   21.9645 C   0  0  2  0  0  0  0  0  0  0  0  0
    9.6843  -15.9032   20.7072 N   0  0  0  0  0  0  0  0  0  0  0  0
    8.9798  -16.5996   22.9234 C   0  0  0  0  0  0  0  0  0  0  0  0
    8.3573  -17.6278   22.5696 O   0  0  0  0  0  0  0  0  0  0  0  0
    9.5222  -16.5894   24.2349 N   0  0  0  0  0  0  0  0  0  0  0  0
    9.5942  -17.8000   25.0284 C   0  0  1  0  0  0  0  0  0  0  0  0
   10.7452  -17.7658   26.0131 C   0  0  0  0  0  0  0  0  0  0  0  0
   10.4253  -16.9527   27.2048 C   0  0  0  0  0  0  0  0  0  0  0  0
    9.9745  -17.4183   28.4189 C   0  0  0  0  0  0  0  0  0  0  0  0
    9.7975  -16.3567   29.2602 N   0  0  0  0  0  0  0  0  0  0  0  0
   10.1188  -15.2233   28.6295 C   0  0  0  0  0  0  0  0  0  0  0  0
   10.1081  -13.9074   29.0474 C   0  0  0  0  0  0  0  0  0  0  0  0
   10.4922  -12.9059   28.1904 C   0  0  0  0  0  0  0  0  0  0  0  0
   10.8847  -13.2469   26.9142 C   0  0  0  0  0  0  0  0  0  0  0  0
   10.8937  -14.5780   26.4969 C   0  0  0  0  0  0  0  0  0  0  0  0
   10.5149  -15.5863   27.3367 C   0  0  0  0  0  0  0  0  0  0  0  0
    8.3106  -18.0710   25.7282 C   0  0  0  0  0  0  0  0  0  0  0  0
    8.0272  -19.2593   26.3582 O   0  0  0  0  0  0  0  0  0  0  0  0
    7.4592  -17.1628   25.7337 O   0  0  0  0  0  0  0  0  0  0  0  0
  2  3  1  0
  2  1  1  1
  3  4  1  0
  5  6  2  0
  5  2  1  0
  8  7  1  0
  9 10  1  1
  9  8  1  0
 11 12  1  6
 11  9  1  0
 12  5  1  0
 13 11  1  0
 14 13  2  0
 15 13  1  0
 16 15  1  0
 16 17  1  1
 17 18  1  0
 18 26  1  0
 18 19  2  0
 19 20  1  0
 21 20  1  0
 21 22  2  0
 23 22  1  0
 24 23  2  0
 25 26  2  0
 25 24  1  0
 26 21  1  0
 27 16  1  0
 28 27  1  0
 29 27  2  0
M  END
$$$$
