CIW.pdb
     RDKit          3D

 29 30  0  0  1  0  0  0  0  0999 V2000
    8.9016  -19.8168   19.2137 N   0  0  0  0  0  0  0  0  0  0  0  0
    8.1311  -19.0630   20.1836 C   0  0  1  0  0  0  0  0  0  0  0  0
    7.9448  -19.9088   21.4253 C   0  0  0  0  0  0  0  0  0  0  0  0
    9.5608  -20.2795   22.1592 S   0  0  0  0  0  0  0  0  0  0  0  0
    8.8820  -17.8165   20.4807 C   0  0  0  0  0  0  0  0  0  0  0  0
   10.1054  -17.7080   20.2148 O   0  0  0  0  0  0  0  0  0  0  0  0
    6.5418  -13.1254   19.6225 C   0  0  0  0  0  0  0  0  0  0  0  0
    7.5195  -14.2434   19.8841 C   0  0  0  0  0  0  0  0  0  0  0  0
    7.9520  -14.3214   21.3278 C   0  0  2  0  0  0  0  0  0  0  0  0
    8.4722  -13.0214   21.8438 C   0  0  0  0  0  0  0  0  0  0  0  0
    8.9101  -15.4793   21.4727 C   0  0  2  0  0  0  0  0  0  0  0  0
    8.2198  -16.6922   21.0861 N   0  0  0  0  0  0  0  0  0  0  0  0
    9.4470  -15.5753   22.8578 C   0  0  0  0  0  0  0  0  0  0  0  0
   10.3199  -14.7572   23.2302 O   0  0  0  0  0  0  0  0  0  0  0  0
    9.0278  -16.5498   23.8006 N   0  0  0  0  0  0  0  0  0  0  0  0
    9.6231  -16.6251   25.1198 C   0  0  1  0  0  0  0  0  0  0  0  0
    8.5756  -16.6926   26.2125 C   0  0  0  0  0  0  0  0  0  0  0  0
    7.5366  -15.6556   26.0428 C   0  0  0  0  0  0  0  0  0  0  0  0
    6.2357  -15.8556   25.6408 C   0  0  0  0  0  0  0  0  0  0  0  0
    5.5936  -14.6503   25.6092 N   0  0  0  0  0  0  0  0  0  0  0  0
    6.4365  -13.6809   25.9769 C   0  0  0  0  0  0  0  0  0  0  0  0
    6.2654  -12.3165   26.1019 C   0  0  0  0  0  0  0  0  0  0  0  0
    7.3098  -11.5221   26.5056 C   0  0  0  0  0  0  0  0  0  0  0  0
    8.5216  -12.1180   26.7799 C   0  0  0  0  0  0  0  0  0  0  0  0
    8.6893  -13.4970   26.6521 C   0  0  0  0  0  0  0  0  0  0  0  0
    7.6609  -14.3016   26.2518 C   0  0  0  0  0  0  0  0  0  0  0  0
   10.5700  -17.7663   25.2271 C   0  0  0  0  0  0  0  0  0  0  0  0
   11.3664  -17.9896   26.3248 O   0  0  0  0  0  0  0  0  0  0  0  0
   10.6317  -18.5509   24.2625 O   0  0  0  0  0  0  0  0  0  0  0  0
  2  3  1  0
  2  1  1  6
  3  4  1  0
  5  6  2  0
  5  2  1  0
  8  7  1  0
  9 10  1  6
  9  8  1  0
 11 12  1  1
 11  9  1  0
 12  5  1  0
 13 11  1  0
 14 13  2  0
 15 13  1  0
 16 15  1  0
 16 17  1  1
 17 18  1  0
 18 26  1  0
 18 19  2  0
 19 20  1  0
 21 20  1  0
 21 22  2  0
 23 22  1  0
 24 23  2  0
 25 26  2  0
 25 24  1  0
 26 21  1  0
 27 16  1  0
 28 27  1  0
 29 27  2  0
M  END
$$$$
