CIW.pdb
     RDKit          3D

 29 30  0  0  1  0  0  0  0  0999 V2000
    6.1049  -19.2669   19.4368 N   0  0  0  0  0  0  0  0  0  0  0  0
    5.7839  -18.2358   20.4045 C   0  0  1  0  0  0  0  0  0  0  0  0
    5.2784  -18.8931   21.6711 C   0  0  0  0  0  0  0  0  0  0  0  0
    6.5840  -18.8778   22.9292 S   0  0  0  0  0  0  0  0  0  0  0  0
    7.0219  -17.4538   20.6527 C   0  0  0  0  0  0  0  0  0  0  0  0
    8.1593  -17.9818   20.5709 O   0  0  0  0  0  0  0  0  0  0  0  0
    7.0683  -12.6284   18.7324 C   0  0  0  0  0  0  0  0  0  0  0  0
    7.4176  -13.9642   19.3388 C   0  0  0  0  0  0  0  0  0  0  0  0
    7.8736  -13.8581   20.7735 C   0  0  2  0  0  0  0  0  0  0  0  0
    9.0286  -12.9287   20.9431 C   0  0  0  0  0  0  0  0  0  0  0  0
    8.1126  -15.2535   21.2983 C   0  0  2  0  0  0  0  0  0  0  0  0
    6.9476  -16.0590   20.9962 N   0  0  0  0  0  0  0  0  0  0  0  0
    8.4071  -15.2466   22.7575 C   0  0  0  0  0  0  0  0  0  0  0  0
    7.7828  -14.4542   23.5006 O   0  0  0  0  0  0  0  0  0  0  0  0
    9.3656  -16.0933   23.3729 N   0  0  0  0  0  0  0  0  0  0  0  0
    9.9727  -15.7447   24.6418 C   0  0  1  0  0  0  0  0  0  0  0  0
    9.1410  -16.2156   25.8176 C   0  0  0  0  0  0  0  0  0  0  0  0
    7.8645  -15.4781   25.9185 C   0  0  0  0  0  0  0  0  0  0  0  0
    6.6078  -15.9732   25.6546 C   0  0  0  0  0  0  0  0  0  0  0  0
    5.6905  -14.9832   25.8658 N   0  0  0  0  0  0  0  0  0  0  0  0
    6.3134  -13.8675   26.2565 C   0  0  0  0  0  0  0  0  0  0  0  0
    5.8313  -12.6163   26.5859 C   0  0  0  0  0  0  0  0  0  0  0  0
    6.6958  -11.6189   26.9636 C   0  0  0  0  0  0  0  0  0  0  0  0
    8.0446  -11.8981   27.0045 C   0  0  0  0  0  0  0  0  0  0  0  0
    8.5266  -13.1640   26.6708 C   0  0  0  0  0  0  0  0  0  0  0  0
    7.6804  -14.1673   26.2930 C   0  0  0  0  0  0  0  0  0  0  0  0
   11.3639  -16.2597   24.7411 C   0  0  0  0  0  0  0  0  0  0  0  0
   12.1826  -16.0276   25.8205 O   0  0  0  0  0  0  0  0  0  0  0  0
   11.7933  -16.9347   23.7873 O   0  0  0  0  0  0  0  0  0  0  0  0
  2  3  1  0
  2  1  1  6
  3  4  1  0
  5  6  2  0
  5  2  1  0
  8  7  1  0
  9 10  1  6
  9  8  1  0
 11 12  1  1
 11  9  1  0
 12  5  1  0
 13 11  1  0
 14 13  2  0
 15 13  1  0
 16 15  1  0
 16 17  1  1
 17 18  1  0
 18 26  1  0
 18 19  2  0
 19 20  1  0
 21 20  1  0
 21 22  2  0
 23 22  1  0
 24 23  2  0
 25 26  2  0
 25 24  1  0
 26 21  1  0
 27 16  1  0
 28 27  1  0
 29 27  2  0
M  END
$$$$
