CIW.pdb
     RDKit          3D

 29 30  0  0  1  0  0  0  0  0999 V2000
    7.3452  -19.5882   19.3869 N   0  0  0  0  0  0  0  0  0  0  0  0
    6.9867  -18.7021   20.4773 C   0  0  1  0  0  0  0  0  0  0  0  0
    6.8034  -19.5233   21.7359 C   0  0  0  0  0  0  0  0  0  0  0  0
    8.3856  -19.6607   22.6106 S   0  0  0  0  0  0  0  0  0  0  0  0
    8.0828  -17.7113   20.6277 C   0  0  0  0  0  0  0  0  0  0  0  0
    9.2512  -17.9607   20.2380 O   0  0  0  0  0  0  0  0  0  0  0  0
    6.9390  -12.6392   19.5987 C   0  0  0  0  0  0  0  0  0  0  0  0
    7.6713  -13.9353   19.8398 C   0  0  0  0  0  0  0  0  0  0  0  0
    8.1994  -14.0599   21.2480 C   0  0  2  0  0  0  0  0  0  0  0  0
    9.0689  -12.9123   21.6402 C   0  0  0  0  0  0  0  0  0  0  0  0
    8.8508  -15.4145   21.3908 C   0  0  2  0  0  0  0  0  0  0  0  0
    7.8304  -16.4294   21.2293 N   0  0  0  0  0  0  0  0  0  0  0  0
    9.5523  -15.5495   22.6968 C   0  0  0  0  0  0  0  0  0  0  0  0
   10.6169  -14.9158   22.8842 O   0  0  0  0  0  0  0  0  0  0  0  0
    9.0863  -16.3632   23.7622 N   0  0  0  0  0  0  0  0  0  0  0  0
    9.7961  -16.4295   25.0240 C   0  0  1  0  0  0  0  0  0  0  0  0
    8.8497  -16.5157   26.2041 C   0  0  0  0  0  0  0  0  0  0  0  0
    7.7165  -15.5769   26.0697 C   0  0  0  0  0  0  0  0  0  0  0  0
    6.4275  -15.8933   25.7058 C   0  0  0  0  0  0  0  0  0  0  0  0
    5.6784  -14.7510   25.6983 N   0  0  0  0  0  0  0  0  0  0  0  0
    6.4407  -13.7098   26.0447 C   0  0  0  0  0  0  0  0  0  0  0  0
    6.1507  -12.3667   26.1804 C   0  0  0  0  0  0  0  0  0  0  0  0
    7.1306  -11.4815   26.5561 C   0  0  0  0  0  0  0  0  0  0  0  0
    8.3990  -11.9656   26.7918 C   0  0  0  0  0  0  0  0  0  0  0  0
    8.6869  -13.3236   26.6533 C   0  0  0  0  0  0  0  0  0  0  0  0
    7.7240  -14.2175   26.2804 C   0  0  0  0  0  0  0  0  0  0  0  0
   10.7679  -17.5546   25.0452 C   0  0  0  0  0  0  0  0  0  0  0  0
   10.8999  -18.4611   24.0205 O   0  0  0  0  0  0  0  0  0  0  0  0
   11.4918  -17.6663   26.0518 O   0  0  0  0  0  0  0  0  0  0  0  0
  2  3  1  0
  2  1  1  6
  3  4  1  0
  5  6  2  0
  5  2  1  0
  8  7  1  0
  9 10  1  6
  9  8  1  0
 11 12  1  1
 11  9  1  0
 12  5  1  0
 13 11  1  0
 14 13  2  0
 15 13  1  0
 16 15  1  0
 16 17  1  1
 17 18  1  0
 18 26  1  0
 18 19  2  0
 19 20  1  0
 21 20  1  0
 21 22  2  0
 23 22  1  0
 24 23  2  0
 25 26  2  0
 25 24  1  0
 26 21  1  0
 27 16  1  0
 28 27  1  0
 29 27  2  0
M  END
$$$$
