CIW.pdb
     RDKit          3D

 29 30  0  0  1  0  0  0  0  0999 V2000
   10.1035  -18.2379   17.4247 N   0  0  0  0  0  0  0  0  0  0  0  0
    9.1401  -18.0648   18.4944 C   0  0  1  0  0  0  0  0  0  0  0  0
    9.0734  -19.3416   19.3051 C   0  0  0  0  0  0  0  0  0  0  0  0
    8.3082  -20.6537   18.3149 S   0  0  0  0  0  0  0  0  0  0  0  0
    9.5912  -16.9168   19.3217 C   0  0  0  0  0  0  0  0  0  0  0  0
   10.8091  -16.7161   19.5575 O   0  0  0  0  0  0  0  0  0  0  0  0
    7.4329  -12.2452   18.5897 C   0  0  0  0  0  0  0  0  0  0  0  0
    8.3391  -13.3621   19.0429 C   0  0  0  0  0  0  0  0  0  0  0  0
    8.1361  -13.7336   20.4915 C   0  0  2  0  0  0  0  0  0  0  0  0
    8.3398  -12.5798   21.4156 C   0  0  0  0  0  0  0  0  0  0  0  0
    8.9955  -14.9371   20.7961 C   0  0  2  0  0  0  0  0  0  0  0  0
    8.6349  -15.9978   19.8784 N   0  0  0  0  0  0  0  0  0  0  0  0
    8.8500  -15.3691   22.2132 C   0  0  0  0  0  0  0  0  0  0  0  0
    7.7399  -15.7949   22.6086 O   0  0  0  0  0  0  0  0  0  0  0  0
    9.9045  -15.3296   23.1623 N   0  0  0  0  0  0  0  0  0  0  0  0
    9.7006  -15.7588   24.5314 C   0  0  1  0  0  0  0  0  0  0  0  0
    8.3501  -16.4180   24.7247 C   0  0  0  0  0  0  0  0  0  0  0  0
    7.4174  -15.5510   25.4743 C   0  0  0  0  0  0  0  0  0  0  0  0
    6.2330  -15.9340   26.0612 C   0  0  0  0  0  0  0  0  0  0  0  0
    5.6642  -14.8450   26.6582 N   0  0  0  0  0  0  0  0  0  0  0  0
    6.4416  -13.7736   26.4758 C   0  0  0  0  0  0  0  0  0  0  0  0
    6.3025  -12.4610   26.8808 C   0  0  0  0  0  0  0  0  0  0  0  0
    7.2610  -11.5321   26.5590 C   0  0  0  0  0  0  0  0  0  0  0  0
    8.3548  -11.9420   25.8279 C   0  0  0  0  0  0  0  0  0  0  0  0
    8.4906  -13.2695   25.4211 C   0  0  0  0  0  0  0  0  0  0  0  0
    7.5465  -14.2060   25.7328 C   0  0  0  0  0  0  0  0  0  0  0  0
   10.7945  -16.6548   24.9912 C   0  0  0  0  0  0  0  0  0  0  0  0
   11.7581  -17.1651   24.1544 O   0  0  0  0  0  0  0  0  0  0  0  0
   10.8236  -16.9477   26.2007 O   0  0  0  0  0  0  0  0  0  0  0  0
  2  3  1  0
  2  1  1  6
  3  4  1  0
  5  6  2  0
  5  2  1  0
  8  7  1  0
  9 10  1  1
  9  8  1  0
 11 12  1  6
 11  9  1  0
 12  5  1  0
 13 11  1  0
 14 13  2  0
 15 13  1  0
 16 15  1  0
 16 17  1  6
 17 18  1  0
 18 26  1  0
 18 19  2  0
 19 20  1  0
 21 20  1  0
 21 22  2  0
 23 22  1  0
 24 23  2  0
 25 26  2  0
 25 24  1  0
 26 21  1  0
 27 16  1  0
 28 27  1  0
 29 27  2  0
M  END
$$$$
