CIW.pdb
     RDKit          3D

 29 30  0  0  1  0  0  0  0  0999 V2000
   13.0461  -16.2821   18.5252 N   0  0  0  0  0  0  0  0  0  0  0  0
   11.7876  -16.8672   18.9453 C   0  0  1  0  0  0  0  0  0  0  0  0
   12.0239  -18.3116   19.3325 C   0  0  0  0  0  0  0  0  0  0  0  0
   13.0786  -18.3837   20.8055 S   0  0  0  0  0  0  0  0  0  0  0  0
   11.2846  -16.0704   20.0934 C   0  0  0  0  0  0  0  0  0  0  0  0
   12.0366  -15.2917   20.7316 O   0  0  0  0  0  0  0  0  0  0  0  0
    6.4448  -13.8864   19.8157 C   0  0  0  0  0  0  0  0  0  0  0  0
    7.8581  -14.2026   20.2362 C   0  0  0  0  0  0  0  0  0  0  0  0
    7.9255  -15.1639   21.3975 C   0  0  2  0  0  0  0  0  0  0  0  0
    7.1718  -14.6790   22.5906 C   0  0  0  0  0  0  0  0  0  0  0  0
    9.3770  -15.4837   21.6632 C   0  0  2  0  0  0  0  0  0  0  0  0
    9.9105  -16.1722   20.5063 N   0  0  0  0  0  0  0  0  0  0  0  0
    9.5414  -16.2919   22.9025 C   0  0  0  0  0  0  0  0  0  0  0  0
    9.5690  -17.5415   22.8150 O   0  0  0  0  0  0  0  0  0  0  0  0
    9.6713  -15.7300   24.1994 N   0  0  0  0  0  0  0  0  0  0  0  0
    9.9935  -16.5540   25.3472 C   0  0  1  0  0  0  0  0  0  0  0  0
   10.2067  -15.7264   26.5984 C   0  0  0  0  0  0  0  0  0  0  0  0
    8.9906  -14.9761   26.9751 C   0  0  0  0  0  0  0  0  0  0  0  0
    8.0474  -15.3547   27.9030 C   0  0  0  0  0  0  0  0  0  0  0  0
    7.0789  -14.3934   27.9648 N   0  0  0  0  0  0  0  0  0  0  0  0
    7.3659  -13.4087   27.1083 C   0  0  0  0  0  0  0  0  0  0  0  0
    6.7053  -12.2341   26.8078 C   0  0  0  0  0  0  0  0  0  0  0  0
    7.2180  -11.3721   25.8702 C   0  0  0  0  0  0  0  0  0  0  0  0
    8.3983  -11.7082   25.2435 C   0  0  0  0  0  0  0  0  0  0  0  0
    9.0618  -12.8963   25.5508 C   0  0  0  0  0  0  0  0  0  0  0  0
    8.5657  -13.7647   26.4808 C   0  0  0  0  0  0  0  0  0  0  0  0
    8.9605  -17.5985   25.5766 C   0  0  0  0  0  0  0  0  0  0  0  0
    9.1717  -18.7168   26.3473 O   0  0  0  0  0  0  0  0  0  0  0  0
    7.8518  -17.4353   25.0344 O   0  0  0  0  0  0  0  0  0  0  0  0
  2  3  1  0
  2  1  1  1
  3  4  1  0
  5  6  2  0
  5  2  1  0
  8  7  1  0
  9 10  1  1
  9  8  1  0
 11 12  1  6
 11  9  1  0
 12  5  1  0
 13 11  1  0
 14 13  2  0
 15 13  1  0
 16 15  1  0
 16 17  1  1
 17 18  1  0
 18 26  1  0
 18 19  2  0
 19 20  1  0
 21 20  1  0
 21 22  2  0
 23 22  1  0
 24 23  2  0
 25 26  2  0
 25 24  1  0
 26 21  1  0
 27 16  1  0
 28 27  1  0
 29 27  2  0
M  END
$$$$
