CIW.pdb
     RDKit          3D

 29 30  0  0  1  0  0  0  0  0999 V2000
    7.2247  -15.1416   18.5117 N   0  0  0  0  0  0  0  0  0  0  0  0
    8.4505  -14.8234   19.2179 C   0  0  1  0  0  0  0  0  0  0  0  0
    8.2945  -13.4743   19.8867 C   0  0  0  0  0  0  0  0  0  0  0  0
    8.2856  -12.1675   18.6298 S   0  0  0  0  0  0  0  0  0  0  0  0
    8.6867  -15.9009   20.2125 C   0  0  0  0  0  0  0  0  0  0  0  0
    7.7332  -16.5009   20.7692 O   0  0  0  0  0  0  0  0  0  0  0  0
   12.3162  -19.5410   19.2879 C   0  0  0  0  0  0  0  0  0  0  0  0
   11.1863  -18.7064   19.8365 C   0  0  0  0  0  0  0  0  0  0  0  0
   11.5163  -18.0686   21.1639 C   0  0  2  0  0  0  0  0  0  0  0  0
   11.9943  -19.0571   22.1744 C   0  0  0  0  0  0  0  0  0  0  0  0
   10.3262  -17.2507   21.6045 C   0  0  2  0  0  0  0  0  0  0  0  0
   10.0265  -16.2871   20.5658 N   0  0  0  0  0  0  0  0  0  0  0  0
   10.5744  -16.5835   22.9120 C   0  0  0  0  0  0  0  0  0  0  0  0
   11.3739  -15.6201   22.9615 O   0  0  0  0  0  0  0  0  0  0  0  0
    9.9540  -16.9740   24.1272 N   0  0  0  0  0  0  0  0  0  0  0  0
   10.2233  -16.2748   25.3678 C   0  0  1  0  0  0  0  0  0  0  0  0
    9.8648  -14.8052   25.2807 C   0  0  0  0  0  0  0  0  0  0  0  0
    8.4145  -14.5819   25.4552 C   0  0  0  0  0  0  0  0  0  0  0  0
    7.4116  -15.5001   25.2433 C   0  0  0  0  0  0  0  0  0  0  0  0
    6.2095  -14.9108   25.5151 N   0  0  0  0  0  0  0  0  0  0  0  0
    6.4039  -13.6445   25.8947 C   0  0  0  0  0  0  0  0  0  0  0  0
    5.5181  -12.6535   26.2682 C   0  0  0  0  0  0  0  0  0  0  0  0
    5.9796  -11.4096   26.6213 C   0  0  0  0  0  0  0  0  0  0  0  0
    7.3379  -11.1796   26.5928 C   0  0  0  0  0  0  0  0  0  0  0  0
    8.2289  -12.1843   26.2147 C   0  0  0  0  0  0  0  0  0  0  0  0
    7.7866  -13.4270   25.8606 C   0  0  0  0  0  0  0  0  0  0  0  0
    9.5338  -16.9177   26.5175 C   0  0  0  0  0  0  0  0  0  0  0  0
    9.7776  -16.5864   27.8289 O   0  0  0  0  0  0  0  0  0  0  0  0
    8.6946  -17.8005   26.2602 O   0  0  0  0  0  0  0  0  0  0  0  0
  2  3  1  0
  2  1  1  1
  3  4  1  0
  5  6  2  0
  5  2  1  0
  8  7  1  0
  9 10  1  1
  9  8  1  0
 11 12  1  6
 11  9  1  0
 12  5  1  0
 13 11  1  0
 14 13  2  0
 15 13  1  0
 16 15  1  0
 16 17  1  6
 17 18  1  0
 18 26  1  0
 18 19  2  0
 19 20  1  0
 21 20  1  0
 21 22  2  0
 23 22  1  0
 24 23  2  0
 25 26  2  0
 25 24  1  0
 26 21  1  0
 27 16  1  0
 28 27  1  0
 29 27  2  0
M  END
$$$$
