CIW.pdb
     RDKit          3D

 29 30  0  0  1  0  0  0  0  0999 V2000
    6.2176  -20.4604   23.4143 N   0  0  0  0  0  0  0  0  0  0  0  0
    6.1702  -19.0450   23.7257 C   0  0  1  0  0  0  0  0  0  0  0  0
    6.4869  -18.8555   25.1939 C   0  0  0  0  0  0  0  0  0  0  0  0
    6.0035  -20.3383   26.1187 S   0  0  0  0  0  0  0  0  0  0  0  0
    7.1663  -18.3627   22.8607 C   0  0  0  0  0  0  0  0  0  0  0  0
    8.0038  -19.0124   22.1856 O   0  0  0  0  0  0  0  0  0  0  0  0
    6.7520  -12.6822   21.8761 C   0  0  0  0  0  0  0  0  0  0  0  0
    7.3223  -13.9561   22.4471 C   0  0  0  0  0  0  0  0  0  0  0  0
    7.5887  -15.0050   21.3952 C   0  0  2  0  0  0  0  0  0  0  0  0
    6.3779  -15.3283   20.5852 C   0  0  0  0  0  0  0  0  0  0  0  0
    8.2275  -16.1968   22.0668 C   0  0  2  0  0  0  0  0  0  0  0  0
    7.1963  -16.9273   22.7742 N   0  0  0  0  0  0  0  0  0  0  0  0
    9.3286  -15.7854   22.9802 C   0  0  0  0  0  0  0  0  0  0  0  0
    9.9010  -14.6877   22.7875 O   0  0  0  0  0  0  0  0  0  0  0  0
    9.7804  -16.5687   24.0741 N   0  0  0  0  0  0  0  0  0  0  0  0
   10.9502  -16.1874   24.8399 C   0  0  1  0  0  0  0  0  0  0  0  0
   10.7842  -14.8298   25.4920 C   0  0  0  0  0  0  0  0  0  0  0  0
    9.4648  -14.6899   26.1424 C   0  0  0  0  0  0  0  0  0  0  0  0
    8.8189  -15.6396   26.9005 C   0  0  0  0  0  0  0  0  0  0  0  0
    7.6254  -15.1283   27.3248 N   0  0  0  0  0  0  0  0  0  0  0  0
    7.4804  -13.8818   26.8659 C   0  0  0  0  0  0  0  0  0  0  0  0
    6.4626  -12.9615   27.0190 C   0  0  0  0  0  0  0  0  0  0  0  0
    6.5559  -11.7226   26.4347 C   0  0  0  0  0  0  0  0  0  0  0  0
    7.6822  -11.4259   25.6984 C   0  0  0  0  0  0  0  0  0  0  0  0
    8.7079  -12.3593   25.5467 C   0  0  0  0  0  0  0  0  0  0  0  0
    8.6310  -13.5959   26.1212 C   0  0  0  0  0  0  0  0  0  0  0  0
   11.2997  -17.2186   25.8524 C   0  0  0  0  0  0  0  0  0  0  0  0
   12.4270  -17.1591   26.6365 O   0  0  0  0  0  0  0  0  0  0  0  0
   10.5190  -18.1793   25.9833 O   0  0  0  0  0  0  0  0  0  0  0  0
  2  3  1  0
  2  1  1  6
  3  4  1  0
  5  6  2  0
  5  2  1  0
  8  7  1  0
  9 10  1  1
  9  8  1  0
 11 12  1  1
 11  9  1  0
 12  5  1  0
 13 11  1  0
 14 13  2  0
 15 13  1  0
 16 15  1  0
 16 17  1  1
 17 18  1  0
 18 26  1  0
 18 19  2  0
 19 20  1  0
 21 20  1  0
 21 22  2  0
 23 22  1  0
 24 23  2  0
 25 26  2  0
 25 24  1  0
 26 21  1  0
 27 16  1  0
 28 27  1  0
 29 27  2  0
M  END
$$$$
