CIW.pdb
     RDKit          3D

 29 30  0  0  1  0  0  0  0  0999 V2000
    5.8118  -19.6126   20.7222 N   0  0  0  0  0  0  0  0  0  0  0  0
    5.7934  -18.3857   21.4949 C   0  0  1  0  0  0  0  0  0  0  0  0
    5.5915  -18.7295   22.9553 C   0  0  0  0  0  0  0  0  0  0  0  0
    7.0852  -19.5239   23.6073 S   0  0  0  0  0  0  0  0  0  0  0  0
    7.0898  -17.6964   21.2713 C   0  0  0  0  0  0  0  0  0  0  0  0
    8.0737  -18.2954   20.7689 O   0  0  0  0  0  0  0  0  0  0  0  0
    6.8955  -12.6121   19.6449 C   0  0  0  0  0  0  0  0  0  0  0  0
    7.3882  -14.0116   19.9145 C   0  0  0  0  0  0  0  0  0  0  0  0
    8.1494  -14.1278   21.2124 C   0  0  2  0  0  0  0  0  0  0  0  0
    9.3204  -13.2052   21.2775 C   0  0  0  0  0  0  0  0  0  0  0  0
    8.4873  -15.5826   21.4339 C   0  0  2  0  0  0  0  0  0  0  0  0
    7.2516  -16.3124   21.6281 N   0  0  0  0  0  0  0  0  0  0  0  0
    9.4125  -15.7603   22.5866 C   0  0  0  0  0  0  0  0  0  0  0  0
   10.6084  -15.4061   22.4673 O   0  0  0  0  0  0  0  0  0  0  0  0
    9.0218  -16.3141   23.8336 N   0  0  0  0  0  0  0  0  0  0  0  0
    9.9518  -16.4028   24.9416 C   0  0  1  0  0  0  0  0  0  0  0  0
    9.6203  -15.4150   26.0416 C   0  0  0  0  0  0  0  0  0  0  0  0
    8.2049  -14.9933   25.9936 C   0  0  0  0  0  0  0  0  0  0  0  0
    7.1100  -15.8114   25.8326 C   0  0  0  0  0  0  0  0  0  0  0  0
    5.9803  -15.0434   25.8428 N   0  0  0  0  0  0  0  0  0  0  0  0
    6.3102  -13.7587   26.0047 C   0  0  0  0  0  0  0  0  0  0  0  0
    5.5378  -12.6167   26.0791 C   0  0  0  0  0  0  0  0  0  0  0  0
    6.1303  -11.3903   26.2519 C   0  0  0  0  0  0  0  0  0  0  0  0
    7.5037  -11.3311   26.3480 C   0  0  0  0  0  0  0  0  0  0  0  0
    8.2796  -12.4880   26.2722 C   0  0  0  0  0  0  0  0  0  0  0  0
    7.7063  -13.7157   26.1006 C   0  0  0  0  0  0  0  0  0  0  0  0
   10.0273  -17.7862   25.4814 C   0  0  0  0  0  0  0  0  0  0  0  0
    9.1624  -18.7902   25.1166 O   0  0  0  0  0  0  0  0  0  0  0  0
   10.9275  -18.0300   26.3060 O   0  0  0  0  0  0  0  0  0  0  0  0
  2  3  1  0
  2  1  1  6
  3  4  1  0
  5  6  2  0
  5  2  1  0
  8  7  1  0
  9 10  1  6
  9  8  1  0
 11 12  1  1
 11  9  1  0
 12  5  1  0
 13 11  1  0
 14 13  2  0
 15 13  1  0
 16 15  1  0
 16 17  1  1
 17 18  1  0
 18 26  1  0
 18 19  2  0
 19 20  1  0
 21 20  1  0
 21 22  2  0
 23 22  1  0
 24 23  2  0
 25 26  2  0
 25 24  1  0
 26 21  1  0
 27 16  1  0
 28 27  1  0
 29 27  2  0
M  END
$$$$
