CIW.pdb
     RDKit          3D

 29 30  0  0  1  0  0  0  0  0999 V2000
    6.4339  -19.4002   19.4948 N   0  0  0  0  0  0  0  0  0  0  0  0
    6.4744  -18.7278   20.7788 C   0  0  1  0  0  0  0  0  0  0  0  0
    6.7372  -19.7535   21.8609 C   0  0  0  0  0  0  0  0  0  0  0  0
    6.7184  -18.9462   23.4843 S   0  0  0  0  0  0  0  0  0  0  0  0
    7.5551  -17.7109   20.7177 C   0  0  0  0  0  0  0  0  0  0  0  0
    8.6243  -17.9259   20.0932 O   0  0  0  0  0  0  0  0  0  0  0  0
    6.5339  -12.7238   19.5353 C   0  0  0  0  0  0  0  0  0  0  0  0
    7.2168  -14.0340   19.8371 C   0  0  0  0  0  0  0  0  0  0  0  0
    7.8074  -14.0839   21.2250 C   0  0  2  0  0  0  0  0  0  0  0  0
    8.7106  -12.9302   21.5079 C   0  0  0  0  0  0  0  0  0  0  0  0
    8.4451  -15.4386   21.4194 C   0  0  2  0  0  0  0  0  0  0  0  0
    7.4021  -16.4425   21.3786 N   0  0  0  0  0  0  0  0  0  0  0  0
    9.2151  -15.5037   22.6918 C   0  0  0  0  0  0  0  0  0  0  0  0
   10.2547  -14.8144   22.8099 O   0  0  0  0  0  0  0  0  0  0  0  0
    8.8423  -16.3093   23.7991 N   0  0  0  0  0  0  0  0  0  0  0  0
    9.6407  -16.3417   25.0083 C   0  0  1  0  0  0  0  0  0  0  0  0
    8.7812  -16.3510   26.2561 C   0  0  0  0  0  0  0  0  0  0  0  0
    7.6588  -15.3949   26.1576 C   0  0  0  0  0  0  0  0  0  0  0  0
    6.3483  -15.6954   25.8644 C   0  0  0  0  0  0  0  0  0  0  0  0
    5.6192  -14.5402   25.8695 N   0  0  0  0  0  0  0  0  0  0  0  0
    6.4153  -13.5060   26.1558 C   0  0  0  0  0  0  0  0  0  0  0  0
    6.1552  -12.1554   26.2770 C   0  0  0  0  0  0  0  0  0  0  0  0
    7.1674  -11.2805   26.5853 C   0  0  0  0  0  0  0  0  0  0  0  0
    8.4376  -11.7825   26.7684 C   0  0  0  0  0  0  0  0  0  0  0  0
    8.6951  -13.1480   26.6449 C   0  0  0  0  0  0  0  0  0  0  0  0
    7.6998  -14.0318   26.3389 C   0  0  0  0  0  0  0  0  0  0  0  0
   10.5830  -17.4919   25.0095 C   0  0  0  0  0  0  0  0  0  0  0  0
   10.6099  -18.4504   24.0248 O   0  0  0  0  0  0  0  0  0  0  0  0
   11.3825  -17.5752   25.9600 O   0  0  0  0  0  0  0  0  0  0  0  0
  2  3  1  0
  2  1  1  6
  3  4  1  0
  5  6  2  0
  5  2  1  0
  8  7  1  0
  9 10  1  6
  9  8  1  0
 11 12  1  1
 11  9  1  0
 12  5  1  0
 13 11  1  0
 14 13  2  0
 15 13  1  0
 16 15  1  0
 16 17  1  1
 17 18  1  0
 18 26  1  0
 18 19  2  0
 19 20  1  0
 21 20  1  0
 21 22  2  0
 23 22  1  0
 24 23  2  0
 25 26  2  0
 25 24  1  0
 26 21  1  0
 27 16  1  0
 28 27  1  0
 29 27  2  0
M  END
$$$$
