CIW.pdb
     RDKit          3D

 29 30  0  0  1  0  0  0  0  0999 V2000
    8.7362  -18.6877   17.0894 N   0  0  0  0  0  0  0  0  0  0  0  0
    8.3030  -18.3754   18.4375 C   0  0  1  0  0  0  0  0  0  0  0  0
    8.3893  -19.6285   19.2826 C   0  0  0  0  0  0  0  0  0  0  0  0
    7.8259  -19.2680   20.9678 S   0  0  0  0  0  0  0  0  0  0  0  0
    9.1924  -17.3053   18.9569 C   0  0  0  0  0  0  0  0  0  0  0  0
   10.4223  -17.2914   18.6993 O   0  0  0  0  0  0  0  0  0  0  0  0
    6.7643  -12.5323   19.2437 C   0  0  0  0  0  0  0  0  0  0  0  0
    7.8197  -13.6006   19.1058 C   0  0  0  0  0  0  0  0  0  0  0  0
    8.4839  -13.9444   20.4166 C   0  0  2  0  0  0  0  0  0  0  0  0
    9.1017  -12.7578   21.0775 C   0  0  0  0  0  0  0  0  0  0  0  0
    9.4353  -15.0923   20.1780 C   0  0  2  0  0  0  0  0  0  0  0  0
    8.6616  -16.2485   19.7757 N   0  0  0  0  0  0  0  0  0  0  0  0
   10.2590  -15.3802   21.3841 C   0  0  0  0  0  0  0  0  0  0  0  0
   11.2912  -14.7012   21.5924 O   0  0  0  0  0  0  0  0  0  0  0  0
    9.9464  -16.3910   22.3301 N   0  0  0  0  0  0  0  0  0  0  0  0
    9.2853  -16.0729   23.5799 C   0  0  1  0  0  0  0  0  0  0  0  0
    8.0326  -15.2479   23.3658 C   0  0  0  0  0  0  0  0  0  0  0  0
    7.3434  -14.9542   24.6395 C   0  0  0  0  0  0  0  0  0  0  0  0
    6.5877  -15.8304   25.3846 C   0  0  0  0  0  0  0  0  0  0  0  0
    6.1231  -15.1802   26.4925 N   0  0  0  0  0  0  0  0  0  0  0  0
    6.5536  -13.9153   26.4865 C   0  0  0  0  0  0  0  0  0  0  0  0
    6.3564  -12.8760   27.3738 C   0  0  0  0  0  0  0  0  0  0  0  0
    6.9186  -11.6463   27.1354 C   0  0  0  0  0  0  0  0  0  0  0  0
    7.6774  -11.4795   25.9973 C   0  0  0  0  0  0  0  0  0  0  0  0
    7.8735  -12.5328   25.1039 C   0  0  0  0  0  0  0  0  0  0  0  0
    7.3217  -13.7622   25.3260 C   0  0  0  0  0  0  0  0  0  0  0  0
    8.9806  -17.2991   24.3637 C   0  0  0  0  0  0  0  0  0  0  0  0
    9.1836  -17.4020   25.7192 O   0  0  0  0  0  0  0  0  0  0  0  0
    8.5178  -18.2742   23.7433 O   0  0  0  0  0  0  0  0  0  0  0  0
  2  3  1  0
  2  1  1  6
  3  4  1  0
  5  6  2  0
  5  2  1  0
  8  7  1  0
  9 10  1  6
  9  8  1  0
 11 12  1  1
 11  9  1  0
 12  5  1  0
 13 11  1  0
 14 13  2  0
 15 13  1  0
 16 15  1  0
 16 17  1  6
 17 18  1  0
 18 26  1  0
 18 19  2  0
 19 20  1  0
 21 20  1  0
 21 22  2  0
 23 22  1  0
 24 23  2  0
 25 26  2  0
 25 24  1  0
 26 21  1  0
 27 16  1  0
 28 27  1  0
 29 27  2  0
M  END
$$$$
