KET.pdb
     RDKit          3D

 26 25  0  0  1  0  0  0  0  0999 V2000
   25.7419  -22.5439  -16.1728 N   0  0  0  0  0  0  0  0  0  0  0  0
   25.3969  -21.3465  -15.4690 C   0  0  1  0  0  0  0  0  0  0  0  0
   26.0937  -20.1687  -16.1681 C   0  0  0  0  0  0  0  0  0  0  0  0
   27.5522  -20.4751  -16.1468 C   0  0  0  0  0  0  0  0  0  0  0  0
   28.0946  -21.1822  -17.3356 C   0  0  0  0  0  0  0  0  0  0  0  0
   29.5765  -21.2932  -17.4176 C   0  0  0  0  0  0  0  0  0  0  0  0
   30.0703  -21.9057  -18.6122 N   0  0  0  0  0  0  0  0  0  0  0  0
   23.9300  -21.1079  -15.4306 C   0  0  0  0  0  0  0  0  0  0  0  0
   23.2104  -21.4915  -16.3853 O   0  0  0  0  0  0  0  0  0  0  0  0
   23.3220  -20.4597  -14.3465 N   0  0  0  0  0  0  0  0  0  0  0  0
   21.9015  -20.2486  -14.2059 C   0  0  1  0  0  0  0  0  0  0  0  0
   21.4174  -20.6401  -12.8171 C   0  0  0  0  0  0  0  0  0  0  0  0
   19.9065  -20.5997  -12.7351 C   0  0  0  0  0  0  0  0  0  0  0  0
   19.4795  -21.0392  -11.3835 C   0  0  0  0  0  0  0  0  0  0  0  0
   20.3430  -21.3028  -10.4870 O   0  0  0  0  0  0  0  0  0  0  0  0
   21.5303  -18.8350  -14.5071 C   0  0  0  0  0  0  0  0  0  0  0  0
   22.0657  -17.8955  -13.8658 O   0  0  0  0  0  0  0  0  0  0  0  0
   18.1543  -21.1777  -11.0489 O   0  0  0  0  0  0  0  0  0  0  0  0
   22.1147  -16.7555  -17.3674 C   0  0  0  0  0  0  0  0  0  0  0  0
   20.6160  -16.8816  -17.2762 C   0  0  1  0  0  0  0  0  0  0  0  0
   20.1934  -17.8456  -18.1630 O   0  0  0  0  0  0  0  0  0  0  0  0
   20.2034  -17.2215  -15.8479 C   0  0  2  0  0  0  0  0  0  0  0  0
   20.5665  -18.5794  -15.5264 N   0  0  0  0  0  0  0  0  0  0  0  0
   18.7600  -17.0291  -15.6410 C   0  0  0  0  0  0  0  0  0  0  0  0
   17.9480  -18.0946  -15.3100 O   0  0  0  0  0  0  0  0  0  0  0  0
   18.2226  -15.8964  -15.7580 O   0  0  0  0  0  0  0  0  0  0  0  0
  2  1  1  6
  2  3  1  0
  3  4  1  0
  5  6  1  0
  5  4  1  0
  7  6  1  0
  8  2  1  0
  9  8  2  0
 10  8  1  0
 11 10  1  0
 11 12  1  1
 13 12  1  0
 14 18  1  0
 14 13  1  0
 15 14  2  0
 16 11  1  0
 16 17  2  0
 20 19  1  1
 20 22  1  0
 20 21  1  0
 22 23  1  6
 23 16  1  0
 24 22  1  0
 25 24  1  0
 26 24  2  0
M  END
$$$$
