KET.pdb
     RDKit          3D

 26 25  0  0  1  0  0  0  0  0999 V2000
   18.5726  -14.6369  -17.2702 N   0  0  0  0  0  0  0  0  0  0  0  0
   18.4297  -13.3031  -17.7690 C   0  0  1  0  0  0  0  0  0  0  0  0
   17.0093  -12.8217  -17.4338 C   0  0  0  0  0  0  0  0  0  0  0  0
   16.0800  -13.6995  -18.2002 C   0  0  0  0  0  0  0  0  0  0  0  0
   14.6281  -13.4712  -17.9830 C   0  0  0  0  0  0  0  0  0  0  0  0
   13.7010  -14.3532  -18.7431 C   0  0  0  0  0  0  0  0  0  0  0  0
   12.3107  -14.0894  -18.5344 N   0  0  0  0  0  0  0  0  0  0  0  0
   19.4256  -12.3649  -17.1874 C   0  0  0  0  0  0  0  0  0  0  0  0
   19.8788  -12.5718  -16.0349 O   0  0  0  0  0  0  0  0  0  0  0  0
   19.8773  -11.2440  -17.8979 N   0  0  0  0  0  0  0  0  0  0  0  0
   20.8235  -10.2778  -17.3947 C   0  0  1  0  0  0  0  0  0  0  0  0
   21.7662   -9.8020  -18.4907 C   0  0  0  0  0  0  0  0  0  0  0  0
   22.8031  -10.8565  -18.8135 C   0  0  0  0  0  0  0  0  0  0  0  0
   23.6517  -10.3793  -19.9336 C   0  0  0  0  0  0  0  0  0  0  0  0
   24.5888   -9.5446  -19.7241 O   0  0  0  0  0  0  0  0  0  0  0  0
   20.1303   -9.1165  -16.7641 C   0  0  0  0  0  0  0  0  0  0  0  0
   19.3731   -8.3877  -17.4542 O   0  0  0  0  0  0  0  0  0  0  0  0
   23.4637  -10.8123  -21.2238 O   0  0  0  0  0  0  0  0  0  0  0  0
   17.7036   -9.1352  -14.0975 C   0  0  0  0  0  0  0  0  0  0  0  0
   18.8107   -8.2525  -13.5820 C   0  0  1  0  0  0  0  0  0  0  0  0
   19.5604   -8.9615  -12.6711 O   0  0  0  0  0  0  0  0  0  0  0  0
   19.6686   -7.7551  -14.7405 C   0  0  2  0  0  0  0  0  0  0  0  0
   20.3447   -8.8573  -15.3784 N   0  0  0  0  0  0  0  0  0  0  0  0
   20.6528   -6.7567  -14.2957 C   0  0  0  0  0  0  0  0  0  0  0  0
   22.0038   -7.0351  -14.3320 O   0  0  0  0  0  0  0  0  0  0  0  0
   20.2984   -5.6255  -13.8710 O   0  0  0  0  0  0  0  0  0  0  0  0
  2  1  1  1
  2  3  1  0
  3  4  1  0
  5  6  1  0
  5  4  1  0
  7  6  1  0
  8  2  1  0
  9  8  2  0
 10  8  1  0
 11 10  1  0
 11 12  1  6
 13 12  1  0
 14 18  1  0
 14 13  1  0
 15 14  2  0
 16 11  1  0
 16 17  2  0
 20 19  1  6
 20 22  1  0
 20 21  1  0
 22 23  1  1
 23 16  1  0
 24 22  1  0
 25 24  1  0
 26 24  2  0
M  END
$$$$
