KET.pdb
     RDKit          3D

 26 25  0  0  1  0  0  0  0  0999 V2000
   20.6433  -21.2683  -14.9083 N   0  0  0  0  0  0  0  0  0  0  0  0
   21.0193  -20.3723  -13.8575 C   0  0  1  0  0  0  0  0  0  0  0  0
   21.1392  -21.1873  -12.5603 C   0  0  0  0  0  0  0  0  0  0  0  0
   19.7949  -21.7832  -12.3168 C   0  0  0  0  0  0  0  0  0  0  0  0
   19.5320  -23.0992  -12.9542 C   0  0  0  0  0  0  0  0  0  0  0  0
   18.1656  -23.6598  -12.7704 C   0  0  0  0  0  0  0  0  0  0  0  0
   17.9846  -24.4296  -11.5785 N   0  0  0  0  0  0  0  0  0  0  0  0
   22.3045  -19.6767  -14.1313 C   0  0  0  0  0  0  0  0  0  0  0  0
   22.8192  -18.9470  -13.2486 O   0  0  0  0  0  0  0  0  0  0  0  0
   22.9641  -19.8147  -15.3605 N   0  0  0  0  0  0  0  0  0  0  0  0
   24.2245  -19.1951  -15.6916 C   0  0  1  0  0  0  0  0  0  0  0  0
   25.1742  -20.1864  -16.3486 C   0  0  0  0  0  0  0  0  0  0  0  0
   25.9617  -20.9567  -15.3105 C   0  0  0  0  0  0  0  0  0  0  0  0
   26.8556  -21.9236  -15.9949 C   0  0  0  0  0  0  0  0  0  0  0  0
   26.8699  -22.0032  -17.2647 O   0  0  0  0  0  0  0  0  0  0  0  0
   24.0296  -18.0024  -16.5671 C   0  0  0  0  0  0  0  0  0  0  0  0
   23.1918  -18.0419  -17.5037 O   0  0  0  0  0  0  0  0  0  0  0  0
   27.6923  -22.7602  -15.2967 O   0  0  0  0  0  0  0  0  0  0  0  0
   23.4039  -14.4104  -15.2555 C   0  0  0  0  0  0  0  0  0  0  0  0
   24.5968  -14.4075  -16.1760 C   0  0  1  0  0  0  0  0  0  0  0  0
   25.7458  -14.3738  -15.4190 O   0  0  0  0  0  0  0  0  0  0  0  0
   24.5642  -15.6338  -17.0821 C   0  0  2  0  0  0  0  0  0  0  0  0
   24.8065  -16.8328  -16.3188 N   0  0  0  0  0  0  0  0  0  0  0  0
   25.5475  -15.5287  -18.1709 C   0  0  0  0  0  0  0  0  0  0  0  0
   25.4253  -14.5522  -19.1381 O   0  0  0  0  0  0  0  0  0  0  0  0
   26.5241  -16.3190  -18.2556 O   0  0  0  0  0  0  0  0  0  0  0  0
  2  1  1  6
  2  3  1  0
  3  4  1  0
  5  6  1  0
  5  4  1  0
  7  6  1  0
  8  2  1  0
  9  8  2  0
 10  8  1  0
 11 10  1  0
 11 12  1  6
 13 12  1  0
 14 18  1  0
 14 13  1  0
 15 14  2  0
 16 11  1  0
 16 17  2  0
 20 19  1  1
 20 22  1  0
 20 21  1  0
 22 23  1  1
 23 16  1  0
 24 22  1  0
 25 24  1  0
 26 24  2  0
M  END
$$$$
