KET.pdb
     RDKit          3D

 26 25  0  0  1  0  0  0  0  0999 V2000
   16.7579  -11.3215  -17.5122 N   0  0  0  0  0  0  0  0  0  0  0  0
   17.7236  -11.0654  -16.4875 C   0  0  1  0  0  0  0  0  0  0  0  0
   18.8409  -12.1124  -16.6172 C   0  0  0  0  0  0  0  0  0  0  0  0
   18.1740  -13.4438  -16.5515 C   0  0  0  0  0  0  0  0  0  0  0  0
   18.8945  -14.5056  -15.8026 C   0  0  0  0  0  0  0  0  0  0  0  0
   18.2206  -15.8302  -15.7240 C   0  0  0  0  0  0  0  0  0  0  0  0
   18.9732  -16.8518  -15.0637 N   0  0  0  0  0  0  0  0  0  0  0  0
   18.3052   -9.7002  -16.5776 C   0  0  0  0  0  0  0  0  0  0  0  0
   19.4037   -9.5273  -17.1605 O   0  0  0  0  0  0  0  0  0  0  0  0
   17.6539   -8.5891  -16.0239 N   0  0  0  0  0  0  0  0  0  0  0  0
   18.1668   -7.2405  -16.0446 C   0  0  1  0  0  0  0  0  0  0  0  0
   17.0405   -6.2200  -16.1229 C   0  0  0  0  0  0  0  0  0  0  0  0
   17.5868   -4.8113  -16.2146 C   0  0  0  0  0  0  0  0  0  0  0  0
   16.4568   -3.8493  -16.2199 C   0  0  0  0  0  0  0  0  0  0  0  0
   15.2747   -4.2396  -15.9568 O   0  0  0  0  0  0  0  0  0  0  0  0
   19.0322   -6.9707  -14.8592 C   0  0  0  0  0  0  0  0  0  0  0  0
   18.6465   -7.3079  -13.7110 O   0  0  0  0  0  0  0  0  0  0  0  0
   16.6370   -2.5175  -16.5048 O   0  0  0  0  0  0  0  0  0  0  0  0
   23.0458   -7.0608  -15.2848 C   0  0  0  0  0  0  0  0  0  0  0  0
   22.3169   -7.1372  -13.9683 C   0  0  1  0  0  0  0  0  0  0  0  0
   23.2125   -6.9130  -12.9475 O   0  0  0  0  0  0  0  0  0  0  0  0
   21.1769   -6.1245  -13.9395 C   0  0  2  0  0  0  0  0  0  0  0  0
   20.2903   -6.3296  -15.0579 N   0  0  0  0  0  0  0  0  0  0  0  0
   21.6800   -4.7425  -13.9491 C   0  0  0  0  0  0  0  0  0  0  0  0
   21.2855   -3.8564  -14.9305 O   0  0  0  0  0  0  0  0  0  0  0  0
   22.4799   -4.3261  -13.0703 O   0  0  0  0  0  0  0  0  0  0  0  0
  2  1  1  6
  2  3  1  0
  3  4  1  0
  5  6  1  0
  5  4  1  0
  7  6  1  0
  8  2  1  0
  9  8  2  0
 10  8  1  0
 11 10  1  0
 11 12  1  1
 13 12  1  0
 14 18  1  0
 14 13  1  0
 15 14  2  0
 16 11  1  0
 16 17  2  0
 20 19  1  6
 20 22  1  0
 20 21  1  0
 22 23  1  6
 23 16  1  0
 24 22  1  0
 25 24  1  0
 26 24  2  0
M  END
$$$$
