KET.pdb
     RDKit          3D

 26 25  0  0  1  0  0  0  0  0999 V2000
   15.6557  -10.5836  -16.7083 N   0  0  0  0  0  0  0  0  0  0  0  0
   16.7546  -10.4805  -15.7973 C   0  0  1  0  0  0  0  0  0  0  0  0
   17.7403  -11.6161  -16.1138 C   0  0  0  0  0  0  0  0  0  0  0  0
   16.9521  -12.8799  -16.0574 C   0  0  0  0  0  0  0  0  0  0  0  0
   16.5223  -13.3290  -14.7079 C   0  0  0  0  0  0  0  0  0  0  0  0
   15.8303  -14.6449  -14.6402 C   0  0  0  0  0  0  0  0  0  0  0  0
   15.4553  -15.0622  -13.3244 N   0  0  0  0  0  0  0  0  0  0  0  0
   17.4537   -9.1717  -15.8899 C   0  0  0  0  0  0  0  0  0  0  0  0
   18.4183   -9.0343  -16.6818 O   0  0  0  0  0  0  0  0  0  0  0  0
   17.0613   -8.0754  -15.1092 N   0  0  0  0  0  0  0  0  0  0  0  0
   17.7040   -6.7836  -15.1234 C   0  0  1  0  0  0  0  0  0  0  0  0
   16.7337   -5.6772  -14.7353 C   0  0  0  0  0  0  0  0  0  0  0  0
   15.7087   -5.4443  -15.8245 C   0  0  0  0  0  0  0  0  0  0  0  0
   14.5258   -4.7621  -15.2433 C   0  0  0  0  0  0  0  0  0  0  0  0
   13.3501   -5.1710  -15.5065 O   0  0  0  0  0  0  0  0  0  0  0  0
   18.9006   -6.7628  -14.2320 C   0  0  0  0  0  0  0  0  0  0  0  0
   18.8174   -7.2089  -13.0596 O   0  0  0  0  0  0  0  0  0  0  0  0
   14.6490   -3.6772  -14.4096 O   0  0  0  0  0  0  0  0  0  0  0  0
   22.6866   -6.3971  -16.0134 C   0  0  0  0  0  0  0  0  0  0  0  0
   22.4183   -7.0570  -14.6856 C   0  0  1  0  0  0  0  0  0  0  0  0
   23.5871   -7.0929  -13.9597 O   0  0  0  0  0  0  0  0  0  0  0  0
   21.3225   -6.3052  -13.9373 C   0  0  2  0  0  0  0  0  0  0  0  0
   20.1243   -6.2316  -14.7359 N   0  0  0  0  0  0  0  0  0  0  0  0
   21.7550   -4.9507  -13.5613 C   0  0  0  0  0  0  0  0  0  0  0  0
   22.8017   -4.7646  -12.6816 O   0  0  0  0  0  0  0  0  0  0  0  0
   21.1898   -3.9256  -14.0254 O   0  0  0  0  0  0  0  0  0  0  0  0
  2  1  1  6
  2  3  1  0
  3  4  1  0
  5  6  1  0
  5  4  1  0
  7  6  1  0
  8  2  1  0
  9  8  2  0
 10  8  1  0
 11 10  1  0
 11 12  1  1
 13 12  1  0
 14 18  1  0
 14 13  1  0
 15 14  2  0
 16 11  1  0
 16 17  2  0
 20 19  1  6
 20 22  1  0
 20 21  1  0
 22 23  1  6
 23 16  1  0
 24 22  1  0
 25 24  1  0
 26 24  2  0
M  END
$$$$
