KET.pdb
     RDKit          3D

 26 25  0  0  1  0  0  0  0  0999 V2000
   22.6296  -20.2859  -11.9223 N   0  0  0  0  0  0  0  0  0  0  0  0
   24.0230  -19.9617  -11.8809 C   0  0  1  0  0  0  0  0  0  0  0  0
   24.7633  -21.1366  -11.2228 C   0  0  0  0  0  0  0  0  0  0  0  0
   23.8207  -21.7164  -10.2243 C   0  0  0  0  0  0  0  0  0  0  0  0
   23.9725  -21.2452   -8.8235 C   0  0  0  0  0  0  0  0  0  0  0  0
   23.0614  -21.8585   -7.8191 C   0  0  0  0  0  0  0  0  0  0  0  0
   23.2998  -21.4605   -6.4660 N   0  0  0  0  0  0  0  0  0  0  0  0
   24.5913  -19.7060  -13.2306 C   0  0  0  0  0  0  0  0  0  0  0  0
   25.8324  -19.5771  -13.3708 O   0  0  0  0  0  0  0  0  0  0  0  0
   23.7711  -19.6039  -14.3629 N   0  0  0  0  0  0  0  0  0  0  0  0
   24.1647  -18.9975  -15.6116 C   0  0  1  0  0  0  0  0  0  0  0  0
   23.5526  -19.7261  -16.7993 C   0  0  0  0  0  0  0  0  0  0  0  0
   24.0659  -19.1635  -18.1075 C   0  0  0  0  0  0  0  0  0  0  0  0
   23.4554  -19.9128  -19.2336 C   0  0  0  0  0  0  0  0  0  0  0  0
   22.7274  -20.9325  -19.0120 O   0  0  0  0  0  0  0  0  0  0  0  0
   23.8065  -17.5493  -15.6485 C   0  0  0  0  0  0  0  0  0  0  0  0
   22.7075  -17.1627  -15.1759 O   0  0  0  0  0  0  0  0  0  0  0  0
   23.6477  -19.5424  -20.5425 O   0  0  0  0  0  0  0  0  0  0  0  0
   26.9012  -14.8078  -16.3007 C   0  0  0  0  0  0  0  0  0  0  0  0
   25.6274  -14.4549  -15.5774 C   0  0  1  0  0  0  0  0  0  0  0  0
   25.4360  -13.0937  -15.6468 O   0  0  0  0  0  0  0  0  0  0  0  0
   24.4514  -15.2129  -16.1842 C   0  0  2  0  0  0  0  0  0  0  0  0
   24.7287  -16.6273  -16.2252 N   0  0  0  0  0  0  0  0  0  0  0  0
   24.1341  -14.7277  -17.5359 C   0  0  0  0  0  0  0  0  0  0  0  0
   23.3973  -13.5749  -17.7153 O   0  0  0  0  0  0  0  0  0  0  0  0
   24.5208  -15.3425  -18.5646 O   0  0  0  0  0  0  0  0  0  0  0  0
  2  1  1  6
  2  3  1  0
  3  4  1  0
  5  6  1  0
  5  4  1  0
  7  6  1  0
  8  2  1  0
  9  8  2  0
 10  8  1  0
 11 10  1  0
 11 12  1  6
 13 12  1  0
 14 18  1  0
 14 13  1  0
 15 14  2  0
 16 11  1  0
 16 17  2  0
 20 19  1  6
 20 22  1  0
 20 21  1  0
 22 23  1  6
 23 16  1  0
 24 22  1  0
 25 24  1  0
 26 24  2  0
M  END
$$$$
