KET.pdb
     RDKit          3D

 26 25  0  0  1  0  0  0  0  0999 V2000
   27.3983  -19.1244  -18.0706 N   0  0  0  0  0  0  0  0  0  0  0  0
   27.1125  -20.0885  -17.0522 C   0  0  1  0  0  0  0  0  0  0  0  0
   28.4198  -20.3856  -16.3010 C   0  0  0  0  0  0  0  0  0  0  0  0
   29.0261  -21.5703  -16.9724 C   0  0  0  0  0  0  0  0  0  0  0  0
   28.3026  -22.8585  -16.8161 C   0  0  0  0  0  0  0  0  0  0  0  0
   28.9431  -24.0533  -17.4304 C   0  0  0  0  0  0  0  0  0  0  0  0
   28.2212  -25.2770  -17.2644 N   0  0  0  0  0  0  0  0  0  0  0  0
   26.0803  -19.6171  -16.0916 C   0  0  0  0  0  0  0  0  0  0  0  0
   26.2733  -18.5642  -15.4354 O   0  0  0  0  0  0  0  0  0  0  0  0
   24.8852  -20.3233  -15.8964 N   0  0  0  0  0  0  0  0  0  0  0  0
   23.8681  -19.9691  -14.9362 C   0  0  1  0  0  0  0  0  0  0  0  0
   22.4814  -19.9925  -15.5629 C   0  0  0  0  0  0  0  0  0  0  0  0
   21.4228  -19.5881  -14.5594 C   0  0  0  0  0  0  0  0  0  0  0  0
   20.0801  -19.7953  -15.1566 C   0  0  0  0  0  0  0  0  0  0  0  0
   19.9525  -20.4159  -16.2600 O   0  0  0  0  0  0  0  0  0  0  0  0
   23.9145  -20.8625  -13.7418 C   0  0  0  0  0  0  0  0  0  0  0  0
   23.8723  -22.1103  -13.8897 O   0  0  0  0  0  0  0  0  0  0  0  0
   18.9363  -19.3329  -14.5522 O   0  0  0  0  0  0  0  0  0  0  0  0
   26.4134  -20.9538  -10.9183 C   0  0  0  0  0  0  0  0  0  0  0  0
   25.0617  -20.7226  -10.2938 C   0  0  1  0  0  0  0  0  0  0  0  0
   24.9610  -19.4013   -9.9218 O   0  0  0  0  0  0  0  0  0  0  0  0
   23.9579  -21.1099  -11.2723 C   0  0  2  0  0  0  0  0  0  0  0  0
   24.0068  -20.2742  -12.4461 N   0  0  0  0  0  0  0  0  0  0  0  0
   22.6278  -21.0198  -10.6512 C   0  0  0  0  0  0  0  0  0  0  0  0
   22.2970  -21.8194   -9.5763 O   0  0  0  0  0  0  0  0  0  0  0  0
   21.7550  -20.2175  -11.0757 O   0  0  0  0  0  0  0  0  0  0  0  0
  2  1  1  6
  2  3  1  0
  3  4  1  0
  5  6  1  0
  5  4  1  0
  7  6  1  0
  8  2  1  0
  9  8  2  0
 10  8  1  0
 11 10  1  0
 11 12  1  6
 13 12  1  0
 14 18  1  0
 14 13  1  0
 15 14  2  0
 16 11  1  0
 16 17  2  0
 20 19  1  6
 20 22  1  0
 20 21  1  0
 22 23  1  6
 23 16  1  0
 24 22  1  0
 25 24  1  0
 26 24  2  0
M  END
$$$$
