KET.pdb
     RDKit          3D

 26 25  0  0  1  0  0  0  0  0999 V2000
   18.7678  -26.2426   -9.9456 N   0  0  0  0  0  0  0  0  0  0  0  0
   18.4101  -24.8766   -9.7127 C   0  0  1  0  0  0  0  0  0  0  0  0
   19.3902  -24.2999   -8.6790 C   0  0  0  0  0  0  0  0  0  0  0  0
   18.6666  -24.2952   -7.3760 C   0  0  0  0  0  0  0  0  0  0  0  0
   18.0369  -25.5772   -6.9670 C   0  0  0  0  0  0  0  0  0  0  0  0
   17.3254  -25.5750   -5.6598 C   0  0  0  0  0  0  0  0  0  0  0  0
   16.6132  -26.7784   -5.3586 N   0  0  0  0  0  0  0  0  0  0  0  0
   18.4500  -24.0555  -10.9514 C   0  0  0  0  0  0  0  0  0  0  0  0
   19.0777  -24.4719  -11.9559 O   0  0  0  0  0  0  0  0  0  0  0  0
   17.7991  -22.8164  -11.0295 N   0  0  0  0  0  0  0  0  0  0  0  0
   17.6816  -22.0233  -12.2292 C   0  0  1  0  0  0  0  0  0  0  0  0
   16.3592  -21.2710  -12.2694 C   0  0  0  0  0  0  0  0  0  0  0  0
   16.2285  -20.4663  -13.5448 C   0  0  0  0  0  0  0  0  0  0  0  0
   14.8938  -19.8182  -13.5779 C   0  0  0  0  0  0  0  0  0  0  0  0
   13.9124  -20.3277  -12.9485 O   0  0  0  0  0  0  0  0  0  0  0  0
   18.8248  -21.0740  -12.3666 C   0  0  0  0  0  0  0  0  0  0  0  0
   19.0798  -20.2611  -11.4421 O   0  0  0  0  0  0  0  0  0  0  0  0
   14.6657  -18.6589  -14.2788 O   0  0  0  0  0  0  0  0  0  0  0  0
   22.3752  -21.5154  -12.5258 C   0  0  0  0  0  0  0  0  0  0  0  0
   22.0206  -20.8822  -13.8463 C   0  0  1  0  0  0  0  0  0  0  0  0
   21.9907  -21.8579  -14.8165 O   0  0  0  0  0  0  0  0  0  0  0  0
   20.6803  -20.1624  -13.7407 C   0  0  2  0  0  0  0  0  0  0  0  0
   19.6103  -21.1111  -13.5562 N   0  0  0  0  0  0  0  0  0  0  0  0
   20.4145  -19.3360  -14.9279 C   0  0  0  0  0  0  0  0  0  0  0  0
   21.2821  -18.3265  -15.2916 O   0  0  0  0  0  0  0  0  0  0  0  0
   19.3960  -19.5206  -15.6451 O   0  0  0  0  0  0  0  0  0  0  0  0
  2  1  1  6
  2  3  1  0
  3  4  1  0
  5  6  1  0
  5  4  1  0
  7  6  1  0
  8  2  1  0
  9  8  2  0
 10  8  1  0
 11 10  1  0
 11 12  1  1
 13 12  1  0
 14 18  1  0
 14 13  1  0
 15 14  2  0
 16 11  1  0
 16 17  2  0
 20 19  1  1
 20 22  1  0
 20 21  1  0
 22 23  1  6
 23 16  1  0
 24 22  1  0
 25 24  1  0
 26 24  2  0
M  END
$$$$
