YTH.pdb
     RDKit          3D

 30 31  0  0  1  0  0  0  0  0999 V2000
    7.6220  -12.8196   16.3250 O   0  0  0  0  0  0  0  0  0  0  0  0
    7.5839  -13.3791   17.6066 C   0  0  0  0  0  0  0  0  0  0  0  0
    7.7912  -12.5988   18.7223 C   0  0  0  0  0  0  0  0  0  0  0  0
    7.7541  -13.1495   19.9924 C   0  0  0  0  0  0  0  0  0  0  0  0
    7.5091  -14.4897   20.1665 C   0  0  0  0  0  0  0  0  0  0  0  0
    7.4751  -15.0481   21.5229 C   0  0  0  0  0  0  0  0  0  0  0  0
    8.8051  -14.9309   22.2454 C   0  0  2  0  0  0  0  0  0  0  0  0
    9.8407  -15.2523   21.2670 N   0  0  0  0  0  0  0  0  0  0  0  0
    8.8167  -15.9947   23.2909 C   0  0  0  0  0  0  0  0  0  0  0  0
    7.8349  -16.0292   24.0685 O   0  0  0  0  0  0  0  0  0  0  0  0
    7.3023  -15.2680   19.0529 C   0  0  0  0  0  0  0  0  0  0  0  0
    7.3357  -14.7341   17.7730 C   0  0  0  0  0  0  0  0  0  0  0  0
   10.2938  -19.7817   23.0215 C   0  0  0  0  0  0  0  0  0  0  0  0
   10.8430  -19.0382   24.2299 C   0  0  1  0  0  0  0  0  0  0  0  0
   12.0756  -18.5207   23.8543 O   0  0  0  0  0  0  0  0  0  0  0  0
    9.9236  -17.9033   24.5206 C   0  0  2  0  0  0  0  0  0  0  0  0
    9.8348  -16.9373   23.4542 N   0  0  0  0  0  0  0  0  0  0  0  0
   10.4158  -17.1713   25.7150 C   0  0  0  0  0  0  0  0  0  0  0  0
   10.5759  -15.8984   25.6856 O   0  0  0  0  0  0  0  0  0  0  0  0
   10.7447  -17.7641   26.9551 N   0  0  0  0  0  0  0  0  0  0  0  0
   10.9067  -16.9405   28.1666 C   0  0  1  0  0  0  0  0  0  0  0  0
    9.6464  -16.2200   28.4962 C   0  0  0  0  0  0  0  0  0  0  0  0
    9.5856  -14.8835   27.8903 C   0  0  0  0  0  0  0  0  0  0  0  0
   10.5771  -14.2595   27.1748 C   0  0  0  0  0  0  0  0  0  0  0  0
   10.1418  -13.0333   26.8084 N   0  0  0  0  0  0  0  0  0  0  0  0
    8.8986  -12.8799   27.2814 C   0  0  0  0  0  0  0  0  0  0  0  0
    8.5632  -14.0020   27.9368 N   0  0  0  0  0  0  0  0  0  0  0  0
   11.3003  -17.8434   29.2542 C   0  0  0  0  0  0  0  0  0  0  0  0
   11.7797  -17.3755   30.3115 O   0  0  0  0  0  0  0  0  0  0  0  0
   11.1639  -19.2155   29.1706 O   0  0  0  0  0  0  0  0  0  0  0  0
  2  3  2  0
  2  1  1  0
  4  3  1  0
  5  4  2  0
  6  5  1  0
  7  9  1  0
  7  6  1  0
  7  8  1  6
  9 10  2  0
 11  5  1  0
 11 12  2  0
 12  2  1  0
 14 13  1  6
 15 14  1  0
 16 14  1  0
 16 17  1  6
 17  9  1  0
 18 16  1  0
 19 18  2  0
 20 18  1  0
 21 20  1  0
 21 22  1  1
 23 22  1  0
 24 23  2  0
 25 26  1  0
 25 24  1  0
 26 27  2  0
 27 23  1  0
 28 30  1  0
 28 21  1  0
 29 28  2  0
M  END
$$$$
