YTH.pdb
     RDKit          3D

 30 31  0  0  1  0  0  0  0  0999 V2000
    4.7085  -10.2374   26.4254 O   0  0  0  0  0  0  0  0  0  0  0  0
    5.5288  -11.3335   26.1375 C   0  0  0  0  0  0  0  0  0  0  0  0
    5.4530  -12.4862   26.8873 C   0  0  0  0  0  0  0  0  0  0  0  0
    6.2636  -13.5729   26.6050 C   0  0  0  0  0  0  0  0  0  0  0  0
    7.1629  -13.5237   25.5680 C   0  0  0  0  0  0  0  0  0  0  0  0
    8.0101  -14.6891   25.2900 C   0  0  0  0  0  0  0  0  0  0  0  0
    7.5731  -15.4586   24.0566 C   0  0  2  0  0  0  0  0  0  0  0  0
    6.3577  -16.1800   24.4242 N   0  0  0  0  0  0  0  0  0  0  0  0
    8.6388  -16.4658   23.7835 C   0  0  0  0  0  0  0  0  0  0  0  0
    8.4469  -17.6215   24.2277 O   0  0  0  0  0  0  0  0  0  0  0  0
    7.2382  -12.3733   24.8201 C   0  0  0  0  0  0  0  0  0  0  0  0
    6.4345  -11.2748   25.0880 C   0  0  0  0  0  0  0  0  0  0  0  0
   12.8116  -17.9098   21.5913 C   0  0  0  0  0  0  0  0  0  0  0  0
   11.7509  -16.8244   21.6968 C   0  0  1  0  0  0  0  0  0  0  0  0
   10.9668  -16.9195   20.5547 O   0  0  0  0  0  0  0  0  0  0  0  0
   10.9008  -17.1342   22.8797 C   0  0  2  0  0  0  0  0  0  0  0  0
    9.8154  -16.2060   23.0766 N   0  0  0  0  0  0  0  0  0  0  0  0
   11.7345  -17.0773   24.1071 C   0  0  0  0  0  0  0  0  0  0  0  0
   11.8529  -15.9853   24.7707 O   0  0  0  0  0  0  0  0  0  0  0  0
   12.4528  -18.1643   24.6546 N   0  0  0  0  0  0  0  0  0  0  0  0
   12.6832  -18.2622   26.1071 C   0  0  1  0  0  0  0  0  0  0  0  0
   11.4088  -18.1140   26.8621 C   0  0  0  0  0  0  0  0  0  0  0  0
   11.3397  -16.8519   27.6101 C   0  0  0  0  0  0  0  0  0  0  0  0
   12.3139  -15.8879   27.6873 C   0  0  0  0  0  0  0  0  0  0  0  0
   11.8769  -14.8927   28.4911 N   0  0  0  0  0  0  0  0  0  0  0  0
   10.6497  -15.2170   28.9170 C   0  0  0  0  0  0  0  0  0  0  0  0
   10.3258  -16.4046   28.3822 N   0  0  0  0  0  0  0  0  0  0  0  0
   13.2995  -19.5696   26.3602 C   0  0  0  0  0  0  0  0  0  0  0  0
   12.8188  -20.5988   25.8342 O   0  0  0  0  0  0  0  0  0  0  0  0
   14.4101  -19.7271   27.1662 O   0  0  0  0  0  0  0  0  0  0  0  0
  2  3  2  0
  2  1  1  0
  4  3  1  0
  5  4  2  0
  6  5  1  0
  7  9  1  0
  7  6  1  0
  7  8  1  1
  9 10  2  0
 11  5  1  0
 11 12  2  0
 12  2  1  0
 14 13  1  6
 15 14  1  0
 16 14  1  0
 16 17  1  1
 17  9  1  0
 18 16  1  0
 19 18  2  0
 20 18  1  0
 21 20  1  0
 21 22  1  1
 23 22  1  0
 24 23  2  0
 25 26  1  0
 25 24  1  0
 26 27  2  0
 27 23  1  0
 28 30  1  0
 28 21  1  0
 29 28  2  0
M  END
$$$$
