YTH.pdb
     RDKit          3D

 30 31  0  0  1  0  0  0  0  0999 V2000
    8.8188  -13.8493   16.4116 O   0  0  0  0  0  0  0  0  0  0  0  0
    8.2389  -13.9572   17.6802 C   0  0  0  0  0  0  0  0  0  0  0  0
    7.5153  -15.0752   18.0311 C   0  0  0  0  0  0  0  0  0  0  0  0
    6.9400  -15.1852   19.2859 C   0  0  0  0  0  0  0  0  0  0  0  0
    7.0795  -14.1783   20.2097 C   0  0  0  0  0  0  0  0  0  0  0  0
    6.4599  -14.3199   21.5322 C   0  0  0  0  0  0  0  0  0  0  0  0
    7.4466  -14.1381   22.6714 C   0  0  2  0  0  0  0  0  0  0  0  0
    8.5445  -13.3303   22.1471 N   0  0  0  0  0  0  0  0  0  0  0  0
    7.9851  -15.4925   22.9884 C   0  0  0  0  0  0  0  0  0  0  0  0
    7.1529  -16.3593   23.3433 O   0  0  0  0  0  0  0  0  0  0  0  0
    7.8016  -13.0630   19.8592 C   0  0  0  0  0  0  0  0  0  0  0  0
    8.3850  -12.9351   18.6071 C   0  0  0  0  0  0  0  0  0  0  0  0
   11.4201  -18.9658   23.0081 C   0  0  0  0  0  0  0  0  0  0  0  0
   10.9999  -17.6007   22.4841 C   0  0  1  0  0  0  0  0  0  0  0  0
   10.4955  -17.8012   21.2061 O   0  0  0  0  0  0  0  0  0  0  0  0
    9.8985  -17.1007   23.3529 C   0  0  2  0  0  0  0  0  0  0  0  0
    9.3341  -15.8483   22.9156 N   0  0  0  0  0  0  0  0  0  0  0  0
   10.4238  -16.8729   24.7229 C   0  0  0  0  0  0  0  0  0  0  0  0
   10.6511  -15.6844   25.1501 O   0  0  0  0  0  0  0  0  0  0  0  0
   10.7156  -17.8877   25.6622 N   0  0  0  0  0  0  0  0  0  0  0  0
   10.6967  -17.6060   27.1088 C   0  0  1  0  0  0  0  0  0  0  0  0
    9.3569  -17.1232   27.5423 C   0  0  0  0  0  0  0  0  0  0  0  0
    9.3316  -15.6756   27.7893 C   0  0  0  0  0  0  0  0  0  0  0  0
    8.7870  -14.7125   26.9767 C   0  0  0  0  0  0  0  0  0  0  0  0
    8.9881  -13.5019   27.5437 N   0  0  0  0  0  0  0  0  0  0  0  0
    9.6474  -13.6907   28.6935 C   0  0  0  0  0  0  0  0  0  0  0  0
    9.8549  -15.0085   28.8408 N   0  0  0  0  0  0  0  0  0  0  0  0
   11.0591  -18.8503   27.7967 C   0  0  0  0  0  0  0  0  0  0  0  0
   10.8394  -19.9538   27.2482 O   0  0  0  0  0  0  0  0  0  0  0  0
   11.6459  -18.8676   29.0471 O   0  0  0  0  0  0  0  0  0  0  0  0
  2  3  2  0
  2  1  1  0
  4  3  1  0
  5  4  2  0
  6  5  1  0
  7  9  1  0
  7  6  1  0
  7  8  1  6
  9 10  2  0
 11  5  1  0
 11 12  2  0
 12  2  1  0
 14 13  1  1
 15 14  1  0
 16 14  1  0
 16 17  1  6
 17  9  1  0
 18 16  1  0
 19 18  2  0
 20 18  1  0
 21 20  1  0
 21 22  1  1
 23 22  1  0
 24 23  2  0
 25 26  1  0
 25 24  1  0
 26 27  2  0
 27 23  1  0
 28 30  1  0
 28 21  1  0
 29 28  2  0
M  END
$$$$
