YTH.pdb
     RDKit          3D

 30 31  0  0  1  0  0  0  0  0999 V2000
    8.9367  -13.3718   23.2183 O   0  0  0  0  0  0  0  0  0  0  0  0
    8.6800  -13.5630   21.8564 C   0  0  0  0  0  0  0  0  0  0  0  0
    8.5165  -12.4870   21.0126 C   0  0  0  0  0  0  0  0  0  0  0  0
    8.2624  -12.6728   19.6640 C   0  0  0  0  0  0  0  0  0  0  0  0
    8.1678  -13.9382   19.1382 C   0  0  0  0  0  0  0  0  0  0  0  0
    7.8977  -14.1074   17.7059 C   0  0  0  0  0  0  0  0  0  0  0  0
    9.1373  -13.9410   16.8455 C   0  0  2  0  0  0  0  0  0  0  0  0
    8.7567  -14.3223   15.4881 N   0  0  0  0  0  0  0  0  0  0  0  0
   10.1340  -14.9353   17.3382 C   0  0  0  0  0  0  0  0  0  0  0  0
    9.8769  -16.1426   17.1233 O   0  0  0  0  0  0  0  0  0  0  0  0
    8.3310  -15.0116   19.9806 C   0  0  0  0  0  0  0  0  0  0  0  0
    8.5861  -14.8450   21.3339 C   0  0  0  0  0  0  0  0  0  0  0  0
   13.2437  -15.9786   16.2023 C   0  0  0  0  0  0  0  0  0  0  0  0
   13.5774  -15.4696   17.5966 C   0  0  1  0  0  0  0  0  0  0  0  0
   13.9350  -14.1348   17.4598 O   0  0  0  0  0  0  0  0  0  0  0  0
   12.3359  -15.5438   18.4158 C   0  0  2  0  0  0  0  0  0  0  0  0
   11.3142  -14.6106   18.0115 N   0  0  0  0  0  0  0  0  0  0  0  0
   12.6647  -15.2259   19.8284 C   0  0  0  0  0  0  0  0  0  0  0  0
   12.7642  -14.0084   20.2218 O   0  0  0  0  0  0  0  0  0  0  0  0
   12.8915  -16.1798   20.8462 N   0  0  0  0  0  0  0  0  0  0  0  0
   13.3368  -15.7616   22.1876 C   0  0  1  0  0  0  0  0  0  0  0  0
   13.0148  -16.7989   23.2057 C   0  0  0  0  0  0  0  0  0  0  0  0
   11.5694  -16.9553   23.4141 C   0  0  0  0  0  0  0  0  0  0  0  0
   10.6288  -15.9556   23.4337 C   0  0  0  0  0  0  0  0  0  0  0  0
    9.4175  -16.5042   23.6768 N   0  0  0  0  0  0  0  0  0  0  0  0
    9.5838  -17.8260   23.8096 C   0  0  0  0  0  0  0  0  0  0  0  0
   10.8884  -18.0977   23.6502 N   0  0  0  0  0  0  0  0  0  0  0  0
   14.7832  -15.5272   22.1098 C   0  0  0  0  0  0  0  0  0  0  0  0
   15.4094  -15.8281   21.0686 O   0  0  0  0  0  0  0  0  0  0  0  0
   15.5065  -14.9768   23.1500 O   0  0  0  0  0  0  0  0  0  0  0  0
  2  3  2  0
  2  1  1  0
  4  3  1  0
  5  4  2  0
  6  5  1  0
  7  9  1  0
  7  6  1  0
  7  8  1  6
  9 10  2  0
 11  5  1  0
 11 12  2  0
 12  2  1  0
 14 13  1  6
 15 14  1  0
 16 14  1  0
 16 17  1  6
 17  9  1  0
 18 16  1  0
 19 18  2  0
 20 18  1  0
 21 20  1  0
 21 22  1  1
 23 22  1  0
 24 23  2  0
 25 26  1  0
 25 24  1  0
 26 27  2  0
 27 23  1  0
 28 30  1  0
 28 21  1  0
 29 28  2  0
M  END
$$$$
