YTH.pdb
     RDKit          3D

 30 31  0  0  1  0  0  0  0  0999 V2000
    8.1236  -11.9034   17.5601 O   0  0  0  0  0  0  0  0  0  0  0  0
    8.1871  -12.7669   18.6589 C   0  0  0  0  0  0  0  0  0  0  0  0
    9.3981  -13.1007   19.2234 C   0  0  0  0  0  0  0  0  0  0  0  0
    9.4645  -13.9552   20.3112 C   0  0  0  0  0  0  0  0  0  0  0  0
    8.3202  -14.4894   20.8515 C   0  0  0  0  0  0  0  0  0  0  0  0
    8.4182  -15.3922   22.0040 C   0  0  0  0  0  0  0  0  0  0  0  0
    9.0536  -16.7269   21.6588 C   0  0  2  0  0  0  0  0  0  0  0  0
    8.1499  -17.3888   20.7217 N   0  0  0  0  0  0  0  0  0  0  0  0
    9.0743  -17.5267   22.9176 C   0  0  0  0  0  0  0  0  0  0  0  0
    8.4206  -18.5957   22.9152 O   0  0  0  0  0  0  0  0  0  0  0  0
    7.1120  -14.1560   20.2878 C   0  0  0  0  0  0  0  0  0  0  0  0
    7.0260  -13.3019   19.1982 C   0  0  0  0  0  0  0  0  0  0  0  0
    9.9843  -20.0635   23.9547 C   0  0  0  0  0  0  0  0  0  0  0  0
   10.7466  -19.2301   24.9740 C   0  0  1  0  0  0  0  0  0  0  0  0
   11.9429  -18.8607   24.3736 O   0  0  0  0  0  0  0  0  0  0  0  0
    9.9518  -17.9988   25.2387 C   0  0  2  0  0  0  0  0  0  0  0  0
    9.7641  -17.1654   24.0775 N   0  0  0  0  0  0  0  0  0  0  0  0
   10.6602  -17.1687   26.2456 C   0  0  0  0  0  0  0  0  0  0  0  0
   11.6920  -16.4789   25.9196 O   0  0  0  0  0  0  0  0  0  0  0  0
   10.2950  -17.0503   27.6057 N   0  0  0  0  0  0  0  0  0  0  0  0
   11.0459  -16.1663   28.5150 C   0  0  1  0  0  0  0  0  0  0  0  0
   10.1805  -15.0708   29.0319 C   0  0  0  0  0  0  0  0  0  0  0  0
    9.5972  -14.2577   27.9568 C   0  0  0  0  0  0  0  0  0  0  0  0
   10.2092  -13.8799   26.7876 C   0  0  0  0  0  0  0  0  0  0  0  0
    9.3494  -13.1191   26.0739 N   0  0  0  0  0  0  0  0  0  0  0  0
    8.2135  -13.0147   26.7747 C   0  0  0  0  0  0  0  0  0  0  0  0
    8.3653  -13.7052   27.9155 N   0  0  0  0  0  0  0  0  0  0  0  0
   11.5529  -17.0015   29.6097 C   0  0  0  0  0  0  0  0  0  0  0  0
   11.2678  -18.2197   29.6492 O   0  0  0  0  0  0  0  0  0  0  0  0
   12.3491  -16.5019   30.6219 O   0  0  0  0  0  0  0  0  0  0  0  0
  2  3  2  0
  2  1  1  0
  4  3  1  0
  5  4  2  0
  6  5  1  0
  7  9  1  0
  7  6  1  0
  7  8  1  6
  9 10  2  0
 11  5  1  0
 11 12  2  0
 12  2  1  0
 14 13  1  6
 15 14  1  0
 16 14  1  0
 16 17  1  6
 17  9  1  0
 18 16  1  0
 19 18  2  0
 20 18  1  0
 21 20  1  0
 21 22  1  1
 23 22  1  0
 24 23  2  0
 25 26  1  0
 25 24  1  0
 26 27  2  0
 27 23  1  0
 28 30  1  0
 28 21  1  0
 29 28  2  0
M  END
$$$$
