YTH.pdb
     RDKit          3D

 30 31  0  0  1  0  0  0  0  0999 V2000
    8.3734  -21.9598   12.9942 O   0  0  0  0  0  0  0  0  0  0  0  0
    8.7020  -21.0124   13.9698 C   0  0  0  0  0  0  0  0  0  0  0  0
   10.0103  -20.6316   14.1692 C   0  0  0  0  0  0  0  0  0  0  0  0
   10.3390  -19.6941   15.1341 C   0  0  0  0  0  0  0  0  0  0  0  0
    9.3639  -19.1228   15.9148 C   0  0  0  0  0  0  0  0  0  0  0  0
    9.7390  -18.1320   16.9300 C   0  0  0  0  0  0  0  0  0  0  0  0
    9.2595  -16.7309   16.5962 C   0  0  2  0  0  0  0  0  0  0  0  0
   10.0533  -16.2791   15.4566 N   0  0  0  0  0  0  0  0  0  0  0  0
    9.6066  -15.8724   17.7655 C   0  0  0  0  0  0  0  0  0  0  0  0
   10.7108  -15.2818   17.7210 O   0  0  0  0  0  0  0  0  0  0  0  0
    8.0586  -19.5032   15.7153 C   0  0  0  0  0  0  0  0  0  0  0  0
    7.7103  -20.4405   14.7538 C   0  0  0  0  0  0  0  0  0  0  0  0
    7.5379  -13.0509   19.3199 C   0  0  0  0  0  0  0  0  0  0  0  0
    7.8991  -14.0123   20.4423 C   0  0  1  0  0  0  0  0  0  0  0  0
    6.8176  -14.8692   20.5981 O   0  0  0  0  0  0  0  0  0  0  0  0
    9.0735  -14.8114   19.9949 C   0  0  2  0  0  0  0  0  0  0  0  0
    8.7929  -15.6890   18.8861 N   0  0  0  0  0  0  0  0  0  0  0  0
    9.5299  -15.6748   21.1133 C   0  0  0  0  0  0  0  0  0  0  0  0
    9.2328  -16.9229   21.1431 O   0  0  0  0  0  0  0  0  0  0  0  0
   10.3044  -15.2412   22.2130 N   0  0  0  0  0  0  0  0  0  0  0  0
   10.5591  -16.1353   23.3567 C   0  0  1  0  0  0  0  0  0  0  0  0
   12.0155  -16.2246   23.6520 C   0  0  0  0  0  0  0  0  0  0  0  0
   12.7336  -17.0780   22.6965 C   0  0  0  0  0  0  0  0  0  0  0  0
   12.1820  -17.8228   21.6839 C   0  0  0  0  0  0  0  0  0  0  0  0
   13.1713  -18.4864   21.0448 N   0  0  0  0  0  0  0  0  0  0  0  0
   14.3288  -18.1705   21.6389 C   0  0  0  0  0  0  0  0  0  0  0  0
   14.0618  -17.3170   22.6396 N   0  0  0  0  0  0  0  0  0  0  0  0
    9.8189  -15.5940   24.5022 C   0  0  0  0  0  0  0  0  0  0  0  0
    9.8355  -16.1983   25.5983 O   0  0  0  0  0  0  0  0  0  0  0  0
    9.0892  -14.4232   24.4328 O   0  0  0  0  0  0  0  0  0  0  0  0
  2  3  2  0
  2  1  1  0
  4  3  1  0
  5  4  2  0
  6  5  1  0
  7  9  1  0
  7  6  1  0
  7  8  1  6
  9 10  2  0
 11  5  1  0
 11 12  2  0
 12  2  1  0
 14 13  1  6
 15 14  1  0
 16 14  1  0
 16 17  1  6
 17  9  1  0
 18 16  1  0
 19 18  2  0
 20 18  1  0
 21 20  1  0
 21 22  1  1
 23 22  1  0
 24 23  2  0
 25 26  1  0
 25 24  1  0
 26 27  2  0
 27 23  1  0
 28 30  1  0
 28 21  1  0
 29 28  2  0
M  END
$$$$
