YTH.pdb
     RDKit          3D

 30 31  0  0  1  0  0  0  0  0999 V2000
    7.7671  -11.6767   17.4863 O   0  0  0  0  0  0  0  0  0  0  0  0
    7.8693  -12.6083   18.5249 C   0  0  0  0  0  0  0  0  0  0  0  0
    9.0523  -12.7716   19.2108 C   0  0  0  0  0  0  0  0  0  0  0  0
    9.1568  -13.6930   20.2394 C   0  0  0  0  0  0  0  0  0  0  0  0
    8.0793  -14.4656   20.5981 C   0  0  0  0  0  0  0  0  0  0  0  0
    8.2166  -15.4343   21.6916 C   0  0  0  0  0  0  0  0  0  0  0  0
    8.9443  -16.6996   21.2744 C   0  0  2  0  0  0  0  0  0  0  0  0
    8.0943  -17.3641   20.2901 N   0  0  0  0  0  0  0  0  0  0  0  0
    9.0118  -17.5702   22.4836 C   0  0  0  0  0  0  0  0  0  0  0  0
    8.2011  -18.5241   22.5352 O   0  0  0  0  0  0  0  0  0  0  0  0
    6.8991  -14.3023   19.9134 C   0  0  0  0  0  0  0  0  0  0  0  0
    6.7756  -13.3846   18.8805 C   0  0  0  0  0  0  0  0  0  0  0  0
    9.8377  -20.1343   22.9157 C   0  0  0  0  0  0  0  0  0  0  0  0
   10.7857  -19.6392   23.9978 C   0  0  1  0  0  0  0  0  0  0  0  0
   11.9909  -19.3503   23.3715 O   0  0  0  0  0  0  0  0  0  0  0  0
   10.2249  -18.3741   24.5481 C   0  0  2  0  0  0  0  0  0  0  0  0
    9.9057  -17.3919   23.5423 N   0  0  0  0  0  0  0  0  0  0  0  0
   11.2264  -17.7483   25.4482 C   0  0  0  0  0  0  0  0  0  0  0  0
   11.9131  -16.7349   25.0632 O   0  0  0  0  0  0  0  0  0  0  0  0
   11.5191  -18.1759   26.7630 N   0  0  0  0  0  0  0  0  0  0  0  0
   11.1431  -17.3526   27.9262 C   0  0  1  0  0  0  0  0  0  0  0  0
    9.7726  -16.7940   27.7658 C   0  0  0  0  0  0  0  0  0  0  0  0
    9.7633  -15.3260   27.7209 C   0  0  0  0  0  0  0  0  0  0  0  0
   10.8394  -14.4916   27.8947 C   0  0  0  0  0  0  0  0  0  0  0  0
   10.4150  -13.2114   27.8033 N   0  0  0  0  0  0  0  0  0  0  0  0
    9.0957  -13.2307   27.5764 C   0  0  0  0  0  0  0  0  0  0  0  0
    8.7024  -14.5129   27.5268 N   0  0  0  0  0  0  0  0  0  0  0  0
   11.2285  -18.2135   29.1114 C   0  0  0  0  0  0  0  0  0  0  0  0
   10.7631  -19.3749   29.0742 O   0  0  0  0  0  0  0  0  0  0  0  0
   11.8114  -17.7998   30.2934 O   0  0  0  0  0  0  0  0  0  0  0  0
  2  3  2  0
  2  1  1  0
  4  3  1  0
  5  4  2  0
  6  5  1  0
  7  9  1  0
  7  6  1  0
  7  8  1  6
  9 10  2  0
 11  5  1  0
 11 12  2  0
 12  2  1  0
 14 13  1  6
 15 14  1  0
 16 14  1  0
 16 17  1  6
 17  9  1  0
 18 16  1  0
 19 18  2  0
 20 18  1  0
 21 20  1  0
 21 22  1  6
 23 22  1  0
 24 23  2  0
 25 26  1  0
 25 24  1  0
 26 27  2  0
 27 23  1  0
 28 30  1  0
 28 21  1  0
 29 28  2  0
M  END
$$$$
