YTH.pdb
     RDKit          3D

 30 31  0  0  1  0  0  0  0  0999 V2000
   18.4484  -13.9732   17.2647 O   0  0  0  0  0  0  0  0  0  0  0  0
   17.1678  -14.0374   17.8244 C   0  0  0  0  0  0  0  0  0  0  0  0
   16.2458  -13.0416   17.5898 C   0  0  0  0  0  0  0  0  0  0  0  0
   14.9774  -13.1022   18.1424 C   0  0  0  0  0  0  0  0  0  0  0  0
   14.6113  -14.1599   18.9384 C   0  0  0  0  0  0  0  0  0  0  0  0
   13.2612  -14.1998   19.5116 C   0  0  0  0  0  0  0  0  0  0  0  0
   12.3808  -15.2634   18.8807 C   0  0  2  0  0  0  0  0  0  0  0  0
   11.8678  -14.6959   17.6366 N   0  0  0  0  0  0  0  0  0  0  0  0
   11.2261  -15.4627   19.8037 C   0  0  0  0  0  0  0  0  0  0  0  0
   10.1983  -14.7845   19.5725 O   0  0  0  0  0  0  0  0  0  0  0  0
   15.5317  -15.1533   19.1722 C   0  0  0  0  0  0  0  0  0  0  0  0
   16.8067  -15.1098   18.6274 C   0  0  0  0  0  0  0  0  0  0  0  0
    9.0250  -18.2102   20.2639 C   0  0  0  0  0  0  0  0  0  0  0  0
    9.5870  -18.0061   21.6628 C   0  0  1  0  0  0  0  0  0  0  0  0
   10.6646  -18.8724   21.7908 O   0  0  0  0  0  0  0  0  0  0  0  0
   10.0929  -16.6080   21.7489 C   0  0  2  0  0  0  0  0  0  0  0  0
   11.2192  -16.3418   20.8894 N   0  0  0  0  0  0  0  0  0  0  0  0
   10.5465  -16.3387   23.1368 C   0  0  0  0  0  0  0  0  0  0  0  0
   11.7737  -16.5082   23.4714 O   0  0  0  0  0  0  0  0  0  0  0  0
    9.7199  -15.8871   24.1905 N   0  0  0  0  0  0  0  0  0  0  0  0
   10.2529  -15.7343   25.5561 C   0  0  1  0  0  0  0  0  0  0  0  0
    9.3849  -14.8419   26.3725 C   0  0  0  0  0  0  0  0  0  0  0  0
    9.7980  -14.7875   27.7809 C   0  0  0  0  0  0  0  0  0  0  0  0
   10.8108  -15.5038   28.3687 C   0  0  0  0  0  0  0  0  0  0  0  0
   10.8589  -15.1892   29.6825 N   0  0  0  0  0  0  0  0  0  0  0  0
    9.8961  -14.2913   29.9259 C   0  0  0  0  0  0  0  0  0  0  0  0
    9.2541  -14.0490   28.7724 N   0  0  0  0  0  0  0  0  0  0  0  0
   10.3317  -17.0771   26.1425 C   0  0  0  0  0  0  0  0  0  0  0  0
    9.4547  -17.9286   25.8730 O   0  0  0  0  0  0  0  0  0  0  0  0
   11.3489  -17.4601   26.9950 O   0  0  0  0  0  0  0  0  0  0  0  0
  2  3  2  0
  2  1  1  0
  4  3  1  0
  5  4  2  0
  6  5  1  0
  7  9  1  0
  7  6  1  0
  7  8  1  6
  9 10  2  0
 11  5  1  0
 11 12  2  0
 12  2  1  0
 14 13  1  6
 15 14  1  0
 16 14  1  0
 16 17  1  6
 17  9  1  0
 18 16  1  0
 19 18  2  0
 20 18  1  0
 21 20  1  0
 21 22  1  1
 23 22  1  0
 24 23  2  0
 25 26  1  0
 25 24  1  0
 26 27  2  0
 27 23  1  0
 28 30  1  0
 28 21  1  0
 29 28  2  0
M  END
$$$$
