MYY.pdb
     RDKit          3D

 33 34  0  0  1  0  0  0  0  0999 V2000
   11.6097  -18.8108   11.4849 C   0  0  0  0  0  0  0  0  0  0  0  0
   10.7030  -17.2614   11.7362 S   0  0  0  0  0  0  0  0  0  0  0  0
   10.2590  -17.0468   13.4953 C   0  0  0  0  0  0  0  0  0  0  0  0
   11.5009  -17.0184   14.3432 C   0  0  0  0  0  0  0  0  0  0  0  0
   11.2100  -17.0412   15.7913 C   0  0  2  0  0  0  0  0  0  0  0  0
   10.1564  -15.9991   15.9798 N   0  0  0  0  0  0  0  0  0  0  0  0
   12.2737  -16.7024   16.7187 C   0  0  0  0  0  0  0  0  0  0  0  0
   13.3202  -17.4288   16.7499 O   0  0  0  0  0  0  0  0  0  0  0  0
   18.9820  -12.6944   20.3721 O   0  0  0  0  0  0  0  0  0  0  0  0
   17.7159  -12.9681   19.8778 C   0  0  0  0  0  0  0  0  0  0  0  0
   17.5097  -13.0697   18.5237 C   0  0  0  0  0  0  0  0  0  0  0  0
   16.2595  -13.3411   18.0106 C   0  0  0  0  0  0  0  0  0  0  0  0
   15.1477  -13.5258   18.8207 C   0  0  0  0  0  0  0  0  0  0  0  0
   13.7948  -13.8169   18.3290 C   0  0  0  0  0  0  0  0  0  0  0  0
   13.4808  -15.2939   18.4207 C   0  0  2  0  0  0  0  0  0  0  0  0
   12.3020  -15.6178   17.6317 N   0  0  0  0  0  0  0  0  0  0  0  0
   13.4435  -15.7999   19.7951 C   0  0  0  0  0  0  0  0  0  0  0  0
   12.4687  -15.4333   20.5210 O   0  0  0  0  0  0  0  0  0  0  0  0
   15.3743  -13.4192   20.1954 C   0  0  0  0  0  0  0  0  0  0  0  0
   16.6243  -13.1479   20.7076 C   0  0  0  0  0  0  0  0  0  0  0  0
   12.2467  -20.7007   26.7634 O   0  0  0  0  0  0  0  0  0  0  0  0
   12.4072  -20.0252   25.5615 C   0  0  0  0  0  0  0  0  0  0  0  0
   11.9164  -18.7589   25.3293 C   0  0  0  0  0  0  0  0  0  0  0  0
   12.0915  -18.1123   24.1253 C   0  0  0  0  0  0  0  0  0  0  0  0
   12.7807  -18.7203   23.0805 C   0  0  0  0  0  0  0  0  0  0  0  0
   12.9565  -18.0425   21.7969 C   0  0  0  0  0  0  0  0  0  0  0  0
   14.1676  -17.1485   21.7616 C   0  0  2  0  0  0  0  0  0  0  0  0
   14.3755  -16.6536   20.4016 N   0  0  0  0  0  0  0  0  0  0  0  0
   15.3583  -17.8548   22.2328 C   0  0  0  0  0  0  0  0  0  0  0  0
   15.7613  -17.6486   23.4287 O   0  0  0  0  0  0  0  0  0  0  0  0
   13.2756  -19.9958   23.3120 C   0  0  0  0  0  0  0  0  0  0  0  0
   13.0937  -20.6233   24.5115 C   0  0  0  0  0  0  0  0  0  0  0  0
   16.0965  -18.7472   21.4727 O   0  0  0  0  0  0  0  0  0  0  0  0
  2  1  1  0
  3  2  1  0
  4  3  1  0
  5  4  1  0
  5  6  1  6
  7  8  2  0
  7  5  1  0
  9 10  1  0
 10 20  2  0
 11 12  2  0
 11 10  1  0
 12 13  1  0
 13 14  1  0
 13 19  2  0
 15 14  1  1
 15 16  1  0
 16  7  1  0
 17 15  1  0
 18 17  2  0
 20 19  1  0
 22 21  1  0
 22 23  2  0
 24 23  1  0
 25 24  2  0
 27 26  1  6
 26 25  1  0
 27 28  1  0
 28 17  1  0
 29 33  1  0
 29 27  1  0
 30 29  2  0
 31 32  2  0
 31 25  1  0
 32 22  1  0
M  END
$$$$
