MYY.pdb
     RDKit          3D

 33 34  0  0  1  0  0  0  0  0999 V2000
    6.4976  -21.2656   25.6398 C   0  0  0  0  0  0  0  0  0  0  0  0
    5.2275  -21.0059   24.3729 S   0  0  0  0  0  0  0  0  0  0  0  0
    5.9908  -20.6799   22.7454 C   0  0  0  0  0  0  0  0  0  0  0  0
    7.1369  -19.7174   22.8943 C   0  0  0  0  0  0  0  0  0  0  0  0
    7.2288  -18.7545   21.7779 C   0  0  2  0  0  0  0  0  0  0  0  0
    7.7192  -19.5641   20.6222 N   0  0  0  0  0  0  0  0  0  0  0  0
    8.1475  -17.6375   21.8981 C   0  0  0  0  0  0  0  0  0  0  0  0
    9.3691  -17.8054   21.5765 O   0  0  0  0  0  0  0  0  0  0  0  0
    7.4838  -13.6319   16.7434 O   0  0  0  0  0  0  0  0  0  0  0  0
    7.7275  -13.7161   18.1056 C   0  0  0  0  0  0  0  0  0  0  0  0
    8.9791  -13.4445   18.6021 C   0  0  0  0  0  0  0  0  0  0  0  0
    9.2434  -13.5221   19.9526 C   0  0  0  0  0  0  0  0  0  0  0  0
    8.2736  -13.8747   20.8807 C   0  0  0  0  0  0  0  0  0  0  0  0
    8.4991  -13.9726   22.3287 C   0  0  0  0  0  0  0  0  0  0  0  0
    8.8821  -15.3790   22.7332 C   0  0  2  0  0  0  0  0  0  0  0  0
    7.8477  -16.3249   22.3429 N   0  0  0  0  0  0  0  0  0  0  0  0
    9.3043  -15.4910   24.1316 C   0  0  0  0  0  0  0  0  0  0  0  0
   10.4046  -14.9437   24.4501 O   0  0  0  0  0  0  0  0  0  0  0  0
    7.0061  -14.1477   20.3597 C   0  0  0  0  0  0  0  0  0  0  0  0
    6.7425  -14.0700   19.0096 C   0  0  0  0  0  0  0  0  0  0  0  0
    5.5317  -10.8549   26.1820 O   0  0  0  0  0  0  0  0  0  0  0  0
    6.1693  -12.0413   26.5174 C   0  0  0  0  0  0  0  0  0  0  0  0
    7.4068  -12.0953   27.1210 C   0  0  0  0  0  0  0  0  0  0  0  0
    8.0157  -13.2886   27.4430 C   0  0  0  0  0  0  0  0  0  0  0  0
    7.3972  -14.5044   27.1679 C   0  0  0  0  0  0  0  0  0  0  0  0
    8.0465  -15.7728   27.4958 C   0  0  0  0  0  0  0  0  0  0  0  0
    9.1426  -16.1421   26.5317 C   0  0  2  0  0  0  0  0  0  0  0  0
    8.6189  -16.1424   25.1666 N   0  0  0  0  0  0  0  0  0  0  0  0
    9.7132  -17.4486   26.8573 C   0  0  0  0  0  0  0  0  0  0  0  0
   10.2530  -17.6141   28.0046 O   0  0  0  0  0  0  0  0  0  0  0  0
    6.1510  -14.4523   26.5598 C   0  0  0  0  0  0  0  0  0  0  0  0
    5.5606  -13.2610   26.2470 C   0  0  0  0  0  0  0  0  0  0  0  0
    9.7135  -18.5416   26.0061 O   0  0  0  0  0  0  0  0  0  0  0  0
  2  1  1  0
  3  2  1  0
  4  3  1  0
  5  4  1  0
  5  6  1  6
  7  8  2  0
  7  5  1  0
  9 10  1  0
 10 20  2  0
 11 12  2  0
 11 10  1  0
 12 13  1  0
 13 14  1  0
 13 19  2  0
 15 14  1  1
 15 16  1  0
 16  7  1  0
 17 15  1  0
 18 17  2  0
 20 19  1  0
 22 21  1  0
 22 23  2  0
 24 23  1  0
 25 24  2  0
 27 26  1  1
 26 25  1  0
 27 28  1  0
 28 17  1  0
 29 33  1  0
 29 27  1  0
 30 29  2  0
 31 32  2  0
 31 25  1  0
 32 22  1  0
M  END
$$$$
