MYY.pdb
     RDKit          3D

 33 34  0  0  1  0  0  0  0  0999 V2000
    1.1774  -20.1603   21.7486 C   0  0  0  0  0  0  0  0  0  0  0  0
    2.7047  -21.1051   21.5029 S   0  0  0  0  0  0  0  0  0  0  0  0
    4.0777  -20.3822   22.4672 C   0  0  0  0  0  0  0  0  0  0  0  0
    5.3618  -21.1029   22.1605 C   0  0  0  0  0  0  0  0  0  0  0  0
    6.5223  -20.5444   22.8838 C   0  0  2  0  0  0  0  0  0  0  0  0
    5.9602  -20.0602   24.1803 N   0  0  0  0  0  0  0  0  0  0  0  0
    7.2209  -19.4110   22.3062 C   0  0  0  0  0  0  0  0  0  0  0  0
    8.0820  -19.6181   21.3899 O   0  0  0  0  0  0  0  0  0  0  0  0
    9.0196  -12.1464   17.9683 O   0  0  0  0  0  0  0  0  0  0  0  0
    8.4900  -13.0334   18.8929 C   0  0  0  0  0  0  0  0  0  0  0  0
    8.0464  -12.5793   20.1109 C   0  0  0  0  0  0  0  0  0  0  0  0
    7.5165  -13.4434   21.0448 C   0  0  0  0  0  0  0  0  0  0  0  0
    7.4004  -14.8071   20.8141 C   0  0  0  0  0  0  0  0  0  0  0  0
    6.8445  -15.7722   21.7715 C   0  0  0  0  0  0  0  0  0  0  0  0
    7.7446  -16.9784   21.9241 C   0  0  2  0  0  0  0  0  0  0  0  0
    7.0591  -18.0427   22.6413 N   0  0  0  0  0  0  0  0  0  0  0  0
    9.0724  -16.6545   22.4517 C   0  0  0  0  0  0  0  0  0  0  0  0
    9.9121  -16.1559   21.6405 O   0  0  0  0  0  0  0  0  0  0  0  0
    7.8561  -15.2529   19.5707 C   0  0  0  0  0  0  0  0  0  0  0  0
    8.3858  -14.3886   18.6375 C   0  0  0  0  0  0  0  0  0  0  0  0
    7.2169  -10.7664   28.1630 O   0  0  0  0  0  0  0  0  0  0  0  0
    7.4489  -11.8224   27.2924 C   0  0  0  0  0  0  0  0  0  0  0  0
    8.7085  -12.2365   26.9178 C   0  0  0  0  0  0  0  0  0  0  0  0
    8.9084  -13.2890   26.0514 C   0  0  0  0  0  0  0  0  0  0  0  0
    7.8316  -13.9862   25.5123 C   0  0  0  0  0  0  0  0  0  0  0  0
    8.0398  -15.0948   24.5819 C   0  0  0  0  0  0  0  0  0  0  0  0
    9.3683  -15.7793   24.7662 C   0  0  2  0  0  0  0  0  0  0  0  0
    9.5210  -16.8361   23.7674 N   0  0  0  0  0  0  0  0  0  0  0  0
    9.4941  -16.3323   26.1142 C   0  0  0  0  0  0  0  0  0  0  0  0
    9.7262  -15.5341   27.0859 O   0  0  0  0  0  0  0  0  0  0  0  0
    6.5621  -13.5706   25.8881 C   0  0  0  0  0  0  0  0  0  0  0  0
    6.3807  -12.5252   26.7482 C   0  0  0  0  0  0  0  0  0  0  0  0
    9.3780  -17.6766   26.4275 O   0  0  0  0  0  0  0  0  0  0  0  0
  2  1  1  0
  3  2  1  0
  4  3  1  0
  5  4  1  0
  5  6  1  1
  7  8  2  0
  7  5  1  0
  9 10  1  0
 10 20  2  0
 11 12  2  0
 11 10  1  0
 12 13  1  0
 13 14  1  0
 13 19  2  0
 15 14  1  1
 15 16  1  0
 16  7  1  0
 17 15  1  0
 18 17  2  0
 20 19  1  0
 22 21  1  0
 22 23  2  0
 24 23  1  0
 25 24  2  0
 27 26  1  1
 26 25  1  0
 27 28  1  0
 28 17  1  0
 29 33  1  0
 29 27  1  0
 30 29  2  0
 31 32  2  0
 31 25  1  0
 32 22  1  0
M  END
$$$$
