MYY.pdb
     RDKit          3D

 33 34  0  0  1  0  0  0  0  0999 V2000
    8.4900  -11.8767   20.1628 C   0  0  0  0  0  0  0  0  0  0  0  0
    7.5440  -12.7131   18.8623 S   0  0  0  0  0  0  0  0  0  0  0  0
    7.5973  -14.5258   19.0842 C   0  0  0  0  0  0  0  0  0  0  0  0
    7.3466  -14.8788   20.5246 C   0  0  0  0  0  0  0  0  0  0  0  0
    8.4741  -15.6048   21.1441 C   0  0  2  0  0  0  0  0  0  0  0  0
    8.6540  -16.8182   20.2917 N   0  0  0  0  0  0  0  0  0  0  0  0
    8.3232  -16.0929   22.5025 C   0  0  0  0  0  0  0  0  0  0  0  0
    7.9238  -15.2888   23.4067 O   0  0  0  0  0  0  0  0  0  0  0  0
    7.6720  -20.8497   29.9413 O   0  0  0  0  0  0  0  0  0  0  0  0
    7.8469  -20.4696   28.6195 C   0  0  0  0  0  0  0  0  0  0  0  0
    6.7756  -20.0356   27.8775 C   0  0  0  0  0  0  0  0  0  0  0  0
    6.9268  -19.6530   26.5620 C   0  0  0  0  0  0  0  0  0  0  0  0
    8.1547  -19.6827   25.9158 C   0  0  0  0  0  0  0  0  0  0  0  0
    8.3734  -19.2869   24.5185 C   0  0  0  0  0  0  0  0  0  0  0  0
    8.3920  -17.7817   24.3682 C   0  0  2  0  0  0  0  0  0  0  0  0
    8.5699  -17.4074   22.9734 N   0  0  0  0  0  0  0  0  0  0  0  0
    9.3102  -17.1127   25.2933 C   0  0  0  0  0  0  0  0  0  0  0  0
   10.5443  -17.1265   24.9956 O   0  0  0  0  0  0  0  0  0  0  0  0
    9.2341  -20.1266   26.6843 C   0  0  0  0  0  0  0  0  0  0  0  0
    9.0823  -20.5089   27.9992 C   0  0  0  0  0  0  0  0  0  0  0  0
    5.4267  -11.7749   24.8817 O   0  0  0  0  0  0  0  0  0  0  0  0
    6.3809  -12.4692   25.6126 C   0  0  0  0  0  0  0  0  0  0  0  0
    7.2661  -13.3636   25.0514 C   0  0  0  0  0  0  0  0  0  0  0  0
    8.2036  -14.0386   25.8023 C   0  0  0  0  0  0  0  0  0  0  0  0
    8.2959  -13.8417   27.1767 C   0  0  0  0  0  0  0  0  0  0  0  0
    9.2805  -14.5666   27.9786 C   0  0  0  0  0  0  0  0  0  0  0  0
    9.9650  -15.6709   27.2176 C   0  0  2  0  0  0  0  0  0  0  0  0
    8.9715  -16.4521   26.4824 N   0  0  0  0  0  0  0  0  0  0  0  0
   10.7282  -16.5362   28.1161 C   0  0  0  0  0  0  0  0  0  0  0  0
   11.6715  -16.0216   28.8093 O   0  0  0  0  0  0  0  0  0  0  0  0
    7.4051  -12.9416   27.7439 C   0  0  0  0  0  0  0  0  0  0  0  0
    6.4815  -12.2802   26.9856 C   0  0  0  0  0  0  0  0  0  0  0  0
   10.5048  -17.8935   28.2799 O   0  0  0  0  0  0  0  0  0  0  0  0
  2  1  1  0
  3  2  1  0
  4  3  1  0
  5  4  1  0
  5  6  1  6
  7  8  2  0
  7  5  1  0
  9 10  1  0
 10 20  2  0
 11 12  2  0
 11 10  1  0
 12 13  1  0
 13 14  1  0
 13 19  2  0
 15 14  1  6
 15 16  1  0
 16  7  1  0
 17 15  1  0
 18 17  2  0
 20 19  1  0
 22 21  1  0
 22 23  2  0
 24 23  1  0
 25 24  2  0
 27 26  1  1
 26 25  1  0
 27 28  1  0
 28 17  1  0
 29 33  1  0
 29 27  1  0
 30 29  2  0
 31 32  2  0
 31 25  1  0
 32 22  1  0
M  END
$$$$
