VQI.pdb
     RDKit          3D

 25 24  0  0  1  0  0  0  0  0999 V2000
    7.4409  -12.8059   21.3936 C   0  0  0  0  0  0  0  0  0  0  0  0
    8.3370  -13.4800   20.3964 C   0  0  2  0  0  0  0  0  0  0  0  0
    8.1904  -12.8240   19.0419 C   0  0  0  0  0  0  0  0  0  0  0  0
    8.0533  -14.9599   20.2684 C   0  0  2  0  0  0  0  0  0  0  0  0
    6.7162  -15.1425   19.6952 N   0  0  0  0  0  0  0  0  0  0  0  0
    8.1639  -15.6581   21.5704 C   0  0  0  0  0  0  0  0  0  0  0  0
    7.1397  -15.7581   22.2931 O   0  0  0  0  0  0  0  0  0  0  0  0
    9.8701  -20.5381   23.5332 N   0  0  0  0  0  0  0  0  0  0  0  0
   10.3252  -19.8849   24.7275 C   0  0  0  0  0  0  0  0  0  0  0  0
   10.3251  -20.6035   25.7631 O   0  0  0  0  0  0  0  0  0  0  0  0
   10.7575  -18.4701   24.7140 C   0  0  0  0  0  0  0  0  0  0  0  0
   10.6010  -17.8228   23.3840 C   0  0  0  0  0  0  0  0  0  0  0  0
    9.4781  -16.8141   23.2963 C   0  0  2  0  0  0  0  0  0  0  0  0
    9.3997  -16.2030   21.9938 N   0  0  0  0  0  0  0  0  0  0  0  0
    9.8044  -15.7589   24.2900 C   0  0  0  0  0  0  0  0  0  0  0  0
   10.7461  -14.9676   24.0509 O   0  0  0  0  0  0  0  0  0  0  0  0
    6.3304  -12.4608   26.2806 C   0  0  0  0  0  0  0  0  0  0  0  0
    7.6095  -13.1100   25.8575 C   0  0  0  0  0  0  0  0  0  0  0  0
    8.2590  -13.8601   27.0253 C   0  0  2  0  0  0  0  0  0  0  0  0
    8.7150  -12.9137   28.0940 C   0  0  0  0  0  0  0  0  0  0  0  0
    9.4709  -14.6302   26.5260 C   0  0  2  0  0  0  0  0  0  0  0  0
    9.0978  -15.5949   25.5136 N   0  0  0  0  0  0  0  0  0  0  0  0
   10.0230  -15.3593   27.6863 C   0  0  0  0  0  0  0  0  0  0  0  0
    9.6145  -16.6376   28.0274 O   0  0  0  0  0  0  0  0  0  0  0  0
   10.8962  -14.8121   28.3995 O   0  0  0  0  0  0  0  0  0  0  0  0
  2  1  1  1
  3  2  1  0
  4  2  1  0
  4  5  1  1
  6  4  1  0
  6  7  2  0
  8  9  1  0
  9 10  2  0
  9 11  1  0
 11 12  1  0
 13 12  1  6
 13 14  1  0
 14  6  1  0
 15 13  1  0
 16 15  2  0
 18 17  1  0
 19 18  1  0
 19 21  1  0
 19 20  1  1
 21 22  1  6
 21 23  1  0
 22 15  1  0
 23 24  1  0
 25 23  2  0
M  END
$$$$
