VQI.pdb
     RDKit          3D

 25 24  0  0  1  0  0  0  0  0999 V2000
    7.8408  -12.7832   18.4323 C   0  0  0  0  0  0  0  0  0  0  0  0
    7.6777  -13.4557   19.7638 C   0  0  2  0  0  0  0  0  0  0  0  0
    8.5544  -12.7817   20.7952 C   0  0  0  0  0  0  0  0  0  0  0  0
    8.0084  -14.9305   19.7136 C   0  0  2  0  0  0  0  0  0  0  0  0
    7.0810  -15.5973   18.7942 N   0  0  0  0  0  0  0  0  0  0  0  0
    7.9533  -15.5549   21.0559 C   0  0  0  0  0  0  0  0  0  0  0  0
    6.8310  -15.7420   21.5915 O   0  0  0  0  0  0  0  0  0  0  0  0
   11.8165  -19.7119   25.7151 N   0  0  0  0  0  0  0  0  0  0  0  0
   11.0498  -19.5077   24.5191 C   0  0  0  0  0  0  0  0  0  0  0  0
   11.3096  -20.3018   23.5753 O   0  0  0  0  0  0  0  0  0  0  0  0
   10.0345  -18.4354   24.4292 C   0  0  0  0  0  0  0  0  0  0  0  0
   10.0032  -17.7688   23.1000 C   0  0  0  0  0  0  0  0  0  0  0  0
    9.0389  -16.6091   22.9930 C   0  0  2  0  0  0  0  0  0  0  0  0
    9.1419  -15.9344   21.7241 N   0  0  0  0  0  0  0  0  0  0  0  0
    9.4321  -15.6566   24.0633 C   0  0  0  0  0  0  0  0  0  0  0  0
   10.4880  -14.9951   23.9319 O   0  0  0  0  0  0  0  0  0  0  0  0
    5.9507  -12.4466   26.1604 C   0  0  0  0  0  0  0  0  0  0  0  0
    7.3027  -12.9496   25.7656 C   0  0  0  0  0  0  0  0  0  0  0  0
    7.9259  -13.7904   26.8849 C   0  0  2  0  0  0  0  0  0  0  0  0
    8.4419  -12.9243   27.9936 C   0  0  0  0  0  0  0  0  0  0  0  0
    9.0910  -14.5945   26.3305 C   0  0  2  0  0  0  0  0  0  0  0  0
    8.6662  -15.4514   25.2444 N   0  0  0  0  0  0  0  0  0  0  0  0
    9.5866  -15.4455   27.4318 C   0  0  0  0  0  0  0  0  0  0  0  0
    9.2538  -16.7845   27.5476 O   0  0  0  0  0  0  0  0  0  0  0  0
   10.3387  -14.9499   28.3031 O   0  0  0  0  0  0  0  0  0  0  0  0
  2  1  1  6
  3  2  1  0
  4  2  1  0
  4  5  1  6
  6  4  1  0
  6  7  2  0
  8  9  1  0
  9 10  2  0
  9 11  1  0
 11 12  1  0
 13 12  1  6
 13 14  1  0
 14  6  1  0
 15 13  1  0
 16 15  2  0
 18 17  1  0
 19 18  1  0
 19 21  1  0
 19 20  1  1
 21 22  1  6
 21 23  1  0
 22 15  1  0
 23 24  1  0
 25 23  2  0
M  END
$$$$
