VQI.pdb
     RDKit          3D

 25 24  0  0  1  0  0  0  0  0999 V2000
    8.0373  -12.1607   18.3458 C   0  0  0  0  0  0  0  0  0  0  0  0
    7.7161  -13.1971   19.3823 C   0  0  2  0  0  0  0  0  0  0  0  0
    8.0797  -12.6842   20.7575 C   0  0  0  0  0  0  0  0  0  0  0  0
    8.4287  -14.5076   19.1330 C   0  0  2  0  0  0  0  0  0  0  0  0
    8.0277  -15.0279   17.8221 N   0  0  0  0  0  0  0  0  0  0  0  0
    8.1488  -15.4996   20.1972 C   0  0  0  0  0  0  0  0  0  0  0  0
    7.3486  -16.4388   19.9547 O   0  0  0  0  0  0  0  0  0  0  0  0
    9.8666  -20.2734   21.0703 N   0  0  0  0  0  0  0  0  0  0  0  0
   10.7823  -19.1683   21.0493 C   0  0  0  0  0  0  0  0  0  0  0  0
   11.9328  -19.4356   20.6090 O   0  0  0  0  0  0  0  0  0  0  0  0
   10.3775  -17.8241   21.5160 C   0  0  0  0  0  0  0  0  0  0  0  0
    8.9741  -17.7727   22.0062 C   0  0  0  0  0  0  0  0  0  0  0  0
    8.5067  -16.4062   22.4537 C   0  0  2  0  0  0  0  0  0  0  0  0
    8.7706  -15.3927   21.4642 N   0  0  0  0  0  0  0  0  0  0  0  0
    9.2957  -16.0883   23.6718 C   0  0  0  0  0  0  0  0  0  0  0  0
   10.4516  -15.6220   23.5441 O   0  0  0  0  0  0  0  0  0  0  0  0
    6.9296  -12.1554   26.9388 C   0  0  0  0  0  0  0  0  0  0  0  0
    8.0867  -13.1025   26.9118 C   0  0  0  0  0  0  0  0  0  0  0  0
    7.8982  -14.1713   25.8299 C   0  0  2  0  0  0  0  0  0  0  0  0
    6.5233  -14.7649   25.8846 C   0  0  0  0  0  0  0  0  0  0  0  0
    8.9060  -15.2905   26.0375 C   0  0  2  0  0  0  0  0  0  0  0  0
    8.8052  -16.2865   24.9923 N   0  0  0  0  0  0  0  0  0  0  0  0
    8.5754  -15.9306   27.3274 C   0  0  0  0  0  0  0  0  0  0  0  0
    9.0889  -15.4863   28.5340 O   0  0  0  0  0  0  0  0  0  0  0  0
    7.8009  -16.9157   27.3460 O   0  0  0  0  0  0  0  0  0  0  0  0
  2  1  1  6
  3  2  1  0
  4  2  1  0
  4  5  1  6
  6  4  1  0
  6  7  2  0
  8  9  1  0
  9 10  2  0
  9 11  1  0
 11 12  1  0
 13 12  1  6
 13 14  1  0
 14  6  1  0
 15 13  1  0
 16 15  2  0
 18 17  1  0
 19 18  1  0
 19 21  1  0
 19 20  1  1
 21 22  1  6
 21 23  1  0
 22 15  1  0
 23 24  1  0
 25 23  2  0
M  END
$$$$
