VQI.pdb
     RDKit          3D

 25 24  0  0  1  0  0  0  0  0999 V2000
    7.7876  -12.8368   18.4971 C   0  0  0  0  0  0  0  0  0  0  0  0
    7.7132  -13.4999   19.8412 C   0  0  2  0  0  0  0  0  0  0  0  0
    8.5134  -12.7109   20.8529 C   0  0  0  0  0  0  0  0  0  0  0  0
    8.2122  -14.9273   19.8126 C   0  0  2  0  0  0  0  0  0  0  0  0
    7.4353  -15.6855   18.8269 N   0  0  0  0  0  0  0  0  0  0  0  0
    8.1317  -15.5673   21.1462 C   0  0  0  0  0  0  0  0  0  0  0  0
    7.0017  -15.8789   21.6016 O   0  0  0  0  0  0  0  0  0  0  0  0
   11.9365  -19.8421   23.4302 N   0  0  0  0  0  0  0  0  0  0  0  0
   10.9174  -19.8659   22.4197 C   0  0  0  0  0  0  0  0  0  0  0  0
   10.9162  -20.8907   21.6858 O   0  0  0  0  0  0  0  0  0  0  0  0
    9.9517  -18.7548   22.2740 C   0  0  0  0  0  0  0  0  0  0  0  0
   10.1584  -17.6657   23.2657 C   0  0  0  0  0  0  0  0  0  0  0  0
    9.1869  -16.5124   23.1550 C   0  0  2  0  0  0  0  0  0  0  0  0
    9.3051  -15.8237   21.8950 N   0  0  0  0  0  0  0  0  0  0  0  0
    9.5554  -15.5681   24.2413 C   0  0  0  0  0  0  0  0  0  0  0  0
   10.6006  -14.8866   24.1272 O   0  0  0  0  0  0  0  0  0  0  0  0
    6.2211  -12.0845   26.0367 C   0  0  0  0  0  0  0  0  0  0  0  0
    7.4451  -12.8701   25.6886 C   0  0  0  0  0  0  0  0  0  0  0  0
    7.9844  -13.6199   26.9114 C   0  0  2  0  0  0  0  0  0  0  0  0
    8.4687  -12.6688   27.9634 C   0  0  0  0  0  0  0  0  0  0  0  0
    9.1516  -14.5008   26.4958 C   0  0  2  0  0  0  0  0  0  0  0  0
    8.7772  -15.3926   25.4191 N   0  0  0  0  0  0  0  0  0  0  0  0
    9.5140  -15.3155   27.6737 C   0  0  0  0  0  0  0  0  0  0  0  0
   10.4332  -14.8929   28.6190 O   0  0  0  0  0  0  0  0  0  0  0  0
    8.9765  -16.4358   27.8373 O   0  0  0  0  0  0  0  0  0  0  0  0
  2  1  1  6
  3  2  1  0
  4  2  1  0
  4  5  1  6
  6  4  1  0
  6  7  2  0
  8  9  1  0
  9 10  2  0
  9 11  1  0
 11 12  1  0
 13 12  1  6
 13 14  1  0
 14  6  1  0
 15 13  1  0
 16 15  2  0
 18 17  1  0
 19 18  1  0
 19 21  1  0
 19 20  1  1
 21 22  1  6
 21 23  1  0
 22 15  1  0
 23 24  1  0
 25 23  2  0
M  END
$$$$
