VQI.pdb
     RDKit          3D

 25 24  0  0  1  0  0  0  0  0999 V2000
    8.1753  -12.5789   17.8948 C   0  0  0  0  0  0  0  0  0  0  0  0
    7.7508  -13.5314   18.9738 C   0  0  2  0  0  0  0  0  0  0  0  0
    7.7402  -12.8269   20.3117 C   0  0  0  0  0  0  0  0  0  0  0  0
    8.6435  -14.7493   19.0571 C   0  0  2  0  0  0  0  0  0  0  0  0
    8.4857  -15.5423   17.8339 N   0  0  0  0  0  0  0  0  0  0  0  0
    8.3475  -15.5702   20.2543 C   0  0  0  0  0  0  0  0  0  0  0  0
    7.6825  -16.6283   20.1142 O   0  0  0  0  0  0  0  0  0  0  0  0
   10.2513  -19.9357   22.0498 N   0  0  0  0  0  0  0  0  0  0  0  0
   11.1078  -18.7852   21.9997 C   0  0  0  0  0  0  0  0  0  0  0  0
   12.3213  -19.0319   21.7641 O   0  0  0  0  0  0  0  0  0  0  0  0
   10.5773  -17.4206   22.2122 C   0  0  0  0  0  0  0  0  0  0  0  0
    9.1189  -17.3984   22.5034 C   0  0  0  0  0  0  0  0  0  0  0  0
    8.5238  -16.0178   22.6648 C   0  0  2  0  0  0  0  0  0  0  0  0
    8.8046  -15.1714   21.5331 N   0  0  0  0  0  0  0  0  0  0  0  0
    9.1805  -15.4323   23.8621 C   0  0  0  0  0  0  0  0  0  0  0  0
   10.3230  -14.9312   23.7459 O   0  0  0  0  0  0  0  0  0  0  0  0
    6.3752  -11.5704   26.0424 C   0  0  0  0  0  0  0  0  0  0  0  0
    7.6249  -12.3376   25.7485 C   0  0  0  0  0  0  0  0  0  0  0  0
    7.6867  -13.6267   26.5748 C   0  0  2  0  0  0  0  0  0  0  0  0
    7.7903  -13.3298   28.0400 C   0  0  0  0  0  0  0  0  0  0  0  0
    8.9081  -14.4353   26.1678 C   0  0  2  0  0  0  0  0  0  0  0  0
    8.5762  -15.4088   25.1496 N   0  0  0  0  0  0  0  0  0  0  0  0
    9.3656  -15.1563   27.3734 C   0  0  0  0  0  0  0  0  0  0  0  0
   10.1715  -14.5684   28.3336 O   0  0  0  0  0  0  0  0  0  0  0  0
    9.0185  -16.3479   27.5477 O   0  0  0  0  0  0  0  0  0  0  0  0
  2  1  1  6
  3  2  1  0
  4  2  1  0
  4  5  1  6
  6  4  1  0
  6  7  2  0
  8  9  1  0
  9 10  2  0
  9 11  1  0
 11 12  1  0
 13 12  1  6
 13 14  1  0
 14  6  1  0
 15 13  1  0
 16 15  2  0
 18 17  1  0
 19 18  1  0
 19 21  1  0
 19 20  1  1
 21 22  1  6
 21 23  1  0
 22 15  1  0
 23 24  1  0
 25 23  2  0
M  END
$$$$
