VQI.pdb
     RDKit          3D

 25 24  0  0  1  0  0  0  0  0999 V2000
    7.9866  -12.6334   17.8823 C   0  0  0  0  0  0  0  0  0  0  0  0
    7.7892  -13.3687   19.1754 C   0  0  2  0  0  0  0  0  0  0  0  0
    8.4653  -12.6228   20.3037 C   0  0  0  0  0  0  0  0  0  0  0  0
    8.3181  -14.7846   19.1247 C   0  0  2  0  0  0  0  0  0  0  0  0
    7.5666  -15.5397   18.1172 N   0  0  0  0  0  0  0  0  0  0  0  0
    8.2384  -15.4517   20.4451 C   0  0  0  0  0  0  0  0  0  0  0  0
    7.1243  -15.8796   20.8414 O   0  0  0  0  0  0  0  0  0  0  0  0
   12.3572  -19.3704   22.8909 N   0  0  0  0  0  0  0  0  0  0  0  0
   11.4672  -19.1310   23.9912 C   0  0  0  0  0  0  0  0  0  0  0  0
   11.6608  -19.8572   25.0032 O   0  0  0  0  0  0  0  0  0  0  0  0
   10.4092  -18.0998   23.9152 C   0  0  0  0  0  0  0  0  0  0  0  0
   10.4014  -17.3633   22.6230 C   0  0  0  0  0  0  0  0  0  0  0  0
    9.2920  -16.3463   22.4777 C   0  0  2  0  0  0  0  0  0  0  0  0
    9.3949  -15.6049   21.2465 N   0  0  0  0  0  0  0  0  0  0  0  0
    9.4609  -15.3996   23.6102 C   0  0  0  0  0  0  0  0  0  0  0  0
   10.4473  -14.6269   23.6159 O   0  0  0  0  0  0  0  0  0  0  0  0
    6.5630  -11.6483   27.3469 C   0  0  0  0  0  0  0  0  0  0  0  0
    7.7020  -12.6067   27.2028 C   0  0  0  0  0  0  0  0  0  0  0  0
    7.5059  -13.5158   25.9849 C   0  0  2  0  0  0  0  0  0  0  0  0
    6.3010  -14.3918   26.1477 C   0  0  0  0  0  0  0  0  0  0  0  0
    8.7229  -14.4111   25.8154 C   0  0  2  0  0  0  0  0  0  0  0  0
    8.5531  -15.3206   24.7025 N   0  0  0  0  0  0  0  0  0  0  0  0
    8.8460  -15.2057   27.0547 C   0  0  0  0  0  0  0  0  0  0  0  0
    9.4245  -14.7041   28.2083 O   0  0  0  0  0  0  0  0  0  0  0  0
    8.4142  -16.3820   27.0780 O   0  0  0  0  0  0  0  0  0  0  0  0
  2  1  1  6
  3  2  1  0
  4  2  1  0
  4  5  1  6
  6  4  1  0
  6  7  2  0
  8  9  1  0
  9 10  2  0
  9 11  1  0
 11 12  1  0
 13 12  1  6
 13 14  1  0
 14  6  1  0
 15 13  1  0
 16 15  2  0
 18 17  1  0
 19 18  1  0
 19 21  1  0
 19 20  1  1
 21 22  1  6
 21 23  1  0
 22 15  1  0
 23 24  1  0
 25 23  2  0
M  END
$$$$
