VQI.pdb
     RDKit          3D

 25 24  0  0  1  0  0  0  0  0999 V2000
    7.1549  -12.8005   20.0683 C   0  0  0  0  0  0  0  0  0  0  0  0
    8.4464  -13.2697   19.4654 C   0  0  2  0  0  0  0  0  0  0  0  0
    8.6515  -12.6241   18.1135 C   0  0  0  0  0  0  0  0  0  0  0  0
    8.5045  -14.7734   19.3152 C   0  0  2  0  0  0  0  0  0  0  0  0
    7.6177  -15.1791   18.2202 N   0  0  0  0  0  0  0  0  0  0  0  0
    8.1367  -15.4684   20.5708 C   0  0  0  0  0  0  0  0  0  0  0  0
    6.9261  -15.7333   20.7844 O   0  0  0  0  0  0  0  0  0  0  0  0
   10.5582  -20.5515   22.9079 N   0  0  0  0  0  0  0  0  0  0  0  0
    9.9625  -19.9393   21.7545 C   0  0  0  0  0  0  0  0  0  0  0  0
   10.3372  -20.4089   20.6464 O   0  0  0  0  0  0  0  0  0  0  0  0
    8.9822  -18.8392   21.8868 C   0  0  0  0  0  0  0  0  0  0  0  0
    9.3707  -17.8284   22.9064 C   0  0  0  0  0  0  0  0  0  0  0  0
    8.7233  -16.4726   22.7363 C   0  0  2  0  0  0  0  0  0  0  0  0
    9.1294  -15.8282   21.5133 N   0  0  0  0  0  0  0  0  0  0  0  0
    9.1995  -15.6513   23.8791 C   0  0  0  0  0  0  0  0  0  0  0  0
   10.3430  -15.1417   23.8280 O   0  0  0  0  0  0  0  0  0  0  0  0
    5.8335  -12.2562   26.2189 C   0  0  0  0  0  0  0  0  0  0  0  0
    7.0351  -12.9610   25.6748 C   0  0  0  0  0  0  0  0  0  0  0  0
    7.7144  -13.8068   26.7571 C   0  0  2  0  0  0  0  0  0  0  0  0
    8.2614  -12.9474   27.8563 C   0  0  0  0  0  0  0  0  0  0  0  0
    8.8682  -14.5858   26.1463 C   0  0  2  0  0  0  0  0  0  0  0  0
    8.4190  -15.4083   25.0433 N   0  0  0  0  0  0  0  0  0  0  0  0
    9.3958  -15.4706   27.2053 C   0  0  0  0  0  0  0  0  0  0  0  0
   10.4721  -15.1201   28.0027 O   0  0  0  0  0  0  0  0  0  0  0  0
    8.8582  -16.5855   27.4014 O   0  0  0  0  0  0  0  0  0  0  0  0
  2  1  1  6
  3  2  1  0
  4  2  1  0
  4  5  1  6
  6  4  1  0
  6  7  2  0
  8  9  1  0
  9 10  2  0
  9 11  1  0
 11 12  1  0
 13 12  1  1
 13 14  1  0
 14  6  1  0
 15 13  1  0
 16 15  2  0
 18 17  1  0
 19 18  1  0
 19 21  1  0
 19 20  1  1
 21 22  1  6
 21 23  1  0
 22 15  1  0
 23 24  1  0
 25 23  2  0
M  END
$$$$
