VQI.pdb
     RDKit          3D

 25 24  0  0  1  0  0  0  0  0999 V2000
    7.7871  -12.7675   18.5674 C   0  0  0  0  0  0  0  0  0  0  0  0
    7.6434  -13.4722   19.8843 C   0  0  2  0  0  0  0  0  0  0  0  0
    8.3564  -12.6952   20.9680 C   0  0  0  0  0  0  0  0  0  0  0  0
    8.1794  -14.8859   19.8477 C   0  0  2  0  0  0  0  0  0  0  0  0
    7.4398  -15.6516   18.8394 N   0  0  0  0  0  0  0  0  0  0  0  0
    8.0922  -15.5442   21.1720 C   0  0  0  0  0  0  0  0  0  0  0  0
    6.9636  -15.8965   21.6003 O   0  0  0  0  0  0  0  0  0  0  0  0
   11.9801  -19.7402   23.2805 N   0  0  0  0  0  0  0  0  0  0  0  0
   10.8852  -19.8019   22.3546 C   0  0  0  0  0  0  0  0  0  0  0  0
   10.8744  -20.8162   21.6063 O   0  0  0  0  0  0  0  0  0  0  0  0
    9.8581  -18.7383   22.3049 C   0  0  0  0  0  0  0  0  0  0  0  0
   10.1031  -17.6421   23.2800 C   0  0  0  0  0  0  0  0  0  0  0  0
    9.1363  -16.4831   23.1895 C   0  0  2  0  0  0  0  0  0  0  0  0
    9.2577  -15.7727   21.9418 N   0  0  0  0  0  0  0  0  0  0  0  0
    9.5082  -15.5597   24.2924 C   0  0  0  0  0  0  0  0  0  0  0  0
   10.5164  -14.8275   24.1597 O   0  0  0  0  0  0  0  0  0  0  0  0
    6.2879  -12.1379   26.4374 C   0  0  0  0  0  0  0  0  0  0  0  0
    7.4813  -12.9212   25.9916 C   0  0  0  0  0  0  0  0  0  0  0  0
    8.0304  -13.7851   27.1320 C   0  0  2  0  0  0  0  0  0  0  0  0
    8.5363  -12.9391   28.2608 C   0  0  0  0  0  0  0  0  0  0  0  0
    9.1848  -14.6317   26.6203 C   0  0  2  0  0  0  0  0  0  0  0  0
    8.7737  -15.4594   25.5065 N   0  0  0  0  0  0  0  0  0  0  0  0
    9.5951  -15.5135   27.7323 C   0  0  0  0  0  0  0  0  0  0  0  0
   10.6106  -15.1808   28.6128 O   0  0  0  0  0  0  0  0  0  0  0  0
    9.0101  -16.6094   27.8980 O   0  0  0  0  0  0  0  0  0  0  0  0
  2  1  1  6
  3  2  1  0
  4  2  1  0
  4  5  1  6
  6  4  1  0
  6  7  2  0
  8  9  1  0
  9 10  2  0
  9 11  1  0
 11 12  1  0
 13 12  1  6
 13 14  1  0
 14  6  1  0
 15 13  1  0
 16 15  2  0
 18 17  1  0
 19 18  1  0
 19 21  1  0
 19 20  1  1
 21 22  1  6
 21 23  1  0
 22 15  1  0
 23 24  1  0
 25 23  2  0
M  END
$$$$
