VQI.pdb
     RDKit          3D

 25 24  0  0  1  0  0  0  0  0999 V2000
    7.3813  -12.7071   20.6922 C   0  0  0  0  0  0  0  0  0  0  0  0
    8.4524  -13.4081   19.9091 C   0  0  2  0  0  0  0  0  0  0  0  0
    8.5357  -12.8310   18.5140 C   0  0  0  0  0  0  0  0  0  0  0  0
    8.2237  -14.9004   19.8201 C   0  0  2  0  0  0  0  0  0  0  0  0
    7.0286  -15.1533   19.0091 N   0  0  0  0  0  0  0  0  0  0  0  0
    8.0875  -15.5192   21.1592 C   0  0  0  0  0  0  0  0  0  0  0  0
    6.9421  -15.6131   21.6696 O   0  0  0  0  0  0  0  0  0  0  0  0
   11.5741  -20.0780   23.7132 N   0  0  0  0  0  0  0  0  0  0  0  0
   10.7124  -19.6642   24.7839 C   0  0  0  0  0  0  0  0  0  0  0  0
   10.7761  -20.3716   25.8252 O   0  0  0  0  0  0  0  0  0  0  0  0
    9.8249  -18.4885   24.6472 C   0  0  0  0  0  0  0  0  0  0  0  0
    9.9254  -17.8307   23.3169 C   0  0  0  0  0  0  0  0  0  0  0  0
    9.0440  -16.6149   23.1408 C   0  0  2  0  0  0  0  0  0  0  0  0
    9.2257  -15.9964   21.8522 N   0  0  0  0  0  0  0  0  0  0  0  0
    9.4715  -15.6510   24.1875 C   0  0  0  0  0  0  0  0  0  0  0  0
   10.5516  -15.0329   24.0415 O   0  0  0  0  0  0  0  0  0  0  0  0
    5.9093  -12.3293   26.2591 C   0  0  0  0  0  0  0  0  0  0  0  0
    7.1762  -12.9606   25.7762 C   0  0  0  0  0  0  0  0  0  0  0  0
    7.9039  -13.6783   26.9181 C   0  0  2  0  0  0  0  0  0  0  0  0
    8.3891  -12.7064   27.9504 C   0  0  0  0  0  0  0  0  0  0  0  0
    9.1084  -14.4240   26.3664 C   0  0  2  0  0  0  0  0  0  0  0  0
    8.7126  -15.3875   25.3615 N   0  0  0  0  0  0  0  0  0  0  0  0
    9.7169  -15.1519   27.4987 C   0  0  0  0  0  0  0  0  0  0  0  0
   10.7143  -14.6047   28.2879 O   0  0  0  0  0  0  0  0  0  0  0  0
    9.3253  -16.3116   27.7678 O   0  0  0  0  0  0  0  0  0  0  0  0
  2  1  1  1
  3  2  1  0
  4  2  1  0
  4  5  1  6
  6  4  1  0
  6  7  2  0
  8  9  1  0
  9 10  2  0
  9 11  1  0
 11 12  1  0
 13 12  1  6
 13 14  1  0
 14  6  1  0
 15 13  1  0
 16 15  2  0
 18 17  1  0
 19 18  1  0
 19 21  1  0
 19 20  1  1
 21 22  1  6
 21 23  1  0
 22 15  1  0
 23 24  1  0
 25 23  2  0
M  END
$$$$
