TGN.pdb
     RDKit          3D

 20 19  0  0  1  0  0  0  0  0999 V2000
    6.6072  -14.2996   18.0868 C   0  0  0  0  0  0  0  0  0  0  0  0
    7.9056  -14.3673   18.8239 C   0  0  1  0  0  0  0  0  0  0  0  0
    8.1439  -13.2480   19.6115 O   0  0  0  0  0  0  0  0  0  0  0  0
    8.0774  -15.6426   19.6191 C   0  0  2  0  0  0  0  0  0  0  0  0
    6.9899  -15.8090   20.5329 N   0  0  0  0  0  0  0  0  0  0  0  0
    9.4036  -15.7596   20.2296 C   0  0  0  0  0  0  0  0  0  0  0  0
   10.4040  -15.8120   19.4684 O   0  0  0  0  0  0  0  0  0  0  0  0
    9.6607  -15.8198   21.6280 N   0  0  0  0  0  0  0  0  0  0  0  0
   10.9813  -15.8176   22.1932 C   0  0  0  0  0  0  0  0  0  0  0  0
   10.9763  -15.8094   23.6692 C   0  0  0  0  0  0  0  0  0  0  0  0
   12.0384  -15.7449   24.3153 O   0  0  0  0  0  0  0  0  0  0  0  0
    6.8657  -13.6484   24.9947 N   0  0  0  0  0  0  0  0  0  0  0  0
    8.0217  -14.0133   25.7766 C   0  0  0  0  0  0  0  0  0  0  0  0
    8.8088  -13.1048   26.1274 O   0  0  0  0  0  0  0  0  0  0  0  0
    8.2021  -15.4301   26.1121 C   0  0  0  0  0  0  0  0  0  0  0  0
    9.6083  -15.8835   25.7816 C   0  0  2  0  0  0  0  0  0  0  0  0
    9.7375  -15.8765   24.3444 N   0  0  0  0  0  0  0  0  0  0  0  0
    9.7329  -17.2787   26.2709 C   0  0  0  0  0  0  0  0  0  0  0  0
    9.8672  -18.3180   25.3658 O   0  0  0  0  0  0  0  0  0  0  0  0
    9.7204  -17.5552   27.5038 O   0  0  0  0  0  0  0  0  0  0  0  0
  2  1  1  1
  2  4  1  0
  3  2  1  0
  4  5  1  1
  6  8  1  0
  6  4  1  0
  7  6  2  0
  9 10  1  0
  9  8  1  0
 10 17  1  0
 11 10  2  0
 13 12  1  0
 14 13  2  0
 16 15  1  6
 15 13  1  0
 16 18  1  0
 17 16  1  0
 18 20  2  0
 18 19  1  0
M  END
$$$$
