TGN.pdb
     RDKit          3D

 20 19  0  0  1  0  0  0  0  0999 V2000
    8.1073  -18.0704   15.2502 C   0  0  0  0  0  0  0  0  0  0  0  0
    8.0871  -17.4079   16.5898 C   0  0  1  0  0  0  0  0  0  0  0  0
    6.8830  -17.5755   17.2623 O   0  0  0  0  0  0  0  0  0  0  0  0
    9.2603  -17.7900   17.4649 C   0  0  2  0  0  0  0  0  0  0  0  0
    9.1921  -19.1761   17.8107 N   0  0  0  0  0  0  0  0  0  0  0  0
    9.4368  -16.8899   18.6068 C   0  0  0  0  0  0  0  0  0  0  0  0
    8.9839  -15.7196   18.5147 O   0  0  0  0  0  0  0  0  0  0  0  0
   10.0851  -17.2300   19.8272 N   0  0  0  0  0  0  0  0  0  0  0  0
   10.1381  -16.3583   20.9677 C   0  0  0  0  0  0  0  0  0  0  0  0
   10.7788  -16.9833   22.1414 C   0  0  0  0  0  0  0  0  0  0  0  0
   10.5344  -18.1629   22.4551 O   0  0  0  0  0  0  0  0  0  0  0  0
   15.1105  -14.9640   22.3686 N   0  0  0  0  0  0  0  0  0  0  0  0
   14.6285  -16.1076   23.1039 C   0  0  0  0  0  0  0  0  0  0  0  0
   15.0554  -17.2400   22.7822 O   0  0  0  0  0  0  0  0  0  0  0  0
   13.6659  -15.8703   24.1853 C   0  0  0  0  0  0  0  0  0  0  0  0
   12.4434  -16.7471   24.0156 C   0  0  2  0  0  0  0  0  0  0  0  0
   11.6818  -16.2166   22.9106 N   0  0  0  0  0  0  0  0  0  0  0  0
   11.6462  -16.6135   25.2598 C   0  0  0  0  0  0  0  0  0  0  0  0
   12.0467  -17.2720   26.4101 O   0  0  0  0  0  0  0  0  0  0  0  0
   10.5984  -15.9087   25.3064 O   0  0  0  0  0  0  0  0  0  0  0  0
  2  1  1  6
  2  4  1  0
  3  2  1  0
  4  5  1  1
  6  8  1  0
  6  4  1  0
  7  6  2  0
  9 10  1  0
  9  8  1  0
 10 17  1  0
 11 10  2  0
 13 12  1  0
 14 13  2  0
 16 15  1  1
 15 13  1  0
 16 18  1  0
 17 16  1  0
 18 20  2  0
 18 19  1  0
M  END
$$$$
