TGN.pdb
     RDKit          3D

 20 19  0  0  1  0  0  0  0  0999 V2000
    7.5726  -17.9678   16.9035 C   0  0  0  0  0  0  0  0  0  0  0  0
    8.1711  -17.2267   18.0553 C   0  0  1  0  0  0  0  0  0  0  0  0
    7.8724  -15.8700   18.0442 O   0  0  0  0  0  0  0  0  0  0  0  0
    7.8514  -17.8465   19.3976 C   0  0  2  0  0  0  0  0  0  0  0  0
    6.4370  -17.8753   19.6078 N   0  0  0  0  0  0  0  0  0  0  0  0
    8.6141  -17.2506   20.4969 C   0  0  0  0  0  0  0  0  0  0  0  0
    9.8696  -17.3199   20.4531 O   0  0  0  0  0  0  0  0  0  0  0  0
    8.0494  -16.5913   21.6247 N   0  0  0  0  0  0  0  0  0  0  0  0
    8.8329  -15.9599   22.6497 C   0  0  0  0  0  0  0  0  0  0  0  0
    9.6332  -16.9190   23.4362 C   0  0  0  0  0  0  0  0  0  0  0  0
    9.2964  -18.1138   23.5284 O   0  0  0  0  0  0  0  0  0  0  0  0
   13.9424  -18.0000   22.8683 N   0  0  0  0  0  0  0  0  0  0  0  0
   13.6121  -16.7121   23.4278 C   0  0  0  0  0  0  0  0  0  0  0  0
   13.8083  -15.6945   22.7249 O   0  0  0  0  0  0  0  0  0  0  0  0
   13.0655  -16.6764   24.7887 C   0  0  0  0  0  0  0  0  0  0  0  0
   11.6922  -17.3125   24.8307 C   0  0  2  0  0  0  0  0  0  0  0  0
   10.7976  -16.4571   24.0888 N   0  0  0  0  0  0  0  0  0  0  0  0
   11.2735  -17.3304   26.2541 C   0  0  0  0  0  0  0  0  0  0  0  0
   10.5140  -16.2906   26.7631 O   0  0  0  0  0  0  0  0  0  0  0  0
   11.5912  -18.2764   27.0293 O   0  0  0  0  0  0  0  0  0  0  0  0
  2  1  1  6
  2  4  1  0
  3  2  1  0
  4  5  1  1
  6  8  1  0
  6  4  1  0
  7  6  2  0
  9 10  1  0
  9  8  1  0
 10 17  1  0
 11 10  2  0
 13 12  1  0
 14 13  2  0
 16 15  1  1
 15 13  1  0
 16 18  1  0
 17 16  1  0
 18 20  2  0
 18 19  1  0
M  END
$$$$
