TGN.pdb
     RDKit          3D

 20 19  0  0  1  0  0  0  0  0999 V2000
    8.0376  -12.6542   18.0486 C   0  0  0  0  0  0  0  0  0  0  0  0
    7.4540  -13.4768   19.1516 C   0  0  1  0  0  0  0  0  0  0  0  0
    6.6734  -14.5299   18.6912 O   0  0  0  0  0  0  0  0  0  0  0  0
    8.4835  -13.9552   20.1514 C   0  0  2  0  0  0  0  0  0  0  0  0
    9.3870  -14.8754   19.5330 N   0  0  0  0  0  0  0  0  0  0  0  0
    7.8857  -14.4396   21.3976 C   0  0  0  0  0  0  0  0  0  0  0  0
    7.3195  -13.6031   22.1479 O   0  0  0  0  0  0  0  0  0  0  0  0
    7.8906  -15.7928   21.8383 N   0  0  0  0  0  0  0  0  0  0  0  0
    7.4028  -16.2111   23.1231 C   0  0  0  0  0  0  0  0  0  0  0  0
    8.2437  -15.7386   24.2404 C   0  0  0  0  0  0  0  0  0  0  0  0
    9.4321  -15.4156   24.0587 O   0  0  0  0  0  0  0  0  0  0  0  0
    5.9135  -12.6713   26.7321 N   0  0  0  0  0  0  0  0  0  0  0  0
    7.2783  -13.1110   26.8903 C   0  0  0  0  0  0  0  0  0  0  0  0
    8.1914  -12.3711   26.4582 O   0  0  0  0  0  0  0  0  0  0  0  0
    7.5100  -14.4009   27.5496 C   0  0  0  0  0  0  0  0  0  0  0  0
    8.4157  -15.2762   26.7093 C   0  0  2  0  0  0  0  0  0  0  0  0
    7.6753  -15.6575   25.5308 N   0  0  0  0  0  0  0  0  0  0  0  0
    8.7020  -16.4899   27.5133 C   0  0  0  0  0  0  0  0  0  0  0  0
    9.5056  -16.3993   28.6374 O   0  0  0  0  0  0  0  0  0  0  0  0
    8.2308  -17.6205   27.2027 O   0  0  0  0  0  0  0  0  0  0  0  0
  2  1  1  6
  2  4  1  0
  3  2  1  0
  4  5  1  6
  6  8  1  0
  6  4  1  0
  7  6  2  0
  9 10  1  0
  9  8  1  0
 10 17  1  0
 11 10  2  0
 13 12  1  0
 14 13  2  0
 16 15  1  1
 15 13  1  0
 16 18  1  0
 17 16  1  0
 18 20  2  0
 18 19  1  0
M  END
$$$$
