TGN.pdb
     RDKit          3D

 20 19  0  0  1  0  0  0  0  0999 V2000
   10.4421  -17.6366   21.0928 C   0  0  0  0  0  0  0  0  0  0  0  0
    9.2066  -18.3243   20.6084 C   0  0  1  0  0  0  0  0  0  0  0  0
    8.5657  -19.0554   21.6008 O   0  0  0  0  0  0  0  0  0  0  0  0
    8.2423  -17.3969   19.9027 C   0  0  2  0  0  0  0  0  0  0  0  0
    8.8622  -16.8173   18.7515 N   0  0  0  0  0  0  0  0  0  0  0  0
    7.6191  -16.4273   20.8065 C   0  0  0  0  0  0  0  0  0  0  0  0
    6.7877  -16.8523   21.6498 O   0  0  0  0  0  0  0  0  0  0  0  0
    7.8768  -15.0277   20.8125 N   0  0  0  0  0  0  0  0  0  0  0  0
    7.2779  -14.1142   21.7454 C   0  0  0  0  0  0  0  0  0  0  0  0
    7.9449  -14.1156   23.0622 C   0  0  0  0  0  0  0  0  0  0  0  0
    9.1830  -14.2056   23.1556 O   0  0  0  0  0  0  0  0  0  0  0  0
    5.5849  -11.3385   27.4028 N   0  0  0  0  0  0  0  0  0  0  0  0
    6.7285  -12.0239   26.8523 C   0  0  0  0  0  0  0  0  0  0  0  0
    7.8007  -11.3871   26.7382 O   0  0  0  0  0  0  0  0  0  0  0  0
    6.5621  -13.4277   26.4602 C   0  0  0  0  0  0  0  0  0  0  0  0
    7.6931  -13.8682   25.5551 C   0  0  2  0  0  0  0  0  0  0  0  0
    7.1507  -14.0124   24.2256 N   0  0  0  0  0  0  0  0  0  0  0  0
    8.1367  -15.1976   26.0423 C   0  0  0  0  0  0  0  0  0  0  0  0
    7.6091  -16.3490   25.4826 O   0  0  0  0  0  0  0  0  0  0  0  0
    8.9922  -15.3169   26.9646 O   0  0  0  0  0  0  0  0  0  0  0  0
  2  1  1  1
  2  4  1  0
  3  2  1  0
  4  5  1  6
  6  8  1  0
  6  4  1  0
  7  6  2  0
  9 10  1  0
  9  8  1  0
 10 17  1  0
 11 10  2  0
 13 12  1  0
 14 13  2  0
 16 15  1  1
 15 13  1  0
 16 18  1  0
 17 16  1  0
 18 20  2  0
 18 19  1  0
M  END
$$$$
