TGN.pdb
     RDKit          3D

 20 19  0  0  1  0  0  0  0  0999 V2000
    7.7018  -12.6070   18.4193 C   0  0  0  0  0  0  0  0  0  0  0  0
    7.4532  -13.4109   19.6546 C   0  0  1  0  0  0  0  0  0  0  0  0
    6.4544  -14.3630   19.4930 O   0  0  0  0  0  0  0  0  0  0  0  0
    8.7087  -14.0273   20.2310 C   0  0  2  0  0  0  0  0  0  0  0  0
    9.2267  -15.0221   19.3436 N   0  0  0  0  0  0  0  0  0  0  0  0
    8.5387  -14.4796   21.6136 C   0  0  0  0  0  0  0  0  0  0  0  0
    8.3204  -13.6123   22.4985 O   0  0  0  0  0  0  0  0  0  0  0  0
    8.6001  -15.8337   22.0474 N   0  0  0  0  0  0  0  0  0  0  0  0
    8.2813  -16.2546   23.3833 C   0  0  0  0  0  0  0  0  0  0  0  0
    9.3382  -15.9241   24.3592 C   0  0  0  0  0  0  0  0  0  0  0  0
   10.4718  -15.5716   23.9845 O   0  0  0  0  0  0  0  0  0  0  0  0
   10.7467  -13.3573   29.0087 N   0  0  0  0  0  0  0  0  0  0  0  0
   10.1129  -14.6531   28.9975 C   0  0  0  0  0  0  0  0  0  0  0  0
   10.3514  -15.4359   29.9453 O   0  0  0  0  0  0  0  0  0  0  0  0
    9.2264  -14.9721   27.8729 C   0  0  0  0  0  0  0  0  0  0  0  0
    9.9859  -15.6962   26.7815 C   0  0  2  0  0  0  0  0  0  0  0  0
    9.0421  -16.0145   25.7373 N   0  0  0  0  0  0  0  0  0  0  0  0
   10.4902  -16.9579   27.3776 C   0  0  0  0  0  0  0  0  0  0  0  0
    9.7697  -18.1303   27.2235 O   0  0  0  0  0  0  0  0  0  0  0  0
   11.5710  -16.9999   28.0310 O   0  0  0  0  0  0  0  0  0  0  0  0
  2  1  1  6
  2  4  1  0
  3  2  1  0
  4  5  1  6
  6  8  1  0
  6  4  1  0
  7  6  2  0
  9 10  1  0
  9  8  1  0
 10 17  1  0
 11 10  2  0
 13 12  1  0
 14 13  2  0
 16 15  1  1
 15 13  1  0
 16 18  1  0
 17 16  1  0
 18 20  2  0
 18 19  1  0
M  END
$$$$
