TGN.pdb
     RDKit          3D

 20 19  0  0  1  0  0  0  0  0999 V2000
    6.8567  -15.0178   19.3887 C   0  0  0  0  0  0  0  0  0  0  0  0
    6.9197  -14.9998   20.8819 C   0  0  1  0  0  0  0  0  0  0  0  0
    5.9011  -14.2532   21.4610 O   0  0  0  0  0  0  0  0  0  0  0  0
    7.0027  -16.3803   21.4947 C   0  0  2  0  0  0  0  0  0  0  0  0
    5.8384  -17.1420   21.1637 N   0  0  0  0  0  0  0  0  0  0  0  0
    7.3201  -16.3513   22.9243 C   0  0  0  0  0  0  0  0  0  0  0  0
    8.4538  -15.9301   23.2714 O   0  0  0  0  0  0  0  0  0  0  0  0
    6.4447  -16.7640   23.9677 N   0  0  0  0  0  0  0  0  0  0  0  0
    6.8016  -16.7410   25.3589 C   0  0  0  0  0  0  0  0  0  0  0  0
    7.8950  -17.6761   25.6888 C   0  0  0  0  0  0  0  0  0  0  0  0
    7.7664  -18.9022   25.5164 O   0  0  0  0  0  0  0  0  0  0  0  0
   11.3247  -15.7500   24.0926 N   0  0  0  0  0  0  0  0  0  0  0  0
   11.6072  -17.0333   24.6877 C   0  0  0  0  0  0  0  0  0  0  0  0
   11.9424  -17.9741   23.9325 O   0  0  0  0  0  0  0  0  0  0  0  0
   11.4835  -17.1546   26.1445 C   0  0  0  0  0  0  0  0  0  0  0  0
   10.2571  -17.9628   26.5120 C   0  0  2  0  0  0  0  0  0  0  0  0
    9.1008  -17.1548   26.2079 N   0  0  0  0  0  0  0  0  0  0  0  0
   10.3173  -18.1874   27.9774 C   0  0  0  0  0  0  0  0  0  0  0  0
   11.2594  -19.0545   28.5045 O   0  0  0  0  0  0  0  0  0  0  0  0
    9.5263  -17.6058   28.7729 O   0  0  0  0  0  0  0  0  0  0  0  0
  2  1  1  6
  2  4  1  0
  3  2  1  0
  4  5  1  1
  6  8  1  0
  6  4  1  0
  7  6  2  0
  9 10  1  0
  9  8  1  0
 10 17  1  0
 11 10  2  0
 13 12  1  0
 14 13  2  0
 16 15  1  1
 15 13  1  0
 16 18  1  0
 17 16  1  0
 18 20  2  0
 18 19  1  0
M  END
$$$$
