GKL.pdb
     RDKit          3D

 22 21  0  0  1  0  0  0  0  0999 V2000
    6.4577  -19.7108   21.9603 N   0  0  0  0  0  0  0  0  0  0  0  0
    6.1001  -18.3603   22.2776 C   0  0  0  0  0  0  0  0  0  0  0  0
    7.2151  -17.4103   21.9973 C   0  0  0  0  0  0  0  0  0  0  0  0
    8.3302  -17.9021   21.6312 O   0  0  0  0  0  0  0  0  0  0  0  0
    6.9967  -16.0296   22.1453 N   0  0  0  0  0  0  0  0  0  0  0  0
    8.0744  -15.1009   21.8340 C   0  0  1  0  0  0  0  0  0  0  0  0
    7.4401  -13.8574   21.2550 C   0  0  0  0  0  0  0  0  0  0  0  0
    7.1940  -14.0139   19.7935 C   0  0  0  0  0  0  0  0  0  0  0  0
    8.3553  -13.5064   18.9575 C   0  0  0  0  0  0  0  0  0  0  0  0
    7.9332  -13.6084   17.4856 C   0  0  0  0  0  0  0  0  0  0  0  0
    9.0382  -13.2046   16.6557 N   0  0  0  0  0  0  0  0  0  0  0  0
    8.8531  -14.7810   23.0565 C   0  0  0  0  0  0  0  0  0  0  0  0
    9.6537  -13.8298   23.0865 O   0  0  0  0  0  0  0  0  0  0  0  0
    5.6177  -12.8590   26.7503 C   0  0  0  0  0  0  0  0  0  0  0  0
    7.0864  -13.2594   26.7177 C   0  0  2  0  0  0  0  0  0  0  0  0
    8.0189  -12.1883   27.1695 C   0  0  0  0  0  0  0  0  0  0  0  0
    7.4715  -14.0322   25.5193 C   0  0  0  0  0  0  0  0  0  0  0  0
    8.5815  -14.9933   25.5764 C   0  0  2  0  0  0  0  0  0  0  0  0
    8.6907  -15.5642   24.2143 N   0  0  0  0  0  0  0  0  0  0  0  0
    8.5752  -16.0374   26.5823 C   0  0  0  0  0  0  0  0  0  0  0  0
    7.7671  -16.9953   26.4843 O   0  0  0  0  0  0  0  0  0  0  0  0
    9.4079  -16.0806   27.6800 O   0  0  0  0  0  0  0  0  0  0  0  0
  2  1  1  0
  3  2  1  0
  4  3  2  0
  5  3  1  0
  6  5  1  0
  6  7  1  1
  8  7  1  0
  9  8  1  0
 10  9  1  0
 11 10  1  0
 12  6  1  0
 12 19  1  0
 13 12  2  0
 15 14  1  6
 16 15  1  0
 17 15  1  0
 18 17  1  6
 18 19  1  0
 18 20  1  0
 20 21  2  0
 20 22  1  0
M  END
$$$$
