GKL.pdb
     RDKit          3D

 22 21  0  0  1  0  0  0  0  0999 V2000
    3.6112  -19.1757   22.7913 N   0  0  0  0  0  0  0  0  0  0  0  0
    4.1179  -17.9270   22.3052 C   0  0  0  0  0  0  0  0  0  0  0  0
    5.5919  -17.8119   22.5011 C   0  0  0  0  0  0  0  0  0  0  0  0
    6.1581  -18.6819   23.2373 O   0  0  0  0  0  0  0  0  0  0  0  0
    6.2897  -16.7642   21.8757 N   0  0  0  0  0  0  0  0  0  0  0  0
    7.7196  -16.6204   22.1117 C   0  0  1  0  0  0  0  0  0  0  0  0
    8.3349  -16.1062   20.8307 C   0  0  0  0  0  0  0  0  0  0  0  0
    9.8060  -16.3441   20.8113 C   0  0  0  0  0  0  0  0  0  0  0  0
   10.1482  -17.8191   20.7005 C   0  0  0  0  0  0  0  0  0  0  0  0
   11.6782  -17.9269   20.6469 C   0  0  0  0  0  0  0  0  0  0  0  0
   12.0507  -19.3135   20.7528 N   0  0  0  0  0  0  0  0  0  0  0  0
    7.9684  -15.6829   23.2353 C   0  0  0  0  0  0  0  0  0  0  0  0
    7.7504  -14.4636   23.1245 O   0  0  0  0  0  0  0  0  0  0  0  0
    8.0142  -12.5199   25.9712 C   0  0  0  0  0  0  0  0  0  0  0  0
    6.8283  -13.4629   25.8200 C   0  0  2  0  0  0  0  0  0  0  0  0
    5.5876  -12.9934   26.4990 C   0  0  0  0  0  0  0  0  0  0  0  0
    7.1765  -14.8919   25.9565 C   0  0  0  0  0  0  0  0  0  0  0  0
    8.5454  -15.3548   25.6906 C   0  0  2  0  0  0  0  0  0  0  0  0
    8.4621  -16.1726   24.4588 N   0  0  0  0  0  0  0  0  0  0  0  0
    9.2830  -16.0469   26.7291 C   0  0  0  0  0  0  0  0  0  0  0  0
   10.3108  -15.5188   27.2243 O   0  0  0  0  0  0  0  0  0  0  0  0
    8.9480  -17.2798   27.2469 O   0  0  0  0  0  0  0  0  0  0  0  0
  2  1  1  0
  3  2  1  0
  4  3  2  0
  5  3  1  0
  6  5  1  0
  6  7  1  6
  8  7  1  0
  9  8  1  0
 10  9  1  0
 11 10  1  0
 12  6  1  0
 12 19  1  0
 13 12  2  0
 15 14  1  1
 16 15  1  0
 17 15  1  0
 18 17  1  1
 18 19  1  0
 18 20  1  0
 20 21  2  0
 20 22  1  0
M  END
$$$$
