GKL.pdb
     RDKit          3D

 22 21  0  0  1  0  0  0  0  0999 V2000
    6.3073  -20.0186   23.3775 N   0  0  0  0  0  0  0  0  0  0  0  0
    6.0224  -18.6657   23.7526 C   0  0  0  0  0  0  0  0  0  0  0  0
    6.9867  -17.7055   23.1422 C   0  0  0  0  0  0  0  0  0  0  0  0
    8.2264  -17.9794   23.2300 O   0  0  0  0  0  0  0  0  0  0  0  0
    6.4988  -16.5526   22.5030 N   0  0  0  0  0  0  0  0  0  0  0  0
    7.4430  -15.5802   21.9704 C   0  0  1  0  0  0  0  0  0  0  0  0
    6.6536  -14.6056   21.1271 C   0  0  0  0  0  0  0  0  0  0  0  0
    7.5558  -13.6308   20.4512 C   0  0  0  0  0  0  0  0  0  0  0  0
    7.5295  -13.7755   18.9401 C   0  0  0  0  0  0  0  0  0  0  0  0
    8.5664  -12.7967   18.3727 C   0  0  0  0  0  0  0  0  0  0  0  0
    8.4499  -12.7759   16.9379 N   0  0  0  0  0  0  0  0  0  0  0  0
    8.1458  -14.8804   23.0748 C   0  0  0  0  0  0  0  0  0  0  0  0
    8.5516  -13.7116   22.9492 O   0  0  0  0  0  0  0  0  0  0  0  0
    6.0498  -12.4348   27.1732 C   0  0  0  0  0  0  0  0  0  0  0  0
    7.4224  -13.0572   26.9569 C   0  0  2  0  0  0  0  0  0  0  0  0
    8.5593  -12.1399   27.2519 C   0  0  0  0  0  0  0  0  0  0  0  0
    7.5199  -13.8878   25.7393 C   0  0  0  0  0  0  0  0  0  0  0  0
    8.6277  -14.8385   25.5717 C   0  0  2  0  0  0  0  0  0  0  0  0
    8.3639  -15.5438   24.2965 N   0  0  0  0  0  0  0  0  0  0  0  0
    8.9353  -15.7759   26.6340 C   0  0  0  0  0  0  0  0  0  0  0  0
    9.9750  -15.6207   27.3235 O   0  0  0  0  0  0  0  0  0  0  0  0
    8.1617  -16.8650   26.9739 O   0  0  0  0  0  0  0  0  0  0  0  0
  2  1  1  0
  3  2  1  0
  4  3  2  0
  5  3  1  0
  6  5  1  0
  6  7  1  1
  8  7  1  0
  9  8  1  0
 10  9  1  0
 11 10  1  0
 12  6  1  0
 12 19  1  0
 13 12  2  0
 15 14  1  6
 16 15  1  0
 17 15  1  0
 18 17  1  1
 18 19  1  0
 18 20  1  0
 20 21  2  0
 20 22  1  0
M  END
$$$$
