GKL.pdb
     RDKit          3D

 22 21  0  0  1  0  0  0  0  0999 V2000
    7.8653  -12.6512   18.3814 N   0  0  0  0  0  0  0  0  0  0  0  0
    8.6019  -13.8118   18.7848 C   0  0  0  0  0  0  0  0  0  0  0  0
    8.0828  -14.3830   20.0609 C   0  0  0  0  0  0  0  0  0  0  0  0
    7.1807  -13.7288   20.6754 O   0  0  0  0  0  0  0  0  0  0  0  0
    8.6006  -15.6027   20.5301 N   0  0  0  0  0  0  0  0  0  0  0  0
    8.0514  -16.1892   21.7447 C   0  0  1  0  0  0  0  0  0  0  0  0
    8.4785  -17.6386   21.7743 C   0  0  0  0  0  0  0  0  0  0  0  0
    7.8063  -18.4160   20.6950 C   0  0  0  0  0  0  0  0  0  0  0  0
    8.2365  -19.8719   20.6821 C   0  0  0  0  0  0  0  0  0  0  0  0
    7.4797  -20.5583   19.5370 C   0  0  0  0  0  0  0  0  0  0  0  0
    7.8996  -21.9333   19.4604 N   0  0  0  0  0  0  0  0  0  0  0  0
    8.5470  -15.4639   22.9412 C   0  0  0  0  0  0  0  0  0  0  0  0
    9.7511  -15.1853   23.0795 O   0  0  0  0  0  0  0  0  0  0  0  0
    5.5275  -12.1721   27.1525 C   0  0  0  0  0  0  0  0  0  0  0  0
    6.8955  -12.4670   26.5524 C   0  0  2  0  0  0  0  0  0  0  0  0
    7.7696  -11.2681   26.4129 C   0  0  0  0  0  0  0  0  0  0  0  0
    6.8629  -13.4174   25.4221 C   0  0  0  0  0  0  0  0  0  0  0  0
    8.0305  -14.2565   25.1193 C   0  0  2  0  0  0  0  0  0  0  0  0
    7.6440  -15.0774   23.9489 N   0  0  0  0  0  0  0  0  0  0  0  0
    8.6150  -15.0757   26.1628 C   0  0  0  0  0  0  0  0  0  0  0  0
    8.1230  -16.2031   26.4223 O   0  0  0  0  0  0  0  0  0  0  0  0
    9.7057  -14.7203   26.9272 O   0  0  0  0  0  0  0  0  0  0  0  0
  2  1  1  0
  3  2  1  0
  4  3  2  0
  5  3  1  0
  6  5  1  0
  6  7  1  1
  8  7  1  0
  9  8  1  0
 10  9  1  0
 11 10  1  0
 12  6  1  0
 12 19  1  0
 13 12  2  0
 15 14  1  6
 16 15  1  0
 17 15  1  0
 18 17  1  1
 18 19  1  0
 18 20  1  0
 20 21  2  0
 20 22  1  0
M  END
$$$$
