GKL.pdb
     RDKit          3D

 22 21  0  0  1  0  0  0  0  0999 V2000
    5.6146  -19.4325   22.5427 N   0  0  0  0  0  0  0  0  0  0  0  0
    5.3760  -18.0209   22.5954 C   0  0  0  0  0  0  0  0  0  0  0  0
    6.6288  -17.2380   22.3904 C   0  0  0  0  0  0  0  0  0  0  0  0
    7.7344  -17.8240   22.6223 O   0  0  0  0  0  0  0  0  0  0  0  0
    6.5435  -15.9040   21.9557 N   0  0  0  0  0  0  0  0  0  0  0  0
    7.7667  -15.1344   21.7752 C   0  0  1  0  0  0  0  0  0  0  0  0
    7.4904  -14.0986   20.7100 C   0  0  0  0  0  0  0  0  0  0  0  0
    7.8947  -14.5949   19.3642 C   0  0  0  0  0  0  0  0  0  0  0  0
    7.9280  -13.4854   18.3284 C   0  0  0  0  0  0  0  0  0  0  0  0
    8.3599  -14.1189   16.9990 C   0  0  0  0  0  0  0  0  0  0  0  0
    8.3418  -13.1076   15.9744 N   0  0  0  0  0  0  0  0  0  0  0  0
    8.1682  -14.4912   23.0513 C   0  0  0  0  0  0  0  0  0  0  0  0
    8.2219  -13.2541   23.1666 O   0  0  0  0  0  0  0  0  0  0  0  0
    6.2491  -12.1357   27.0788 C   0  0  0  0  0  0  0  0  0  0  0  0
    7.5543  -12.8990   26.8996 C   0  0  2  0  0  0  0  0  0  0  0  0
    8.7758  -12.0797   27.1398 C   0  0  0  0  0  0  0  0  0  0  0  0
    7.5645  -13.8052   25.7331 C   0  0  0  0  0  0  0  0  0  0  0  0
    8.6731  -14.7480   25.5308 C   0  0  2  0  0  0  0  0  0  0  0  0
    8.4980  -15.2883   24.1631 N   0  0  0  0  0  0  0  0  0  0  0  0
    8.8931  -15.8129   26.4897 C   0  0  0  0  0  0  0  0  0  0  0  0
    9.9423  -15.8241   27.1821 O   0  0  0  0  0  0  0  0  0  0  0  0
    8.0229  -16.8560   26.7240 O   0  0  0  0  0  0  0  0  0  0  0  0
  2  1  1  0
  3  2  1  0
  4  3  2  0
  5  3  1  0
  6  5  1  0
  6  7  1  6
  8  7  1  0
  9  8  1  0
 10  9  1  0
 11 10  1  0
 12  6  1  0
 12 19  1  0
 13 12  2  0
 15 14  1  6
 16 15  1  0
 17 15  1  0
 18 17  1  1
 18 19  1  0
 18 20  1  0
 20 21  2  0
 20 22  1  0
M  END
$$$$
