GKL.pdb
     RDKit          3D

 22 21  0  0  1  0  0  0  0  0999 V2000
    5.7589  -19.3608   21.8655 N   0  0  0  0  0  0  0  0  0  0  0  0
    5.6284  -18.0724   22.4781 C   0  0  0  0  0  0  0  0  0  0  0  0
    6.8288  -17.2201   22.2395 C   0  0  0  0  0  0  0  0  0  0  0  0
    7.9633  -17.7958   22.2075 O   0  0  0  0  0  0  0  0  0  0  0  0
    6.6655  -15.8353   22.0618 N   0  0  0  0  0  0  0  0  0  0  0  0
    7.8436  -14.9944   21.9007 C   0  0  1  0  0  0  0  0  0  0  0  0
    7.4481  -13.8354   21.0150 C   0  0  0  0  0  0  0  0  0  0  0  0
    7.2186  -14.2877   19.6137 C   0  0  0  0  0  0  0  0  0  0  0  0
    7.9445  -13.4181   18.6028 C   0  0  0  0  0  0  0  0  0  0  0  0
    7.5781  -13.9422   17.2078 C   0  0  0  0  0  0  0  0  0  0  0  0
    8.3981  -13.2752   16.2302 N   0  0  0  0  0  0  0  0  0  0  0  0
    8.3237  -14.5153   23.2211 C   0  0  0  0  0  0  0  0  0  0  0  0
    8.6639  -13.3324   23.3986 O   0  0  0  0  0  0  0  0  0  0  0  0
    6.1435  -12.2099   27.1474 C   0  0  0  0  0  0  0  0  0  0  0  0
    7.4670  -12.8890   26.8228 C   0  0  2  0  0  0  0  0  0  0  0  0
    8.5986  -11.9437   26.6065 C   0  0  0  0  0  0  0  0  0  0  0  0
    7.3449  -14.0256   25.8873 C   0  0  0  0  0  0  0  0  0  0  0  0
    8.4533  -14.9755   25.7191 C   0  0  2  0  0  0  0  0  0  0  0  0
    8.4002  -15.4102   24.3044 N   0  0  0  0  0  0  0  0  0  0  0  0
    8.5653  -16.1123   26.6118 C   0  0  0  0  0  0  0  0  0  0  0  0
    7.7755  -17.0829   26.4907 O   0  0  0  0  0  0  0  0  0  0  0  0
    9.4962  -16.2343   27.6211 O   0  0  0  0  0  0  0  0  0  0  0  0
  2  1  1  0
  3  2  1  0
  4  3  2  0
  5  3  1  0
  6  5  1  0
  6  7  1  6
  8  7  1  0
  9  8  1  0
 10  9  1  0
 11 10  1  0
 12  6  1  0
 12 19  1  0
 13 12  2  0
 15 14  1  6
 16 15  1  0
 17 15  1  0
 18 17  1  1
 18 19  1  0
 18 20  1  0
 20 21  2  0
 20 22  1  0
M  END
$$$$
