GKL.pdb
     RDKit          3D

 22 21  0  0  1  0  0  0  0  0999 V2000
    5.4173  -20.1658   23.9136 N   0  0  0  0  0  0  0  0  0  0  0  0
    5.2051  -18.7578   23.7560 C   0  0  0  0  0  0  0  0  0  0  0  0
    6.4237  -18.0666   23.2444 C   0  0  0  0  0  0  0  0  0  0  0  0
    7.5134  -18.7237   23.2344 O   0  0  0  0  0  0  0  0  0  0  0  0
    6.3252  -16.7369   22.7995 N   0  0  0  0  0  0  0  0  0  0  0  0
    7.5126  -16.0680   22.2861 C   0  0  1  0  0  0  0  0  0  0  0  0
    7.0460  -15.0237   21.2983 C   0  0  0  0  0  0  0  0  0  0  0  0
    8.2010  -14.4088   20.5851 C   0  0  0  0  0  0  0  0  0  0  0  0
    7.7589  -13.4930   19.4577 C   0  0  0  0  0  0  0  0  0  0  0  0
    9.0291  -12.9761   18.7688 C   0  0  0  0  0  0  0  0  0  0  0  0
    8.6549  -12.0153   17.7638 N   0  0  0  0  0  0  0  0  0  0  0  0
    8.2786  -15.4465   23.3953 C   0  0  0  0  0  0  0  0  0  0  0  0
    9.4087  -14.9607   23.2122 O   0  0  0  0  0  0  0  0  0  0  0  0
    5.6307  -12.2552   26.6558 C   0  0  0  0  0  0  0  0  0  0  0  0
    7.0890  -12.6569   26.4816 C   0  0  2  0  0  0  0  0  0  0  0  0
    7.7876  -11.9453   25.3741 C   0  0  0  0  0  0  0  0  0  0  0  0
    7.3321  -14.1078   26.6149 C   0  0  0  0  0  0  0  0  0  0  0  0
    8.3978  -14.7596   25.8413 C   0  0  2  0  0  0  0  0  0  0  0  0
    7.7245  -15.3997   24.6880 N   0  0  0  0  0  0  0  0  0  0  0  0
    9.2992  -15.6844   26.5000 C   0  0  0  0  0  0  0  0  0  0  0  0
    9.9504  -15.3117   27.5086 O   0  0  0  0  0  0  0  0  0  0  0  0
    9.5166  -16.9882   26.1086 O   0  0  0  0  0  0  0  0  0  0  0  0
  2  1  1  0
  3  2  1  0
  4  3  2  0
  5  3  1  0
  6  5  1  0
  6  7  1  6
  8  7  1  0
  9  8  1  0
 10  9  1  0
 11 10  1  0
 12  6  1  0
 12 19  1  0
 13 12  2  0
 15 14  1  6
 16 15  1  0
 17 15  1  0
 18 17  1  1
 18 19  1  0
 18 20  1  0
 20 21  2  0
 20 22  1  0
M  END
$$$$
