GKL.pdb
     RDKit          3D

 22 21  0  0  1  0  0  0  0  0999 V2000
    7.8299  -12.7179   18.5185 N   0  0  0  0  0  0  0  0  0  0  0  0
    8.4646  -13.9342   18.9308 C   0  0  0  0  0  0  0  0  0  0  0  0
    7.8563  -14.4831   20.1769 C   0  0  0  0  0  0  0  0  0  0  0  0
    7.0058  -13.7586   20.7861 O   0  0  0  0  0  0  0  0  0  0  0  0
    8.2384  -15.7594   20.6251 N   0  0  0  0  0  0  0  0  0  0  0  0
    7.6545  -16.2883   21.8499 C   0  0  1  0  0  0  0  0  0  0  0  0
    7.9007  -17.7794   21.8554 C   0  0  0  0  0  0  0  0  0  0  0  0
    7.3252  -18.4117   23.0760 C   0  0  0  0  0  0  0  0  0  0  0  0
    7.5102  -19.9186   23.0844 C   0  0  0  0  0  0  0  0  0  0  0  0
    6.7879  -20.4573   24.3266 C   0  0  0  0  0  0  0  0  0  0  0  0
    6.8413  -21.8959   24.3084 N   0  0  0  0  0  0  0  0  0  0  0  0
    8.2678  -15.6434   23.0379 C   0  0  0  0  0  0  0  0  0  0  0  0
    9.4814  -15.3747   23.0772 O   0  0  0  0  0  0  0  0  0  0  0  0
    5.7022  -12.1143   27.2695 C   0  0  0  0  0  0  0  0  0  0  0  0
    7.0067  -12.4876   26.5788 C   0  0  2  0  0  0  0  0  0  0  0  0
    7.8869  -11.3247   26.2724 C   0  0  0  0  0  0  0  0  0  0  0  0
    6.8581  -13.5195   25.5324 C   0  0  0  0  0  0  0  0  0  0  0  0
    7.9370  -14.4838   25.2772 C   0  0  2  0  0  0  0  0  0  0  0  0
    7.4686  -15.3239   24.1512 N   0  0  0  0  0  0  0  0  0  0  0  0
    8.4416  -15.2998   26.3641 C   0  0  0  0  0  0  0  0  0  0  0  0
    7.8260  -16.3428   26.7011 O   0  0  0  0  0  0  0  0  0  0  0  0
    9.5810  -15.0289   27.0910 O   0  0  0  0  0  0  0  0  0  0  0  0
  2  1  1  0
  3  2  1  0
  4  3  2  0
  5  3  1  0
  6  5  1  0
  6  7  1  1
  8  7  1  0
  9  8  1  0
 10  9  1  0
 11 10  1  0
 12  6  1  0
 12 19  1  0
 13 12  2  0
 15 14  1  6
 16 15  1  0
 17 15  1  0
 18 17  1  1
 18 19  1  0
 18 20  1  0
 20 21  2  0
 20 22  1  0
M  END
$$$$
