NAI.pdb
     RDKit          3D

 22 21  0  0  1  0  0  0  0  0999 V2000
    6.9792  -14.1250   16.1311 N   0  0  0  0  0  0  0  0  0  0  0  0
    7.9978  -13.7579   17.0787 C   0  0  0  0  0  0  0  0  0  0  0  0
    9.1346  -13.5310   16.6449 O   0  0  0  0  0  0  0  0  0  0  0  0
    7.6958  -13.6654   18.5098 C   0  0  0  0  0  0  0  0  0  0  0  0
    8.6721  -14.4251   19.3279 C   0  0  2  0  0  0  0  0  0  0  0  0
    9.1042  -15.5972   18.6325 N   0  0  0  0  0  0  0  0  0  0  0  0
    8.1934  -14.7658   20.6896 C   0  0  0  0  0  0  0  0  0  0  0  0
    7.7298  -13.8464   21.4247 O   0  0  0  0  0  0  0  0  0  0  0  0
    7.6877  -18.0100   22.6563 C   0  0  0  0  0  0  0  0  0  0  0  0
    7.7605  -16.5144   22.4843 C   0  0  2  0  0  0  0  0  0  0  0  0
    8.2172  -16.0767   21.2021 N   0  0  0  0  0  0  0  0  0  0  0  0
    8.3924  -15.8283   23.6343 C   0  0  0  0  0  0  0  0  0  0  0  0
    9.5903  -15.5003   23.7180 O   0  0  0  0  0  0  0  0  0  0  0  0
    5.7078  -11.8174   26.2237 C   0  0  0  0  0  0  0  0  0  0  0  0
    6.8275  -12.6098   25.6074 C   0  0  0  0  0  0  0  0  0  0  0  0
    7.4534  -13.6375   26.4863 C   0  0  2  0  0  0  0  0  0  0  0  0
    8.4900  -12.8600   27.3579 C   0  0  0  0  0  0  0  0  0  0  0  0
    8.1139  -14.7761   25.8594 C   0  0  2  0  0  0  0  0  0  0  0  0
    7.5448  -15.4865   24.7775 N   0  0  0  0  0  0  0  0  0  0  0  0
    8.6043  -15.7625   26.9375 C   0  0  0  0  0  0  0  0  0  0  0  0
    8.0071  -16.8001   27.2209 O   0  0  0  0  0  0  0  0  0  0  0  0
    9.7971  -15.4677   27.6230 O   0  0  0  0  0  0  0  0  0  0  0  0
  1  2  1  0
  2  3  2  0
  4  2  1  0
  4  5  1  0
  5  6  1  6
  7  5  1  0
  7 11  1  0
  8  7  2  0
 10  9  1  1
 10 11  1  0
 10 12  1  0
 12 19  1  0
 13 12  2  0
 15 16  1  0
 15 14  1  0
 16 18  1  0
 16 17  1  6
 18 20  1  0
 18 19  1  6
 20 22  1  0
 21 20  2  0
M  END
$$$$
