NAI.pdb
     RDKit          3D

 22 21  0  0  1  0  0  0  0  0999 V2000
   12.0959  -19.4017   19.4984 N   0  0  0  0  0  0  0  0  0  0  0  0
   11.7902  -18.0724   19.0404 C   0  0  0  0  0  0  0  0  0  0  0  0
   12.3127  -17.6913   17.9849 O   0  0  0  0  0  0  0  0  0  0  0  0
   10.8958  -17.1999   19.8062 C   0  0  0  0  0  0  0  0  0  0  0  0
    9.5299  -17.7681   19.9102 C   0  0  2  0  0  0  0  0  0  0  0  0
    8.8423  -17.6523   18.6621 N   0  0  0  0  0  0  0  0  0  0  0  0
    8.7167  -17.2045   21.0150 C   0  0  0  0  0  0  0  0  0  0  0  0
    8.4303  -15.9724   20.9991 O   0  0  0  0  0  0  0  0  0  0  0  0
    6.6899  -18.6172   23.9134 C   0  0  0  0  0  0  0  0  0  0  0  0
    7.4681  -17.5383   23.2049 C   0  0  2  0  0  0  0  0  0  0  0  0
    8.2320  -17.9848   22.0819 N   0  0  0  0  0  0  0  0  0  0  0  0
    8.1965  -16.6438   24.1332 C   0  0  0  0  0  0  0  0  0  0  0  0
    9.4308  -16.6057   24.2896 O   0  0  0  0  0  0  0  0  0  0  0  0
    5.9013  -11.7006   26.0216 C   0  0  0  0  0  0  0  0  0  0  0  0
    6.8759  -12.6801   25.4282 C   0  0  0  0  0  0  0  0  0  0  0  0
    7.4872  -13.6453   26.3848 C   0  0  2  0  0  0  0  0  0  0  0  0
    8.5785  -12.8325   27.1513 C   0  0  0  0  0  0  0  0  0  0  0  0
    8.0842  -14.8643   25.8529 C   0  0  2  0  0  0  0  0  0  0  0  0
    7.4116  -15.7055   24.9368 N   0  0  0  0  0  0  0  0  0  0  0  0
    8.6814  -15.7045   26.9988 C   0  0  0  0  0  0  0  0  0  0  0  0
    8.0614  -16.6016   27.5683 O   0  0  0  0  0  0  0  0  0  0  0  0
   10.0020  -15.4401   27.4060 O   0  0  0  0  0  0  0  0  0  0  0  0
  1  2  1  0
  2  3  2  0
  4  2  1  0
  4  5  1  0
  5  6  1  6
  7  5  1  0
  7 11  1  0
  8  7  2  0
 10  9  1  1
 10 11  1  0
 10 12  1  0
 12 19  1  0
 13 12  2  0
 15 16  1  0
 15 14  1  0
 16 18  1  0
 16 17  1  6
 18 20  1  0
 18 19  1  1
 20 22  1  0
 21 20  2  0
M  END
$$$$
