NAI.pdb
     RDKit          3D

 22 21  0  0  1  0  0  0  0  0999 V2000
    6.9314  -13.5806   16.5956 N   0  0  0  0  0  0  0  0  0  0  0  0
    7.9772  -13.6004   17.5837 C   0  0  0  0  0  0  0  0  0  0  0  0
    9.1459  -13.4968   17.1892 O   0  0  0  0  0  0  0  0  0  0  0  0
    7.6639  -13.7467   19.0078 C   0  0  0  0  0  0  0  0  0  0  0  0
    8.6458  -14.6163   19.7001 C   0  0  2  0  0  0  0  0  0  0  0  0
    8.9046  -15.7925   18.9296 N   0  0  0  0  0  0  0  0  0  0  0  0
    8.2747  -14.9684   21.0921 C   0  0  0  0  0  0  0  0  0  0  0  0
    7.9245  -14.0472   21.8854 O   0  0  0  0  0  0  0  0  0  0  0  0
    7.9121  -18.2387   23.0581 C   0  0  0  0  0  0  0  0  0  0  0  0
    7.8897  -16.7432   22.8720 C   0  0  2  0  0  0  0  0  0  0  0  0
    8.2797  -16.2916   21.5728 N   0  0  0  0  0  0  0  0  0  0  0  0
    8.5141  -16.0093   23.9962 C   0  0  0  0  0  0  0  0  0  0  0  0
    9.7239  -15.7372   24.1057 O   0  0  0  0  0  0  0  0  0  0  0  0
    6.0152  -11.6497   26.3494 C   0  0  0  0  0  0  0  0  0  0  0  0
    6.9903  -12.6235   25.7474 C   0  0  0  0  0  0  0  0  0  0  0  0
    7.5858  -13.6105   26.6915 C   0  0  2  0  0  0  0  0  0  0  0  0
    8.6440  -12.8092   27.5142 C   0  0  0  0  0  0  0  0  0  0  0  0
    8.2134  -14.8054   26.1401 C   0  0  2  0  0  0  0  0  0  0  0  0
    7.6441  -15.5440   25.0773 N   0  0  0  0  0  0  0  0  0  0  0  0
    8.6309  -15.7569   27.2785 C   0  0  0  0  0  0  0  0  0  0  0  0
    7.9486  -16.7157   27.6374 O   0  0  0  0  0  0  0  0  0  0  0  0
    9.8552  -15.5242   27.9316 O   0  0  0  0  0  0  0  0  0  0  0  0
  1  2  1  0
  2  3  2  0
  4  2  1  0
  4  5  1  0
  5  6  1  6
  7  5  1  0
  7 11  1  0
  8  7  2  0
 10  9  1  1
 10 11  1  0
 10 12  1  0
 12 19  1  0
 13 12  2  0
 15 16  1  0
 15 14  1  0
 16 18  1  0
 16 17  1  6
 18 20  1  0
 18 19  1  6
 20 22  1  0
 21 20  2  0
M  END
$$$$
