NAI.pdb
     RDKit          3D

 22 21  0  0  1  0  0  0  0  0999 V2000
    9.5441  -14.7032   16.8649 N   0  0  0  0  0  0  0  0  0  0  0  0
    8.4472  -13.9039   17.3425 C   0  0  0  0  0  0  0  0  0  0  0  0
    8.1835  -12.8611   16.7300 O   0  0  0  0  0  0  0  0  0  0  0  0
    7.6763  -14.3114   18.5204 C   0  0  0  0  0  0  0  0  0  0  0  0
    8.1137  -15.6324   19.0336 C   0  0  2  0  0  0  0  0  0  0  0  0
    7.6929  -16.6767   18.1524 N   0  0  0  0  0  0  0  0  0  0  0  0
    7.6927  -15.9159   20.4270 C   0  0  0  0  0  0  0  0  0  0  0  0
    6.4613  -15.8817   20.7149 O   0  0  0  0  0  0  0  0  0  0  0  0
    8.5472  -17.9691   23.2203 C   0  0  0  0  0  0  0  0  0  0  0  0
    8.3049  -16.5376   22.8155 C   0  0  2  0  0  0  0  0  0  0  0  0
    8.6046  -16.2384   21.4500 N   0  0  0  0  0  0  0  0  0  0  0  0
    8.8340  -15.5606   23.7943 C   0  0  0  0  0  0  0  0  0  0  0  0
    9.9774  -15.0687   23.7868 O   0  0  0  0  0  0  0  0  0  0  0  0
    5.9264  -11.8574   27.5008 C   0  0  0  0  0  0  0  0  0  0  0  0
    6.3119  -12.9426   26.5337 C   0  0  0  0  0  0  0  0  0  0  0  0
    7.7102  -12.8869   26.0219 C   0  0  2  0  0  0  0  0  0  0  0  0
    7.6298  -12.0805   24.6869 C   0  0  0  0  0  0  0  0  0  0  0  0
    8.4105  -14.1427   25.7808 C   0  0  2  0  0  0  0  0  0  0  0  0
    7.9422  -15.1128   24.8650 N   0  0  0  0  0  0  0  0  0  0  0  0
    8.7699  -14.8136   27.1211 C   0  0  0  0  0  0  0  0  0  0  0  0
    8.4113  -15.9517   27.4205 O   0  0  0  0  0  0  0  0  0  0  0  0
    9.5541  -14.0944   28.0416 O   0  0  0  0  0  0  0  0  0  0  0  0
  1  2  1  0
  2  3  2  0
  4  2  1  0
  4  5  1  0
  5  6  1  6
  7  5  1  0
  7 11  1  0
  8  7  2  0
 10  9  1  1
 10 11  1  0
 10 12  1  0
 12 19  1  0
 13 12  2  0
 15 16  1  0
 15 14  1  0
 16 18  1  0
 16 17  1  6
 18 20  1  0
 18 19  1  6
 20 22  1  0
 21 20  2  0
M  END
$$$$
