NAI.pdb
     RDKit          3D

 22 21  0  0  1  0  0  0  0  0999 V2000
    4.6473  -21.4248   20.8899 N   0  0  0  0  0  0  0  0  0  0  0  0
    5.3110  -21.1650   22.1398 C   0  0  0  0  0  0  0  0  0  0  0  0
    4.8031  -21.6267   23.1698 O   0  0  0  0  0  0  0  0  0  0  0  0
    6.5429  -20.3725   22.1869 C   0  0  0  0  0  0  0  0  0  0  0  0
    6.4159  -19.2131   23.1030 C   0  0  2  0  0  0  0  0  0  0  0  0
    5.0625  -18.7543   23.1463 N   0  0  0  0  0  0  0  0  0  0  0  0
    7.3430  -18.0947   22.8045 C   0  0  0  0  0  0  0  0  0  0  0  0
    8.5860  -18.2696   22.9617 O   0  0  0  0  0  0  0  0  0  0  0  0
    7.0406  -14.6359   21.2197 C   0  0  0  0  0  0  0  0  0  0  0  0
    7.7016  -15.6847   22.0768 C   0  0  2  0  0  0  0  0  0  0  0  0
    6.9031  -16.8418   22.3368 N   0  0  0  0  0  0  0  0  0  0  0  0
    8.3788  -15.1195   23.2661 C   0  0  0  0  0  0  0  0  0  0  0  0
    9.4638  -14.5093   23.2650 O   0  0  0  0  0  0  0  0  0  0  0  0
    5.7983  -11.8689   26.7142 C   0  0  0  0  0  0  0  0  0  0  0  0
    6.7387  -12.6442   25.8333 C   0  0  0  0  0  0  0  0  0  0  0  0
    7.5542  -13.6873   26.5168 C   0  0  2  0  0  0  0  0  0  0  0  0
    8.5604  -12.9017   27.4163 C   0  0  0  0  0  0  0  0  0  0  0  0
    8.2906  -14.6401   25.6948 C   0  0  2  0  0  0  0  0  0  0  0  0
    7.7215  -15.2715   24.5650 N   0  0  0  0  0  0  0  0  0  0  0  0
    8.9832  -15.6864   26.5899 C   0  0  0  0  0  0  0  0  0  0  0  0
    8.4759  -16.7711   26.8721 O   0  0  0  0  0  0  0  0  0  0  0  0
   10.2608  -15.3915   27.1002 O   0  0  0  0  0  0  0  0  0  0  0  0
  1  2  1  0
  2  3  2  0
  4  2  1  0
  4  5  1  0
  5  6  1  6
  7  5  1  0
  7 11  1  0
  8  7  2  0
 10  9  1  1
 10 11  1  0
 10 12  1  0
 12 19  1  0
 13 12  2  0
 15 16  1  0
 15 14  1  0
 16 18  1  0
 16 17  1  6
 18 20  1  0
 18 19  1  6
 20 22  1  0
 21 20  2  0
M  END
$$$$
