NAI.pdb
     RDKit          3D

 22 21  0  0  1  0  0  0  0  0999 V2000
    7.6438  -13.2832   16.5456 N   0  0  0  0  0  0  0  0  0  0  0  0
    8.2682  -13.7724   17.7461 C   0  0  0  0  0  0  0  0  0  0  0  0
    9.5050  -13.7675   17.7964 O   0  0  0  0  0  0  0  0  0  0  0  0
    7.4621  -14.2665   18.8658 C   0  0  0  0  0  0  0  0  0  0  0  0
    7.6921  -15.7105   19.1137 C   0  0  2  0  0  0  0  0  0  0  0  0
    7.2496  -16.4874   17.9979 N   0  0  0  0  0  0  0  0  0  0  0  0
    7.0999  -16.2152   20.3762 C   0  0  0  0  0  0  0  0  0  0  0  0
    6.0148  -16.8639   20.3285 O   0  0  0  0  0  0  0  0  0  0  0  0
    6.8358  -17.9448   22.9270 C   0  0  0  0  0  0  0  0  0  0  0  0
    7.2352  -16.4918   22.9003 C   0  0  2  0  0  0  0  0  0  0  0  0
    7.7001  -16.0176   21.6342 N   0  0  0  0  0  0  0  0  0  0  0  0
    8.0752  -16.0998   24.0550 C   0  0  0  0  0  0  0  0  0  0  0  0
    9.3158  -16.1825   24.1143 O   0  0  0  0  0  0  0  0  0  0  0  0
    5.7485  -11.8208   26.8428 C   0  0  0  0  0  0  0  0  0  0  0  0
    6.7355  -12.6305   26.0481 C   0  0  0  0  0  0  0  0  0  0  0  0
    7.5494  -13.6055   26.8273 C   0  0  2  0  0  0  0  0  0  0  0  0
    8.6844  -12.7610   27.4888 C   0  0  0  0  0  0  0  0  0  0  0  0
    8.1429  -14.7341   26.1205 C   0  0  2  0  0  0  0  0  0  0  0  0
    7.4044  -15.5524   25.2350 N   0  0  0  0  0  0  0  0  0  0  0  0
    8.9453  -15.6103   27.1023 C   0  0  0  0  0  0  0  0  0  0  0  0
    8.5313  -16.6840   27.5376 O   0  0  0  0  0  0  0  0  0  0  0  0
   10.2159  -15.1665   27.5121 O   0  0  0  0  0  0  0  0  0  0  0  0
  1  2  1  0
  2  3  2  0
  4  2  1  0
  4  5  1  0
  5  6  1  6
  7  5  1  0
  7 11  1  0
  8  7  2  0
 10  9  1  6
 10 11  1  0
 10 12  1  0
 12 19  1  0
 13 12  2  0
 15 16  1  0
 15 14  1  0
 16 18  1  0
 16 17  1  6
 18 20  1  0
 18 19  1  1
 20 22  1  0
 21 20  2  0
M  END
$$$$
