NAI.pdb
     RDKit          3D

 22 21  0  0  1  0  0  0  0  0999 V2000
    7.3747  -12.5966   17.5052 N   0  0  0  0  0  0  0  0  0  0  0  0
    8.3555  -13.2750   18.3104 C   0  0  0  0  0  0  0  0  0  0  0  0
    9.4481  -13.5361   17.7907 O   0  0  0  0  0  0  0  0  0  0  0  0
    8.0623  -13.6493   19.6966 C   0  0  0  0  0  0  0  0  0  0  0  0
    7.9682  -15.1203   19.8607 C   0  0  2  0  0  0  0  0  0  0  0  0
    6.9004  -15.6458   19.0685 N   0  0  0  0  0  0  0  0  0  0  0  0
    7.8523  -15.5714   21.2687 C   0  0  0  0  0  0  0  0  0  0  0  0
    6.8305  -15.2400   21.9369 O   0  0  0  0  0  0  0  0  0  0  0  0
    9.4102  -18.2254   23.4302 C   0  0  0  0  0  0  0  0  0  0  0  0
    8.8131  -16.8542   23.2428 C   0  0  2  0  0  0  0  0  0  0  0  0
    8.8264  -16.3696   21.8979 N   0  0  0  0  0  0  0  0  0  0  0  0
    9.2718  -15.8782   24.2575 C   0  0  0  0  0  0  0  0  0  0  0  0
   10.3004  -15.1810   24.1844 O   0  0  0  0  0  0  0  0  0  0  0  0
    6.0644  -12.2159   26.5461 C   0  0  0  0  0  0  0  0  0  0  0  0
    7.3305  -12.8465   26.0355 C   0  0  0  0  0  0  0  0  0  0  0  0
    8.0387  -13.7429   26.9921 C   0  0  2  0  0  0  0  0  0  0  0  0
    8.9021  -12.7957   27.8844 C   0  0  0  0  0  0  0  0  0  0  0  0
    8.8880  -14.7985   26.4536 C   0  0  2  0  0  0  0  0  0  0  0  0
    8.4476  -15.6951   25.4530 N   0  0  0  0  0  0  0  0  0  0  0  0
    9.5554  -15.5786   27.6033 C   0  0  0  0  0  0  0  0  0  0  0  0
   10.4141  -15.0909   28.3370 O   0  0  0  0  0  0  0  0  0  0  0  0
    9.1563  -16.9084   27.8312 O   0  0  0  0  0  0  0  0  0  0  0  0
  1  2  1  0
  2  3  2  0
  4  2  1  0
  4  5  1  0
  5  6  1  6
  7  5  1  0
  7 11  1  0
  8  7  2  0
 10  9  1  6
 10 11  1  0
 10 12  1  0
 12 19  1  0
 13 12  2  0
 15 16  1  0
 15 14  1  0
 16 18  1  0
 16 17  1  1
 18 20  1  0
 18 19  1  1
 20 22  1  0
 21 20  2  0
M  END
$$$$
