NAI.pdb
     RDKit          3D

 22 21  0  0  1  0  0  0  0  0999 V2000
    9.5984  -19.0415   17.6336 N   0  0  0  0  0  0  0  0  0  0  0  0
   10.3811  -18.0104   18.2616 C   0  0  0  0  0  0  0  0  0  0  0  0
   11.5572  -17.8774   17.8995 O   0  0  0  0  0  0  0  0  0  0  0  0
    9.8023  -17.1543   19.3007 C   0  0  0  0  0  0  0  0  0  0  0  0
    8.3784  -17.4830   19.5538 C   0  0  2  0  0  0  0  0  0  0  0  0
    7.5682  -17.0903   18.4433 N   0  0  0  0  0  0  0  0  0  0  0  0
    7.8403  -16.9314   20.8209 C   0  0  0  0  0  0  0  0  0  0  0  0
    7.4594  -15.7254   20.8521 O   0  0  0  0  0  0  0  0  0  0  0  0
    6.6693  -18.4140   24.1217 C   0  0  0  0  0  0  0  0  0  0  0  0
    7.1459  -17.2875   23.2410 C   0  0  2  0  0  0  0  0  0  0  0  0
    7.7187  -17.6963   21.9965 N   0  0  0  0  0  0  0  0  0  0  0  0
    7.9265  -16.2666   23.9766 C   0  0  0  0  0  0  0  0  0  0  0  0
    9.1584  -16.1021   23.9068 O   0  0  0  0  0  0  0  0  0  0  0  0
    6.0802  -11.7462   27.6361 C   0  0  0  0  0  0  0  0  0  0  0  0
    6.1936  -12.9977   26.8103 C   0  0  0  0  0  0  0  0  0  0  0  0
    7.3474  -13.0499   25.8689 C   0  0  2  0  0  0  0  0  0  0  0  0
    6.8400  -12.3747   24.5553 C   0  0  0  0  0  0  0  0  0  0  0  0
    7.9210  -14.3510   25.5471 C   0  0  2  0  0  0  0  0  0  0  0  0
    7.1990  -15.3532   24.8589 N   0  0  0  0  0  0  0  0  0  0  0  0
    8.5997  -14.9527   26.7934 C   0  0  0  0  0  0  0  0  0  0  0  0
    9.4539  -14.3560   27.4476 O   0  0  0  0  0  0  0  0  0  0  0  0
    8.2170  -16.2413   27.2087 O   0  0  0  0  0  0  0  0  0  0  0  0
  1  2  1  0
  2  3  2  0
  4  2  1  0
  4  5  1  0
  5  6  1  6
  7  5  1  0
  7 11  1  0
  8  7  2  0
 10  9  1  1
 10 11  1  0
 10 12  1  0
 12 19  1  0
 13 12  2  0
 15 16  1  0
 15 14  1  0
 16 18  1  0
 16 17  1  6
 18 20  1  0
 18 19  1  1
 20 22  1  0
 21 20  2  0
M  END
$$$$
