NAI.pdb
     RDKit          3D

 22 21  0  0  1  0  0  0  0  0999 V2000
   13.8948  -19.2045   20.9365 N   0  0  0  0  0  0  0  0  0  0  0  0
   12.6276  -18.8608   20.3481 C   0  0  0  0  0  0  0  0  0  0  0  0
   12.0886  -19.6957   19.6101 O   0  0  0  0  0  0  0  0  0  0  0  0
   12.0041  -17.5608   20.6107 C   0  0  0  0  0  0  0  0  0  0  0  0
   10.8393  -17.6834   21.5205 C   0  0  2  0  0  0  0  0  0  0  0  0
    9.8097  -18.4682   20.9138 N   0  0  0  0  0  0  0  0  0  0  0  0
   10.3013  -16.3879   22.0017 C   0  0  0  0  0  0  0  0  0  0  0  0
   11.0718  -15.5930   22.6139 O   0  0  0  0  0  0  0  0  0  0  0  0
    7.2620  -14.2433   21.3794 C   0  0  0  0  0  0  0  0  0  0  0  0
    8.3290  -14.8076   22.2821 C   0  0  2  0  0  0  0  0  0  0  0  0
    8.9664  -15.9910   21.7951 N   0  0  0  0  0  0  0  0  0  0  0  0
    7.9154  -14.8666   23.7026 C   0  0  0  0  0  0  0  0  0  0  0  0
    7.4485  -15.8632   24.2844 O   0  0  0  0  0  0  0  0  0  0  0  0
   10.8254  -13.7773   28.1277 C   0  0  0  0  0  0  0  0  0  0  0  0
    9.8476  -14.2177   27.0735 C   0  0  0  0  0  0  0  0  0  0  0  0
    8.6048  -13.4032   26.9625 C   0  0  2  0  0  0  0  0  0  0  0  0
    7.8630  -13.5934   28.3236 C   0  0  0  0  0  0  0  0  0  0  0  0
    7.6825  -13.6915   25.8708 C   0  0  2  0  0  0  0  0  0  0  0  0
    8.0747  -13.6581   24.5128 N   0  0  0  0  0  0  0  0  0  0  0  0
    6.3739  -12.8995   26.0607 C   0  0  0  0  0  0  0  0  0  0  0  0
    6.1622  -11.8126   25.5247 O   0  0  0  0  0  0  0  0  0  0  0  0
    5.3695  -13.4504   26.8776 O   0  0  0  0  0  0  0  0  0  0  0  0
  1  2  1  0
  2  3  2  0
  4  2  1  0
  4  5  1  0
  5  6  1  6
  7  5  1  0
  7 11  1  0
  8  7  2  0
 10  9  1  6
 10 11  1  0
 10 12  1  0
 12 19  1  0
 13 12  2  0
 15 16  1  0
 15 14  1  0
 16 18  1  0
 16 17  1  1
 18 20  1  0
 18 19  1  6
 20 22  1  0
 21 20  2  0
M  END
$$$$
