ENR.pdb
     RDKit          3D

 29 28  0  0  1  0  0  0  0  0999 V2000
   28.4003  -22.4182  -16.0108 N   0  0  0  0  0  0  0  0  0  0  0  0
   27.2957  -21.5454  -16.3558 C   0  0  1  0  0  0  0  0  0  0  0  0
   26.6052  -21.9744  -17.6204 C   0  0  0  0  0  0  0  0  0  0  0  0
   27.4579  -21.8317  -18.8371 C   0  0  0  0  0  0  0  0  0  0  0  0
   27.9231  -20.4684  -19.1039 C   0  0  0  0  0  0  0  0  0  0  0  0
   29.1701  -20.2640  -19.0355 O   0  0  0  0  0  0  0  0  0  0  0  0
   26.2828  -21.6568  -15.2462 C   0  0  0  0  0  0  0  0  0  0  0  0
   25.2114  -22.2240  -15.4821 O   0  0  0  0  0  0  0  0  0  0  0  0
   27.1391  -19.3801  -19.4229 O   0  0  0  0  0  0  0  0  0  0  0  0
   25.4673  -21.6329   -9.2074 N   0  0  0  0  0  0  0  0  0  0  0  0
   25.2433  -20.9180  -10.3982 C   0  0  0  0  0  0  0  0  0  0  0  0
   24.1352  -20.3009  -10.4846 O   0  0  0  0  0  0  0  0  0  0  0  0
   26.1755  -20.8279  -11.5365 C   0  0  0  0  0  0  0  0  0  0  0  0
   25.5998  -21.2133  -12.8590 C   0  0  2  0  0  0  0  0  0  0  0  0
   26.5355  -21.1314  -13.9608 N   0  0  0  0  0  0  0  0  0  0  0  0
   24.4044  -20.4038  -13.1917 C   0  0  0  0  0  0  0  0  0  0  0  0
   24.5093  -19.1797  -13.5086 O   0  0  0  0  0  0  0  0  0  0  0  0
   19.8432  -15.5038  -17.4143 N   0  0  0  0  0  0  0  0  0  0  0  0
   18.9765  -16.6544  -17.4661 C   0  0  0  0  0  0  0  0  0  0  0  0
   17.8402  -16.4945  -18.0358 N   0  0  0  0  0  0  0  0  0  0  0  0
   19.3694  -17.8981  -16.9114 N   0  0  0  0  0  0  0  0  0  0  0  0
   20.6126  -18.0613  -16.2007 C   0  0  0  0  0  0  0  0  0  0  0  0
   20.7917  -19.4646  -15.6801 C   0  0  0  0  0  0  0  0  0  0  0  0
   22.0806  -19.6726  -14.9347 C   0  0  0  0  0  0  0  0  0  0  0  0
   21.9144  -20.1722  -13.5406 C   0  0  2  0  0  0  0  0  0  0  0  0
   23.0863  -20.9355  -13.1766 N   0  0  0  0  0  0  0  0  0  0  0  0
   20.7202  -20.9596  -13.2920 C   0  0  0  0  0  0  0  0  0  0  0  0
   20.7663  -22.3338  -13.4731 O   0  0  0  0  0  0  0  0  0  0  0  0
   19.6091  -20.5017  -12.9154 O   0  0  0  0  0  0  0  0  0  0  0  0
  2  1  1  1
  3  2  1  0
  4  3  1  0
  5  4  1  0
  5  6  2  0
  7  8  2  0
  7  2  1  0
  9  5  1  0
 11 10  1  0
 12 11  2  0
 14 13  1  1
 13 11  1  0
 14 15  1  0
 15  7  1  0
 16 26  1  0
 16 14  1  0
 17 16  2  0
 19 18  1  0
 19 21  1  0
 20 19  2  0
 22 21  1  0
 23 22  1  0
 24 23  1  0
 25 24  1  6
 25 26  1  0
 27 28  1  0
 27 25  1  0
 29 27  2  0
M  END
$$$$
