ENR.pdb
     RDKit          3D

 29 28  0  0  1  0  0  0  0  0999 V2000
   25.3355  -19.4832  -16.3320 N   0  0  0  0  0  0  0  0  0  0  0  0
   26.1624  -20.6616  -16.5016 C   0  0  1  0  0  0  0  0  0  0  0  0
   27.6011  -20.3140  -16.7647 C   0  0  0  0  0  0  0  0  0  0  0  0
   28.0140  -19.0116  -16.1636 C   0  0  0  0  0  0  0  0  0  0  0  0
   28.7618  -18.1301  -17.0636 C   0  0  0  0  0  0  0  0  0  0  0  0
   28.1097  -17.2106  -17.6386 O   0  0  0  0  0  0  0  0  0  0  0  0
   26.1271  -21.4160  -15.1980 C   0  0  0  0  0  0  0  0  0  0  0  0
   27.0905  -22.1313  -14.9058 O   0  0  0  0  0  0  0  0  0  0  0  0
   30.1085  -18.1994  -17.3501 O   0  0  0  0  0  0  0  0  0  0  0  0
   25.6646  -20.3375  -10.0228 N   0  0  0  0  0  0  0  0  0  0  0  0
   25.9935  -20.4713  -11.3841 C   0  0  0  0  0  0  0  0  0  0  0  0
   26.2312  -19.3933  -12.0146 O   0  0  0  0  0  0  0  0  0  0  0  0
   26.0835  -21.7412  -12.1271 C   0  0  0  0  0  0  0  0  0  0  0  0
   24.9445  -22.0159  -13.0524 C   0  0  2  0  0  0  0  0  0  0  0  0
   25.0270  -21.3194  -14.3190 N   0  0  0  0  0  0  0  0  0  0  0  0
   23.6407  -21.7015  -12.4230 C   0  0  0  0  0  0  0  0  0  0  0  0
   23.5788  -21.0713  -11.3235 O   0  0  0  0  0  0  0  0  0  0  0  0
   19.4351  -16.4793  -15.6457 N   0  0  0  0  0  0  0  0  0  0  0  0
   18.7383  -16.3368  -14.3920 C   0  0  0  0  0  0  0  0  0  0  0  0
   17.6658  -15.6362  -14.4054 N   0  0  0  0  0  0  0  0  0  0  0  0
   19.2226  -16.9448  -13.2069 N   0  0  0  0  0  0  0  0  0  0  0  0
   20.4636  -17.6770  -13.1736 C   0  0  0  0  0  0  0  0  0  0  0  0
   20.3348  -19.0458  -13.7917 C   0  0  0  0  0  0  0  0  0  0  0  0
   21.5302  -19.9277  -13.5611 C   0  0  0  0  0  0  0  0  0  0  0  0
   21.2136  -21.2514  -12.9540 C   0  0  2  0  0  0  0  0  0  0  0  0
   22.3972  -22.0793  -12.9985 N   0  0  0  0  0  0  0  0  0  0  0  0
   20.0949  -21.9637  -13.5448 C   0  0  0  0  0  0  0  0  0  0  0  0
   20.3438  -22.9605  -14.4764 O   0  0  0  0  0  0  0  0  0  0  0  0
   18.8797  -21.7583  -13.2856 O   0  0  0  0  0  0  0  0  0  0  0  0
  2  1  1  1
  3  2  1  0
  4  3  1  0
  5  4  1  0
  5  6  2  0
  7  8  2  0
  7  2  1  0
  9  5  1  0
 11 10  1  0
 12 11  2  0
 14 13  1  1
 13 11  1  0
 14 15  1  0
 15  7  1  0
 16 26  1  0
 16 14  1  0
 17 16  2  0
 19 18  1  0
 19 21  1  0
 20 19  2  0
 22 21  1  0
 23 22  1  0
 24 23  1  0
 25 24  1  6
 25 26  1  0
 27 28  1  0
 27 25  1  0
 29 27  2  0
M  END
$$$$
