ENR.pdb
     RDKit          3D

 29 28  0  0  1  0  0  0  0  0999 V2000
   18.1263  -25.6127   -5.6864 N   0  0  0  0  0  0  0  0  0  0  0  0
   17.4129  -25.0194   -6.8000 C   0  0  1  0  0  0  0  0  0  0  0  0
   16.8669  -23.6591   -6.4660 C   0  0  0  0  0  0  0  0  0  0  0  0
   15.4196  -23.6763   -6.1012 C   0  0  0  0  0  0  0  0  0  0  0  0
   15.1257  -24.2441   -4.7831 C   0  0  0  0  0  0  0  0  0  0  0  0
   16.0980  -24.3700   -3.9829 O   0  0  0  0  0  0  0  0  0  0  0  0
   18.4117  -24.8278   -7.9114 C   0  0  0  0  0  0  0  0  0  0  0  0
   19.6144  -24.9062   -7.6418 O   0  0  0  0  0  0  0  0  0  0  0  0
   13.8938  -24.6575   -4.3225 O   0  0  0  0  0  0  0  0  0  0  0  0
   19.1296  -27.3189  -10.0774 N   0  0  0  0  0  0  0  0  0  0  0  0
   18.7014  -26.7160  -11.2742 C   0  0  0  0  0  0  0  0  0  0  0  0
   18.3661  -27.5044  -12.2134 O   0  0  0  0  0  0  0  0  0  0  0  0
   18.6113  -25.2660  -11.5234 C   0  0  0  0  0  0  0  0  0  0  0  0
   18.9159  -24.4005  -10.3456 C   0  0  2  0  0  0  0  0  0  0  0  0
   18.0007  -24.5642   -9.2357 N   0  0  0  0  0  0  0  0  0  0  0  0
   18.9583  -22.9669  -10.7170 C   0  0  0  0  0  0  0  0  0  0  0  0
   17.9035  -22.3443  -11.0482 O   0  0  0  0  0  0  0  0  0  0  0  0
   24.5792  -22.9501  -13.7868 N   0  0  0  0  0  0  0  0  0  0  0  0
   23.9451  -22.8186  -15.0746 C   0  0  0  0  0  0  0  0  0  0  0  0
   23.9198  -23.8648  -15.8137 N   0  0  0  0  0  0  0  0  0  0  0  0
   23.3800  -21.5888  -15.4952 N   0  0  0  0  0  0  0  0  0  0  0  0
   22.7143  -20.6983  -14.5780 C   0  0  0  0  0  0  0  0  0  0  0  0
   21.5396  -21.3540  -13.8979 C   0  0  0  0  0  0  0  0  0  0  0  0
   21.6718  -21.4283  -12.4022 C   0  0  0  0  0  0  0  0  0  0  0  0
   20.4167  -21.1319  -11.6555 C   0  0  2  0  0  0  0  0  0  0  0  0
   20.1612  -22.2098  -10.7276 N   0  0  0  0  0  0  0  0  0  0  0  0
   19.2388  -20.8982  -12.4714 C   0  0  0  0  0  0  0  0  0  0  0  0
   18.7776  -19.6008  -12.6374 O   0  0  0  0  0  0  0  0  0  0  0  0
   18.5723  -21.7879  -13.0632 O   0  0  0  0  0  0  0  0  0  0  0  0
  2  1  1  1
  3  2  1  0
  4  3  1  0
  5  4  1  0
  5  6  2  0
  7  8  2  0
  7  2  1  0
  9  5  1  0
 11 10  1  0
 12 11  2  0
 14 13  1  6
 13 11  1  0
 14 15  1  0
 15  7  1  0
 16 26  1  0
 16 14  1  0
 17 16  2  0
 19 18  1  0
 19 21  1  0
 20 19  2  0
 22 21  1  0
 23 22  1  0
 24 23  1  0
 25 24  1  6
 25 26  1  0
 27 28  1  0
 27 25  1  0
 29 27  2  0
M  END
$$$$
