ENR.pdb
     RDKit          3D

 29 28  0  0  1  0  0  0  0  0999 V2000
   15.7012  -25.7526  -14.0124 N   0  0  0  0  0  0  0  0  0  0  0  0
   15.8636  -24.4823  -13.3334 C   0  0  1  0  0  0  0  0  0  0  0  0
   16.3496  -24.6504  -11.9207 C   0  0  0  0  0  0  0  0  0  0  0  0
   17.6254  -25.4189  -11.8220 C   0  0  0  0  0  0  0  0  0  0  0  0
   18.1944  -25.4928  -10.4741 C   0  0  0  0  0  0  0  0  0  0  0  0
   19.2878  -26.1171  -10.3463 O   0  0  0  0  0  0  0  0  0  0  0  0
   16.9311  -23.7199  -14.0742 C   0  0  0  0  0  0  0  0  0  0  0  0
   17.7521  -24.3560  -14.7426 O   0  0  0  0  0  0  0  0  0  0  0  0
   17.6592  -24.9503   -9.3252 O   0  0  0  0  0  0  0  0  0  0  0  0
   16.5708  -20.7336  -17.3255 N   0  0  0  0  0  0  0  0  0  0  0  0
   16.7937  -19.8126  -16.2857 C   0  0  0  0  0  0  0  0  0  0  0  0
   16.3612  -18.6324  -16.4764 O   0  0  0  0  0  0  0  0  0  0  0  0
   17.4776  -20.1010  -15.0122 C   0  0  0  0  0  0  0  0  0  0  0  0
   17.9055  -21.5196  -14.8299 C   0  0  2  0  0  0  0  0  0  0  0  0
   17.0062  -22.3116  -14.0174 N   0  0  0  0  0  0  0  0  0  0  0  0
   19.2677  -21.6101  -14.2543 C   0  0  0  0  0  0  0  0  0  0  0  0
   19.4525  -22.0289  -13.0709 O   0  0  0  0  0  0  0  0  0  0  0  0
   26.0137  -24.9238  -16.6597 N   0  0  0  0  0  0  0  0  0  0  0  0
   24.9281  -25.6218  -16.0180 C   0  0  0  0  0  0  0  0  0  0  0  0
   24.6963  -26.8172  -16.4165 N   0  0  0  0  0  0  0  0  0  0  0  0
   24.1593  -25.0089  -14.9972 N   0  0  0  0  0  0  0  0  0  0  0  0
   24.2624  -23.6022  -14.7007 C   0  0  0  0  0  0  0  0  0  0  0  0
   23.3358  -23.1847  -13.5874 C   0  0  0  0  0  0  0  0  0  0  0  0
   21.9496  -22.8365  -14.0536 C   0  0  0  0  0  0  0  0  0  0  0  0
   21.7759  -21.4157  -14.4684 C   0  0  2  0  0  0  0  0  0  0  0  0
   20.4345  -21.2394  -14.9762 N   0  0  0  0  0  0  0  0  0  0  0  0
   22.7361  -20.9212  -15.4388 C   0  0  0  0  0  0  0  0  0  0  0  0
   23.9926  -20.5251  -15.0056 O   0  0  0  0  0  0  0  0  0  0  0  0
   22.5330  -20.8130  -16.6770 O   0  0  0  0  0  0  0  0  0  0  0  0
  2  1  1  6
  3  2  1  0
  4  3  1  0
  5  4  1  0
  5  6  2  0
  7  8  2  0
  7  2  1  0
  9  5  1  0
 11 10  1  0
 12 11  2  0
 14 13  1  1
 13 11  1  0
 14 15  1  0
 15  7  1  0
 16 26  1  0
 16 14  1  0
 17 16  2  0
 19 18  1  0
 19 21  1  0
 20 19  2  0
 22 21  1  0
 23 22  1  0
 24 23  1  0
 25 24  1  6
 25 26  1  0
 27 28  1  0
 27 25  1  0
 29 27  2  0
M  END
$$$$
