ENR.pdb
     RDKit          3D

 29 28  0  0  1  0  0  0  0  0999 V2000
   25.8351  -21.0461  -10.6979 N   0  0  0  0  0  0  0  0  0  0  0  0
   26.1608  -21.3847  -12.0691 C   0  0  1  0  0  0  0  0  0  0  0  0
   25.1486  -22.3122  -12.6818 C   0  0  0  0  0  0  0  0  0  0  0  0
   23.7543  -21.7815  -12.6321 C   0  0  0  0  0  0  0  0  0  0  0  0
   22.7386  -22.6711  -13.2005 C   0  0  0  0  0  0  0  0  0  0  0  0
   22.5465  -22.5988  -14.4493 O   0  0  0  0  0  0  0  0  0  0  0  0
   26.1157  -20.1045  -12.8619 C   0  0  0  0  0  0  0  0  0  0  0  0
   25.4502  -19.1622  -12.4207 O   0  0  0  0  0  0  0  0  0  0  0  0
   21.9667  -23.5828  -12.5123 O   0  0  0  0  0  0  0  0  0  0  0  0
   26.9243  -16.5648  -16.8458 N   0  0  0  0  0  0  0  0  0  0  0  0
   28.0638  -17.3035  -16.4782 C   0  0  0  0  0  0  0  0  0  0  0  0
   29.1744  -16.8931  -16.9411 O   0  0  0  0  0  0  0  0  0  0  0  0
   28.0739  -18.4966  -15.6127 C   0  0  0  0  0  0  0  0  0  0  0  0
   26.7971  -18.7635  -14.8866 C   0  0  2  0  0  0  0  0  0  0  0  0
   26.8116  -19.9672  -14.0822 N   0  0  0  0  0  0  0  0  0  0  0  0
   25.6437  -18.8278  -15.8143 C   0  0  0  0  0  0  0  0  0  0  0  0
   25.3648  -19.8957  -16.4402 O   0  0  0  0  0  0  0  0  0  0  0  0
   19.3601  -21.0853  -11.7849 N   0  0  0  0  0  0  0  0  0  0  0  0
   19.3465  -21.4257  -13.1855 C   0  0  0  0  0  0  0  0  0  0  0  0
   18.7326  -22.5021  -13.5108 N   0  0  0  0  0  0  0  0  0  0  0  0
   19.9836  -20.6047  -14.1493 N   0  0  0  0  0  0  0  0  0  0  0  0
   20.8333  -19.5023  -13.7750 C   0  0  0  0  0  0  0  0  0  0  0  0
   21.3397  -18.7405  -14.9731 C   0  0  0  0  0  0  0  0  0  0  0  0
   22.8314  -18.5537  -14.9839 C   0  0  0  0  0  0  0  0  0  0  0  0
   23.3544  -17.8255  -16.1742 C   0  0  2  0  0  0  0  0  0  0  0  0
   24.7909  -17.7176  -16.0602 N   0  0  0  0  0  0  0  0  0  0  0  0
   22.7817  -16.5124  -16.4108 C   0  0  0  0  0  0  0  0  0  0  0  0
   21.4562  -16.4140  -16.8067 O   0  0  0  0  0  0  0  0  0  0  0  0
   23.3911  -15.4172  -16.2878 O   0  0  0  0  0  0  0  0  0  0  0  0
  2  1  1  1
  3  2  1  0
  4  3  1  0
  5  4  1  0
  5  6  2  0
  7  8  2  0
  7  2  1  0
  9  5  1  0
 11 10  1  0
 12 11  2  0
 14 13  1  6
 13 11  1  0
 14 15  1  0
 15  7  1  0
 16 26  1  0
 16 14  1  0
 17 16  2  0
 19 18  1  0
 19 21  1  0
 20 19  2  0
 22 21  1  0
 23 22  1  0
 24 23  1  0
 25 24  1  1
 25 26  1  0
 27 28  1  0
 27 25  1  0
 29 27  2  0
M  END
$$$$
