ENR.pdb
     RDKit          3D

 29 28  0  0  1  0  0  0  0  0999 V2000
   26.3390  -22.3257  -15.6638 N   0  0  0  0  0  0  0  0  0  0  0  0
   24.9320  -22.2452  -16.0028 C   0  0  1  0  0  0  0  0  0  0  0  0
   24.3734  -23.5733  -16.4320 C   0  0  0  0  0  0  0  0  0  0  0  0
   24.8004  -24.7047  -15.5571 C   0  0  0  0  0  0  0  0  0  0  0  0
   23.8047  -25.1254  -14.5683 C   0  0  0  0  0  0  0  0  0  0  0  0
   24.1381  -25.0489  -13.3499 O   0  0  0  0  0  0  0  0  0  0  0  0
   24.1984  -21.8481  -14.7483 C   0  0  0  0  0  0  0  0  0  0  0  0
   24.8295  -21.2771  -13.8533 O   0  0  0  0  0  0  0  0  0  0  0  0
   22.5363  -25.5983  -14.8292 O   0  0  0  0  0  0  0  0  0  0  0  0
   20.0984  -19.2746  -12.6538 N   0  0  0  0  0  0  0  0  0  0  0  0
   21.0160  -18.9076  -13.6550 C   0  0  0  0  0  0  0  0  0  0  0  0
   21.0505  -17.6745  -13.9627 O   0  0  0  0  0  0  0  0  0  0  0  0
   21.9269  -19.8232  -14.3654 C   0  0  0  0  0  0  0  0  0  0  0  0
   21.9106  -21.2352  -13.8810 C   0  0  2  0  0  0  0  0  0  0  0  0
   22.8223  -22.1144  -14.5825 N   0  0  0  0  0  0  0  0  0  0  0  0
   20.5499  -21.8182  -13.9411 C   0  0  0  0  0  0  0  0  0  0  0  0
   20.0037  -22.0940  -15.0526 O   0  0  0  0  0  0  0  0  0  0  0  0
   19.2190  -25.1298   -8.2710 N   0  0  0  0  0  0  0  0  0  0  0  0
   17.8428  -24.7193   -8.1477 C   0  0  0  0  0  0  0  0  0  0  0  0
   17.1329  -25.3375   -7.2787 N   0  0  0  0  0  0  0  0  0  0  0  0
   17.3088  -23.6818   -8.9521 N   0  0  0  0  0  0  0  0  0  0  0  0
   16.2483  -23.9161   -9.8997 C   0  0  0  0  0  0  0  0  0  0  0  0
   16.6826  -23.6502  -11.3186 C   0  0  0  0  0  0  0  0  0  0  0  0
   18.0348  -23.0019  -11.4251 C   0  0  0  0  0  0  0  0  0  0  0  0
   18.4665  -22.6985  -12.8188 C   0  0  2  0  0  0  0  0  0  0  0  0
   19.7813  -22.1002  -12.7793 N   0  0  0  0  0  0  0  0  0  0  0  0
   17.5677  -21.8560  -13.5871 C   0  0  0  0  0  0  0  0  0  0  0  0
   16.7211  -22.4413  -14.5167 O   0  0  0  0  0  0  0  0  0  0  0  0
   17.4785  -20.6036  -13.4890 O   0  0  0  0  0  0  0  0  0  0  0  0
  2  1  1  1
  3  2  1  0
  4  3  1  0
  5  4  1  0
  5  6  2  0
  7  8  2  0
  7  2  1  0
  9  5  1  0
 11 10  1  0
 12 11  2  0
 14 13  1  6
 13 11  1  0
 14 15  1  0
 15  7  1  0
 16 26  1  0
 16 14  1  0
 17 16  2  0
 19 18  1  0
 19 21  1  0
 20 19  2  0
 22 21  1  0
 23 22  1  0
 24 23  1  0
 25 24  1  1
 25 26  1  0
 27 28  1  0
 27 25  1  0
 29 27  2  0
M  END
$$$$
