ENR.pdb
     RDKit          3D

 29 28  0  0  1  0  0  0  0  0999 V2000
   25.1502  -22.5077  -15.2085 N   0  0  0  0  0  0  0  0  0  0  0  0
   25.6380  -21.7261  -14.0895 C   0  0  1  0  0  0  0  0  0  0  0  0
   26.7114  -20.7561  -14.4980 C   0  0  0  0  0  0  0  0  0  0  0  0
   26.7499  -20.5018  -15.9684 C   0  0  0  0  0  0  0  0  0  0  0  0
   27.9889  -20.9172  -16.6307 C   0  0  0  0  0  0  0  0  0  0  0  0
   28.5773  -20.0516  -17.3420 O   0  0  0  0  0  0  0  0  0  0  0  0
   24.4786  -20.9069  -13.5853 C   0  0  0  0  0  0  0  0  0  0  0  0
   24.6357  -20.2310  -12.5637 O   0  0  0  0  0  0  0  0  0  0  0  0
   28.5825  -22.1595  -16.5589 O   0  0  0  0  0  0  0  0  0  0  0  0
   19.8961  -18.4315  -12.8765 N   0  0  0  0  0  0  0  0  0  0  0  0
   20.4147  -18.3671  -14.1827 C   0  0  0  0  0  0  0  0  0  0  0  0
   19.9001  -17.4943  -14.9506 O   0  0  0  0  0  0  0  0  0  0  0  0
   21.4902  -19.2170  -14.7247 C   0  0  0  0  0  0  0  0  0  0  0  0
   22.0624  -20.2052  -13.7630 C   0  0  2  0  0  0  0  0  0  0  0  0
   23.2346  -20.9000  -14.2522 N   0  0  0  0  0  0  0  0  0  0  0  0
   21.0557  -21.2096  -13.3474 C   0  0  0  0  0  0  0  0  0  0  0  0
   21.3657  -22.4330  -13.2170 O   0  0  0  0  0  0  0  0  0  0  0  0
   16.9306  -25.8716   -7.9826 N   0  0  0  0  0  0  0  0  0  0  0  0
   17.8459  -24.8217   -7.6117 C   0  0  0  0  0  0  0  0  0  0  0  0
   18.2783  -24.8338   -6.4057 N   0  0  0  0  0  0  0  0  0  0  0  0
   18.2431  -23.8283   -8.5412 N   0  0  0  0  0  0  0  0  0  0  0  0
   17.7553  -23.8094   -9.8974 C   0  0  0  0  0  0  0  0  0  0  0  0
   18.8745  -23.7424  -10.9050 C   0  0  0  0  0  0  0  0  0  0  0  0
   19.3100  -22.3411  -11.2319 C   0  0  0  0  0  0  0  0  0  0  0  0
   18.7507  -21.8010  -12.5032 C   0  0  2  0  0  0  0  0  0  0  0  0
   19.7017  -20.8746  -13.0740 N   0  0  0  0  0  0  0  0  0  0  0  0
   17.4495  -21.1654  -12.3989 C   0  0  0  0  0  0  0  0  0  0  0  0
   16.3235  -21.8563  -12.8210 O   0  0  0  0  0  0  0  0  0  0  0  0
   17.2359  -20.0092  -11.9476 O   0  0  0  0  0  0  0  0  0  0  0  0
  2  1  1  6
  3  2  1  0
  4  3  1  0
  5  4  1  0
  5  6  2  0
  7  8  2  0
  7  2  1  0
  9  5  1  0
 11 10  1  0
 12 11  2  0
 14 13  1  6
 13 11  1  0
 14 15  1  0
 15  7  1  0
 16 26  1  0
 16 14  1  0
 17 16  2  0
 19 18  1  0
 19 21  1  0
 20 19  2  0
 22 21  1  0
 23 22  1  0
 24 23  1  0
 25 24  1  1
 25 26  1  0
 27 28  1  0
 27 25  1  0
 29 27  2  0
M  END
$$$$
