ENR.pdb
     RDKit          3D

 29 28  0  0  1  0  0  0  0  0999 V2000
   30.5314  -24.9858  -16.4864 N   0  0  0  0  0  0  0  0  0  0  0  0
   29.5488  -24.4974  -17.4335 C   0  0  1  0  0  0  0  0  0  0  0  0
   28.3902  -25.4426  -17.5894 C   0  0  0  0  0  0  0  0  0  0  0  0
   27.7993  -25.8731  -16.2881 C   0  0  0  0  0  0  0  0  0  0  0  0
   26.8049  -26.9441  -16.3901 C   0  0  0  0  0  0  0  0  0  0  0  0
   26.6496  -27.4763  -17.5277 O   0  0  0  0  0  0  0  0  0  0  0  0
   28.9932  -23.2153  -16.8703 C   0  0  0  0  0  0  0  0  0  0  0  0
   29.1194  -23.0004  -15.6607 O   0  0  0  0  0  0  0  0  0  0  0  0
   26.0171  -27.4340  -15.3703 O   0  0  0  0  0  0  0  0  0  0  0  0
   29.7250  -19.2161  -19.8006 N   0  0  0  0  0  0  0  0  0  0  0  0
   29.0421  -19.2228  -18.5707 C   0  0  0  0  0  0  0  0  0  0  0  0
   29.5678  -18.5469  -17.6309 O   0  0  0  0  0  0  0  0  0  0  0  0
   27.7853  -19.9392  -18.2878 C   0  0  0  0  0  0  0  0  0  0  0  0
   27.8761  -20.9815  -17.2228 C   0  0  2  0  0  0  0  0  0  0  0  0
   28.3409  -22.2703  -17.6911 N   0  0  0  0  0  0  0  0  0  0  0  0
   26.5803  -21.1689  -16.5293 C   0  0  0  0  0  0  0  0  0  0  0  0
   25.6625  -21.8828  -17.0371 O   0  0  0  0  0  0  0  0  0  0  0  0
   22.8451  -20.0923   -9.0522 N   0  0  0  0  0  0  0  0  0  0  0  0
   21.7949  -20.5350   -9.9347 C   0  0  0  0  0  0  0  0  0  0  0  0
   20.5929  -20.4028   -9.5114 N   0  0  0  0  0  0  0  0  0  0  0  0
   22.0859  -21.0884  -11.2066 N   0  0  0  0  0  0  0  0  0  0  0  0
   23.4294  -21.1534  -11.7245 C   0  0  0  0  0  0  0  0  0  0  0  0
   23.7833  -19.9396  -12.5453 C   0  0  0  0  0  0  0  0  0  0  0  0
   25.0956  -20.0613  -13.2687 C   0  0  0  0  0  0  0  0  0  0  0  0
   25.0001  -20.6768  -14.6225 C   0  0  2  0  0  0  0  0  0  0  0  0
   26.2858  -20.5712  -15.2739 N   0  0  0  0  0  0  0  0  0  0  0  0
   23.9666  -20.1376  -15.4880 C   0  0  0  0  0  0  0  0  0  0  0  0
   22.7967  -20.8587  -15.6748 O   0  0  0  0  0  0  0  0  0  0  0  0
   24.0303  -19.0424  -16.1065 O   0  0  0  0  0  0  0  0  0  0  0  0
  2  1  1  1
  3  2  1  0
  4  3  1  0
  5  4  1  0
  5  6  2  0
  7  8  2  0
  7  2  1  0
  9  5  1  0
 11 10  1  0
 12 11  2  0
 14 13  1  6
 13 11  1  0
 14 15  1  0
 15  7  1  0
 16 26  1  0
 16 14  1  0
 17 16  2  0
 19 18  1  0
 19 21  1  0
 20 19  2  0
 22 21  1  0
 23 22  1  0
 24 23  1  0
 25 24  1  1
 25 26  1  0
 27 28  1  0
 27 25  1  0
 29 27  2  0
M  END
$$$$
