ENR.pdb
     RDKit          3D

 29 28  0  0  1  0  0  0  0  0999 V2000
   29.3727  -14.7321  -20.9419 N   0  0  0  0  0  0  0  0  0  0  0  0
   28.1058  -14.5137  -20.2724 C   0  0  1  0  0  0  0  0  0  0  0  0
   27.8028  -15.5867  -19.2640 C   0  0  0  0  0  0  0  0  0  0  0  0
   28.6303  -16.8162  -19.4424 C   0  0  0  0  0  0  0  0  0  0  0  0
   28.3741  -17.8756  -18.4635 C   0  0  0  0  0  0  0  0  0  0  0  0
   27.5363  -17.6220  -17.5496 O   0  0  0  0  0  0  0  0  0  0  0  0
   28.2275  -13.2202  -19.5098 C   0  0  0  0  0  0  0  0  0  0  0  0
   27.2300  -12.7850  -18.9261 O   0  0  0  0  0  0  0  0  0  0  0  0
   28.9543  -19.1259  -18.4349 O   0  0  0  0  0  0  0  0  0  0  0  0
   31.2582   -9.3996  -16.2723 N   0  0  0  0  0  0  0  0  0  0  0  0
   31.2328   -9.6924  -17.6482 C   0  0  0  0  0  0  0  0  0  0  0  0
   31.4291   -8.7139  -18.4358 O   0  0  0  0  0  0  0  0  0  0  0  0
   31.0007  -11.0216  -18.2413 C   0  0  0  0  0  0  0  0  0  0  0  0
   29.6150  -11.2578  -18.7442 C   0  0  2  0  0  0  0  0  0  0  0  0
   29.4454  -12.5089  -19.4528 N   0  0  0  0  0  0  0  0  0  0  0  0
   29.1545  -10.1529  -19.6173 C   0  0  0  0  0  0  0  0  0  0  0  0
   29.5586  -10.0529  -20.8158 O   0  0  0  0  0  0  0  0  0  0  0  0
   21.4848   -5.5972  -19.8641 N   0  0  0  0  0  0  0  0  0  0  0  0
   22.2663   -5.1960  -21.0069 C   0  0  0  0  0  0  0  0  0  0  0  0
   21.6937   -4.4242  -21.8541 N   0  0  0  0  0  0  0  0  0  0  0  0
   23.6020   -5.6382  -21.1777 N   0  0  0  0  0  0  0  0  0  0  0  0
   24.2040   -6.6129  -20.3032 C   0  0  0  0  0  0  0  0  0  0  0  0
   25.6747   -6.7952  -20.5791 C   0  0  0  0  0  0  0  0  0  0  0  0
   26.3020   -7.9148  -19.7960 C   0  0  0  0  0  0  0  0  0  0  0  0
   27.7648   -8.0845  -20.0243 C   0  0  2  0  0  0  0  0  0  0  0  0
   28.2479   -9.1507  -19.1769 N   0  0  0  0  0  0  0  0  0  0  0  0
   28.5751   -6.8961  -19.8264 C   0  0  0  0  0  0  0  0  0  0  0  0
   28.6532   -5.9541  -20.8413 O   0  0  0  0  0  0  0  0  0  0  0  0
   29.2363   -6.6278  -18.7888 O   0  0  0  0  0  0  0  0  0  0  0  0
  2  1  1  1
  3  2  1  0
  4  3  1  0
  5  4  1  0
  5  6  2  0
  7  8  2  0
  7  2  1  0
  9  5  1  0
 11 10  1  0
 12 11  2  0
 14 13  1  6
 13 11  1  0
 14 15  1  0
 15  7  1  0
 16 26  1  0
 16 14  1  0
 17 16  2  0
 19 18  1  0
 19 21  1  0
 20 19  2  0
 22 21  1  0
 23 22  1  0
 24 23  1  0
 25 24  1  1
 25 26  1  0
 27 28  1  0
 27 25  1  0
 29 27  2  0
M  END
$$$$
