ENR.pdb
     RDKit          3D

 29 28  0  0  1  0  0  0  0  0999 V2000
   23.3243  -14.2260  -15.8088 N   0  0  0  0  0  0  0  0  0  0  0  0
   24.3439  -13.2136  -15.6180 C   0  0  1  0  0  0  0  0  0  0  0  0
   25.7322  -13.7664  -15.7824 C   0  0  0  0  0  0  0  0  0  0  0  0
   25.7577  -15.2403  -16.0163 C   0  0  0  0  0  0  0  0  0  0  0  0
   27.0977  -15.8174  -16.1493 C   0  0  0  0  0  0  0  0  0  0  0  0
   28.0767  -15.0198  -16.0663 O   0  0  0  0  0  0  0  0  0  0  0  0
   24.1524  -12.1854  -16.7024 C   0  0  0  0  0  0  0  0  0  0  0  0
   24.8551  -12.2605  -17.7153 O   0  0  0  0  0  0  0  0  0  0  0  0
   27.4036  -17.1456  -16.3567 O   0  0  0  0  0  0  0  0  0  0  0  0
   24.6322  -10.1768  -20.4310 N   0  0  0  0  0  0  0  0  0  0  0  0
   23.8443  -11.1310  -19.7616 C   0  0  0  0  0  0  0  0  0  0  0  0
   24.2201  -12.3414  -19.8613 O   0  0  0  0  0  0  0  0  0  0  0  0
   22.6368  -10.8450  -18.9660 C   0  0  0  0  0  0  0  0  0  0  0  0
   22.8886  -10.2129  -17.6372 C   0  0  2  0  0  0  0  0  0  0  0  0
   23.1970  -11.1536  -16.5807 N   0  0  0  0  0  0  0  0  0  0  0  0
   21.7463   -9.3739  -17.2056 C   0  0  0  0  0  0  0  0  0  0  0  0
   21.3229   -8.4211  -17.9287 O   0  0  0  0  0  0  0  0  0  0  0  0
   13.8772  -11.4673  -14.1783 N   0  0  0  0  0  0  0  0  0  0  0  0
   13.9005  -10.0264  -14.2078 C   0  0  0  0  0  0  0  0  0  0  0  0
   12.8010   -9.4269  -13.9376 N   0  0  0  0  0  0  0  0  0  0  0  0
   15.0856   -9.3152  -14.5215 N   0  0  0  0  0  0  0  0  0  0  0  0
   16.2837   -9.9814  -14.9665 C   0  0  0  0  0  0  0  0  0  0  0  0
   17.4524   -9.0362  -15.0815 C   0  0  0  0  0  0  0  0  0  0  0  0
   18.7149   -9.6928  -15.5664 C   0  0  0  0  0  0  0  0  0  0  0  0
   19.9122   -8.8057  -15.5659 C   0  0  2  0  0  0  0  0  0  0  0  0
   21.0636   -9.5770  -15.9757 N   0  0  0  0  0  0  0  0  0  0  0  0
   20.1955   -8.1309  -14.3120 C   0  0  0  0  0  0  0  0  0  0  0  0
   21.4191   -8.3394  -13.6932 O   0  0  0  0  0  0  0  0  0  0  0  0
   19.4128   -7.3487  -13.7107 O   0  0  0  0  0  0  0  0  0  0  0  0
  2  1  1  6
  3  2  1  0
  4  3  1  0
  5  4  1  0
  5  6  2  0
  7  8  2  0
  7  2  1  0
  9  5  1  0
 11 10  1  0
 12 11  2  0
 14 13  1  6
 13 11  1  0
 14 15  1  0
 15  7  1  0
 16 26  1  0
 16 14  1  0
 17 16  2  0
 19 18  1  0
 19 21  1  0
 20 19  2  0
 22 21  1  0
 23 22  1  0
 24 23  1  0
 25 24  1  1
 25 26  1  0
 27 28  1  0
 27 25  1  0
 29 27  2  0
M  END
$$$$
