VTH.pdb
     RDKit          3D

 25 25  0  0  1  0  0  0  0  0999 V2000
   26.9973  -16.6360  -21.1457 C   0  0  0  0  0  0  0  0  0  0  0  0
   26.1847  -15.4093  -21.3738 C   0  0  2  0  0  0  0  0  0  0  0  0
   27.1466  -14.2328  -21.4954 C   0  0  0  0  0  0  0  0  0  0  0  0
   25.1502  -15.1348  -20.2959 C   0  0  2  0  0  0  0  0  0  0  0  0
   25.8804  -14.6418  -19.1105 N   0  0  0  0  0  0  0  0  0  0  0  0
   24.3936  -16.3273  -19.8923 C   0  0  0  0  0  0  0  0  0  0  0  0
   23.6186  -16.9202  -20.7246 O   0  0  0  0  0  0  0  0  0  0  0  0
   25.2342  -19.7680  -19.0180 C   0  0  0  0  0  0  0  0  0  0  0  0
   24.5349  -19.1778  -17.8215 C   0  0  1  0  0  0  0  0  0  0  0  0
   25.4682  -18.6175  -16.9598 O   0  0  0  0  0  0  0  0  0  0  0  0
   23.5897  -18.0512  -18.2272 C   0  0  2  0  0  0  0  0  0  0  0  0
   24.4276  -16.9324  -18.6076 N   0  0  0  0  0  0  0  0  0  0  0  0
   22.8389  -17.6634  -17.0096 C   0  0  0  0  0  0  0  0  0  0  0  0
   23.1799  -16.6878  -16.2803 O   0  0  0  0  0  0  0  0  0  0  0  0
   21.6774  -18.3793  -16.5912 N   0  0  0  0  0  0  0  0  0  0  0  0
   20.8768  -17.9518  -15.4570 C   0  0  1  0  0  0  0  0  0  0  0  0
   20.4337  -16.5343  -15.7692 C   0  0  0  0  0  0  0  0  0  0  0  0
   19.4186  -16.0376  -14.8312 C   0  0  0  0  0  0  0  0  0  0  0  0
   19.4551  -16.0425  -13.4703 C   0  0  0  0  0  0  0  0  0  0  0  0
   18.3020  -15.4870  -13.0429 N   0  0  0  0  0  0  0  0  0  0  0  0
   17.5837  -15.1534  -14.1289 C   0  0  0  0  0  0  0  0  0  0  0  0
   18.2466  -15.4806  -15.2311 N   0  0  0  0  0  0  0  0  0  0  0  0
   19.7542  -18.8888  -15.3073 C   0  0  0  0  0  0  0  0  0  0  0  0
   19.1578  -19.0476  -14.0765 O   0  0  0  0  0  0  0  0  0  0  0  0
   19.3352  -19.5415  -16.2793 O   0  0  0  0  0  0  0  0  0  0  0  0
  2  1  1  1
  3  2  1  0
  4  2  1  0
  4  5  1  1
  6  7  2  0
  6  4  1  0
  9  8  1  6
  9 11  1  0
 10  9  1  0
 11 12  1  1
 12  6  1  0
 13 11  1  0
 14 13  2  0
 15 13  1  0
 16 17  1  6
 16 15  1  0
 17 18  1  0
 18 22  1  0
 19 20  1  0
 19 18  2  0
 20 21  1  0
 21 22  2  0
 23 16  1  0
 24 23  1  0
 25 23  2  0
M  END
$$$$
