VTH.pdb
     RDKit          3D

 25 25  0  0  1  0  0  0  0  0999 V2000
   21.9159  -12.2641  -18.7328 C   0  0  0  0  0  0  0  0  0  0  0  0
   21.8938  -13.1071  -17.5056 C   0  0  2  0  0  0  0  0  0  0  0  0
   21.0891  -14.3630  -17.8211 C   0  0  0  0  0  0  0  0  0  0  0  0
   21.3268  -12.4123  -16.2794 C   0  0  2  0  0  0  0  0  0  0  0  0
   19.9082  -12.1177  -16.5660 N   0  0  0  0  0  0  0  0  0  0  0  0
   21.9936  -11.1421  -15.9646 C   0  0  0  0  0  0  0  0  0  0  0  0
   23.2111  -11.1274  -15.5618 O   0  0  0  0  0  0  0  0  0  0  0  0
   23.4974   -8.4968  -17.7193 C   0  0  0  0  0  0  0  0  0  0  0  0
   22.3734   -7.8625  -16.9426 C   0  0  1  0  0  0  0  0  0  0  0  0
   21.2075   -7.8878  -17.6960 O   0  0  0  0  0  0  0  0  0  0  0  0
   22.0765   -8.6339  -15.6603 C   0  0  2  0  0  0  0  0  0  0  0  0
   21.4055   -9.8529  -16.0634 N   0  0  0  0  0  0  0  0  0  0  0  0
   21.1115   -7.8191  -14.8847 C   0  0  0  0  0  0  0  0  0  0  0  0
   19.9227   -8.1930  -14.6683 O   0  0  0  0  0  0  0  0  0  0  0  0
   21.4778   -6.5543  -14.3345 N   0  0  0  0  0  0  0  0  0  0  0  0
   20.5416   -5.7462  -13.5725 C   0  0  1  0  0  0  0  0  0  0  0  0
   20.1974   -6.5587  -12.3377 C   0  0  0  0  0  0  0  0  0  0  0  0
   19.3683   -5.8138  -11.3814 C   0  0  0  0  0  0  0  0  0  0  0  0
   18.9232   -4.5304  -11.4732 C   0  0  0  0  0  0  0  0  0  0  0  0
   18.2014   -4.2827  -10.3604 N   0  0  0  0  0  0  0  0  0  0  0  0
   18.2121   -5.3987   -9.6113 C   0  0  0  0  0  0  0  0  0  0  0  0
   18.9187   -6.3458  -10.2158 N   0  0  0  0  0  0  0  0  0  0  0  0
   21.1894   -4.4644  -13.2592 C   0  0  0  0  0  0  0  0  0  0  0  0
   22.5621   -4.3966  -13.1752 O   0  0  0  0  0  0  0  0  0  0  0  0
   20.5130   -3.4385  -13.0685 O   0  0  0  0  0  0  0  0  0  0  0  0
  2  1  1  6
  3  2  1  0
  4  2  1  0
  4  5  1  6
  6  7  2  0
  6  4  1  0
  9  8  1  6
  9 11  1  0
 10  9  1  0
 11 12  1  6
 12  6  1  0
 13 11  1  0
 14 13  2  0
 15 13  1  0
 16 17  1  1
 16 15  1  0
 17 18  1  0
 18 22  1  0
 19 20  1  0
 19 18  2  0
 20 21  1  0
 21 22  2  0
 23 16  1  0
 24 23  1  0
 25 23  2  0
M  END
$$$$
