VTH.pdb
     RDKit          3D

 25 25  0  0  1  0  0  0  0  0999 V2000
   27.0179  -12.6680  -16.8643 C   0  0  0  0  0  0  0  0  0  0  0  0
   26.4223  -13.2206  -15.6164 C   0  0  2  0  0  0  0  0  0  0  0  0
   27.3462  -14.3230  -15.1111 C   0  0  0  0  0  0  0  0  0  0  0  0
   25.0086  -13.7520  -15.7801 C   0  0  2  0  0  0  0  0  0  0  0  0
   25.0887  -14.9295  -16.6681 N   0  0  0  0  0  0  0  0  0  0  0  0
   24.0877  -12.7878  -16.3962 C   0  0  0  0  0  0  0  0  0  0  0  0
   24.0416  -12.6533  -17.6708 O   0  0  0  0  0  0  0  0  0  0  0  0
   20.5749  -12.7604  -16.7417 C   0  0  0  0  0  0  0  0  0  0  0  0
   20.8847  -11.4572  -16.0528 C   0  0  1  0  0  0  0  0  0  0  0  0
   20.8033  -11.6212  -14.6765 O   0  0  0  0  0  0  0  0  0  0  0  0
   22.3074  -10.9935  -16.3496 C   0  0  2  0  0  0  0  0  0  0  0  0
   23.1895  -11.9388  -15.6961 N   0  0  0  0  0  0  0  0  0  0  0  0
   22.4767   -9.6797  -15.6851 C   0  0  0  0  0  0  0  0  0  0  0  0
   23.1930   -9.5243  -14.6542 O   0  0  0  0  0  0  0  0  0  0  0  0
   21.8321   -8.5064  -16.1796 N   0  0  0  0  0  0  0  0  0  0  0  0
   21.9485   -7.2233  -15.5085 C   0  0  1  0  0  0  0  0  0  0  0  0
   21.9249   -6.1747  -16.6053 C   0  0  0  0  0  0  0  0  0  0  0  0
   21.9090   -4.8036  -16.0792 C   0  0  0  0  0  0  0  0  0  0  0  0
   22.6841   -4.2699  -15.0953 C   0  0  0  0  0  0  0  0  0  0  0  0
   22.3105   -2.9809  -14.9546 N   0  0  0  0  0  0  0  0  0  0  0  0
   21.3268   -2.7431  -15.8392 C   0  0  0  0  0  0  0  0  0  0  0  0
   21.0659   -3.8422  -16.5360 N   0  0  0  0  0  0  0  0  0  0  0  0
   20.8304   -7.0960  -14.5627 C   0  0  0  0  0  0  0  0  0  0  0  0
   19.6764   -7.8180  -14.7697 O   0  0  0  0  0  0  0  0  0  0  0  0
   20.9129   -6.3433  -13.5763 O   0  0  0  0  0  0  0  0  0  0  0  0
  2  1  1  6
  3  2  1  0
  4  2  1  0
  4  5  1  6
  6  7  2  0
  6  4  1  0
  9  8  1  6
  9 11  1  0
 10  9  1  0
 11 12  1  1
 12  6  1  0
 13 11  1  0
 14 13  2  0
 15 13  1  0
 16 17  1  6
 16 15  1  0
 17 18  1  0
 18 22  1  0
 19 20  1  0
 19 18  2  0
 20 21  1  0
 21 22  2  0
 23 16  1  0
 24 23  1  0
 25 23  2  0
M  END
$$$$
