VTH.pdb
     RDKit          3D

 25 25  0  0  1  0  0  0  0  0999 V2000
   18.4011  -13.8564  -17.4576 C   0  0  0  0  0  0  0  0  0  0  0  0
   19.3713  -12.9486  -16.7853 C   0  0  2  0  0  0  0  0  0  0  0  0
   18.5717  -11.8732  -16.0583 C   0  0  0  0  0  0  0  0  0  0  0  0
   20.3829  -12.3103  -17.7216 C   0  0  2  0  0  0  0  0  0  0  0  0
   21.2044  -13.4027  -18.2812 N   0  0  0  0  0  0  0  0  0  0  0  0
   21.2879  -11.3670  -17.0517 C   0  0  0  0  0  0  0  0  0  0  0  0
   22.5371  -11.6330  -16.9355 O   0  0  0  0  0  0  0  0  0  0  0  0
   23.4765   -9.7917  -17.7285 C   0  0  0  0  0  0  0  0  0  0  0  0
   22.7068   -8.6720  -17.0781 C   0  0  1  0  0  0  0  0  0  0  0  0
   21.8279   -8.1106  -17.9946 O   0  0  0  0  0  0  0  0  0  0  0  0
   21.8560   -9.1800  -15.9182 C   0  0  2  0  0  0  0  0  0  0  0  0
   20.9110  -10.1197  -16.4860 N   0  0  0  0  0  0  0  0  0  0  0  0
   21.0905   -8.0179  -15.4081 C   0  0  0  0  0  0  0  0  0  0  0  0
   19.8381   -7.9113  -15.5495 O   0  0  0  0  0  0  0  0  0  0  0  0
   21.7346   -6.9450  -14.7221 N   0  0  0  0  0  0  0  0  0  0  0  0
   21.0012   -6.0274  -13.8674 C   0  0  1  0  0  0  0  0  0  0  0  0
   20.3024   -6.8893  -12.8320 C   0  0  0  0  0  0  0  0  0  0  0  0
   19.5949   -6.0967  -11.8182 C   0  0  0  0  0  0  0  0  0  0  0  0
   18.7571   -5.0405  -12.0084 C   0  0  0  0  0  0  0  0  0  0  0  0
   18.3504   -4.6349  -10.7874 N   0  0  0  0  0  0  0  0  0  0  0  0
   18.9339   -5.4338   -9.8775 C   0  0  0  0  0  0  0  0  0  0  0  0
   19.6979   -6.3332  -10.4850 N   0  0  0  0  0  0  0  0  0  0  0  0
   21.9598   -5.0805  -13.2798 C   0  0  0  0  0  0  0  0  0  0  0  0
   23.2278   -5.5073  -12.9543 O   0  0  0  0  0  0  0  0  0  0  0  0
   21.6402   -3.8969  -13.0721 O   0  0  0  0  0  0  0  0  0  0  0  0
  2  1  1  6
  3  2  1  0
  4  2  1  0
  4  5  1  1
  6  7  2  0
  6  4  1  0
  9  8  1  6
  9 11  1  0
 10  9  1  0
 11 12  1  6
 12  6  1  0
 13 11  1  0
 14 13  2  0
 15 13  1  0
 16 17  1  1
 16 15  1  0
 17 18  1  0
 18 22  1  0
 19 20  1  0
 19 18  2  0
 20 21  1  0
 21 22  2  0
 23 16  1  0
 24 23  1  0
 25 23  2  0
M  END
$$$$
