VTH.pdb
     RDKit          3D

 25 25  0  0  1  0  0  0  0  0999 V2000
   17.5895  -13.4761  -17.0429 C   0  0  0  0  0  0  0  0  0  0  0  0
   18.7380  -13.8903  -17.8953 C   0  0  2  0  0  0  0  0  0  0  0  0
   18.3756  -15.2205  -18.5460 C   0  0  0  0  0  0  0  0  0  0  0  0
   20.0576  -14.0094  -17.1523 C   0  0  2  0  0  0  0  0  0  0  0  0
   19.9429  -15.1733  -16.2502 N   0  0  0  0  0  0  0  0  0  0  0  0
   20.3754  -12.8347  -16.3299 C   0  0  0  0  0  0  0  0  0  0  0  0
   19.8963  -12.7189  -15.1459 O   0  0  0  0  0  0  0  0  0  0  0  0
   23.6949  -11.4917  -15.1519 C   0  0  0  0  0  0  0  0  0  0  0  0
   22.9820  -10.3962  -15.9007 C   0  0  1  0  0  0  0  0  0  0  0  0
   23.3652  -10.4117  -17.2351 O   0  0  0  0  0  0  0  0  0  0  0  0
   21.4703  -10.6004  -15.8826 C   0  0  2  0  0  0  0  0  0  0  0  0
   21.2035  -11.7496  -16.7233 N   0  0  0  0  0  0  0  0  0  0  0  0
   20.8702   -9.4119  -16.5337 C   0  0  0  0  0  0  0  0  0  0  0  0
   20.3940   -9.4439  -17.7051 O   0  0  0  0  0  0  0  0  0  0  0  0
   20.7974   -8.1534  -15.8647 N   0  0  0  0  0  0  0  0  0  0  0  0
   20.2749   -6.9647  -16.5158 C   0  0  1  0  0  0  0  0  0  0  0  0
   18.8286   -6.8466  -16.0713 C   0  0  0  0  0  0  0  0  0  0  0  0
   18.1833   -5.6210  -16.5594 C   0  0  0  0  0  0  0  0  0  0  0  0
   18.0013   -4.4444  -15.8990 C   0  0  0  0  0  0  0  0  0  0  0  0
   17.3604   -3.6119  -16.7457 N   0  0  0  0  0  0  0  0  0  0  0  0
   17.1600   -4.2767  -17.8966 C   0  0  0  0  0  0  0  0  0  0  0  0
   17.6545   -5.5050  -17.8047 N   0  0  0  0  0  0  0  0  0  0  0  0
   21.1000   -5.8178  -16.1100 C   0  0  0  0  0  0  0  0  0  0  0  0
   21.1002   -4.6730  -16.8752 O   0  0  0  0  0  0  0  0  0  0  0  0
   21.7993   -5.8677  -15.0830 O   0  0  0  0  0  0  0  0  0  0  0  0
  2  1  1  1
  3  2  1  0
  4  2  1  0
  4  5  1  1
  6  7  2  0
  6  4  1  0
  9  8  1  1
  9 11  1  0
 10  9  1  0
 11 12  1  6
 12  6  1  0
 13 11  1  0
 14 13  2  0
 15 13  1  0
 16 17  1  1
 16 15  1  0
 17 18  1  0
 18 22  1  0
 19 20  1  0
 19 18  2  0
 20 21  1  0
 21 22  2  0
 23 16  1  0
 24 23  1  0
 25 23  2  0
M  END
$$$$
