VTH.pdb
     RDKit          3D

 25 25  0  0  1  0  0  0  0  0999 V2000
   21.4828  -12.5131  -16.8049 C   0  0  0  0  0  0  0  0  0  0  0  0
   20.3385  -12.8413  -15.9104 C   0  0  2  0  0  0  0  0  0  0  0  0
   19.6334  -14.0625  -16.4898 C   0  0  0  0  0  0  0  0  0  0  0  0
   19.3496  -11.7044  -15.7170 C   0  0  2  0  0  0  0  0  0  0  0  0
   18.6809  -11.4866  -17.0158 N   0  0  0  0  0  0  0  0  0  0  0  0
   19.9814  -10.4391  -15.3205 C   0  0  0  0  0  0  0  0  0  0  0  0
   20.5335  -10.3190  -14.1691 O   0  0  0  0  0  0  0  0  0  0  0  0
   23.0360   -9.1198  -15.6803 C   0  0  0  0  0  0  0  0  0  0  0  0
   22.1342   -8.1373  -16.3805 C   0  0  1  0  0  0  0  0  0  0  0  0
   21.9174   -8.5472  -17.6892 O   0  0  0  0  0  0  0  0  0  0  0  0
   20.7625   -8.0677  -15.7163 C   0  0  2  0  0  0  0  0  0  0  0  0
   20.0535   -9.2656  -16.1175 N   0  0  0  0  0  0  0  0  0  0  0  0
   20.0597   -6.9043  -16.3071 C   0  0  0  0  0  0  0  0  0  0  0  0
   19.0956   -7.0291  -17.1163 O   0  0  0  0  0  0  0  0  0  0  0  0
   20.4388   -5.5655  -15.9900 N   0  0  0  0  0  0  0  0  0  0  0  0
   19.7438   -4.4168  -16.5446 C   0  0  1  0  0  0  0  0  0  0  0  0
   18.2751   -4.6215  -16.2218 C   0  0  0  0  0  0  0  0  0  0  0  0
   17.4416   -3.4808  -16.6230 C   0  0  0  0  0  0  0  0  0  0  0  0
   17.7729   -2.4402  -17.4361 C   0  0  0  0  0  0  0  0  0  0  0  0
   16.6902   -1.6384  -17.5113 N   0  0  0  0  0  0  0  0  0  0  0  0
   15.7235   -2.1875  -16.7559 C   0  0  0  0  0  0  0  0  0  0  0  0
   16.1609   -3.3127  -16.2045 N   0  0  0  0  0  0  0  0  0  0  0  0
   20.3055   -3.2019  -15.9368 C   0  0  0  0  0  0  0  0  0  0  0  0
   19.9123   -1.9650  -16.3964 O   0  0  0  0  0  0  0  0  0  0  0  0
   21.1328   -3.2765  -15.0115 O   0  0  0  0  0  0  0  0  0  0  0  0
  2  1  1  6
  3  2  1  0
  4  2  1  0
  4  5  1  6
  6  7  2  0
  6  4  1  0
  9  8  1  1
  9 11  1  0
 10  9  1  0
 11 12  1  6
 12  6  1  0
 13 11  1  0
 14 13  2  0
 15 13  1  0
 16 17  1  1
 16 15  1  0
 17 18  1  0
 18 22  1  0
 19 20  1  0
 19 18  2  0
 20 21  1  0
 21 22  2  0
 23 16  1  0
 24 23  1  0
 25 23  2  0
M  END
$$$$
