VTH.pdb
     RDKit          3D

 25 25  0  0  1  0  0  0  0  0999 V2000
   17.8707  -14.0090  -21.4806 C   0  0  0  0  0  0  0  0  0  0  0  0
   19.1018  -13.3847  -22.0391 C   0  0  2  0  0  0  0  0  0  0  0  0
   19.6978  -14.3591  -23.0488 C   0  0  0  0  0  0  0  0  0  0  0  0
   20.1395  -13.0062  -20.9963 C   0  0  2  0  0  0  0  0  0  0  0  0
   19.7810  -13.7154  -19.7513 N   0  0  0  0  0  0  0  0  0  0  0  0
   20.1742  -11.5682  -20.6988 C   0  0  0  0  0  0  0  0  0  0  0  0
   20.5307  -10.7252  -21.5971 O   0  0  0  0  0  0  0  0  0  0  0  0
   17.4992   -9.1723  -20.1546 C   0  0  0  0  0  0  0  0  0  0  0  0
   18.3507   -9.1922  -18.9122 C   0  0  1  0  0  0  0  0  0  0  0  0
   17.8932  -10.1740  -18.0436 O   0  0  0  0  0  0  0  0  0  0  0  0
   19.8003   -9.5415  -19.2348 C   0  0  2  0  0  0  0  0  0  0  0  0
   19.8360  -10.9730  -19.4542 N   0  0  0  0  0  0  0  0  0  0  0  0
   20.5921   -9.2485  -18.0168 C   0  0  0  0  0  0  0  0  0  0  0  0
   20.8288  -10.1203  -17.1313 O   0  0  0  0  0  0  0  0  0  0  0  0
   21.1360   -7.9512  -17.7762 N   0  0  0  0  0  0  0  0  0  0  0  0
   21.9290   -7.6558  -16.5955 C   0  0  1  0  0  0  0  0  0  0  0  0
   23.2220   -7.0446  -17.1031 C   0  0  0  0  0  0  0  0  0  0  0  0
   24.1647   -8.0505  -17.6095 C   0  0  0  0  0  0  0  0  0  0  0  0
   24.0380   -9.4060  -17.5956 C   0  0  0  0  0  0  0  0  0  0  0  0
   25.1513   -9.9120  -18.1661 N   0  0  0  0  0  0  0  0  0  0  0  0
   25.9349   -8.8778  -18.5173 C   0  0  0  0  0  0  0  0  0  0  0  0
   25.3518   -7.7323  -18.1867 N   0  0  0  0  0  0  0  0  0  0  0  0
   21.1563   -6.7451  -15.7385 C   0  0  0  0  0  0  0  0  0  0  0  0
   21.5393   -6.5502  -14.4304 O   0  0  0  0  0  0  0  0  0  0  0  0
   20.1592   -6.1474  -16.1800 O   0  0  0  0  0  0  0  0  0  0  0  0
  2  1  1  1
  3  2  1  0
  4  2  1  0
  4  5  1  1
  6  7  2  0
  6  4  1  0
  9  8  1  6
  9 11  1  0
 10  9  1  0
 11 12  1  1
 12  6  1  0
 13 11  1  0
 14 13  2  0
 15 13  1  0
 16 17  1  6
 16 15  1  0
 17 18  1  0
 18 22  1  0
 19 20  1  0
 19 18  2  0
 20 21  1  0
 21 22  2  0
 23 16  1  0
 24 23  1  0
 25 23  2  0
M  END
$$$$
