VTH.pdb
     RDKit          3D

 25 25  0  0  1  0  0  0  0  0999 V2000
   18.8172  -14.7091  -15.6781 C   0  0  0  0  0  0  0  0  0  0  0  0
   19.0793  -14.7212  -17.1438 C   0  0  2  0  0  0  0  0  0  0  0  0
   18.4378  -15.9791  -17.7185 C   0  0  0  0  0  0  0  0  0  0  0  0
   20.5508  -14.6628  -17.5166 C   0  0  2  0  0  0  0  0  0  0  0  0
   21.1575  -15.9387  -17.0857 N   0  0  0  0  0  0  0  0  0  0  0  0
   21.2804  -13.5735  -16.8547 C   0  0  0  0  0  0  0  0  0  0  0  0
   21.8577  -13.7671  -15.7259 O   0  0  0  0  0  0  0  0  0  0  0  0
   24.2031  -11.5130  -17.8470 C   0  0  0  0  0  0  0  0  0  0  0  0
   23.0840  -10.5522  -17.5412 C   0  0  1  0  0  0  0  0  0  0  0  0
   22.4125  -10.2241  -18.7113 O   0  0  0  0  0  0  0  0  0  0  0  0
   22.0502  -11.1779  -16.6101 C   0  0  2  0  0  0  0  0  0  0  0  0
   21.4268  -12.2523  -17.3556 N   0  0  0  0  0  0  0  0  0  0  0  0
   21.0200  -10.1428  -16.3574 C   0  0  0  0  0  0  0  0  0  0  0  0
   19.8030  -10.3033  -16.6625 O   0  0  0  0  0  0  0  0  0  0  0  0
   21.3515   -8.8952  -15.7490 N   0  0  0  0  0  0  0  0  0  0  0  0
   20.3353   -7.9255  -15.3785 C   0  0  1  0  0  0  0  0  0  0  0  0
   19.5720   -8.5422  -14.2208 C   0  0  0  0  0  0  0  0  0  0  0  0
   18.1347   -8.6713  -14.4934 C   0  0  0  0  0  0  0  0  0  0  0  0
   17.4553   -8.3147  -15.6181 C   0  0  0  0  0  0  0  0  0  0  0  0
   16.1577   -8.6196  -15.4083 N   0  0  0  0  0  0  0  0  0  0  0  0
   16.0581   -9.1508  -14.1776 C   0  0  0  0  0  0  0  0  0  0  0  0
   17.2531   -9.1917  -13.6014 N   0  0  0  0  0  0  0  0  0  0  0  0
   21.0079   -6.6677  -15.0230 C   0  0  0  0  0  0  0  0  0  0  0  0
   20.2638   -5.5227  -14.8461 O   0  0  0  0  0  0  0  0  0  0  0  0
   22.2424   -6.6237  -14.8798 O   0  0  0  0  0  0  0  0  0  0  0  0
  2  1  1  1
  3  2  1  0
  4  2  1  0
  4  5  1  1
  6  7  2  0
  6  4  1  0
  9  8  1  6
  9 11  1  0
 10  9  1  0
 11 12  1  6
 12  6  1  0
 13 11  1  0
 14 13  2  0
 15 13  1  0
 16 17  1  1
 16 15  1  0
 17 18  1  0
 18 22  1  0
 19 20  1  0
 19 18  2  0
 20 21  1  0
 21 22  2  0
 23 16  1  0
 24 23  1  0
 25 23  2  0
M  END
$$$$
