WRN.pdb
     RDKit          3D

 34 35  0  0  1  0  0  0  0  0999 V2000
    6.7929  -17.0330   25.9206 N   0  0  0  0  0  0  0  0  0  0  0  0
    7.2486  -15.9351   25.1141 C   0  0  1  0  0  0  0  0  0  0  0  0
    8.4822  -15.3193   25.7238 C   0  0  0  0  0  0  0  0  0  0  0  0
    8.1450  -14.3103   26.7519 C   0  0  0  0  0  0  0  0  0  0  0  0
    8.4982  -14.3154   28.0823 C   0  0  0  0  0  0  0  0  0  0  0  0
    7.9831  -13.2126   28.6466 N   0  0  0  0  0  0  0  0  0  0  0  0
    7.3091  -12.4969   27.7223 C   0  0  0  0  0  0  0  0  0  0  0  0
    6.5996  -11.3107   27.7387 C   0  0  0  0  0  0  0  0  0  0  0  0
    6.0110  -10.8407   26.5773 C   0  0  0  0  0  0  0  0  0  0  0  0
    6.1019  -11.5154   25.3803 C   0  0  0  0  0  0  0  0  0  0  0  0
    6.8041  -12.6886   25.3660 C   0  0  0  0  0  0  0  0  0  0  0  0
    7.4055  -13.1793   26.5285 C   0  0  0  0  0  0  0  0  0  0  0  0
    7.5592  -16.3921   23.7370 C   0  0  0  0  0  0  0  0  0  0  0  0
    7.7229  -17.6143   23.5218 O   0  0  0  0  0  0  0  0  0  0  0  0
    8.3011  -14.5054   14.0808 N   0  0  0  0  0  0  0  0  0  0  0  0
    8.1312  -14.0190   15.3971 C   0  0  0  0  0  0  0  0  0  0  0  0
    7.6450  -12.8305   15.5647 N   0  0  0  0  0  0  0  0  0  0  0  0
    8.4714  -14.7790   16.5387 N   0  0  0  0  0  0  0  0  0  0  0  0
    8.2531  -14.2114   17.8756 C   0  0  0  0  0  0  0  0  0  0  0  0
    8.5090  -15.2647   18.9453 C   0  0  0  0  0  0  0  0  0  0  0  0
    8.0089  -14.8271   20.2857 C   0  0  0  0  0  0  0  0  0  0  0  0
    8.2745  -15.7580   21.4104 C   0  0  2  0  0  0  0  0  0  0  0  0
    7.6729  -15.4629   22.6616 N   0  0  0  0  0  0  0  0  0  0  0  0
    9.7045  -16.2019   21.4885 C   0  0  0  0  0  0  0  0  0  0  0  0
   10.4705  -15.4561   22.1425 O   0  0  0  0  0  0  0  0  0  0  0  0
    7.5166  -12.4022   16.5087 N   0  0  0  0  0  0  0  0  0  0  0  0
   14.0969  -19.3931   21.3770 C   0  0  0  0  0  0  0  0  0  0  0  0
   12.8689  -20.0102   21.0885 O   0  0  0  0  0  0  0  0  0  0  0  0
   12.8803  -21.2773   20.9540 C   0  0  0  0  0  0  0  0  0  0  0  0
   11.5961  -19.3255   20.9341 C   0  0  1  0  0  0  0  0  0  0  0  0
   11.5887  -17.8525   21.1063 N   0  0  0  0  0  0  0  0  0  0  0  0
   10.2213  -17.3644   20.8891 C   0  0  0  0  0  0  0  0  0  0  0  0
   12.4848  -17.1304   20.1549 O   0  0  0  0  0  0  0  0  0  0  0  0
   12.0693  -16.6133   18.9499 O   0  0  0  0  0  0  0  0  0  0  0  0
  2  1  1  1
  2  3  1  0
  4  5  2  0
  4  3  1  0
  6  5  1  0
  7 12  2  0
  7  6  1  0
  8  7  1  0
  9 10  1  0
  9  8  2  0
 10 11  2  0
 11 12  1  0
 12  4  1  0
 13  2  1  0
 13 14  2  0
 16 15  1  0
 16 17  2  0
 18 16  1  0
 18 19  1  0
 19 20  1  0
 20 21  1  0
 22 21  1  6
 22 23  1  0
 22 24  1  0
 23 13  1  0
 24 25  2  0
 24 31  1  0
 27 26  1  0
 28 27  2  0
 29 27  1  0
 30 29  1  1
 31 30  1  0
 32 33  1  0
 32 30  1  0
 34 32  2  0
M  END
$$$$
