WRN.pdb
     RDKit          3D

 34 35  0  0  1  0  0  0  0  0999 V2000
    9.0102  -17.4400   25.4246 N   0  0  0  0  0  0  0  0  0  0  0  0
    7.6158  -17.3563   25.0897 C   0  0  1  0  0  0  0  0  0  0  0  0
    6.9187  -16.3836   26.0065 C   0  0  0  0  0  0  0  0  0  0  0  0
    7.8534  -15.7726   26.9769 C   0  0  0  0  0  0  0  0  0  0  0  0
    8.7544  -16.4153   27.7953 C   0  0  0  0  0  0  0  0  0  0  0  0
    9.3970  -15.4799   28.5107 N   0  0  0  0  0  0  0  0  0  0  0  0
    8.9389  -14.2546   28.1795 C   0  0  0  0  0  0  0  0  0  0  0  0
    9.2297  -12.9655   28.5850 C   0  0  0  0  0  0  0  0  0  0  0  0
    8.5528  -11.8953   28.0258 C   0  0  0  0  0  0  0  0  0  0  0  0
    7.5820  -12.0597   27.0632 C   0  0  0  0  0  0  0  0  0  0  0  0
    7.2957  -13.3356   26.6633 C   0  0  0  0  0  0  0  0  0  0  0  0
    7.9684  -14.4289   27.2162 C   0  0  0  0  0  0  0  0  0  0  0  0
    7.4417  -16.9148   23.6839 C   0  0  0  0  0  0  0  0  0  0  0  0
    6.3034  -16.9638   23.1653 O   0  0  0  0  0  0  0  0  0  0  0  0
    8.3716  -13.1209   16.3479 N   0  0  0  0  0  0  0  0  0  0  0  0
    8.0885  -12.8799   17.7117 C   0  0  0  0  0  0  0  0  0  0  0  0
    8.6814  -11.8944   18.3069 N   0  0  0  0  0  0  0  0  0  0  0  0
    7.1833  -13.6727   18.4524 N   0  0  0  0  0  0  0  0  0  0  0  0
    6.9675  -13.3837   19.8760 C   0  0  0  0  0  0  0  0  0  0  0  0
    7.9638  -14.1570   20.7295 C   0  0  0  0  0  0  0  0  0  0  0  0
    7.6564  -15.6210   20.7520 C   0  0  0  0  0  0  0  0  0  0  0  0
    8.6133  -16.4711   21.5027 C   0  0  2  0  0  0  0  0  0  0  0  0
    8.5472  -16.4380   22.9201 N   0  0  0  0  0  0  0  0  0  0  0  0
   10.0013  -16.4452   20.9365 C   0  0  0  0  0  0  0  0  0  0  0  0
   10.0867  -16.6173   19.6980 O   0  0  0  0  0  0  0  0  0  0  0  0
    8.5772  -11.7088   19.3295 N   0  0  0  0  0  0  0  0  0  0  0  0
   11.9012  -14.7571   19.1855 C   0  0  0  0  0  0  0  0  0  0  0  0
   13.0597  -14.6918   19.9763 O   0  0  0  0  0  0  0  0  0  0  0  0
   13.8814  -13.7533   19.7152 C   0  0  0  0  0  0  0  0  0  0  0  0
   13.3935  -15.5999   21.0609 C   0  0  2  0  0  0  0  0  0  0  0  0
   12.4919  -16.7562   21.2842 N   0  0  0  0  0  0  0  0  0  0  0  0
   11.1744  -16.2494   21.6871 C   0  0  0  0  0  0  0  0  0  0  0  0
   12.9636  -17.6909   22.3489 O   0  0  0  0  0  0  0  0  0  0  0  0
   12.4113  -17.7648   23.6064 O   0  0  0  0  0  0  0  0  0  0  0  0
  2  1  1  1
  2  3  1  0
  4  5  2  0
  4  3  1  0
  6  5  1  0
  7 12  2  0
  7  6  1  0
  8  7  1  0
  9 10  1  0
  9  8  2  0
 10 11  2  0
 11 12  1  0
 12  4  1  0
 13  2  1  0
 13 14  2  0
 16 15  1  0
 16 17  2  0
 18 16  1  0
 18 19  1  0
 19 20  1  0
 20 21  1  0
 22 21  1  6
 22 23  1  0
 22 24  1  0
 23 13  1  0
 24 25  2  0
 24 31  1  0
 27 26  1  0
 28 27  2  0
 29 27  1  0
 30 29  1  6
 31 30  1  0
 32 33  1  0
 32 30  1  0
 34 32  2  0
M  END
$$$$
