WRN.pdb
     RDKit          3D

 34 35  0  0  1  0  0  0  0  0999 V2000
    6.5863  -18.2858   25.5723 N   0  0  0  0  0  0  0  0  0  0  0  0
    7.3018  -17.2659   24.8572 C   0  0  1  0  0  0  0  0  0  0  0  0
    8.0927  -16.4151   25.8181 C   0  0  0  0  0  0  0  0  0  0  0  0
    7.3030  -15.2688   26.3193 C   0  0  0  0  0  0  0  0  0  0  0  0
    6.3477  -15.2752   27.3102 C   0  0  0  0  0  0  0  0  0  0  0  0
    5.8869  -14.0223   27.4425 N   0  0  0  0  0  0  0  0  0  0  0  0
    6.5146  -13.2084   26.5682 C   0  0  0  0  0  0  0  0  0  0  0  0
    6.4431  -11.8603   26.2711 C   0  0  0  0  0  0  0  0  0  0  0  0
    7.2536  -11.3255   25.2846 C   0  0  0  0  0  0  0  0  0  0  0  0
    8.1473  -12.0916   24.5701 C   0  0  0  0  0  0  0  0  0  0  0  0
    8.2167  -13.4249   24.8653 C   0  0  0  0  0  0  0  0  0  0  0  0
    7.4065  -13.9833   25.8581 C   0  0  0  0  0  0  0  0  0  0  0  0
    8.2248  -17.8722   23.8663 C   0  0  0  0  0  0  0  0  0  0  0  0
    8.9025  -18.8720   24.1953 O   0  0  0  0  0  0  0  0  0  0  0  0
    6.5491  -13.8107   18.6884 N   0  0  0  0  0  0  0  0  0  0  0  0
    7.7900  -13.1335   18.6865 C   0  0  0  0  0  0  0  0  0  0  0  0
    7.8045  -11.8582   18.9106 N   0  0  0  0  0  0  0  0  0  0  0  0
    9.0165  -13.7938   18.4494 N   0  0  0  0  0  0  0  0  0  0  0  0
    9.0977  -15.2502   18.6204 C   0  0  0  0  0  0  0  0  0  0  0  0
    9.2541  -15.6016   20.0939 C   0  0  0  0  0  0  0  0  0  0  0  0
    9.3689  -17.0786   20.3029 C   0  0  0  0  0  0  0  0  0  0  0  0
    9.4790  -17.5253   21.7137 C   0  0  2  0  0  0  0  0  0  0  0  0
    8.3494  -17.3345   22.5517 N   0  0  0  0  0  0  0  0  0  0  0  0
   10.7955  -17.1825   22.3440 C   0  0  0  0  0  0  0  0  0  0  0  0
   10.9250  -15.9943   22.7209 O   0  0  0  0  0  0  0  0  0  0  0  0
    8.6853  -11.2967   18.9138 N   0  0  0  0  0  0  0  0  0  0  0  0
   12.3885  -20.4154   25.3852 C   0  0  0  0  0  0  0  0  0  0  0  0
   12.9796  -19.1730   25.1043 O   0  0  0  0  0  0  0  0  0  0  0  0
   12.8830  -18.2745   26.0028 C   0  0  0  0  0  0  0  0  0  0  0  0
   13.6885  -18.8329   23.8818 C   0  0  2  0  0  0  0  0  0  0  0  0
   13.1638  -17.6993   23.0821 N   0  0  0  0  0  0  0  0  0  0  0  0
   11.8595  -18.0834   22.5284 C   0  0  0  0  0  0  0  0  0  0  0  0
   14.0442  -17.3090   21.9409 O   0  0  0  0  0  0  0  0  0  0  0  0
   13.6532  -17.3419   20.6226 O   0  0  0  0  0  0  0  0  0  0  0  0
  2  1  1  1
  2  3  1  0
  4  5  2  0
  4  3  1  0
  6  5  1  0
  7 12  2  0
  7  6  1  0
  8  7  1  0
  9 10  1  0
  9  8  2  0
 10 11  2  0
 11 12  1  0
 12  4  1  0
 13  2  1  0
 13 14  2  0
 16 15  1  0
 16 17  2  0
 18 16  1  0
 18 19  1  0
 19 20  1  0
 20 21  1  0
 22 21  1  6
 22 23  1  0
 22 24  1  0
 23 13  1  0
 24 25  2  0
 24 31  1  0
 27 26  1  0
 28 27  2  0
 29 27  1  0
 30 29  1  1
 31 30  1  0
 32 33  1  0
 32 30  1  0
 34 32  2  0
M  END
$$$$
