WRN.pdb
     RDKit          3D

 34 35  0  0  1  0  0  0  0  0999 V2000
    6.9240  -16.8399   25.5230 N   0  0  0  0  0  0  0  0  0  0  0  0
    7.4114  -15.7519   24.7217 C   0  0  1  0  0  0  0  0  0  0  0  0
    8.5850  -15.0920   25.3998 C   0  0  0  0  0  0  0  0  0  0  0  0
    8.1607  -14.2404   26.5327 C   0  0  0  0  0  0  0  0  0  0  0  0
    8.3536  -14.4709   27.8760 C   0  0  0  0  0  0  0  0  0  0  0  0
    7.8106  -13.4454   28.5492 N   0  0  0  0  0  0  0  0  0  0  0  0
    7.2737  -12.5612   27.6827 C   0  0  0  0  0  0  0  0  0  0  0  0
    6.6053  -11.3580   27.8104 C   0  0  0  0  0  0  0  0  0  0  0  0
    6.1735  -10.6835   26.6813 C   0  0  0  0  0  0  0  0  0  0  0  0
    6.3840  -11.1667   25.4092 C   0  0  0  0  0  0  0  0  0  0  0  0
    7.0454  -12.3569   25.2848 C   0  0  0  0  0  0  0  0  0  0  0  0
    7.4891  -13.0527   26.4130 C   0  0  0  0  0  0  0  0  0  0  0  0
    7.8285  -16.2354   23.3823 C   0  0  0  0  0  0  0  0  0  0  0  0
    8.0681  -17.4534   23.2204 O   0  0  0  0  0  0  0  0  0  0  0  0
    7.7267  -12.9171   14.9441 N   0  0  0  0  0  0  0  0  0  0  0  0
    8.3292  -14.1956   14.9201 C   0  0  0  0  0  0  0  0  0  0  0  0
    8.6841  -14.6963   13.7798 N   0  0  0  0  0  0  0  0  0  0  0  0
    8.5597  -14.9500   16.0924 N   0  0  0  0  0  0  0  0  0  0  0  0
    8.1706  -14.3964   17.3958 C   0  0  0  0  0  0  0  0  0  0  0  0
    8.5564  -15.3554   18.5141 C   0  0  0  0  0  0  0  0  0  0  0  0
    8.0845  -14.8704   19.8485 C   0  0  0  0  0  0  0  0  0  0  0  0
    8.4850  -15.6956   21.0149 C   0  0  2  0  0  0  0  0  0  0  0  0
    7.9591  -15.3364   22.2834 N   0  0  0  0  0  0  0  0  0  0  0  0
    9.9405  -16.0555   21.0159 C   0  0  0  0  0  0  0  0  0  0  0  0
   10.7161  -15.1833   21.4724 O   0  0  0  0  0  0  0  0  0  0  0  0
    9.1553  -15.6246   13.6941 N   0  0  0  0  0  0  0  0  0  0  0  0
   10.7782  -20.5096   22.4616 C   0  0  0  0  0  0  0  0  0  0  0  0
   11.7692  -19.5708   22.1322 O   0  0  0  0  0  0  0  0  0  0  0  0
   12.4874  -19.1337   23.0898 C   0  0  0  0  0  0  0  0  0  0  0  0
   12.0404  -19.0630   20.7976 C   0  0  2  0  0  0  0  0  0  0  0  0
   11.9001  -17.6023   20.5821 N   0  0  0  0  0  0  0  0  0  0  0  0
   10.4702  -17.2712   20.5477 C   0  0  0  0  0  0  0  0  0  0  0  0
   12.5083  -17.1206   19.3062 O   0  0  0  0  0  0  0  0  0  0  0  0
   11.7797  -16.7350   18.2052 O   0  0  0  0  0  0  0  0  0  0  0  0
  2  1  1  1
  2  3  1  0
  4  5  2  0
  4  3  1  0
  6  5  1  0
  7 12  2  0
  7  6  1  0
  8  7  1  0
  9 10  1  0
  9  8  2  0
 10 11  2  0
 11 12  1  0
 12  4  1  0
 13  2  1  0
 13 14  2  0
 16 15  1  0
 16 17  2  0
 18 16  1  0
 18 19  1  0
 19 20  1  0
 20 21  1  0
 22 21  1  6
 22 23  1  0
 22 24  1  0
 23 13  1  0
 24 25  2  0
 24 31  1  0
 27 26  1  0
 28 27  2  0
 29 27  1  0
 30 29  1  1
 31 30  1  0
 32 33  1  0
 32 30  1  0
 34 32  2  0
M  END
$$$$
