WRN.pdb
     RDKit          3D

 34 35  0  0  1  0  0  0  0  0999 V2000
    6.2397  -17.5344   24.6266 N   0  0  0  0  0  0  0  0  0  0  0  0
    7.0318  -16.7906   23.6870 C   0  0  1  0  0  0  0  0  0  0  0  0
    7.9286  -15.8221   24.4152 C   0  0  0  0  0  0  0  0  0  0  0  0
    7.1669  -14.9488   25.3349 C   0  0  0  0  0  0  0  0  0  0  0  0
    6.0081  -15.2504   26.0137 C   0  0  0  0  0  0  0  0  0  0  0  0
    5.6628  -14.1719   26.7330 N   0  0  0  0  0  0  0  0  0  0  0  0
    6.5621  -13.1847   26.5394 C   0  0  0  0  0  0  0  0  0  0  0  0
    6.7047  -11.8932   27.0110 C   0  0  0  0  0  0  0  0  0  0  0  0
    7.7780  -11.1215   26.6002 C   0  0  0  0  0  0  0  0  0  0  0  0
    8.7307  -11.5918   25.7242 C   0  0  0  0  0  0  0  0  0  0  0  0
    8.5880  -12.8695   25.2588 C   0  0  0  0  0  0  0  0  0  0  0  0
    7.5111  -13.6641   25.6621 C   0  0  0  0  0  0  0  0  0  0  0  0
    7.8631  -17.7047   22.8654 C   0  0  0  0  0  0  0  0  0  0  0  0
    8.2435  -18.7912   23.3569 O   0  0  0  0  0  0  0  0  0  0  0  0
    9.5481  -13.9504   16.3747 N   0  0  0  0  0  0  0  0  0  0  0  0
    8.1635  -13.7557   16.5829 C   0  0  0  0  0  0  0  0  0  0  0  0
    7.3429  -14.0365   15.6214 N   0  0  0  0  0  0  0  0  0  0  0  0
    7.6389  -13.2659   17.8001 N   0  0  0  0  0  0  0  0  0  0  0  0
    8.3216  -13.5839   19.0609 C   0  0  0  0  0  0  0  0  0  0  0  0
    7.4835  -14.5508   19.8866 C   0  0  0  0  0  0  0  0  0  0  0  0
    8.1565  -14.9086   21.1740 C   0  0  0  0  0  0  0  0  0  0  0  0
    8.9244  -16.1784   21.1711 C   0  0  2  0  0  0  0  0  0  0  0  0
    8.2321  -17.3640   21.5310 N   0  0  0  0  0  0  0  0  0  0  0  0
   10.2948  -16.0448   21.7645 C   0  0  0  0  0  0  0  0  0  0  0  0
   11.0105  -15.1365   21.2812 O   0  0  0  0  0  0  0  0  0  0  0  0
    6.3078  -13.9321   15.7154 N   0  0  0  0  0  0  0  0  0  0  0  0
   14.7337  -19.2225   24.3204 C   0  0  0  0  0  0  0  0  0  0  0  0
   13.8334  -18.1744   24.5709 O   0  0  0  0  0  0  0  0  0  0  0  0
   14.2215  -17.2630   25.3726 C   0  0  0  0  0  0  0  0  0  0  0  0
   12.5061  -18.0455   23.9927 C   0  0  2  0  0  0  0  0  0  0  0  0
   12.2027  -16.7963   23.2531 N   0  0  0  0  0  0  0  0  0  0  0  0
   10.8094  -16.8527   22.7941 C   0  0  0  0  0  0  0  0  0  0  0  0
   13.0669  -16.5808   22.0546 O   0  0  0  0  0  0  0  0  0  0  0  0
   13.9426  -15.5290   21.9178 O   0  0  0  0  0  0  0  0  0  0  0  0
  2  1  1  1
  2  3  1  0
  4  5  2  0
  4  3  1  0
  6  5  1  0
  7 12  2  0
  7  6  1  0
  8  7  1  0
  9 10  1  0
  9  8  2  0
 10 11  2  0
 11 12  1  0
 12  4  1  0
 13  2  1  0
 13 14  2  0
 16 15  1  0
 16 17  2  0
 18 16  1  0
 18 19  1  0
 19 20  1  0
 20 21  1  0
 22 21  1  1
 22 23  1  0
 22 24  1  0
 23 13  1  0
 24 25  2  0
 24 31  1  0
 27 26  1  0
 28 27  2  0
 29 27  1  0
 30 29  1  1
 31 30  1  0
 32 33  1  0
 32 30  1  0
 34 32  2  0
M  END
$$$$
