WRN.pdb
     RDKit          3D

 34 35  0  0  1  0  0  0  0  0999 V2000
    7.2439  -17.4060   24.3382 N   0  0  0  0  0  0  0  0  0  0  0  0
    8.0575  -16.3868   23.7359 C   0  0  1  0  0  0  0  0  0  0  0  0
    8.6095  -15.4683   24.7962 C   0  0  0  0  0  0  0  0  0  0  0  0
    7.5357  -14.7570   25.5240 C   0  0  0  0  0  0  0  0  0  0  0  0
    6.5066  -15.3083   26.2532 C   0  0  0  0  0  0  0  0  0  0  0  0
    5.7666  -14.3017   26.7422 N   0  0  0  0  0  0  0  0  0  0  0  0
    6.2859  -13.1192   26.3513 C   0  0  0  0  0  0  0  0  0  0  0  0
    5.9474  -11.7943   26.5533 C   0  0  0  0  0  0  0  0  0  0  0  0
    6.7179  -10.7903   25.9924 C   0  0  0  0  0  0  0  0  0  0  0  0
    7.8303  -11.0568   25.2258 C   0  0  0  0  0  0  0  0  0  0  0  0
    8.1637  -12.3680   25.0271 C   0  0  0  0  0  0  0  0  0  0  0  0
    7.3981  -13.3956   25.5853 C   0  0  0  0  0  0  0  0  0  0  0  0
    9.1813  -16.9938   22.9807 C   0  0  0  0  0  0  0  0  0  0  0  0
    9.6945  -18.0561   23.3990 O   0  0  0  0  0  0  0  0  0  0  0  0
    6.6200  -14.0850   19.5026 N   0  0  0  0  0  0  0  0  0  0  0  0
    7.6523  -13.7939   18.5818 C   0  0  0  0  0  0  0  0  0  0  0  0
    7.9813  -12.5570   18.3845 N   0  0  0  0  0  0  0  0  0  0  0  0
    8.3403  -14.8001   17.8672 N   0  0  0  0  0  0  0  0  0  0  0  0
    9.1227  -15.8019   18.6028 C   0  0  0  0  0  0  0  0  0  0  0  0
   10.2763  -15.1348   19.3398 C   0  0  0  0  0  0  0  0  0  0  0  0
   11.2450  -16.1392   19.8794 C   0  0  0  0  0  0  0  0  0  0  0  0
   10.9740  -16.6245   21.2553 C   0  0  2  0  0  0  0  0  0  0  0  0
    9.6815  -16.3867   21.7915 N   0  0  0  0  0  0  0  0  0  0  0  0
   12.1058  -16.3753   22.2064 C   0  0  0  0  0  0  0  0  0  0  0  0
   12.9200  -15.4869   21.8620 O   0  0  0  0  0  0  0  0  0  0  0  0
    8.7338  -12.2736   17.7178 N   0  0  0  0  0  0  0  0  0  0  0  0
   13.9425  -20.5148   25.0093 C   0  0  0  0  0  0  0  0  0  0  0  0
   13.5633  -20.4184   23.6607 O   0  0  0  0  0  0  0  0  0  0  0  0
   13.4350  -21.5127   23.0204 C   0  0  0  0  0  0  0  0  0  0  0  0
   13.3058  -19.1811   22.9428 C   0  0  2  0  0  0  0  0  0  0  0  0
   13.4670  -17.9115   23.6924 N   0  0  0  0  0  0  0  0  0  0  0  0
   12.3040  -17.0581   23.4198 C   0  0  0  0  0  0  0  0  0  0  0  0
   14.6914  -17.1429   23.3188 O   0  0  0  0  0  0  0  0  0  0  0  0
   15.6057  -16.6645   24.2283 O   0  0  0  0  0  0  0  0  0  0  0  0
  2  1  1  1
  2  3  1  0
  4  5  2  0
  4  3  1  0
  6  5  1  0
  7 12  2  0
  7  6  1  0
  8  7  1  0
  9 10  1  0
  9  8  2  0
 10 11  2  0
 11 12  1  0
 12  4  1  0
 13  2  1  0
 13 14  2  0
 16 15  1  0
 16 17  2  0
 18 16  1  0
 18 19  1  0
 19 20  1  0
 20 21  1  0
 22 21  1  6
 22 23  1  0
 22 24  1  0
 23 13  1  0
 24 25  2  0
 24 31  1  0
 27 26  1  0
 28 27  2  0
 29 27  1  0
 30 29  1  1
 31 30  1  0
 32 33  1  0
 32 30  1  0
 34 32  2  0
M  END
$$$$
