WRN.pdb
     RDKit          3D

 34 35  0  0  1  0  0  0  0  0999 V2000
    7.5968  -17.0768   25.5547 N   0  0  0  0  0  0  0  0  0  0  0  0
    7.6570  -15.9587   24.6549 C   0  0  1  0  0  0  0  0  0  0  0  0
    8.8450  -15.0907   24.9832 C   0  0  0  0  0  0  0  0  0  0  0  0
    8.6475  -14.3372   26.2410 C   0  0  0  0  0  0  0  0  0  0  0  0
    9.1680  -14.6231   27.4827 C   0  0  0  0  0  0  0  0  0  0  0  0
    8.7351  -13.6813   28.3345 N   0  0  0  0  0  0  0  0  0  0  0  0
    7.9520  -12.7976   27.6813 C   0  0  0  0  0  0  0  0  0  0  0  0
    7.2566  -11.6598   28.0457 C   0  0  0  0  0  0  0  0  0  0  0  0
    6.5267  -10.9624   27.0986 C   0  0  0  0  0  0  0  0  0  0  0  0
    6.4602  -11.3587   25.7816 C   0  0  0  0  0  0  0  0  0  0  0  0
    7.1487  -12.4843   25.4229 C   0  0  0  0  0  0  0  0  0  0  0  0
    7.8913  -13.2019   26.3649 C   0  0  0  0  0  0  0  0  0  0  0  0
    7.7641  -16.4240   23.2500 C   0  0  0  0  0  0  0  0  0  0  0  0
    8.4584  -17.4332   22.9924 O   0  0  0  0  0  0  0  0  0  0  0  0
    8.4427  -13.2620   15.5120 N   0  0  0  0  0  0  0  0  0  0  0  0
    8.2823  -14.5330   16.1096 C   0  0  0  0  0  0  0  0  0  0  0  0
    9.1358  -15.4657   15.8296 N   0  0  0  0  0  0  0  0  0  0  0  0
    7.2262  -14.8264   17.0013 N   0  0  0  0  0  0  0  0  0  0  0  0
    6.8177  -13.8226   17.9925 C   0  0  0  0  0  0  0  0  0  0  0  0
    7.8782  -13.6885   19.0771 C   0  0  0  0  0  0  0  0  0  0  0  0
    7.3304  -14.0107   20.4316 C   0  0  0  0  0  0  0  0  0  0  0  0
    7.7071  -15.3359   20.9828 C   0  0  2  0  0  0  0  0  0  0  0  0
    7.0903  -15.7408   22.1954 N   0  0  0  0  0  0  0  0  0  0  0  0
    9.1774  -15.6173   20.8999 C   0  0  0  0  0  0  0  0  0  0  0  0
    9.9273  -14.7420   21.3923 O   0  0  0  0  0  0  0  0  0  0  0  0
    9.8630  -15.3597   15.0873 N   0  0  0  0  0  0  0  0  0  0  0  0
   13.8089  -18.7117   22.0113 C   0  0  0  0  0  0  0  0  0  0  0  0
   13.2471  -17.6183   21.3325 O   0  0  0  0  0  0  0  0  0  0  0  0
   14.0380  -16.9149   20.6227 C   0  0  0  0  0  0  0  0  0  0  0  0
   11.8475  -17.2285   21.3727 C   0  0  2  0  0  0  0  0  0  0  0  0
   11.1863  -16.9261   20.0800 N   0  0  0  0  0  0  0  0  0  0  0  0
    9.7468  -16.7645   20.3190 C   0  0  0  0  0  0  0  0  0  0  0  0
   11.3584  -17.9945   19.0512 O   0  0  0  0  0  0  0  0  0  0  0  0
   10.3168  -18.6976   18.4918 O   0  0  0  0  0  0  0  0  0  0  0  0
  2  1  1  1
  2  3  1  0
  4  5  2  0
  4  3  1  0
  6  5  1  0
  7 12  2  0
  7  6  1  0
  8  7  1  0
  9 10  1  0
  9  8  2  0
 10 11  2  0
 11 12  1  0
 12  4  1  0
 13  2  1  0
 13 14  2  0
 16 15  1  0
 16 17  2  0
 18 16  1  0
 18 19  1  0
 19 20  1  0
 20 21  1  0
 22 21  1  1
 22 23  1  0
 22 24  1  0
 23 13  1  0
 24 25  2  0
 24 31  1  0
 27 26  1  0
 28 27  2  0
 29 27  1  0
 30 29  1  1
 31 30  1  0
 32 33  1  0
 32 30  1  0
 34 32  2  0
M  END
$$$$
