WRN.pdb
     RDKit          3D

 34 35  0  0  1  0  0  0  0  0999 V2000
    9.5217  -15.2574   24.6289 N   0  0  0  0  0  0  0  0  0  0  0  0
    8.8357  -16.5172   24.7051 C   0  0  1  0  0  0  0  0  0  0  0  0
    7.9270  -16.5423   25.9077 C   0  0  0  0  0  0  0  0  0  0  0  0
    7.7097  -15.1888   26.4639 C   0  0  0  0  0  0  0  0  0  0  0  0
    6.6580  -14.3364   26.2147 C   0  0  0  0  0  0  0  0  0  0  0  0
    6.8610  -13.2173   26.9260 N   0  0  0  0  0  0  0  0  0  0  0  0
    8.0101  -13.3210   27.6258 C   0  0  0  0  0  0  0  0  0  0  0  0
    8.6939  -12.4971   28.5000 C   0  0  0  0  0  0  0  0  0  0  0  0
    9.8856  -12.9219   29.0619 C   0  0  0  0  0  0  0  0  0  0  0  0
   10.4328  -14.1545   28.7837 C   0  0  0  0  0  0  0  0  0  0  0  0
    9.7550  -14.9682   27.9188 C   0  0  0  0  0  0  0  0  0  0  0  0
    8.5503  -14.5569   27.3415 C   0  0  0  0  0  0  0  0  0  0  0  0
    8.0323  -16.7495   23.4795 C   0  0  0  0  0  0  0  0  0  0  0  0
    7.6755  -17.9153   23.1954 O   0  0  0  0  0  0  0  0  0  0  0  0
    7.1604  -14.3451   14.8908 N   0  0  0  0  0  0  0  0  0  0  0  0
    7.7014  -13.8562   16.1019 C   0  0  0  0  0  0  0  0  0  0  0  0
    8.9872  -13.7488   16.2120 N   0  0  0  0  0  0  0  0  0  0  0  0
    6.8938  -13.4797   17.1985 N   0  0  0  0  0  0  0  0  0  0  0  0
    7.5294  -13.0016   18.4331 C   0  0  0  0  0  0  0  0  0  0  0  0
    8.2032  -14.1563   19.1624 C   0  0  0  0  0  0  0  0  0  0  0  0
    7.7360  -14.2658   20.5794 C   0  0  0  0  0  0  0  0  0  0  0  0
    8.1390  -15.4991   21.2996 C   0  0  2  0  0  0  0  0  0  0  0  0
    7.6631  -15.6688   22.6259 N   0  0  0  0  0  0  0  0  0  0  0  0
    9.5797  -15.8611   21.0966 C   0  0  0  0  0  0  0  0  0  0  0  0
    9.9459  -15.9880   19.9047 O   0  0  0  0  0  0  0  0  0  0  0  0
    9.4506  -13.3886   17.0760 N   0  0  0  0  0  0  0  0  0  0  0  0
   14.8726  -16.6361   21.9680 C   0  0  0  0  0  0  0  0  0  0  0  0
   14.1938  -15.6439   22.6937 O   0  0  0  0  0  0  0  0  0  0  0  0
   14.9088  -14.8481   23.3862 C   0  0  0  0  0  0  0  0  0  0  0  0
   12.7532  -15.4520   22.7171 C   0  0  1  0  0  0  0  0  0  0  0  0
   11.9292  -16.3724   21.8963 N   0  0  0  0  0  0  0  0  0  0  0  0
   10.5130  -16.0635   22.1290 C   0  0  0  0  0  0  0  0  0  0  0  0
   12.1376  -17.8157   22.2173 O   0  0  0  0  0  0  0  0  0  0  0  0
   11.1477  -18.6504   22.6813 O   0  0  0  0  0  0  0  0  0  0  0  0
  2  1  1  6
  2  3  1  0
  4  5  2  0
  4  3  1  0
  6  5  1  0
  7 12  2  0
  7  6  1  0
  8  7  1  0
  9 10  1  0
  9  8  2  0
 10 11  2  0
 11 12  1  0
 12  4  1  0
 13  2  1  0
 13 14  2  0
 16 15  1  0
 16 17  2  0
 18 16  1  0
 18 19  1  0
 19 20  1  0
 20 21  1  0
 22 21  1  1
 22 23  1  0
 22 24  1  0
 23 13  1  0
 24 25  2  0
 24 31  1  0
 27 26  1  0
 28 27  2  0
 29 27  1  0
 30 29  1  6
 31 30  1  0
 32 33  1  0
 32 30  1  0
 34 32  2  0
M  END
$$$$
