AST.pdb
     RDKit          3D

 19 18  0  0  1  0  0  0  0  0999 V2000
   19.3492  -14.1476  -17.3789 C   0  0  0  0  0  0  0  0  0  0  0  0
   19.4866  -12.7349  -17.9053 C   0  0  2  0  0  0  0  0  0  0  0  0
   20.6007  -12.7102  -18.8278 N   0  0  0  0  0  0  0  0  0  0  0  0
   19.6857  -11.8140  -16.7653 C   0  0  0  0  0  0  0  0  0  0  0  0
   18.8201  -11.8328  -15.8532 O   0  0  0  0  0  0  0  0  0  0  0  0
   22.3567   -8.9410  -14.0435 O   0  0  0  0  0  0  0  0  0  0  0  0
   22.2936   -9.8568  -15.0671 C   0  0  0  0  0  0  0  0  0  0  0  0
   20.8461   -9.9776  -15.5323 C   0  0  2  0  0  0  0  0  0  0  0  0
   20.7673  -10.9240  -16.6288 N   0  0  0  0  0  0  0  0  0  0  0  0
   20.3391   -8.6626  -16.0211 C   0  0  0  0  0  0  0  0  0  0  0  0
   20.6585   -8.2010  -17.1519 O   0  0  0  0  0  0  0  0  0  0  0  0
   17.2580   -4.8261  -15.1728 C   0  0  0  0  0  0  0  0  0  0  0  0
   17.8054   -6.1747  -14.8441 C   0  0  1  0  0  0  0  0  0  0  0  0
   16.8229   -7.1512  -14.9950 O   0  0  0  0  0  0  0  0  0  0  0  0
   19.0115   -6.5517  -15.6620 C   0  0  2  0  0  0  0  0  0  0  0  0
   19.4664   -7.8581  -15.2354 N   0  0  0  0  0  0  0  0  0  0  0  0
   20.1187   -5.5933  -15.5356 C   0  0  0  0  0  0  0  0  0  0  0  0
   21.0441   -5.6678  -14.5094 O   0  0  0  0  0  0  0  0  0  0  0  0
   20.2436   -4.6730  -16.3752 O   0  0  0  0  0  0  0  0  0  0  0  0
  2  1  1  1
  2  3  1  0
  4  5  2  0
  4  2  1  0
  6  7  1  0
  8  7  1  6
  8  9  1  0
  9  4  1  0
 10  8  1  0
 10 11  2  0
 13 12  1  6
 13 14  1  0
 15 16  1  1
 15 13  1  0
 16 10  1  0
 17 15  1  0
 18 17  1  0
 19 17  2  0
M  END
$$$$
