AST.pdb
     RDKit          3D

 19 18  0  0  1  0  0  0  0  0999 V2000
   18.3130  -12.1386  -16.5235 C   0  0  0  0  0  0  0  0  0  0  0  0
   18.6918  -10.7656  -17.0366 C   0  0  2  0  0  0  0  0  0  0  0  0
   19.5512  -10.9419  -18.1869 N   0  0  0  0  0  0  0  0  0  0  0  0
   19.3590  -10.0139  -15.9517 C   0  0  0  0  0  0  0  0  0  0  0  0
   18.6840   -9.7765  -14.9174 O   0  0  0  0  0  0  0  0  0  0  0  0
   23.4157   -9.5626  -15.6907 O   0  0  0  0  0  0  0  0  0  0  0  0
   22.6439   -9.5830  -14.5530 C   0  0  0  0  0  0  0  0  0  0  0  0
   21.3091   -8.9077  -14.8504 C   0  0  2  0  0  0  0  0  0  0  0  0
   20.6864   -9.5482  -15.9933 N   0  0  0  0  0  0  0  0  0  0  0  0
   21.5106   -7.4673  -15.1825 C   0  0  0  0  0  0  0  0  0  0  0  0
   21.8932   -7.0916  -16.3253 O   0  0  0  0  0  0  0  0  0  0  0  0
   19.2444   -4.9413  -15.7275 C   0  0  0  0  0  0  0  0  0  0  0  0
   20.0849   -4.4002  -14.6197 C   0  0  1  0  0  0  0  0  0  0  0  0
   19.4314   -4.5401  -13.3970 O   0  0  0  0  0  0  0  0  0  0  0  0
   21.4472   -5.0344  -14.5313 C   0  0  2  0  0  0  0  0  0  0  0  0
   21.2813   -6.4395  -14.2249 N   0  0  0  0  0  0  0  0  0  0  0  0
   22.3066   -4.4189  -13.5102 C   0  0  0  0  0  0  0  0  0  0  0  0
   22.8122   -3.1380  -13.6472 O   0  0  0  0  0  0  0  0  0  0  0  0
   22.6011   -5.0603  -12.4760 O   0  0  0  0  0  0  0  0  0  0  0  0
  2  1  1  1
  2  3  1  0
  4  5  2  0
  4  2  1  0
  6  7  1  0
  8  7  1  6
  8  9  1  0
  9  4  1  0
 10  8  1  0
 10 11  2  0
 13 12  1  6
 13 14  1  0
 15 16  1  1
 15 13  1  0
 16 10  1  0
 17 15  1  0
 18 17  1  0
 19 17  2  0
M  END
$$$$
