AST.pdb
     RDKit          3D

 19 18  0  0  1  0  0  0  0  0999 V2000
   18.7119  -11.3169  -16.9128 C   0  0  0  0  0  0  0  0  0  0  0  0
   18.9582   -9.9025  -17.3934 C   0  0  2  0  0  0  0  0  0  0  0  0
   19.2756   -9.9606  -18.8036 N   0  0  0  0  0  0  0  0  0  0  0  0
   20.0551   -9.3087  -16.5987 C   0  0  0  0  0  0  0  0  0  0  0  0
   19.8810   -9.2177  -15.3565 O   0  0  0  0  0  0  0  0  0  0  0  0
   24.0235   -9.8296  -16.8865 O   0  0  0  0  0  0  0  0  0  0  0  0
   23.6729   -8.5024  -16.9634 C   0  0  0  0  0  0  0  0  0  0  0  0
   22.3221   -8.3088  -16.2821 C   0  0  2  0  0  0  0  0  0  0  0  0
   21.2718   -8.8412  -17.1293 N   0  0  0  0  0  0  0  0  0  0  0  0
   22.0466   -6.8593  -16.0622 C   0  0  0  0  0  0  0  0  0  0  0  0
   22.0869   -6.0203  -17.0046 O   0  0  0  0  0  0  0  0  0  0  0  0
   19.0048   -5.3115  -15.3800 C   0  0  0  0  0  0  0  0  0  0  0  0
   19.8777   -4.9138  -14.2371 C   0  0  1  0  0  0  0  0  0  0  0  0
   19.6190   -5.7109  -13.1239 O   0  0  0  0  0  0  0  0  0  0  0  0
   21.3481   -4.9651  -14.5550 C   0  0  2  0  0  0  0  0  0  0  0  0
   21.7232   -6.3460  -14.7745 N   0  0  0  0  0  0  0  0  0  0  0  0
   22.1903   -4.4028  -13.4898 C   0  0  0  0  0  0  0  0  0  0  0  0
   22.9568   -5.2003  -12.6582 O   0  0  0  0  0  0  0  0  0  0  0  0
   22.2273   -3.1636  -13.3149 O   0  0  0  0  0  0  0  0  0  0  0  0
  2  1  1  1
  2  3  1  0
  4  5  2  0
  4  2  1  0
  6  7  1  0
  8  7  1  6
  8  9  1  0
  9  4  1  0
 10  8  1  0
 10 11  2  0
 13 12  1  6
 13 14  1  0
 15 16  1  1
 15 13  1  0
 16 10  1  0
 17 15  1  0
 18 17  1  0
 19 17  2  0
M  END
$$$$
