AST.pdb
     RDKit          3D

 19 18  0  0  1  0  0  0  0  0999 V2000
   17.4049   -9.3296  -18.3840 C   0  0  0  0  0  0  0  0  0  0  0  0
   18.7529   -9.8460  -17.9277 C   0  0  2  0  0  0  0  0  0  0  0  0
   18.6290  -11.2684  -17.6950 N   0  0  0  0  0  0  0  0  0  0  0  0
   19.1605   -9.1147  -16.7086 C   0  0  0  0  0  0  0  0  0  0  0  0
   18.2438   -8.6793  -15.9657 O   0  0  0  0  0  0  0  0  0  0  0  0
   21.2117   -9.8055  -13.3643 O   0  0  0  0  0  0  0  0  0  0  0  0
   21.8540   -9.0508  -14.3174 C   0  0  0  0  0  0  0  0  0  0  0  0
   20.8189   -8.2201  -15.0688 C   0  0  2  0  0  0  0  0  0  0  0  0
   20.4920   -8.8724  -16.3225 N   0  0  0  0  0  0  0  0  0  0  0  0
   21.3582   -6.8648  -15.3813 C   0  0  0  0  0  0  0  0  0  0  0  0
   22.1995   -6.6760  -16.3034 O   0  0  0  0  0  0  0  0  0  0  0  0
   19.6380   -3.7640  -16.4692 C   0  0  0  0  0  0  0  0  0  0  0  0
   20.3582   -3.4537  -15.1998 C   0  0  1  0  0  0  0  0  0  0  0  0
   19.4733   -3.4519  -14.1235 O   0  0  0  0  0  0  0  0  0  0  0  0
   21.4962   -4.3944  -14.9068 C   0  0  2  0  0  0  0  0  0  0  0  0
   20.9508   -5.7113  -14.6537 N   0  0  0  0  0  0  0  0  0  0  0  0
   22.3061   -3.9805  -13.7522 C   0  0  0  0  0  0  0  0  0  0  0  0
   22.2966   -4.6786  -12.5574 O   0  0  0  0  0  0  0  0  0  0  0  0
   23.0343   -2.9654  -13.8350 O   0  0  0  0  0  0  0  0  0  0  0  0
  2  1  1  1
  2  3  1  0
  4  5  2  0
  4  2  1  0
  6  7  1  0
  8  7  1  6
  8  9  1  0
  9  4  1  0
 10  8  1  0
 10 11  2  0
 13 12  1  6
 13 14  1  0
 15 16  1  1
 15 13  1  0
 16 10  1  0
 17 15  1  0
 18 17  1  0
 19 17  2  0
M  END
$$$$
