AST.pdb
     RDKit          3D

 19 18  0  0  1  0  0  0  0  0999 V2000
   15.9511  -12.5093  -16.6358 C   0  0  0  0  0  0  0  0  0  0  0  0
   17.3845  -12.1105  -16.3557 C   0  0  2  0  0  0  0  0  0  0  0  0
   17.7818  -12.7254  -15.1080 N   0  0  0  0  0  0  0  0  0  0  0  0
   17.4717  -10.6351  -16.3031 C   0  0  0  0  0  0  0  0  0  0  0  0
   16.5731   -9.9846  -16.8956 O   0  0  0  0  0  0  0  0  0  0  0  0
   17.2551   -6.6814  -14.5684 O   0  0  0  0  0  0  0  0  0  0  0  0
   17.1709   -8.0251  -14.8475 C   0  0  0  0  0  0  0  0  0  0  0  0
   18.4512   -8.4640  -15.5506 C   0  0  2  0  0  0  0  0  0  0  0  0
   18.4816   -9.9114  -15.6421 N   0  0  0  0  0  0  0  0  0  0  0  0
   19.6512   -8.0256  -14.7804 C   0  0  0  0  0  0  0  0  0  0  0  0
   19.9761   -8.5629  -13.6852 O   0  0  0  0  0  0  0  0  0  0  0  0
   23.2273   -8.0031  -16.0634 C   0  0  0  0  0  0  0  0  0  0  0  0
   22.8372   -6.6342  -15.6158 C   0  0  1  0  0  0  0  0  0  0  0  0
   22.4551   -5.8540  -16.7051 O   0  0  0  0  0  0  0  0  0  0  0  0
   21.7375   -6.6264  -14.5880 C   0  0  2  0  0  0  0  0  0  0  0  0
   20.4942   -6.9757  -15.2421 N   0  0  0  0  0  0  0  0  0  0  0  0
   21.5795   -5.3269  -13.9197 C   0  0  0  0  0  0  0  0  0  0  0  0
   22.4658   -4.8822  -12.9544 O   0  0  0  0  0  0  0  0  0  0  0  0
   20.6170   -4.5852  -14.2215 O   0  0  0  0  0  0  0  0  0  0  0  0
  2  1  1  1
  2  3  1  0
  4  5  2  0
  4  2  1  0
  6  7  1  0
  8  7  1  1
  8  9  1  0
  9  4  1  0
 10  8  1  0
 10 11  2  0
 13 12  1  6
 13 14  1  0
 15 16  1  6
 15 13  1  0
 16 10  1  0
 17 15  1  0
 18 17  1  0
 19 17  2  0
M  END
$$$$
