AST.pdb
     RDKit          3D

 19 18  0  0  1  0  0  0  0  0999 V2000
   19.8651  -10.8436  -18.5551 C   0  0  0  0  0  0  0  0  0  0  0  0
   19.5163  -11.2742  -17.1462 C   0  0  2  0  0  0  0  0  0  0  0  0
   18.2722  -12.0107  -17.2012 N   0  0  0  0  0  0  0  0  0  0  0  0
   19.4168  -10.0744  -16.2873 C   0  0  0  0  0  0  0  0  0  0  0  0
   18.7019   -9.1271  -16.7035 O   0  0  0  0  0  0  0  0  0  0  0  0
   19.3564   -8.1955  -11.9356 O   0  0  0  0  0  0  0  0  0  0  0  0
   19.5230   -9.2814  -12.7623 C   0  0  0  0  0  0  0  0  0  0  0  0
   19.7887   -8.7858  -14.1800 C   0  0  2  0  0  0  0  0  0  0  0  0
   20.0605   -9.9176  -15.0456 N   0  0  0  0  0  0  0  0  0  0  0  0
   20.9791   -7.8872  -14.2088 C   0  0  0  0  0  0  0  0  0  0  0  0
   22.1581   -8.3381  -14.1901 O   0  0  0  0  0  0  0  0  0  0  0  0
   20.8437   -4.3072  -16.1859 C   0  0  0  0  0  0  0  0  0  0  0  0
   22.0643   -5.0513  -15.7583 C   0  0  1  0  0  0  0  0  0  0  0  0
   23.1959   -4.2483  -15.8848 O   0  0  0  0  0  0  0  0  0  0  0  0
   21.9852   -5.5819  -14.3519 C   0  0  2  0  0  0  0  0  0  0  0  0
   20.8465   -6.4709  -14.2591 N   0  0  0  0  0  0  0  0  0  0  0  0
   21.8511   -4.5233  -13.3410 C   0  0  0  0  0  0  0  0  0  0  0  0
   22.8861   -3.6547  -13.0420 O   0  0  0  0  0  0  0  0  0  0  0  0
   20.7720   -4.3888  -12.7206 O   0  0  0  0  0  0  0  0  0  0  0  0
  2  1  1  6
  2  3  1  0
  4  5  2  0
  4  2  1  0
  6  7  1  0
  8  7  1  1
  8  9  1  0
  9  4  1  0
 10  8  1  0
 10 11  2  0
 13 12  1  1
 13 14  1  0
 15 16  1  6
 15 13  1  0
 16 10  1  0
 17 15  1  0
 18 17  1  0
 19 17  2  0
M  END
$$$$
