AST.pdb
     RDKit          3D

 19 18  0  0  1  0  0  0  0  0999 V2000
   11.8651  -11.9003  -11.2796 C   0  0  0  0  0  0  0  0  0  0  0  0
   13.2315  -12.2993  -11.7952 C   0  0  2  0  0  0  0  0  0  0  0  0
   13.4078  -13.7125  -11.5408 N   0  0  0  0  0  0  0  0  0  0  0  0
   14.2592  -11.4783  -11.1193 C   0  0  0  0  0  0  0  0  0  0  0  0
   14.4942  -11.7323   -9.9101 O   0  0  0  0  0  0  0  0  0  0  0  0
   16.9876   -9.1035  -13.0668 O   0  0  0  0  0  0  0  0  0  0  0  0
   17.2775   -9.6290  -11.8298 C   0  0  0  0  0  0  0  0  0  0  0  0
   15.9955   -9.6862  -11.0055 C   0  0  2  0  0  0  0  0  0  0  0  0
   14.9885  -10.4400  -11.7280 N   0  0  0  0  0  0  0  0  0  0  0  0
   15.4614   -8.3138  -10.7674 C   0  0  0  0  0  0  0  0  0  0  0  0
   14.7682   -7.7069  -11.6304 O   0  0  0  0  0  0  0  0  0  0  0  0
   15.5250   -6.7572   -6.8608 C   0  0  0  0  0  0  0  0  0  0  0  0
   14.6116   -6.2407   -7.9216 C   0  0  1  0  0  0  0  0  0  0  0  0
   14.2102   -4.9387   -7.6298 O   0  0  0  0  0  0  0  0  0  0  0  0
   15.2089   -6.2795   -9.3028 C   0  0  2  0  0  0  0  0  0  0  0  0
   15.7065   -7.6160   -9.5512 N   0  0  0  0  0  0  0  0  0  0  0  0
   16.3049   -5.3176   -9.4864 C   0  0  0  0  0  0  0  0  0  0  0  0
   16.0739   -3.9767   -9.7386 O   0  0  0  0  0  0  0  0  0  0  0  0
   17.4927   -5.7071   -9.4155 O   0  0  0  0  0  0  0  0  0  0  0  0
  2  1  1  1
  2  3  1  0
  4  5  2  0
  4  2  1  0
  6  7  1  0
  8  7  1  6
  8  9  1  0
  9  4  1  0
 10  8  1  0
 10 11  2  0
 13 12  1  1
 13 14  1  0
 15 16  1  1
 15 13  1  0
 16 10  1  0
 17 15  1  0
 18 17  1  0
 19 17  2  0
M  END
$$$$
