NKQ.pdb
     RDKit          3D

 27 26  0  0  1  0  0  0  0  0999 V2000
   28.8805  -27.5537  -16.7964 N   0  0  0  0  0  0  0  0  0  0  0  0
   28.3937  -26.3126  -17.2938 C   0  0  0  0  0  0  0  0  0  0  0  0
   28.3950  -26.1374  -18.5321 O   0  0  0  0  0  0  0  0  0  0  0  0
   27.8961  -25.2483  -16.3895 C   0  0  0  0  0  0  0  0  0  0  0  0
   28.6114  -23.9780  -16.7265 C   0  0  2  0  0  0  0  0  0  0  0  0
   30.0108  -24.1448  -16.3924 N   0  0  0  0  0  0  0  0  0  0  0  0
   28.0881  -22.7910  -16.0519 C   0  0  0  0  0  0  0  0  0  0  0  0
   28.4047  -22.6054  -14.8497 O   0  0  0  0  0  0  0  0  0  0  0  0
   27.2502  -21.8277  -16.6414 N   0  0  0  0  0  0  0  0  0  0  0  0
   26.7752  -20.6232  -15.9484 C   0  0  1  0  0  0  0  0  0  0  0  0
   27.1316  -19.4147  -16.7484 C   0  0  0  0  0  0  0  0  0  0  0  0
   26.5638  -18.1091  -16.3020 C   0  0  0  0  0  0  0  0  0  0  0  0
   27.0092  -17.0277  -17.2580 C   0  0  0  0  0  0  0  0  0  0  0  0
   26.5528  -15.6591  -16.7975 C   0  0  0  0  0  0  0  0  0  0  0  0
   26.9762  -14.7196  -17.8221 N   0  0  0  0  0  0  0  0  0  0  0  0
   25.3174  -20.8178  -15.7438 C   0  0  0  0  0  0  0  0  0  0  0  0
   24.6667  -21.4024  -16.6735 O   0  0  0  0  0  0  0  0  0  0  0  0
   22.0696  -20.1900  -10.3711 N   0  0  0  0  0  0  0  0  0  0  0  0
   21.0547  -20.4231  -11.3252 C   0  0  0  0  0  0  0  0  0  0  0  0
   19.8430  -20.4705  -10.9268 O   0  0  0  0  0  0  0  0  0  0  0  0
   21.3304  -20.6069  -12.7600 C   0  0  0  0  0  0  0  0  0  0  0  0
   22.7612  -20.5009  -13.1128 C   0  0  0  0  0  0  0  0  0  0  0  0
   23.1422  -20.6696  -14.5494 C   0  0  2  0  0  0  0  0  0  0  0  0
   24.6002  -20.4079  -14.6017 N   0  0  0  0  0  0  0  0  0  0  0  0
   22.4651  -19.8384  -15.5268 C   0  0  0  0  0  0  0  0  0  0  0  0
   21.5517  -20.3225  -16.2628 O   0  0  0  0  0  0  0  0  0  0  0  0
   22.7342  -18.4792  -15.7385 O   0  0  0  0  0  0  0  0  0  0  0  0
  2  1  1  0
  3  2  2  0
  4  2  1  0
  4  5  1  0
  5  6  1  1
  7  5  1  0
  7  8  2  0
  9  7  1  0
 10  9  1  0
 10 11  1  6
 12 11  1  0
 12 13  1  0
 13 14  1  0
 14 15  1  0
 16 10  1  0
 17 16  2  0
 19 18  1  0
 20 19  2  0
 21 19  1  0
 22 21  1  0
 23 22  1  1
 23 24  1  0
 24 16  1  0
 25 23  1  0
 26 25  2  0
 27 25  1  0
M  END
$$$$
