NKQ.pdb
     RDKit          3D

 27 26  0  0  1  0  0  0  0  0999 V2000
   13.3071  -12.7056  -12.0805 N   0  0  0  0  0  0  0  0  0  0  0  0
   12.9601  -12.0518  -10.8652 C   0  0  0  0  0  0  0  0  0  0  0  0
   11.8246  -12.2683  -10.3878 O   0  0  0  0  0  0  0  0  0  0  0  0
   13.9005  -11.1395  -10.1713 C   0  0  0  0  0  0  0  0  0  0  0  0
   15.1696  -11.0882  -10.9623 C   0  0  2  0  0  0  0  0  0  0  0  0
   15.8321  -12.3702  -10.8377 N   0  0  0  0  0  0  0  0  0  0  0  0
   16.0894  -10.0242  -10.5632 C   0  0  0  0  0  0  0  0  0  0  0  0
   16.7522  -10.1800   -9.5065 O   0  0  0  0  0  0  0  0  0  0  0  0
   16.2979   -8.8264  -11.2698 N   0  0  0  0  0  0  0  0  0  0  0  0
   17.2979   -7.8187  -10.8939 C   0  0  1  0  0  0  0  0  0  0  0  0
   18.3639   -7.7611  -11.9368 C   0  0  0  0  0  0  0  0  0  0  0  0
   19.4149   -6.7134  -11.7810 C   0  0  0  0  0  0  0  0  0  0  0  0
   20.3115   -6.7333  -12.9965 C   0  0  0  0  0  0  0  0  0  0  0  0
   21.4617   -5.7587  -12.8522 C   0  0  0  0  0  0  0  0  0  0  0  0
   20.9022   -4.4322  -13.0499 N   0  0  0  0  0  0  0  0  0  0  0  0
   16.5493   -6.5498  -10.7083 C   0  0  0  0  0  0  0  0  0  0  0  0
   15.7631   -6.1890  -11.6470 O   0  0  0  0  0  0  0  0  0  0  0  0
   13.6727   -4.5935   -5.7982 N   0  0  0  0  0  0  0  0  0  0  0  0
   13.5399   -3.4658   -6.6380 C   0  0  0  0  0  0  0  0  0  0  0  0
   12.7941   -2.5040   -6.2532 O   0  0  0  0  0  0  0  0  0  0  0  0
   14.2283   -3.3461   -7.9341 C   0  0  0  0  0  0  0  0  0  0  0  0
   15.0735   -4.5098   -8.2724 C   0  0  0  0  0  0  0  0  0  0  0  0
   15.8478   -4.4642   -9.5514 C   0  0  2  0  0  0  0  0  0  0  0  0
   16.6401   -5.7166   -9.5750 N   0  0  0  0  0  0  0  0  0  0  0  0
   16.7270   -3.3302   -9.7654 C   0  0  0  0  0  0  0  0  0  0  0  0
   16.2501   -2.1637   -9.9146 O   0  0  0  0  0  0  0  0  0  0  0  0
   18.1256   -3.4063   -9.8168 O   0  0  0  0  0  0  0  0  0  0  0  0
  2  1  1  0
  3  2  2  0
  4  2  1  0
  4  5  1  0
  5  6  1  1
  7  5  1  0
  7  8  2  0
  9  7  1  0
 10  9  1  0
 10 11  1  6
 12 11  1  0
 12 13  1  0
 13 14  1  0
 14 15  1  0
 16 10  1  0
 17 16  2  0
 19 18  1  0
 20 19  2  0
 21 19  1  0
 22 21  1  0
 23 22  1  1
 23 24  1  0
 24 16  1  0
 25 23  1  0
 26 25  2  0
 27 25  1  0
M  END
$$$$
