NKQ.pdb
     RDKit          3D

 27 26  0  0  1  0  0  0  0  0999 V2000
   25.5072  -35.7310    1.4785 N   0  0  0  0  0  0  0  0  0  0  0  0
   25.9802  -34.4942    1.9996 C   0  0  0  0  0  0  0  0  0  0  0  0
   25.6755  -33.4467    1.3880 O   0  0  0  0  0  0  0  0  0  0  0  0
   26.8086  -34.4281    3.2273 C   0  0  0  0  0  0  0  0  0  0  0  0
   26.4736  -33.1604    3.9482 C   0  0  2  0  0  0  0  0  0  0  0  0
   26.9895  -32.0502    3.1741 N   0  0  0  0  0  0  0  0  0  0  0  0
   26.9920  -33.0846    5.3131 C   0  0  0  0  0  0  0  0  0  0  0  0
   26.2941  -33.5695    6.2393 O   0  0  0  0  0  0  0  0  0  0  0  0
   28.2205  -32.5081    5.6821 N   0  0  0  0  0  0  0  0  0  0  0  0
   28.7302  -32.4811    7.0592 C   0  0  1  0  0  0  0  0  0  0  0  0
   30.1796  -32.1254    7.0472 C   0  0  0  0  0  0  0  0  0  0  0  0
   30.8850  -32.0929    8.3617 C   0  0  0  0  0  0  0  0  0  0  0  0
   32.3255  -31.6985    8.1358 C   0  0  0  0  0  0  0  0  0  0  0  0
   33.1079  -31.6926    9.4326 C   0  0  0  0  0  0  0  0  0  0  0  0
   34.4783  -31.3589    9.0829 N   0  0  0  0  0  0  0  0  0  0  0  0
   27.8674  -31.5228    7.7954 C   0  0  0  0  0  0  0  0  0  0  0  0
   27.5836  -30.4220    7.2146 O   0  0  0  0  0  0  0  0  0  0  0  0
   22.2919  -28.8996    9.6477 N   0  0  0  0  0  0  0  0  0  0  0  0
   22.9135  -30.1575    9.8088 C   0  0  0  0  0  0  0  0  0  0  0  0
   22.3621  -31.1815    9.2826 O   0  0  0  0  0  0  0  0  0  0  0  0
   24.1726  -30.3404   10.5500 C   0  0  0  0  0  0  0  0  0  0  0  0
   25.1670  -31.1744    9.8438 C   0  0  0  0  0  0  0  0  0  0  0  0
   26.5616  -30.6478    9.7214 C   0  0  2  0  0  0  0  0  0  0  0  0
   27.3378  -31.7378    9.0838 N   0  0  0  0  0  0  0  0  0  0  0  0
   27.2298  -30.2241   10.9374 C   0  0  0  0  0  0  0  0  0  0  0  0
   26.9934  -29.0826   11.4389 O   0  0  0  0  0  0  0  0  0  0  0  0
   28.1526  -31.0015   11.6506 O   0  0  0  0  0  0  0  0  0  0  0  0
  2  1  1  0
  3  2  2  0
  4  2  1  0
  4  5  1  0
  5  6  1  6
  7  5  1  0
  7  8  2  0
  9  7  1  0
 10  9  1  0
 10 11  1  6
 12 11  1  0
 12 13  1  0
 13 14  1  0
 14 15  1  0
 16 10  1  0
 17 16  2  0
 19 18  1  0
 20 19  2  0
 21 19  1  0
 22 21  1  0
 23 22  1  1
 23 24  1  0
 24 16  1  0
 25 23  1  0
 26 25  2  0
 27 25  1  0
M  END
$$$$
