EFR.pdb
     RDKit          3D

 32 32  0  0  1  0  0  0  0  0999 V2000
   28.9714  -21.8985  -14.1599 N   0  0  0  0  0  0  0  0  0  0  0  0
   28.5100  -20.7603  -13.4263 C   0  0  1  0  0  0  0  0  0  0  0  0
   27.4370  -20.0822  -14.2388 C   0  0  0  0  0  0  0  0  0  0  0  0
   28.0514  -19.5606  -15.5230 C   0  0  0  0  0  0  0  0  0  0  0  0
   27.8922  -18.0984  -15.6167 C   0  0  0  0  0  0  0  0  0  0  0  0
   28.8537  -17.3406  -15.3362 O   0  0  0  0  0  0  0  0  0  0  0  0
   28.0951  -21.0609  -12.0500 C   0  0  0  0  0  0  0  0  0  0  0  0
   27.5127  -22.1446  -11.7840 O   0  0  0  0  0  0  0  0  0  0  0  0
   26.6968  -17.5336  -16.0108 O   0  0  0  0  0  0  0  0  0  0  0  0
   28.3045  -20.1916  -10.9368 N   0  0  0  0  0  0  0  0  0  0  0  0
   27.5371  -20.2604   -9.7099 C   0  0  1  0  0  0  0  0  0  0  0  0
   28.0994  -19.3492   -8.6545 C   0  0  0  0  0  0  0  0  0  0  0  0
   28.0392  -19.8381   -7.2924 C   0  0  0  0  0  0  0  0  0  0  0  0
   27.1238  -19.3669   -6.3811 C   0  0  0  0  0  0  0  0  0  0  0  0
   27.0679  -19.8442   -5.0747 C   0  0  0  0  0  0  0  0  0  0  0  0
   27.9743  -20.8250   -4.7067 C   0  0  0  0  0  0  0  0  0  0  0  0
   28.9064  -21.3203   -5.5957 C   0  0  0  0  0  0  0  0  0  0  0  0
   28.9289  -20.8208   -6.8810 C   0  0  0  0  0  0  0  0  0  0  0  0
   26.0907  -20.0558   -9.9527 C   0  0  0  0  0  0  0  0  0  0  0  0
   25.6072  -18.9298  -10.2263 O   0  0  0  0  0  0  0  0  0  0  0  0
   20.1209  -23.3153  -14.4069 N   0  0  0  0  0  0  0  0  0  0  0  0
   19.5053  -22.1374  -13.9346 C   0  0  0  0  0  0  0  0  0  0  0  0
   18.2587  -21.9319  -14.1036 N   0  0  0  0  0  0  0  0  0  0  0  0
   20.2662  -21.1424  -13.2531 N   0  0  0  0  0  0  0  0  0  0  0  0
   21.6498  -21.3107  -12.9250 C   0  0  0  0  0  0  0  0  0  0  0  0
   21.8437  -21.9199  -11.5473 C   0  0  0  0  0  0  0  0  0  0  0  0
   23.3086  -22.0448  -11.2297 C   0  0  0  0  0  0  0  0  0  0  0  0
   23.7810  -20.9772  -10.2699 C   0  0  2  0  0  0  0  0  0  0  0  0
   25.1504  -21.1375   -9.8902 N   0  0  0  0  0  0  0  0  0  0  0  0
   22.8579  -20.8732   -9.1363 C   0  0  0  0  0  0  0  0  0  0  0  0
   21.6615  -20.4932   -9.3607 O   0  0  0  0  0  0  0  0  0  0  0  0
   23.1814  -21.1555   -7.8367 O   0  0  0  0  0  0  0  0  0  0  0  0
  2  1  1  6
  2  7  1  0
  2  3  1  0
  3  4  1  0
  4  5  1  0
  5  9  1  0
  6  5  2  0
  7  8  2  0
  7 10  1  0
 10 11  1  0
 11 12  1  1
 12 13  1  0
 13 18  2  0
 13 14  1  0
 14 15  2  0
 15 16  1  0
 17 16  2  0
 18 17  1  0
 19 29  1  0
 19 11  1  0
 20 19  2  0
 22 21  1  0
 22 24  1  0
 23 22  2  0
 24 25  1  0
 25 26  1  0
 26 27  1  0
 28 27  1  6
 28 29  1  0
 28 30  1  0
 30 32  1  0
 31 30  2  0
M  END
$$$$
