EFR.pdb
     RDKit          3D

 32 32  0  0  1  0  0  0  0  0999 V2000
   28.2757  -22.5205  -17.8984 N   0  0  0  0  0  0  0  0  0  0  0  0
   27.9727  -21.3391  -17.1509 C   0  0  1  0  0  0  0  0  0  0  0  0
   27.2435  -20.3832  -18.0597 C   0  0  0  0  0  0  0  0  0  0  0  0
   27.0527  -21.0422  -19.4116 C   0  0  0  0  0  0  0  0  0  0  0  0
   27.9698  -20.4583  -20.4066 C   0  0  0  0  0  0  0  0  0  0  0  0
   28.9120  -19.7153  -20.0355 O   0  0  0  0  0  0  0  0  0  0  0  0
   27.2684  -21.5923  -15.8873 C   0  0  0  0  0  0  0  0  0  0  0  0
   26.6853  -22.6908  -15.6936 O   0  0  0  0  0  0  0  0  0  0  0  0
   27.8172  -20.7114  -21.7542 O   0  0  0  0  0  0  0  0  0  0  0  0
   27.1839  -20.6586  -14.8103 N   0  0  0  0  0  0  0  0  0  0  0  0
   26.4810  -20.9243  -13.5716 C   0  0  1  0  0  0  0  0  0  0  0  0
   27.1055  -20.1954  -12.4145 C   0  0  0  0  0  0  0  0  0  0  0  0
   26.4308  -20.3266  -11.1395 C   0  0  0  0  0  0  0  0  0  0  0  0
   25.4682  -19.4384  -10.7215 C   0  0  0  0  0  0  0  0  0  0  0  0
   24.8198  -19.5726   -9.4970 C   0  0  0  0  0  0  0  0  0  0  0  0
   25.1744  -20.6437   -8.6932 C   0  0  0  0  0  0  0  0  0  0  0  0
   26.1363  -21.5538   -9.0817 C   0  0  0  0  0  0  0  0  0  0  0  0
   26.7551  -21.3852  -10.3026 C   0  0  0  0  0  0  0  0  0  0  0  0
   25.0257  -20.6830  -13.7015 C   0  0  0  0  0  0  0  0  0  0  0  0
   24.5597  -19.6061  -14.1481 O   0  0  0  0  0  0  0  0  0  0  0  0
   18.3878  -22.2646  -16.0194 N   0  0  0  0  0  0  0  0  0  0  0  0
   18.8640  -23.3534  -16.7792 C   0  0  0  0  0  0  0  0  0  0  0  0
   18.4489  -23.5603  -17.9665 N   0  0  0  0  0  0  0  0  0  0  0  0
   19.8262  -24.2541  -16.2350 N   0  0  0  0  0  0  0  0  0  0  0  0
   20.4110  -24.0780  -14.9398 C   0  0  0  0  0  0  0  0  0  0  0  0
   21.2183  -22.7951  -14.8434 C   0  0  0  0  0  0  0  0  0  0  0  0
   21.8144  -22.6516  -13.4699 C   0  0  0  0  0  0  0  0  0  0  0  0
   22.6519  -21.4007  -13.3354 C   0  0  2  0  0  0  0  0  0  0  0  0
   24.0562  -21.6706  -13.3233 N   0  0  0  0  0  0  0  0  0  0  0  0
   22.1897  -20.6039  -12.1954 C   0  0  0  0  0  0  0  0  0  0  0  0
   22.3541  -21.0725  -11.0209 O   0  0  0  0  0  0  0  0  0  0  0  0
   21.5869  -19.3788  -12.2915 O   0  0  0  0  0  0  0  0  0  0  0  0
  2  1  1  6
  2  7  1  0
  2  3  1  0
  3  4  1  0
  4  5  1  0
  5  9  1  0
  6  5  2  0
  7  8  2  0
  7 10  1  0
 10 11  1  0
 11 12  1  1
 12 13  1  0
 13 18  2  0
 13 14  1  0
 14 15  2  0
 15 16  1  0
 17 16  2  0
 18 17  1  0
 19 29  1  0
 19 11  1  0
 20 19  2  0
 22 21  1  0
 22 24  1  0
 23 22  2  0
 24 25  1  0
 25 26  1  0
 26 27  1  0
 28 27  1  1
 28 29  1  0
 28 30  1  0
 30 32  1  0
 31 30  2  0
M  END
$$$$
