EFR.pdb
     RDKit          3D

 32 32  0  0  1  0  0  0  0  0999 V2000
   20.1270  -21.1231  -12.1435 N   0  0  0  0  0  0  0  0  0  0  0  0
   20.6405  -21.1638  -13.4781 C   0  0  1  0  0  0  0  0  0  0  0  0
   19.6216  -20.5330  -14.3920 C   0  0  0  0  0  0  0  0  0  0  0  0
   18.3767  -21.3982  -14.4085 C   0  0  0  0  0  0  0  0  0  0  0  0
   17.4494  -20.9922  -13.3373 C   0  0  0  0  0  0  0  0  0  0  0  0
   16.9548  -21.8557  -12.5712 O   0  0  0  0  0  0  0  0  0  0  0  0
   21.9849  -20.5906  -13.6219 C   0  0  0  0  0  0  0  0  0  0  0  0
   22.1374  -19.4443  -14.1191 O   0  0  0  0  0  0  0  0  0  0  0  0
   17.1069  -19.6686  -13.1525 O   0  0  0  0  0  0  0  0  0  0  0  0
   23.1888  -21.2501  -13.2288 N   0  0  0  0  0  0  0  0  0  0  0  0
   24.5116  -20.6986  -13.4408 C   0  0  1  0  0  0  0  0  0  0  0  0
   25.5283  -21.3376  -12.5363 C   0  0  0  0  0  0  0  0  0  0  0  0
   26.9151  -21.0268  -12.8160 C   0  0  0  0  0  0  0  0  0  0  0  0
   27.5094  -19.8635  -12.3873 C   0  0  0  0  0  0  0  0  0  0  0  0
   28.8441  -19.5726  -12.6553 C   0  0  0  0  0  0  0  0  0  0  0  0
   29.5742  -20.5014  -13.3786 C   0  0  0  0  0  0  0  0  0  0  0  0
   29.0092  -21.6790  -13.8243 C   0  0  0  0  0  0  0  0  0  0  0  0
   27.6836  -21.9294  -13.5378 C   0  0  0  0  0  0  0  0  0  0  0  0
   24.8972  -20.7261  -14.8703 C   0  0  0  0  0  0  0  0  0  0  0  0
   24.5436  -21.6490  -15.6447 O   0  0  0  0  0  0  0  0  0  0  0  0
   20.4457  -17.5955  -19.9676 N   0  0  0  0  0  0  0  0  0  0  0  0
   20.9217  -16.7072  -18.9808 C   0  0  0  0  0  0  0  0  0  0  0  0
   20.3172  -15.6128  -18.7323 N   0  0  0  0  0  0  0  0  0  0  0  0
   22.0967  -17.0130  -18.2331 N   0  0  0  0  0  0  0  0  0  0  0  0
   22.8269  -18.2339  -18.3968 C   0  0  0  0  0  0  0  0  0  0  0  0
   24.0644  -18.2856  -17.5178 C   0  0  0  0  0  0  0  0  0  0  0  0
   24.8137  -19.5706  -17.7408 C   0  0  0  0  0  0  0  0  0  0  0  0
   26.0298  -19.6878  -16.8511 C   0  0  2  0  0  0  0  0  0  0  0  0
   25.7016  -19.6944  -15.4592 N   0  0  0  0  0  0  0  0  0  0  0  0
   27.0260  -18.6790  -17.2223 C   0  0  0  0  0  0  0  0  0  0  0  0
   27.3917  -17.8337  -16.3403 O   0  0  0  0  0  0  0  0  0  0  0  0
   27.6043  -18.5694  -18.4580 O   0  0  0  0  0  0  0  0  0  0  0  0
  2  1  1  1
  2  7  1  0
  2  3  1  0
  3  4  1  0
  4  5  1  0
  5  9  1  0
  6  5  2  0
  7  8  2  0
  7 10  1  0
 10 11  1  0
 11 12  1  1
 12 13  1  0
 13 18  2  0
 13 14  1  0
 14 15  2  0
 15 16  1  0
 17 16  2  0
 18 17  1  0
 19 29  1  0
 19 11  1  0
 20 19  2  0
 22 21  1  0
 22 24  1  0
 23 22  2  0
 24 25  1  0
 25 26  1  0
 26 27  1  0
 28 27  1  6
 28 29  1  0
 28 30  1  0
 30 32  1  0
 31 30  2  0
M  END
$$$$
