EFR.pdb
     RDKit          3D

 32 32  0  0  1  0  0  0  0  0999 V2000
   27.4461  -24.4867  -16.2183 N   0  0  0  0  0  0  0  0  0  0  0  0
   26.9543  -23.1505  -16.0798 C   0  0  1  0  0  0  0  0  0  0  0  0
   26.4235  -22.7050  -17.4182 C   0  0  0  0  0  0  0  0  0  0  0  0
   27.5876  -22.5347  -18.3745 C   0  0  0  0  0  0  0  0  0  0  0  0
   28.1615  -21.1824  -18.2562 C   0  0  0  0  0  0  0  0  0  0  0  0
   27.5681  -20.3026  -17.5845 O   0  0  0  0  0  0  0  0  0  0  0  0
   25.9916  -22.9755  -14.9846 C   0  0  0  0  0  0  0  0  0  0  0  0
   25.2798  -23.9412  -14.6036 O   0  0  0  0  0  0  0  0  0  0  0  0
   29.3511  -20.8546  -18.8732 O   0  0  0  0  0  0  0  0  0  0  0  0
   25.7835  -21.7499  -14.2823 N   0  0  0  0  0  0  0  0  0  0  0  0
   24.7498  -21.5625  -13.2847 C   0  0  1  0  0  0  0  0  0  0  0  0
   25.1327  -20.5085  -12.2833 C   0  0  0  0  0  0  0  0  0  0  0  0
   24.1750  -20.2556  -11.2264 C   0  0  0  0  0  0  0  0  0  0  0  0
   22.9675  -19.6407  -11.4592 C   0  0  0  0  0  0  0  0  0  0  0  0
   22.0493  -19.4046  -10.4400 C   0  0  0  0  0  0  0  0  0  0  0  0
   22.3873  -19.8120   -9.1599 C   0  0  0  0  0  0  0  0  0  0  0  0
   23.5906  -20.4317   -8.8909 C   0  0  0  0  0  0  0  0  0  0  0  0
   24.4729  -20.6472   -9.9287 C   0  0  0  0  0  0  0  0  0  0  0  0
   23.4237  -21.3322  -13.9021 C   0  0  0  0  0  0  0  0  0  0  0  0
   23.2202  -20.4164  -14.7366 O   0  0  0  0  0  0  0  0  0  0  0  0
   23.6274  -26.1214  -15.3636 N   0  0  0  0  0  0  0  0  0  0  0  0
   22.8949  -26.4061  -16.5349 C   0  0  0  0  0  0  0  0  0  0  0  0
   23.0412  -27.5123  -17.1512 N   0  0  0  0  0  0  0  0  0  0  0  0
   21.9683  -25.4587  -17.0611 N   0  0  0  0  0  0  0  0  0  0  0  0
   21.8616  -24.1186  -16.5680 C   0  0  0  0  0  0  0  0  0  0  0  0
   21.3631  -24.0719  -15.1341 C   0  0  0  0  0  0  0  0  0  0  0  0
   20.4057  -22.9268  -14.9479 C   0  0  0  0  0  0  0  0  0  0  0  0
   20.9744  -21.8412  -14.0633 C   0  0  2  0  0  0  0  0  0  0  0  0
   22.2863  -22.1461  -13.5827 N   0  0  0  0  0  0  0  0  0  0  0  0
   20.0185  -21.4991  -13.0062 C   0  0  0  0  0  0  0  0  0  0  0  0
   18.8736  -21.0511  -13.3449 O   0  0  0  0  0  0  0  0  0  0  0  0
   20.2594  -21.6235  -11.6646 O   0  0  0  0  0  0  0  0  0  0  0  0
  2  1  1  6
  2  7  1  0
  2  3  1  0
  3  4  1  0
  4  5  1  0
  5  9  1  0
  6  5  2  0
  7  8  2  0
  7 10  1  0
 10 11  1  0
 11 12  1  6
 12 13  1  0
 13 18  2  0
 13 14  1  0
 14 15  2  0
 15 16  1  0
 17 16  2  0
 18 17  1  0
 19 29  1  0
 19 11  1  0
 20 19  2  0
 22 21  1  0
 22 24  1  0
 23 22  2  0
 24 25  1  0
 25 26  1  0
 26 27  1  0
 28 27  1  1
 28 29  1  0
 28 30  1  0
 30 32  1  0
 31 30  2  0
M  END
$$$$
