EFR.pdb
     RDKit          3D

 32 32  0  0  1  0  0  0  0  0999 V2000
   27.8501  -22.3097  -17.1385 N   0  0  0  0  0  0  0  0  0  0  0  0
   27.7768  -21.2016  -16.2368 C   0  0  1  0  0  0  0  0  0  0  0  0
   27.3114  -19.9960  -17.0122 C   0  0  0  0  0  0  0  0  0  0  0  0
   28.4102  -19.5746  -17.9680 C   0  0  0  0  0  0  0  0  0  0  0  0
   28.1626  -20.1199  -19.3147 C   0  0  0  0  0  0  0  0  0  0  0  0
   28.4208  -21.3234  -19.5645 O   0  0  0  0  0  0  0  0  0  0  0  0
   26.9799  -21.4607  -15.0307 C   0  0  0  0  0  0  0  0  0  0  0  0
   25.9148  -22.1275  -15.1036 O   0  0  0  0  0  0  0  0  0  0  0  0
   27.6467  -19.3303  -20.3215 O   0  0  0  0  0  0  0  0  0  0  0  0
   27.3239  -21.0017  -13.7231 N   0  0  0  0  0  0  0  0  0  0  0  0
   26.4669  -21.1605  -12.5659 C   0  0  1  0  0  0  0  0  0  0  0  0
   27.1737  -20.7717  -11.2972 C   0  0  0  0  0  0  0  0  0  0  0  0
   26.3452  -20.6610  -10.1143 C   0  0  0  0  0  0  0  0  0  0  0  0
   25.7074  -21.7447   -9.5584 C   0  0  0  0  0  0  0  0  0  0  0  0
   24.9162  -21.6326   -8.4186 C   0  0  0  0  0  0  0  0  0  0  0  0
   24.7840  -20.3783   -7.8458 C   0  0  0  0  0  0  0  0  0  0  0  0
   25.4100  -19.2693   -8.3776 C   0  0  0  0  0  0  0  0  0  0  0  0
   26.1851  -19.4228   -9.5079 C   0  0  0  0  0  0  0  0  0  0  0  0
   25.1655  -20.4773  -12.7464 C   0  0  0  0  0  0  0  0  0  0  0  0
   25.0803  -19.2656  -13.0639 O   0  0  0  0  0  0  0  0  0  0  0  0
   17.6961  -19.9291  -14.7862 N   0  0  0  0  0  0  0  0  0  0  0  0
   18.1098  -18.8269  -15.5631 C   0  0  0  0  0  0  0  0  0  0  0  0
   17.2966  -17.8945  -15.8699 N   0  0  0  0  0  0  0  0  0  0  0  0
   19.4545  -18.7283  -16.0269 N   0  0  0  0  0  0  0  0  0  0  0  0
   20.4427  -19.7312  -15.7661 C   0  0  0  0  0  0  0  0  0  0  0  0
   20.8724  -19.7494  -14.3094 C   0  0  0  0  0  0  0  0  0  0  0  0
   22.2016  -20.4380  -14.1625 C   0  0  0  0  0  0  0  0  0  0  0  0
   22.6589  -20.5020  -12.7234 C   0  0  2  0  0  0  0  0  0  0  0  0
   23.9177  -21.1627  -12.5690 N   0  0  0  0  0  0  0  0  0  0  0  0
   21.5930  -21.0484  -11.8788 C   0  0  0  0  0  0  0  0  0  0  0  0
   21.5694  -22.3060  -11.6689 O   0  0  0  0  0  0  0  0  0  0  0  0
   20.6061  -20.3064  -11.2882 O   0  0  0  0  0  0  0  0  0  0  0  0
  2  1  1  6
  2  7  1  0
  2  3  1  0
  3  4  1  0
  4  5  1  0
  5  9  1  0
  6  5  2  0
  7  8  2  0
  7 10  1  0
 10 11  1  0
 11 12  1  1
 12 13  1  0
 13 18  2  0
 13 14  1  0
 14 15  2  0
 15 16  1  0
 17 16  2  0
 18 17  1  0
 19 29  1  0
 19 11  1  0
 20 19  2  0
 22 21  1  0
 22 24  1  0
 23 22  2  0
 24 25  1  0
 25 26  1  0
 26 27  1  0
 28 27  1  6
 28 29  1  0
 28 30  1  0
 30 32  1  0
 31 30  2  0
M  END
$$$$
