EFR.pdb
     RDKit          3D

 32 32  0  0  1  0  0  0  0  0999 V2000
   14.0225  -20.6276    3.0315 N   0  0  0  0  0  0  0  0  0  0  0  0
   15.3990  -20.6498    3.4204 C   0  0  1  0  0  0  0  0  0  0  0  0
   15.4858  -20.2206    4.8625 C   0  0  0  0  0  0  0  0  0  0  0  0
   15.2534  -18.7246    4.9429 C   0  0  0  0  0  0  0  0  0  0  0  0
   16.2337  -18.0959    5.8461 C   0  0  0  0  0  0  0  0  0  0  0  0
   17.1020  -17.3131    5.3870 O   0  0  0  0  0  0  0  0  0  0  0  0
   16.0787  -21.9233    3.1505 C   0  0  0  0  0  0  0  0  0  0  0  0
   15.7139  -22.6469    2.1874 O   0  0  0  0  0  0  0  0  0  0  0  0
   16.2209  -18.3491    7.2022 O   0  0  0  0  0  0  0  0  0  0  0  0
   17.1670  -22.4352    3.9201 N   0  0  0  0  0  0  0  0  0  0  0  0
   17.8115  -23.7049    3.6526 C   0  0  1  0  0  0  0  0  0  0  0  0
   19.2434  -23.5203    3.2332 C   0  0  0  0  0  0  0  0  0  0  0  0
   19.9841  -24.7310    2.9442 C   0  0  0  0  0  0  0  0  0  0  0  0
   20.0628  -25.2610    1.6781 C   0  0  0  0  0  0  0  0  0  0  0  0
   20.7802  -26.4225    1.4059 C   0  0  0  0  0  0  0  0  0  0  0  0
   21.4261  -27.0443    2.4618 C   0  0  0  0  0  0  0  0  0  0  0  0
   21.3679  -26.5397    3.7450 C   0  0  0  0  0  0  0  0  0  0  0  0
   20.6463  -25.3867    3.9727 C   0  0  0  0  0  0  0  0  0  0  0  0
   17.6463  -24.6542    4.7770 C   0  0  0  0  0  0  0  0  0  0  0  0
   17.9427  -24.3542    5.9596 O   0  0  0  0  0  0  0  0  0  0  0  0
   14.4737  -32.7471    4.4474 N   0  0  0  0  0  0  0  0  0  0  0  0
   14.3537  -31.4297    3.9578 C   0  0  0  0  0  0  0  0  0  0  0  0
   13.6766  -31.1757    2.9081 N   0  0  0  0  0  0  0  0  0  0  0  0
   14.9903  -30.3441    4.6283 N   0  0  0  0  0  0  0  0  0  0  0  0
   15.6135  -30.4799    5.9104 C   0  0  0  0  0  0  0  0  0  0  0  0
   16.2488  -29.1830    6.3808 C   0  0  0  0  0  0  0  0  0  0  0  0
   16.4422  -28.2427    5.2228 C   0  0  0  0  0  0  0  0  0  0  0  0
   17.0719  -26.9350    5.6443 C   0  0  2  0  0  0  0  0  0  0  0  0
   17.1345  -25.9802    4.5816 N   0  0  0  0  0  0  0  0  0  0  0  0
   18.3601  -27.1826    6.2980 C   0  0  0  0  0  0  0  0  0  0  0  0
   18.3851  -27.2926    7.5682 O   0  0  0  0  0  0  0  0  0  0  0  0
   19.5566  -27.3071    5.6449 O   0  0  0  0  0  0  0  0  0  0  0  0
  2  1  1  1
  2  7  1  0
  2  3  1  0
  3  4  1  0
  4  5  1  0
  5  9  1  0
  6  5  2  0
  7  8  2  0
  7 10  1  0
 10 11  1  0
 11 12  1  1
 12 13  1  0
 13 18  2  0
 13 14  1  0
 14 15  2  0
 15 16  1  0
 17 16  2  0
 18 17  1  0
 19 29  1  0
 19 11  1  0
 20 19  2  0
 22 21  1  0
 22 24  1  0
 23 22  2  0
 24 25  1  0
 25 26  1  0
 26 27  1  0
 28 27  1  6
 28 29  1  0
 28 30  1  0
 30 32  1  0
 31 30  2  0
M  END
$$$$
