EFR.pdb
     RDKit          3D

 32 32  0  0  1  0  0  0  0  0999 V2000
   28.6081  -22.8279  -17.9204 N   0  0  0  0  0  0  0  0  0  0  0  0
   28.1400  -21.6102  -17.3335 C   0  0  1  0  0  0  0  0  0  0  0  0
   27.3281  -20.8731  -18.3673 C   0  0  0  0  0  0  0  0  0  0  0  0
   28.0808  -19.6238  -18.7812 C   0  0  0  0  0  0  0  0  0  0  0  0
   27.7385  -18.4958  -17.8966 C   0  0  0  0  0  0  0  0  0  0  0  0
   28.6484  -17.7948  -17.3886 O   0  0  0  0  0  0  0  0  0  0  0  0
   27.4331  -21.7910  -16.0589 C   0  0  0  0  0  0  0  0  0  0  0  0
   26.7703  -22.8390  -15.8427 O   0  0  0  0  0  0  0  0  0  0  0  0
   26.4252  -18.1864  -17.6090 O   0  0  0  0  0  0  0  0  0  0  0  0
   27.4323  -20.8383  -14.9954 N   0  0  0  0  0  0  0  0  0  0  0  0
   26.7899  -21.0643  -13.7166 C   0  0  1  0  0  0  0  0  0  0  0  0
   27.4741  -20.3065  -12.6129 C   0  0  0  0  0  0  0  0  0  0  0  0
   26.8610  -20.3954  -11.3036 C   0  0  0  0  0  0  0  0  0  0  0  0
   25.8093  -19.5936  -10.9276 C   0  0  0  0  0  0  0  0  0  0  0  0
   25.2212  -19.6871   -9.6693 C   0  0  0  0  0  0  0  0  0  0  0  0
   25.7306  -20.6258   -8.7872 C   0  0  0  0  0  0  0  0  0  0  0  0
   26.7853  -21.4464   -9.1318 C   0  0  0  0  0  0  0  0  0  0  0  0
   27.3400  -21.3222  -10.3883 C   0  0  0  0  0  0  0  0  0  0  0  0
   25.3312  -20.8180  -13.7818 C   0  0  0  0  0  0  0  0  0  0  0  0
   24.8504  -19.7224  -14.1627 O   0  0  0  0  0  0  0  0  0  0  0  0
   18.0506  -22.6759  -11.5979 N   0  0  0  0  0  0  0  0  0  0  0  0
   17.6018  -23.0427  -12.8839 C   0  0  0  0  0  0  0  0  0  0  0  0
   16.3908  -22.8590  -13.2366 N   0  0  0  0  0  0  0  0  0  0  0  0
   18.4963  -23.6311  -13.8256 N   0  0  0  0  0  0  0  0  0  0  0  0
   19.8823  -23.8571  -13.5455 C   0  0  0  0  0  0  0  0  0  0  0  0
   20.6670  -22.5606  -13.4446 C   0  0  0  0  0  0  0  0  0  0  0  0
   22.1447  -22.8352  -13.5027 C   0  0  0  0  0  0  0  0  0  0  0  0
   22.9673  -21.5699  -13.4204 C   0  0  2  0  0  0  0  0  0  0  0  0
   24.3749  -21.8216  -13.4123 N   0  0  0  0  0  0  0  0  0  0  0  0
   22.5053  -20.7392  -12.3048 C   0  0  0  0  0  0  0  0  0  0  0  0
   23.0151  -20.9329  -11.1521 O   0  0  0  0  0  0  0  0  0  0  0  0
   21.5566  -19.7574  -12.4021 O   0  0  0  0  0  0  0  0  0  0  0  0
  2  1  1  6
  2  7  1  0
  2  3  1  0
  3  4  1  0
  4  5  1  0
  5  9  1  0
  6  5  2  0
  7  8  2  0
  7 10  1  0
 10 11  1  0
 11 12  1  1
 12 13  1  0
 13 18  2  0
 13 14  1  0
 14 15  2  0
 15 16  1  0
 17 16  2  0
 18 17  1  0
 19 29  1  0
 19 11  1  0
 20 19  2  0
 22 21  1  0
 22 24  1  0
 23 22  2  0
 24 25  1  0
 25 26  1  0
 26 27  1  0
 28 27  1  1
 28 29  1  0
 28 30  1  0
 30 32  1  0
 31 30  2  0
M  END
$$$$
