EFR.pdb
     RDKit          3D

 32 32  0  0  1  0  0  0  0  0999 V2000
   28.9377  -21.3485  -14.2070 N   0  0  0  0  0  0  0  0  0  0  0  0
   28.5061  -20.5564  -13.0966 C   0  0  1  0  0  0  0  0  0  0  0  0
   28.4353  -19.1194  -13.5450 C   0  0  0  0  0  0  0  0  0  0  0  0
   28.8363  -19.0417  -15.0051 C   0  0  0  0  0  0  0  0  0  0  0  0
   27.6783  -18.6792  -15.8417 C   0  0  0  0  0  0  0  0  0  0  0  0
   27.3485  -19.4070  -16.8106 O   0  0  0  0  0  0  0  0  0  0  0  0
   27.2674  -21.0309  -12.4661 C   0  0  0  0  0  0  0  0  0  0  0  0
   26.4076  -21.6530  -13.1429 O   0  0  0  0  0  0  0  0  0  0  0  0
   26.9372  -17.5447  -15.5830 O   0  0  0  0  0  0  0  0  0  0  0  0
   26.9388  -20.8395  -11.0899 N   0  0  0  0  0  0  0  0  0  0  0  0
   25.6872  -21.2653  -10.4973 C   0  0  1  0  0  0  0  0  0  0  0  0
   25.7715  -21.3053   -8.9968 C   0  0  0  0  0  0  0  0  0  0  0  0
   26.8897  -20.6024   -8.4022 C   0  0  0  0  0  0  0  0  0  0  0  0
   28.1413  -21.1624   -8.3011 C   0  0  0  0  0  0  0  0  0  0  0  0
   29.2132  -20.4799   -7.7329 C   0  0  0  0  0  0  0  0  0  0  0  0
   28.9848  -19.1973   -7.2621 C   0  0  0  0  0  0  0  0  0  0  0  0
   27.7413  -18.6050   -7.3475 C   0  0  0  0  0  0  0  0  0  0  0  0
   26.7055  -19.3150   -7.9175 C   0  0  0  0  0  0  0  0  0  0  0  0
   24.5419  -20.4728  -11.0004 C   0  0  0  0  0  0  0  0  0  0  0  0
   24.6114  -19.2329  -11.1854 O   0  0  0  0  0  0  0  0  0  0  0  0
   25.0035  -23.9721  -14.7990 N   0  0  0  0  0  0  0  0  0  0  0  0
   23.8174  -24.5250  -15.3254 C   0  0  0  0  0  0  0  0  0  0  0  0
   23.6713  -25.7862  -15.4376 N   0  0  0  0  0  0  0  0  0  0  0  0
   22.7473  -23.6823  -15.7472 N   0  0  0  0  0  0  0  0  0  0  0  0
   22.6578  -22.2994  -15.3865 C   0  0  0  0  0  0  0  0  0  0  0  0
   22.5160  -22.1046  -13.8869 C   0  0  0  0  0  0  0  0  0  0  0  0
   22.4002  -20.6420  -13.5559 C   0  0  0  0  0  0  0  0  0  0  0  0
   22.2757  -20.3979  -12.0695 C   0  0  2  0  0  0  0  0  0  0  0  0
   23.2779  -21.0775  -11.3088 N   0  0  0  0  0  0  0  0  0  0  0  0
   20.9057  -20.6709  -11.6262 C   0  0  0  0  0  0  0  0  0  0  0  0
   20.7120  -21.6305  -10.8090 O   0  0  0  0  0  0  0  0  0  0  0  0
   19.8007  -19.9682  -12.0246 O   0  0  0  0  0  0  0  0  0  0  0  0
  2  1  1  6
  2  7  1  0
  2  3  1  0
  3  4  1  0
  4  5  1  0
  5  9  1  0
  6  5  2  0
  7  8  2  0
  7 10  1  0
 10 11  1  0
 11 12  1  1
 12 13  1  0
 13 18  2  0
 13 14  1  0
 14 15  2  0
 15 16  1  0
 17 16  2  0
 18 17  1  0
 19 29  1  0
 19 11  1  0
 20 19  2  0
 22 21  1  0
 22 24  1  0
 23 22  2  0
 24 25  1  0
 25 26  1  0
 26 27  1  0
 28 27  1  6
 28 29  1  0
 28 30  1  0
 30 32  1  0
 31 30  2  0
M  END
$$$$
