EFR.pdb
     RDKit          3D

 32 32  0  0  1  0  0  0  0  0999 V2000
   28.0185  -22.8702  -17.7775 N   0  0  0  0  0  0  0  0  0  0  0  0
   27.7230  -21.6422  -17.1059 C   0  0  1  0  0  0  0  0  0  0  0  0
   27.1697  -20.6744  -18.1200 C   0  0  0  0  0  0  0  0  0  0  0  0
   25.7887  -21.1398  -18.5382 C   0  0  0  0  0  0  0  0  0  0  0  0
   25.8176  -21.6820  -19.9083 C   0  0  0  0  0  0  0  0  0  0  0  0
   26.9162  -21.9155  -20.4705 O   0  0  0  0  0  0  0  0  0  0  0  0
   26.8681  -21.7961  -15.9217 C   0  0  0  0  0  0  0  0  0  0  0  0
   26.1297  -22.8080  -15.7980 O   0  0  0  0  0  0  0  0  0  0  0  0
   24.6518  -21.9435  -20.5980 O   0  0  0  0  0  0  0  0  0  0  0  0
   26.7985  -20.8554  -14.8498 N   0  0  0  0  0  0  0  0  0  0  0  0
   26.0419  -21.0785  -13.6347 C   0  0  1  0  0  0  0  0  0  0  0  0
   26.5996  -20.2886  -12.4835 C   0  0  0  0  0  0  0  0  0  0  0  0
   25.8919  -20.4091  -11.2255 C   0  0  0  0  0  0  0  0  0  0  0  0
   24.7444  -19.7013  -10.9558 C   0  0  0  0  0  0  0  0  0  0  0  0
   24.0661  -19.8251   -9.7465 C   0  0  0  0  0  0  0  0  0  0  0  0
   24.5847  -20.6957   -8.8021 C   0  0  0  0  0  0  0  0  0  0  0  0
   25.7342  -21.4215   -9.0397 C   0  0  0  0  0  0  0  0  0  0  0  0
   26.3764  -21.2701  -10.2507 C   0  0  0  0  0  0  0  0  0  0  0  0
   24.5908  -20.8688  -13.8429 C   0  0  0  0  0  0  0  0  0  0  0  0
   24.1400  -19.9141  -14.5225 O   0  0  0  0  0  0  0  0  0  0  0  0
   17.0800  -25.1299  -11.1516 N   0  0  0  0  0  0  0  0  0  0  0  0
   16.6962  -24.1125  -12.0501 C   0  0  0  0  0  0  0  0  0  0  0  0
   15.4699  -23.9130  -12.3351 N   0  0  0  0  0  0  0  0  0  0  0  0
   17.6755  -23.2780  -12.6648 N   0  0  0  0  0  0  0  0  0  0  0  0
   19.0835  -23.4833  -12.5044 C   0  0  0  0  0  0  0  0  0  0  0  0
   19.9042  -22.5076  -13.3298 C   0  0  0  0  0  0  0  0  0  0  0  0
   21.3740  -22.7438  -13.1142 C   0  0  0  0  0  0  0  0  0  0  0  0
   22.2051  -21.5240  -13.4390 C   0  0  2  0  0  0  0  0  0  0  0  0
   23.6082  -21.7485  -13.2783 N   0  0  0  0  0  0  0  0  0  0  0  0
   21.7013  -20.3598  -12.7049 C   0  0  0  0  0  0  0  0  0  0  0  0
   21.9549  -20.2721  -11.4582 O   0  0  0  0  0  0  0  0  0  0  0  0
   20.9697  -19.3438  -13.2579 O   0  0  0  0  0  0  0  0  0  0  0  0
  2  1  1  6
  2  7  1  0
  2  3  1  0
  3  4  1  0
  4  5  1  0
  5  9  1  0
  6  5  2  0
  7  8  2  0
  7 10  1  0
 10 11  1  0
 11 12  1  1
 12 13  1  0
 13 18  2  0
 13 14  1  0
 14 15  2  0
 15 16  1  0
 17 16  2  0
 18 17  1  0
 19 29  1  0
 19 11  1  0
 20 19  2  0
 22 21  1  0
 22 24  1  0
 23 22  2  0
 24 25  1  0
 25 26  1  0
 26 27  1  0
 28 27  1  1
 28 29  1  0
 28 30  1  0
 30 32  1  0
 31 30  2  0
M  END
$$$$
