DWS.pdb
     RDKit          3D

 29 30  0  0  1  0  0  0  0  0999 V2000
   10.0655  -17.5433   19.3738 N   0  0  0  0  0  0  0  0  0  0  0  0
   11.2398  -17.1540   20.1140 C   0  0  1  0  0  0  0  0  0  0  0  0
   12.0872  -16.2581   19.2394 C   0  0  0  0  0  0  0  0  0  0  0  0
   12.4143  -16.9093   17.9585 C   0  0  0  0  0  0  0  0  0  0  0  0
   13.0356  -18.0167   17.8709 O   0  0  0  0  0  0  0  0  0  0  0  0
   10.8346  -16.4871   21.3650 C   0  0  0  0  0  0  0  0  0  0  0  0
   11.6781  -15.8853   22.0557 O   0  0  0  0  0  0  0  0  0  0  0  0
   12.0489  -16.3270   16.7628 O   0  0  0  0  0  0  0  0  0  0  0  0
    9.4874  -16.5284   21.7848 N   0  0  0  0  0  0  0  0  0  0  0  0
    9.0184  -16.0604   23.0538 C   0  0  1  0  0  0  0  0  0  0  0  0
    7.5594  -15.6632   23.0798 C   0  0  0  0  0  0  0  0  0  0  0  0
    7.1375  -15.1790   24.4100 C   0  0  0  0  0  0  0  0  0  0  0  0
    6.5523  -15.9750   25.3971 C   0  0  0  0  0  0  0  0  0  0  0  0
    6.3244  -15.2090   26.4787 N   0  0  0  0  0  0  0  0  0  0  0  0
    6.7276  -13.9531   26.2559 C   0  0  0  0  0  0  0  0  0  0  0  0
    6.7162  -12.8083   27.0119 C   0  0  0  0  0  0  0  0  0  0  0  0
    7.2111  -11.6307   26.4866 C   0  0  0  0  0  0  0  0  0  0  0  0
    7.7212  -11.5740   25.2094 C   0  0  0  0  0  0  0  0  0  0  0  0
    7.7287  -12.7301   24.4560 C   0  0  0  0  0  0  0  0  0  0  0  0
    7.2360  -13.9125   24.9752 C   0  0  0  0  0  0  0  0  0  0  0  0
    9.3139  -17.0088   24.1557 C   0  0  0  0  0  0  0  0  0  0  0  0
    8.8734  -18.1906   24.1326 O   0  0  0  0  0  0  0  0  0  0  0  0
   12.4640  -16.2673   26.6160 O   0  0  0  0  0  0  0  0  0  0  0  0
   12.0115  -17.5802   26.4407 C   0  0  0  0  0  0  0  0  0  0  0  0
   10.4854  -17.4825   26.3216 C   0  0  2  0  0  0  0  0  0  0  0  0
   10.1010  -16.5974   25.2569 N   0  0  0  0  0  0  0  0  0  0  0  0
    9.9063  -17.1249   27.6248 C   0  0  0  0  0  0  0  0  0  0  0  0
   10.1102  -17.9514   28.7201 O   0  0  0  0  0  0  0  0  0  0  0  0
    9.2381  -16.0779   27.7207 O   0  0  0  0  0  0  0  0  0  0  0  0
  2  1  1  6
  2  6  1  0
  3  2  1  0
  3  4  1  0
  4  8  1  0
  4  5  2  0
  6  7  2  0
  9 10  1  0
  9  6  1  0
 10 11  1  6
 12 11  1  0
 13 12  2  0
 14 13  1  0
 15 14  1  0
 15 20  2  0
 16 17  2  0
 16 15  1  0
 17 18  1  0
 18 19  2  0
 20 19  1  0
 20 12  1  0
 21 10  1  0
 21 22  2  0
 23 24  1  0
 25 24  1  1
 25 26  1  0
 25 27  1  0
 26 21  1  0
 27 29  2  0
 27 28  1  0
M  END
$$$$
