DWS.pdb
     RDKit          3D

 29 30  0  0  1  0  0  0  0  0999 V2000
    8.7185  -17.4490   21.1622 N   0  0  0  0  0  0  0  0  0  0  0  0
   10.0895  -17.0401   21.3406 C   0  0  1  0  0  0  0  0  0  0  0  0
   10.3739  -15.8840   20.4087 C   0  0  0  0  0  0  0  0  0  0  0  0
   10.3674  -16.3144   18.9993 C   0  0  0  0  0  0  0  0  0  0  0  0
    9.3103  -16.6327   18.3660 O   0  0  0  0  0  0  0  0  0  0  0  0
   10.3174  -16.6842   22.7531 C   0  0  0  0  0  0  0  0  0  0  0  0
   11.2716  -15.9487   23.0677 O   0  0  0  0  0  0  0  0  0  0  0  0
   11.5446  -16.3925   18.2849 O   0  0  0  0  0  0  0  0  0  0  0  0
    9.4535  -17.1765   23.7552 N   0  0  0  0  0  0  0  0  0  0  0  0
    9.6701  -17.0202   25.1616 C   0  0  1  0  0  0  0  0  0  0  0  0
    8.4070  -16.9259   25.9880 C   0  0  0  0  0  0  0  0  0  0  0  0
    7.5258  -15.8303   25.5354 C   0  0  0  0  0  0  0  0  0  0  0  0
    6.4095  -15.9960   24.7126 C   0  0  0  0  0  0  0  0  0  0  0  0
    5.8371  -14.7930   24.5283 N   0  0  0  0  0  0  0  0  0  0  0  0
    6.5167  -13.8460   25.1847 C   0  0  0  0  0  0  0  0  0  0  0  0
    6.3597  -12.4895   25.3170 C   0  0  0  0  0  0  0  0  0  0  0  0
    7.2545  -11.7633   26.0783 C   0  0  0  0  0  0  0  0  0  0  0  0
    8.3125  -12.3713   26.7152 C   0  0  0  0  0  0  0  0  0  0  0  0
    8.4628  -13.7360   26.5768 C   0  0  0  0  0  0  0  0  0  0  0  0
    7.5709  -14.4695   25.8173 C   0  0  0  0  0  0  0  0  0  0  0  0
   10.5735  -18.0573   25.7179 C   0  0  0  0  0  0  0  0  0  0  0  0
   10.2784  -19.2818   25.6493 O   0  0  0  0  0  0  0  0  0  0  0  0
   14.3200  -17.0069   27.0566 O   0  0  0  0  0  0  0  0  0  0  0  0
   14.0998  -18.3652   26.7999 C   0  0  0  0  0  0  0  0  0  0  0  0
   12.6100  -18.6049   27.0746 C   0  0  2  0  0  0  0  0  0  0  0  0
   11.7890  -17.6839   26.3380 N   0  0  0  0  0  0  0  0  0  0  0  0
   12.3620  -18.5880   28.5237 C   0  0  0  0  0  0  0  0  0  0  0  0
   13.0544  -19.4592   29.3519 O   0  0  0  0  0  0  0  0  0  0  0  0
   11.5279  -17.7848   28.9833 O   0  0  0  0  0  0  0  0  0  0  0  0
  2  1  1  1
  2  6  1  0
  3  2  1  0
  3  4  1  0
  4  8  1  0
  4  5  2  0
  6  7  2  0
  9 10  1  0
  9  6  1  0
 10 11  1  1
 12 11  1  0
 13 12  2  0
 14 13  1  0
 15 14  1  0
 15 20  2  0
 16 17  2  0
 16 15  1  0
 17 18  1  0
 18 19  2  0
 20 19  1  0
 20 12  1  0
 21 10  1  0
 21 22  2  0
 23 24  1  0
 25 24  1  1
 25 26  1  0
 25 27  1  0
 26 21  1  0
 27 29  2  0
 27 28  1  0
M  END
$$$$
