DWS.pdb
     RDKit          3D

 29 30  0  0  1  0  0  0  0  0999 V2000
    7.3581  -17.4275   21.1682 N   0  0  0  0  0  0  0  0  0  0  0  0
    8.5257  -16.7304   20.6894 C   0  0  1  0  0  0  0  0  0  0  0  0
    8.0933  -15.7211   19.6501 C   0  0  0  0  0  0  0  0  0  0  0  0
    8.0619  -16.3159   18.3022 C   0  0  0  0  0  0  0  0  0  0  0  0
    8.3550  -17.5311   18.0626 O   0  0  0  0  0  0  0  0  0  0  0  0
    9.2206  -16.0962   21.8246 C   0  0  0  0  0  0  0  0  0  0  0  0
   10.0513  -15.1906   21.6237 O   0  0  0  0  0  0  0  0  0  0  0  0
    7.7020  -15.5558   17.2090 O   0  0  0  0  0  0  0  0  0  0  0  0
    8.9463  -16.5137   23.1450 N   0  0  0  0  0  0  0  0  0  0  0  0
    9.7646  -16.2079   24.2791 C   0  0  1  0  0  0  0  0  0  0  0  0
    9.0301  -16.1913   25.6010 C   0  0  0  0  0  0  0  0  0  0  0  0
    7.8145  -15.3537   25.5523 C   0  0  0  0  0  0  0  0  0  0  0  0
    6.5323  -15.8288   25.2686 C   0  0  0  0  0  0  0  0  0  0  0  0
    5.6736  -14.7959   25.3352 N   0  0  0  0  0  0  0  0  0  0  0  0
    6.3219  -13.6680   25.6468 C   0  0  0  0  0  0  0  0  0  0  0  0
    5.9234  -12.3677   25.8282 C   0  0  0  0  0  0  0  0  0  0  0  0
    6.8555  -11.3995   26.1464 C   0  0  0  0  0  0  0  0  0  0  0  0
    8.1896  -11.7075   26.2877 C   0  0  0  0  0  0  0  0  0  0  0  0
    8.5816  -13.0177   26.1035 C   0  0  0  0  0  0  0  0  0  0  0  0
    7.6545  -13.9924   25.7858 C   0  0  0  0  0  0  0  0  0  0  0  0
   10.9643  -17.0763   24.3671 C   0  0  0  0  0  0  0  0  0  0  0  0
   10.8696  -18.2823   24.7247 O   0  0  0  0  0  0  0  0  0  0  0  0
   14.7652  -15.5448   23.4048 O   0  0  0  0  0  0  0  0  0  0  0  0
   14.4581  -16.8609   23.0405 C   0  0  0  0  0  0  0  0  0  0  0  0
   13.4395  -17.3530   24.0763 C   0  0  2  0  0  0  0  0  0  0  0  0
   12.2419  -16.5594   24.0479 N   0  0  0  0  0  0  0  0  0  0  0  0
   14.0711  -17.4212   25.4021 C   0  0  0  0  0  0  0  0  0  0  0  0
   15.1845  -18.2259   25.5949 O   0  0  0  0  0  0  0  0  0  0  0  0
   13.5900  -16.7495   26.3345 O   0  0  0  0  0  0  0  0  0  0  0  0
  2  1  1  1
  2  6  1  0
  3  2  1  0
  3  4  1  0
  4  8  1  0
  4  5  2  0
  6  7  2  0
  9 10  1  0
  9  6  1  0
 10 11  1  1
 12 11  1  0
 13 12  2  0
 14 13  1  0
 15 14  1  0
 15 20  2  0
 16 17  2  0
 16 15  1  0
 17 18  1  0
 18 19  2  0
 20 19  1  0
 20 12  1  0
 21 10  1  0
 21 22  2  0
 23 24  1  0
 25 24  1  6
 25 26  1  0
 25 27  1  0
 26 21  1  0
 27 29  2  0
 27 28  1  0
M  END
$$$$
