DWS.pdb
     RDKit          3D

 29 30  0  0  1  0  0  0  0  0999 V2000
    7.6588  -17.3229   21.4112 N   0  0  0  0  0  0  0  0  0  0  0  0
    8.8192  -16.5391   21.0683 C   0  0  1  0  0  0  0  0  0  0  0  0
    8.3774  -15.3669   20.2218 C   0  0  0  0  0  0  0  0  0  0  0  0
    8.1110  -15.7768   18.8316 C   0  0  0  0  0  0  0  0  0  0  0  0
    7.0666  -16.4095   18.4727 O   0  0  0  0  0  0  0  0  0  0  0  0
    9.5038  -16.1077   22.3008 C   0  0  0  0  0  0  0  0  0  0  0  0
   10.3887  -15.2330   22.2525 O   0  0  0  0  0  0  0  0  0  0  0  0
    9.0115  -15.4821   17.8293 O   0  0  0  0  0  0  0  0  0  0  0  0
    9.1580  -16.6854   23.5416 N   0  0  0  0  0  0  0  0  0  0  0  0
    9.8866  -16.4905   24.7584 C   0  0  1  0  0  0  0  0  0  0  0  0
    9.0278  -16.3936   25.9995 C   0  0  0  0  0  0  0  0  0  0  0  0
    7.8711  -15.4954   25.8077 C   0  0  0  0  0  0  0  0  0  0  0  0
    6.6225  -15.8979   25.3286 C   0  0  0  0  0  0  0  0  0  0  0  0
    5.8111  -14.8256   25.3082 N   0  0  0  0  0  0  0  0  0  0  0  0
    6.4585  -13.7405   25.7473 C   0  0  0  0  0  0  0  0  0  0  0  0
    6.0976  -12.4275   25.9151 C   0  0  0  0  0  0  0  0  0  0  0  0
    7.0174  -11.5161   26.3955 C   0  0  0  0  0  0  0  0  0  0  0  0
    8.3021  -11.8942   26.7141 C   0  0  0  0  0  0  0  0  0  0  0  0
    8.6565  -13.2167   26.5424 C   0  0  0  0  0  0  0  0  0  0  0  0
    7.7412  -14.1347   26.0629 C   0  0  0  0  0  0  0  0  0  0  0  0
   10.9567  -17.5001   24.9499 C   0  0  0  0  0  0  0  0  0  0  0  0
   10.6860  -18.7304   25.0166 O   0  0  0  0  0  0  0  0  0  0  0  0
   14.9057  -16.2396   25.1319 O   0  0  0  0  0  0  0  0  0  0  0  0
   14.6846  -17.5337   24.6466 C   0  0  0  0  0  0  0  0  0  0  0  0
   13.3855  -18.0104   25.3082 C   0  0  2  0  0  0  0  0  0  0  0  0
   12.3072  -17.0935   25.0607 N   0  0  0  0  0  0  0  0  0  0  0  0
   13.6211  -18.2731   26.7354 C   0  0  0  0  0  0  0  0  0  0  0  0
   14.5501  -19.2304   27.1161 O   0  0  0  0  0  0  0  0  0  0  0  0
   12.9763  -17.6256   27.5822 O   0  0  0  0  0  0  0  0  0  0  0  0
  2  1  1  1
  2  6  1  0
  3  2  1  0
  3  4  1  0
  4  8  1  0
  4  5  2  0
  6  7  2  0
  9 10  1  0
  9  6  1  0
 10 11  1  1
 12 11  1  0
 13 12  2  0
 14 13  1  0
 15 14  1  0
 15 20  2  0
 16 17  2  0
 16 15  1  0
 17 18  1  0
 18 19  2  0
 20 19  1  0
 20 12  1  0
 21 10  1  0
 21 22  2  0
 23 24  1  0
 25 24  1  1
 25 26  1  0
 25 27  1  0
 26 21  1  0
 27 29  2  0
 27 28  1  0
M  END
$$$$
