DWS.pdb
     RDKit          3D

 29 30  0  0  1  0  0  0  0  0999 V2000
    7.7417  -17.2057   21.2460 N   0  0  0  0  0  0  0  0  0  0  0  0
    8.9806  -16.4978   21.0397 C   0  0  1  0  0  0  0  0  0  0  0  0
    8.7163  -15.3150   20.1359 C   0  0  0  0  0  0  0  0  0  0  0  0
    8.3897  -15.7470   18.7653 C   0  0  0  0  0  0  0  0  0  0  0  0
    8.0430  -16.9345   18.4660 O   0  0  0  0  0  0  0  0  0  0  0  0
    9.5366  -16.0884   22.3424 C   0  0  0  0  0  0  0  0  0  0  0  0
   10.3485  -15.1466   22.4088 O   0  0  0  0  0  0  0  0  0  0  0  0
    8.4479  -14.8535   17.7162 O   0  0  0  0  0  0  0  0  0  0  0  0
    9.1501  -16.7633   23.5205 N   0  0  0  0  0  0  0  0  0  0  0  0
    9.7598  -16.5730   24.8017 C   0  0  1  0  0  0  0  0  0  0  0  0
    8.7943  -16.5696   25.9657 C   0  0  0  0  0  0  0  0  0  0  0  0
    7.6932  -15.6041   25.7732 C   0  0  0  0  0  0  0  0  0  0  0  0
    6.3998  -15.9431   25.3698 C   0  0  0  0  0  0  0  0  0  0  0  0
    5.6623  -14.8194   25.3242 N   0  0  0  0  0  0  0  0  0  0  0  0
    6.4007  -13.7606   25.6752 C   0  0  0  0  0  0  0  0  0  0  0  0
    6.1371  -12.4187   25.7852 C   0  0  0  0  0  0  0  0  0  0  0  0
    7.1372  -11.5498   26.1756 C   0  0  0  0  0  0  0  0  0  0  0  0
    8.4067  -11.9993   26.4604 C   0  0  0  0  0  0  0  0  0  0  0  0
    8.6630  -13.3505   26.3473 C   0  0  0  0  0  0  0  0  0  0  0  0
    7.6670  -14.2263   25.9580 C   0  0  0  0  0  0  0  0  0  0  0  0
   10.8670  -17.5280   25.0534 C   0  0  0  0  0  0  0  0  0  0  0  0
   10.6510  -18.7682   25.1327 O   0  0  0  0  0  0  0  0  0  0  0  0
   14.5761  -15.9506   25.5310 O   0  0  0  0  0  0  0  0  0  0  0  0
   14.6318  -17.3078   25.1929 C   0  0  0  0  0  0  0  0  0  0  0  0
   13.2818  -17.8988   25.6181 C   0  0  2  0  0  0  0  0  0  0  0  0
   12.1918  -17.0566   25.2090 N   0  0  0  0  0  0  0  0  0  0  0  0
   13.2965  -18.1868   27.0597 C   0  0  0  0  0  0  0  0  0  0  0  0
   12.3488  -17.6048   27.8889 O   0  0  0  0  0  0  0  0  0  0  0  0
   14.1671  -18.9544   27.5124 O   0  0  0  0  0  0  0  0  0  0  0  0
  2  1  1  1
  2  6  1  0
  3  2  1  0
  3  4  1  0
  4  8  1  0
  4  5  2  0
  6  7  2  0
  9 10  1  0
  9  6  1  0
 10 11  1  1
 12 11  1  0
 13 12  2  0
 14 13  1  0
 15 14  1  0
 15 20  2  0
 16 17  2  0
 16 15  1  0
 17 18  1  0
 18 19  2  0
 20 19  1  0
 20 12  1  0
 21 10  1  0
 21 22  2  0
 23 24  1  0
 25 24  1  1
 25 26  1  0
 25 27  1  0
 26 21  1  0
 27 29  2  0
 27 28  1  0
M  END
$$$$
