RWT.pdb
     RDKit          3D

 33 34  0  0  1  0  0  0  0  0999 V2000
    7.5010  -12.0367   17.5406 N   0  0  0  0  0  0  0  0  0  0  0  0
    7.9104  -13.4107   17.5175 C   0  0  0  0  0  0  0  0  0  0  0  0
    7.8852  -14.0401   16.4028 N   0  0  0  0  0  0  0  0  0  0  0  0
    8.3341  -14.0674   18.6972 N   0  0  0  0  0  0  0  0  0  0  0  0
    7.3951  -14.6564   19.6110 C   0  0  0  0  0  0  0  0  0  0  0  0
    8.0414  -14.7547   20.9698 C   0  0  0  0  0  0  0  0  0  0  0  0
    9.4719  -15.2403   20.8798 C   0  0  0  0  0  0  0  0  0  0  0  0
    9.6609  -16.6150   21.4289 C   0  0  2  0  0  0  0  0  0  0  0  0
    8.5680  -17.4505   21.0068 N   0  0  0  0  0  0  0  0  0  0  0  0
    9.7406  -16.5106   22.9231 C   0  0  0  0  0  0  0  0  0  0  0  0
   10.6090  -15.7943   23.4830 O   0  0  0  0  0  0  0  0  0  0  0  0
    7.7577  -13.5082   15.5205 N   0  0  0  0  0  0  0  0  0  0  0  0
    8.8497  -17.2080   23.7810 C   0  0  1  0  0  0  0  0  0  0  0  0
    8.9540  -17.2537   25.2235 C   0  0  0  0  0  0  0  0  0  0  0  0
    7.6748  -17.0486   25.9242 C   0  0  0  0  0  0  0  0  0  0  0  0
    7.0252  -15.7634   25.8744 C   0  0  0  0  0  0  0  0  0  0  0  0
    5.6593  -15.5400   25.7000 N   0  0  0  0  0  0  0  0  0  0  0  0
    5.3968  -14.2352   25.7020 C   0  0  0  0  0  0  0  0  0  0  0  0
    6.5539  -13.5762   25.8733 C   0  0  0  0  0  0  0  0  0  0  0  0
    6.7821  -12.2201   25.9407 C   0  0  0  0  0  0  0  0  0  0  0  0
    8.0568  -11.7454   26.1214 C   0  0  0  0  0  0  0  0  0  0  0  0
    9.0858  -12.6472   26.2321 C   0  0  0  0  0  0  0  0  0  0  0  0
    8.8421  -14.0085   26.1628 C   0  0  0  0  0  0  0  0  0  0  0  0
    7.5784  -14.5252   25.9822 C   0  0  0  0  0  0  0  0  0  0  0  0
    9.8657  -18.2920   25.7319 O   0  0  0  0  0  0  0  0  0  0  0  0
    9.6427  -19.5260   25.4866 C   0  0  0  0  0  0  0  0  0  0  0  0
   13.3618  -19.0642   25.0272 C   0  0  2  0  0  0  0  0  0  0  0  0
   13.3172  -18.8810   26.5063 O   0  0  0  0  0  0  0  0  0  0  0  0
   13.9464  -17.7332   26.8974 C   0  0  2  0  0  0  0  0  0  0  0  0
   11.8966  -19.0151   27.0413 N   0  0  0  0  0  0  0  0  0  0  0  0
   11.0322  -17.9983   26.5051 C   0  0  0  0  0  0  0  0  0  0  0  0
   11.9560  -19.0870   28.5025 O   0  0  0  0  0  0  0  0  0  0  0  0
   12.5799  -20.0991   29.2078 O   0  0  0  0  0  0  0  0  0  0  0  0
  1  2  1  0
  2  4  1  0
  2  3  2  0
  4  5  1  0
  6  5  1  0
  7  6  1  0
  8  7  1  0
  8  9  1  1
 10  8  1  0
 10 11  2  0
 12 10  1  0
 13 12  1  0
 13 14  1  1
 15 16  2  0
 15 14  1  0
 17 16  1  0
 18 23  2  0
 18 17  1  0
 19 18  1  0
 20 21  1  0
 20 19  2  0
 21 22  2  0
 22 23  1  0
 23 15  1  0
 24 13  1  0
 25 24  2  0
 27 26  1  1
 27 28  1  0
 29 30  1  1
 29 27  1  0
 30 24  1  0
 31 29  1  0
 32 31  1  0
 33 31  2  0
M  END
$$$$
