RWT.pdb
     RDKit          3D

 33 34  0  0  1  0  0  0  0  0999 V2000
    9.0220  -12.2570   16.6691 N   0  0  0  0  0  0  0  0  0  0  0  0
    8.3590  -13.5011   16.9313 C   0  0  0  0  0  0  0  0  0  0  0  0
    8.1103  -14.2832   15.9484 N   0  0  0  0  0  0  0  0  0  0  0  0
    7.9817  -13.8659   18.2454 N   0  0  0  0  0  0  0  0  0  0  0  0
    7.2262  -15.0589   18.5092 C   0  0  0  0  0  0  0  0  0  0  0  0
    7.0253  -15.1828   19.9986 C   0  0  0  0  0  0  0  0  0  0  0  0
    8.3241  -15.0200   20.7581 C   0  0  0  0  0  0  0  0  0  0  0  0
    8.8298  -16.2990   21.3373 C   0  0  2  0  0  0  0  0  0  0  0  0
    7.7288  -17.2075   21.5188 N   0  0  0  0  0  0  0  0  0  0  0  0
    9.5136  -15.9823   22.6342 C   0  0  0  0  0  0  0  0  0  0  0  0
   10.4905  -15.1925   22.6824 O   0  0  0  0  0  0  0  0  0  0  0  0
    7.6257  -15.1841   16.1247 N   0  0  0  0  0  0  0  0  0  0  0  0
    9.1011  -16.5512   23.8680 C   0  0  1  0  0  0  0  0  0  0  0  0
    9.7714  -16.3564   25.1355 C   0  0  0  0  0  0  0  0  0  0  0  0
    8.8571  -16.1673   26.2747 C   0  0  0  0  0  0  0  0  0  0  0  0
    7.7253  -15.2844   26.1501 C   0  0  0  0  0  0  0  0  0  0  0  0
    6.4003  -15.6716   25.9484 N   0  0  0  0  0  0  0  0  0  0  0  0
    5.6086  -14.6040   25.8789 C   0  0  0  0  0  0  0  0  0  0  0  0
    6.3699  -13.5084   26.0288 C   0  0  0  0  0  0  0  0  0  0  0  0
    5.9983  -12.1827   26.0276 C   0  0  0  0  0  0  0  0  0  0  0  0
    6.9440  -11.2032   26.1979 C   0  0  0  0  0  0  0  0  0  0  0  0
    8.2543  -11.5754   26.3676 C   0  0  0  0  0  0  0  0  0  0  0  0
    8.6142  -12.9125   26.3670 C   0  0  0  0  0  0  0  0  0  0  0  0
    7.6963  -13.9252   26.1992 C   0  0  0  0  0  0  0  0  0  0  0  0
   10.9572  -17.2071   25.3303 O   0  0  0  0  0  0  0  0  0  0  0  0
   11.5343  -17.2622   26.4689 C   0  0  0  0  0  0  0  0  0  0  0  0
   11.5241  -21.0148   23.9032 C   0  0  2  0  0  0  0  0  0  0  0  0
   12.6221  -20.0703   23.5491 O   0  0  0  0  0  0  0  0  0  0  0  0
   12.5928  -19.7264   22.2272 C   0  0  2  0  0  0  0  0  0  0  0  0
   12.6544  -18.8748   24.4936 N   0  0  0  0  0  0  0  0  0  0  0  0
   11.5219  -18.0115   24.2917 C   0  0  0  0  0  0  0  0  0  0  0  0
   13.9655  -18.2323   24.3842 O   0  0  0  0  0  0  0  0  0  0  0  0
   15.1613  -18.8413   24.7159 O   0  0  0  0  0  0  0  0  0  0  0  0
  1  2  1  0
  2  4  1  0
  2  3  2  0
  4  5  1  0
  6  5  1  0
  7  6  1  0
  8  7  1  0
  8  9  1  1
 10  8  1  0
 10 11  2  0
 12 10  1  0
 13 12  1  0
 13 14  1  6
 15 16  2  0
 15 14  1  0
 17 16  1  0
 18 23  2  0
 18 17  1  0
 19 18  1  0
 20 21  1  0
 20 19  2  0
 21 22  2  0
 22 23  1  0
 23 15  1  0
 24 13  1  0
 25 24  2  0
 27 26  1  6
 27 28  1  0
 29 30  1  1
 29 27  1  0
 30 24  1  0
 31 29  1  0
 32 31  1  0
 33 31  2  0
M  END
$$$$
