RWT.pdb
     RDKit          3D

 33 34  0  0  1  0  0  0  0  0999 V2000
    7.6879  -12.7941   16.7427 N   0  0  0  0  0  0  0  0  0  0  0  0
    8.0412  -14.1012   16.2710 C   0  0  0  0  0  0  0  0  0  0  0  0
    7.3518  -14.6194   15.3246 N   0  0  0  0  0  0  0  0  0  0  0  0
    9.1268  -14.8131   16.8342 N   0  0  0  0  0  0  0  0  0  0  0  0
    9.2922  -14.9349   18.2559 C   0  0  0  0  0  0  0  0  0  0  0  0
    7.9409  -14.8004   18.9118 C   0  0  0  0  0  0  0  0  0  0  0  0
    8.0386  -14.8582   20.4209 C   0  0  0  0  0  0  0  0  0  0  0  0
    8.7669  -16.0629   20.9163 C   0  0  2  0  0  0  0  0  0  0  0  0
    8.0496  -17.2472   20.5247 N   0  0  0  0  0  0  0  0  0  0  0  0
    8.8893  -15.9501   22.4070 C   0  0  0  0  0  0  0  0  0  0  0  0
    9.4097  -14.9403   22.9458 O   0  0  0  0  0  0  0  0  0  0  0  0
    7.6436  -15.5308   14.9223 N   0  0  0  0  0  0  0  0  0  0  0  0
    8.4299  -16.9670   23.2851 C   0  0  1  0  0  0  0  0  0  0  0  0
    8.6661  -16.9982   24.7123 C   0  0  0  0  0  0  0  0  0  0  0  0
    7.4606  -16.7618   25.5250 C   0  0  0  0  0  0  0  0  0  0  0  0
    6.9262  -15.4293   25.6487 C   0  0  0  0  0  0  0  0  0  0  0  0
    5.6377  -15.0257   25.2982 N   0  0  0  0  0  0  0  0  0  0  0  0
    5.4739  -13.7275   25.5416 C   0  0  0  0  0  0  0  0  0  0  0  0
    6.6219  -13.2488   26.0472 C   0  0  0  0  0  0  0  0  0  0  0  0
    6.9300  -11.9683   26.4479 C   0  0  0  0  0  0  0  0  0  0  0  0
    8.1781  -11.6838   26.9421 C   0  0  0  0  0  0  0  0  0  0  0  0
    9.1000  -12.6974   27.0254 C   0  0  0  0  0  0  0  0  0  0  0  0
    8.7767  -13.9810   26.6190 C   0  0  0  0  0  0  0  0  0  0  0  0
    7.5363  -14.3075   26.1177 C   0  0  0  0  0  0  0  0  0  0  0  0
    9.6028  -18.0471   25.1482 O   0  0  0  0  0  0  0  0  0  0  0  0
    9.2133  -19.2594   25.2546 C   0  0  0  0  0  0  0  0  0  0  0  0
   14.2447  -19.6456   25.5937 C   0  0  2  0  0  0  0  0  0  0  0  0
   13.3031  -18.5274   25.2999 O   0  0  0  0  0  0  0  0  0  0  0  0
   13.3301  -18.1709   23.9813 C   0  0  1  0  0  0  0  0  0  0  0  0
   11.9045  -18.8242   25.8269 N   0  0  0  0  0  0  0  0  0  0  0  0
   10.9732  -17.7896   25.4650 C   0  0  0  0  0  0  0  0  0  0  0  0
   12.0000  -19.1150   27.2587 O   0  0  0  0  0  0  0  0  0  0  0  0
   12.6216  -20.2310   27.7870 O   0  0  0  0  0  0  0  0  0  0  0  0
  1  2  1  0
  2  4  1  0
  2  3  2  0
  4  5  1  0
  6  5  1  0
  7  6  1  0
  8  7  1  0
  8  9  1  1
 10  8  1  0
 10 11  2  0
 12 10  1  0
 13 12  1  0
 13 14  1  6
 15 16  2  0
 15 14  1  0
 17 16  1  0
 18 23  2  0
 18 17  1  0
 19 18  1  0
 20 21  1  0
 20 19  2  0
 21 22  2  0
 22 23  1  0
 23 15  1  0
 24 13  1  0
 25 24  2  0
 27 26  1  1
 27 28  1  0
 29 30  1  1
 29 27  1  0
 30 24  1  0
 31 29  1  0
 32 31  1  0
 33 31  2  0
M  END
$$$$
