RWT.pdb
     RDKit          3D

 33 34  0  0  1  0  0  0  0  0999 V2000
    8.2061  -21.8863   19.5890 N   0  0  0  0  0  0  0  0  0  0  0  0
    8.0159  -21.8333   18.1687 C   0  0  0  0  0  0  0  0  0  0  0  0
    7.0685  -22.5211   17.6502 N   0  0  0  0  0  0  0  0  0  0  0  0
    8.8536  -21.0416   17.3478 N   0  0  0  0  0  0  0  0  0  0  0  0
    9.9901  -20.3435   17.8812 C   0  0  0  0  0  0  0  0  0  0  0  0
    9.6681  -18.8714   17.9391 C   0  0  0  0  0  0  0  0  0  0  0  0
    9.1615  -18.4584   19.3040 C   0  0  0  0  0  0  0  0  0  0  0  0
    8.6295  -17.0644   19.3357 C   0  0  2  0  0  0  0  0  0  0  0  0
    9.2108  -16.3085   18.2581 N   0  0  0  0  0  0  0  0  0  0  0  0
    8.9576  -16.4733   20.6746 C   0  0  0  0  0  0  0  0  0  0  0  0
   10.1121  -16.0505   20.9374 O   0  0  0  0  0  0  0  0  0  0  0  0
    6.9757  -22.5622   16.6171 N   0  0  0  0  0  0  0  0  0  0  0  0
    7.9934  -16.3596   21.7107 C   0  0  2  0  0  0  0  0  0  0  0  0
    8.2670  -15.8803   23.0483 C   0  0  0  0  0  0  0  0  0  0  0  0
    7.1133  -15.2415   23.7042 C   0  0  0  0  0  0  0  0  0  0  0  0
    7.2581  -14.6721   25.0199 C   0  0  0  0  0  0  0  0  0  0  0  0
    7.5433  -15.3738   26.1914 N   0  0  0  0  0  0  0  0  0  0  0  0
    7.6079  -14.5422   27.2284 C   0  0  0  0  0  0  0  0  0  0  0  0
    7.3727  -13.2980   26.7819 C   0  0  0  0  0  0  0  0  0  0  0  0
    7.3351  -12.1137   27.4830 C   0  0  0  0  0  0  0  0  0  0  0  0
    7.0731  -10.9358   26.8297 C   0  0  0  0  0  0  0  0  0  0  0  0
    6.8525  -10.9690   25.4752 C   0  0  0  0  0  0  0  0  0  0  0  0
    6.8936  -12.1672   24.7824 C   0  0  0  0  0  0  0  0  0  0  0  0
    7.1528  -13.3703   25.4005 C   0  0  0  0  0  0  0  0  0  0  0  0
    9.1134  -16.7780   23.8517 O   0  0  0  0  0  0  0  0  0  0  0  0
    8.7961  -18.0069   23.9993 C   0  0  0  0  0  0  0  0  0  0  0  0
   12.6047  -17.6993   23.2153 C   0  0  2  0  0  0  0  0  0  0  0  0
   12.5954  -17.2376   24.6330 O   0  0  0  0  0  0  0  0  0  0  0  0
   13.2468  -16.0465   24.7859 C   0  0  2  0  0  0  0  0  0  0  0  0
   11.1857  -17.2448   25.2118 N   0  0  0  0  0  0  0  0  0  0  0  0
   10.3163  -16.3503   24.4958 C   0  0  0  0  0  0  0  0  0  0  0  0
   11.2755  -17.0171   26.6553 O   0  0  0  0  0  0  0  0  0  0  0  0
   11.9128  -17.8672   27.5397 O   0  0  0  0  0  0  0  0  0  0  0  0
  1  2  1  0
  2  4  1  0
  2  3  2  0
  4  5  1  0
  6  5  1  0
  7  6  1  0
  8  7  1  0
  8  9  1  6
 10  8  1  0
 10 11  2  0
 12 10  1  0
 13 12  1  0
 13 14  1  6
 15 16  2  0
 15 14  1  0
 17 16  1  0
 18 23  2  0
 18 17  1  0
 19 18  1  0
 20 21  1  0
 20 19  2  0
 21 22  2  0
 22 23  1  0
 23 15  1  0
 24 13  1  0
 25 24  2  0
 27 26  1  1
 27 28  1  0
 29 30  1  1
 29 27  1  0
 30 24  1  0
 31 29  1  0
 32 31  1  0
 33 31  2  0
M  END
$$$$
