RWT.pdb
     RDKit          3D

 33 34  0  0  1  0  0  0  0  0999 V2000
    7.9509  -12.7528   17.4186 N   0  0  0  0  0  0  0  0  0  0  0  0
    8.4535  -12.7456   18.7615 C   0  0  0  0  0  0  0  0  0  0  0  0
    8.9423  -11.6581   19.2281 N   0  0  0  0  0  0  0  0  0  0  0  0
    8.4161  -13.9116   19.5625 N   0  0  0  0  0  0  0  0  0  0  0  0
    7.7014  -15.0873   19.1498 C   0  0  0  0  0  0  0  0  0  0  0  0
    7.2556  -15.8371   20.3798 C   0  0  0  0  0  0  0  0  0  0  0  0
    8.3377  -16.7570   20.9023 C   0  0  0  0  0  0  0  0  0  0  0  0
    7.9032  -17.5655   22.0791 C   0  0  2  0  0  0  0  0  0  0  0  0
    6.4668  -17.5510   22.1623 N   0  0  0  0  0  0  0  0  0  0  0  0
    8.5406  -16.9803   23.3043 C   0  0  0  0  0  0  0  0  0  0  0  0
    9.1609  -15.8876   23.2602 O   0  0  0  0  0  0  0  0  0  0  0  0
    9.2826  -11.6323   20.2085 N   0  0  0  0  0  0  0  0  0  0  0  0
    8.4809  -17.6209   24.5701 C   0  0  1  0  0  0  0  0  0  0  0  0
    9.2774  -17.2561   25.7217 C   0  0  0  0  0  0  0  0  0  0  0  0
    8.5567  -16.4431   26.7163 C   0  0  0  0  0  0  0  0  0  0  0  0
    7.5582  -15.4977   26.2855 C   0  0  0  0  0  0  0  0  0  0  0  0
    6.2638  -15.8047   25.8656 N   0  0  0  0  0  0  0  0  0  0  0  0
    5.6053  -14.6957   25.5376 C   0  0  0  0  0  0  0  0  0  0  0  0
    6.4263  -13.6504   25.7269 C   0  0  0  0  0  0  0  0  0  0  0  0
    6.1902  -12.3094   25.5230 C   0  0  0  0  0  0  0  0  0  0  0  0
    7.1765  -11.3907   25.7798 C   0  0  0  0  0  0  0  0  0  0  0  0
    8.3899  -11.8384   26.2399 C   0  0  0  0  0  0  0  0  0  0  0  0
    8.6137  -13.1900   26.4407 C   0  0  0  0  0  0  0  0  0  0  0  0
    7.6509  -14.1435   26.1951 C   0  0  0  0  0  0  0  0  0  0  0  0
   10.1622  -18.3269   26.2097 O   0  0  0  0  0  0  0  0  0  0  0  0
    9.6709  -19.3925   26.7155 C   0  0  0  0  0  0  0  0  0  0  0  0
   13.5402  -19.6478   24.4219 C   0  0  2  0  0  0  0  0  0  0  0  0
   13.7660  -19.3393   25.8632 O   0  0  0  0  0  0  0  0  0  0  0  0
   14.5425  -18.2279   26.0314 C   0  0  2  0  0  0  0  0  0  0  0  0
   12.4529  -19.2932   26.6351 N   0  0  0  0  0  0  0  0  0  0  0  0
   11.5888  -18.2530   26.1454 C   0  0  0  0  0  0  0  0  0  0  0  0
   12.7575  -19.2392   28.0662 O   0  0  0  0  0  0  0  0  0  0  0  0
   13.4416  -20.2238   28.7545 O   0  0  0  0  0  0  0  0  0  0  0  0
  1  2  1  0
  2  4  1  0
  2  3  2  0
  4  5  1  0
  6  5  1  0
  7  6  1  0
  8  7  1  0
  8  9  1  1
 10  8  1  0
 10 11  2  0
 12 10  1  0
 13 12  1  0
 13 14  1  1
 15 16  2  0
 15 14  1  0
 17 16  1  0
 18 23  2  0
 18 17  1  0
 19 18  1  0
 20 21  1  0
 20 19  2  0
 21 22  2  0
 22 23  1  0
 23 15  1  0
 24 13  1  0
 25 24  2  0
 27 26  1  6
 27 28  1  0
 29 30  1  1
 29 27  1  0
 30 24  1  0
 31 29  1  0
 32 31  1  0
 33 31  2  0
M  END
$$$$
