RWT.pdb
     RDKit          3D

 33 34  0  0  1  0  0  0  0  0999 V2000
   11.4774  -18.7357   16.3612 N   0  0  0  0  0  0  0  0  0  0  0  0
   11.3483  -19.8092   17.3029 C   0  0  0  0  0  0  0  0  0  0  0  0
   10.7559  -20.8824   16.9330 N   0  0  0  0  0  0  0  0  0  0  0  0
   11.8604  -19.6946   18.6171 N   0  0  0  0  0  0  0  0  0  0  0  0
   12.5710  -18.5237   19.0499 C   0  0  0  0  0  0  0  0  0  0  0  0
   11.5705  -17.5022   19.5292 C   0  0  0  0  0  0  0  0  0  0  0  0
   11.3945  -17.5474   21.0316 C   0  0  0  0  0  0  0  0  0  0  0  0
    9.9715  -17.4116   21.4603 C   0  0  2  0  0  0  0  0  0  0  0  0
    9.3121  -16.4454   20.6224 N   0  0  0  0  0  0  0  0  0  0  0  0
    9.9590  -17.0021   22.9032 C   0  0  0  0  0  0  0  0  0  0  0  0
   10.7869  -16.1701   23.3539 O   0  0  0  0  0  0  0  0  0  0  0  0
   10.6351  -21.6575   17.6128 N   0  0  0  0  0  0  0  0  0  0  0  0
    9.0219  -17.5258   23.8325 C   0  0  2  0  0  0  0  0  0  0  0  0
    8.9656  -17.1804   25.2365 C   0  0  0  0  0  0  0  0  0  0  0  0
    7.6673  -16.6348   25.6683 C   0  0  0  0  0  0  0  0  0  0  0  0
    7.2143  -15.3659   25.1574 C   0  0  0  0  0  0  0  0  0  0  0  0
    6.6201  -15.1461   23.9146 N   0  0  0  0  0  0  0  0  0  0  0  0
    6.3234  -13.8578   23.7616 C   0  0  0  0  0  0  0  0  0  0  0  0
    6.7044  -13.2062   24.8719 C   0  0  0  0  0  0  0  0  0  0  0  0
    6.6030  -11.8668   25.1738 C   0  0  0  0  0  0  0  0  0  0  0  0
    7.0598  -11.3970   26.3794 C   0  0  0  0  0  0  0  0  0  0  0  0
    7.6136  -12.2870   27.2658 C   0  0  0  0  0  0  0  0  0  0  0  0
    7.7091  -13.6317   26.9494 C   0  0  0  0  0  0  0  0  0  0  0  0
    7.2629  -14.1428   25.7510 C   0  0  0  0  0  0  0  0  0  0  0  0
    9.6459  -18.1385   26.1234 O   0  0  0  0  0  0  0  0  0  0  0  0
    9.0197  -19.1534   26.5822 C   0  0  0  0  0  0  0  0  0  0  0  0
   13.8922  -20.1192   27.7086 C   0  0  2  0  0  0  0  0  0  0  0  0
   13.1921  -19.0397   26.9550 O   0  0  0  0  0  0  0  0  0  0  0  0
   13.4455  -19.1067   25.6142 C   0  0  1  0  0  0  0  0  0  0  0  0
   11.7079  -18.9939   27.2976 N   0  0  0  0  0  0  0  0  0  0  0  0
   11.0153  -18.0067   26.5138 C   0  0  0  0  0  0  0  0  0  0  0  0
   11.5706  -18.8577   28.7489 O   0  0  0  0  0  0  0  0  0  0  0  0
   11.9662  -19.8172   29.6621 O   0  0  0  0  0  0  0  0  0  0  0  0
  1  2  1  0
  2  4  1  0
  2  3  2  0
  4  5  1  0
  6  5  1  0
  7  6  1  0
  8  7  1  0
  8  9  1  6
 10  8  1  0
 10 11  2  0
 12 10  1  0
 13 12  1  0
 13 14  1  6
 15 16  2  0
 15 14  1  0
 17 16  1  0
 18 23  2  0
 18 17  1  0
 19 18  1  0
 20 21  1  0
 20 19  2  0
 21 22  2  0
 22 23  1  0
 23 15  1  0
 24 13  1  0
 25 24  2  0
 27 26  1  1
 27 28  1  0
 29 30  1  1
 29 27  1  0
 30 24  1  0
 31 29  1  0
 32 31  1  0
 33 31  2  0
M  END
$$$$
