RWT.pdb
     RDKit          3D

 33 34  0  0  1  0  0  0  0  0999 V2000
    8.9701  -13.2268   15.7833 N   0  0  0  0  0  0  0  0  0  0  0  0
    8.0070  -13.7561   16.7044 C   0  0  0  0  0  0  0  0  0  0  0  0
    7.3122  -14.7715   16.3500 N   0  0  0  0  0  0  0  0  0  0  0  0
    7.8194  -13.1746   17.9807 N   0  0  0  0  0  0  0  0  0  0  0  0
    6.7548  -13.5920   18.8503 C   0  0  0  0  0  0  0  0  0  0  0  0
    7.1144  -14.9305   19.4444 C   0  0  0  0  0  0  0  0  0  0  0  0
    8.1752  -14.8048   20.5163 C   0  0  0  0  0  0  0  0  0  0  0  0
    8.6427  -16.1229   21.0371 C   0  0  2  0  0  0  0  0  0  0  0  0
    7.5063  -16.9778   21.2572 N   0  0  0  0  0  0  0  0  0  0  0  0
    9.4103  -15.8759   22.3019 C   0  0  0  0  0  0  0  0  0  0  0  0
   10.4221  -15.1299   22.3175 O   0  0  0  0  0  0  0  0  0  0  0  0
    6.6835  -15.2245   17.0408 N   0  0  0  0  0  0  0  0  0  0  0  0
    9.0421  -16.4650   23.5402 C   0  0  1  0  0  0  0  0  0  0  0  0
    9.8011  -16.3570   24.7674 C   0  0  0  0  0  0  0  0  0  0  0  0
    8.9757  -16.1214   25.9644 C   0  0  0  0  0  0  0  0  0  0  0  0
    7.8131  -15.2742   25.8813 C   0  0  0  0  0  0  0  0  0  0  0  0
    6.5099  -15.6925   25.6120 N   0  0  0  0  0  0  0  0  0  0  0  0
    5.6785  -14.6533   25.6085 C   0  0  0  0  0  0  0  0  0  0  0  0
    6.3920  -13.5462   25.8689 C   0  0  0  0  0  0  0  0  0  0  0  0
    5.9683  -12.2398   25.9662 C   0  0  0  0  0  0  0  0  0  0  0  0
    6.8700  -11.2432   26.2424 C   0  0  0  0  0  0  0  0  0  0  0  0
    8.1895  -11.5788   26.4172 C   0  0  0  0  0  0  0  0  0  0  0  0
    8.6020  -12.8969   26.3168 C   0  0  0  0  0  0  0  0  0  0  0  0
    7.7292  -13.9258   26.0411 C   0  0  0  0  0  0  0  0  0  0  0  0
   10.9211  -17.3068   24.8721 O   0  0  0  0  0  0  0  0  0  0  0  0
   10.8068  -18.3678   25.5748 C   0  0  0  0  0  0  0  0  0  0  0  0
   13.0296  -18.7018   21.8607 C   0  0  2  0  0  0  0  0  0  0  0  0
   13.9526  -18.1971   22.9174 O   0  0  0  0  0  0  0  0  0  0  0  0
   14.5989  -17.0580   22.5287 C   0  0  2  0  0  0  0  0  0  0  0  0
   13.2454  -18.0731   24.2616 N   0  0  0  0  0  0  0  0  0  0  0  0
   12.1731  -17.1161   24.2079 C   0  0  0  0  0  0  0  0  0  0  0  0
   14.2536  -17.8340   25.2961 O   0  0  0  0  0  0  0  0  0  0  0  0
   15.2547  -18.7272   25.6291 O   0  0  0  0  0  0  0  0  0  0  0  0
  1  2  1  0
  2  4  1  0
  2  3  2  0
  4  5  1  0
  6  5  1  0
  7  6  1  0
  8  7  1  0
  8  9  1  1
 10  8  1  0
 10 11  2  0
 12 10  1  0
 13 12  1  0
 13 14  1  6
 15 16  2  0
 15 14  1  0
 17 16  1  0
 18 23  2  0
 18 17  1  0
 19 18  1  0
 20 21  1  0
 20 19  2  0
 21 22  2  0
 22 23  1  0
 23 15  1  0
 24 13  1  0
 25 24  2  0
 27 26  1  6
 27 28  1  0
 29 30  1  1
 29 27  1  0
 30 24  1  0
 31 29  1  0
 32 31  1  0
 33 31  2  0
M  END
$$$$
