RWT.pdb
     RDKit          3D

 33 34  0  0  1  0  0  0  0  0999 V2000
    7.9522  -12.3072   17.2510 N   0  0  0  0  0  0  0  0  0  0  0  0
    7.7867  -13.5932   16.6387 C   0  0  0  0  0  0  0  0  0  0  0  0
    8.2975  -13.7924   15.4816 N   0  0  0  0  0  0  0  0  0  0  0  0
    7.0741  -14.6274   17.2907 N   0  0  0  0  0  0  0  0  0  0  0  0
    7.0061  -14.7090   18.7233 C   0  0  0  0  0  0  0  0  0  0  0  0
    8.3642  -14.3794   19.2899 C   0  0  0  0  0  0  0  0  0  0  0  0
    8.4186  -14.5976   20.7864 C   0  0  0  0  0  0  0  0  0  0  0  0
    8.8405  -15.9786   21.1634 C   0  0  2  0  0  0  0  0  0  0  0  0
    7.7272  -16.8763   21.0047 N   0  0  0  0  0  0  0  0  0  0  0  0
    9.3328  -15.9426   22.5798 C   0  0  0  0  0  0  0  0  0  0  0  0
   10.2653  -15.1748   22.9285 O   0  0  0  0  0  0  0  0  0  0  0  0
    8.2515  -14.7404   15.0611 N   0  0  0  0  0  0  0  0  0  0  0  0
    8.7801  -16.7656   23.5962 C   0  0  1  0  0  0  0  0  0  0  0  0
    9.2870  -16.8664   24.9477 C   0  0  0  0  0  0  0  0  0  0  0  0
    8.3039  -16.5103   25.9852 C   0  0  0  0  0  0  0  0  0  0  0  0
    7.3728  -15.4350   25.7552 C   0  0  0  0  0  0  0  0  0  0  0  0
    6.0757  -15.5643   25.2583 N   0  0  0  0  0  0  0  0  0  0  0  0
    5.4899  -14.3725   25.1696 C   0  0  0  0  0  0  0  0  0  0  0  0
    6.3626  -13.4450   25.5948 C   0  0  0  0  0  0  0  0  0  0  0  0
    6.2080  -12.0799   25.6844 C   0  0  0  0  0  0  0  0  0  0  0  0
    7.2366  -11.3004   26.1506 C   0  0  0  0  0  0  0  0  0  0  0  0
    8.4093  -11.9102   26.5209 C   0  0  0  0  0  0  0  0  0  0  0  0
    8.5512  -13.2844   26.4259 C   0  0  0  0  0  0  0  0  0  0  0  0
    7.5438  -14.1015   25.9634 C   0  0  0  0  0  0  0  0  0  0  0  0
   10.1542  -18.0325   25.1837 O   0  0  0  0  0  0  0  0  0  0  0  0
    9.6525  -19.2038   25.2788 C   0  0  0  0  0  0  0  0  0  0  0  0
   13.1252  -19.0771   23.0769 C   0  0  2  0  0  0  0  0  0  0  0  0
   13.5973  -19.0509   24.4910 O   0  0  0  0  0  0  0  0  0  0  0  0
   14.4749  -18.0285   24.7169 C   0  0  2  0  0  0  0  0  0  0  0  0
   12.4290  -19.0843   25.4688 N   0  0  0  0  0  0  0  0  0  0  0  0
   11.5753  -17.9376   25.3109 C   0  0  0  0  0  0  0  0  0  0  0  0
   12.9584  -19.2963   26.8173 O   0  0  0  0  0  0  0  0  0  0  0  0
   13.6442  -20.4285   27.2157 O   0  0  0  0  0  0  0  0  0  0  0  0
  1  2  1  0
  2  4  1  0
  2  3  2  0
  4  5  1  0
  6  5  1  0
  7  6  1  0
  8  7  1  0
  8  9  1  1
 10  8  1  0
 10 11  2  0
 12 10  1  0
 13 12  1  0
 13 14  1  1
 15 16  2  0
 15 14  1  0
 17 16  1  0
 18 23  2  0
 18 17  1  0
 19 18  1  0
 20 21  1  0
 20 19  2  0
 21 22  2  0
 22 23  1  0
 23 15  1  0
 24 13  1  0
 25 24  2  0
 27 26  1  6
 27 28  1  0
 29 30  1  1
 29 27  1  0
 30 24  1  0
 31 29  1  0
 32 31  1  0
 33 31  2  0
M  END
$$$$
