RWT.pdb
     RDKit          3D

 33 34  0  0  1  0  0  0  0  0999 V2000
    8.9508  -14.1881   13.9604 N   0  0  0  0  0  0  0  0  0  0  0  0
    8.9252  -15.5228   14.4839 C   0  0  0  0  0  0  0  0  0  0  0  0
    7.9217  -16.2699   14.2114 N   0  0  0  0  0  0  0  0  0  0  0  0
    9.9816  -16.0135   15.2874 N   0  0  0  0  0  0  0  0  0  0  0  0
   10.3345  -15.3895   16.5322 C   0  0  0  0  0  0  0  0  0  0  0  0
    9.4186  -15.9121   17.6102 C   0  0  0  0  0  0  0  0  0  0  0  0
    9.6723  -15.2380   18.9412 C   0  0  0  0  0  0  0  0  0  0  0  0
   10.3038  -16.1425   19.9463 C   0  0  2  0  0  0  0  0  0  0  0  0
    9.7909  -17.4761   19.7752 N   0  0  0  0  0  0  0  0  0  0  0  0
   10.0044  -15.5989   21.3119 C   0  0  0  0  0  0  0  0  0  0  0  0
   10.3670  -14.4435   21.6496 O   0  0  0  0  0  0  0  0  0  0  0  0
    7.8780  -17.2283   14.6079 N   0  0  0  0  0  0  0  0  0  0  0  0
    9.3025  -16.3508   22.2907 C   0  0  2  0  0  0  0  0  0  0  0  0
    8.9264  -15.8610   23.5993 C   0  0  0  0  0  0  0  0  0  0  0  0
    7.4715  -15.7746   23.8120 C   0  0  0  0  0  0  0  0  0  0  0  0
    6.9498  -15.0064   24.9138 C   0  0  0  0  0  0  0  0  0  0  0  0
    6.2551  -15.5134   26.0122 N   0  0  0  0  0  0  0  0  0  0  0  0
    5.9170  -14.5306   26.8434 C   0  0  0  0  0  0  0  0  0  0  0  0
    6.3676  -13.3749   26.3299 C   0  0  0  0  0  0  0  0  0  0  0  0
    6.2568  -12.0973   26.8308 C   0  0  0  0  0  0  0  0  0  0  0  0
    6.7932  -11.0393   26.1412 C   0  0  0  0  0  0  0  0  0  0  0  0
    7.4355  -11.2852   24.9532 C   0  0  0  0  0  0  0  0  0  0  0  0
    7.5399  -12.5753   24.4610 C   0  0  0  0  0  0  0  0  0  0  0  0
    7.0156  -13.6636   25.1220 C   0  0  0  0  0  0  0  0  0  0  0  0
    9.7601  -16.3723   24.6998 O   0  0  0  0  0  0  0  0  0  0  0  0
   10.2975  -17.5289   24.6214 C   0  0  0  0  0  0  0  0  0  0  0  0
   11.2576  -13.8359   27.8204 C   0  0  2  0  0  0  0  0  0  0  0  0
   10.7858  -15.2036   28.1811 O   0  0  0  0  0  0  0  0  0  0  0  0
    9.5809  -15.1746   28.8244 C   0  0  2  0  0  0  0  0  0  0  0  0
   10.8168  -16.1386   26.9781 N   0  0  0  0  0  0  0  0  0  0  0  0
   10.0238  -15.6283   25.8922 C   0  0  0  0  0  0  0  0  0  0  0  0
   10.4739  -17.4883   27.4304 O   0  0  0  0  0  0  0  0  0  0  0  0
    9.3238  -18.1630   27.0659 O   0  0  0  0  0  0  0  0  0  0  0  0
  1  2  1  0
  2  4  1  0
  2  3  2  0
  4  5  1  0
  6  5  1  0
  7  6  1  0
  8  7  1  0
  8  9  1  1
 10  8  1  0
 10 11  2  0
 12 10  1  0
 13 12  1  0
 13 14  1  6
 15 16  2  0
 15 14  1  0
 17 16  1  0
 18 23  2  0
 18 17  1  0
 19 18  1  0
 20 21  1  0
 20 19  2  0
 21 22  2  0
 22 23  1  0
 23 15  1  0
 24 13  1  0
 25 24  2  0
 27 26  1  1
 27 28  1  0
 29 30  1  1
 29 27  1  0
 30 24  1  0
 31 29  1  0
 32 31  1  0
 33 31  2  0
M  END
$$$$
