RWT.pdb
     RDKit          3D

 33 34  0  0  1  0  0  0  0  0999 V2000
    7.9094  -11.7593   19.0275 N   0  0  0  0  0  0  0  0  0  0  0  0
    8.0758  -13.0182   18.3614 C   0  0  0  0  0  0  0  0  0  0  0  0
    8.4321  -13.0196   17.1316 N   0  0  0  0  0  0  0  0  0  0  0  0
    7.8520  -14.2397   19.0399 N   0  0  0  0  0  0  0  0  0  0  0  0
    8.6844  -14.6584   20.1331 C   0  0  0  0  0  0  0  0  0  0  0  0
    9.3931  -15.9300   19.7400 C   0  0  0  0  0  0  0  0  0  0  0  0
   10.3207  -16.4189   20.8313 C   0  0  0  0  0  0  0  0  0  0  0  0
    9.6427  -17.3002   21.8268 C   0  0  2  0  0  0  0  0  0  0  0  0
    8.2172  -17.2002   21.6580 N   0  0  0  0  0  0  0  0  0  0  0  0
   10.0754  -16.8702   23.1971 C   0  0  0  0  0  0  0  0  0  0  0  0
   11.2876  -16.8716   23.5304 O   0  0  0  0  0  0  0  0  0  0  0  0
    8.6083  -13.9240   16.6535 N   0  0  0  0  0  0  0  0  0  0  0  0
    9.1502  -16.4425   24.1855 C   0  0  2  0  0  0  0  0  0  0  0  0
    9.1587  -16.8688   25.5682 C   0  0  0  0  0  0  0  0  0  0  0  0
    7.8475  -16.7752   26.2329 C   0  0  0  0  0  0  0  0  0  0  0  0
    7.0785  -15.5602   26.1392 C   0  0  0  0  0  0  0  0  0  0  0  0
    5.6898  -15.4731   26.0406 N   0  0  0  0  0  0  0  0  0  0  0  0
    5.3067  -14.2004   25.9717 C   0  0  0  0  0  0  0  0  0  0  0  0
    6.4051  -13.4299   26.0215 C   0  0  0  0  0  0  0  0  0  0  0  0
    6.5087  -12.0576   25.9819 C   0  0  0  0  0  0  0  0  0  0  0  0
    7.7418  -11.4590   26.0458 C   0  0  0  0  0  0  0  0  0  0  0  0
    8.8556  -12.2547   26.1491 C   0  0  0  0  0  0  0  0  0  0  0  0
    8.7368  -13.6337   26.1881 C   0  0  0  0  0  0  0  0  0  0  0  0
    7.5186  -14.2730   26.1266 C   0  0  0  0  0  0  0  0  0  0  0  0
    9.9868  -18.0575   25.8303 O   0  0  0  0  0  0  0  0  0  0  0  0
    9.5079  -19.2301   25.6620 C   0  0  0  0  0  0  0  0  0  0  0  0
   13.7914  -19.2455   25.2403 C   0  0  2  0  0  0  0  0  0  0  0  0
   13.5049  -19.0594   26.6917 O   0  0  0  0  0  0  0  0  0  0  0  0
   14.1634  -17.9791   27.2073 C   0  0  2  0  0  0  0  0  0  0  0  0
   12.0062  -19.0535   26.9671 N   0  0  0  0  0  0  0  0  0  0  0  0
   11.3454  -17.9829   26.2701 C   0  0  0  0  0  0  0  0  0  0  0  0
   11.8005  -19.0849   28.4164 O   0  0  0  0  0  0  0  0  0  0  0  0
   11.2426  -18.0521   29.1464 O   0  0  0  0  0  0  0  0  0  0  0  0
  1  2  1  0
  2  4  1  0
  2  3  2  0
  4  5  1  0
  6  5  1  0
  7  6  1  0
  8  7  1  0
  8  9  1  1
 10  8  1  0
 10 11  2  0
 12 10  1  0
 13 12  1  0
 13 14  1  1
 15 16  2  0
 15 14  1  0
 17 16  1  0
 18 23  2  0
 18 17  1  0
 19 18  1  0
 20 21  1  0
 20 19  2  0
 21 22  2  0
 22 23  1  0
 23 15  1  0
 24 13  1  0
 25 24  2  0
 27 26  1  1
 27 28  1  0
 29 30  1  1
 29 27  1  0
 30 24  1  0
 31 29  1  0
 32 31  1  0
 33 31  2  0
M  END
$$$$
