TKC.pdb
     RDKit          3D

 23 22  0  0  1  0  0  0  0  0999 V2000
   28.6988  -18.5865  -16.8609 C   0  0  0  0  0  0  0  0  0  0  0  0
   27.5940  -19.2482  -16.0843 C   0  0  1  0  0  0  0  0  0  0  0  0
   26.4309  -19.3886  -16.8703 O   0  0  0  0  0  0  0  0  0  0  0  0
   27.9556  -20.6465  -15.6272 C   0  0  2  0  0  0  0  0  0  0  0  0
   28.1959  -21.5294  -16.7500 N   0  0  0  0  0  0  0  0  0  0  0  0
   26.9452  -21.1878  -14.6798 C   0  0  0  0  0  0  0  0  0  0  0  0
   26.1760  -22.0668  -15.0936 O   0  0  0  0  0  0  0  0  0  0  0  0
   26.8660  -20.7137  -13.3504 N   0  0  0  0  0  0  0  0  0  0  0  0
   25.7779  -21.1537  -12.4318 C   0  0  1  0  0  0  0  0  0  0  0  0
   26.1711  -20.6521  -11.0849 C   0  0  0  0  0  0  0  0  0  0  0  0
   25.3881  -21.1185   -9.9178 C   0  0  0  0  0  0  0  0  0  0  0  0
   23.9584  -20.6698   -9.9087 C   0  0  0  0  0  0  0  0  0  0  0  0
   23.3179  -21.0138   -8.5755 C   0  0  0  0  0  0  0  0  0  0  0  0
   21.9537  -20.5467   -8.5356 N   0  0  0  0  0  0  0  0  0  0  0  0
   24.5361  -20.6014  -12.9937 C   0  0  0  0  0  0  0  0  0  0  0  0
   24.4677  -19.3620  -13.2101 O   0  0  0  0  0  0  0  0  0  0  0  0
   23.3961  -21.3803  -13.3151 N   0  0  0  0  0  0  0  0  0  0  0  0
   22.2030  -20.7935  -13.9163 C   0  0  1  0  0  0  0  0  0  0  0  0
   22.0349  -21.2538  -15.3478 C   0  0  0  0  0  0  0  0  0  0  0  0
   20.3657  -21.8621  -15.6554 S   0  0  0  0  0  0  0  0  0  0  0  0
   21.0313  -21.2117  -13.1438 C   0  0  0  0  0  0  0  0  0  0  0  0
   19.8303  -20.5204  -13.3312 O   0  0  0  0  0  0  0  0  0  0  0  0
   21.0276  -22.1578  -12.3153 O   0  0  0  0  0  0  0  0  0  0  0  0
  2  1  1  6
  2  4  1  0
  3  2  1  0
  4  6  1  0
  4  5  1  6
  6  8  1  0
  7  6  2  0
  8  9  1  0
  9 10  1  1
 10 11  1  0
 11 12  1  0
 12 13  1  0
 13 14  1  0
 15 17  1  0
 15  9  1  0
 16 15  2  0
 18 17  1  0
 18 19  1  6
 19 20  1  0
 21 18  1  0
 22 21  1  0
 23 21  2  0
M  END
$$$$
