TKC.pdb
     RDKit          3D

 23 22  0  0  1  0  0  0  0  0999 V2000
   25.0868  -12.5364  -19.9076 C   0  0  0  0  0  0  0  0  0  0  0  0
   23.6780  -12.1128  -19.5957 C   0  0  1  0  0  0  0  0  0  0  0  0
   23.1885  -11.2138  -20.5665 O   0  0  0  0  0  0  0  0  0  0  0  0
   22.7065  -13.2752  -19.5813 C   0  0  2  0  0  0  0  0  0  0  0  0
   22.6245  -13.9179  -20.8767 N   0  0  0  0  0  0  0  0  0  0  0  0
   21.3751  -12.8654  -19.0605 C   0  0  0  0  0  0  0  0  0  0  0  0
   20.5611  -12.3882  -19.8638 O   0  0  0  0  0  0  0  0  0  0  0  0
   21.0503  -13.0161  -17.6931 N   0  0  0  0  0  0  0  0  0  0  0  0
   19.6830  -12.7156  -17.1812 C   0  0  1  0  0  0  0  0  0  0  0  0
   19.4359  -13.7151  -16.1042 C   0  0  0  0  0  0  0  0  0  0  0  0
   19.0292  -15.0805  -16.5083 C   0  0  0  0  0  0  0  0  0  0  0  0
   18.6499  -15.9787  -15.3704 C   0  0  0  0  0  0  0  0  0  0  0  0
   18.2090  -17.3302  -15.9043 C   0  0  0  0  0  0  0  0  0  0  0  0
   17.9453  -18.2407  -14.8171 N   0  0  0  0  0  0  0  0  0  0  0  0
   19.7161  -11.3057  -16.7640 C   0  0  0  0  0  0  0  0  0  0  0  0
   20.7698  -10.8528  -16.2423 O   0  0  0  0  0  0  0  0  0  0  0  0
   18.6284  -10.4089  -16.9135 N   0  0  0  0  0  0  0  0  0  0  0  0
   18.7131   -9.0138  -16.4942 C   0  0  1  0  0  0  0  0  0  0  0  0
   17.7966   -8.1417  -17.3241 C   0  0  0  0  0  0  0  0  0  0  0  0
   17.7729   -6.4433  -16.7193 S   0  0  0  0  0  0  0  0  0  0  0  0
   18.3128   -8.9186  -15.0888 C   0  0  0  0  0  0  0  0  0  0  0  0
   19.0156   -8.0429  -14.2553 O   0  0  0  0  0  0  0  0  0  0  0  0
   17.3726   -9.5747  -14.5721 O   0  0  0  0  0  0  0  0  0  0  0  0
  2  1  1  6
  2  4  1  0
  3  2  1  0
  4  6  1  0
  4  5  1  6
  6  8  1  0
  7  6  2  0
  8  9  1  0
  9 10  1  1
 10 11  1  0
 11 12  1  0
 12 13  1  0
 13 14  1  0
 15 17  1  0
 15  9  1  0
 16 15  2  0
 18 17  1  0
 18 19  1  6
 19 20  1  0
 21 18  1  0
 22 21  1  0
 23 21  2  0
M  END
$$$$
