TKC.pdb
     RDKit          3D

 23 22  0  0  1  0  0  0  0  0999 V2000
   22.2655  -17.4985  -17.0350 C   0  0  0  0  0  0  0  0  0  0  0  0
   21.5525  -17.8248  -15.7517 C   0  0  1  0  0  0  0  0  0  0  0  0
   20.3047  -17.1705  -15.6804 O   0  0  0  0  0  0  0  0  0  0  0  0
   21.2533  -19.3029  -15.6073 C   0  0  2  0  0  0  0  0  0  0  0  0
   20.5307  -19.5838  -14.3838 N   0  0  0  0  0  0  0  0  0  0  0  0
   22.4856  -20.1237  -15.7454 C   0  0  0  0  0  0  0  0  0  0  0  0
   23.2345  -20.2137  -14.7622 O   0  0  0  0  0  0  0  0  0  0  0  0
   22.7915  -20.7795  -16.9597 N   0  0  0  0  0  0  0  0  0  0  0  0
   23.9632  -21.6934  -17.0759 C   0  0  1  0  0  0  0  0  0  0  0  0
   23.6113  -22.6506  -18.1622 C   0  0  0  0  0  0  0  0  0  0  0  0
   24.4829  -23.8328  -18.3512 C   0  0  0  0  0  0  0  0  0  0  0  0
   24.5114  -24.7767  -17.1878 C   0  0  0  0  0  0  0  0  0  0  0  0
   25.4527  -25.9313  -17.4827 C   0  0  0  0  0  0  0  0  0  0  0  0
   25.4959  -26.8447  -16.3672 N   0  0  0  0  0  0  0  0  0  0  0  0
   25.1221  -20.8235  -17.3267 C   0  0  0  0  0  0  0  0  0  0  0  0
   24.9722  -19.8115  -18.0623 O   0  0  0  0  0  0  0  0  0  0  0  0
   26.4137  -21.0483  -16.7874 N   0  0  0  0  0  0  0  0  0  0  0  0
   27.5303  -20.1472  -17.0530 C   0  0  1  0  0  0  0  0  0  0  0  0
   28.6892  -20.4311  -16.1227 C   0  0  0  0  0  0  0  0  0  0  0  0
   28.4141  -21.9321  -15.1623 S   0  0  0  0  0  0  0  0  0  0  0  0
   27.9741  -20.3408  -18.4351 C   0  0  0  0  0  0  0  0  0  0  0  0
   28.9204  -19.4550  -18.9597 O   0  0  0  0  0  0  0  0  0  0  0  0
   27.5609  -21.2562  -19.1920 O   0  0  0  0  0  0  0  0  0  0  0  0
  2  1  1  6
  2  4  1  0
  3  2  1  0
  4  6  1  0
  4  5  1  1
  6  8  1  0
  7  6  2  0
  8  9  1  0
  9 10  1  6
 10 11  1  0
 11 12  1  0
 12 13  1  0
 13 14  1  0
 15 17  1  0
 15  9  1  0
 16 15  2  0
 18 17  1  0
 18 19  1  1
 19 20  1  0
 21 18  1  0
 22 21  1  0
 23 21  2  0
M  END
$$$$
