TKC.pdb
     RDKit          3D

 23 22  0  0  1  0  0  0  0  0999 V2000
   24.6835  -21.1626  -17.4320 C   0  0  0  0  0  0  0  0  0  0  0  0
   25.5201  -22.4050  -17.2967 C   0  0  1  0  0  0  0  0  0  0  0  0
   26.6087  -22.3876  -18.1940 O   0  0  0  0  0  0  0  0  0  0  0  0
   26.1246  -22.5565  -15.9159 C   0  0  2  0  0  0  0  0  0  0  0  0
   26.9568  -23.7385  -15.8248 N   0  0  0  0  0  0  0  0  0  0  0  0
   25.0818  -22.5079  -14.8568 C   0  0  0  0  0  0  0  0  0  0  0  0
   24.4436  -23.5444  -14.6248 O   0  0  0  0  0  0  0  0  0  0  0  0
   24.8281  -21.3169  -14.1389 N   0  0  0  0  0  0  0  0  0  0  0  0
   23.7342  -21.2357  -13.1297 C   0  0  1  0  0  0  0  0  0  0  0  0
   24.1529  -20.1679  -12.1786 C   0  0  0  0  0  0  0  0  0  0  0  0
   24.1952  -20.5039  -10.7369 C   0  0  0  0  0  0  0  0  0  0  0  0
   22.9156  -21.0600  -10.1902 C   0  0  0  0  0  0  0  0  0  0  0  0
   23.0356  -21.2506   -8.6884 C   0  0  0  0  0  0  0  0  0  0  0  0
   21.7948  -21.7426   -8.1416 N   0  0  0  0  0  0  0  0  0  0  0  0
   22.5054  -20.9783  -13.8956 C   0  0  0  0  0  0  0  0  0  0  0  0
   22.4864  -20.0116  -14.7035 O   0  0  0  0  0  0  0  0  0  0  0  0
   21.3256  -21.7566  -13.7868 N   0  0  0  0  0  0  0  0  0  0  0  0
   20.1426  -21.4853  -14.5968 C   0  0  1  0  0  0  0  0  0  0  0  0
   19.5438  -22.7690  -15.1287 C   0  0  0  0  0  0  0  0  0  0  0  0
   17.9931  -22.4654  -15.9973 S   0  0  0  0  0  0  0  0  0  0  0  0
   19.1466  -20.8073  -13.7646 C   0  0  0  0  0  0  0  0  0  0  0  0
   18.2997  -19.8733  -14.3694 O   0  0  0  0  0  0  0  0  0  0  0  0
   18.9965  -21.0068  -12.5320 O   0  0  0  0  0  0  0  0  0  0  0  0
  2  1  1  1
  2  4  1  0
  3  2  1  0
  4  6  1  0
  4  5  1  6
  6  8  1  0
  7  6  2  0
  8  9  1  0
  9 10  1  1
 10 11  1  0
 11 12  1  0
 12 13  1  0
 13 14  1  0
 15 17  1  0
 15  9  1  0
 16 15  2  0
 18 17  1  0
 18 19  1  1
 19 20  1  0
 21 18  1  0
 22 21  1  0
 23 21  2  0
M  END
$$$$
