TKC.pdb
     RDKit          3D

 23 22  0  0  1  0  0  0  0  0999 V2000
   27.2754  -22.8023  -17.1784 C   0  0  0  0  0  0  0  0  0  0  0  0
   26.1475  -21.9679  -16.6367 C   0  0  1  0  0  0  0  0  0  0  0  0
   25.2034  -22.7657  -15.9566 O   0  0  0  0  0  0  0  0  0  0  0  0
   26.6140  -20.9331  -15.6334 C   0  0  2  0  0  0  0  0  0  0  0  0
   27.3324  -21.5427  -14.5333 N   0  0  0  0  0  0  0  0  0  0  0  0
   25.4903  -20.0729  -15.1763 C   0  0  0  0  0  0  0  0  0  0  0  0
   25.1445  -20.1546  -13.9891 O   0  0  0  0  0  0  0  0  0  0  0  0
   24.8386  -19.1912  -16.0685 N   0  0  0  0  0  0  0  0  0  0  0  0
   23.7209  -18.3144  -15.6172 C   0  0  1  0  0  0  0  0  0  0  0  0
   23.6130  -17.2479  -16.6521 C   0  0  0  0  0  0  0  0  0  0  0  0
   22.5592  -16.2219  -16.4802 C   0  0  0  0  0  0  0  0  0  0  0  0
   22.5921  -15.1205  -17.4957 C   0  0  0  0  0  0  0  0  0  0  0  0
   21.4545  -14.1477  -17.2392 C   0  0  0  0  0  0  0  0  0  0  0  0
   21.4857  -13.0707  -18.1983 N   0  0  0  0  0  0  0  0  0  0  0  0
   22.5554  -19.1995  -15.4724 C   0  0  0  0  0  0  0  0  0  0  0  0
   22.3229  -20.0477  -16.3746 O   0  0  0  0  0  0  0  0  0  0  0  0
   21.6651  -19.1641  -14.3698 N   0  0  0  0  0  0  0  0  0  0  0  0
   20.5349  -20.0805  -14.2586 C   0  0  1  0  0  0  0  0  0  0  0  0
   20.3544  -20.5477  -12.8308 C   0  0  0  0  0  0  0  0  0  0  0  0
   21.6163  -21.7475  -12.3628 S   0  0  0  0  0  0  0  0  0  0  0  0
   19.3196  -19.3845  -14.6863 C   0  0  0  0  0  0  0  0  0  0  0  0
   18.1308  -20.1156  -14.7738 O   0  0  0  0  0  0  0  0  0  0  0  0
   19.2676  -18.1637  -14.9838 O   0  0  0  0  0  0  0  0  0  0  0  0
  2  1  1  1
  2  4  1  0
  3  2  1  0
  4  6  1  0
  4  5  1  1
  6  8  1  0
  7  6  2  0
  8  9  1  0
  9 10  1  6
 10 11  1  0
 11 12  1  0
 12 13  1  0
 13 14  1  0
 15 17  1  0
 15  9  1  0
 16 15  2  0
 18 17  1  0
 18 19  1  1
 19 20  1  0
 21 18  1  0
 22 21  1  0
 23 21  2  0
M  END
$$$$
