ENC.pdb
     RDKit          3D

 24 23  0  0  1  0  0  0  0  0999 V2000
   12.3635  -16.6640   20.8461 N   0  0  0  0  0  0  0  0  0  0  0  0
   11.2480  -15.8036   20.6201 C   0  0  1  0  0  0  0  0  0  0  0  0
   10.4557  -16.2878   19.4315 C   0  0  0  0  0  0  0  0  0  0  0  0
   10.5033  -17.7759   19.3349 C   0  0  0  0  0  0  0  0  0  0  0  0
    9.7060  -18.3124   18.2262 C   0  0  0  0  0  0  0  0  0  0  0  0
    9.0575  -17.6440   17.3878 O   0  0  0  0  0  0  0  0  0  0  0  0
   10.3909  -15.7964   21.8429 C   0  0  0  0  0  0  0  0  0  0  0  0
    9.3676  -15.0970   21.8424 O   0  0  0  0  0  0  0  0  0  0  0  0
    9.6686  -19.7039   18.0959 O   0  0  0  0  0  0  0  0  0  0  0  0
    7.4113  -18.6181   23.1112 N   0  0  0  0  0  0  0  0  0  0  0  0
    8.7769  -18.7109   23.4455 C   0  0  0  0  0  0  0  0  0  0  0  0
    9.4855  -19.4839   22.7275 O   0  0  0  0  0  0  0  0  0  0  0  0
    9.4607  -18.0097   24.5322 C   0  0  0  0  0  0  0  0  0  0  0  0
    9.9249  -16.6314   24.1704 C   0  0  2  0  0  0  0  0  0  0  0  0
   10.7564  -16.5894   22.9920 N   0  0  0  0  0  0  0  0  0  0  0  0
   10.7014  -16.0463   25.3158 C   0  0  0  0  0  0  0  0  0  0  0  0
   11.8751  -15.6163   25.1612 O   0  0  0  0  0  0  0  0  0  0  0  0
   10.1566  -15.9475   26.6257 N   0  0  0  0  0  0  0  0  0  0  0  0
   10.8954  -15.3368   27.6995 C   0  0  1  0  0  0  0  0  0  0  0  0
   10.6578  -13.8419   27.7744 C   0  0  0  0  0  0  0  0  0  0  0  0
    8.8851  -13.4673   27.8079 S   0  0  0  0  0  0  0  0  0  0  0  0
   10.5910  -15.9751   28.9995 C   0  0  0  0  0  0  0  0  0  0  0  0
   11.3244  -15.5907   30.1081 O   0  0  0  0  0  0  0  0  0  0  0  0
    9.6853  -16.8427   29.0744 O   0  0  0  0  0  0  0  0  0  0  0  0
  2  1  1  1
  3  4  1  0
  3  2  1  0
  5  9  1  0
  5  4  1  0
  6  5  2  0
  7  8  2  0
  7  2  1  0
 11 10  1  0
 11 13  1  0
 12 11  2  0
 14 13  1  1
 14 15  1  0
 15  7  1  0
 16 14  1  0
 17 16  2  0
 18 16  1  0
 19 18  1  0
 20 21  1  0
 19 20  1  1
 22 19  1  0
 22 23  1  0
 24 22  2  0
M  END
$$$$
