ENC.pdb
     RDKit          3D

 24 23  0  0  1  0  0  0  0  0999 V2000
    9.5674  -19.1227   20.7941 N   0  0  0  0  0  0  0  0  0  0  0  0
   10.7892  -18.4201   21.0156 C   0  0  1  0  0  0  0  0  0  0  0  0
   11.6212  -18.4230   19.7576 C   0  0  0  0  0  0  0  0  0  0  0  0
   10.8637  -17.8226   18.6211 C   0  0  0  0  0  0  0  0  0  0  0  0
   11.6074  -17.8332   17.3564 C   0  0  0  0  0  0  0  0  0  0  0  0
   11.7828  -18.8225   16.6076 O   0  0  0  0  0  0  0  0  0  0  0  0
   10.4710  -17.0183   21.4202 C   0  0  0  0  0  0  0  0  0  0  0  0
   11.3945  -16.2958   21.8220 O   0  0  0  0  0  0  0  0  0  0  0  0
   12.1735  -16.6209   16.9510 O   0  0  0  0  0  0  0  0  0  0  0  0
    5.2677  -15.8047   21.4368 N   0  0  0  0  0  0  0  0  0  0  0  0
    6.5268  -15.6954   20.8140 C   0  0  0  0  0  0  0  0  0  0  0  0
    6.8149  -16.5878   19.9563 O   0  0  0  0  0  0  0  0  0  0  0  0
    7.5340  -14.6617   21.0535 C   0  0  0  0  0  0  0  0  0  0  0  0
    8.7864  -15.1703   21.7007 C   0  0  2  0  0  0  0  0  0  0  0  0
    9.1159  -16.5281   21.3409 N   0  0  0  0  0  0  0  0  0  0  0  0
    8.6435  -15.1006   23.1947 C   0  0  0  0  0  0  0  0  0  0  0  0
    8.3513  -14.0224   23.7765 O   0  0  0  0  0  0  0  0  0  0  0  0
    8.8289  -16.2399   24.0254 N   0  0  0  0  0  0  0  0  0  0  0  0
    8.7124  -16.1492   25.4572 C   0  0  1  0  0  0  0  0  0  0  0  0
    7.2660  -16.1150   25.9085 C   0  0  0  0  0  0  0  0  0  0  0  0
    6.4358  -17.6846   25.5466 S   0  0  0  0  0  0  0  0  0  0  0  0
    9.4392  -17.2480   26.1315 C   0  0  0  0  0  0  0  0  0  0  0  0
    9.9989  -18.2429   25.3496 O   0  0  0  0  0  0  0  0  0  0  0  0
    9.5349  -17.2594   27.3843 O   0  0  0  0  0  0  0  0  0  0  0  0
  2  1  1  6
  3  4  1  0
  3  2  1  0
  5  9  1  0
  5  4  1  0
  6  5  2  0
  7  8  2  0
  7  2  1  0
 11 10  1  0
 11 13  1  0
 12 11  2  0
 14 13  1  6
 14 15  1  0
 15  7  1  0
 16 14  1  0
 17 16  2  0
 18 16  1  0
 19 18  1  0
 20 21  1  0
 19 20  1  6
 22 19  1  0
 22 23  1  0
 24 22  2  0
M  END
$$$$
