ENC.pdb
     RDKit          3D

 24 23  0  0  1  0  0  0  0  0999 V2000
   11.7694  -16.2054   14.3080 N   0  0  0  0  0  0  0  0  0  0  0  0
   11.1547  -16.9782   15.3377 C   0  0  1  0  0  0  0  0  0  0  0  0
   12.1067  -18.0436   15.8209 C   0  0  0  0  0  0  0  0  0  0  0  0
   13.5225  -17.6242   15.6072 C   0  0  0  0  0  0  0  0  0  0  0  0
   14.4334  -18.0957   16.6563 C   0  0  0  0  0  0  0  0  0  0  0  0
   14.8188  -17.4411   17.6528 O   0  0  0  0  0  0  0  0  0  0  0  0
   10.7826  -16.0702   16.4632 C   0  0  0  0  0  0  0  0  0  0  0  0
   11.6093  -15.2268   16.8394 O   0  0  0  0  0  0  0  0  0  0  0  0
   14.9156  -19.4017   16.5283 O   0  0  0  0  0  0  0  0  0  0  0  0
    7.3695  -12.6425   19.1702 N   0  0  0  0  0  0  0  0  0  0  0  0
    7.1249  -14.0275   19.0860 C   0  0  0  0  0  0  0  0  0  0  0  0
    6.4334  -14.5394   20.0214 O   0  0  0  0  0  0  0  0  0  0  0  0
    7.5846  -14.9342   18.0340 C   0  0  0  0  0  0  0  0  0  0  0  0
    9.0519  -15.2348   18.0876 C   0  0  2  0  0  0  0  0  0  0  0  0
    9.4875  -16.1821   17.0903 N   0  0  0  0  0  0  0  0  0  0  0  0
    9.4032  -15.7820   19.4421 C   0  0  0  0  0  0  0  0  0  0  0  0
    9.5048  -17.0212   19.6430 O   0  0  0  0  0  0  0  0  0  0  0  0
    9.6379  -14.9363   20.5610 N   0  0  0  0  0  0  0  0  0  0  0  0
    9.9637  -15.4786   21.8539 C   0  0  1  0  0  0  0  0  0  0  0  0
   10.1353  -14.3939   22.8982 C   0  0  0  0  0  0  0  0  0  0  0  0
   10.6812  -15.0942   24.4779 S   0  0  0  0  0  0  0  0  0  0  0  0
    8.9568  -16.4688   22.2965 C   0  0  0  0  0  0  0  0  0  0  0  0
    9.3756  -17.5222   23.0899 O   0  0  0  0  0  0  0  0  0  0  0  0
    7.7561  -16.3389   21.9499 O   0  0  0  0  0  0  0  0  0  0  0  0
  2  1  1  6
  3  4  1  0
  3  2  1  0
  5  9  1  0
  5  4  1  0
  6  5  2  0
  7  8  2  0
  7  2  1  0
 11 10  1  0
 11 13  1  0
 12 11  2  0
 14 13  1  1
 14 15  1  0
 15  7  1  0
 16 14  1  0
 17 16  2  0
 18 16  1  0
 19 18  1  0
 20 21  1  0
 19 20  1  1
 22 19  1  0
 22 23  1  0
 24 22  2  0
M  END
$$$$
