ENC.pdb
     RDKit          3D

 24 23  0  0  1  0  0  0  0  0999 V2000
   13.8958  -16.5091   18.2683 N   0  0  0  0  0  0  0  0  0  0  0  0
   14.2014  -15.1171   18.2014 C   0  0  1  0  0  0  0  0  0  0  0  0
   14.6852  -14.7613   16.8178 C   0  0  0  0  0  0  0  0  0  0  0  0
   15.9030  -15.5476   16.4648 C   0  0  0  0  0  0  0  0  0  0  0  0
   17.1222  -14.7339   16.4008 C   0  0  0  0  0  0  0  0  0  0  0  0
   17.4598  -13.9768   15.4612 O   0  0  0  0  0  0  0  0  0  0  0  0
   12.9715  -14.3383   18.5338 C   0  0  0  0  0  0  0  0  0  0  0  0
   13.0317  -13.1005   18.5086 O   0  0  0  0  0  0  0  0  0  0  0  0
   17.9883  -14.8138   17.4954 O   0  0  0  0  0  0  0  0  0  0  0  0
    7.9230  -12.9799   19.3619 N   0  0  0  0  0  0  0  0  0  0  0  0
    8.1458  -14.0055   18.4219 C   0  0  0  0  0  0  0  0  0  0  0  0
    7.1579  -14.3298   17.6911 O   0  0  0  0  0  0  0  0  0  0  0  0
    9.3956  -14.7334   18.2018 C   0  0  0  0  0  0  0  0  0  0  0  0
   10.5187  -14.2986   19.0938 C   0  0  2  0  0  0  0  0  0  0  0  0
   11.7475  -15.0225   18.8753 N   0  0  0  0  0  0  0  0  0  0  0  0
   10.1165  -14.4765   20.5305 C   0  0  0  0  0  0  0  0  0  0  0  0
    9.1033  -13.8978   21.0048 O   0  0  0  0  0  0  0  0  0  0  0  0
   10.8528  -15.3017   21.4245 N   0  0  0  0  0  0  0  0  0  0  0  0
   10.3878  -15.5568   22.7626 C   0  0  1  0  0  0  0  0  0  0  0  0
    8.9614  -16.0684   22.7806 C   0  0  0  0  0  0  0  0  0  0  0  0
    8.4159  -16.4110   24.4743 S   0  0  0  0  0  0  0  0  0  0  0  0
   11.2827  -16.4929   23.4790 C   0  0  0  0  0  0  0  0  0  0  0  0
   11.0756  -16.6942   24.8322 O   0  0  0  0  0  0  0  0  0  0  0  0
   12.2020  -17.0807   22.8562 O   0  0  0  0  0  0  0  0  0  0  0  0
  2  1  1  6
  3  4  1  0
  3  2  1  0
  5  9  1  0
  5  4  1  0
  6  5  2  0
  7  8  2  0
  7  2  1  0
 11 10  1  0
 11 13  1  0
 12 11  2  0
 14 13  1  6
 14 15  1  0
 15  7  1  0
 16 14  1  0
 17 16  2  0
 18 16  1  0
 19 18  1  0
 20 21  1  0
 19 20  1  6
 22 19  1  0
 22 23  1  0
 24 22  2  0
M  END
$$$$
