ENC.pdb
     RDKit          3D

 24 23  0  0  1  0  0  0  0  0999 V2000
    7.7686  -12.7040   20.2139 N   0  0  0  0  0  0  0  0  0  0  0  0
    7.5170  -13.9487   19.5635 C   0  0  1  0  0  0  0  0  0  0  0  0
    7.9316  -13.8670   18.1156 C   0  0  0  0  0  0  0  0  0  0  0  0
    7.7916  -15.1948   17.4497 C   0  0  0  0  0  0  0  0  0  0  0  0
    8.3877  -15.2391   16.1097 C   0  0  0  0  0  0  0  0  0  0  0  0
    9.2384  -16.0646   15.7036 O   0  0  0  0  0  0  0  0  0  0  0  0
    8.2884  -15.0203   20.2610 C   0  0  0  0  0  0  0  0  0  0  0  0
    8.1603  -16.1895   19.8703 O   0  0  0  0  0  0  0  0  0  0  0  0
    7.9632  -14.2648   15.2014 O   0  0  0  0  0  0  0  0  0  0  0  0
   12.2959  -17.8033   22.5354 N   0  0  0  0  0  0  0  0  0  0  0  0
   12.2242  -16.4086   22.7214 C   0  0  0  0  0  0  0  0  0  0  0  0
   12.9269  -15.9250   23.6636 O   0  0  0  0  0  0  0  0  0  0  0  0
   11.4254  -15.4624   21.9424 C   0  0  0  0  0  0  0  0  0  0  0  0
    9.9479  -15.6994   22.0264 C   0  0  2  0  0  0  0  0  0  0  0  0
    9.1591  -14.6894   21.3634 N   0  0  0  0  0  0  0  0  0  0  0  0
    9.5291  -15.7525   23.4683 C   0  0  0  0  0  0  0  0  0  0  0  0
   10.0317  -16.5864   24.2673 O   0  0  0  0  0  0  0  0  0  0  0  0
    8.5503  -14.8707   24.0037 N   0  0  0  0  0  0  0  0  0  0  0  0
    8.0610  -15.0234   25.3488 C   0  0  1  0  0  0  0  0  0  0  0  0
    7.4206  -13.7519   25.8682 C   0  0  0  0  0  0  0  0  0  0  0  0
    5.9574  -13.3163   24.8919 S   0  0  0  0  0  0  0  0  0  0  0  0
    7.1189  -16.1595   25.4578 C   0  0  0  0  0  0  0  0  0  0  0  0
    6.7582  -16.5953   26.7206 O   0  0  0  0  0  0  0  0  0  0  0  0
    6.6685  -16.7018   24.4177 O   0  0  0  0  0  0  0  0  0  0  0  0
  2  1  1  1
  3  4  1  0
  3  2  1  0
  5  9  1  0
  5  4  1  0
  6  5  2  0
  7  8  2  0
  7  2  1  0
 11 10  1  0
 11 13  1  0
 12 11  2  0
 14 13  1  1
 14 15  1  0
 15  7  1  0
 16 14  1  0
 17 16  2  0
 18 16  1  0
 19 18  1  0
 20 21  1  0
 19 20  1  6
 22 19  1  0
 22 23  1  0
 24 22  2  0
M  END
$$$$
