ENC.pdb
     RDKit          3D

 24 23  0  0  1  0  0  0  0  0999 V2000
   11.3481  -17.6641   19.2062 N   0  0  0  0  0  0  0  0  0  0  0  0
   12.0052  -17.0498   20.3135 C   0  0  1  0  0  0  0  0  0  0  0  0
   12.3805  -15.6304   19.9678 C   0  0  0  0  0  0  0  0  0  0  0  0
   13.6447  -15.5954   19.1762 C   0  0  0  0  0  0  0  0  0  0  0  0
   13.9779  -14.2587   18.6714 C   0  0  0  0  0  0  0  0  0  0  0  0
   14.9532  -13.5551   19.0233 O   0  0  0  0  0  0  0  0  0  0  0  0
   11.0848  -17.0680   21.4893 C   0  0  0  0  0  0  0  0  0  0  0  0
    9.9002  -16.7468   21.3167 O   0  0  0  0  0  0  0  0  0  0  0  0
   13.1225  -13.7217   17.7047 O   0  0  0  0  0  0  0  0  0  0  0  0
   11.0984  -20.9193   23.1602 N   0  0  0  0  0  0  0  0  0  0  0  0
   10.2590  -19.9388   23.7252 C   0  0  0  0  0  0  0  0  0  0  0  0
    9.0235  -20.0152   23.4371 O   0  0  0  0  0  0  0  0  0  0  0  0
   10.6637  -18.8443   24.6075 C   0  0  0  0  0  0  0  0  0  0  0  0
   10.7008  -17.5042   23.9375 C   0  0  2  0  0  0  0  0  0  0  0  0
   11.5753  -17.4522   22.7911 N   0  0  0  0  0  0  0  0  0  0  0  0
   11.1527  -16.4630   24.9220 C   0  0  0  0  0  0  0  0  0  0  0  0
   11.8561  -15.4819   24.5630 O   0  0  0  0  0  0  0  0  0  0  0  0
   10.8128  -16.5294   26.3013 N   0  0  0  0  0  0  0  0  0  0  0  0
   10.6739  -15.3375   27.0961 C   0  0  1  0  0  0  0  0  0  0  0  0
    9.5573  -14.4453   26.5920 C   0  0  0  0  0  0  0  0  0  0  0  0
    9.3410  -13.0046   27.6697 S   0  0  0  0  0  0  0  0  0  0  0  0
   10.4735  -15.6594   28.5266 C   0  0  0  0  0  0  0  0  0  0  0  0
   10.0660  -16.9387   28.8616 O   0  0  0  0  0  0  0  0  0  0  0  0
   10.6735  -14.7793   29.4007 O   0  0  0  0  0  0  0  0  0  0  0  0
  2  1  1  6
  3  4  1  0
  3  2  1  0
  5  9  1  0
  5  4  1  0
  6  5  2  0
  7  8  2  0
  7  2  1  0
 11 10  1  0
 11 13  1  0
 12 11  2  0
 14 13  1  1
 14 15  1  0
 15  7  1  0
 16 14  1  0
 17 16  2  0
 18 16  1  0
 19 18  1  0
 20 21  1  0
 19 20  1  6
 22 19  1  0
 22 23  1  0
 24 22  2  0
M  END
$$$$
