ENC.pdb
     RDKit          3D

 24 23  0  0  1  0  0  0  0  0999 V2000
    9.8463  -16.4067   16.6241 N   0  0  0  0  0  0  0  0  0  0  0  0
    8.5229  -16.9396   16.6090 C   0  0  1  0  0  0  0  0  0  0  0  0
    8.1669  -17.3966   15.2165 C   0  0  0  0  0  0  0  0  0  0  0  0
    9.2934  -17.1419   14.2720 C   0  0  0  0  0  0  0  0  0  0  0  0
    8.9892  -17.5219   12.8879 C   0  0  0  0  0  0  0  0  0  0  0  0
    8.6405  -16.7481   11.9661 O   0  0  0  0  0  0  0  0  0  0  0  0
    8.4561  -18.0878   17.5614 C   0  0  0  0  0  0  0  0  0  0  0  0
    8.5273  -19.2381   17.1053 O   0  0  0  0  0  0  0  0  0  0  0  0
    9.1000  -18.8790   12.5708 O   0  0  0  0  0  0  0  0  0  0  0  0
   11.6494  -20.3129   17.9007 N   0  0  0  0  0  0  0  0  0  0  0  0
   10.9617  -19.7248   18.9807 C   0  0  0  0  0  0  0  0  0  0  0  0
   10.5009  -20.5188   19.8597 O   0  0  0  0  0  0  0  0  0  0  0  0
   10.7245  -18.2969   19.1930 C   0  0  0  0  0  0  0  0  0  0  0  0
    9.4284  -17.9906   19.8803 C   0  0  2  0  0  0  0  0  0  0  0  0
    8.3114  -17.8506   18.9777 N   0  0  0  0  0  0  0  0  0  0  0  0
    9.5641  -16.7153   20.6628 C   0  0  0  0  0  0  0  0  0  0  0  0
   10.5626  -16.5009   21.4001 O   0  0  0  0  0  0  0  0  0  0  0  0
    8.5799  -15.6900   20.6132 N   0  0  0  0  0  0  0  0  0  0  0  0
    8.7138  -14.4857   21.3901 C   0  0  1  0  0  0  0  0  0  0  0  0
    7.7535  -13.4057   20.9341 C   0  0  0  0  0  0  0  0  0  0  0  0
    7.6662  -13.3362   19.1254 S   0  0  0  0  0  0  0  0  0  0  0  0
    8.5454  -14.7512   22.8362 C   0  0  0  0  0  0  0  0  0  0  0  0
    8.8623  -13.7441   23.7306 O   0  0  0  0  0  0  0  0  0  0  0  0
    8.1238  -15.8700   23.2227 O   0  0  0  0  0  0  0  0  0  0  0  0
  2  1  1  6
  3  4  1  0
  3  2  1  0
  5  9  1  0
  5  4  1  0
  6  5  2  0
  7  8  2  0
  7  2  1  0
 11 10  1  0
 11 13  1  0
 12 11  2  0
 14 13  1  6
 14 15  1  0
 15  7  1  0
 16 14  1  0
 17 16  2  0
 18 16  1  0
 19 18  1  0
 20 21  1  0
 19 20  1  6
 22 19  1  0
 22 23  1  0
 24 22  2  0
M  END
$$$$
