DYC.pdb
     RDKit          3D

 27 27  0  0  1  0  0  0  0  0999 V2000
   26.1068  -24.4457  -16.5045 N   0  0  0  0  0  0  0  0  0  0  0  0
   25.8196  -23.0164  -16.5801 C   0  0  1  0  0  0  0  0  0  0  0  0
   25.9956  -22.5513  -18.0143 C   0  0  0  0  0  0  0  0  0  0  0  0
   27.4070  -22.5114  -18.4103 C   0  0  0  0  0  0  0  0  0  0  0  0
   28.3113  -22.8837  -17.6398 O   0  0  0  0  0  0  0  0  0  0  0  0
   24.4858  -22.7019  -16.0261 C   0  0  0  0  0  0  0  0  0  0  0  0
   23.5471  -23.5203  -16.1862 O   0  0  0  0  0  0  0  0  0  0  0  0
   27.7431  -22.0483  -19.6679 O   0  0  0  0  0  0  0  0  0  0  0  0
   18.1521  -18.6656  -11.1900 O   0  0  0  0  0  0  0  0  0  0  0  0
   19.3524  -19.1237  -11.7186 C   0  0  0  0  0  0  0  0  0  0  0  0
   20.0390  -18.3376  -12.6230 C   0  0  0  0  0  0  0  0  0  0  0  0
   21.2322  -18.7330  -13.1841 C   0  0  0  0  0  0  0  0  0  0  0  0
   21.7865  -19.9657  -12.8424 C   0  0  0  0  0  0  0  0  0  0  0  0
   23.0732  -20.3046  -13.4854 C   0  0  0  0  0  0  0  0  0  0  0  0
   22.9324  -21.1723  -14.7165 C   0  0  2  0  0  0  0  0  0  0  0  0
   24.1915  -21.5130  -15.3116 N   0  0  0  0  0  0  0  0  0  0  0  0
   22.1473  -20.4075  -15.7040 C   0  0  0  0  0  0  0  0  0  0  0  0
   22.7482  -19.4677  -16.3071 O   0  0  0  0  0  0  0  0  0  0  0  0
   21.1087  -20.7508  -11.9440 C   0  0  0  0  0  0  0  0  0  0  0  0
   19.8970  -20.3413  -11.3794 C   0  0  0  0  0  0  0  0  0  0  0  0
   20.7940  -20.6328  -16.0298 N   0  0  0  0  0  0  0  0  0  0  0  0
   20.1614  -19.7578  -16.9901 C   0  0  1  0  0  0  0  0  0  0  0  0
   19.6156  -20.5034  -18.1817 C   0  0  0  0  0  0  0  0  0  0  0  0
   21.0253  -20.9852  -19.2412 S   0  0  0  0  0  0  0  0  0  0  0  0
   19.0295  -19.0480  -16.3102 C   0  0  0  0  0  0  0  0  0  0  0  0
   18.6841  -17.9396  -16.7338 O   0  0  0  0  0  0  0  0  0  0  0  0
   18.3685  -19.6199  -15.2176 O   0  0  0  0  0  0  0  0  0  0  0  0
  2  1  1  6
  2  6  1  0
  3  2  1  0
  3  4  1  0
  4  5  2  0
  6 16  1  0
  6  7  2  0
  8  4  1  0
  9 10  1  0
 10 11  2  0
 11 12  1  0
 13 14  1  0
 13 12  2  0
 15 14  1  1
 15 17  1  0
 16 15  1  0
 17 18  2  0
 19 13  1  0
 20 19  2  0
 20 10  1  0
 21 17  1  0
 21 22  1  0
 22 25  1  0
 22 23  1  6
 24 23  1  0
 25 27  1  0
 26 25  2  0
M  END
$$$$
