DYC.pdb
     RDKit          3D

 27 27  0  0  1  0  0  0  0  0999 V2000
   28.1393  -23.3733  -18.0277 N   0  0  0  0  0  0  0  0  0  0  0  0
   27.8908  -22.0296  -17.5141 C   0  0  1  0  0  0  0  0  0  0  0  0
   27.2551  -21.1911  -18.6082 C   0  0  0  0  0  0  0  0  0  0  0  0
   28.2442  -20.3772  -19.3221 C   0  0  0  0  0  0  0  0  0  0  0  0
   29.2978  -20.8711  -19.7650 O   0  0  0  0  0  0  0  0  0  0  0  0
   27.0932  -22.0642  -16.2700 C   0  0  0  0  0  0  0  0  0  0  0  0
   26.0902  -22.8168  -16.2057 O   0  0  0  0  0  0  0  0  0  0  0  0
   28.0033  -19.0294  -19.5073 O   0  0  0  0  0  0  0  0  0  0  0  0
   24.3292  -20.4955   -7.9876 O   0  0  0  0  0  0  0  0  0  0  0  0
   25.0451  -20.4133   -9.1753 C   0  0  0  0  0  0  0  0  0  0  0  0
   25.6310  -21.5512   -9.6941 C   0  0  0  0  0  0  0  0  0  0  0  0
   26.3539  -21.5378  -10.8655 C   0  0  0  0  0  0  0  0  0  0  0  0
   26.5132  -20.3456  -11.5705 C   0  0  0  0  0  0  0  0  0  0  0  0
   27.2960  -20.4256  -12.8214 C   0  0  0  0  0  0  0  0  0  0  0  0
   26.6338  -21.2454  -13.9065 C   0  0  2  0  0  0  0  0  0  0  0  0
   27.3928  -21.2876  -15.1221 N   0  0  0  0  0  0  0  0  0  0  0  0
   25.3314  -20.6165  -14.1975 C   0  0  0  0  0  0  0  0  0  0  0  0
   25.3588  -19.4771  -14.7533 O   0  0  0  0  0  0  0  0  0  0  0  0
   25.9330  -19.2118  -11.0598 C   0  0  0  0  0  0  0  0  0  0  0  0
   25.2008  -19.2347   -9.8689 C   0  0  0  0  0  0  0  0  0  0  0  0
   24.0679  -21.1730  -13.9100 N   0  0  0  0  0  0  0  0  0  0  0  0
   22.8959  -20.3444  -14.0768 C   0  0  1  0  0  0  0  0  0  0  0  0
   22.0272  -20.7939  -15.2246 C   0  0  0  0  0  0  0  0  0  0  0  0
   23.0601  -20.8362  -16.7323 S   0  0  0  0  0  0  0  0  0  0  0  0
   22.0898  -20.4048  -12.8144 C   0  0  0  0  0  0  0  0  0  0  0  0
   22.4506  -21.1727  -11.9159 O   0  0  0  0  0  0  0  0  0  0  0  0
   20.9501  -19.6110  -12.6446 O   0  0  0  0  0  0  0  0  0  0  0  0
  2  1  1  6
  2  6  1  0
  3  2  1  0
  3  4  1  0
  4  5  2  0
  6 16  1  0
  6  7  2  0
  8  4  1  0
  9 10  1  0
 10 11  2  0
 11 12  1  0
 13 14  1  0
 13 12  2  0
 15 14  1  1
 15 17  1  0
 16 15  1  0
 17 18  2  0
 19 13  1  0
 20 19  2  0
 20 10  1  0
 21 17  1  0
 21 22  1  0
 22 25  1  0
 22 23  1  6
 24 23  1  0
 25 27  1  0
 26 25  2  0
M  END
$$$$
