DYC.pdb
     RDKit          3D

 27 27  0  0  1  0  0  0  0  0999 V2000
   19.1425  -13.0396  -16.9122 N   0  0  0  0  0  0  0  0  0  0  0  0
   18.4574  -11.7749  -16.6626 C   0  0  1  0  0  0  0  0  0  0  0  0
   17.9486  -11.7613  -15.2325 C   0  0  0  0  0  0  0  0  0  0  0  0
   16.9394  -12.7990  -14.9979 C   0  0  0  0  0  0  0  0  0  0  0  0
   16.5009  -13.5040  -15.9257 O   0  0  0  0  0  0  0  0  0  0  0  0
   19.3204  -10.6187  -16.9841 C   0  0  0  0  0  0  0  0  0  0  0  0
   20.5259  -10.8159  -17.2751 O   0  0  0  0  0  0  0  0  0  0  0  0
   16.4616  -12.9996  -13.7171 O   0  0  0  0  0  0  0  0  0  0  0  0
   18.4811   -9.2229  -23.5809 O   0  0  0  0  0  0  0  0  0  0  0  0
   18.6428   -8.6986  -22.3046 C   0  0  0  0  0  0  0  0  0  0  0  0
   17.6691   -8.9221  -21.3511 C   0  0  0  0  0  0  0  0  0  0  0  0
   17.7679   -8.4301  -20.0693 C   0  0  0  0  0  0  0  0  0  0  0  0
   18.8811   -7.6776  -19.6973 C   0  0  0  0  0  0  0  0  0  0  0  0
   18.9084   -7.1977  -18.2999 C   0  0  0  0  0  0  0  0  0  0  0  0
   19.6369   -8.1219  -17.3494 C   0  0  2  0  0  0  0  0  0  0  0  0
   18.8670   -9.2753  -16.9853 N   0  0  0  0  0  0  0  0  0  0  0  0
   19.9230   -7.3526  -16.1235 C   0  0  0  0  0  0  0  0  0  0  0  0
   19.1008   -7.4769  -15.1662 O   0  0  0  0  0  0  0  0  0  0  0  0
   19.8519   -7.4526  -20.6406 C   0  0  0  0  0  0  0  0  0  0  0  0
   19.7430   -7.9558  -21.9405 C   0  0  0  0  0  0  0  0  0  0  0  0
   21.0265   -6.4961  -15.9300 N   0  0  0  0  0  0  0  0  0  0  0  0
   21.1817   -5.8516  -14.6461 C   0  0  1  0  0  0  0  0  0  0  0  0
   21.7916   -6.7624  -13.6106 C   0  0  0  0  0  0  0  0  0  0  0  0
   22.1377   -5.7677  -12.1164 S   0  0  0  0  0  0  0  0  0  0  0  0
   22.0736   -4.6593  -14.8195 C   0  0  0  0  0  0  0  0  0  0  0  0
   22.8273   -4.6192  -15.7981 O   0  0  0  0  0  0  0  0  0  0  0  0
   22.0609   -3.6057  -13.8988 O   0  0  0  0  0  0  0  0  0  0  0  0
  2  1  1  1
  2  6  1  0
  3  2  1  0
  3  4  1  0
  4  5  2  0
  6 16  1  0
  6  7  2  0
  8  4  1  0
  9 10  1  0
 10 11  2  0
 11 12  1  0
 13 14  1  0
 13 12  2  0
 15 14  1  6
 15 17  1  0
 16 15  1  0
 17 18  2  0
 19 13  1  0
 20 19  2  0
 20 10  1  0
 21 17  1  0
 21 22  1  0
 22 25  1  0
 22 23  1  1
 24 23  1  0
 25 27  1  0
 26 25  2  0
M  END
$$$$
