DYC.pdb
     RDKit          3D

 27 27  0  0  1  0  0  0  0  0999 V2000
   23.6651  -14.0610  -17.5769 N   0  0  0  0  0  0  0  0  0  0  0  0
   22.8413  -12.8995  -17.8984 C   0  0  1  0  0  0  0  0  0  0  0  0
   21.4039  -13.3493  -18.0880 C   0  0  0  0  0  0  0  0  0  0  0  0
   21.2519  -14.2288  -19.2515 C   0  0  0  0  0  0  0  0  0  0  0  0
   22.1873  -14.4215  -20.0501 O   0  0  0  0  0  0  0  0  0  0  0  0
   22.9885  -11.8337  -16.8848 C   0  0  0  0  0  0  0  0  0  0  0  0
   23.1816  -12.1511  -15.6853 O   0  0  0  0  0  0  0  0  0  0  0  0
   20.0414  -14.8584  -19.4690 O   0  0  0  0  0  0  0  0  0  0  0  0
   29.2532  -11.6280  -16.6501 O   0  0  0  0  0  0  0  0  0  0  0  0
   28.0793  -10.8879  -16.5869 C   0  0  0  0  0  0  0  0  0  0  0  0
   27.4873  -10.4541  -17.7567 C   0  0  0  0  0  0  0  0  0  0  0  0
   26.3249   -9.7167  -17.7636 C   0  0  0  0  0  0  0  0  0  0  0  0
   25.7053   -9.3846  -16.5596 C   0  0  0  0  0  0  0  0  0  0  0  0
   24.4576   -8.5993  -16.6615 C   0  0  0  0  0  0  0  0  0  0  0  0
   23.2144   -9.3733  -16.2824 C   0  0  2  0  0  0  0  0  0  0  0  0
   22.9247  -10.4493  -17.1845 N   0  0  0  0  0  0  0  0  0  0  0  0
   22.0828   -8.4274  -16.3140 C   0  0  0  0  0  0  0  0  0  0  0  0
   21.6923   -8.0420  -17.4573 O   0  0  0  0  0  0  0  0  0  0  0  0
   26.2890   -9.8132  -15.3941 C   0  0  0  0  0  0  0  0  0  0  0  0
   27.4700  -10.5614  -15.3967 C   0  0  0  0  0  0  0  0  0  0  0  0
   21.4049   -7.9195  -15.1866 N   0  0  0  0  0  0  0  0  0  0  0  0
   20.2218   -7.1171  -15.3975 C   0  0  1  0  0  0  0  0  0  0  0  0
   19.2296   -7.2401  -14.2687 C   0  0  0  0  0  0  0  0  0  0  0  0
   18.7986   -9.0071  -14.0850 S   0  0  0  0  0  0  0  0  0  0  0  0
   20.6379   -5.6817  -15.5146 C   0  0  0  0  0  0  0  0  0  0  0  0
   21.8378   -5.4018  -15.4192 O   0  0  0  0  0  0  0  0  0  0  0  0
   19.6954   -4.6700  -15.7292 O   0  0  0  0  0  0  0  0  0  0  0  0
  2  1  1  1
  2  6  1  0
  3  2  1  0
  3  4  1  0
  4  5  2  0
  6 16  1  0
  6  7  2  0
  8  4  1  0
  9 10  1  0
 10 11  2  0
 11 12  1  0
 13 14  1  0
 13 12  2  0
 15 14  1  6
 15 17  1  0
 16 15  1  0
 17 18  2  0
 19 13  1  0
 20 19  2  0
 20 10  1  0
 21 17  1  0
 21 22  1  0
 22 25  1  0
 22 23  1  1
 24 23  1  0
 25 27  1  0
 26 25  2  0
M  END
$$$$
