DYC.pdb
     RDKit          3D

 27 27  0  0  1  0  0  0  0  0999 V2000
   21.8880  -27.6427  -12.0467 N   0  0  0  0  0  0  0  0  0  0  0  0
   20.5685  -27.9807  -11.5219 C   0  0  1  0  0  0  0  0  0  0  0  0
   19.5131  -27.5660  -12.5312 C   0  0  0  0  0  0  0  0  0  0  0  0
   19.8751  -26.3274  -13.2278 C   0  0  0  0  0  0  0  0  0  0  0  0
   20.9875  -26.1843  -13.7683 O   0  0  0  0  0  0  0  0  0  0  0  0
   20.4845  -29.4077  -11.1455 C   0  0  0  0  0  0  0  0  0  0  0  0
   19.4084  -29.8562  -10.6791 O   0  0  0  0  0  0  0  0  0  0  0  0
   18.9612  -25.2928  -13.2854 O   0  0  0  0  0  0  0  0  0  0  0  0
   16.3741  -32.9277  -14.5946 O   0  0  0  0  0  0  0  0  0  0  0  0
   17.6072  -32.8995  -13.9553 C   0  0  0  0  0  0  0  0  0  0  0  0
   18.5861  -32.0368  -14.4079 C   0  0  0  0  0  0  0  0  0  0  0  0
   19.8284  -31.9605  -13.8200 C   0  0  0  0  0  0  0  0  0  0  0  0
   20.1319  -32.7723  -12.7279 C   0  0  0  0  0  0  0  0  0  0  0  0
   21.4850  -32.6175  -12.1545 C   0  0  0  0  0  0  0  0  0  0  0  0
   21.5364  -31.7141  -10.9422 C   0  0  2  0  0  0  0  0  0  0  0  0
   21.5609  -30.3209  -11.2795 N   0  0  0  0  0  0  0  0  0  0  0  0
   22.7769  -32.0334  -10.2103 C   0  0  0  0  0  0  0  0  0  0  0  0
   23.6345  -31.1050  -10.1074 O   0  0  0  0  0  0  0  0  0  0  0  0
   19.1629  -33.6312  -12.2739 C   0  0  0  0  0  0  0  0  0  0  0  0
   17.9038  -33.7023  -12.8775 C   0  0  0  0  0  0  0  0  0  0  0  0
   23.0861  -33.2766   -9.6208 N   0  0  0  0  0  0  0  0  0  0  0  0
   24.2755  -33.3763   -8.8064 C   0  0  1  0  0  0  0  0  0  0  0  0
   24.2577  -32.4256   -7.6361 C   0  0  0  0  0  0  0  0  0  0  0  0
   25.9192  -32.4367   -6.8736 S   0  0  0  0  0  0  0  0  0  0  0  0
   24.3750  -34.7776   -8.2831 C   0  0  0  0  0  0  0  0  0  0  0  0
   23.3334  -35.4128   -8.0858 O   0  0  0  0  0  0  0  0  0  0  0  0
   25.6171  -35.3659   -8.0209 O   0  0  0  0  0  0  0  0  0  0  0  0
  2  1  1  6
  2  6  1  0
  3  2  1  0
  3  4  1  0
  4  5  2  0
  6 16  1  0
  6  7  2  0
  8  4  1  0
  9 10  1  0
 10 11  2  0
 11 12  1  0
 13 14  1  0
 13 12  2  0
 15 14  1  6
 15 17  1  0
 16 15  1  0
 17 18  2  0
 19 13  1  0
 20 19  2  0
 20 10  1  0
 21 17  1  0
 21 22  1  0
 22 25  1  0
 22 23  1  1
 24 23  1  0
 25 27  1  0
 26 25  2  0
M  END
$$$$
