VSF.pdb
     RDKit          3D

 25 25  0  0  1  0  0  0  0  0999 V2000
   26.9409  -24.1362  -18.7225 C   0  0  0  0  0  0  0  0  0  0  0  0
   27.0970  -23.4982  -17.3777 C   0  0  2  0  0  0  0  0  0  0  0  0
   25.7248  -23.3571  -16.7518 C   0  0  0  0  0  0  0  0  0  0  0  0
   27.7146  -22.1240  -17.4405 C   0  0  2  0  0  0  0  0  0  0  0  0
   29.0285  -22.1967  -18.0387 N   0  0  0  0  0  0  0  0  0  0  0  0
   27.7664  -21.4805  -16.0972 C   0  0  0  0  0  0  0  0  0  0  0  0
   28.3490  -22.0490  -15.1398 O   0  0  0  0  0  0  0  0  0  0  0  0
   26.9225  -17.6780  -13.3333 O   0  0  0  0  0  0  0  0  0  0  0  0
   26.9543  -18.1826  -14.6289 C   0  0  0  0  0  0  0  0  0  0  0  0
   27.2093  -19.6720  -14.5264 C   0  0  2  0  0  0  0  0  0  0  0  0
   27.1714  -20.2192  -15.8415 N   0  0  0  0  0  0  0  0  0  0  0  0
   26.2086  -20.3174  -13.6112 C   0  0  0  0  0  0  0  0  0  0  0  0
   25.0673  -20.5742  -14.0315 O   0  0  0  0  0  0  0  0  0  0  0  0
   26.5272  -20.6471  -12.2679 N   0  0  0  0  0  0  0  0  0  0  0  0
   25.5633  -21.2214  -11.3361 C   0  0  1  0  0  0  0  0  0  0  0  0
   26.2143  -21.9923  -10.2475 C   0  0  0  0  0  0  0  0  0  0  0  0
   26.8951  -21.0976   -9.3163 C   0  0  0  0  0  0  0  0  0  0  0  0
   28.2174  -21.2726   -8.9935 C   0  0  0  0  0  0  0  0  0  0  0  0
   28.8561  -20.4022   -8.0964 C   0  0  0  0  0  0  0  0  0  0  0  0
   28.1591  -19.3611   -7.5303 C   0  0  0  0  0  0  0  0  0  0  0  0
   26.8351  -19.1804   -7.8493 C   0  0  0  0  0  0  0  0  0  0  0  0
   26.2233  -20.0479   -8.7347 C   0  0  0  0  0  0  0  0  0  0  0  0
   24.6296  -20.2339  -10.8199 C   0  0  0  0  0  0  0  0  0  0  0  0
   23.5172  -20.4245  -10.2927 O   0  0  0  0  0  0  0  0  0  0  0  0
   25.0009  -18.8741  -10.9124 O   0  0  0  0  0  0  0  0  0  0  0  0
  2  1  1  6
  2  4  1  0
  2  3  1  0
  4  6  1  0
  4  5  1  1
  6  7  2  0
  9  8  1  0
 10  9  1  6
 10 12  1  0
 11  6  1  0
 11 10  1  0
 12 13  2  0
 14 15  1  0
 14 12  1  0
 15 23  1  0
 15 16  1  1
 17 16  1  0
 18 17  2  0
 19 18  1  0
 20 21  1  0
 20 19  2  0
 21 22  2  0
 22 17  1  0
 23 24  2  0
 23 25  1  0
M  END
$$$$
