VSF.pdb
     RDKit          3D

 25 25  0  0  1  0  0  0  0  0999 V2000
   19.8756  -11.4342  -19.2275 C   0  0  0  0  0  0  0  0  0  0  0  0
   19.2193  -12.5778  -18.5193 C   0  0  2  0  0  0  0  0  0  0  0  0
   17.9462  -12.0734  -17.8716 C   0  0  0  0  0  0  0  0  0  0  0  0
   20.0786  -13.1760  -17.4342 C   0  0  2  0  0  0  0  0  0  0  0  0
   19.4415  -14.3532  -16.8883 N   0  0  0  0  0  0  0  0  0  0  0  0
   20.3884  -12.1839  -16.3659 C   0  0  0  0  0  0  0  0  0  0  0  0
   19.5067  -11.8410  -15.5388 O   0  0  0  0  0  0  0  0  0  0  0  0
   24.1321  -11.2019  -15.4580 O   0  0  0  0  0  0  0  0  0  0  0  0
   23.1588  -10.9067  -14.5093 C   0  0  0  0  0  0  0  0  0  0  0  0
   21.8846  -10.5766  -15.2586 C   0  0  2  0  0  0  0  0  0  0  0  0
   21.6699  -11.5913  -16.2356 N   0  0  0  0  0  0  0  0  0  0  0  0
   21.9704   -9.2068  -15.8685 C   0  0  0  0  0  0  0  0  0  0  0  0
   22.4958   -9.0632  -16.9859 O   0  0  0  0  0  0  0  0  0  0  0  0
   21.4656   -8.0590  -15.2034 N   0  0  0  0  0  0  0  0  0  0  0  0
   21.5454   -6.7134  -15.7604 C   0  0  1  0  0  0  0  0  0  0  0  0
   21.0284   -6.6415  -17.1499 C   0  0  0  0  0  0  0  0  0  0  0  0
   19.5720   -6.7405  -17.1654 C   0  0  0  0  0  0  0  0  0  0  0  0
   18.7785   -5.6611  -16.8681 C   0  0  0  0  0  0  0  0  0  0  0  0
   17.3796   -5.7744  -16.8885 C   0  0  0  0  0  0  0  0  0  0  0  0
   16.7888   -6.9740  -17.2081 C   0  0  0  0  0  0  0  0  0  0  0  0
   17.5776   -8.0584  -17.5067 C   0  0  0  0  0  0  0  0  0  0  0  0
   18.9534   -7.9275  -17.4814 C   0  0  0  0  0  0  0  0  0  0  0  0
   20.9314   -5.7158  -14.8994 C   0  0  0  0  0  0  0  0  0  0  0  0
   20.9021   -4.4794  -15.0490 O   0  0  0  0  0  0  0  0  0  0  0  0
   20.2753   -6.1736  -13.7352 O   0  0  0  0  0  0  0  0  0  0  0  0
  2  1  1  1
  2  4  1  0
  2  3  1  0
  4  6  1  0
  4  5  1  1
  6  7  2  0
  9  8  1  0
 10  9  1  6
 10 12  1  0
 11  6  1  0
 11 10  1  0
 12 13  2  0
 14 15  1  0
 14 12  1  0
 15 23  1  0
 15 16  1  6
 17 16  1  0
 18 17  2  0
 19 18  1  0
 20 21  1  0
 20 19  2  0
 21 22  2  0
 22 17  1  0
 23 24  2  0
 23 25  1  0
M  END
$$$$
