VSF.pdb
     RDKit          3D

 25 25  0  0  1  0  0  0  0  0999 V2000
   27.0780   -9.8966  -16.2190 C   0  0  0  0  0  0  0  0  0  0  0  0
   26.2669  -11.0068  -15.6277 C   0  0  2  0  0  0  0  0  0  0  0  0
   27.1838  -12.1840  -15.3669 C   0  0  0  0  0  0  0  0  0  0  0  0
   25.1598  -11.4815  -16.5348 C   0  0  2  0  0  0  0  0  0  0  0  0
   25.7164  -12.0722  -17.7309 N   0  0  0  0  0  0  0  0  0  0  0  0
   24.2087  -10.3828  -16.8661 C   0  0  0  0  0  0  0  0  0  0  0  0
   24.4585   -9.5839  -17.8034 O   0  0  0  0  0  0  0  0  0  0  0  0
   20.3672  -10.5288  -16.3070 O   0  0  0  0  0  0  0  0  0  0  0  0
   20.9214   -9.5410  -17.1141 C   0  0  0  0  0  0  0  0  0  0  0  0
   22.1836   -9.0567  -16.4313 C   0  0  2  0  0  0  0  0  0  0  0  0
   22.9990  -10.1913  -16.1517 N   0  0  0  0  0  0  0  0  0  0  0  0
   21.8479   -8.2766  -15.1927 C   0  0  0  0  0  0  0  0  0  0  0  0
   21.6384   -8.8780  -14.1252 O   0  0  0  0  0  0  0  0  0  0  0  0
   21.7613   -6.8598  -15.2016 N   0  0  0  0  0  0  0  0  0  0  0  0
   21.4612   -6.0704  -14.0125 C   0  0  1  0  0  0  0  0  0  0  0  0
   22.5763   -5.1669  -13.6334 C   0  0  0  0  0  0  0  0  0  0  0  0
   22.8666   -4.2243  -14.7096 C   0  0  0  0  0  0  0  0  0  0  0  0
   22.2808   -2.9841  -14.7516 C   0  0  0  0  0  0  0  0  0  0  0  0
   22.5722   -2.0902  -15.7939 C   0  0  0  0  0  0  0  0  0  0  0  0
   23.4516   -2.4511  -16.7871 C   0  0  0  0  0  0  0  0  0  0  0  0
   24.0415   -3.6912  -16.7509 C   0  0  0  0  0  0  0  0  0  0  0  0
   23.7421   -4.5579  -15.7164 C   0  0  0  0  0  0  0  0  0  0  0  0
   20.1976   -5.3595  -14.1188 C   0  0  0  0  0  0  0  0  0  0  0  0
   19.6170   -4.6822  -13.2493 O   0  0  0  0  0  0  0  0  0  0  0  0
   19.5144   -5.4246  -15.3535 O   0  0  0  0  0  0  0  0  0  0  0  0
  2  1  1  6
  2  4  1  0
  2  3  1  0
  4  6  1  0
  4  5  1  6
  6  7  2  0
  9  8  1  0
 10  9  1  1
 10 12  1  0
 11  6  1  0
 11 10  1  0
 12 13  2  0
 14 15  1  0
 14 12  1  0
 15 23  1  0
 15 16  1  6
 17 16  1  0
 18 17  2  0
 19 18  1  0
 20 21  1  0
 20 19  2  0
 21 22  2  0
 22 17  1  0
 23 24  2  0
 23 25  1  0
M  END
$$$$
