VSF.pdb
     RDKit          3D

 25 25  0  0  1  0  0  0  0  0999 V2000
   21.6581  -21.8889  -14.1229 C   0  0  0  0  0  0  0  0  0  0  0  0
   21.1110  -20.7268  -13.3547 C   0  0  2  0  0  0  0  0  0  0  0  0
   20.2504  -19.8986  -14.2864 C   0  0  0  0  0  0  0  0  0  0  0  0
   22.1837  -19.8240  -12.7996 C   0  0  2  0  0  0  0  0  0  0  0  0
   22.8680  -19.1449  -13.8768 N   0  0  0  0  0  0  0  0  0  0  0  0
   23.1415  -20.5714  -11.9362 C   0  0  0  0  0  0  0  0  0  0  0  0
   22.7279  -21.2448  -10.9592 O   0  0  0  0  0  0  0  0  0  0  0  0
   27.2131  -20.7228  -12.6995 O   0  0  0  0  0  0  0  0  0  0  0  0
   26.5534  -21.8262  -12.1690 C   0  0  0  0  0  0  0  0  0  0  0  0
   25.4084  -21.3045  -11.3260 C   0  0  2  0  0  0  0  0  0  0  0  0
   24.5394  -20.5577  -12.1730 N   0  0  0  0  0  0  0  0  0  0  0  0
   25.9274  -20.4867  -10.1783 C   0  0  0  0  0  0  0  0  0  0  0  0
   25.6713  -19.2715  -10.1238 O   0  0  0  0  0  0  0  0  0  0  0  0
   26.7091  -21.0625   -9.1428 N   0  0  0  0  0  0  0  0  0  0  0  0
   27.4212  -20.2715   -8.1455 C   0  0  1  0  0  0  0  0  0  0  0  0
   26.7889  -20.3444   -6.8045 C   0  0  0  0  0  0  0  0  0  0  0  0
   27.6751  -19.7920   -5.7844 C   0  0  0  0  0  0  0  0  0  0  0  0
   27.8394  -18.4376   -5.6370 C   0  0  0  0  0  0  0  0  0  0  0  0
   28.6953  -17.9240   -4.6501 C   0  0  0  0  0  0  0  0  0  0  0  0
   29.3803  -18.7777   -3.8181 C   0  0  0  0  0  0  0  0  0  0  0  0
   29.2202  -20.1347   -3.9605 C   0  0  0  0  0  0  0  0  0  0  0  0
   28.3729  -20.6218   -4.9381 C   0  0  0  0  0  0  0  0  0  0  0  0
   28.8402  -20.5832   -8.0952 C   0  0  0  0  0  0  0  0  0  0  0  0
   29.7845  -19.8349   -7.7787 O   0  0  0  0  0  0  0  0  0  0  0  0
   29.2328  -21.8945   -8.4442 O   0  0  0  0  0  0  0  0  0  0  0  0
  2  1  1  6
  2  4  1  0
  2  3  1  0
  4  6  1  0
  4  5  1  6
  6  7  2  0
  9  8  1  0
 10  9  1  6
 10 12  1  0
 11  6  1  0
 11 10  1  0
 12 13  2  0
 14 15  1  0
 14 12  1  0
 15 23  1  0
 15 16  1  1
 17 16  1  0
 18 17  2  0
 19 18  1  0
 20 21  1  0
 20 19  2  0
 21 22  2  0
 22 17  1  0
 23 24  2  0
 23 25  1  0
M  END
$$$$
