VSF.pdb
     RDKit          3D

 25 25  0  0  1  0  0  0  0  0999 V2000
   27.3861  -10.9959  -15.6312 C   0  0  0  0  0  0  0  0  0  0  0  0
   26.5887  -12.2612  -15.5754 C   0  0  2  0  0  0  0  0  0  0  0  0
   27.5167  -13.3963  -15.1942 C   0  0  0  0  0  0  0  0  0  0  0  0
   25.9474  -12.6176  -16.8928 C   0  0  2  0  0  0  0  0  0  0  0  0
   26.9645  -12.9133  -17.8766 N   0  0  0  0  0  0  0  0  0  0  0  0
   25.0305  -11.5432  -17.3685 C   0  0  0  0  0  0  0  0  0  0  0  0
   25.4900  -10.5032  -17.9037 O   0  0  0  0  0  0  0  0  0  0  0  0
   20.9256  -11.8347  -17.0621 O   0  0  0  0  0  0  0  0  0  0  0  0
   21.4723  -11.0882  -18.1004 C   0  0  0  0  0  0  0  0  0  0  0  0
   22.7978  -10.5412  -17.6129 C   0  0  2  0  0  0  0  0  0  0  0  0
   23.6218  -11.6427  -17.2416 N   0  0  0  0  0  0  0  0  0  0  0  0
   22.5872   -9.5790  -16.4792 C   0  0  0  0  0  0  0  0  0  0  0  0
   22.8938   -9.9153  -15.3224 O   0  0  0  0  0  0  0  0  0  0  0  0
   22.0438   -8.2844  -16.6880 N   0  0  0  0  0  0  0  0  0  0  0  0
   21.7899   -7.3405  -15.6054 C   0  0  1  0  0  0  0  0  0  0  0  0
   23.0388   -6.7559  -15.0561 C   0  0  0  0  0  0  0  0  0  0  0  0
   22.9088   -5.3100  -14.9025 C   0  0  0  0  0  0  0  0  0  0  0  0
   23.5173   -4.4407  -15.7727 C   0  0  0  0  0  0  0  0  0  0  0  0
   23.3810   -3.0531  -15.6101 C   0  0  0  0  0  0  0  0  0  0  0  0
   22.6327   -2.5500  -14.5722 C   0  0  0  0  0  0  0  0  0  0  0  0
   22.0209   -3.4149  -13.6977 C   0  0  0  0  0  0  0  0  0  0  0  0
   22.1667   -4.7782  -13.8739 C   0  0  0  0  0  0  0  0  0  0  0  0
   20.8257   -6.3164  -15.9727 C   0  0  0  0  0  0  0  0  0  0  0  0
   20.6541   -5.7804  -17.0840 O   0  0  0  0  0  0  0  0  0  0  0  0
   19.9566   -5.8466  -14.9631 O   0  0  0  0  0  0  0  0  0  0  0  0
  2  1  1  6
  2  4  1  0
  2  3  1  0
  4  6  1  0
  4  5  1  6
  6  7  2  0
  9  8  1  0
 10  9  1  1
 10 12  1  0
 11  6  1  0
 11 10  1  0
 12 13  2  0
 14 15  1  0
 14 12  1  0
 15 23  1  0
 15 16  1  6
 17 16  1  0
 18 17  2  0
 19 18  1  0
 20 21  1  0
 20 19  2  0
 21 22  2  0
 22 17  1  0
 23 24  2  0
 23 25  1  0
M  END
$$$$
