VSF.pdb
     RDKit          3D

 25 25  0  0  1  0  0  0  0  0999 V2000
   22.3445  -12.6743  -19.9214 C   0  0  0  0  0  0  0  0  0  0  0  0
   22.9739  -13.0512  -18.6169 C   0  0  2  0  0  0  0  0  0  0  0  0
   23.0920  -14.5604  -18.5599 C   0  0  0  0  0  0  0  0  0  0  0  0
   22.1698  -12.6099  -17.4201 C   0  0  2  0  0  0  0  0  0  0  0  0
   20.9054  -13.3098  -17.3856 N   0  0  0  0  0  0  0  0  0  0  0  0
   21.9712  -11.1329  -17.4030 C   0  0  0  0  0  0  0  0  0  0  0  0
   22.9211  -10.3650  -17.1079 O   0  0  0  0  0  0  0  0  0  0  0  0
   18.2939   -9.4613  -17.9863 O   0  0  0  0  0  0  0  0  0  0  0  0
   19.3688   -8.7432  -18.4993 C   0  0  0  0  0  0  0  0  0  0  0  0
   20.5903   -9.1175  -17.6857 C   0  0  2  0  0  0  0  0  0  0  0  0
   20.7232  -10.5359  -17.7136 N   0  0  0  0  0  0  0  0  0  0  0  0
   20.4774   -8.5827  -16.2869 C   0  0  0  0  0  0  0  0  0  0  0  0
   19.9042   -9.2582  -15.4149 O   0  0  0  0  0  0  0  0  0  0  0  0
   21.0096   -7.3177  -15.9245 N   0  0  0  0  0  0  0  0  0  0  0  0
   20.9152   -6.7677  -14.5770 C   0  0  1  0  0  0  0  0  0  0  0  0
   22.2169   -6.7837  -13.8638 C   0  0  0  0  0  0  0  0  0  0  0  0
   23.2321   -6.0612  -14.6244 C   0  0  0  0  0  0  0  0  0  0  0  0
   24.1000   -6.7167  -15.4613 C   0  0  0  0  0  0  0  0  0  0  0  0
   25.0697   -6.0057  -16.1856 C   0  0  0  0  0  0  0  0  0  0  0  0
   25.1590   -4.6393  -16.0624 C   0  0  0  0  0  0  0  0  0  0  0  0
   24.2931   -3.9772  -15.2263 C   0  0  0  0  0  0  0  0  0  0  0  0
   23.3448   -4.6944  -14.5212 C   0  0  0  0  0  0  0  0  0  0  0  0
   20.2984   -5.4515  -14.5534 C   0  0  0  0  0  0  0  0  0  0  0  0
   20.0166   -4.7134  -15.5165 O   0  0  0  0  0  0  0  0  0  0  0  0
   19.9629   -4.9107  -13.2923 O   0  0  0  0  0  0  0  0  0  0  0  0
  2  1  1  6
  2  4  1  0
  2  3  1  0
  4  6  1  0
  4  5  1  6
  6  7  2  0
  9  8  1  0
 10  9  1  6
 10 12  1  0
 11  6  1  0
 11 10  1  0
 12 13  2  0
 14 15  1  0
 14 12  1  0
 15 23  1  0
 15 16  1  6
 17 16  1  0
 18 17  2  0
 19 18  1  0
 20 21  1  0
 20 19  2  0
 21 22  2  0
 22 17  1  0
 23 24  2  0
 23 25  1  0
M  END
$$$$
