WQG.pdb
     RDKit          3D

 28 29  0  0  1  0  0  0  0  0999 V2000
    6.4359  -17.8887   24.4245 N   0  0  0  0  0  0  0  0  0  0  0  0
    7.0245  -16.6060   24.1390 C   0  0  1  0  0  0  0  0  0  0  0  0
    7.8634  -16.1665   25.3027 C   0  0  0  0  0  0  0  0  0  0  0  0
    7.1683  -15.0505   25.9983 C   0  0  0  0  0  0  0  0  0  0  0  0
    6.1499  -15.2332   26.9511 C   0  0  0  0  0  0  0  0  0  0  0  0
    5.7788  -14.0273   27.3998 N   0  0  0  0  0  0  0  0  0  0  0  0
    6.4928  -13.0600   26.7977 C   0  0  0  0  0  0  0  0  0  0  0  0
    6.4516  -11.6937   26.9339 C   0  0  0  0  0  0  0  0  0  0  0  0
    7.2981  -10.9205   26.1764 C   0  0  0  0  0  0  0  0  0  0  0  0
    8.1738  -11.5536   25.2907 C   0  0  0  0  0  0  0  0  0  0  0  0
    8.1950  -12.9318   25.1731 C   0  0  0  0  0  0  0  0  0  0  0  0
    7.3598  -13.7057   25.9217 C   0  0  0  0  0  0  0  0  0  0  0  0
    7.8292  -16.7385   22.8929 C   0  0  0  0  0  0  0  0  0  0  0  0
    8.2874  -17.8368   22.5789 O   0  0  0  0  0  0  0  0  0  0  0  0
    7.0990  -12.8582   17.9688 N   0  0  0  0  0  0  0  0  0  0  0  0
    8.1179  -13.7311   17.5411 C   0  0  0  0  0  0  0  0  0  0  0  0
    8.6554  -13.4569   16.4142 O   0  0  0  0  0  0  0  0  0  0  0  0
    8.5576  -14.9138   18.3447 C   0  0  0  0  0  0  0  0  0  0  0  0
    8.1049  -14.6923   19.7664 C   0  0  0  0  0  0  0  0  0  0  0  0
    8.5979  -15.7704   20.6965 C   0  0  2  0  0  0  0  0  0  0  0  0
    8.0915  -15.6193   22.0378 N   0  0  0  0  0  0  0  0  0  0  0  0
   10.0652  -15.8721   20.7283 C   0  0  0  0  0  0  0  0  0  0  0  0
   10.6680  -16.3181   19.7308 O   0  0  0  0  0  0  0  0  0  0  0  0
   10.8370  -15.4757   21.8701 N   0  0  0  0  0  0  0  0  0  0  0  0
   11.7277  -16.3539   22.5699 C   0  0  0  0  0  0  0  0  0  0  0  0
   13.0840  -16.3829   21.9977 C   0  0  0  0  0  0  0  0  0  0  0  0
   13.3309  -15.6287   20.8600 O   0  0  0  0  0  0  0  0  0  0  0  0
   14.0402  -17.0474   22.4711 O   0  0  0  0  0  0  0  0  0  0  0  0
  2  1  1  1
  3  4  1  0
  3  2  1  0
  4  5  2  0
  6  5  1  0
  7  6  1  0
  8  7  2  0
  9  8  1  0
 10 11  1  0
 10  9  2  0
 11 12  2  0
 12  7  1  0
 12  4  1  0
 13 21  1  0
 13  2  1  0
 14 13  2  0
 16 15  1  0
 17 16  2  0
 18 16  1  0
 20 19  1  6
 19 18  1  0
 20 22  1  0
 20 21  1  0
 22 23  2  0
 24 25  1  0
 24 22  1  0
 25 26  1  0
 26 28  2  0
 26 27  1  0
M  END
$$$$
