WQG.pdb
     RDKit          3D

 28 29  0  0  1  0  0  0  0  0999 V2000
    6.0251  -16.6691   23.7095 N   0  0  0  0  0  0  0  0  0  0  0  0
    7.3084  -16.2693   23.1930 C   0  0  1  0  0  0  0  0  0  0  0  0
    8.1761  -15.7868   24.3179 C   0  0  0  0  0  0  0  0  0  0  0  0
    7.3348  -15.0199   25.2751 C   0  0  0  0  0  0  0  0  0  0  0  0
    6.3396  -15.5987   26.0831 C   0  0  0  0  0  0  0  0  0  0  0  0
    5.8101  -14.6341   26.8463 N   0  0  0  0  0  0  0  0  0  0  0  0
    6.3978  -13.4526   26.5879 C   0  0  0  0  0  0  0  0  0  0  0  0
    6.1776  -12.2034   27.1153 C   0  0  0  0  0  0  0  0  0  0  0  0
    6.9234  -11.1438   26.6581 C   0  0  0  0  0  0  0  0  0  0  0  0
    7.8828  -11.3750   25.6690 C   0  0  0  0  0  0  0  0  0  0  0  0
    8.0846  -12.6434   25.1550 C   0  0  0  0  0  0  0  0  0  0  0  0
    7.3500  -13.6998   25.6040 C   0  0  0  0  0  0  0  0  0  0  0  0
    7.9059  -17.4407   22.4938 C   0  0  0  0  0  0  0  0  0  0  0  0
    7.4367  -18.5634   22.6788 O   0  0  0  0  0  0  0  0  0  0  0  0
    8.9867  -13.0062   19.4281 N   0  0  0  0  0  0  0  0  0  0  0  0
    7.8621  -13.8036   19.1412 C   0  0  0  0  0  0  0  0  0  0  0  0
    7.2201  -13.5062   18.0766 O   0  0  0  0  0  0  0  0  0  0  0  0
    7.4299  -14.9353   20.0190 C   0  0  0  0  0  0  0  0  0  0  0  0
    8.3626  -14.9748   21.2037 C   0  0  0  0  0  0  0  0  0  0  0  0
    9.4254  -16.0329   21.0579 C   0  0  2  0  0  0  0  0  0  0  0  0
    9.0201  -17.3043   21.6037 N   0  0  0  0  0  0  0  0  0  0  0  0
   10.7161  -15.6318   21.6390 C   0  0  0  0  0  0  0  0  0  0  0  0
   11.4928  -14.9211   20.9691 O   0  0  0  0  0  0  0  0  0  0  0  0
   11.1206  -16.0288   22.9563 N   0  0  0  0  0  0  0  0  0  0  0  0
   12.3676  -15.6487   23.5521 C   0  0  0  0  0  0  0  0  0  0  0  0
   13.4869  -16.5240   23.1661 C   0  0  0  0  0  0  0  0  0  0  0  0
   13.2309  -17.5639   22.2845 O   0  0  0  0  0  0  0  0  0  0  0  0
   14.6659  -16.3940   23.5822 O   0  0  0  0  0  0  0  0  0  0  0  0
  2  1  1  1
  3  4  1  0
  3  2  1  0
  4  5  2  0
  6  5  1  0
  7  6  1  0
  8  7  2  0
  9  8  1  0
 10 11  1  0
 10  9  2  0
 11 12  2  0
 12  7  1  0
 12  4  1  0
 13 21  1  0
 13  2  1  0
 14 13  2  0
 16 15  1  0
 17 16  2  0
 18 16  1  0
 20 19  1  1
 19 18  1  0
 20 22  1  0
 20 21  1  0
 22 23  2  0
 24 25  1  0
 24 22  1  0
 25 26  1  0
 26 28  2  0
 26 27  1  0
M  END
$$$$
