WQG.pdb
     RDKit          3D

 28 29  0  0  1  0  0  0  0  0999 V2000
    6.8211  -16.8577   22.8325 N   0  0  0  0  0  0  0  0  0  0  0  0
    7.5084  -15.5929   22.7950 C   0  0  1  0  0  0  0  0  0  0  0  0
    8.3154  -15.4208   24.0481 C   0  0  0  0  0  0  0  0  0  0  0  0
    7.4539  -14.8002   25.0897 C   0  0  0  0  0  0  0  0  0  0  0  0
    6.6336  -15.5318   25.9674 C   0  0  0  0  0  0  0  0  0  0  0  0
    6.0319  -14.6664   26.7932 N   0  0  0  0  0  0  0  0  0  0  0  0
    6.4072  -13.4064   26.5108 C   0  0  0  0  0  0  0  0  0  0  0  0
    6.0458  -12.2103   27.0815 C   0  0  0  0  0  0  0  0  0  0  0  0
    6.5780  -11.0448   26.5849 C   0  0  0  0  0  0  0  0  0  0  0  0
    7.4710  -11.1177   25.5128 C   0  0  0  0  0  0  0  0  0  0  0  0
    7.8184  -12.3357   24.9566 C   0  0  0  0  0  0  0  0  0  0  0  0
    7.2961  -13.4961   25.4442 C   0  0  0  0  0  0  0  0  0  0  0  0
    8.3639  -15.5724   21.5762 C   0  0  0  0  0  0  0  0  0  0  0  0
    8.7146  -16.6340   21.0616 O   0  0  0  0  0  0  0  0  0  0  0  0
    6.6440  -14.9920   17.3096 N   0  0  0  0  0  0  0  0  0  0  0  0
    7.6277  -13.9848   17.3365 C   0  0  0  0  0  0  0  0  0  0  0  0
    8.3841  -13.9113   16.3087 O   0  0  0  0  0  0  0  0  0  0  0  0
    7.7921  -13.0478   18.4911 C   0  0  0  0  0  0  0  0  0  0  0  0
    9.2396  -13.0939   18.9127 C   0  0  0  0  0  0  0  0  0  0  0  0
    9.5520  -14.3087   19.7476 C   0  0  2  0  0  0  0  0  0  0  0  0
    8.7977  -14.3462   20.9756 N   0  0  0  0  0  0  0  0  0  0  0  0
   10.9869  -14.4477   20.0418 C   0  0  0  0  0  0  0  0  0  0  0  0
   11.8101  -14.3929   19.1056 O   0  0  0  0  0  0  0  0  0  0  0  0
   11.4811  -14.6453   21.3733 N   0  0  0  0  0  0  0  0  0  0  0  0
   12.8732  -14.7609   21.6943 C   0  0  0  0  0  0  0  0  0  0  0  0
   13.3809  -16.1391   21.5914 C   0  0  0  0  0  0  0  0  0  0  0  0
   12.5017  -17.1322   21.1852 O   0  0  0  0  0  0  0  0  0  0  0  0
   14.5630  -16.4812   21.8476 O   0  0  0  0  0  0  0  0  0  0  0  0
  2  1  1  1
  3  4  1  0
  3  2  1  0
  4  5  2  0
  6  5  1  0
  7  6  1  0
  8  7  2  0
  9  8  1  0
 10 11  1  0
 10  9  2  0
 11 12  2  0
 12  7  1  0
 12  4  1  0
 13 21  1  0
 13  2  1  0
 14 13  2  0
 16 15  1  0
 17 16  2  0
 18 16  1  0
 20 19  1  1
 19 18  1  0
 20 22  1  0
 20 21  1  0
 22 23  2  0
 24 25  1  0
 24 22  1  0
 25 26  1  0
 26 28  2  0
 26 27  1  0
M  END
$$$$
