WQG.pdb
     RDKit          3D

 28 29  0  0  1  0  0  0  0  0999 V2000
    6.6647  -17.4243   23.7038 N   0  0  0  0  0  0  0  0  0  0  0  0
    7.4779  -16.2853   23.3650 C   0  0  1  0  0  0  0  0  0  0  0  0
    8.2228  -15.8187   24.5810 C   0  0  0  0  0  0  0  0  0  0  0  0
    7.3251  -14.9483   25.3865 C   0  0  0  0  0  0  0  0  0  0  0  0
    6.2679  -15.4312   26.1786 C   0  0  0  0  0  0  0  0  0  0  0  0
    5.6975  -14.3870   26.7928 N   0  0  0  0  0  0  0  0  0  0  0  0
    6.3166  -13.2433   26.4511 C   0  0  0  0  0  0  0  0  0  0  0  0
    6.0749  -11.9431   26.8230 C   0  0  0  0  0  0  0  0  0  0  0  0
    6.8645  -10.9430   26.3088 C   0  0  0  0  0  0  0  0  0  0  0  0
    7.8888  -11.2848   25.4222 C   0  0  0  0  0  0  0  0  0  0  0  0
    8.1109  -12.6025   25.0643 C   0  0  0  0  0  0  0  0  0  0  0  0
    7.3333  -13.6003   25.5709 C   0  0  0  0  0  0  0  0  0  0  0  0
    8.4015  -16.6913   22.2697 C   0  0  0  0  0  0  0  0  0  0  0  0
    8.9114  -17.8114   22.2882 O   0  0  0  0  0  0  0  0  0  0  0  0
    8.6800  -12.8731   18.0315 N   0  0  0  0  0  0  0  0  0  0  0  0
    7.9507  -14.0446   17.7510 C   0  0  0  0  0  0  0  0  0  0  0  0
    6.8721  -13.8879   17.0830 O   0  0  0  0  0  0  0  0  0  0  0  0
    8.3966  -15.4001   18.2002 C   0  0  0  0  0  0  0  0  0  0  0  0
    9.6645  -15.2214   18.9976 C   0  0  0  0  0  0  0  0  0  0  0  0
    9.7191  -16.1353   20.1944 C   0  0  2  0  0  0  0  0  0  0  0  0
    8.7207  -15.8136   21.1834 N   0  0  0  0  0  0  0  0  0  0  0  0
   11.0480  -16.1742   20.8247 C   0  0  0  0  0  0  0  0  0  0  0  0
   11.2408  -15.5404   21.8822 O   0  0  0  0  0  0  0  0  0  0  0  0
   12.1398  -16.9182   20.2672 N   0  0  0  0  0  0  0  0  0  0  0  0
   13.5019  -16.7623   20.6850 C   0  0  0  0  0  0  0  0  0  0  0  0
   13.8979  -17.7088   21.7410 C   0  0  0  0  0  0  0  0  0  0  0  0
   15.2517  -17.8979   21.9768 O   0  0  0  0  0  0  0  0  0  0  0  0
   13.0898  -18.3619   22.4485 O   0  0  0  0  0  0  0  0  0  0  0  0
  2  1  1  1
  3  4  1  0
  3  2  1  0
  4  5  2  0
  6  5  1  0
  7  6  1  0
  8  7  2  0
  9  8  1  0
 10 11  1  0
 10  9  2  0
 11 12  2  0
 12  7  1  0
 12  4  1  0
 13 21  1  0
 13  2  1  0
 14 13  2  0
 16 15  1  0
 17 16  2  0
 18 16  1  0
 20 19  1  6
 19 18  1  0
 20 22  1  0
 20 21  1  0
 22 23  2  0
 24 25  1  0
 24 22  1  0
 25 26  1  0
 26 28  2  0
 26 27  1  0
M  END
$$$$
