WQG.pdb
     RDKit          3D

 28 29  0  0  1  0  0  0  0  0999 V2000
    6.6698  -17.7774   23.4775 N   0  0  0  0  0  0  0  0  0  0  0  0
    7.3132  -16.4914   23.4030 C   0  0  1  0  0  0  0  0  0  0  0  0
    7.9953  -16.1931   24.7058 C   0  0  0  0  0  0  0  0  0  0  0  0
    7.1535  -15.2413   25.4788 C   0  0  0  0  0  0  0  0  0  0  0  0
    6.0685  -15.6299   26.2852 C   0  0  0  0  0  0  0  0  0  0  0  0
    5.5641  -14.5315   26.8616 N   0  0  0  0  0  0  0  0  0  0  0  0
    6.2529  -13.4410   26.4817 C   0  0  0  0  0  0  0  0  0  0  0  0
    6.0925  -12.1162   26.8077 C   0  0  0  0  0  0  0  0  0  0  0  0
    6.9424  -11.1854   26.2606 C   0  0  0  0  0  0  0  0  0  0  0  0
    7.9434  -11.6207   25.3884 C   0  0  0  0  0  0  0  0  0  0  0  0
    8.0833  -12.9613   25.0769 C   0  0  0  0  0  0  0  0  0  0  0  0
    7.2453  -13.8908   25.6164 C   0  0  0  0  0  0  0  0  0  0  0  0
    8.2759  -16.5258   22.2673 C   0  0  0  0  0  0  0  0  0  0  0  0
    8.7031  -17.6078   21.8650 O   0  0  0  0  0  0  0  0  0  0  0  0
    6.8138  -12.8683   19.3480 N   0  0  0  0  0  0  0  0  0  0  0  0
    7.3201  -14.1006   18.8920 C   0  0  0  0  0  0  0  0  0  0  0  0
    6.4890  -15.0713   18.8589 O   0  0  0  0  0  0  0  0  0  0  0  0
    8.7433  -14.2812   18.4677 C   0  0  0  0  0  0  0  0  0  0  0  0
    9.6094  -14.1001   19.6892 C   0  0  0  0  0  0  0  0  0  0  0  0
    9.6737  -15.3470   20.5327 C   0  0  2  0  0  0  0  0  0  0  0  0
    8.7271  -15.3301   21.6199 N   0  0  0  0  0  0  0  0  0  0  0  0
   11.0230  -15.6170   21.0533 C   0  0  0  0  0  0  0  0  0  0  0  0
   11.9843  -15.6701   20.2595 O   0  0  0  0  0  0  0  0  0  0  0  0
   11.2794  -15.8235   22.4490 N   0  0  0  0  0  0  0  0  0  0  0  0
   12.5937  -15.9719   23.0012 C   0  0  0  0  0  0  0  0  0  0  0  0
   13.0866  -17.3588   22.9641 C   0  0  0  0  0  0  0  0  0  0  0  0
   14.3049  -17.6371   23.5662 O   0  0  0  0  0  0  0  0  0  0  0  0
   12.4767  -18.3147   22.4216 O   0  0  0  0  0  0  0  0  0  0  0  0
  2  1  1  1
  3  4  1  0
  3  2  1  0
  4  5  2  0
  6  5  1  0
  7  6  1  0
  8  7  2  0
  9  8  1  0
 10 11  1  0
 10  9  2  0
 11 12  2  0
 12  7  1  0
 12  4  1  0
 13 21  1  0
 13  2  1  0
 14 13  2  0
 16 15  1  0
 17 16  2  0
 18 16  1  0
 20 19  1  1
 19 18  1  0
 20 22  1  0
 20 21  1  0
 22 23  2  0
 24 25  1  0
 24 22  1  0
 25 26  1  0
 26 28  2  0
 26 27  1  0
M  END
$$$$
