WQG.pdb
     RDKit          3D

 28 29  0  0  1  0  0  0  0  0999 V2000
    7.0802  -17.5443   22.8941 N   0  0  0  0  0  0  0  0  0  0  0  0
    7.4533  -16.1584   23.0108 C   0  0  1  0  0  0  0  0  0  0  0  0
    8.1694  -15.9372   24.3106 C   0  0  0  0  0  0  0  0  0  0  0  0
    7.2579  -15.2209   25.2424 C   0  0  0  0  0  0  0  0  0  0  0  0
    6.2206  -15.8444   25.9592 C   0  0  0  0  0  0  0  0  0  0  0  0
    5.6301  -14.9190   26.7260 N   0  0  0  0  0  0  0  0  0  0  0  0
    6.2171  -13.7213   26.5560 C   0  0  0  0  0  0  0  0  0  0  0  0
    5.9465  -12.4981   27.1198 C   0  0  0  0  0  0  0  0  0  0  0  0
    6.7058  -11.4120   26.7567 C   0  0  0  0  0  0  0  0  0  0  0  0
    7.7299  -11.5905   25.8231 C   0  0  0  0  0  0  0  0  0  0  0  0
    7.9816  -12.8335   25.2707 C   0  0  0  0  0  0  0  0  0  0  0  0
    7.2340  -13.9159   25.6265 C   0  0  0  0  0  0  0  0  0  0  0  0
    8.3074  -15.8138   21.8405 C   0  0  0  0  0  0  0  0  0  0  0  0
    9.1203  -16.6358   21.4181 O   0  0  0  0  0  0  0  0  0  0  0  0
    6.7878  -15.0995   17.4208 N   0  0  0  0  0  0  0  0  0  0  0  0
    7.4964  -13.8918   17.5705 C   0  0  0  0  0  0  0  0  0  0  0  0
    8.3054  -13.5949   16.6264 O   0  0  0  0  0  0  0  0  0  0  0  0
    7.3251  -12.9972   18.7573 C   0  0  0  0  0  0  0  0  0  0  0  0
    8.6664  -12.8806   19.4372 C   0  0  0  0  0  0  0  0  0  0  0  0
    9.0856  -14.1689   20.0967 C   0  0  2  0  0  0  0  0  0  0  0  0
    8.2146  -14.5447   21.1823 N   0  0  0  0  0  0  0  0  0  0  0  0
   10.4803  -14.1452   20.5645 C   0  0  0  0  0  0  0  0  0  0  0  0
   10.7296  -13.7487   21.7212 O   0  0  0  0  0  0  0  0  0  0  0  0
   11.5741  -14.5633   19.7368 N   0  0  0  0  0  0  0  0  0  0  0  0
   12.9403  -14.5694   20.1700 C   0  0  0  0  0  0  0  0  0  0  0  0
   13.8794  -15.0095   19.1249 C   0  0  0  0  0  0  0  0  0  0  0  0
   15.2285  -14.7392   19.3010 O   0  0  0  0  0  0  0  0  0  0  0  0
   13.5422  -15.6171   18.0775 O   0  0  0  0  0  0  0  0  0  0  0  0
  2  1  1  6
  3  4  1  0
  3  2  1  0
  4  5  2  0
  6  5  1  0
  7  6  1  0
  8  7  2  0
  9  8  1  0
 10 11  1  0
 10  9  2  0
 11 12  2  0
 12  7  1  0
 12  4  1  0
 13 21  1  0
 13  2  1  0
 14 13  2  0
 16 15  1  0
 17 16  2  0
 18 16  1  0
 20 19  1  1
 19 18  1  0
 20 22  1  0
 20 21  1  0
 22 23  2  0
 24 25  1  0
 24 22  1  0
 25 26  1  0
 26 28  2  0
 26 27  1  0
M  END
$$$$
