WQG.pdb
     RDKit          3D

 28 29  0  0  1  0  0  0  0  0999 V2000
    6.4624  -18.1133   23.9477 N   0  0  0  0  0  0  0  0  0  0  0  0
    7.1322  -16.8394   23.9020 C   0  0  1  0  0  0  0  0  0  0  0  0
    7.7550  -16.5496   25.2360 C   0  0  0  0  0  0  0  0  0  0  0  0
    7.1169  -15.3334   25.8070 C   0  0  0  0  0  0  0  0  0  0  0  0
    5.8402  -15.3209   26.3972 C   0  0  0  0  0  0  0  0  0  0  0  0
    5.5974  -14.0798   26.8372 N   0  0  0  0  0  0  0  0  0  0  0  0
    6.6394  -13.2728   26.5709 C   0  0  0  0  0  0  0  0  0  0  0  0
    6.8315  -11.9368   26.8263 C   0  0  0  0  0  0  0  0  0  0  0  0
    8.0059  -11.3428   26.4313 C   0  0  0  0  0  0  0  0  0  0  0  0
    8.9666  -12.1213   25.7809 C   0  0  0  0  0  0  0  0  0  0  0  0
    8.7479  -13.4651   25.5361 C   0  0  0  0  0  0  0  0  0  0  0  0
    7.5865  -14.0620   25.9259 C   0  0  0  0  0  0  0  0  0  0  0  0
    8.1485  -16.8948   22.8149 C   0  0  0  0  0  0  0  0  0  0  0  0
    8.6623  -17.9730   22.5174 O   0  0  0  0  0  0  0  0  0  0  0  0
    7.9346  -12.8091   18.1732 N   0  0  0  0  0  0  0  0  0  0  0  0
    7.6522  -14.1545   18.4783 C   0  0  0  0  0  0  0  0  0  0  0  0
    6.4188  -14.4892   18.4516 O   0  0  0  0  0  0  0  0  0  0  0  0
    8.7197  -15.1468   18.8159 C   0  0  0  0  0  0  0  0  0  0  0  0
    9.4174  -14.6594   20.0612 C   0  0  0  0  0  0  0  0  0  0  0  0
    9.5826  -15.7509   21.0867 C   0  0  2  0  0  0  0  0  0  0  0  0
    8.5533  -15.7238   22.0957 N   0  0  0  0  0  0  0  0  0  0  0  0
   10.9068  -15.7383   21.7278 C   0  0  0  0  0  0  0  0  0  0  0  0
   11.9306  -15.7647   21.0148 O   0  0  0  0  0  0  0  0  0  0  0  0
   11.0690  -15.6967   23.1520 N   0  0  0  0  0  0  0  0  0  0  0  0
   12.3269  -15.4725   23.8014 C   0  0  0  0  0  0  0  0  0  0  0  0
   13.2423  -16.6218   23.7079 C   0  0  0  0  0  0  0  0  0  0  0  0
   14.4527  -16.5514   24.3818 O   0  0  0  0  0  0  0  0  0  0  0  0
   13.0023  -17.6694   23.0558 O   0  0  0  0  0  0  0  0  0  0  0  0
  2  1  1  1
  3  4  1  0
  3  2  1  0
  4  5  2  0
  6  5  1  0
  7  6  1  0
  8  7  2  0
  9  8  1  0
 10 11  1  0
 10  9  2  0
 11 12  2  0
 12  7  1  0
 12  4  1  0
 13 21  1  0
 13  2  1  0
 14 13  2  0
 16 15  1  0
 17 16  2  0
 18 16  1  0
 20 19  1  6
 19 18  1  0
 20 22  1  0
 20 21  1  0
 22 23  2  0
 24 25  1  0
 24 22  1  0
 25 26  1  0
 26 28  2  0
 26 27  1  0
M  END
$$$$
