WQG.pdb
     RDKit          3D

 28 29  0  0  1  0  0  0  0  0999 V2000
    8.8462  -16.5732   23.2584 N   0  0  0  0  0  0  0  0  0  0  0  0
    8.7054  -16.6331   24.6902 C   0  0  1  0  0  0  0  0  0  0  0  0
    7.3133  -16.2286   25.0768 C   0  0  0  0  0  0  0  0  0  0  0  0
    7.0720  -14.8381   24.6072 C   0  0  0  0  0  0  0  0  0  0  0  0
    6.9098  -14.4836   23.2557 C   0  0  0  0  0  0  0  0  0  0  0  0
    6.6723  -13.1671   23.1965 N   0  0  0  0  0  0  0  0  0  0  0  0
    6.6692  -12.6326   24.4304 C   0  0  0  0  0  0  0  0  0  0  0  0
    6.4796  -11.3384   24.8502 C   0  0  0  0  0  0  0  0  0  0  0  0
    6.5396  -11.0558   26.1935 C   0  0  0  0  0  0  0  0  0  0  0  0
    6.7925  -12.0985   27.0885 C   0  0  0  0  0  0  0  0  0  0  0  0
    6.9796  -13.3934   26.6390 C   0  0  0  0  0  0  0  0  0  0  0  0
    6.9204  -13.6821   25.3086 C   0  0  0  0  0  0  0  0  0  0  0  0
    9.0206  -18.0225   25.1238 C   0  0  0  0  0  0  0  0  0  0  0  0
    8.1741  -18.6761   25.7330 O   0  0  0  0  0  0  0  0  0  0  0  0
   12.1720  -20.0715   21.6536 N   0  0  0  0  0  0  0  0  0  0  0  0
   10.8813  -20.6315   21.7106 C   0  0  0  0  0  0  0  0  0  0  0  0
   10.2734  -20.7555   20.5930 O   0  0  0  0  0  0  0  0  0  0  0  0
   10.2438  -21.0613   22.9940 C   0  0  0  0  0  0  0  0  0  0  0  0
   11.2210  -20.7742   24.1065 C   0  0  0  0  0  0  0  0  0  0  0  0
   10.5929  -19.9896   25.2290 C   0  0  2  0  0  0  0  0  0  0  0  0
   10.2890  -18.6312   24.8534 N   0  0  0  0  0  0  0  0  0  0  0  0
   11.4048  -19.9956   26.4560 C   0  0  0  0  0  0  0  0  0  0  0  0
   11.7501  -21.0863   26.9542 O   0  0  0  0  0  0  0  0  0  0  0  0
   11.8185  -18.7872   27.1078 N   0  0  0  0  0  0  0  0  0  0  0  0
   12.5585  -18.7605   28.3351 C   0  0  0  0  0  0  0  0  0  0  0  0
   11.7537  -19.1421   29.5074 C   0  0  0  0  0  0  0  0  0  0  0  0
   12.3460  -19.0705   30.7597 O   0  0  0  0  0  0  0  0  0  0  0  0
   10.5595  -19.5309   29.4527 O   0  0  0  0  0  0  0  0  0  0  0  0
  2  1  1  6
  3  4  1  0
  3  2  1  0
  4  5  2  0
  6  5  1  0
  7  6  1  0
  8  7  2  0
  9  8  1  0
 10 11  1  0
 10  9  2  0
 11 12  2  0
 12  7  1  0
 12  4  1  0
 13 21  1  0
 13  2  1  0
 14 13  2  0
 16 15  1  0
 17 16  2  0
 18 16  1  0
 20 19  1  6
 19 18  1  0
 20 22  1  0
 20 21  1  0
 22 23  2  0
 24 25  1  0
 24 22  1  0
 25 26  1  0
 26 28  2  0
 26 27  1  0
M  END
$$$$
