WKQ.pdb
     RDKit          3D

 33 34  0  0  1  0  0  0  0  0999 V2000
   26.8928  -20.1026  -17.4618 N   0  0  0  0  0  0  0  0  0  0  0  0
   26.5938  -19.3029  -16.3103 C   0  0  1  0  0  0  0  0  0  0  0  0
   25.9081  -18.0410  -16.7100 C   0  0  0  0  0  0  0  0  0  0  0  0
   26.8175  -17.2236  -17.5454 C   0  0  0  0  0  0  0  0  0  0  0  0
   26.4208  -16.3505  -18.5615 C   0  0  0  0  0  0  0  0  0  0  0  0
   27.4816  -15.7413  -19.0954 N   0  0  0  0  0  0  0  0  0  0  0  0
   28.5841  -16.1892  -18.4573 C   0  0  0  0  0  0  0  0  0  0  0  0
   29.9233  -15.8837  -18.6316 C   0  0  0  0  0  0  0  0  0  0  0  0
   30.8541  -16.5098  -17.8328 C   0  0  0  0  0  0  0  0  0  0  0  0
   30.5009  -17.4259  -16.8706 C   0  0  0  0  0  0  0  0  0  0  0  0
   29.1414  -17.7154  -16.7162 C   0  0  0  0  0  0  0  0  0  0  0  0
   28.1948  -17.1124  -17.4897 C   0  0  0  0  0  0  0  0  0  0  0  0
   25.7961  -20.1032  -15.3446 C   0  0  0  0  0  0  0  0  0  0  0  0
   25.0348  -20.9844  -15.7869 O   0  0  0  0  0  0  0  0  0  0  0  0
   25.8846  -19.8851  -13.9542 N   0  0  0  0  0  0  0  0  0  0  0  0
   25.1020  -20.6488  -12.9656 C   0  0  1  0  0  0  0  0  0  0  0  0
   25.6616  -20.2966  -11.6376 C   0  0  0  0  0  0  0  0  0  0  0  0
   25.0495  -20.9259  -10.4420 C   0  0  0  0  0  0  0  0  0  0  0  0
   25.8196  -20.4981   -9.1868 C   0  0  0  0  0  0  0  0  0  0  0  0
   25.2879  -21.1203   -7.9374 C   0  0  0  0  0  0  0  0  0  0  0  0
   25.9755  -20.5662   -6.7683 N   0  0  0  0  0  0  0  0  0  0  0  0
   23.6827  -20.3989  -13.1929 C   0  0  0  0  0  0  0  0  0  0  0  0
   23.2059  -19.2407  -13.4200 O   0  0  0  0  0  0  0  0  0  0  0  0
   19.5281  -24.9918  -14.5531 N   0  0  0  0  0  0  0  0  0  0  0  0
   18.6985  -23.8908  -14.2662 C   0  0  0  0  0  0  0  0  0  0  0  0
   17.4479  -24.0295  -14.3940 O   0  0  0  0  0  0  0  0  0  0  0  0
   19.2161  -22.5873  -13.8184 C   0  0  0  0  0  0  0  0  0  0  0  0
   20.6855  -22.4996  -13.6502 C   0  0  0  0  0  0  0  0  0  0  0  0
   21.2739  -21.1732  -13.2996 C   0  0  2  0  0  0  0  0  0  0  0  0
   22.7477  -21.4478  -13.1780 N   0  0  0  0  0  0  0  0  0  0  0  0
   20.8804  -20.5756  -12.0275 C   0  0  0  0  0  0  0  0  0  0  0  0
   21.4706  -20.8309  -10.9453 O   0  0  0  0  0  0  0  0  0  0  0  0
   19.8061  -19.6657  -11.9660 O   0  0  0  0  0  0  0  0  0  0  0  0
  2  1  1  6
  3  2  1  0
  4  5  2  0
  4  3  1  0
  6  5  1  0
  7 12  2  0
  7  6  1  0
  8  7  1  0
  9 10  1  0
  9  8  2  0
 10 11  2  0
 11 12  1  0
 12  4  1  0
 13  2  1  0
 14 13  2  0
 15 13  1  0
 16 22  1  0
 16 15  1  0
 16 17  1  1
 18 17  1  0
 19 18  1  0
 20 19  1  0
 21 20  1  0
 22 30  1  0
 23 22  2  0
 24 25  1  0
 25 27  1  0
 26 25  2  0
 27 28  1  0
 29 28  1  1
 29 31  1  0
 30 29  1  0
 31 32  2  0
 31 33  1  0
M  END
$$$$
