WKQ.pdb
     RDKit          3D

 33 34  0  0  1  0  0  0  0  0999 V2000
   28.3591  -20.9167   -9.6591 N   0  0  0  0  0  0  0  0  0  0  0  0
   27.0501  -21.5007   -9.6378 C   0  0  1  0  0  0  0  0  0  0  0  0
   26.4339  -21.3615   -8.2876 C   0  0  0  0  0  0  0  0  0  0  0  0
   27.1061  -20.2716   -7.5438 C   0  0  0  0  0  0  0  0  0  0  0  0
   27.0791  -18.9176   -7.8877 C   0  0  0  0  0  0  0  0  0  0  0  0
   27.7546  -18.1939   -6.9924 N   0  0  0  0  0  0  0  0  0  0  0  0
   28.2356  -19.0366   -6.0533 C   0  0  0  0  0  0  0  0  0  0  0  0
   29.0010  -18.7991   -4.9242 C   0  0  0  0  0  0  0  0  0  0  0  0
   29.3650  -19.8673   -4.1350 C   0  0  0  0  0  0  0  0  0  0  0  0
   28.9960  -21.1586   -4.4286 C   0  0  0  0  0  0  0  0  0  0  0  0
   28.2230  -21.3695   -5.5748 C   0  0  0  0  0  0  0  0  0  0  0  0
   27.8449  -20.3339   -6.3765 C   0  0  0  0  0  0  0  0  0  0  0  0
   26.2185  -20.8919  -10.7089 C   0  0  0  0  0  0  0  0  0  0  0  0
   26.2318  -19.6534  -10.8421 O   0  0  0  0  0  0  0  0  0  0  0  0
   25.4243  -21.6815  -11.5658 N   0  0  0  0  0  0  0  0  0  0  0  0
   24.6929  -21.1331  -12.7223 C   0  0  1  0  0  0  0  0  0  0  0  0
   25.0928  -21.9565  -13.8897 C   0  0  0  0  0  0  0  0  0  0  0  0
   24.5831  -23.3477  -13.9599 C   0  0  0  0  0  0  0  0  0  0  0  0
   25.1179  -24.0261  -15.2268 C   0  0  0  0  0  0  0  0  0  0  0  0
   24.5023  -25.3642  -15.4747 C   0  0  0  0  0  0  0  0  0  0  0  0
   25.0838  -25.9701  -16.6753 N   0  0  0  0  0  0  0  0  0  0  0  0
   23.2732  -21.0651  -12.3931 C   0  0  0  0  0  0  0  0  0  0  0  0
   22.6995  -21.8846  -11.6059 O   0  0  0  0  0  0  0  0  0  0  0  0
   19.7282  -16.0390  -14.0228 N   0  0  0  0  0  0  0  0  0  0  0  0
   20.1310  -17.0393  -14.9283 C   0  0  0  0  0  0  0  0  0  0  0  0
   20.1343  -16.7677  -16.1636 O   0  0  0  0  0  0  0  0  0  0  0  0
   20.5550  -18.3846  -14.5063 C   0  0  0  0  0  0  0  0  0  0  0  0
   20.5785  -18.6249  -13.0444 C   0  0  0  0  0  0  0  0  0  0  0  0
   20.9936  -19.9750  -12.5617 C   0  0  2  0  0  0  0  0  0  0  0  0
   22.4477  -20.0657  -12.9356 N   0  0  0  0  0  0  0  0  0  0  0  0
   20.3578  -21.1362  -13.1763 C   0  0  0  0  0  0  0  0  0  0  0  0
   20.8515  -21.7366  -14.1664 O   0  0  0  0  0  0  0  0  0  0  0  0
   19.1452  -21.6416  -12.6666 O   0  0  0  0  0  0  0  0  0  0  0  0
  2  1  1  1
  3  2  1  0
  4  5  2  0
  4  3  1  0
  6  5  1  0
  7 12  2  0
  7  6  1  0
  8  7  1  0
  9 10  1  0
  9  8  2  0
 10 11  2  0
 11 12  1  0
 12  4  1  0
 13  2  1  0
 14 13  2  0
 15 13  1  0
 16 22  1  0
 16 15  1  0
 16 17  1  6
 18 17  1  0
 19 18  1  0
 20 19  1  0
 21 20  1  0
 22 30  1  0
 23 22  2  0
 24 25  1  0
 25 27  1  0
 26 25  2  0
 27 28  1  0
 29 28  1  6
 29 31  1  0
 30 29  1  0
 31 32  2  0
 31 33  1  0
M  END
$$$$
