WKQ.pdb
     RDKit          3D

 33 34  0  0  1  0  0  0  0  0999 V2000
   27.3525  -18.8860   -9.6974 N   0  0  0  0  0  0  0  0  0  0  0  0
   26.8675  -20.2349   -9.7092 C   0  0  1  0  0  0  0  0  0  0  0  0
   26.3106  -20.6053   -8.3770 C   0  0  0  0  0  0  0  0  0  0  0  0
   27.1664  -20.0444   -7.3065 C   0  0  0  0  0  0  0  0  0  0  0  0
   27.0412  -18.7677   -6.7526 C   0  0  0  0  0  0  0  0  0  0  0  0
   27.9438  -18.5865   -5.7861 N   0  0  0  0  0  0  0  0  0  0  0  0
   28.6738  -19.7176   -5.6806 C   0  0  0  0  0  0  0  0  0  0  0  0
   29.7297  -20.0444   -4.8467 C   0  0  0  0  0  0  0  0  0  0  0  0
   30.3049  -21.2900   -4.9645 C   0  0  0  0  0  0  0  0  0  0  0  0
   29.8683  -22.2185   -5.8796 C   0  0  0  0  0  0  0  0  0  0  0  0
   28.8002  -21.8619   -6.7089 C   0  0  0  0  0  0  0  0  0  0  0  0
   28.2080  -20.6376   -6.6169 C   0  0  0  0  0  0  0  0  0  0  0  0
   25.8765  -20.3957  -10.8054 C   0  0  0  0  0  0  0  0  0  0  0  0
   25.0067  -19.5168  -10.9558 O   0  0  0  0  0  0  0  0  0  0  0  0
   25.9033  -21.5116  -11.6671 N   0  0  0  0  0  0  0  0  0  0  0  0
   25.0274  -21.6432  -12.8455 C   0  0  1  0  0  0  0  0  0  0  0  0
   25.5557  -22.7899  -13.6244 C   0  0  0  0  0  0  0  0  0  0  0  0
   24.8743  -23.1323  -14.8966 C   0  0  0  0  0  0  0  0  0  0  0  0
   25.5831  -24.3229  -15.5534 C   0  0  0  0  0  0  0  0  0  0  0  0
   25.0397  -24.6503  -16.9056 C   0  0  0  0  0  0  0  0  0  0  0  0
   25.7844  -25.7691  -17.4889 N   0  0  0  0  0  0  0  0  0  0  0  0
   23.6404  -21.7075  -12.3973 C   0  0  0  0  0  0  0  0  0  0  0  0
   23.2231  -22.5495  -11.5388 O   0  0  0  0  0  0  0  0  0  0  0  0
   19.6518  -16.8421  -12.9149 N   0  0  0  0  0  0  0  0  0  0  0  0
   20.1331  -17.5520  -14.0317 C   0  0  0  0  0  0  0  0  0  0  0  0
   20.1067  -16.9860  -15.1624 O   0  0  0  0  0  0  0  0  0  0  0  0
   20.6719  -18.9195  -13.9459 C   0  0  0  0  0  0  0  0  0  0  0  0
   20.7350  -19.5042  -12.5860 C   0  0  0  0  0  0  0  0  0  0  0  0
   21.2401  -20.9018  -12.4456 C   0  0  2  0  0  0  0  0  0  0  0  0
   22.6725  -20.8198  -12.8971 N   0  0  0  0  0  0  0  0  0  0  0  0
   20.6244  -21.9287  -13.2803 C   0  0  0  0  0  0  0  0  0  0  0  0
   19.5606  -22.5192  -12.9574 O   0  0  0  0  0  0  0  0  0  0  0  0
   21.2087  -22.2984  -14.5082 O   0  0  0  0  0  0  0  0  0  0  0  0
  2  1  1  1
  3  2  1  0
  4  5  2  0
  4  3  1  0
  6  5  1  0
  7 12  2  0
  7  6  1  0
  8  7  1  0
  9 10  1  0
  9  8  2  0
 10 11  2  0
 11 12  1  0
 12  4  1  0
 13  2  1  0
 14 13  2  0
 15 13  1  0
 16 22  1  0
 16 15  1  0
 16 17  1  1
 18 17  1  0
 19 18  1  0
 20 19  1  0
 21 20  1  0
 22 30  1  0
 23 22  2  0
 24 25  1  0
 25 27  1  0
 26 25  2  0
 27 28  1  0
 29 28  1  6
 29 31  1  0
 30 29  1  0
 31 32  2  0
 31 33  1  0
M  END
$$$$
