WKQ.pdb
     RDKit          3D

 33 34  0  0  1  0  0  0  0  0999 V2000
   24.6871  -19.2954   -9.4047 N   0  0  0  0  0  0  0  0  0  0  0  0
   25.9072  -19.8402   -9.9239 C   0  0  1  0  0  0  0  0  0  0  0  0
   26.3018  -21.0621   -9.1666 C   0  0  0  0  0  0  0  0  0  0  0  0
   26.4177  -20.7389   -7.7261 C   0  0  0  0  0  0  0  0  0  0  0  0
   25.3967  -20.8671   -6.7808 C   0  0  0  0  0  0  0  0  0  0  0  0
   25.8370  -20.5269   -5.5676 N   0  0  0  0  0  0  0  0  0  0  0  0
   27.1350  -20.1719   -5.6800 C   0  0  0  0  0  0  0  0  0  0  0  0
   28.0439  -19.7347   -4.7314 C   0  0  0  0  0  0  0  0  0  0  0  0
   29.3240  -19.4263   -5.1345 C   0  0  0  0  0  0  0  0  0  0  0  0
   29.7302  -19.5369   -6.4432 C   0  0  0  0  0  0  0  0  0  0  0  0
   28.7917  -19.9811   -7.3801 C   0  0  0  0  0  0  0  0  0  0  0  0
   27.5169  -20.2956   -7.0137 C   0  0  0  0  0  0  0  0  0  0  0  0
   25.7551  -20.0970  -11.3800 C   0  0  0  0  0  0  0  0  0  0  0  0
   24.6479  -20.4775  -11.8054 O   0  0  0  0  0  0  0  0  0  0  0  0
   26.8287  -19.9200  -12.2770 N   0  0  0  0  0  0  0  0  0  0  0  0
   26.6448  -19.6934  -13.7220 C   0  0  1  0  0  0  0  0  0  0  0  0
   27.9000  -19.0655  -14.2027 C   0  0  0  0  0  0  0  0  0  0  0  0
   27.9791  -18.6904  -15.6356 C   0  0  0  0  0  0  0  0  0  0  0  0
   29.3649  -18.1072  -15.9369 C   0  0  0  0  0  0  0  0  0  0  0  0
   29.4696  -17.5366  -17.3133 C   0  0  0  0  0  0  0  0  0  0  0  0
   30.7923  -16.9377  -17.5096 N   0  0  0  0  0  0  0  0  0  0  0  0
   26.2286  -20.9446  -14.3463 C   0  0  0  0  0  0  0  0  0  0  0  0
   26.6756  -22.0829  -13.9932 O   0  0  0  0  0  0  0  0  0  0  0  0
   24.8097  -25.1322  -13.7197 N   0  0  0  0  0  0  0  0  0  0  0  0
   23.4292  -24.8609  -13.7770 C   0  0  0  0  0  0  0  0  0  0  0  0
   22.6196  -25.8157  -13.5967 O   0  0  0  0  0  0  0  0  0  0  0  0
   22.8821  -23.5177  -14.0305 C   0  0  0  0  0  0  0  0  0  0  0  0
   23.8800  -22.4352  -14.1967 C   0  0  0  0  0  0  0  0  0  0  0  0
   24.3572  -22.1263  -15.5769 C   0  0  2  0  0  0  0  0  0  0  0  0
   25.2872  -20.9593  -15.3895 N   0  0  0  0  0  0  0  0  0  0  0  0
   23.3642  -21.6836  -16.5508 C   0  0  0  0  0  0  0  0  0  0  0  0
   23.0381  -20.4755  -16.6875 O   0  0  0  0  0  0  0  0  0  0  0  0
   22.7267  -22.6135  -17.3962 O   0  0  0  0  0  0  0  0  0  0  0  0
  2  1  1  1
  3  2  1  0
  4  5  2  0
  4  3  1  0
  6  5  1  0
  7 12  2  0
  7  6  1  0
  8  7  1  0
  9 10  1  0
  9  8  2  0
 10 11  2  0
 11 12  1  0
 12  4  1  0
 13  2  1  0
 14 13  2  0
 15 13  1  0
 16 22  1  0
 16 15  1  0
 16 17  1  6
 18 17  1  0
 19 18  1  0
 20 19  1  0
 21 20  1  0
 22 30  1  0
 23 22  2  0
 24 25  1  0
 25 27  1  0
 26 25  2  0
 27 28  1  0
 29 28  1  1
 29 31  1  0
 30 29  1  0
 31 32  2  0
 31 33  1  0
M  END
$$$$
