WKQ.pdb
     RDKit          3D

 33 34  0  0  1  0  0  0  0  0999 V2000
   24.6194  -18.6958  -17.8738 N   0  0  0  0  0  0  0  0  0  0  0  0
   25.1376  -18.1035  -16.6757 C   0  0  1  0  0  0  0  0  0  0  0  0
   24.1468  -17.1597  -16.0843 C   0  0  0  0  0  0  0  0  0  0  0  0
   24.3627  -15.8022  -16.6350 C   0  0  0  0  0  0  0  0  0  0  0  0
   23.4819  -15.1184  -17.4771 C   0  0  0  0  0  0  0  0  0  0  0  0
   23.9565  -13.9043  -17.7639 N   0  0  0  0  0  0  0  0  0  0  0  0
   25.1402  -13.7595  -17.1306 C   0  0  0  0  0  0  0  0  0  0  0  0
   26.0348  -12.7030  -17.1047 C   0  0  0  0  0  0  0  0  0  0  0  0
   27.1919  -12.8338  -16.3697 C   0  0  0  0  0  0  0  0  0  0  0  0
   27.4894  -13.9745  -15.6623 C   0  0  0  0  0  0  0  0  0  0  0  0
   26.5681  -15.0257  -15.7060 C   0  0  0  0  0  0  0  0  0  0  0  0
   25.4129  -14.9279  -16.4230 C   0  0  0  0  0  0  0  0  0  0  0  0
   25.5400  -19.1750  -15.7272 C   0  0  0  0  0  0  0  0  0  0  0  0
   24.8166  -20.1840  -15.6266 O   0  0  0  0  0  0  0  0  0  0  0  0
   26.7112  -19.0705  -14.9488 N   0  0  0  0  0  0  0  0  0  0  0  0
   27.1744  -20.1345  -14.0398 C   0  0  1  0  0  0  0  0  0  0  0  0
   28.6560  -20.0603  -14.0412 C   0  0  0  0  0  0  0  0  0  0  0  0
   29.3694  -20.5344  -15.2522 C   0  0  0  0  0  0  0  0  0  0  0  0
   29.0615  -22.0192  -15.4800 C   0  0  0  0  0  0  0  0  0  0  0  0
   29.6840  -22.5583  -16.7262 C   0  0  0  0  0  0  0  0  0  0  0  0
   30.7388  -23.5168  -16.3867 N   0  0  0  0  0  0  0  0  0  0  0  0
   26.4881  -19.9932  -12.7601 C   0  0  0  0  0  0  0  0  0  0  0  0
   26.5036  -18.9206  -12.0749 O   0  0  0  0  0  0  0  0  0  0  0  0
   21.3702  -21.6145  -12.8444 N   0  0  0  0  0  0  0  0  0  0  0  0
   21.3309  -20.9304  -11.6143 C   0  0  0  0  0  0  0  0  0  0  0  0
   20.2544  -20.3585  -11.2772 O   0  0  0  0  0  0  0  0  0  0  0  0
   22.4808  -20.8539  -10.6980 C   0  0  0  0  0  0  0  0  0  0  0  0
   23.7065  -21.5592  -11.1402 C   0  0  0  0  0  0  0  0  0  0  0  0
   25.0224  -20.8957  -10.9026 C   0  0  2  0  0  0  0  0  0  0  0  0
   25.7533  -21.0559  -12.2074 N   0  0  0  0  0  0  0  0  0  0  0  0
   25.8976  -21.4767   -9.8893 C   0  0  0  0  0  0  0  0  0  0  0  0
   26.8934  -22.1900  -10.1795 O   0  0  0  0  0  0  0  0  0  0  0  0
   25.6572  -21.2482   -8.5197 O   0  0  0  0  0  0  0  0  0  0  0  0
  2  1  1  6
  3  2  1  0
  4  5  2  0
  4  3  1  0
  6  5  1  0
  7 12  2  0
  7  6  1  0
  8  7  1  0
  9 10  1  0
  9  8  2  0
 10 11  2  0
 11 12  1  0
 12  4  1  0
 13  2  1  0
 14 13  2  0
 15 13  1  0
 16 22  1  0
 16 15  1  0
 16 17  1  1
 18 17  1  0
 19 18  1  0
 20 19  1  0
 21 20  1  0
 22 30  1  0
 23 22  2  0
 24 25  1  0
 25 27  1  0
 26 25  2  0
 27 28  1  0
 29 28  1  6
 29 31  1  0
 30 29  1  0
 31 32  2  0
 31 33  1  0
M  END
$$$$
