WKQ.pdb
     RDKit          3D

 33 34  0  0  1  0  0  0  0  0999 V2000
   15.6851  -16.0940    6.1696 N   0  0  0  0  0  0  0  0  0  0  0  0
   16.9344  -16.6508    6.5988 C   0  0  1  0  0  0  0  0  0  0  0  0
   18.0653  -16.0641    5.8248 C   0  0  0  0  0  0  0  0  0  0  0  0
   17.9041  -16.3844    4.3880 C   0  0  0  0  0  0  0  0  0  0  0  0
   17.4316  -17.5949    3.8744 C   0  0  0  0  0  0  0  0  0  0  0  0
   17.3741  -17.5470    2.5417 N   0  0  0  0  0  0  0  0  0  0  0  0
   17.7998  -16.3269    2.1501 C   0  0  0  0  0  0  0  0  0  0  0  0
   17.9400  -15.7740    0.8884 C   0  0  0  0  0  0  0  0  0  0  0  0
   18.4161  -14.4865    0.7794 C   0  0  0  0  0  0  0  0  0  0  0  0
   18.7566  -13.7324    1.8773 C   0  0  0  0  0  0  0  0  0  0  0  0
   18.6048  -14.3157    3.1393 C   0  0  0  0  0  0  0  0  0  0  0  0
   18.1351  -15.5874    3.2818 C   0  0  0  0  0  0  0  0  0  0  0  0
   17.0861  -16.4565    8.0646 C   0  0  0  0  0  0  0  0  0  0  0  0
   16.5882  -15.4405    8.5856 O   0  0  0  0  0  0  0  0  0  0  0  0
   17.7753  -17.3902    8.8658 N   0  0  0  0  0  0  0  0  0  0  0  0
   18.4966  -17.0209   10.0972 C   0  0  1  0  0  0  0  0  0  0  0  0
   18.8074  -18.2955   10.7895 C   0  0  0  0  0  0  0  0  0  0  0  0
   19.5168  -18.2192   12.0900 C   0  0  0  0  0  0  0  0  0  0  0  0
   19.7506  -19.6352   12.6300 C   0  0  0  0  0  0  0  0  0  0  0  0
   20.5190  -19.6502   13.9108 C   0  0  0  0  0  0  0  0  0  0  0  0
   20.8527  -21.0281   14.2804 N   0  0  0  0  0  0  0  0  0  0  0  0
   19.6122  -16.1484    9.7465 C   0  0  0  0  0  0  0  0  0  0  0  0
   20.2689  -16.2576    8.6615 O   0  0  0  0  0  0  0  0  0  0  0  0
   19.9445  -10.4605    7.5997 N   0  0  0  0  0  0  0  0  0  0  0  0
   20.9297  -11.4644    7.5361 C   0  0  0  0  0  0  0  0  0  0  0  0
   21.4147  -11.7619    6.4065 O   0  0  0  0  0  0  0  0  0  0  0  0
   21.4277  -12.1806    8.7222 C   0  0  0  0  0  0  0  0  0  0  0  0
   20.6210  -13.3440    9.1595 C   0  0  0  0  0  0  0  0  0  0  0  0
   21.1740  -14.2163   10.2372 C   0  0  2  0  0  0  0  0  0  0  0  0
   20.0258  -15.1156   10.6048 N   0  0  0  0  0  0  0  0  0  0  0  0
   21.5826  -13.5736   11.4823 C   0  0  0  0  0  0  0  0  0  0  0  0
   21.0143  -13.8002   12.5824 O   0  0  0  0  0  0  0  0  0  0  0  0
   22.6566  -12.6615   11.4980 O   0  0  0  0  0  0  0  0  0  0  0  0
  2  1  1  6
  3  2  1  0
  4  5  2  0
  4  3  1  0
  6  5  1  0
  7 12  2  0
  7  6  1  0
  8  7  1  0
  9 10  1  0
  9  8  2  0
 10 11  2  0
 11 12  1  0
 12  4  1  0
 13  2  1  0
 14 13  2  0
 15 13  1  0
 16 22  1  0
 16 15  1  0
 16 17  1  6
 18 17  1  0
 19 18  1  0
 20 19  1  0
 21 20  1  0
 22 30  1  0
 23 22  2  0
 24 25  1  0
 25 27  1  0
 26 25  2  0
 27 28  1  0
 29 28  1  6
 29 31  1  0
 30 29  1  0
 31 32  2  0
 31 33  1  0
M  END
$$$$
