WKQ.pdb
     RDKit          3D

 33 34  0  0  1  0  0  0  0  0999 V2000
   25.7928  -19.0556   -9.3576 N   0  0  0  0  0  0  0  0  0  0  0  0
   26.6547  -20.0476   -9.9303 C   0  0  1  0  0  0  0  0  0  0  0  0
   26.6067  -21.3081   -9.1360 C   0  0  0  0  0  0  0  0  0  0  0  0
   26.7544  -20.9949   -7.6962 C   0  0  0  0  0  0  0  0  0  0  0  0
   25.7460  -21.1017   -6.7348 C   0  0  0  0  0  0  0  0  0  0  0  0
   26.2146  -20.7787   -5.5275 N   0  0  0  0  0  0  0  0  0  0  0  0
   27.5192  -20.4561   -5.6597 C   0  0  0  0  0  0  0  0  0  0  0  0
   28.4543  -20.0465   -4.7243 C   0  0  0  0  0  0  0  0  0  0  0  0
   29.7351  -19.7687   -5.1471 C   0  0  0  0  0  0  0  0  0  0  0  0
   30.1168  -19.8833   -6.4628 C   0  0  0  0  0  0  0  0  0  0  0  0
   29.1521  -20.2991   -7.3860 C   0  0  0  0  0  0  0  0  0  0  0  0
   27.8760  -20.5830   -7.0001 C   0  0  0  0  0  0  0  0  0  0  0  0
   26.2893  -20.2583  -11.3556 C   0  0  0  0  0  0  0  0  0  0  0  0
   25.1607  -19.8983  -11.7408 O   0  0  0  0  0  0  0  0  0  0  0  0
   27.1863  -20.8513  -12.2679 N   0  0  0  0  0  0  0  0  0  0  0  0
   26.9131  -20.9631  -13.7122 C   0  0  1  0  0  0  0  0  0  0  0  0
   28.1533  -21.4989  -14.3249 C   0  0  0  0  0  0  0  0  0  0  0  0
   28.1396  -21.7743  -15.7824 C   0  0  0  0  0  0  0  0  0  0  0  0
   29.5087  -22.3126  -16.2151 C   0  0  0  0  0  0  0  0  0  0  0  0
   29.5924  -22.5782  -17.6826 C   0  0  0  0  0  0  0  0  0  0  0  0
   30.9660  -22.9294  -18.0520 N   0  0  0  0  0  0  0  0  0  0  0  0
   25.6799  -21.7195  -13.9016 C   0  0  0  0  0  0  0  0  0  0  0  0
   25.3996  -22.7728  -13.2442 O   0  0  0  0  0  0  0  0  0  0  0  0
   20.9042  -19.5888  -12.1259 N   0  0  0  0  0  0  0  0  0  0  0  0
   20.3326  -20.6478  -12.8570 C   0  0  0  0  0  0  0  0  0  0  0  0
   19.1055  -20.9032  -12.6879 O   0  0  0  0  0  0  0  0  0  0  0  0
   21.0929  -21.4686  -13.8140 C   0  0  0  0  0  0  0  0  0  0  0  0
   22.5289  -21.1320  -13.9547 C   0  0  0  0  0  0  0  0  0  0  0  0
   23.3567  -21.9607  -14.8801 C   0  0  2  0  0  0  0  0  0  0  0  0
   24.7132  -21.3125  -14.8367 N   0  0  0  0  0  0  0  0  0  0  0  0
   22.9771  -21.9815  -16.2893 C   0  0  0  0  0  0  0  0  0  0  0  0
   23.4736  -21.1959  -17.1384 O   0  0  0  0  0  0  0  0  0  0  0  0
   22.0253  -22.9075  -16.7606 O   0  0  0  0  0  0  0  0  0  0  0  0
  2  1  1  1
  3  2  1  0
  4  5  2  0
  4  3  1  0
  6  5  1  0
  7 12  2  0
  7  6  1  0
  8  7  1  0
  9 10  1  0
  9  8  2  0
 10 11  2  0
 11 12  1  0
 12  4  1  0
 13  2  1  0
 14 13  2  0
 15 13  1  0
 16 22  1  0
 16 15  1  0
 16 17  1  6
 18 17  1  0
 19 18  1  0
 20 19  1  0
 21 20  1  0
 22 30  1  0
 23 22  2  0
 24 25  1  0
 25 27  1  0
 26 25  2  0
 27 28  1  0
 29 28  1  1
 29 31  1  0
 30 29  1  0
 31 32  2  0
 31 33  1  0
M  END
$$$$
