WKQ.pdb
     RDKit          3D

 33 34  0  0  1  0  0  0  0  0999 V2000
   28.0090  -19.8882   -9.7042 N   0  0  0  0  0  0  0  0  0  0  0  0
   26.8585  -20.6643   -9.3451 C   0  0  1  0  0  0  0  0  0  0  0  0
   26.2442  -20.1446   -8.0903 C   0  0  0  0  0  0  0  0  0  0  0  0
   27.2860  -19.5065   -7.2534 C   0  0  0  0  0  0  0  0  0  0  0  0
   27.9000  -18.2794   -7.5174 C   0  0  0  0  0  0  0  0  0  0  0  0
   28.7682  -17.9733   -6.5509 N   0  0  0  0  0  0  0  0  0  0  0  0
   28.7495  -18.9722   -5.6425 C   0  0  0  0  0  0  0  0  0  0  0  0
   29.4611  -19.1467   -4.4676 C   0  0  0  0  0  0  0  0  0  0  0  0
   29.2461  -20.2878   -3.7273 C   0  0  0  0  0  0  0  0  0  0  0  0
   28.3518  -21.2579   -4.1134 C   0  0  0  0  0  0  0  0  0  0  0  0
   27.6467  -21.0556   -5.3041 C   0  0  0  0  0  0  0  0  0  0  0  0
   27.8352  -19.9367   -6.0595 C   0  0  0  0  0  0  0  0  0  0  0  0
   25.9008  -20.6858  -10.4817 C   0  0  0  0  0  0  0  0  0  0  0  0
   24.9574  -19.8723  -10.4813 O   0  0  0  0  0  0  0  0  0  0  0  0
   26.0393  -21.5995  -11.5469 N   0  0  0  0  0  0  0  0  0  0  0  0
   25.4496  -21.3810  -12.8801 C   0  0  1  0  0  0  0  0  0  0  0  0
   26.4851  -21.7915  -13.8599 C   0  0  0  0  0  0  0  0  0  0  0  0
   26.1451  -21.7029  -15.3010 C   0  0  0  0  0  0  0  0  0  0  0  0
   27.0569  -20.6740  -15.9803 C   0  0  0  0  0  0  0  0  0  0  0  0
   26.7478  -20.4897  -17.4300 C   0  0  0  0  0  0  0  0  0  0  0  0
   27.6721  -19.5188  -18.0212 N   0  0  0  0  0  0  0  0  0  0  0  0
   24.1549  -22.0512  -12.9386 C   0  0  0  0  0  0  0  0  0  0  0  0
   23.9745  -23.2541  -12.5637 O   0  0  0  0  0  0  0  0  0  0  0  0
   20.2503  -18.3701  -12.3156 N   0  0  0  0  0  0  0  0  0  0  0  0
   19.6982  -19.5101  -11.7006 C   0  0  0  0  0  0  0  0  0  0  0  0
   19.0392  -19.3584  -10.6317 O   0  0  0  0  0  0  0  0  0  0  0  0
   19.8456  -20.8701  -12.2449 C   0  0  0  0  0  0  0  0  0  0  0  0
   20.6842  -20.9914  -13.4604 C   0  0  0  0  0  0  0  0  0  0  0  0
   21.6889  -22.0941  -13.5128 C   0  0  2  0  0  0  0  0  0  0  0  0
   23.0130  -21.3870  -13.4176 N   0  0  0  0  0  0  0  0  0  0  0  0
   21.7558  -22.8882  -14.7356 C   0  0  0  0  0  0  0  0  0  0  0  0
   22.4102  -22.5241  -15.7475 O   0  0  0  0  0  0  0  0  0  0  0  0
   21.0808  -24.1219  -14.8257 O   0  0  0  0  0  0  0  0  0  0  0  0
  2  1  1  6
  3  2  1  0
  4  5  2  0
  4  3  1  0
  6  5  1  0
  7 12  2  0
  7  6  1  0
  8  7  1  0
  9 10  1  0
  9  8  2  0
 10 11  2  0
 11 12  1  0
 12  4  1  0
 13  2  1  0
 14 13  2  0
 15 13  1  0
 16 22  1  0
 16 15  1  0
 16 17  1  6
 18 17  1  0
 19 18  1  0
 20 19  1  0
 21 20  1  0
 22 30  1  0
 23 22  2  0
 24 25  1  0
 25 27  1  0
 26 25  2  0
 27 28  1  0
 29 28  1  6
 29 31  1  0
 30 29  1  0
 31 32  2  0
 31 33  1  0
M  END
$$$$
