WKQ.pdb
     RDKit          3D

 33 34  0  0  1  0  0  0  0  0999 V2000
   25.4733  -20.0135  -19.6912 N   0  0  0  0  0  0  0  0  0  0  0  0
   24.4552  -19.3816  -18.9044 C   0  0  1  0  0  0  0  0  0  0  0  0
   23.2632  -19.0660  -19.7421 C   0  0  0  0  0  0  0  0  0  0  0  0
   23.5694  -17.9232  -20.6327 C   0  0  0  0  0  0  0  0  0  0  0  0
   24.4793  -17.9416  -21.6930 C   0  0  0  0  0  0  0  0  0  0  0  0
   24.4946  -16.7617  -22.3169 N   0  0  0  0  0  0  0  0  0  0  0  0
   23.6122  -15.9504  -21.6952 C   0  0  0  0  0  0  0  0  0  0  0  0
   23.2571  -14.6347  -21.9403 C   0  0  0  0  0  0  0  0  0  0  0  0
   22.3187  -14.0401  -21.1265 C   0  0  0  0  0  0  0  0  0  0  0  0
   21.7235  -14.7058  -20.0813 C   0  0  0  0  0  0  0  0  0  0  0  0
   22.1007  -16.0336  -19.8567 C   0  0  0  0  0  0  0  0  0  0  0  0
   23.0256  -16.6518  -20.6444 C   0  0  0  0  0  0  0  0  0  0  0  0
   24.1213  -20.2442  -17.7409 C   0  0  0  0  0  0  0  0  0  0  0  0
   23.7662  -21.4192  -17.9528 O   0  0  0  0  0  0  0  0  0  0  0  0
   24.1981  -19.7619  -16.4180 N   0  0  0  0  0  0  0  0  0  0  0  0
   23.8915  -20.5898  -15.2374 C   0  0  1  0  0  0  0  0  0  0  0  0
   24.8008  -20.1244  -14.1616 C   0  0  0  0  0  0  0  0  0  0  0  0
   26.1366  -20.7616  -14.0636 C   0  0  0  0  0  0  0  0  0  0  0  0
   26.8506  -20.6660  -15.4174 C   0  0  0  0  0  0  0  0  0  0  0  0
   28.1823  -21.3423  -15.4221 C   0  0  0  0  0  0  0  0  0  0  0  0
   28.8379  -21.1699  -14.1233 N   0  0  0  0  0  0  0  0  0  0  0  0
   22.4557  -20.5363  -14.9841 C   0  0  0  0  0  0  0  0  0  0  0  0
   21.7552  -19.4877  -15.1578 O   0  0  0  0  0  0  0  0  0  0  0  0
   19.2737  -24.8186  -11.9539 N   0  0  0  0  0  0  0  0  0  0  0  0
   18.2267  -24.1961  -12.6602 C   0  0  0  0  0  0  0  0  0  0  0  0
   17.0389  -24.3902  -12.2713 O   0  0  0  0  0  0  0  0  0  0  0  0
   18.4480  -23.3246  -13.8260 C   0  0  0  0  0  0  0  0  0  0  0  0
   19.8629  -23.0306  -14.1526 C   0  0  0  0  0  0  0  0  0  0  0  0
   20.2784  -21.6000  -14.2485 C   0  0  2  0  0  0  0  0  0  0  0  0
   21.7544  -21.6662  -14.5302 N   0  0  0  0  0  0  0  0  0  0  0  0
   20.1446  -20.7769  -13.0507 C   0  0  0  0  0  0  0  0  0  0  0  0
   21.0758  -20.6361  -12.2154 O   0  0  0  0  0  0  0  0  0  0  0  0
   18.9435  -20.0896  -12.7851 O   0  0  0  0  0  0  0  0  0  0  0  0
  2  1  1  6
  3  2  1  0
  4  5  2  0
  4  3  1  0
  6  5  1  0
  7 12  2  0
  7  6  1  0
  8  7  1  0
  9 10  1  0
  9  8  2  0
 10 11  2  0
 11 12  1  0
 12  4  1  0
 13  2  1  0
 14 13  2  0
 15 13  1  0
 16 22  1  0
 16 15  1  0
 16 17  1  1
 18 17  1  0
 19 18  1  0
 20 19  1  0
 21 20  1  0
 22 30  1  0
 23 22  2  0
 24 25  1  0
 25 27  1  0
 26 25  2  0
 27 28  1  0
 29 28  1  1
 29 31  1  0
 30 29  1  0
 31 32  2  0
 31 33  1  0
M  END
$$$$
