HIT.pdb
     RDKit          3D

 26 26  0  0  1  0  0  0  0  0999 V2000
    8.8269  -15.0637   19.7799 N   0  0  0  0  0  0  0  0  0  0  0  0
    8.1191  -15.6659   20.8692 C   0  0  1  0  0  0  0  0  0  0  0  0
    8.1389  -17.1687   20.6795 C   0  0  0  0  0  0  0  0  0  0  0  0
    7.4676  -17.4795   19.3907 C   0  0  0  0  0  0  0  0  0  0  0  0
    6.1371  -17.3947   19.0523 C   0  0  0  0  0  0  0  0  0  0  0  0
    5.9592  -17.7718   17.7790 N   0  0  0  0  0  0  0  0  0  0  0  0
    7.1677  -18.1017   17.2872 C   0  0  0  0  0  0  0  0  0  0  0  0
    8.0894  -17.9252   18.2655 N   0  0  0  0  0  0  0  0  0  0  0  0
    8.6694  -15.2664   22.1813 C   0  0  0  0  0  0  0  0  0  0  0  0
    9.9389  -15.3111   22.3006 O   0  0  0  0  0  0  0  0  0  0  0  0
    7.3080  -11.8103   27.1421 C   0  0  0  0  0  0  0  0  0  0  0  0
    8.1045  -12.8391   26.4548 C   0  0  0  0  0  0  0  0  0  0  0  0
    7.5772  -13.3866   25.1622 C   0  0  2  0  0  0  0  0  0  0  0  0
    6.2983  -14.1132   25.5536 C   0  0  0  0  0  0  0  0  0  0  0  0
    8.4785  -14.3769   24.4726 C   0  0  2  0  0  0  0  0  0  0  0  0
    7.8520  -14.8599   23.2408 N   0  0  0  0  0  0  0  0  0  0  0  0
    8.5436  -15.6005   25.3362 C   0  0  0  0  0  0  0  0  0  0  0  0
    7.4635  -16.2654   25.5618 O   0  0  0  0  0  0  0  0  0  0  0  0
   10.1071  -18.7542   24.5844 C   0  0  0  0  0  0  0  0  0  0  0  0
   10.6319  -18.4079   25.9564 C   0  0  1  0  0  0  0  0  0  0  0  0
   11.9675  -18.0792   25.8493 O   0  0  0  0  0  0  0  0  0  0  0  0
    9.8113  -17.3618   26.6340 C   0  0  2  0  0  0  0  0  0  0  0  0
    9.7211  -16.1065   25.9388 N   0  0  0  0  0  0  0  0  0  0  0  0
   10.1350  -17.2184   28.0898 C   0  0  0  0  0  0  0  0  0  0  0  0
    9.9810  -18.2670   28.9580 O   0  0  0  0  0  0  0  0  0  0  0  0
   10.5599  -16.1314   28.5550 O   0  0  0  0  0  0  0  0  0  0  0  0
  2  1  1  6
  3  2  1  0
  4  3  1  0
  5  4  2  0
  6  5  1  0
  7  6  1  0
  7  8  2  0
  8  4  1  0
  9  2  1  0
  9 16  1  0
 10  9  2  0
 12 11  1  0
 13 14  1  1
 13 12  1  0
 15 13  1  0
 15 16  1  6
 17 15  1  0
 18 17  2  0
 20 19  1  6
 20 21  1  0
 20 22  1  0
 22 23  1  6
 23 17  1  0
 24 22  1  0
 24 25  1  0
 26 24  2  0
M  END
$$$$
