HIT.pdb
     RDKit          3D

 26 26  0  0  1  0  0  0  0  0999 V2000
    9.8468  -15.0738   20.7411 N   0  0  0  0  0  0  0  0  0  0  0  0
    8.7261  -14.5223   21.4411 C   0  0  1  0  0  0  0  0  0  0  0  0
    7.4575  -15.0180   20.7780 C   0  0  0  0  0  0  0  0  0  0  0  0
    7.4490  -14.5284   19.3750 C   0  0  0  0  0  0  0  0  0  0  0  0
    7.3209  -13.2459   18.8947 C   0  0  0  0  0  0  0  0  0  0  0  0
    7.3654  -13.2473   17.5557 N   0  0  0  0  0  0  0  0  0  0  0  0
    7.5218  -14.5248   17.1622 C   0  0  0  0  0  0  0  0  0  0  0  0
    7.5732  -15.3085   18.2671 N   0  0  0  0  0  0  0  0  0  0  0  0
    8.7573  -14.8409   22.8838 C   0  0  0  0  0  0  0  0  0  0  0  0
    9.7475  -15.5359   23.2892 O   0  0  0  0  0  0  0  0  0  0  0  0
    5.7842  -11.3278   26.0102 C   0  0  0  0  0  0  0  0  0  0  0  0
    6.9342  -12.1115   25.5323 C   0  0  0  0  0  0  0  0  0  0  0  0
    7.0066  -13.5582   25.9203 C   0  0  2  0  0  0  0  0  0  0  0  0
    7.3711  -13.5351   27.3979 C   0  0  0  0  0  0  0  0  0  0  0  0
    8.0560  -14.3619   25.1982 C   0  0  2  0  0  0  0  0  0  0  0  0
    7.7609  -14.4091   23.7650 N   0  0  0  0  0  0  0  0  0  0  0  0
    7.9068  -15.7883   25.6343 C   0  0  0  0  0  0  0  0  0  0  0  0
    7.0577  -16.5429   25.0267 O   0  0  0  0  0  0  0  0  0  0  0  0
    8.3110  -18.2116   24.3982 C   0  0  0  0  0  0  0  0  0  0  0  0
    9.2822  -18.4873   25.5202 C   0  0  1  0  0  0  0  0  0  0  0  0
   10.5549  -18.1709   25.0915 O   0  0  0  0  0  0  0  0  0  0  0  0
    8.8935  -17.8087   26.7911 C   0  0  2  0  0  0  0  0  0  0  0  0
    8.6407  -16.3976   26.6812 N   0  0  0  0  0  0  0  0  0  0  0  0
    9.7829  -18.1702   27.9413 C   0  0  0  0  0  0  0  0  0  0  0  0
    9.8771  -19.4621   28.3872 O   0  0  0  0  0  0  0  0  0  0  0  0
   10.4703  -17.2973   28.5280 O   0  0  0  0  0  0  0  0  0  0  0  0
  2  1  1  6
  3  2  1  0
  4  3  1  0
  5  4  2  0
  6  5  1  0
  7  6  1  0
  7  8  2  0
  8  4  1  0
  9  2  1  0
  9 16  1  0
 10  9  2  0
 12 11  1  0
 13 14  1  1
 13 12  1  0
 15 13  1  0
 15 16  1  6
 17 15  1  0
 18 17  2  0
 20 19  1  6
 20 21  1  0
 20 22  1  0
 22 23  1  6
 23 17  1  0
 24 22  1  0
 24 25  1  0
 26 24  2  0
M  END
$$$$
