HIT.pdb
     RDKit          3D

 26 26  0  0  1  0  0  0  0  0999 V2000
    9.7972  -14.2953   20.6716 N   0  0  0  0  0  0  0  0  0  0  0  0
    8.5633  -14.1396   21.3812 C   0  0  1  0  0  0  0  0  0  0  0  0
    7.4992  -14.9532   20.6737 C   0  0  0  0  0  0  0  0  0  0  0  0
    7.4742  -14.5383   19.2471 C   0  0  0  0  0  0  0  0  0  0  0  0
    7.5161  -13.2771   18.6999 C   0  0  0  0  0  0  0  0  0  0  0  0
    7.4710  -13.3517   17.3629 N   0  0  0  0  0  0  0  0  0  0  0  0
    7.4000  -14.6556   17.0374 C   0  0  0  0  0  0  0  0  0  0  0  0
    7.4017  -15.3820   18.1820 N   0  0  0  0  0  0  0  0  0  0  0  0
    8.6882  -14.5114   22.8060 C   0  0  0  0  0  0  0  0  0  0  0  0
    9.7780  -15.0787   23.1501 O   0  0  0  0  0  0  0  0  0  0  0  0
    5.8294  -11.1584   26.0770 C   0  0  0  0  0  0  0  0  0  0  0  0
    6.9322  -11.9664   25.5328 C   0  0  0  0  0  0  0  0  0  0  0  0
    6.9968  -13.4143   25.9177 C   0  0  2  0  0  0  0  0  0  0  0  0
    7.4128  -13.3975   27.3818 C   0  0  0  0  0  0  0  0  0  0  0  0
    8.0086  -14.2326   25.1594 C   0  0  2  0  0  0  0  0  0  0  0  0
    7.6732  -14.2596   23.7346 N   0  0  0  0  0  0  0  0  0  0  0  0
    7.8412  -15.6598   25.5863 C   0  0  0  0  0  0  0  0  0  0  0  0
    6.9219  -16.3742   25.0349 O   0  0  0  0  0  0  0  0  0  0  0  0
    8.4258  -17.9277   24.1568 C   0  0  0  0  0  0  0  0  0  0  0  0
    9.3228  -18.3245   25.3039 C   0  0  1  0  0  0  0  0  0  0  0  0
   10.6281  -18.0308   24.9670 O   0  0  0  0  0  0  0  0  0  0  0  0
    8.8907  -17.7249   26.6002 C   0  0  2  0  0  0  0  0  0  0  0  0
    8.6295  -16.3114   26.5660 N   0  0  0  0  0  0  0  0  0  0  0  0
    9.7483  -18.1478   27.7536 C   0  0  0  0  0  0  0  0  0  0  0  0
    9.8283  -19.4613   28.1346 O   0  0  0  0  0  0  0  0  0  0  0  0
   10.4212  -17.3084   28.4027 O   0  0  0  0  0  0  0  0  0  0  0  0
  2  1  1  6
  3  2  1  0
  4  3  1  0
  5  4  2  0
  6  5  1  0
  7  6  1  0
  7  8  2  0
  8  4  1  0
  9  2  1  0
  9 16  1  0
 10  9  2  0
 12 11  1  0
 13 14  1  1
 13 12  1  0
 15 13  1  0
 15 16  1  6
 17 15  1  0
 18 17  2  0
 20 19  1  6
 20 21  1  0
 20 22  1  0
 22 23  1  6
 23 17  1  0
 24 22  1  0
 24 25  1  0
 26 24  2  0
M  END
$$$$
