HIT.pdb
     RDKit          3D

 26 26  0  0  1  0  0  0  0  0999 V2000
   10.0704  -14.0658   20.7843 N   0  0  0  0  0  0  0  0  0  0  0  0
    8.8152  -14.1552   21.4675 C   0  0  1  0  0  0  0  0  0  0  0  0
    7.9786  -15.2224   20.7923 C   0  0  0  0  0  0  0  0  0  0  0  0
    7.6441  -14.7490   19.4241 C   0  0  0  0  0  0  0  0  0  0  0  0
    8.1259  -13.6639   18.7295 C   0  0  0  0  0  0  0  0  0  0  0  0
    7.5559  -13.6002   17.5186 N   0  0  0  0  0  0  0  0  0  0  0  0
    6.7054  -14.6387   17.4219 C   0  0  0  0  0  0  0  0  0  0  0  0
    6.7559  -15.3411   18.5803 N   0  0  0  0  0  0  0  0  0  0  0  0
    8.9836  -14.4156   22.9124 C   0  0  0  0  0  0  0  0  0  0  0  0
   10.1226  -14.8582   23.2794 O   0  0  0  0  0  0  0  0  0  0  0  0
    5.8724  -11.4051   26.3734 C   0  0  0  0  0  0  0  0  0  0  0  0
    7.0498  -12.0896   25.8163 C   0  0  0  0  0  0  0  0  0  0  0  0
    7.1842  -13.5633   26.0592 C   0  0  2  0  0  0  0  0  0  0  0  0
    7.5478  -13.6714   27.5332 C   0  0  0  0  0  0  0  0  0  0  0  0
    8.2670  -14.2457   25.2651 C   0  0  2  0  0  0  0  0  0  0  0  0
    7.9569  -14.1925   23.8354 N   0  0  0  0  0  0  0  0  0  0  0  0
    8.2019  -15.7090   25.5840 C   0  0  0  0  0  0  0  0  0  0  0  0
    7.0823  -16.3308   25.4443 O   0  0  0  0  0  0  0  0  0  0  0  0
    9.3181  -18.7526   24.0991 C   0  0  0  0  0  0  0  0  0  0  0  0
    9.8581  -18.8424   25.5056 C   0  0  1  0  0  0  0  0  0  0  0  0
   11.2321  -18.7257   25.4603 O   0  0  0  0  0  0  0  0  0  0  0  0
    9.2058  -17.8699   26.4305 C   0  0  2  0  0  0  0  0  0  0  0  0
    9.2940  -16.4909   26.0333 N   0  0  0  0  0  0  0  0  0  0  0  0
    9.5604  -18.1032   27.8674 C   0  0  0  0  0  0  0  0  0  0  0  0
    9.2998  -19.3019   28.4773 O   0  0  0  0  0  0  0  0  0  0  0  0
   10.1100  -17.2052   28.5531 O   0  0  0  0  0  0  0  0  0  0  0  0
  2  1  1  6
  3  2  1  0
  4  3  1  0
  5  4  2  0
  6  5  1  0
  7  6  1  0
  7  8  2  0
  8  4  1  0
  9  2  1  0
  9 16  1  0
 10  9  2  0
 12 11  1  0
 13 14  1  1
 13 12  1  0
 15 13  1  0
 15 16  1  6
 17 15  1  0
 18 17  2  0
 20 19  1  6
 20 21  1  0
 20 22  1  0
 22 23  1  6
 23 17  1  0
 24 22  1  0
 24 25  1  0
 26 24  2  0
M  END
$$$$
