HIT.pdb
     RDKit          3D

 26 26  0  0  1  0  0  0  0  0999 V2000
    9.1347  -17.9496   16.4970 N   0  0  0  0  0  0  0  0  0  0  0  0
    8.2751  -17.7658   17.6273 C   0  0  1  0  0  0  0  0  0  0  0  0
    7.8600  -19.1300   18.1387 C   0  0  0  0  0  0  0  0  0  0  0  0
    6.8642  -19.6943   17.1911 C   0  0  0  0  0  0  0  0  0  0  0  0
    6.2587  -19.1086   16.1038 C   0  0  0  0  0  0  0  0  0  0  0  0
    5.4195  -19.9747   15.5200 N   0  0  0  0  0  0  0  0  0  0  0  0
    5.4761  -21.1213   16.2223 C   0  0  0  0  0  0  0  0  0  0  0  0
    6.3548  -20.9550   17.2411 N   0  0  0  0  0  0  0  0  0  0  0  0
    8.9083  -16.9481   18.6828 C   0  0  0  0  0  0  0  0  0  0  0  0
   10.1836  -16.9596   18.7200 O   0  0  0  0  0  0  0  0  0  0  0  0
    6.9534  -12.0138   19.9521 C   0  0  0  0  0  0  0  0  0  0  0  0
    7.8773  -13.1420   19.7552 C   0  0  0  0  0  0  0  0  0  0  0  0
    8.0279  -14.1285   20.8745 C   0  0  2  0  0  0  0  0  0  0  0  0
    8.7410  -13.3498   21.9707 C   0  0  0  0  0  0  0  0  0  0  0  0
    8.8624  -15.3399   20.5508 C   0  0  2  0  0  0  0  0  0  0  0  0
    8.1596  -16.1989   19.5961 N   0  0  0  0  0  0  0  0  0  0  0  0
    8.9341  -16.1789   21.7910 C   0  0  0  0  0  0  0  0  0  0  0  0
    7.8416  -16.5004   22.3931 O   0  0  0  0  0  0  0  0  0  0  0  0
   10.0729  -19.6362   22.1838 C   0  0  0  0  0  0  0  0  0  0  0  0
   10.7888  -18.8759   23.2734 C   0  0  1  0  0  0  0  0  0  0  0  0
   12.1348  -18.8345   22.9731 O   0  0  0  0  0  0  0  0  0  0  0  0
   10.1897  -17.5315   23.5195 C   0  0  2  0  0  0  0  0  0  0  0  0
   10.1299  -16.6667   22.3725 N   0  0  0  0  0  0  0  0  0  0  0  0
   10.7361  -16.8646   24.7448 C   0  0  0  0  0  0  0  0  0  0  0  0
   10.5635  -17.4129   25.9883 O   0  0  0  0  0  0  0  0  0  0  0  0
   11.3711  -15.7833   24.6652 O   0  0  0  0  0  0  0  0  0  0  0  0
  2  1  1  6
  3  2  1  0
  4  3  1  0
  5  4  2  0
  6  5  1  0
  7  6  1  0
  7  8  2  0
  8  4  1  0
  9  2  1  0
  9 16  1  0
 10  9  2  0
 12 11  1  0
 13 14  1  1
 13 12  1  0
 15 13  1  0
 15 16  1  6
 17 15  1  0
 18 17  2  0
 20 19  1  6
 20 21  1  0
 20 22  1  0
 22 23  1  6
 23 17  1  0
 24 22  1  0
 24 25  1  0
 26 24  2  0
M  END
$$$$
