HIT.pdb
     RDKit          3D

 26 26  0  0  1  0  0  0  0  0999 V2000
    9.5324  -16.1328   21.2672 N   0  0  0  0  0  0  0  0  0  0  0  0
    8.5741  -16.3139   22.3156 C   0  0  1  0  0  0  0  0  0  0  0  0
    8.3996  -17.8000   22.5518 C   0  0  0  0  0  0  0  0  0  0  0  0
    7.7552  -18.3857   21.3478 C   0  0  0  0  0  0  0  0  0  0  0  0
    7.4110  -17.7865   20.1585 C   0  0  0  0  0  0  0  0  0  0  0  0
    6.8479  -18.6818   19.3360 N   0  0  0  0  0  0  0  0  0  0  0  0
    6.8240  -19.8609   19.9844 C   0  0  0  0  0  0  0  0  0  0  0  0
    7.3757  -19.6852   21.2102 N   0  0  0  0  0  0  0  0  0  0  0  0
    8.9563  -15.5983   23.5507 C   0  0  0  0  0  0  0  0  0  0  0  0
   10.2008  -15.3658   23.7089 O   0  0  0  0  0  0  0  0  0  0  0  0
    5.5148  -11.9437   25.7320 C   0  0  0  0  0  0  0  0  0  0  0  0
    6.7613  -12.6123   25.3266 C   0  0  0  0  0  0  0  0  0  0  0  0
    7.3388  -13.6403   26.2531 C   0  0  2  0  0  0  0  0  0  0  0  0
    7.8912  -12.8309   27.4178 C   0  0  0  0  0  0  0  0  0  0  0  0
    8.4686  -14.4547   25.6797 C   0  0  2  0  0  0  0  0  0  0  0  0
    8.0131  -15.1935   24.5007 N   0  0  0  0  0  0  0  0  0  0  0  0
    8.7891  -15.5349   26.6684 C   0  0  0  0  0  0  0  0  0  0  0  0
    9.1556  -15.2052   27.8586 O   0  0  0  0  0  0  0  0  0  0  0  0
    6.7943  -19.1559   27.0063 C   0  0  0  0  0  0  0  0  0  0  0  0
    8.2974  -19.2663   27.0853 C   0  0  1  0  0  0  0  0  0  0  0  0
    8.7579  -19.8699   25.9334 O   0  0  0  0  0  0  0  0  0  0  0  0
    8.9513  -17.9569   27.3765 C   0  0  2  0  0  0  0  0  0  0  0  0
    8.7180  -16.9244   26.4035 N   0  0  0  0  0  0  0  0  0  0  0  0
   10.3907  -18.0976   27.7674 C   0  0  0  0  0  0  0  0  0  0  0  0
   10.7693  -18.9132   28.8010 O   0  0  0  0  0  0  0  0  0  0  0  0
   11.2924  -17.4724   27.1551 O   0  0  0  0  0  0  0  0  0  0  0  0
  2  1  1  6
  3  2  1  0
  4  3  1  0
  5  4  2  0
  6  5  1  0
  7  6  1  0
  7  8  2  0
  8  4  1  0
  9  2  1  0
  9 16  1  0
 10  9  2  0
 12 11  1  0
 13 14  1  1
 13 12  1  0
 15 13  1  0
 15 16  1  6
 17 15  1  0
 18 17  2  0
 20 19  1  6
 20 21  1  0
 20 22  1  0
 22 23  1  6
 23 17  1  0
 24 22  1  0
 24 25  1  0
 26 24  2  0
M  END
$$$$
