HIT.pdb
     RDKit          3D

 26 26  0  0  1  0  0  0  0  0999 V2000
    8.8812  -15.9290   20.6493 N   0  0  0  0  0  0  0  0  0  0  0  0
    7.8182  -15.8677   21.6067 C   0  0  1  0  0  0  0  0  0  0  0  0
    7.1295  -17.2165   21.6431 C   0  0  0  0  0  0  0  0  0  0  0  0
    6.6148  -17.5084   20.2800 C   0  0  0  0  0  0  0  0  0  0  0  0
    6.8358  -16.8409   19.0979 C   0  0  0  0  0  0  0  0  0  0  0  0
    6.1775  -17.4421   18.0977 N   0  0  0  0  0  0  0  0  0  0  0  0
    5.5292  -18.4978   18.6234 C   0  0  0  0  0  0  0  0  0  0  0  0
    5.7928  -18.5420   19.9525 N   0  0  0  0  0  0  0  0  0  0  0  0
    8.2938  -15.4529   22.9429 C   0  0  0  0  0  0  0  0  0  0  0  0
    9.5515  -15.5266   23.1448 O   0  0  0  0  0  0  0  0  0  0  0  0
    5.8527  -11.4037   25.6589 C   0  0  0  0  0  0  0  0  0  0  0  0
    6.9087  -12.3193   25.1987 C   0  0  0  0  0  0  0  0  0  0  0  0
    7.0663  -13.6257   25.9179 C   0  0  2  0  0  0  0  0  0  0  0  0
    7.6998  -13.2495   27.2498 C   0  0  0  0  0  0  0  0  0  0  0  0
    7.9706  -14.6225   25.2416 C   0  0  2  0  0  0  0  0  0  0  0  0
    7.4213  -15.0026   23.9389 N   0  0  0  0  0  0  0  0  0  0  0  0
    7.9077  -15.8938   26.0333 C   0  0  0  0  0  0  0  0  0  0  0  0
    6.9474  -16.7231   25.8103 O   0  0  0  0  0  0  0  0  0  0  0  0
    8.3851  -18.4152   25.1352 C   0  0  0  0  0  0  0  0  0  0  0  0
    9.4230  -18.5428   26.2235 C   0  0  1  0  0  0  0  0  0  0  0  0
   10.6730  -18.3719   25.6650 O   0  0  0  0  0  0  0  0  0  0  0  0
    9.1546  -17.6353   27.3773 C   0  0  2  0  0  0  0  0  0  0  0  0
    8.8392  -16.2764   27.0292 N   0  0  0  0  0  0  0  0  0  0  0  0
   10.1803  -17.7529   28.4631 C   0  0  0  0  0  0  0  0  0  0  0  0
   10.3718  -18.9319   29.1340 O   0  0  0  0  0  0  0  0  0  0  0  0
   10.8962  -16.7725   28.7870 O   0  0  0  0  0  0  0  0  0  0  0  0
  2  1  1  6
  3  2  1  0
  4  3  1  0
  5  4  2  0
  6  5  1  0
  7  6  1  0
  7  8  2  0
  8  4  1  0
  9  2  1  0
  9 16  1  0
 10  9  2  0
 12 11  1  0
 13 14  1  1
 13 12  1  0
 15 13  1  0
 15 16  1  6
 17 15  1  0
 18 17  2  0
 20 19  1  6
 20 21  1  0
 20 22  1  0
 22 23  1  6
 23 17  1  0
 24 22  1  0
 24 25  1  0
 26 24  2  0
M  END
$$$$
