HIT.pdb
     RDKit          3D

 26 26  0  0  1  0  0  0  0  0999 V2000
    7.7403  -15.8905   20.5038 N   0  0  0  0  0  0  0  0  0  0  0  0
    7.1007  -16.2022   21.7463 C   0  0  1  0  0  0  0  0  0  0  0  0
    6.8313  -17.6924   21.7844 C   0  0  0  0  0  0  0  0  0  0  0  0
    5.4195  -17.9162   21.3782 C   0  0  0  0  0  0  0  0  0  0  0  0
    4.8898  -18.1232   20.1258 C   0  0  0  0  0  0  0  0  0  0  0  0
    3.5619  -18.2821   20.2063 N   0  0  0  0  0  0  0  0  0  0  0  0
    3.2248  -18.1794   21.5051 C   0  0  0  0  0  0  0  0  0  0  0  0
    4.3533  -17.9566   22.2226 N   0  0  0  0  0  0  0  0  0  0  0  0
    7.8931  -15.7531   22.9100 C   0  0  0  0  0  0  0  0  0  0  0  0
    9.1605  -15.7442   22.7631 O   0  0  0  0  0  0  0  0  0  0  0  0
    5.9739  -11.8316   26.0980 C   0  0  0  0  0  0  0  0  0  0  0  0
    6.9929  -12.6568   25.4303 C   0  0  0  0  0  0  0  0  0  0  0  0
    7.3989  -13.9402   26.0910 C   0  0  2  0  0  0  0  0  0  0  0  0
    8.3322  -13.5084   27.2132 C   0  0  0  0  0  0  0  0  0  0  0  0
    8.1508  -14.9028   25.2097 C   0  0  2  0  0  0  0  0  0  0  0  0
    7.2963  -15.3573   24.1113 N   0  0  0  0  0  0  0  0  0  0  0  0
    8.3885  -16.1491   26.0080 C   0  0  0  0  0  0  0  0  0  0  0  0
    7.3874  -16.7314   26.5723 O   0  0  0  0  0  0  0  0  0  0  0  0
    9.7521  -19.3972   24.8322 C   0  0  0  0  0  0  0  0  0  0  0  0
   10.5114  -19.0810   26.0977 C   0  0  1  0  0  0  0  0  0  0  0  0
   11.8249  -18.8143   25.7706 O   0  0  0  0  0  0  0  0  0  0  0  0
    9.8632  -18.0007   26.8973 C   0  0  2  0  0  0  0  0  0  0  0  0
    9.6508  -16.7625   26.1980 N   0  0  0  0  0  0  0  0  0  0  0  0
   10.4811  -17.8258   28.2509 C   0  0  0  0  0  0  0  0  0  0  0  0
   10.4918  -18.8473   29.1638 O   0  0  0  0  0  0  0  0  0  0  0  0
   11.0099  -16.7364   28.5859 O   0  0  0  0  0  0  0  0  0  0  0  0
  2  1  1  6
  3  2  1  0
  4  3  1  0
  5  4  2  0
  6  5  1  0
  7  6  1  0
  7  8  2  0
  8  4  1  0
  9  2  1  0
  9 16  1  0
 10  9  2  0
 12 11  1  0
 13 14  1  1
 13 12  1  0
 15 13  1  0
 15 16  1  6
 17 15  1  0
 18 17  2  0
 20 19  1  6
 20 21  1  0
 20 22  1  0
 22 23  1  6
 23 17  1  0
 24 22  1  0
 24 25  1  0
 26 24  2  0
M  END
$$$$
