HIT.pdb
     RDKit          3D

 26 26  0  0  1  0  0  0  0  0999 V2000
   10.0669  -14.2141   20.8384 N   0  0  0  0  0  0  0  0  0  0  0  0
    8.8101  -14.2344   21.5241 C   0  0  1  0  0  0  0  0  0  0  0  0
    7.9026  -15.2285   20.8291 C   0  0  0  0  0  0  0  0  0  0  0  0
    7.6474  -14.7347   19.4510 C   0  0  0  0  0  0  0  0  0  0  0  0
    8.1815  -13.6498   18.7954 C   0  0  0  0  0  0  0  0  0  0  0  0
    7.6767  -13.5636   17.5574 N   0  0  0  0  0  0  0  0  0  0  0  0
    6.8166  -14.5873   17.4041 C   0  0  0  0  0  0  0  0  0  0  0  0
    6.7957  -15.3032   18.5551 N   0  0  0  0  0  0  0  0  0  0  0  0
    8.9638  -14.5370   22.9624 C   0  0  0  0  0  0  0  0  0  0  0  0
   10.1021  -14.9812   23.3294 O   0  0  0  0  0  0  0  0  0  0  0  0
    5.8612  -11.4013   26.2449 C   0  0  0  0  0  0  0  0  0  0  0  0
    7.0140  -12.1326   25.6957 C   0  0  0  0  0  0  0  0  0  0  0  0
    7.1668  -13.5784   26.0631 C   0  0  2  0  0  0  0  0  0  0  0  0
    7.5613  -13.5548   27.5330 C   0  0  0  0  0  0  0  0  0  0  0  0
    8.2394  -14.3195   25.3088 C   0  0  2  0  0  0  0  0  0  0  0  0
    7.9246  -14.3501   23.8794 N   0  0  0  0  0  0  0  0  0  0  0  0
    8.1600  -15.7598   25.7164 C   0  0  0  0  0  0  0  0  0  0  0  0
    7.0138  -16.3479   25.7168 O   0  0  0  0  0  0  0  0  0  0  0  0
    9.2114  -18.8666   24.2400 C   0  0  0  0  0  0  0  0  0  0  0  0
    9.7896  -18.9264   25.6328 C   0  0  1  0  0  0  0  0  0  0  0  0
   11.1633  -18.8310   25.5461 O   0  0  0  0  0  0  0  0  0  0  0  0
    9.1772  -17.9201   26.5488 C   0  0  2  0  0  0  0  0  0  0  0  0
    9.2652  -16.5545   26.1075 N   0  0  0  0  0  0  0  0  0  0  0  0
    9.5764  -18.1141   27.9797 C   0  0  0  0  0  0  0  0  0  0  0  0
    9.2931  -19.2782   28.6442 O   0  0  0  0  0  0  0  0  0  0  0  0
   10.1855  -17.2140   28.6102 O   0  0  0  0  0  0  0  0  0  0  0  0
  2  1  1  6
  3  2  1  0
  4  3  1  0
  5  4  2  0
  6  5  1  0
  7  6  1  0
  7  8  2  0
  8  4  1  0
  9  2  1  0
  9 16  1  0
 10  9  2  0
 12 11  1  0
 13 14  1  1
 13 12  1  0
 15 13  1  0
 15 16  1  6
 17 15  1  0
 18 17  2  0
 20 19  1  6
 20 21  1  0
 20 22  1  0
 22 23  1  6
 23 17  1  0
 24 22  1  0
 24 25  1  0
 26 24  2  0
M  END
$$$$
