HIT.pdb
     RDKit          3D

 26 26  0  0  1  0  0  0  0  0999 V2000
5841803.0000-7704522.0000112289.4141 N   0  0  0  0  0  0  0  0  0  0  0  0
5841804.0000-7704522.5000112288.2734 C   0  0  1  0  0  0  0  0  0  0  0  0
5841805.5000-7704522.0000112288.4297 C   0  0  0  0  0  0  0  0  0  0  0  0
5841807.0000-7704523.5000112287.2734 C   0  0  0  0  0  0  0  0  0  0  0  0
5841806.0000-7704524.0000112286.9609 C   0  0  0  0  0  0  0  0  0  0  0  0
5841806.5000-7704524.5000112286.1953 N   0  0  0  0  0  0  0  0  0  0  0  0
5841806.5000-7704525.5000112287.9766 C   0  0  0  0  0  0  0  0  0  0  0  0
5841807.0000-7704524.0000112287.5078 N   0  0  0  0  0  0  0  0  0  0  0  0
5841803.5000-7704524.5000112289.0391 C   0  0  0  0  0  0  0  0  0  0  0  0
5841802.0000-7704525.5000112288.3203 O   0  0  0  0  0  0  0  0  0  0  0  0
5841802.5000-7704522.0000112291.9141 C   0  0  0  0  0  0  0  0  0  0  0  0
5841803.5000-7704523.0000112291.0703 C   0  0  0  0  0  0  0  0  0  0  0  0
5841802.5000-7704524.0000112291.8359 C   0  0  2  0  0  0  0  0  0  0  0  0
5841803.0000-7704524.5000112293.1641 C   0  0  0  0  0  0  0  0  0  0  0  0
5841802.5000-7704525.5000112291.4141 C   0  0  2  0  0  0  0  0  0  0  0  0
5841803.0000-7704526.0000112290.2422 N   0  0  0  0  0  0  0  0  0  0  0  0
5841801.0000-7704525.0000112291.1641 C   0  0  0  0  0  0  0  0  0  0  0  0
5841800.5000-7704526.0000112291.6484 O   0  0  0  0  0  0  0  0  0  0  0  0
5841799.5000-7704522.5000112288.2109 C   0  0  0  0  0  0  0  0  0  0  0  0
5841800.0000-7704523.0000112289.4453 C   0  0  1  0  0  0  0  0  0  0  0  0
5841798.5000-7704525.0000112290.3359 O   0  0  0  0  0  0  0  0  0  0  0  0
5841801.0000-7704524.0000112288.2734 C   0  0  2  0  0  0  0  0  0  0  0  0
5841801.0000-7704524.5000112289.4922 N   0  0  0  0  0  0  0  0  0  0  0  0
5841801.0000-7704523.0000112287.5547 C   0  0  0  0  0  0  0  0  0  0  0  0
5841802.5000-7704523.5000112288.1016 O   0  0  0  0  0  0  0  0  0  0  0  0
5841800.5000-7704523.0000112286.9453 O   0  0  0  0  0  0  0  0  0  0  0  0
  2  1  1  1
  3  2  1  0
  4  3  1  0
  5  4  2  0
  6  5  1  0
  7  6  1  0
  7  8  2  0
  8  4  1  0
  9  2  1  0
  9 16  1  0
 10  9  2  0
 12 11  1  0
 13 14  1  1
 13 12  1  0
 15 13  1  0
 15 16  1  6
 17 15  1  0
 18 17  2  0
 20 19  1  6
 20 21  1  0
 20 22  1  0
 22 23  1  1
 23 17  1  0
 24 22  1  0
 24 25  1  0
 26 24  2  0
M  END
$$$$
