CQQ.pdb
     RDKit          3D

 25 24  0  0  1  0  0  0  0  0999 V2000
    7.8280  -13.0928   17.7264 N   0  0  0  0  0  0  0  0  0  0  0  0
    8.0063  -14.5122   17.6385 C   0  0  1  0  0  0  0  0  0  0  0  0
    9.2128  -14.8128   16.7805 C   0  0  0  0  0  0  0  0  0  0  0  0
    8.6955  -14.5564   15.0433 S   0  0  0  0  0  0  0  0  0  0  0  0
    8.0969  -15.0961   18.9781 C   0  0  0  0  0  0  0  0  0  0  0  0
    8.6601  -14.3985   19.8908 O   0  0  0  0  0  0  0  0  0  0  0  0
    3.1545  -17.9772   21.8672 N   0  0  0  0  0  0  0  0  0  0  0  0
    4.5768  -18.0641   21.9398 C   0  0  0  0  0  0  0  0  0  0  0  0
    5.0539  -18.2506   23.0965 O   0  0  0  0  0  0  0  0  0  0  0  0
    5.3552  -17.9429   20.7130 C   0  0  0  0  0  0  0  0  0  0  0  0
    6.8059  -18.1041   20.7626 C   0  0  0  0  0  0  0  0  0  0  0  0
    7.7268  -16.9675   20.5767 C   0  0  2  0  0  0  0  0  0  0  0  0
    7.5794  -16.3804   19.2424 N   0  0  0  0  0  0  0  0  0  0  0  0
    9.1341  -17.3037   20.7604 C   0  0  0  0  0  0  0  0  0  0  0  0
    9.8256  -17.8715   19.8421 O   0  0  0  0  0  0  0  0  0  0  0  0
   13.3335  -13.5150   19.7926 N   0  0  0  0  0  0  0  0  0  0  0  0
   13.5377  -14.9185   19.7159 C   0  0  0  0  0  0  0  0  0  0  0  0
   14.0361  -15.4330   18.6576 O   0  0  0  0  0  0  0  0  0  0  0  0
   13.1775  -15.7583   20.8603 C   0  0  0  0  0  0  0  0  0  0  0  0
   11.7273  -16.0950   20.9297 C   0  0  0  0  0  0  0  0  0  0  0  0
   11.2886  -16.9554   22.0735 C   0  0  2  0  0  0  0  0  0  0  0  0
    9.8261  -17.0314   21.9474 N   0  0  0  0  0  0  0  0  0  0  0  0
   11.7295  -16.6430   23.4030 C   0  0  0  0  0  0  0  0  0  0  0  0
   13.0583  -16.6945   23.7854 O   0  0  0  0  0  0  0  0  0  0  0  0
   10.9028  -16.3063   24.3082 O   0  0  0  0  0  0  0  0  0  0  0  0
  2  1  1  1
  3  4  1  0
  3  2  1  0
  5  2  1  0
  5  6  2  0
  7  8  1  0
  8 10  1  0
  9  8  2  0
 10 11  1  0
 12 11  1  6
 12 13  1  0
 13  5  1  0
 14 12  1  0
 15 14  2  0
 16 17  1  0
 17 19  1  0
 18 17  2  0
 20 19  1  0
 21 20  1  6
 21 22  1  0
 21 23  1  0
 22 14  1  0
 23 24  1  0
 25 23  2  0
M  END
$$$$
