CQQ.pdb
     RDKit          3D

 25 24  0  0  1  0  0  0  0  0999 V2000
    7.8651  -14.9519   18.0301 N   0  0  0  0  0  0  0  0  0  0  0  0
    8.2930  -14.3484   19.2576 C   0  0  1  0  0  0  0  0  0  0  0  0
    7.3112  -13.2711   19.6546 C   0  0  0  0  0  0  0  0  0  0  0  0
    7.9239  -12.5592   21.2259 S   0  0  0  0  0  0  0  0  0  0  0  0
    8.4697  -15.3707   20.2908 C   0  0  0  0  0  0  0  0  0  0  0  0
    7.6650  -16.3654   20.2829 O   0  0  0  0  0  0  0  0  0  0  0  0
   13.7013  -17.9572   21.7269 N   0  0  0  0  0  0  0  0  0  0  0  0
   12.8958  -18.4864   22.7789 C   0  0  0  0  0  0  0  0  0  0  0  0
   13.4271  -19.4094   23.4616 O   0  0  0  0  0  0  0  0  0  0  0  0
   11.5616  -17.9380   22.9908 C   0  0  0  0  0  0  0  0  0  0  0  0
   11.0942  -16.8382   22.1512 C   0  0  0  0  0  0  0  0  0  0  0  0
    9.7108  -16.3324   22.2220 C   0  0  2  0  0  0  0  0  0  0  0  0
    9.4920  -15.2541   21.2544 N   0  0  0  0  0  0  0  0  0  0  0  0
    9.3245  -15.8336   23.5370 C   0  0  0  0  0  0  0  0  0  0  0  0
    9.9843  -14.9136   24.1388 O   0  0  0  0  0  0  0  0  0  0  0  0
    5.9018  -20.3892   25.5092 N   0  0  0  0  0  0  0  0  0  0  0  0
    6.5219  -20.0705   26.7466 C   0  0  0  0  0  0  0  0  0  0  0  0
    6.3773  -20.8478   27.7506 O   0  0  0  0  0  0  0  0  0  0  0  0
    7.3272  -18.8519   26.8513 C   0  0  0  0  0  0  0  0  0  0  0  0
    7.4232  -18.0803   25.5798 C   0  0  0  0  0  0  0  0  0  0  0  0
    8.2306  -16.8200   25.6150 C   0  0  2  0  0  0  0  0  0  0  0  0
    8.2109  -16.3224   24.2320 N   0  0  0  0  0  0  0  0  0  0  0  0
    9.5433  -16.8373   26.1947 C   0  0  0  0  0  0  0  0  0  0  0  0
    9.8381  -16.2343   27.4046 O   0  0  0  0  0  0  0  0  0  0  0  0
   10.5141  -17.4111   25.6079 O   0  0  0  0  0  0  0  0  0  0  0  0
  2  1  1  6
  3  4  1  0
  3  2  1  0
  5  2  1  0
  5  6  2  0
  7  8  1  0
  8 10  1  0
  9  8  2  0
 10 11  1  0
 12 11  1  1
 12 13  1  0
 13  5  1  0
 14 12  1  0
 15 14  2  0
 16 17  1  0
 17 19  1  0
 18 17  2  0
 20 19  1  0
 21 20  1  6
 21 22  1  0
 21 23  1  0
 22 14  1  0
 23 24  1  0
 25 23  2  0
M  END
$$$$
