CQQ.pdb
     RDKit          3D

 25 24  0  0  1  0  0  0  0  0999 V2000
    7.1916  -14.7930   18.2886 N   0  0  0  0  0  0  0  0  0  0  0  0
    8.2786  -14.4863   19.1709 C   0  0  1  0  0  0  0  0  0  0  0  0
    7.8819  -13.3431   20.0753 C   0  0  0  0  0  0  0  0  0  0  0  0
    7.7834  -11.8513   19.0189 S   0  0  0  0  0  0  0  0  0  0  0  0
    8.6872  -15.6837   19.9078 C   0  0  0  0  0  0  0  0  0  0  0  0
    7.7696  -16.5004   20.2654 O   0  0  0  0  0  0  0  0  0  0  0  0
   13.1665  -19.5858   18.6282 N   0  0  0  0  0  0  0  0  0  0  0  0
   13.0802  -19.8063   20.0352 C   0  0  0  0  0  0  0  0  0  0  0  0
   13.9147  -20.6295   20.5108 O   0  0  0  0  0  0  0  0  0  0  0  0
   12.0726  -19.0841   20.8026 C   0  0  0  0  0  0  0  0  0  0  0  0
   11.4297  -17.9095   20.2196 C   0  0  0  0  0  0  0  0  0  0  0  0
   10.4302  -17.1162   20.9588 C   0  0  2  0  0  0  0  0  0  0  0  0
   10.0445  -15.9190   20.2073 N   0  0  0  0  0  0  0  0  0  0  0  0
   10.8692  -16.6871   22.2819 C   0  0  0  0  0  0  0  0  0  0  0  0
   11.8347  -15.8596   22.4455 O   0  0  0  0  0  0  0  0  0  0  0  0
    7.0491  -18.0757   25.0007 N   0  0  0  0  0  0  0  0  0  0  0  0
    7.0720  -16.6668   24.8215 C   0  0  0  0  0  0  0  0  0  0  0  0
    6.0280  -16.0609   24.4020 O   0  0  0  0  0  0  0  0  0  0  0  0
    8.2972  -15.9257   25.1281 C   0  0  0  0  0  0  0  0  0  0  0  0
    9.4136  -16.7814   25.6204 C   0  0  0  0  0  0  0  0  0  0  0  0
   10.6791  -16.7652   24.8206 C   0  0  2  0  0  0  0  0  0  0  0  0
   10.2698  -17.1468   23.4615 N   0  0  0  0  0  0  0  0  0  0  0  0
   11.8242  -17.4891   25.2944 C   0  0  0  0  0  0  0  0  0  0  0  0
   12.5910  -17.0649   26.3651 O   0  0  0  0  0  0  0  0  0  0  0  0
   12.1972  -18.5685   24.7360 O   0  0  0  0  0  0  0  0  0  0  0  0
  2  1  1  6
  3  4  1  0
  3  2  1  0
  5  2  1  0
  5  6  2  0
  7  8  1  0
  8 10  1  0
  9  8  2  0
 10 11  1  0
 12 11  1  6
 12 13  1  0
 13  5  1  0
 14 12  1  0
 15 14  2  0
 16 17  1  0
 17 19  1  0
 18 17  2  0
 20 19  1  0
 21 20  1  1
 21 22  1  0
 21 23  1  0
 22 14  1  0
 23 24  1  0
 25 23  2  0
M  END
$$$$
