CQQ.pdb
     RDKit          3D

 25 24  0  0  1  0  0  0  0  0999 V2000
    9.8660  -17.7091   16.6467 N   0  0  0  0  0  0  0  0  0  0  0  0
    9.0229  -17.9668   17.7767 C   0  0  1  0  0  0  0  0  0  0  0  0
    9.1853  -19.4066   18.2042 C   0  0  0  0  0  0  0  0  0  0  0  0
    8.0281  -19.6715   19.5977 S   0  0  0  0  0  0  0  0  0  0  0  0
    9.3099  -17.0148   18.8514 C   0  0  0  0  0  0  0  0  0  0  0  0
   10.5347  -16.7088   19.0594 O   0  0  0  0  0  0  0  0  0  0  0  0
    9.3876  -12.5665   19.5634 N   0  0  0  0  0  0  0  0  0  0  0  0
    8.1332  -12.7887   18.9209 C   0  0  0  0  0  0  0  0  0  0  0  0
    7.9771  -12.2026   17.8108 O   0  0  0  0  0  0  0  0  0  0  0  0
    7.1532  -13.6546   19.5657 C   0  0  0  0  0  0  0  0  0  0  0  0
    7.5428  -14.4337   20.7380 C   0  0  0  0  0  0  0  0  0  0  0  0
    8.5745  -15.4852   20.6718 C   0  0  2  0  0  0  0  0  0  0  0  0
    8.2681  -16.4612   19.6229 N   0  0  0  0  0  0  0  0  0  0  0  0
    8.7601  -16.2182   21.9191 C   0  0  0  0  0  0  0  0  0  0  0  0
    8.0134  -17.2074   22.2470 O   0  0  0  0  0  0  0  0  0  0  0  0
   11.6363  -20.0479   21.0746 N   0  0  0  0  0  0  0  0  0  0  0  0
   12.6422  -19.5406   21.9396 C   0  0  0  0  0  0  0  0  0  0  0  0
   13.8230  -20.0274   21.8981 O   0  0  0  0  0  0  0  0  0  0  0  0
   12.3098  -18.4568   22.8666 C   0  0  0  0  0  0  0  0  0  0  0  0
   10.9221  -17.9352   22.7134 C   0  0  0  0  0  0  0  0  0  0  0  0
   10.4946  -16.8647   23.6687 C   0  0  2  0  0  0  0  0  0  0  0  0
    9.7624  -15.8942   22.8424 N   0  0  0  0  0  0  0  0  0  0  0  0
   11.4674  -16.2577   24.5317 C   0  0  0  0  0  0  0  0  0  0  0  0
   12.0834  -15.0537   24.2398 O   0  0  0  0  0  0  0  0  0  0  0  0
   11.8192  -16.8133   25.6197 O   0  0  0  0  0  0  0  0  0  0  0  0
  2  1  1  6
  3  4  1  0
  3  2  1  0
  5  2  1  0
  5  6  2  0
  7  8  1  0
  8 10  1  0
  9  8  2  0
 10 11  1  0
 12 11  1  1
 12 13  1  0
 13  5  1  0
 14 12  1  0
 15 14  2  0
 16 17  1  0
 17 19  1  0
 18 17  2  0
 20 19  1  0
 21 20  1  6
 21 22  1  0
 21 23  1  0
 22 14  1  0
 23 24  1  0
 25 23  2  0
M  END
$$$$
