CQQ.pdb
     RDKit          3D

 25 24  0  0  1  0  0  0  0  0999 V2000
    8.2180  -15.1121   18.9648 N   0  0  0  0  0  0  0  0  0  0  0  0
    7.3765  -15.3842   20.0926 C   0  0  1  0  0  0  0  0  0  0  0  0
    6.9008  -16.8166   20.0281 C   0  0  0  0  0  0  0  0  0  0  0  0
    8.2608  -17.7855   19.2779 S   0  0  0  0  0  0  0  0  0  0  0  0
    8.0799  -15.0702   21.3377 C   0  0  0  0  0  0  0  0  0  0  0  0
    9.3574  -15.1401   21.3296 O   0  0  0  0  0  0  0  0  0  0  0  0
    5.5109  -11.9517   26.2734 N   0  0  0  0  0  0  0  0  0  0  0  0
    6.8186  -12.2632   26.7513 C   0  0  0  0  0  0  0  0  0  0  0  0
    7.1109  -11.7918   27.8883 O   0  0  0  0  0  0  0  0  0  0  0  0
    7.6957  -13.0835   25.9245 C   0  0  0  0  0  0  0  0  0  0  0  0
    7.2588  -13.4835   24.5895 C   0  0  0  0  0  0  0  0  0  0  0  0
    8.0921  -14.3274   23.7132 C   0  0  2  0  0  0  0  0  0  0  0  0
    7.3666  -14.7054   22.4976 N   0  0  0  0  0  0  0  0  0  0  0  0
    8.5698  -15.5528   24.3438 C   0  0  0  0  0  0  0  0  0  0  0  0
    7.8196  -16.5821   24.4905 O   0  0  0  0  0  0  0  0  0  0  0  0
   14.3671  -17.2764   23.9659 N   0  0  0  0  0  0  0  0  0  0  0  0
   13.3252  -17.1459   23.0094 C   0  0  0  0  0  0  0  0  0  0  0  0
   13.5990  -17.1724   21.7615 O   0  0  0  0  0  0  0  0  0  0  0  0
   11.9446  -16.9883   23.4713 C   0  0  0  0  0  0  0  0  0  0  0  0
   11.7930  -17.0458   24.9528 C   0  0  0  0  0  0  0  0  0  0  0  0
   10.4065  -16.8898   25.4956 C   0  0  2  0  0  0  0  0  0  0  0  0
    9.8756  -15.6907   24.8315 N   0  0  0  0  0  0  0  0  0  0  0  0
   10.1986  -16.8928   26.9156 C   0  0  0  0  0  0  0  0  0  0  0  0
   10.3763  -18.0197   27.6984 O   0  0  0  0  0  0  0  0  0  0  0  0
    9.8272  -15.8427   27.5282 O   0  0  0  0  0  0  0  0  0  0  0  0
  2  1  1  6
  3  4  1  0
  3  2  1  0
  5  2  1  0
  5  6  2  0
  7  8  1  0
  8 10  1  0
  9  8  2  0
 10 11  1  0
 12 11  1  1
 12 13  1  0
 13  5  1  0
 14 12  1  0
 15 14  2  0
 16 17  1  0
 17 19  1  0
 18 17  2  0
 20 19  1  0
 21 20  1  1
 21 22  1  0
 21 23  1  0
 22 14  1  0
 23 24  1  0
 25 23  2  0
M  END
$$$$
