CQQ.pdb
     RDKit          3D

 25 24  0  0  1  0  0  0  0  0999 V2000
    7.4625  -16.0189   26.6294 N   0  0  0  0  0  0  0  0  0  0  0  0
    7.9122  -15.0098   25.7163 C   0  0  1  0  0  0  0  0  0  0  0  0
    9.1628  -14.3618   26.2626 C   0  0  0  0  0  0  0  0  0  0  0  0
    8.6613  -12.7269   26.9156 S   0  0  0  0  0  0  0  0  0  0  0  0
    8.1000  -15.5811   24.3813 C   0  0  0  0  0  0  0  0  0  0  0  0
    8.0574  -16.8551   24.2715 O   0  0  0  0  0  0  0  0  0  0  0  0
    7.6891  -12.3183   18.9061 N   0  0  0  0  0  0  0  0  0  0  0  0
    8.0442  -13.6277   18.4641 C   0  0  0  0  0  0  0  0  0  0  0  0
    8.0877  -13.7873   17.2100 O   0  0  0  0  0  0  0  0  0  0  0  0
    8.3302  -14.6551   19.4583 C   0  0  0  0  0  0  0  0  0  0  0  0
    8.1809  -14.3442   20.8775 C   0  0  0  0  0  0  0  0  0  0  0  0
    8.4577  -15.3390   21.9302 C   0  0  2  0  0  0  0  0  0  0  0  0
    8.3190  -14.7495   23.2644 N   0  0  0  0  0  0  0  0  0  0  0  0
    9.7832  -15.9420   21.8474 C   0  0  0  0  0  0  0  0  0  0  0  0
    9.9822  -17.0788   21.2889 O   0  0  0  0  0  0  0  0  0  0  0  0
   14.8321  -13.7558   19.3750 N   0  0  0  0  0  0  0  0  0  0  0  0
   14.7928  -14.9143   20.1959 C   0  0  0  0  0  0  0  0  0  0  0  0
   14.9692  -16.0688   19.6773 O   0  0  0  0  0  0  0  0  0  0  0  0
   14.5553  -14.7659   21.6333 C   0  0  0  0  0  0  0  0  0  0  0  0
   13.1218  -14.5718   21.9918 C   0  0  0  0  0  0  0  0  0  0  0  0
   12.3033  -15.8091   22.1928 C   0  0  2  0  0  0  0  0  0  0  0  0
   10.9268  -15.3245   22.3699 N   0  0  0  0  0  0  0  0  0  0  0  0
   12.7014  -16.7667   23.1848 C   0  0  0  0  0  0  0  0  0  0  0  0
   12.0807  -16.8744   24.4167 O   0  0  0  0  0  0  0  0  0  0  0  0
   13.6653  -17.5686   22.9755 O   0  0  0  0  0  0  0  0  0  0  0  0
  2  1  1  1
  3  4  1  0
  3  2  1  0
  5  2  1  0
  5  6  2  0
  7  8  1  0
  8 10  1  0
  9  8  2  0
 10 11  1  0
 12 11  1  6
 12 13  1  0
 13  5  1  0
 14 12  1  0
 15 14  2  0
 16 17  1  0
 17 19  1  0
 18 17  2  0
 20 19  1  0
 21 20  1  1
 21 22  1  0
 21 23  1  0
 22 14  1  0
 23 24  1  0
 25 23  2  0
M  END
$$$$
