CQQ.pdb
     RDKit          3D

 25 24  0  0  1  0  0  0  0  0999 V2000
    5.2429  -18.9056   20.3746 N   0  0  0  0  0  0  0  0  0  0  0  0
    5.0776  -17.6918   21.1186 C   0  0  1  0  0  0  0  0  0  0  0  0
    4.4033  -17.9996   22.4350 C   0  0  0  0  0  0  0  0  0  0  0  0
    2.6709  -18.4429   22.0435 S   0  0  0  0  0  0  0  0  0  0  0  0
    6.3664  -17.0162   21.2799 C   0  0  0  0  0  0  0  0  0  0  0  0
    7.4104  -17.7490   21.3799 O   0  0  0  0  0  0  0  0  0  0  0  0
    9.7513  -13.0715   18.8311 N   0  0  0  0  0  0  0  0  0  0  0  0
    8.4068  -13.1861   18.3674 C   0  0  0  0  0  0  0  0  0  0  0  0
    8.2521  -13.0978   17.1150 O   0  0  0  0  0  0  0  0  0  0  0  0
    7.3405  -13.3978   19.3389 C   0  0  0  0  0  0  0  0  0  0  0  0
    7.6786  -13.6037   20.7447 C   0  0  0  0  0  0  0  0  0  0  0  0
    7.7517  -14.9494   21.3434 C   0  0  2  0  0  0  0  0  0  0  0  0
    6.4437  -15.6092   21.3223 N   0  0  0  0  0  0  0  0  0  0  0  0
    8.2340  -14.9645   22.7198 C   0  0  0  0  0  0  0  0  0  0  0  0
    7.5034  -14.5866   23.7032 O   0  0  0  0  0  0  0  0  0  0  0  0
    7.1455  -18.8856   25.4377 N   0  0  0  0  0  0  0  0  0  0  0  0
    8.1414  -18.5786   26.4026 C   0  0  0  0  0  0  0  0  0  0  0  0
    8.1487  -19.1869   27.5265 O   0  0  0  0  0  0  0  0  0  0  0  0
    9.1541  -17.5680   26.0901 C   0  0  0  0  0  0  0  0  0  0  0  0
    8.9445  -16.8877   24.7807 C   0  0  0  0  0  0  0  0  0  0  0  0
    9.9380  -15.8339   24.4015 C   0  0  2  0  0  0  0  0  0  0  0  0
    9.5235  -15.3909   23.0626 N   0  0  0  0  0  0  0  0  0  0  0  0
   11.3414  -16.1180   24.4976 C   0  0  0  0  0  0  0  0  0  0  0  0
   11.9915  -16.2927   25.7064 O   0  0  0  0  0  0  0  0  0  0  0  0
   12.0655  -16.2159   23.4573 O   0  0  0  0  0  0  0  0  0  0  0  0
  2  1  1  1
  3  4  1  0
  3  2  1  0
  5  2  1  0
  5  6  2  0
  7  8  1  0
  8 10  1  0
  9  8  2  0
 10 11  1  0
 12 11  1  1
 12 13  1  0
 13  5  1  0
 14 12  1  0
 15 14  2  0
 16 17  1  0
 17 19  1  0
 18 17  2  0
 20 19  1  0
 21 20  1  6
 21 22  1  0
 21 23  1  0
 22 14  1  0
 23 24  1  0
 25 23  2  0
M  END
$$$$
