FKI.pdb
     RDKit          3D

 29 29  0  0  1  0  0  0  0  0999 V2000
    5.6387  -18.4027   19.7919 N   0  0  0  0  0  0  0  0  0  0  0  0
    6.3822  -17.3013   20.3745 C   0  0  1  0  0  0  0  0  0  0  0  0
    5.8393  -16.0301   19.7163 C   0  0  0  0  0  0  0  0  0  0  0  0
    6.7183  -14.9062   20.1528 C   0  0  0  0  0  0  0  0  0  0  0  0
    7.7935  -14.4739   19.3898 C   0  0  0  0  0  0  0  0  0  0  0  0
    8.6044  -13.4305   19.8015 C   0  0  0  0  0  0  0  0  0  0  0  0
    8.3634  -12.7805   21.0001 C   0  0  0  0  0  0  0  0  0  0  0  0
    7.2921  -13.2193   21.7491 C   0  0  0  0  0  0  0  0  0  0  0  0
    6.4818  -14.2587   21.3422 C   0  0  0  0  0  0  0  0  0  0  0  0
    6.1552  -17.2302   21.8345 C   0  0  0  0  0  0  0  0  0  0  0  0
    5.0259  -17.0113   22.2973 O   0  0  0  0  0  0  0  0  0  0  0  0
    7.2322  -17.4127   22.7239 N   0  0  0  0  0  0  0  0  0  0  0  0
    7.0351  -17.4518   24.1928 C   0  0  1  0  0  0  0  0  0  0  0  0
    7.4416  -18.8446   24.5857 C   0  0  0  0  0  0  0  0  0  0  0  0
    7.3195  -19.0650   26.0566 C   0  0  0  0  0  0  0  0  0  0  0  0
    7.8690  -20.4544   26.4063 C   0  0  0  0  0  0  0  0  0  0  0  0
    7.7030  -20.6046   27.9037 C   0  0  0  0  0  0  0  0  0  0  0  0
    8.2908  -21.8431   28.3813 N   0  0  0  0  0  0  0  0  0  0  0  0
    7.9697  -16.4734   24.8312 C   0  0  0  0  0  0  0  0  0  0  0  0
    9.1559  -16.4179   24.4247 O   0  0  0  0  0  0  0  0  0  0  0  0
    6.0960  -11.5960   26.4600 C   0  0  0  0  0  0  0  0  0  0  0  0
    6.9966  -12.6796   25.9185 C   0  0  0  0  0  0  0  0  0  0  0  0
    7.6974  -13.4232   27.0422 C   0  0  2  0  0  0  0  0  0  0  0  0
    8.7664  -12.4808   27.5639 C   0  0  0  0  0  0  0  0  0  0  0  0
    8.3762  -14.6825   26.5779 C   0  0  2  0  0  0  0  0  0  0  0  0
    7.5771  -15.6129   25.8678 N   0  0  0  0  0  0  0  0  0  0  0  0
    9.1740  -15.2739   27.6557 C   0  0  0  0  0  0  0  0  0  0  0  0
    9.0238  -16.5141   28.2220 O   0  0  0  0  0  0  0  0  0  0  0  0
   10.1183  -14.5030   28.0968 O   0  0  0  0  0  0  0  0  0  0  0  0
  2  1  1  6
  3  4  1  0
  3  2  1  0
  4  5  2  0
  5  6  1  0
  7  6  2  0
  8  7  1  0
  9  4  1  0
  9  8  2  0
 10  2  1  0
 10 11  2  0
 12 10  1  0
 13 12  1  0
 13 14  1  1
 15 14  1  0
 15 16  1  0
 17 16  1  0
 17 18  1  0
 19 13  1  0
 20 19  2  0
 21 22  1  0
 22 23  1  0
 23 24  1  6
 25 23  1  0
 25 26  1  1
 26 19  1  0
 27 28  1  0
 27 25  1  0
 29 27  2  0
M  END
$$$$
