FKI.pdb
     RDKit          3D

 29 29  0  0  1  0  0  0  0  0999 V2000
    5.6897  -18.4618   24.6135 N   0  0  0  0  0  0  0  0  0  0  0  0
    6.3939  -17.1964   24.5237 C   0  0  1  0  0  0  0  0  0  0  0  0
    6.0702  -16.4402   25.8149 C   0  0  0  0  0  0  0  0  0  0  0  0
    6.4006  -15.0056   25.5720 C   0  0  0  0  0  0  0  0  0  0  0  0
    6.2507  -14.4171   24.3245 C   0  0  0  0  0  0  0  0  0  0  0  0
    6.5594  -13.0854   24.1070 C   0  0  0  0  0  0  0  0  0  0  0  0
    7.0318  -12.2932   25.1396 C   0  0  0  0  0  0  0  0  0  0  0  0
    7.1763  -12.8895   26.3743 C   0  0  0  0  0  0  0  0  0  0  0  0
    6.8699  -14.2161   26.5950 C   0  0  0  0  0  0  0  0  0  0  0  0
    7.8545  -17.4146   24.4388 C   0  0  0  0  0  0  0  0  0  0  0  0
    8.4210  -18.2471   25.1623 O   0  0  0  0  0  0  0  0  0  0  0  0
    8.6254  -16.6701   23.5246 N   0  0  0  0  0  0  0  0  0  0  0  0
   10.0547  -16.9757   23.2763 C   0  0  1  0  0  0  0  0  0  0  0  0
   10.3331  -16.3801   21.9246 C   0  0  0  0  0  0  0  0  0  0  0  0
    9.9051  -17.2864   20.8191 C   0  0  0  0  0  0  0  0  0  0  0  0
   10.8315  -17.0839   19.6127 C   0  0  0  0  0  0  0  0  0  0  0  0
   10.2591  -17.9349   18.4989 C   0  0  0  0  0  0  0  0  0  0  0  0
   11.0924  -17.8849   17.3111 N   0  0  0  0  0  0  0  0  0  0  0  0
   10.8843  -16.2678   24.3006 C   0  0  0  0  0  0  0  0  0  0  0  0
   11.4826  -15.2150   23.9703 O   0  0  0  0  0  0  0  0  0  0  0  0
    9.7012  -14.6422   29.4470 C   0  0  0  0  0  0  0  0  0  0  0  0
   10.0556  -15.6298   28.3618 C   0  0  0  0  0  0  0  0  0  0  0  0
   11.1941  -15.1128   27.4997 C   0  0  2  0  0  0  0  0  0  0  0  0
   10.5795  -14.0835   26.5691 C   0  0  0  0  0  0  0  0  0  0  0  0
   11.8226  -16.1857   26.6535 C   0  0  2  0  0  0  0  0  0  0  0  0
   11.0234  -16.7308   25.6179 N   0  0  0  0  0  0  0  0  0  0  0  0
   12.4887  -17.1878   27.4902 C   0  0  0  0  0  0  0  0  0  0  0  0
   12.2406  -18.5360   27.5360 O   0  0  0  0  0  0  0  0  0  0  0  0
   13.4106  -16.7022   28.2616 O   0  0  0  0  0  0  0  0  0  0  0  0
  2  1  1  1
  3  4  1  0
  3  2  1  0
  4  5  2  0
  5  6  1  0
  7  6  2  0
  8  7  1  0
  9  4  1  0
  9  8  2  0
 10  2  1  0
 10 11  2  0
 12 10  1  0
 13 12  1  0
 13 14  1  6
 15 14  1  0
 15 16  1  0
 17 16  1  0
 17 18  1  0
 19 13  1  0
 20 19  2  0
 21 22  1  0
 22 23  1  0
 23 24  1  6
 25 23  1  0
 25 26  1  1
 26 19  1  0
 27 28  1  0
 27 25  1  0
 29 27  2  0
M  END
$$$$
