FKI.pdb
     RDKit          3D

 29 29  0  0  1  0  0  0  0  0999 V2000
    5.0425  -17.7150   25.3839 N   0  0  0  0  0  0  0  0  0  0  0  0
    5.8602  -16.5253   25.2369 C   0  0  1  0  0  0  0  0  0  0  0  0
    6.1540  -16.0365   26.6576 C   0  0  0  0  0  0  0  0  0  0  0  0
    6.4593  -14.5792   26.5606 C   0  0  0  0  0  0  0  0  0  0  0  0
    5.4615  -13.6154   26.5804 C   0  0  0  0  0  0  0  0  0  0  0  0
    5.7528  -12.2653   26.4899 C   0  0  0  0  0  0  0  0  0  0  0  0
    7.0630  -11.8325   26.3758 C   0  0  0  0  0  0  0  0  0  0  0  0
    8.0454  -12.7998   26.3572 C   0  0  0  0  0  0  0  0  0  0  0  0
    7.7592  -14.1461   26.4472 C   0  0  0  0  0  0  0  0  0  0  0  0
    7.1345  -16.8461   24.5577 C   0  0  0  0  0  0  0  0  0  0  0  0
    7.8430  -17.7900   24.9376 O   0  0  0  0  0  0  0  0  0  0  0  0
    7.5607  -16.0735   23.4596 N   0  0  0  0  0  0  0  0  0  0  0  0
    8.9097  -16.2352   22.8665 C   0  0  1  0  0  0  0  0  0  0  0  0
    8.8600  -15.4237   21.6023 C   0  0  0  0  0  0  0  0  0  0  0  0
   10.1210  -15.5457   20.8136 C   0  0  0  0  0  0  0  0  0  0  0  0
   10.4035  -17.0288   20.5392 C   0  0  0  0  0  0  0  0  0  0  0  0
   10.8279  -17.1119   19.0882 C   0  0  0  0  0  0  0  0  0  0  0  0
   12.2236  -17.4916   18.9645 N   0  0  0  0  0  0  0  0  0  0  0  0
    9.9191  -15.6331   23.7922 C   0  0  0  0  0  0  0  0  0  0  0  0
   10.2040  -14.4171   23.6667 O   0  0  0  0  0  0  0  0  0  0  0  0
    9.5538  -13.5309   28.1435 C   0  0  0  0  0  0  0  0  0  0  0  0
   10.1994  -14.0047   26.8640 C   0  0  0  0  0  0  0  0  0  0  0  0
   10.8590  -15.3600   27.0512 C   0  0  2  0  0  0  0  0  0  0  0  0
   11.9807  -15.1443   28.0504 C   0  0  0  0  0  0  0  0  0  0  0  0
   11.4644  -15.8974   25.7837 C   0  0  2  0  0  0  0  0  0  0  0  0
   10.5634  -16.3705   24.7974 N   0  0  0  0  0  0  0  0  0  0  0  0
   12.5681  -16.8149   26.0799 C   0  0  0  0  0  0  0  0  0  0  0  0
   13.8314  -16.4921   26.5057 O   0  0  0  0  0  0  0  0  0  0  0  0
   12.2753  -18.0657   25.9053 O   0  0  0  0  0  0  0  0  0  0  0  0
  2  1  1  1
  3  4  1  0
  3  2  1  0
  4  5  2  0
  5  6  1  0
  7  6  2  0
  8  7  1  0
  9  4  1  0
  9  8  2  0
 10  2  1  0
 10 11  2  0
 12 10  1  0
 13 12  1  0
 13 14  1  6
 15 14  1  0
 15 16  1  0
 17 16  1  0
 17 18  1  0
 19 13  1  0
 20 19  2  0
 21 22  1  0
 22 23  1  0
 23 24  1  1
 25 23  1  0
 25 26  1  1
 26 19  1  0
 27 28  1  0
 27 25  1  0
 29 27  2  0
M  END
$$$$
