FKI.pdb
     RDKit          3D

 29 29  0  0  1  0  0  0  0  0999 V2000
    5.5563  -18.2255   25.2403 N   0  0  0  0  0  0  0  0  0  0  0  0
    5.8891  -16.8145   25.1797 C   0  0  1  0  0  0  0  0  0  0  0  0
    6.1968  -16.3908   26.6183 C   0  0  0  0  0  0  0  0  0  0  0  0
    6.2430  -14.8995   26.6310 C   0  0  0  0  0  0  0  0  0  0  0  0
    5.0936  -14.1270   26.5474 C   0  0  0  0  0  0  0  0  0  0  0  0
    5.1446  -12.7438   26.5598 C   0  0  0  0  0  0  0  0  0  0  0  0
    6.3578  -12.0837   26.6570 C   0  0  0  0  0  0  0  0  0  0  0  0
    7.4927  -12.8624   26.7394 C   0  0  0  0  0  0  0  0  0  0  0  0
    7.4459  -14.2409   26.7274 C   0  0  0  0  0  0  0  0  0  0  0  0
    7.0863  -16.5942   24.3392 C   0  0  0  0  0  0  0  0  0  0  0  0
    8.0954  -17.3040   24.4632 O   0  0  0  0  0  0  0  0  0  0  0  0
    7.0919  -15.5641   23.3785 N   0  0  0  0  0  0  0  0  0  0  0  0
    8.2643  -15.3153   22.5058 C   0  0  1  0  0  0  0  0  0  0  0  0
    7.8815  -14.1020   21.7055 C   0  0  0  0  0  0  0  0  0  0  0  0
    8.9198  -13.7549   20.6914 C   0  0  0  0  0  0  0  0  0  0  0  0
    8.3269  -13.9175   19.2854 C   0  0  0  0  0  0  0  0  0  0  0  0
    9.4637  -13.6572   18.3199 C   0  0  0  0  0  0  0  0  0  0  0  0
    9.0271  -13.7798   16.9407 N   0  0  0  0  0  0  0  0  0  0  0  0
    9.4426  -14.9802   23.3647 C   0  0  0  0  0  0  0  0  0  0  0  0
    9.7738  -13.7763   23.4925 O   0  0  0  0  0  0  0  0  0  0  0  0
   10.1069  -13.9361   28.1041 C   0  0  0  0  0  0  0  0  0  0  0  0
   10.3867  -14.1412   26.6351 C   0  0  0  0  0  0  0  0  0  0  0  0
   10.9406  -15.5304   26.3705 C   0  0  2  0  0  0  0  0  0  0  0  0
   12.2233  -15.6291   27.1755 C   0  0  0  0  0  0  0  0  0  0  0  0
   11.2825  -15.7596   24.9239 C   0  0  2  0  0  0  0  0  0  0  0  0
   10.1960  -15.9558   24.0354 N   0  0  0  0  0  0  0  0  0  0  0  0
   12.3547  -16.7497   24.7910 C   0  0  0  0  0  0  0  0  0  0  0  0
   13.6680  -16.6137   25.1625 O   0  0  0  0  0  0  0  0  0  0  0  0
   11.9765  -17.8678   24.2548 O   0  0  0  0  0  0  0  0  0  0  0  0
  2  1  1  1
  3  4  1  0
  3  2  1  0
  4  5  2  0
  5  6  1  0
  7  6  2  0
  8  7  1  0
  9  4  1  0
  9  8  2  0
 10  2  1  0
 10 11  2  0
 12 10  1  0
 13 12  1  0
 13 14  1  6
 15 14  1  0
 15 16  1  0
 17 16  1  0
 17 18  1  0
 19 13  1  0
 20 19  2  0
 21 22  1  0
 22 23  1  0
 23 24  1  1
 25 23  1  0
 25 26  1  6
 26 19  1  0
 27 28  1  0
 27 25  1  0
 29 27  2  0
M  END
$$$$
