FKI.pdb
     RDKit          3D

 29 29  0  0  1  0  0  0  0  0999 V2000
    5.5841  -18.2090   25.6995 N   0  0  0  0  0  0  0  0  0  0  0  0
    5.9577  -16.8270   25.4630 C   0  0  1  0  0  0  0  0  0  0  0  0
    6.2438  -16.2250   26.8413 C   0  0  0  0  0  0  0  0  0  0  0  0
    6.2275  -14.7419   26.6788 C   0  0  0  0  0  0  0  0  0  0  0  0
    5.0432  -14.0240   26.5938 C   0  0  0  0  0  0  0  0  0  0  0  0
    5.0363  -12.6481   26.4432 C   0  0  0  0  0  0  0  0  0  0  0  0
    6.2242  -11.9403   26.3721 C   0  0  0  0  0  0  0  0  0  0  0  0
    7.3940  -12.6650   26.4577 C   0  0  0  0  0  0  0  0  0  0  0  0
    7.4051  -14.0361   26.6079 C   0  0  0  0  0  0  0  0  0  0  0  0
    7.1797  -16.7493   24.6331 C   0  0  0  0  0  0  0  0  0  0  0  0
    8.1308  -17.5227   24.8193 O   0  0  0  0  0  0  0  0  0  0  0  0
    7.2762  -15.7847   23.6110 N   0  0  0  0  0  0  0  0  0  0  0  0
    8.4164  -15.7607   22.6638 C   0  0  1  0  0  0  0  0  0  0  0  0
    8.0414  -14.7096   21.6568 C   0  0  0  0  0  0  0  0  0  0  0  0
    9.0239  -14.6383   20.5359 C   0  0  0  0  0  0  0  0  0  0  0  0
    8.5251  -13.6319   19.4904 C   0  0  0  0  0  0  0  0  0  0  0  0
    9.4569  -13.7651   18.3045 C   0  0  0  0  0  0  0  0  0  0  0  0
    9.0479  -12.9046   17.2090 N   0  0  0  0  0  0  0  0  0  0  0  0
    9.6431  -15.3172   23.3967 C   0  0  0  0  0  0  0  0  0  0  0  0
   10.1834  -14.2327   23.0689 O   0  0  0  0  0  0  0  0  0  0  0  0
   10.2304  -15.3875   28.8317 C   0  0  0  0  0  0  0  0  0  0  0  0
   10.3358  -16.0030   27.4575 C   0  0  0  0  0  0  0  0  0  0  0  0
   11.1881  -15.1473   26.5367 C   0  0  2  0  0  0  0  0  0  0  0  0
   10.4273  -13.8473   26.3513 C   0  0  0  0  0  0  0  0  0  0  0  0
   11.3874  -15.7651   25.1800 C   0  0  2  0  0  0  0  0  0  0  0  0
   10.2179  -16.0630   24.4371 N   0  0  0  0  0  0  0  0  0  0  0  0
   12.3560  -16.8631   25.2431 C   0  0  0  0  0  0  0  0  0  0  0  0
   12.1868  -18.1522   24.8063 O   0  0  0  0  0  0  0  0  0  0  0  0
   13.4890  -16.5366   25.7820 O   0  0  0  0  0  0  0  0  0  0  0  0
  2  1  1  1
  3  4  1  0
  3  2  1  0
  4  5  2  0
  5  6  1  0
  7  6  2  0
  8  7  1  0
  9  4  1  0
  9  8  2  0
 10  2  1  0
 10 11  2  0
 12 10  1  0
 13 12  1  0
 13 14  1  6
 15 14  1  0
 15 16  1  0
 17 16  1  0
 17 18  1  0
 19 13  1  0
 20 19  2  0
 21 22  1  0
 22 23  1  0
 23 24  1  6
 25 23  1  0
 25 26  1  1
 26 19  1  0
 27 28  1  0
 27 25  1  0
 29 27  2  0
M  END
$$$$
