FKI.pdb
     RDKit          3D

 29 29  0  0  1  0  0  0  0  0999 V2000
    5.3876  -17.7971   23.5682 N   0  0  0  0  0  0  0  0  0  0  0  0
    6.3485  -16.7692   23.9225 C   0  0  1  0  0  0  0  0  0  0  0  0
    5.8495  -16.1585   25.2347 C   0  0  0  0  0  0  0  0  0  0  0  0
    6.4395  -14.7913   25.3290 C   0  0  0  0  0  0  0  0  0  0  0  0
    7.2729  -14.2801   24.3445 C   0  0  0  0  0  0  0  0  0  0  0  0
    7.8164  -13.0106   24.4391 C   0  0  0  0  0  0  0  0  0  0  0  0
    7.5412  -12.2052   25.5312 C   0  0  0  0  0  0  0  0  0  0  0  0
    6.7119  -12.7245   26.5026 C   0  0  0  0  0  0  0  0  0  0  0  0
    6.1684  -13.9890   26.4119 C   0  0  0  0  0  0  0  0  0  0  0  0
    7.6892  -17.3567   24.1361 C   0  0  0  0  0  0  0  0  0  0  0  0
    7.8693  -18.2545   24.9721 O   0  0  0  0  0  0  0  0  0  0  0  0
    8.7873  -16.8968   23.3833 N   0  0  0  0  0  0  0  0  0  0  0  0
   10.1640  -17.3898   23.6273 C   0  0  1  0  0  0  0  0  0  0  0  0
   10.8965  -17.0964   22.3480 C   0  0  0  0  0  0  0  0  0  0  0  0
   12.3277  -17.5128   22.4190 C   0  0  0  0  0  0  0  0  0  0  0  0
   13.0124  -17.1972   21.0825 C   0  0  0  0  0  0  0  0  0  0  0  0
   14.3937  -17.8116   21.1653 C   0  0  0  0  0  0  0  0  0  0  0  0
   15.1879  -17.4921   19.9928 N   0  0  0  0  0  0  0  0  0  0  0  0
   10.7747  -16.5879   24.7329 C   0  0  0  0  0  0  0  0  0  0  0  0
   11.5139  -15.6173   24.4378 O   0  0  0  0  0  0  0  0  0  0  0  0
    9.6555  -12.6946   27.4257 C   0  0  0  0  0  0  0  0  0  0  0  0
   10.5708  -13.7964   26.9497 C   0  0  0  0  0  0  0  0  0  0  0  0
   10.3908  -15.0561   27.7789 C   0  0  2  0  0  0  0  0  0  0  0  0
   10.9739  -14.7440   29.1448 C   0  0  0  0  0  0  0  0  0  0  0  0
   11.1320  -16.2383   27.2176 C   0  0  2  0  0  0  0  0  0  0  0  0
   10.5569  -16.8743   26.0893 N   0  0  0  0  0  0  0  0  0  0  0  0
   11.5352  -17.1573   28.2857 C   0  0  0  0  0  0  0  0  0  0  0  0
   12.6009  -17.0293   29.1396 O   0  0  0  0  0  0  0  0  0  0  0  0
   10.7712  -18.1982   28.4020 O   0  0  0  0  0  0  0  0  0  0  0  0
  2  1  1  1
  3  4  1  0
  3  2  1  0
  4  5  2  0
  5  6  1  0
  7  6  2  0
  8  7  1  0
  9  4  1  0
  9  8  2  0
 10  2  1  0
 10 11  2  0
 12 10  1  0
 13 12  1  0
 13 14  1  6
 15 14  1  0
 15 16  1  0
 17 16  1  0
 17 18  1  0
 19 13  1  0
 20 19  2  0
 21 22  1  0
 22 23  1  0
 23 24  1  1
 25 23  1  0
 25 26  1  6
 26 19  1  0
 27 28  1  0
 27 25  1  0
 29 27  2  0
M  END
$$$$
