WIH.pdb
     RDKit          3D

 33 35  0  0  1  0  0  0  0  0999 V2000
   28.6432  -20.6422   -9.9216 N   0  0  0  0  0  0  0  0  0  0  0  0
   27.2163  -20.7952   -9.7386 C   0  0  1  0  0  0  0  0  0  0  0  0
   26.6490  -19.9241   -8.6521 C   0  0  0  0  0  0  0  0  0  0  0  0
   27.6525  -19.5078   -7.6546 C   0  0  0  0  0  0  0  0  0  0  0  0
   28.6695  -18.6031   -7.7247 C   0  0  0  0  0  0  0  0  0  0  0  0
   29.3344  -18.5571   -6.5589 N   0  0  0  0  0  0  0  0  0  0  0  0
   28.7480  -19.4373   -5.7219 C   0  0  0  0  0  0  0  0  0  0  0  0
   29.0056  -19.8008   -4.4171 C   0  0  0  0  0  0  0  0  0  0  0  0
   28.2579  -20.7401   -3.7501 C   0  0  0  0  0  0  0  0  0  0  0  0
   27.2045  -21.3508   -4.4027 C   0  0  0  0  0  0  0  0  0  0  0  0
   26.9490  -20.9835   -5.7124 C   0  0  0  0  0  0  0  0  0  0  0  0
   27.6982  -20.0412   -6.3825 C   0  0  0  0  0  0  0  0  0  0  0  0
   26.4750  -20.6662  -11.0143 C   0  0  0  0  0  0  0  0  0  0  0  0
   26.7305  -19.7162  -11.7916 O   0  0  0  0  0  0  0  0  0  0  0  0
   23.9697  -24.0215  -15.4541 C   0  0  0  0  0  0  0  0  0  0  0  0
   23.9591  -22.6953  -14.7040 C   0  0  0  0  0  0  0  0  0  0  0  0
   24.7230  -22.7675  -13.4258 C   0  0  2  0  0  0  0  0  0  0  0  0
   24.2320  -23.8676  -12.5122 C   0  0  0  0  0  0  0  0  0  0  0  0
   24.7218  -21.4621  -12.6678 C   0  0  2  0  0  0  0  0  0  0  0  0
   25.4664  -21.5806  -11.4158 N   0  0  0  0  0  0  0  0  0  0  0  0
   23.3692  -20.9059  -12.4771 C   0  0  0  0  0  0  0  0  0  0  0  0
   22.6860  -21.2916  -11.5066 O   0  0  0  0  0  0  0  0  0  0  0  0
   22.8496  -19.9558  -13.3747 N   0  0  0  0  0  0  0  0  0  0  0  0
   21.5376  -19.2893  -13.1977 C   0  0  1  0  0  0  0  0  0  0  0  0
   21.5217  -18.0635  -14.0630 C   0  0  0  0  0  0  0  0  0  0  0  0
   20.3134  -17.2447  -13.9220 C   0  0  0  0  0  0  0  0  0  0  0  0
   19.2888  -17.5482  -12.9988 C   0  0  0  0  0  0  0  0  0  0  0  0
   18.3411  -16.6090  -13.1291 N   0  0  0  0  0  0  0  0  0  0  0  0
   18.6950  -15.7260  -14.0758 C   0  0  0  0  0  0  0  0  0  0  0  0
   19.8857  -16.1394  -14.5305 N   0  0  0  0  0  0  0  0  0  0  0  0
   20.4737  -20.2483  -13.5215 C   0  0  0  0  0  0  0  0  0  0  0  0
   20.5706  -21.0189  -14.4908 O   0  0  0  0  0  0  0  0  0  0  0  0
   19.2967  -20.3471  -12.7619 O   0  0  0  0  0  0  0  0  0  0  0  0
  2  1  1  6
  2  3  1  0
  3  4  1  0
  4  5  2  0
  5  6  1  0
  7  6  1  0
  8  7  2  0
  9  8  1  0
 10 11  1  0
 10  9  2  0
 11 12  2  0
 12  4  1  0
 12  7  1  0
 13 20  1  0
 13  2  1  0
 14 13  2  0
 16 15  1  0
 17 19  1  0
 17 16  1  0
 17 18  1  1
 19 20  1  1
 21 19  1  0
 22 21  2  0
 23 21  1  0
 24 25  1  6
 24 23  1  0
 25 26  1  0
 26 27  2  0
 26 30  1  0
 27 28  1  0
 28 29  1  0
 30 29  2  0
 31 24  1  0
 32 31  2  0
 33 31  1  0
M  END
$$$$
