WIH.pdb
     RDKit          3D

 33 35  0  0  1  0  0  0  0  0999 V2000
   28.0465  -21.9340  -10.5284 N   0  0  0  0  0  0  0  0  0  0  0  0
   26.8686  -21.2338  -10.0643 C   0  0  1  0  0  0  0  0  0  0  0  0
   27.1580  -20.1856   -9.0257 C   0  0  0  0  0  0  0  0  0  0  0  0
   28.3261  -20.5053   -8.1839 C   0  0  0  0  0  0  0  0  0  0  0  0
   29.5169  -21.0963   -8.4843 C   0  0  0  0  0  0  0  0  0  0  0  0
   30.2841  -21.1850   -7.3857 N   0  0  0  0  0  0  0  0  0  0  0  0
   29.5900  -20.6485   -6.3612 C   0  0  0  0  0  0  0  0  0  0  0  0
   29.8814  -20.4723   -5.0251 C   0  0  0  0  0  0  0  0  0  0  0  0
   29.0024  -19.8856   -4.1480 C   0  0  0  0  0  0  0  0  0  0  0  0
   27.7757  -19.4517   -4.6119 C   0  0  0  0  0  0  0  0  0  0  0  0
   27.4865  -19.6304   -5.9536 C   0  0  0  0  0  0  0  0  0  0  0  0
   28.3676  -20.2186   -6.8345 C   0  0  0  0  0  0  0  0  0  0  0  0
   26.0541  -20.7117  -11.1857 C   0  0  0  0  0  0  0  0  0  0  0  0
   26.3311  -19.5993  -11.6936 O   0  0  0  0  0  0  0  0  0  0  0  0
   25.6020  -23.5409  -15.4459 C   0  0  0  0  0  0  0  0  0  0  0  0
   25.6076  -22.4209  -14.4129 C   0  0  0  0  0  0  0  0  0  0  0  0
   24.2296  -22.0433  -13.9873 C   0  0  2  0  0  0  0  0  0  0  0  0
   23.3643  -21.5903  -15.1415 C   0  0  0  0  0  0  0  0  0  0  0  0
   24.2178  -20.9788  -12.9171 C   0  0  2  0  0  0  0  0  0  0  0  0
   24.9501  -21.4177  -11.7309 N   0  0  0  0  0  0  0  0  0  0  0  0
   22.8620  -20.4906  -12.6027 C   0  0  0  0  0  0  0  0  0  0  0  0
   22.1603  -21.1288  -11.7918 O   0  0  0  0  0  0  0  0  0  0  0  0
   22.3600  -19.3239  -13.2072 N   0  0  0  0  0  0  0  0  0  0  0  0
   21.0017  -18.7869  -12.9552 C   0  0  1  0  0  0  0  0  0  0  0  0
   20.9674  -17.3690  -13.4452 C   0  0  0  0  0  0  0  0  0  0  0  0
   19.6413  -16.7457  -13.3876 C   0  0  0  0  0  0  0  0  0  0  0  0
   19.0415  -16.3374  -12.1760 C   0  0  0  0  0  0  0  0  0  0  0  0
   17.8449  -15.8140  -12.4779 N   0  0  0  0  0  0  0  0  0  0  0  0
   17.6426  -15.8620  -13.8038 C   0  0  0  0  0  0  0  0  0  0  0  0
   18.7427  -16.4280  -14.3183 N   0  0  0  0  0  0  0  0  0  0  0  0
   20.0201  -19.6579  -13.6141 C   0  0  0  0  0  0  0  0  0  0  0  0
   20.2780  -20.2269  -14.6876 O   0  0  0  0  0  0  0  0  0  0  0  0
   18.7455  -19.8941  -13.0739 O   0  0  0  0  0  0  0  0  0  0  0  0
  2  1  1  6
  2  3  1  0
  3  4  1  0
  4  5  2  0
  5  6  1  0
  7  6  1  0
  8  7  2  0
  9  8  1  0
 10 11  1  0
 10  9  2  0
 11 12  2  0
 12  4  1  0
 12  7  1  0
 13 20  1  0
 13  2  1  0
 14 13  2  0
 16 15  1  0
 17 19  1  0
 17 16  1  0
 17 18  1  6
 19 20  1  1
 21 19  1  0
 22 21  2  0
 23 21  1  0
 24 25  1  6
 24 23  1  0
 25 26  1  0
 26 27  2  0
 26 30  1  0
 27 28  1  0
 28 29  1  0
 30 29  2  0
 31 24  1  0
 32 31  2  0
 33 31  1  0
M  END
$$$$
