WIH.pdb
     RDKit          3D

 33 35  0  0  1  0  0  0  0  0999 V2000
   27.6079  -20.2486  -16.4003 N   0  0  0  0  0  0  0  0  0  0  0  0
   26.5732  -19.5698  -15.6508 C   0  0  1  0  0  0  0  0  0  0  0  0
   25.6552  -18.7386  -16.5036 C   0  0  0  0  0  0  0  0  0  0  0  0
   26.3498  -17.6552  -17.2240 C   0  0  0  0  0  0  0  0  0  0  0  0
   26.5513  -17.4447  -18.5555 C   0  0  0  0  0  0  0  0  0  0  0  0
   27.2489  -16.3137  -18.7489 N   0  0  0  0  0  0  0  0  0  0  0  0
   27.5047  -15.7820  -17.5361 C   0  0  0  0  0  0  0  0  0  0  0  0
   28.1718  -14.6434  -17.1362 C   0  0  0  0  0  0  0  0  0  0  0  0
   28.3092  -14.2926  -15.8155 C   0  0  0  0  0  0  0  0  0  0  0  0
   27.7619  -15.1053  -14.8416 C   0  0  0  0  0  0  0  0  0  0  0  0
   27.0932  -16.2473  -15.2467 C   0  0  0  0  0  0  0  0  0  0  0  0
   26.9545  -16.6002  -16.5713 C   0  0  0  0  0  0  0  0  0  0  0  0
   25.8366  -20.4936  -14.7578 C   0  0  0  0  0  0  0  0  0  0  0  0
   25.4031  -21.5816  -15.2052 O   0  0  0  0  0  0  0  0  0  0  0  0
   26.3319  -20.8184   -9.2047 C   0  0  0  0  0  0  0  0  0  0  0  0
   26.0907  -21.1130  -10.6800 C   0  0  0  0  0  0  0  0  0  0  0  0
   24.7469  -20.6518  -11.1318 C   0  0  2  0  0  0  0  0  0  0  0  0
   23.6168  -21.3128  -10.3754 C   0  0  0  0  0  0  0  0  0  0  0  0
   24.5274  -20.8471  -12.6124 C   0  0  2  0  0  0  0  0  0  0  0  0
   25.5877  -20.2086  -13.3897 N   0  0  0  0  0  0  0  0  0  0  0  0
   23.1775  -20.4495  -13.0539 C   0  0  0  0  0  0  0  0  0  0  0  0
   23.0615  -19.6049  -13.9652 O   0  0  0  0  0  0  0  0  0  0  0  0
   22.0326  -21.0087  -12.4581 N   0  0  0  0  0  0  0  0  0  0  0  0
   20.7056  -21.0603  -13.1162 C   0  0  1  0  0  0  0  0  0  0  0  0
   20.8679  -21.7708  -14.4279 C   0  0  0  0  0  0  0  0  0  0  0  0
   20.9638  -20.8773  -15.5868 C   0  0  0  0  0  0  0  0  0  0  0  0
   22.1293  -20.1386  -15.8870 C   0  0  0  0  0  0  0  0  0  0  0  0
   21.8804  -19.4318  -16.9985 N   0  0  0  0  0  0  0  0  0  0  0  0
   20.6313  -19.6720  -17.4267 C   0  0  0  0  0  0  0  0  0  0  0  0
   20.1103  -20.5452  -16.5542 N   0  0  0  0  0  0  0  0  0  0  0  0
   19.7543  -21.7154  -12.2094 C   0  0  0  0  0  0  0  0  0  0  0  0
   20.1370  -22.5082  -11.3332 O   0  0  0  0  0  0  0  0  0  0  0  0
   18.3706  -21.4861  -12.2812 O   0  0  0  0  0  0  0  0  0  0  0  0
  2  1  1  6
  2  3  1  0
  3  4  1  0
  4  5  2  0
  5  6  1  0
  7  6  1  0
  8  7  2  0
  9  8  1  0
 10 11  1  0
 10  9  2  0
 11 12  2  0
 12  4  1  0
 12  7  1  0
 13 20  1  0
 13  2  1  0
 14 13  2  0
 16 15  1  0
 17 19  1  0
 17 16  1  0
 17 18  1  1
 19 20  1  6
 21 19  1  0
 22 21  2  0
 23 21  1  0
 24 25  1  6
 24 23  1  0
 25 26  1  0
 26 27  2  0
 26 30  1  0
 27 28  1  0
 28 29  1  0
 30 29  2  0
 31 24  1  0
 32 31  2  0
 33 31  1  0
M  END
$$$$
