WIH.pdb
     RDKit          3D

 33 35  0  0  1  0  0  0  0  0999 V2000
   23.9953   -6.4122  -18.5662 N   0  0  0  0  0  0  0  0  0  0  0  0
   23.0954   -6.9856  -17.5893 C   0  0  1  0  0  0  0  0  0  0  0  0
   21.7421   -6.3311  -17.5558 C   0  0  0  0  0  0  0  0  0  0  0  0
   21.7704   -4.9603  -17.0122 C   0  0  0  0  0  0  0  0  0  0  0  0
   21.6941   -3.7465  -17.6274 C   0  0  0  0  0  0  0  0  0  0  0  0
   21.7653   -2.7584  -16.7209 N   0  0  0  0  0  0  0  0  0  0  0  0
   21.8888   -3.3304  -15.5056 C   0  0  0  0  0  0  0  0  0  0  0  0
   21.9995   -2.8093  -14.2339 C   0  0  0  0  0  0  0  0  0  0  0  0
   22.1147   -3.6015  -13.1180 C   0  0  0  0  0  0  0  0  0  0  0  0
   22.1214   -4.9751  -13.2640 C   0  0  0  0  0  0  0  0  0  0  0  0
   22.0103   -5.4947  -14.5420 C   0  0  0  0  0  0  0  0  0  0  0  0
   21.8944   -4.7010  -15.6623 C   0  0  0  0  0  0  0  0  0  0  0  0
   23.0099   -8.4594  -17.7096 C   0  0  0  0  0  0  0  0  0  0  0  0
   22.9253   -8.9894  -18.8426 O   0  0  0  0  0  0  0  0  0  0  0  0
   26.3264  -11.6868  -15.2182 C   0  0  0  0  0  0  0  0  0  0  0  0
   25.3094  -11.0985  -16.1884 C   0  0  0  0  0  0  0  0  0  0  0  0
   23.9121  -11.4810  -15.8367 C   0  0  2  0  0  0  0  0  0  0  0  0
   23.6774  -12.9728  -15.9119 C   0  0  0  0  0  0  0  0  0  0  0  0
   22.8807  -10.7780  -16.6857 C   0  0  2  0  0  0  0  0  0  0  0  0
   23.0186   -9.3265  -16.5859 N   0  0  0  0  0  0  0  0  0  0  0  0
   21.5047  -11.2400  -16.4240 C   0  0  0  0  0  0  0  0  0  0  0  0
   21.0521  -11.1711  -15.2631 O   0  0  0  0  0  0  0  0  0  0  0  0
   20.7095  -11.7548  -17.4637 N   0  0  0  0  0  0  0  0  0  0  0  0
   19.2915  -12.1518  -17.2945 C   0  0  1  0  0  0  0  0  0  0  0  0
   18.6114  -12.0143  -18.6250 C   0  0  0  0  0  0  0  0  0  0  0  0
   17.2099  -12.4459  -18.6304 C   0  0  0  0  0  0  0  0  0  0  0  0
   16.1860  -11.7072  -19.2630 C   0  0  0  0  0  0  0  0  0  0  0  0
   15.0381  -12.3747  -19.0787 N   0  0  0  0  0  0  0  0  0  0  0  0
   15.2638  -13.4915  -18.3695 C   0  0  0  0  0  0  0  0  0  0  0  0
   16.5797  -13.5016  -18.1175 N   0  0  0  0  0  0  0  0  0  0  0  0
   19.2448  -13.5153  -16.7513 C   0  0  0  0  0  0  0  0  0  0  0  0
   18.3890  -13.8496  -15.9154 O   0  0  0  0  0  0  0  0  0  0  0  0
   20.1570  -14.5093  -17.1412 O   0  0  0  0  0  0  0  0  0  0  0  0
  2  1  1  6
  2  3  1  0
  3  4  1  0
  4  5  2  0
  5  6  1  0
  7  6  1  0
  8  7  2  0
  9  8  1  0
 10 11  1  0
 10  9  2  0
 11 12  2  0
 12  4  1  0
 12  7  1  0
 13 20  1  0
 13  2  1  0
 14 13  2  0
 16 15  1  0
 17 19  1  0
 17 16  1  0
 17 18  1  6
 19 20  1  1
 21 19  1  0
 22 21  2  0
 23 21  1  0
 24 25  1  6
 24 23  1  0
 25 26  1  0
 26 27  2  0
 26 30  1  0
 27 28  1  0
 28 29  1  0
 30 29  2  0
 31 24  1  0
 32 31  2  0
 33 31  1  0
M  END
$$$$
