WIH.pdb
     RDKit          3D

 33 35  0  0  1  0  0  0  0  0999 V2000
   25.5698  -21.3006  -13.3127 N   0  0  0  0  0  0  0  0  0  0  0  0
   25.2021  -20.3635  -12.2735 C   0  0  1  0  0  0  0  0  0  0  0  0
   23.9712  -19.5604  -12.5912 C   0  0  0  0  0  0  0  0  0  0  0  0
   24.0141  -18.9294  -13.9236 C   0  0  0  0  0  0  0  0  0  0  0  0
   23.0730  -18.8342  -14.9049 C   0  0  0  0  0  0  0  0  0  0  0  0
   23.5647  -18.1644  -15.9598 N   0  0  0  0  0  0  0  0  0  0  0  0
   24.8352  -17.8199  -15.6657 C   0  0  0  0  0  0  0  0  0  0  0  0
   25.8030  -17.1310  -16.3657 C   0  0  0  0  0  0  0  0  0  0  0  0
   27.0548  -16.8907  -15.8543 C   0  0  0  0  0  0  0  0  0  0  0  0
   27.3670  -17.3530  -14.5906 C   0  0  0  0  0  0  0  0  0  0  0  0
   26.3932  -18.0442  -13.8910 C   0  0  0  0  0  0  0  0  0  0  0  0
   25.1369  -18.2857  -14.4027 C   0  0  0  0  0  0  0  0  0  0  0  0
   25.1304  -21.0091  -10.9425 C   0  0  0  0  0  0  0  0  0  0  0  0
   25.0907  -22.2593  -10.8562 O   0  0  0  0  0  0  0  0  0  0  0  0
   28.0876  -18.8285   -6.9470 C   0  0  0  0  0  0  0  0  0  0  0  0
   27.3670  -19.8215   -7.8505 C   0  0  0  0  0  0  0  0  0  0  0  0
   25.9473  -20.0232   -7.4428 C   0  0  2  0  0  0  0  0  0  0  0  0
   25.8144  -20.5966   -6.0501 C   0  0  0  0  0  0  0  0  0  0  0  0
   25.1784  -20.8930   -8.4076 C   0  0  2  0  0  0  0  0  0  0  0  0
   25.1035  -20.2732   -9.7291 N   0  0  0  0  0  0  0  0  0  0  0  0
   23.8578  -21.2999   -7.8923 C   0  0  0  0  0  0  0  0  0  0  0  0
   23.7927  -21.9140   -6.8078 O   0  0  0  0  0  0  0  0  0  0  0  0
   22.6843  -21.0054   -8.6097 N   0  0  0  0  0  0  0  0  0  0  0  0
   21.3205  -21.3107   -8.1159 C   0  0  1  0  0  0  0  0  0  0  0  0
   20.6367  -22.1624   -9.1448 C   0  0  0  0  0  0  0  0  0  0  0  0
   20.4857  -21.5181  -10.4534 C   0  0  0  0  0  0  0  0  0  0  0  0
   20.9216  -20.1996  -10.7102 C   0  0  0  0  0  0  0  0  0  0  0  0
   20.6337  -19.9247  -11.9903 N   0  0  0  0  0  0  0  0  0  0  0  0
   20.0425  -20.9826  -12.5667 C   0  0  0  0  0  0  0  0  0  0  0  0
   19.9699  -21.9216  -11.6135 N   0  0  0  0  0  0  0  0  0  0  0  0
   21.4281  -21.9547   -6.8006 C   0  0  0  0  0  0  0  0  0  0  0  0
   22.2979  -22.8104   -6.5685 O   0  0  0  0  0  0  0  0  0  0  0  0
   20.5612  -21.6436   -5.7404 O   0  0  0  0  0  0  0  0  0  0  0  0
  2  1  1  6
  2  3  1  0
  3  4  1  0
  4  5  2  0
  5  6  1  0
  7  6  1  0
  8  7  2  0
  9  8  1  0
 10 11  1  0
 10  9  2  0
 11 12  2  0
 12  4  1  0
 12  7  1  0
 13 20  1  0
 13  2  1  0
 14 13  2  0
 16 15  1  0
 17 19  1  0
 17 16  1  0
 17 18  1  1
 19 20  1  6
 21 19  1  0
 22 21  2  0
 23 21  1  0
 24 25  1  6
 24 23  1  0
 25 26  1  0
 26 27  2  0
 26 30  1  0
 27 28  1  0
 28 29  1  0
 30 29  2  0
 31 24  1  0
 32 31  2  0
 33 31  1  0
M  END
$$$$
