WIH.pdb
     RDKit          3D

 33 35  0  0  1  0  0  0  0  0999 V2000
   27.0681  -20.3592  -16.9121 N   0  0  0  0  0  0  0  0  0  0  0  0
   26.7867  -19.7237  -15.6432 C   0  0  1  0  0  0  0  0  0  0  0  0
   26.1680  -18.3595  -15.7741 C   0  0  0  0  0  0  0  0  0  0  0  0
   26.9128  -17.4656  -16.6805 C   0  0  0  0  0  0  0  0  0  0  0  0
   26.4875  -16.6274  -17.6675 C   0  0  0  0  0  0  0  0  0  0  0  0
   27.5340  -16.0074  -18.2364 N   0  0  0  0  0  0  0  0  0  0  0  0
   28.6501  -16.4434  -17.6171 C   0  0  0  0  0  0  0  0  0  0  0  0
   29.9870  -16.1500  -17.7835 C   0  0  0  0  0  0  0  0  0  0  0  0
   30.9711  -16.7271  -17.0189 C   0  0  0  0  0  0  0  0  0  0  0  0
   30.6189  -17.6385  -16.0424 C   0  0  0  0  0  0  0  0  0  0  0  0
   29.2760  -17.9306  -15.8782 C   0  0  0  0  0  0  0  0  0  0  0  0
   28.2878  -17.3522  -16.6445 C   0  0  0  0  0  0  0  0  0  0  0  0
   26.0214  -20.6090  -14.7354 C   0  0  0  0  0  0  0  0  0  0  0  0
   25.3327  -21.5437  -15.2089 O   0  0  0  0  0  0  0  0  0  0  0  0
   26.1436  -20.2544   -8.8436 C   0  0  0  0  0  0  0  0  0  0  0  0
   25.6178  -20.0068  -10.2521 C   0  0  0  0  0  0  0  0  0  0  0  0
   25.5603  -21.2598  -11.0578 C   0  0  2  0  0  0  0  0  0  0  0  0
   26.9013  -21.9503  -11.1621 C   0  0  0  0  0  0  0  0  0  0  0  0
   25.0121  -21.0388  -12.4468 C   0  0  2  0  0  0  0  0  0  0  0  0
   26.0241  -20.4545  -13.3245 N   0  0  0  0  0  0  0  0  0  0  0  0
   23.7451  -20.2839  -12.4546 C   0  0  0  0  0  0  0  0  0  0  0  0
   23.7819  -19.0376  -12.5069 O   0  0  0  0  0  0  0  0  0  0  0  0
   22.5092  -20.9533  -12.4012 N   0  0  0  0  0  0  0  0  0  0  0  0
   21.2754  -20.4545  -13.0538 C   0  0  1  0  0  0  0  0  0  0  0  0
   21.5345  -20.3719  -14.5295 C   0  0  0  0  0  0  0  0  0  0  0  0
   20.3615  -19.9949  -15.3248 C   0  0  0  0  0  0  0  0  0  0  0  0
   19.0802  -19.8167  -14.7585 C   0  0  0  0  0  0  0  0  0  0  0  0
   18.2462  -19.4801  -15.7526 N   0  0  0  0  0  0  0  0  0  0  0  0
   18.9127  -19.4320  -16.9164 C   0  0  0  0  0  0  0  0  0  0  0  0
   20.1812  -19.7469  -16.6212 N   0  0  0  0  0  0  0  0  0  0  0  0
   20.1627  -21.3466  -12.7038 C   0  0  0  0  0  0  0  0  0  0  0  0
   20.3091  -22.5794  -12.6671 O   0  0  0  0  0  0  0  0  0  0  0  0
   18.8815  -20.8615  -12.3950 O   0  0  0  0  0  0  0  0  0  0  0  0
  2  1  1  6
  2  3  1  0
  3  4  1  0
  4  5  2  0
  5  6  1  0
  7  6  1  0
  8  7  2  0
  9  8  1  0
 10 11  1  0
 10  9  2  0
 11 12  2  0
 12  4  1  0
 12  7  1  0
 13 20  1  0
 13  2  1  0
 14 13  2  0
 16 15  1  0
 17 19  1  0
 17 16  1  0
 17 18  1  6
 19 20  1  6
 21 19  1  0
 22 21  2  0
 23 21  1  0
 24 25  1  6
 24 23  1  0
 25 26  1  0
 26 27  2  0
 26 30  1  0
 27 28  1  0
 28 29  1  0
 30 29  2  0
 31 24  1  0
 32 31  2  0
 33 31  1  0
M  END
$$$$
