CIE.pdb
     RDKit          3D

 24 23  0  0  1  0  0  0  0  0999 V2000
   24.9430  -12.3708  -21.2529 N   0  0  0  0  0  0  0  0  0  0  0  0
   24.7572  -10.9791  -20.8181 C   0  0  1  0  0  0  0  0  0  0  0  0
   23.7583  -10.3738  -21.7830 C   0  0  0  0  0  0  0  0  0  0  0  0
   24.6172  -10.2054  -23.3878 S   0  0  0  0  0  0  0  0  0  0  0  0
   24.2728  -10.9574  -19.4266 C   0  0  0  0  0  0  0  0  0  0  0  0
   23.5292  -11.8728  -19.0203 O   0  0  0  0  0  0  0  0  0  0  0  0
   27.3132  -11.3801  -15.5438 C   0  0  0  0  0  0  0  0  0  0  0  0
   26.0605  -11.4075  -16.4571 C   0  0  0  0  0  0  0  0  0  0  0  0
   25.4081  -10.0840  -16.2716 C   0  0  2  0  0  0  0  0  0  0  0  0
   25.1166   -9.7850  -14.8159 C   0  0  0  0  0  0  0  0  0  0  0  0
   24.1861   -9.8969  -17.1338 C   0  0  2  0  0  0  0  0  0  0  0  0
   24.6412   -9.9134  -18.5512 N   0  0  0  0  0  0  0  0  0  0  0  0
   23.5116   -8.6059  -16.9288 C   0  0  0  0  0  0  0  0  0  0  0  0
   24.1833   -7.5300  -17.0921 O   0  0  0  0  0  0  0  0  0  0  0  0
   22.1636   -8.3960  -16.5645 N   0  0  0  0  0  0  0  0  0  0  0  0
   21.5494   -7.1080  -16.4174 C   0  0  1  0  0  0  0  0  0  0  0  0
   20.2185   -6.9925  -17.0964 C   0  0  0  0  0  0  0  0  0  0  0  0
   19.6009   -5.6401  -17.0095 C   0  0  0  0  0  0  0  0  0  0  0  0
   18.3048   -5.6703  -17.7046 C   0  0  0  0  0  0  0  0  0  0  0  0
   18.2614   -5.8634  -18.9319 O   0  0  0  0  0  0  0  0  0  0  0  0
   21.3592   -6.7356  -14.9853 C   0  0  0  0  0  0  0  0  0  0  0  0
   21.2707   -5.3965  -14.6341 O   0  0  0  0  0  0  0  0  0  0  0  0
   17.1290   -5.4862  -17.0100 O   0  0  0  0  0  0  0  0  0  0  0  0
   21.2745   -7.6074  -14.0664 O   0  0  0  0  0  0  0  0  0  0  0  0
  2  1  1  6
  3  4  1  0
  3  2  1  0
  5  6  2  0
  5  2  1  0
  7  8  1  0
  8  9  1  0
  9 11  1  0
  9 10  1  1
 11 12  1  6
 11 13  1  0
 12  5  1  0
 13 15  1  0
 14 13  2  0
 15 16  1  0
 16 21  1  0
 16 17  1  6
 17 18  1  0
 19 18  1  0
 19 23  1  0
 20 19  2  0
 21 24  2  0
 21 22  1  0
M  END
$$$$
