CIE.pdb
     RDKit          3D

 24 23  0  0  1  0  0  0  0  0999 V2000
   26.1187  -12.3649  -17.5269 N   0  0  0  0  0  0  0  0  0  0  0  0
   25.8587  -11.3113  -16.5356 C   0  0  1  0  0  0  0  0  0  0  0  0
   27.0400  -10.3662  -16.6165 C   0  0  0  0  0  0  0  0  0  0  0  0
   28.4388  -11.2058  -15.7919 S   0  0  0  0  0  0  0  0  0  0  0  0
   24.5849  -10.6408  -16.8507 C   0  0  0  0  0  0  0  0  0  0  0  0
   24.2001  -10.5778  -18.0357 O   0  0  0  0  0  0  0  0  0  0  0  0
   20.0387  -12.2328  -15.7074 C   0  0  0  0  0  0  0  0  0  0  0  0
   21.1877  -11.4713  -16.4172 C   0  0  0  0  0  0  0  0  0  0  0  0
   21.4026  -10.2404  -15.6106 C   0  0  2  0  0  0  0  0  0  0  0  0
   20.1254   -9.4504  -15.4151 C   0  0  0  0  0  0  0  0  0  0  0  0
   22.5188   -9.3732  -16.1340 C   0  0  2  0  0  0  0  0  0  0  0  0
   23.7979  -10.0705  -15.8272 N   0  0  0  0  0  0  0  0  0  0  0  0
   22.5969   -8.0562  -15.4838 C   0  0  0  0  0  0  0  0  0  0  0  0
   22.7519   -8.0064  -14.2153 O   0  0  0  0  0  0  0  0  0  0  0  0
   22.5237   -6.7913  -16.1072 N   0  0  0  0  0  0  0  0  0  0  0  0
   22.4779   -5.5391  -15.4088 C   0  0  1  0  0  0  0  0  0  0  0  0
   22.5287   -4.3428  -16.3100 C   0  0  0  0  0  0  0  0  0  0  0  0
   22.5664   -3.0372  -15.5945 C   0  0  0  0  0  0  0  0  0  0  0  0
   22.3245   -1.9611  -16.5680 C   0  0  0  0  0  0  0  0  0  0  0  0
   21.3182   -1.2392  -16.4601 O   0  0  0  0  0  0  0  0  0  0  0  0
   21.2577   -5.4129  -14.5596 C   0  0  0  0  0  0  0  0  0  0  0  0
   21.3694   -4.8980  -13.2763 O   0  0  0  0  0  0  0  0  0  0  0  0
   23.2037   -1.7400  -17.6057 O   0  0  0  0  0  0  0  0  0  0  0  0
   20.1091   -5.7628  -14.9717 O   0  0  0  0  0  0  0  0  0  0  0  0
  2  1  1  6
  3  4  1  0
  3  2  1  0
  5  6  2  0
  5  2  1  0
  7  8  1  0
  8  9  1  0
  9 11  1  0
  9 10  1  6
 11 12  1  1
 11 13  1  0
 12  5  1  0
 13 15  1  0
 14 13  2  0
 15 16  1  0
 16 21  1  0
 16 17  1  6
 17 18  1  0
 19 18  1  0
 19 23  1  0
 20 19  2  0
 21 24  2  0
 21 22  1  0
M  END
$$$$
