CIE.pdb
     RDKit          3D

 24 23  0  0  1  0  0  0  0  0999 V2000
   20.2835  -13.3686  -16.9252 N   0  0  0  0  0  0  0  0  0  0  0  0
   19.4901  -12.1395  -16.7828 C   0  0  1  0  0  0  0  0  0  0  0  0
   19.2743  -11.9563  -15.2944 C   0  0  0  0  0  0  0  0  0  0  0  0
   17.9823  -13.1520  -14.8021 S   0  0  0  0  0  0  0  0  0  0  0  0
   20.2191  -11.0090  -17.3844 C   0  0  0  0  0  0  0  0  0  0  0  0
   21.4655  -11.0348  -17.4280 O   0  0  0  0  0  0  0  0  0  0  0  0
   19.9630   -7.6698  -22.1573 C   0  0  0  0  0  0  0  0  0  0  0  0
   20.4535   -7.5359  -20.6926 C   0  0  0  0  0  0  0  0  0  0  0  0
   19.8425   -8.6805  -19.9658 C   0  0  2  0  0  0  0  0  0  0  0  0
   18.3378   -8.7289  -20.1296 C   0  0  0  0  0  0  0  0  0  0  0  0
   20.2469   -8.7486  -18.5153 C   0  0  2  0  0  0  0  0  0  0  0  0
   19.5224   -9.9000  -17.9106 N   0  0  0  0  0  0  0  0  0  0  0  0
   19.8610   -7.5604  -17.7390 C   0  0  0  0  0  0  0  0  0  0  0  0
   18.8248   -7.6254  -16.9923 O   0  0  0  0  0  0  0  0  0  0  0  0
   20.5174   -6.3105  -17.7093 N   0  0  0  0  0  0  0  0  0  0  0  0
   20.2969   -5.2967  -16.7186 C   0  0  1  0  0  0  0  0  0  0  0  0
   20.6586   -5.7224  -15.3281 C   0  0  0  0  0  0  0  0  0  0  0  0
   22.1220   -5.8657  -15.0915 C   0  0  0  0  0  0  0  0  0  0  0  0
   22.3584   -5.9372  -13.6413 C   0  0  0  0  0  0  0  0  0  0  0  0
   22.5884   -4.8995  -12.9966 O   0  0  0  0  0  0  0  0  0  0  0  0
   21.0509   -4.0445  -17.0177 C   0  0  0  0  0  0  0  0  0  0  0  0
   22.0263   -4.0540  -18.0040 O   0  0  0  0  0  0  0  0  0  0  0  0
   22.3284   -7.1468  -12.9820 O   0  0  0  0  0  0  0  0  0  0  0  0
   20.8309   -2.9593  -16.3968 O   0  0  0  0  0  0  0  0  0  0  0  0
  2  1  1  1
  3  4  1  0
  3  2  1  0
  5  6  2  0
  5  2  1  0
  7  8  1  0
  8  9  1  0
  9 11  1  0
  9 10  1  1
 11 12  1  1
 11 13  1  0
 12  5  1  0
 13 15  1  0
 14 13  2  0
 15 16  1  0
 16 21  1  0
 16 17  1  1
 17 18  1  0
 19 18  1  0
 19 23  1  0
 20 19  2  0
 21 24  2  0
 21 22  1  0
M  END
$$$$
