CIE.pdb
     RDKit          3D

 24 23  0  0  1  0  0  0  0  0999 V2000
   30.3848  -10.6360  -18.7958 N   0  0  0  0  0  0  0  0  0  0  0  0
   29.5894   -9.7666  -17.9171 C   0  0  1  0  0  0  0  0  0  0  0  0
   29.6706   -8.3803  -18.5228 C   0  0  0  0  0  0  0  0  0  0  0  0
   31.3300   -7.7291  -18.1182 S   0  0  0  0  0  0  0  0  0  0  0  0
   28.2048  -10.2664  -17.8505 C   0  0  0  0  0  0  0  0  0  0  0  0
   27.7250  -10.8795  -18.8253 O   0  0  0  0  0  0  0  0  0  0  0  0
   26.6431  -14.0092  -15.1489 C   0  0  0  0  0  0  0  0  0  0  0  0
   26.7695  -12.9040  -16.2289 C   0  0  0  0  0  0  0  0  0  0  0  0
   26.0123  -11.7412  -15.6939 C   0  0  2  0  0  0  0  0  0  0  0  0
   24.6076  -12.1154  -15.2692 C   0  0  0  0  0  0  0  0  0  0  0  0
   26.0154  -10.5519  -16.6199 C   0  0  2  0  0  0  0  0  0  0  0  0
   27.4180  -10.0588  -16.6973 N   0  0  0  0  0  0  0  0  0  0  0  0
   25.2045   -9.4246  -16.1350 C   0  0  0  0  0  0  0  0  0  0  0  0
   25.4001   -8.9946  -14.9465 O   0  0  0  0  0  0  0  0  0  0  0  0
   24.2019   -8.7277  -16.8440 N   0  0  0  0  0  0  0  0  0  0  0  0
   23.4093   -7.6625  -16.3008 C   0  0  1  0  0  0  0  0  0  0  0  0
   22.6397   -6.8955  -17.3328 C   0  0  0  0  0  0  0  0  0  0  0  0
   21.5295   -7.6612  -17.9646 C   0  0  0  0  0  0  0  0  0  0  0  0
   20.8536   -6.7907  -18.9389 C   0  0  0  0  0  0  0  0  0  0  0  0
   19.6284   -6.5976  -18.8557 O   0  0  0  0  0  0  0  0  0  0  0  0
   22.4353   -8.1497  -15.2811 C   0  0  0  0  0  0  0  0  0  0  0  0
   21.9118   -7.2580  -14.3562 O   0  0  0  0  0  0  0  0  0  0  0  0
   21.5641   -6.1814  -19.9503 O   0  0  0  0  0  0  0  0  0  0  0  0
   22.0636   -9.3623  -15.2276 O   0  0  0  0  0  0  0  0  0  0  0  0
  2  1  1  6
  3  4  1  0
  3  2  1  0
  5  6  2  0
  5  2  1  0
  7  8  1  0
  8  9  1  0
  9 11  1  0
  9 10  1  6
 11 12  1  1
 11 13  1  0
 12  5  1  0
 13 15  1  0
 14 13  2  0
 15 16  1  0
 16 21  1  0
 16 17  1  6
 17 18  1  0
 19 18  1  0
 19 23  1  0
 20 19  2  0
 21 24  2  0
 21 22  1  0
M  END
$$$$
