CIE.pdb
     RDKit          3D

 24 23  0  0  1  0  0  0  0  0999 V2000
   20.5915  -17.3080  -15.0494 N   0  0  0  0  0  0  0  0  0  0  0  0
   20.8336  -16.2007  -15.9852 C   0  0  1  0  0  0  0  0  0  0  0  0
   19.4748  -15.8203  -16.5368 C   0  0  0  0  0  0  0  0  0  0  0  0
   18.7899  -17.3224  -17.3218 S   0  0  0  0  0  0  0  0  0  0  0  0
   21.4790  -15.0842  -15.2722 C   0  0  0  0  0  0  0  0  0  0  0  0
   21.0821  -14.7720  -14.1316 O   0  0  0  0  0  0  0  0  0  0  0  0
   26.7266  -14.8131  -15.6239 C   0  0  0  0  0  0  0  0  0  0  0  0
   25.2905  -14.7778  -15.0406 C   0  0  0  0  0  0  0  0  0  0  0  0
   24.7331  -13.4594  -15.4441 C   0  0  2  0  0  0  0  0  0  0  0  0
   25.5492  -12.3015  -14.9086 C   0  0  0  0  0  0  0  0  0  0  0  0
   23.2696  -13.3069  -15.1174 C   0  0  2  0  0  0  0  0  0  0  0  0
   22.5393  -14.3665  -15.8660 N   0  0  0  0  0  0  0  0  0  0  0  0
   22.6990  -12.0227  -15.5517 C   0  0  0  0  0  0  0  0  0  0  0  0
   22.5713  -11.8004  -16.8047 O   0  0  0  0  0  0  0  0  0  0  0  0
   22.2535  -10.9652  -14.7288 N   0  0  0  0  0  0  0  0  0  0  0  0
   21.6767   -9.7435  -15.2112 C   0  0  1  0  0  0  0  0  0  0  0  0
   20.1823   -9.7812  -15.3156 C   0  0  0  0  0  0  0  0  0  0  0  0
   19.5765   -8.5492  -15.8927 C   0  0  0  0  0  0  0  0  0  0  0  0
   18.1143   -8.7095  -15.9118 C   0  0  0  0  0  0  0  0  0  0  0  0
   17.3815   -7.7789  -15.5344 O   0  0  0  0  0  0  0  0  0  0  0  0
   22.0402   -8.5745  -14.3584 C   0  0  0  0  0  0  0  0  0  0  0  0
   21.9561   -7.2935  -14.8842 O   0  0  0  0  0  0  0  0  0  0  0  0
   17.5406   -9.8850  -16.3451 O   0  0  0  0  0  0  0  0  0  0  0  0
   22.4276   -8.7096  -13.1571 O   0  0  0  0  0  0  0  0  0  0  0  0
  2  1  1  1
  3  4  1  0
  3  2  1  0
  5  6  2  0
  5  2  1  0
  7  8  1  0
  8  9  1  0
  9 11  1  0
  9 10  1  1
 11 12  1  6
 11 13  1  0
 12  5  1  0
 13 15  1  0
 14 13  2  0
 15 16  1  0
 16 21  1  0
 16 17  1  1
 17 18  1  0
 19 18  1  0
 19 23  1  0
 20 19  2  0
 21 24  2  0
 21 22  1  0
M  END
$$$$
