CIE.pdb
     RDKit          3D

 24 23  0  0  1  0  0  0  0  0999 V2000
   17.0523  -11.1451  -14.2727 N   0  0  0  0  0  0  0  0  0  0  0  0
   17.7202  -10.2781  -15.2539 C   0  0  1  0  0  0  0  0  0  0  0  0
   16.6628   -9.3051  -15.7339 C   0  0  0  0  0  0  0  0  0  0  0  0
   15.3754  -10.3005  -16.5666 S   0  0  0  0  0  0  0  0  0  0  0  0
   18.8585   -9.5948  -14.6146 C   0  0  0  0  0  0  0  0  0  0  0  0
   18.7808   -9.2625  -13.4147 O   0  0  0  0  0  0  0  0  0  0  0  0
   23.8818  -11.2133  -15.2719 C   0  0  0  0  0  0  0  0  0  0  0  0
   22.5652  -10.6683  -14.6609 C   0  0  0  0  0  0  0  0  0  0  0  0
   22.4378   -9.2784  -15.1743 C   0  0  2  0  0  0  0  0  0  0  0  0
   23.6661   -8.4421  -14.8820 C   0  0  0  0  0  0  0  0  0  0  0  0
   21.1755   -8.5902  -14.7219 C   0  0  2  0  0  0  0  0  0  0  0  0
   20.0330   -9.3134  -15.3449 N   0  0  0  0  0  0  0  0  0  0  0  0
   21.0743   -7.1917  -15.1663 C   0  0  0  0  0  0  0  0  0  0  0  0
   20.5625   -6.9478  -16.3127 O   0  0  0  0  0  0  0  0  0  0  0  0
   21.4825   -6.0400  -14.4586 N   0  0  0  0  0  0  0  0  0  0  0  0
   21.1670   -4.6936  -14.8402 C   0  0  1  0  0  0  0  0  0  0  0  0
   19.7030   -4.3781  -14.7866 C   0  0  0  0  0  0  0  0  0  0  0  0
   19.3721   -2.9532  -15.0658 C   0  0  0  0  0  0  0  0  0  0  0  0
   17.9163   -2.7774  -14.9481 C   0  0  0  0  0  0  0  0  0  0  0  0
   17.4447   -2.0988  -14.0194 O   0  0  0  0  0  0  0  0  0  0  0  0
   21.8764   -3.6887  -13.9959 C   0  0  0  0  0  0  0  0  0  0  0  0
   21.9440   -2.3688  -14.4174 O   0  0  0  0  0  0  0  0  0  0  0  0
   17.0611   -3.3585  -15.8591 O   0  0  0  0  0  0  0  0  0  0  0  0
   22.4263   -3.9996  -12.8948 O   0  0  0  0  0  0  0  0  0  0  0  0
  2  1  1  1
  3  4  1  0
  3  2  1  0
  5  6  2  0
  5  2  1  0
  7  8  1  0
  8  9  1  0
  9 11  1  0
  9 10  1  1
 11 12  1  6
 11 13  1  0
 12  5  1  0
 13 15  1  0
 14 13  2  0
 15 16  1  0
 16 21  1  0
 16 17  1  1
 17 18  1  0
 19 18  1  0
 19 23  1  0
 20 19  2  0
 21 24  2  0
 21 22  1  0
M  END
$$$$
