HVQ.pdb
     RDKit          3D

 27 27  0  0  1  0  0  0  0  0999 V2000
   20.2892  -21.6189  -11.6498 N   0  0  0  0  0  0  0  0  0  0  0  0
   20.9570  -21.1778  -12.8379 C   0  0  1  0  0  0  0  0  0  0  0  0
   20.0374  -20.4413  -13.7683 C   0  0  0  0  0  0  0  0  0  0  0  0
   18.8925  -21.2373  -14.2409 C   0  0  0  0  0  0  0  0  0  0  0  0
   17.5521  -20.9964  -13.9339 C   0  0  0  0  0  0  0  0  0  0  0  0
   16.7938  -21.9139  -14.5323 N   0  0  0  0  0  0  0  0  0  0  0  0
   17.6350  -22.7130  -15.1999 C   0  0  0  0  0  0  0  0  0  0  0  0
   18.8949  -22.3049  -15.0236 N   0  0  0  0  0  0  0  0  0  0  0  0
   22.2529  -20.5104  -12.6135 C   0  0  0  0  0  0  0  0  0  0  0  0
   22.3073  -19.6174  -11.7221 O   0  0  0  0  0  0  0  0  0  0  0  0
   25.4007  -21.8833  -11.4671 C   0  0  0  0  0  0  0  0  0  0  0  0
   25.7408  -21.1409  -12.7092 C   0  0  1  0  0  0  0  0  0  0  0  0
   25.7268  -22.1823  -13.8416 C   0  0  0  0  0  0  0  0  0  0  0  0
   24.6932  -20.1281  -13.0805 C   0  0  2  0  0  0  0  0  0  0  0  0
   23.4189  -20.8310  -13.3548 N   0  0  0  0  0  0  0  0  0  0  0  0
   25.0013  -19.3415  -14.2916 C   0  0  0  0  0  0  0  0  0  0  0  0
   24.5070  -19.6812  -15.4257 O   0  0  0  0  0  0  0  0  0  0  0  0
   27.3766  -13.4688  -14.7299 N   0  0  0  0  0  0  0  0  0  0  0  0
   27.3305  -13.8923  -16.0768 C   0  0  0  0  0  0  0  0  0  0  0  0
   27.7272  -13.0798  -16.9601 O   0  0  0  0  0  0  0  0  0  0  0  0
   26.8371  -15.2407  -16.4647 C   0  0  0  0  0  0  0  0  0  0  0  0
   26.5136  -16.0710  -15.2417 C   0  0  0  0  0  0  0  0  0  0  0  0
   26.0228  -17.4464  -15.5998 C   0  0  2  0  0  0  0  0  0  0  0  0
   25.8236  -18.1900  -14.3456 N   0  0  0  0  0  0  0  0  0  0  0  0
   26.9415  -18.1665  -16.4988 C   0  0  0  0  0  0  0  0  0  0  0  0
   27.8368  -18.9620  -16.0515 O   0  0  0  0  0  0  0  0  0  0  0  0
   26.8927  -18.0264  -17.8760 O   0  0  0  0  0  0  0  0  0  0  0  0
  2  1  1  1
  3  2  1  0
  4  3  1  0
  5  4  2  0
  6  5  1  0
  7  6  1  0
  7  8  2  0
  8  4  1  0
  9 15  1  0
  9  2  1  0
 10  9  2  0
 12 11  1  1
 13 12  1  0
 14 15  1  6
 14 12  1  0
 16 14  1  0
 17 16  2  0
 19 18  1  0
 20 19  2  0
 21 19  1  0
 23 22  1  1
 22 21  1  0
 23 24  1  0
 24 16  1  0
 25 27  1  0
 25 23  1  0
 26 25  2  0
M  END
$$$$
