HVQ.pdb
     RDKit          3D

 27 27  0  0  1  0  0  0  0  0999 V2000
   19.6855  -13.5639  -18.8963 N   0  0  0  0  0  0  0  0  0  0  0  0
   18.9394  -13.0838  -17.7716 C   0  0  1  0  0  0  0  0  0  0  0  0
   17.9279  -14.0831  -17.2901 C   0  0  0  0  0  0  0  0  0  0  0  0
   17.0475  -14.6080  -18.3472 C   0  0  0  0  0  0  0  0  0  0  0  0
   15.8044  -14.0833  -18.7056 C   0  0  0  0  0  0  0  0  0  0  0  0
   15.2916  -14.8100  -19.6974 N   0  0  0  0  0  0  0  0  0  0  0  0
   16.1888  -15.7687  -19.9578 C   0  0  0  0  0  0  0  0  0  0  0  0
   17.2426  -15.6456  -19.1458 N   0  0  0  0  0  0  0  0  0  0  0  0
   19.7498  -12.4777  -16.6987 C   0  0  0  0  0  0  0  0  0  0  0  0
   19.2414  -12.4118  -15.5444 O   0  0  0  0  0  0  0  0  0  0  0  0
   24.0332  -11.0735  -14.7844 C   0  0  0  0  0  0  0  0  0  0  0  0
   23.2089  -11.7692  -15.8073 C   0  0  1  0  0  0  0  0  0  0  0  0
   23.1417  -13.2416  -15.3663 C   0  0  0  0  0  0  0  0  0  0  0  0
   21.7843  -11.2883  -15.8239 C   0  0  2  0  0  0  0  0  0  0  0  0
   21.0571  -11.9729  -16.9173 N   0  0  0  0  0  0  0  0  0  0  0  0
   21.6277   -9.8401  -16.0656 C   0  0  0  0  0  0  0  0  0  0  0  0
   21.5842   -9.3861  -17.2648 O   0  0  0  0  0  0  0  0  0  0  0  0
   17.4289   -7.1601  -17.3819 N   0  0  0  0  0  0  0  0  0  0  0  0
   18.2151   -5.9933  -17.2544 C   0  0  0  0  0  0  0  0  0  0  0  0
   17.7625   -4.9246  -17.7551 O   0  0  0  0  0  0  0  0  0  0  0  0
   19.5305   -5.9988  -16.5603 C   0  0  0  0  0  0  0  0  0  0  0  0
   19.9113   -7.3998  -16.1336 C   0  0  0  0  0  0  0  0  0  0  0  0
   21.2323   -7.4382  -15.4166 C   0  0  2  0  0  0  0  0  0  0  0  0
   21.5112   -8.8408  -15.0691 N   0  0  0  0  0  0  0  0  0  0  0  0
   21.2580   -6.5834  -14.2168 C   0  0  0  0  0  0  0  0  0  0  0  0
   21.3847   -5.3136  -14.2963 O   0  0  0  0  0  0  0  0  0  0  0  0
   21.1476   -7.0995  -12.9362 O   0  0  0  0  0  0  0  0  0  0  0  0
  2  1  1  6
  3  2  1  0
  4  3  1  0
  5  4  2  0
  6  5  1  0
  7  6  1  0
  7  8  2  0
  8  4  1  0
  9 15  1  0
  9  2  1  0
 10  9  2  0
 12 11  1  1
 13 12  1  0
 14 15  1  6
 14 12  1  0
 16 14  1  0
 17 16  2  0
 19 18  1  0
 20 19  2  0
 21 19  1  0
 23 22  1  1
 22 21  1  0
 23 24  1  0
 24 16  1  0
 25 27  1  0
 25 23  1  0
 26 25  2  0
M  END
$$$$
