HVQ.pdb
     RDKit          3D

 27 27  0  0  1  0  0  0  0  0999 V2000
   23.0298  -18.9381  -17.8606 N   0  0  0  0  0  0  0  0  0  0  0  0
   23.4806  -18.4092  -16.6080 C   0  0  1  0  0  0  0  0  0  0  0  0
   22.4011  -17.6564  -15.8856 C   0  0  0  0  0  0  0  0  0  0  0  0
   21.8447  -16.5233  -16.6434 C   0  0  0  0  0  0  0  0  0  0  0  0
   22.5139  -15.3335  -16.9363 C   0  0  0  0  0  0  0  0  0  0  0  0
   21.7062  -14.5372  -17.6352 N   0  0  0  0  0  0  0  0  0  0  0  0
   20.5569  -15.2080  -17.7794 C   0  0  0  0  0  0  0  0  0  0  0  0
   20.6422  -16.4006  -17.1831 N   0  0  0  0  0  0  0  0  0  0  0  0
   24.2258  -19.3599  -15.7617 C   0  0  0  0  0  0  0  0  0  0  0  0
   23.5975  -20.3542  -15.3016 O   0  0  0  0  0  0  0  0  0  0  0  0
   28.2270  -18.6300  -14.2793 C   0  0  0  0  0  0  0  0  0  0  0  0
   27.7675  -19.9837  -14.6865 C   0  0  1  0  0  0  0  0  0  0  0  0
   28.3892  -20.9631  -13.6760 C   0  0  0  0  0  0  0  0  0  0  0  0
   26.2797  -20.1530  -14.5486 C   0  0  2  0  0  0  0  0  0  0  0  0
   25.5999  -19.1955  -15.4509 N   0  0  0  0  0  0  0  0  0  0  0  0
   25.7546  -19.8897  -13.1939 C   0  0  0  0  0  0  0  0  0  0  0  0
   25.5065  -18.6880  -12.8193 O   0  0  0  0  0  0  0  0  0  0  0  0
   20.7406  -21.3284  -10.7305 N   0  0  0  0  0  0  0  0  0  0  0  0
   21.3914  -20.9017   -9.5514 C   0  0  0  0  0  0  0  0  0  0  0  0
   20.6934  -20.7946   -8.5031 O   0  0  0  0  0  0  0  0  0  0  0  0
   22.8443  -20.5847   -9.5214 C   0  0  0  0  0  0  0  0  0  0  0  0
   23.4947  -20.9011  -10.8506 C   0  0  0  0  0  0  0  0  0  0  0  0
   24.9423  -20.4963  -10.8877 C   0  0  2  0  0  0  0  0  0  0  0  0
   25.4760  -20.8673  -12.2081 N   0  0  0  0  0  0  0  0  0  0  0  0
   25.7361  -21.1085   -9.8079 C   0  0  0  0  0  0  0  0  0  0  0  0
   26.2735  -22.2614   -9.9367 O   0  0  0  0  0  0  0  0  0  0  0  0
   25.9476  -20.4767   -8.5935 O   0  0  0  0  0  0  0  0  0  0  0  0
  2  1  1  6
  3  2  1  0
  4  3  1  0
  5  4  2  0
  6  5  1  0
  7  6  1  0
  7  8  2  0
  8  4  1  0
  9 15  1  0
  9  2  1  0
 10  9  2  0
 12 11  1  1
 13 12  1  0
 14 15  1  6
 14 12  1  0
 16 14  1  0
 17 16  2  0
 19 18  1  0
 20 19  2  0
 21 19  1  0
 23 22  1  6
 22 21  1  0
 23 24  1  0
 24 16  1  0
 25 27  1  0
 25 23  1  0
 26 25  2  0
M  END
$$$$
