HVQ.pdb
     RDKit          3D

 27 27  0  0  1  0  0  0  0  0999 V2000
   20.2001  -13.4661  -16.7101 N   0  0  0  0  0  0  0  0  0  0  0  0
   19.2448  -12.4563  -16.3643 C   0  0  1  0  0  0  0  0  0  0  0  0
   17.9654  -13.0387  -15.8372 C   0  0  0  0  0  0  0  0  0  0  0  0
   17.3303  -14.0147  -16.7383 C   0  0  0  0  0  0  0  0  0  0  0  0
   16.3577  -13.7242  -17.6968 C   0  0  0  0  0  0  0  0  0  0  0  0
   16.0125  -14.8471  -18.3251 N   0  0  0  0  0  0  0  0  0  0  0  0
   16.7491  -15.8210  -17.7767 C   0  0  0  0  0  0  0  0  0  0  0  0
   17.5398  -15.3190  -16.8239 N   0  0  0  0  0  0  0  0  0  0  0  0
   19.7793  -11.3418  -15.5596 C   0  0  0  0  0  0  0  0  0  0  0  0
   20.1713  -11.5991  -14.3869 O   0  0  0  0  0  0  0  0  0  0  0  0
   21.0461   -7.7167  -17.2642 C   0  0  0  0  0  0  0  0  0  0  0  0
   21.4985   -8.2195  -15.9405 C   0  0  1  0  0  0  0  0  0  0  0  0
   21.8220   -6.9710  -15.1019 C   0  0  0  0  0  0  0  0  0  0  0  0
   20.4081   -8.9357  -15.1927 C   0  0  2  0  0  0  0  0  0  0  0  0
   19.8635  -10.0136  -16.0499 N   0  0  0  0  0  0  0  0  0  0  0  0
   19.2607   -8.0858  -14.8168 C   0  0  0  0  0  0  0  0  0  0  0  0
   18.3353   -7.8354  -15.6694 O   0  0  0  0  0  0  0  0  0  0  0  0
   16.3790   -7.3296   -9.3426 N   0  0  0  0  0  0  0  0  0  0  0  0
   15.6795   -6.4454  -10.1938 C   0  0  0  0  0  0  0  0  0  0  0  0
   14.5884   -5.9668   -9.7719 O   0  0  0  0  0  0  0  0  0  0  0  0
   16.1895   -6.0769  -11.5415 C   0  0  0  0  0  0  0  0  0  0  0  0
   17.4037   -6.9035  -11.9052 C   0  0  0  0  0  0  0  0  0  0  0  0
   17.8958   -6.6127  -13.2959 C   0  0  2  0  0  0  0  0  0  0  0  0
   19.0532   -7.4849  -13.5515 N   0  0  0  0  0  0  0  0  0  0  0  0
   18.2499   -5.1963  -13.4937 C   0  0  0  0  0  0  0  0  0  0  0  0
   19.4360   -4.7635  -13.2928 O   0  0  0  0  0  0  0  0  0  0  0  0
   17.3250   -4.2515  -13.9066 O   0  0  0  0  0  0  0  0  0  0  0  0
  2  1  1  1
  3  2  1  0
  4  3  1  0
  5  4  2  0
  6  5  1  0
  7  6  1  0
  7  8  2  0
  8  4  1  0
  9 15  1  0
  9  2  1  0
 10  9  2  0
 12 11  1  6
 13 12  1  0
 14 15  1  6
 14 12  1  0
 16 14  1  0
 17 16  2  0
 19 18  1  0
 20 19  2  0
 21 19  1  0
 23 22  1  1
 22 21  1  0
 23 24  1  0
 24 16  1  0
 25 27  1  0
 25 23  1  0
 26 25  2  0
M  END
$$$$
