HVQ.pdb
     RDKit          3D

 27 27  0  0  1  0  0  0  0  0999 V2000
   27.8569  -21.8989  -15.5744 N   0  0  0  0  0  0  0  0  0  0  0  0
   26.9970  -20.8808  -15.0489 C   0  0  1  0  0  0  0  0  0  0  0  0
   26.4279  -20.0037  -16.1261 C   0  0  0  0  0  0  0  0  0  0  0  0
   27.4413  -19.3577  -16.9768 C   0  0  0  0  0  0  0  0  0  0  0  0
   27.9188  -18.0545  -16.8265 C   0  0  0  0  0  0  0  0  0  0  0  0
   28.8251  -17.8082  -17.7713 N   0  0  0  0  0  0  0  0  0  0  0  0
   28.9169  -18.9280  -18.4989 C   0  0  0  0  0  0  0  0  0  0  0  0
   28.0850  -19.8574  -18.0200 N   0  0  0  0  0  0  0  0  0  0  0  0
   26.0052  -21.3500  -14.0633 C   0  0  0  0  0  0  0  0  0  0  0  0
   25.1124  -22.1490  -14.4629 O   0  0  0  0  0  0  0  0  0  0  0  0
   26.7095  -21.5566  -10.0622 C   0  0  0  0  0  0  0  0  0  0  0  0
   25.3448  -21.0570  -10.3747 C   0  0  1  0  0  0  0  0  0  0  0  0
   25.4242  -19.5234  -10.2817 C   0  0  0  0  0  0  0  0  0  0  0  0
   24.9324  -21.3540  -11.7899 C   0  0  2  0  0  0  0  0  0  0  0  0
   26.0192  -20.9385  -12.7060 N   0  0  0  0  0  0  0  0  0  0  0  0
   23.7184  -20.6428  -12.2380 C   0  0  0  0  0  0  0  0  0  0  0  0
   23.7834  -19.7965  -13.2001 O   0  0  0  0  0  0  0  0  0  0  0  0
   21.0027  -23.0350  -15.9197 N   0  0  0  0  0  0  0  0  0  0  0  0
   20.0097  -22.0451  -15.7470 C   0  0  0  0  0  0  0  0  0  0  0  0
   19.1107  -21.9567  -16.6311 O   0  0  0  0  0  0  0  0  0  0  0  0
   20.0024  -21.1293  -14.5751 C   0  0  0  0  0  0  0  0  0  0  0  0
   21.1971  -21.3839  -13.6819 C   0  0  0  0  0  0  0  0  0  0  0  0
   21.2167  -20.4762  -12.4834 C   0  0  2  0  0  0  0  0  0  0  0  0
   22.4187  -20.7993  -11.6982 N   0  0  0  0  0  0  0  0  0  0  0  0
   20.0018  -20.5910  -11.6578 C   0  0  0  0  0  0  0  0  0  0  0  0
   19.9727  -21.3034  -10.5965 O   0  0  0  0  0  0  0  0  0  0  0  0
   18.8228  -19.9387  -11.9789 O   0  0  0  0  0  0  0  0  0  0  0  0
  2  1  1  6
  3  2  1  0
  4  3  1  0
  5  4  2  0
  6  5  1  0
  7  6  1  0
  7  8  2  0
  8  4  1  0
  9 15  1  0
  9  2  1  0
 10  9  2  0
 12 11  1  6
 13 12  1  0
 14 15  1  6
 14 12  1  0
 16 14  1  0
 17 16  2  0
 19 18  1  0
 20 19  2  0
 21 19  1  0
 23 22  1  6
 22 21  1  0
 23 24  1  0
 24 16  1  0
 25 27  1  0
 25 23  1  0
 26 25  2  0
M  END
$$$$
