HVQ.pdb
     RDKit          3D

 27 27  0  0  1  0  0  0  0  0999 V2000
   27.7173  -19.4836  -16.1187 N   0  0  0  0  0  0  0  0  0  0  0  0
   26.7571  -19.0115  -15.1663 C   0  0  1  0  0  0  0  0  0  0  0  0
   25.9495  -17.8611  -15.6938 C   0  0  0  0  0  0  0  0  0  0  0  0
   26.7534  -16.7000  -16.1103 C   0  0  0  0  0  0  0  0  0  0  0  0
   27.2696  -15.7206  -15.2598 C   0  0  0  0  0  0  0  0  0  0  0  0
   27.9427  -14.8249  -15.9805 N   0  0  0  0  0  0  0  0  0  0  0  0
   27.8533  -15.2295  -17.2533 C   0  0  0  0  0  0  0  0  0  0  0  0
   27.1387  -16.3558  -17.3291 N   0  0  0  0  0  0  0  0  0  0  0  0
   25.9565  -20.0643  -14.5137 C   0  0  0  0  0  0  0  0  0  0  0  0
   25.3547  -20.8899  -15.2562 O   0  0  0  0  0  0  0  0  0  0  0  0
   26.9528  -21.3759  -10.9698 C   0  0  0  0  0  0  0  0  0  0  0  0
   25.4790  -21.5122  -11.1074 C   0  0  1  0  0  0  0  0  0  0  0  0
   24.8684  -20.3955  -10.2431 C   0  0  0  0  0  0  0  0  0  0  0  0
   25.0035  -21.2429  -12.5083 C   0  0  2  0  0  0  0  0  0  0  0  0
   25.8401  -20.1763  -13.1046 N   0  0  0  0  0  0  0  0  0  0  0  0
   23.6062  -20.7752  -12.6034 C   0  0  0  0  0  0  0  0  0  0  0  0
   23.2882  -19.6019  -12.1931 O   0  0  0  0  0  0  0  0  0  0  0  0
   19.6226  -18.8100  -15.6422 N   0  0  0  0  0  0  0  0  0  0  0  0
   20.8378  -19.3135  -16.1573 C   0  0  0  0  0  0  0  0  0  0  0  0
   21.3775  -18.6805  -17.1090 O   0  0  0  0  0  0  0  0  0  0  0  0
   21.4772  -20.5421  -15.6150 C   0  0  0  0  0  0  0  0  0  0  0  0
   20.6115  -21.1770  -14.5486 C   0  0  0  0  0  0  0  0  0  0  0  0
   21.1570  -20.9559  -13.1650 C   0  0  2  0  0  0  0  0  0  0  0  0
   22.5180  -21.5145  -13.1272 N   0  0  0  0  0  0  0  0  0  0  0  0
   20.3136  -21.5523  -12.1146 C   0  0  0  0  0  0  0  0  0  0  0  0
   20.5630  -22.7064  -11.6241 O   0  0  0  0  0  0  0  0  0  0  0  0
   19.2045  -20.9038  -11.5969 O   0  0  0  0  0  0  0  0  0  0  0  0
  2  1  1  6
  3  2  1  0
  4  3  1  0
  5  4  2  0
  6  5  1  0
  7  6  1  0
  7  8  2  0
  8  4  1  0
  9 15  1  0
  9  2  1  0
 10  9  2  0
 12 11  1  6
 13 12  1  0
 14 15  1  1
 14 12  1  0
 16 14  1  0
 17 16  2  0
 19 18  1  0
 20 19  2  0
 21 19  1  0
 23 22  1  6
 22 21  1  0
 23 24  1  0
 24 16  1  0
 25 27  1  0
 25 23  1  0
 26 25  2  0
M  END
$$$$
