HVQ.pdb
     RDKit          3D

 27 27  0  0  1  0  0  0  0  0999 V2000
   29.5106  -24.2283  -17.3531 N   0  0  0  0  0  0  0  0  0  0  0  0
   28.3754  -23.3833  -17.5753 C   0  0  1  0  0  0  0  0  0  0  0  0
   27.1866  -24.1474  -18.0817 C   0  0  0  0  0  0  0  0  0  0  0  0
   27.4095  -24.8271  -19.3686 C   0  0  0  0  0  0  0  0  0  0  0  0
   28.6279  -24.9084  -20.0454 C   0  0  0  0  0  0  0  0  0  0  0  0
   28.4572  -25.5955  -21.1740 N   0  0  0  0  0  0  0  0  0  0  0  0
   27.1639  -25.9389  -21.2078 C   0  0  0  0  0  0  0  0  0  0  0  0
   26.5364  -25.4765  -20.1226 N   0  0  0  0  0  0  0  0  0  0  0  0
   28.0704  -22.4472  -16.4770 C   0  0  0  0  0  0  0  0  0  0  0  0
   28.2933  -22.8349  -15.2958 O   0  0  0  0  0  0  0  0  0  0  0  0
   28.8000  -18.5176  -16.7751 C   0  0  0  0  0  0  0  0  0  0  0  0
   27.4990  -18.7931  -16.1109 C   0  0  1  0  0  0  0  0  0  0  0  0
   26.4329  -18.7066  -17.2167 C   0  0  0  0  0  0  0  0  0  0  0  0
   27.4109  -20.1954  -15.5752 C   0  0  2  0  0  0  0  0  0  0  0  0
   27.5418  -21.1501  -16.6997 N   0  0  0  0  0  0  0  0  0  0  0  0
   26.1355  -20.5177  -14.9047 C   0  0  0  0  0  0  0  0  0  0  0  0
   25.1932  -21.0986  -15.5533 O   0  0  0  0  0  0  0  0  0  0  0  0
   24.7209  -20.4431   -8.6958 N   0  0  0  0  0  0  0  0  0  0  0  0
   23.4844  -20.7539   -9.3043 C   0  0  0  0  0  0  0  0  0  0  0  0
   22.4963  -20.9693   -8.5461 O   0  0  0  0  0  0  0  0  0  0  0  0
   23.3278  -20.8304  -10.7814 C   0  0  0  0  0  0  0  0  0  0  0  0
   24.6375  -20.5370  -11.4803 C   0  0  0  0  0  0  0  0  0  0  0  0
   24.5177  -20.6257  -12.9765 C   0  0  2  0  0  0  0  0  0  0  0  0
   25.8179  -20.2457  -13.5518 N   0  0  0  0  0  0  0  0  0  0  0  0
   23.4366  -19.7823  -13.5156 C   0  0  0  0  0  0  0  0  0  0  0  0
   23.6233  -18.5515  -13.8068 O   0  0  0  0  0  0  0  0  0  0  0  0
   22.1586  -20.2677  -13.7384 O   0  0  0  0  0  0  0  0  0  0  0  0
  2  1  1  1
  3  2  1  0
  4  3  1  0
  5  4  2  0
  6  5  1  0
  7  6  1  0
  7  8  2  0
  8  4  1  0
  9 15  1  0
  9  2  1  0
 10  9  2  0
 12 11  1  6
 13 12  1  0
 14 15  1  6
 14 12  1  0
 16 14  1  0
 17 16  2  0
 19 18  1  0
 20 19  2  0
 21 19  1  0
 23 22  1  1
 22 21  1  0
 23 24  1  0
 24 16  1  0
 25 27  1  0
 25 23  1  0
 26 25  2  0
M  END
$$$$
