HVQ.pdb
     RDKit          3D

 27 27  0  0  1  0  0  0  0  0999 V2000
   27.9914  -21.4146  -16.1817 N   0  0  0  0  0  0  0  0  0  0  0  0
   27.2738  -20.5065  -15.3377 C   0  0  1  0  0  0  0  0  0  0  0  0
   26.7039  -19.3472  -16.1025 C   0  0  0  0  0  0  0  0  0  0  0  0
   27.7062  -18.5570  -16.8365 C   0  0  0  0  0  0  0  0  0  0  0  0
   29.0820  -18.7943  -16.8451 C   0  0  0  0  0  0  0  0  0  0  0  0
   29.6788  -17.8842  -17.6134 N   0  0  0  0  0  0  0  0  0  0  0  0
   28.7039  -17.0931  -18.0776 C   0  0  0  0  0  0  0  0  0  0  0  0
   27.5200  -17.4989  -17.6099 N   0  0  0  0  0  0  0  0  0  0  0  0
   26.3248  -21.1410  -14.4038 C   0  0  0  0  0  0  0  0  0  0  0  0
   25.6088  -22.0837  -14.8441 O   0  0  0  0  0  0  0  0  0  0  0  0
   27.0102  -21.4601  -10.5299 C   0  0  0  0  0  0  0  0  0  0  0  0
   25.5657  -21.1854  -10.7482 C   0  0  1  0  0  0  0  0  0  0  0  0
   25.3661  -19.6934  -10.4304 C   0  0  0  0  0  0  0  0  0  0  0  0
   25.1588  -21.3488  -12.1865 C   0  0  2  0  0  0  0  0  0  0  0  0
   26.1901  -20.7325  -13.0523 N   0  0  0  0  0  0  0  0  0  0  0  0
   23.8799  -20.7011  -12.5404 C   0  0  0  0  0  0  0  0  0  0  0  0
   23.8702  -19.5164  -13.0328 O   0  0  0  0  0  0  0  0  0  0  0  0
   21.5075  -20.5776  -17.2059 N   0  0  0  0  0  0  0  0  0  0  0  0
   20.4553  -19.8995  -16.5510 C   0  0  0  0  0  0  0  0  0  0  0  0
   19.5997  -19.3111  -17.2716 O   0  0  0  0  0  0  0  0  0  0  0  0
   20.3387  -19.8660  -15.0686 C   0  0  0  0  0  0  0  0  0  0  0  0
   21.4914  -20.5998  -14.4184 C   0  0  0  0  0  0  0  0  0  0  0  0
   21.3911  -20.6039  -12.9182 C   0  0  2  0  0  0  0  0  0  0  0  0
   22.5924  -21.2716  -12.3922 N   0  0  0  0  0  0  0  0  0  0  0  0
   20.1665  -21.2601  -12.4278 C   0  0  0  0  0  0  0  0  0  0  0  0
   20.1589  -22.4845  -12.0597 O   0  0  0  0  0  0  0  0  0  0  0  0
   18.9548  -20.5953  -12.3363 O   0  0  0  0  0  0  0  0  0  0  0  0
  2  1  1  6
  3  2  1  0
  4  3  1  0
  5  4  2  0
  6  5  1  0
  7  6  1  0
  7  8  2  0
  8  4  1  0
  9 15  1  0
  9  2  1  0
 10  9  2  0
 12 11  1  6
 13 12  1  0
 14 15  1  6
 14 12  1  0
 16 14  1  0
 17 16  2  0
 19 18  1  0
 20 19  2  0
 21 19  1  0
 23 22  1  6
 22 21  1  0
 23 24  1  0
 24 16  1  0
 25 27  1  0
 25 23  1  0
 26 25  2  0
M  END
$$$$
