DKP.pdb
     RDKit          3D

 25 25  0  0  1  0  0  0  0  0999 V2000
    9.7093  -17.5532   20.8046 N   0  0  0  0  0  0  0  0  0  0  0  0
    9.4629  -16.1652   20.5267 C   0  0  1  0  0  0  0  0  0  0  0  0
    8.8439  -16.0896   19.1261 C   0  0  0  0  0  0  0  0  0  0  0  0
    9.8970  -16.4312   18.1132 C   0  0  0  0  0  0  0  0  0  0  0  0
   10.6754  -17.3822   18.3742 O   0  0  0  0  0  0  0  0  0  0  0  0
    8.5187  -15.6303   21.5390 C   0  0  0  0  0  0  0  0  0  0  0  0
    8.0782  -14.4566   21.4459 O   0  0  0  0  0  0  0  0  0  0  0  0
   10.0176  -15.7327   16.9308 O   0  0  0  0  0  0  0  0  0  0  0  0
    8.0794  -16.4434   22.6601 N   0  0  0  0  0  0  0  0  0  0  0  0
    7.2526  -15.8601   23.6790 C   0  0  1  0  0  0  0  0  0  0  0  0
    6.4839  -16.9003   24.4320 C   0  0  0  0  0  0  0  0  0  0  0  0
    6.9792  -18.2762   24.3304 C   0  0  0  0  0  0  0  0  0  0  0  0
    6.3323  -19.3071   25.1923 C   0  0  0  0  0  0  0  0  0  0  0  0
    6.9898  -20.6572   25.0302 C   0  0  0  0  0  0  0  0  0  0  0  0
    6.3028  -21.6165   25.8778 N   0  0  0  0  0  0  0  0  0  0  0  0
    8.1871  -15.1464   24.6323 C   0  0  0  0  0  0  0  0  0  0  0  0
    9.4271  -15.4031   24.4622 O   0  0  0  0  0  0  0  0  0  0  0  0
    7.7469  -14.2658   25.6318 N   0  0  0  0  0  0  0  0  0  0  0  0
    6.3679  -14.0282   25.9966 C   0  0  0  0  0  0  0  0  0  0  0  0
    6.3599  -12.6562   26.6782 C   0  0  0  0  0  0  0  0  0  0  0  0
    7.7813  -12.1436   26.3948 C   0  0  0  0  0  0  0  0  0  0  0  0
    8.5342  -13.4630   26.5142 C   0  0  1  0  0  0  0  0  0  0  0  0
    8.4052  -14.0077   27.8976 C   0  0  0  0  0  0  0  0  0  0  0  0
    7.5059  -14.8295   28.1311 O   0  0  0  0  0  0  0  0  0  0  0  0
    9.2446  -13.6351   28.9275 O   0  0  0  0  0  0  0  0  0  0  0  0
  2  3  1  0
  2  1  1  1
  3  4  1  0
  4  8  1  0
  4  5  2  0
  6  2  1  0
  7  6  2  0
  9  6  1  0
 10  9  1  0
 10 11  1  1
 11 12  1  0
 12 13  1  0
 13 14  1  0
 14 15  1  0
 16 17  2  0
 16 10  1  0
 18 16  1  0
 19 18  1  0
 20 21  1  0
 20 19  1  0
 21 22  1  0
 22 23  1  1
 22 18  1  0
 23 25  1  0
 24 23  2  0
M  END
$$$$
