DKP.pdb
     RDKit          3D

 25 25  0  0  1  0  0  0  0  0999 V2000
    9.0450  -15.7741   20.1445 N   0  0  0  0  0  0  0  0  0  0  0  0
    8.8165  -14.4458   20.6425 C   0  0  1  0  0  0  0  0  0  0  0  0
    7.7506  -13.8060   19.7455 C   0  0  0  0  0  0  0  0  0  0  0  0
    8.2837  -13.7226   18.3452 C   0  0  0  0  0  0  0  0  0  0  0  0
    8.7127  -14.7787   17.8171 O   0  0  0  0  0  0  0  0  0  0  0  0
    8.3310  -14.5318   22.0422 C   0  0  0  0  0  0  0  0  0  0  0  0
    7.9975  -13.4942   22.6686 O   0  0  0  0  0  0  0  0  0  0  0  0
    8.3078  -12.5326   17.6497 O   0  0  0  0  0  0  0  0  0  0  0  0
    8.2279  -15.8105   22.7243 N   0  0  0  0  0  0  0  0  0  0  0  0
    7.8270  -15.8495   24.1026 C   0  0  1  0  0  0  0  0  0  0  0  0
    7.2860  -17.1915   24.4849 C   0  0  0  0  0  0  0  0  0  0  0  0
    6.3014  -17.7803   23.5725 C   0  0  0  0  0  0  0  0  0  0  0  0
    5.8306  -19.1645   23.8662 C   0  0  0  0  0  0  0  0  0  0  0  0
    4.8376  -19.6432   22.8335 C   0  0  0  0  0  0  0  0  0  0  0  0
    4.4005  -20.9818   23.1908 N   0  0  0  0  0  0  0  0  0  0  0  0
    9.0698  -15.5645   24.9184 C   0  0  0  0  0  0  0  0  0  0  0  0
   10.1660  -15.9298   24.3729 O   0  0  0  0  0  0  0  0  0  0  0  0
    9.0431  -14.9467   26.1777 N   0  0  0  0  0  0  0  0  0  0  0  0
    7.8576  -14.4765   26.8594 C   0  0  0  0  0  0  0  0  0  0  0  0
    8.3544  -13.4262   27.8579 C   0  0  0  0  0  0  0  0  0  0  0  0
    9.8221  -13.2457   27.4374 C   0  0  0  0  0  0  0  0  0  0  0  0
   10.1368  -14.6883   27.0607 C   0  0  1  0  0  0  0  0  0  0  0  0
   10.0056  -15.5740   28.2547 C   0  0  0  0  0  0  0  0  0  0  0  0
   10.8670  -15.5033   29.1444 O   0  0  0  0  0  0  0  0  0  0  0  0
    8.9661  -16.4679   28.4100 O   0  0  0  0  0  0  0  0  0  0  0  0
  2  3  1  0
  2  1  1  6
  3  4  1  0
  4  8  1  0
  4  5  2  0
  6  2  1  0
  7  6  2  0
  9  6  1  0
 10  9  1  0
 10 11  1  1
 11 12  1  0
 12 13  1  0
 13 14  1  0
 14 15  1  0
 16 17  2  0
 16 10  1  0
 18 16  1  0
 19 18  1  0
 20 21  1  0
 20 19  1  0
 21 22  1  0
 22 23  1  1
 22 18  1  0
 23 25  1  0
 24 23  2  0
M  END
$$$$
