DKP.pdb
     RDKit          3D

 25 25  0  0  1  0  0  0  0  0999 V2000
    6.7232  -16.0882   19.4062 N   0  0  0  0  0  0  0  0  0  0  0  0
    7.6416  -15.3656   20.2420 C   0  0  1  0  0  0  0  0  0  0  0  0
    7.6104  -13.9025   19.7850 C   0  0  0  0  0  0  0  0  0  0  0  0
    8.3891  -13.7781   18.5084 C   0  0  0  0  0  0  0  0  0  0  0  0
    9.3526  -14.5644   18.3300 O   0  0  0  0  0  0  0  0  0  0  0  0
    7.1989  -15.4760   21.6542 C   0  0  0  0  0  0  0  0  0  0  0  0
    6.1095  -14.9698   22.0246 O   0  0  0  0  0  0  0  0  0  0  0  0
    8.0687  -12.8362   17.5541 O   0  0  0  0  0  0  0  0  0  0  0  0
    8.0075  -16.1684   22.6429 N   0  0  0  0  0  0  0  0  0  0  0  0
    7.5783  -16.2029   24.0127 C   0  0  1  0  0  0  0  0  0  0  0  0
    7.8090  -17.5456   24.6324 C   0  0  0  0  0  0  0  0  0  0  0  0
    7.6059  -17.6372   26.0812 C   0  0  0  0  0  0  0  0  0  0  0  0
    7.9176  -18.9382   26.7401 C   0  0  0  0  0  0  0  0  0  0  0  0
    7.6664  -18.8802   28.2284 C   0  0  0  0  0  0  0  0  0  0  0  0
    7.7684  -20.2234   28.7724 N   0  0  0  0  0  0  0  0  0  0  0  0
    8.4049  -15.1688   24.7468 C   0  0  0  0  0  0  0  0  0  0  0  0
    9.6290  -15.1050   24.3863 O   0  0  0  0  0  0  0  0  0  0  0  0
    7.8866  -14.3338   25.7479 N   0  0  0  0  0  0  0  0  0  0  0  0
    6.4985  -14.2588   26.1463 C   0  0  0  0  0  0  0  0  0  0  0  0
    6.3420  -12.8883   26.8128 C   0  0  0  0  0  0  0  0  0  0  0  0
    7.6837  -12.2124   26.4867 C   0  0  0  0  0  0  0  0  0  0  0  0
    8.5929  -13.4299   26.6006 C   0  0  1  0  0  0  0  0  0  0  0  0
    8.5649  -13.9668   27.9927 C   0  0  0  0  0  0  0  0  0  0  0  0
    9.1979  -13.3657   28.8741 O   0  0  0  0  0  0  0  0  0  0  0  0
    7.8644  -15.1036   28.3401 O   0  0  0  0  0  0  0  0  0  0  0  0
  2  3  1  0
  2  1  1  6
  3  4  1  0
  4  8  1  0
  4  5  2  0
  6  2  1  0
  7  6  2  0
  9  6  1  0
 10  9  1  0
 10 11  1  1
 11 12  1  0
 12 13  1  0
 13 14  1  0
 14 15  1  0
 16 17  2  0
 16 10  1  0
 18 16  1  0
 19 18  1  0
 20 21  1  0
 20 19  1  0
 21 22  1  0
 22 23  1  1
 22 18  1  0
 23 25  1  0
 24 23  2  0
M  END
$$$$
