DKP.pdb
     RDKit          3D

 25 25  0  0  1  0  0  0  0  0999 V2000
    9.1293  -16.5711   19.6027 N   0  0  0  0  0  0  0  0  0  0  0  0
    9.7862  -16.5657   20.8806 C   0  0  1  0  0  0  0  0  0  0  0  0
   11.0068  -15.6467   20.7553 C   0  0  0  0  0  0  0  0  0  0  0  0
   12.0666  -16.3556   19.9640 C   0  0  0  0  0  0  0  0  0  0  0  0
   12.4333  -15.8383   18.8794 O   0  0  0  0  0  0  0  0  0  0  0  0
    8.8474  -16.0423   21.9039 C   0  0  0  0  0  0  0  0  0  0  0  0
    8.1960  -14.9878   21.6948 O   0  0  0  0  0  0  0  0  0  0  0  0
   12.6278  -17.5365   20.4011 O   0  0  0  0  0  0  0  0  0  0  0  0
    8.6559  -16.7302   23.1692 N   0  0  0  0  0  0  0  0  0  0  0  0
    7.7189  -16.2102   24.1251 C   0  0  1  0  0  0  0  0  0  0  0  0
    7.1334  -17.2947   24.9741 C   0  0  0  0  0  0  0  0  0  0  0  0
    6.5653  -18.4433   24.2623 C   0  0  0  0  0  0  0  0  0  0  0  0
    6.1353  -19.6157   25.0775 C   0  0  0  0  0  0  0  0  0  0  0  0
    5.6207  -20.7376   24.2069 C   0  0  0  0  0  0  0  0  0  0  0  0
    5.3822  -21.9038   25.0399 N   0  0  0  0  0  0  0  0  0  0  0  0
    8.4927  -15.2531   25.0063 C   0  0  0  0  0  0  0  0  0  0  0  0
    9.7622  -15.3053   24.8712 O   0  0  0  0  0  0  0  0  0  0  0  0
    7.8831  -14.3676   25.9078 N   0  0  0  0  0  0  0  0  0  0  0  0
    6.4744  -14.3347   26.2326 C   0  0  0  0  0  0  0  0  0  0  0  0
    6.2162  -12.9245   26.7728 C   0  0  0  0  0  0  0  0  0  0  0  0
    7.5379  -12.2067   26.4541 C   0  0  0  0  0  0  0  0  0  0  0  0
    8.4992  -13.3604   26.7132 C   0  0  1  0  0  0  0  0  0  0  0  0
    8.4263  -13.7820   28.1429 C   0  0  0  0  0  0  0  0  0  0  0  0
    8.9833  -13.0781   28.9990 O   0  0  0  0  0  0  0  0  0  0  0  0
    7.7652  -14.9220   28.5519 O   0  0  0  0  0  0  0  0  0  0  0  0
  2  3  1  0
  2  1  1  6
  3  4  1  0
  4  8  1  0
  4  5  2  0
  6  2  1  0
  7  6  2  0
  9  6  1  0
 10  9  1  0
 10 11  1  1
 11 12  1  0
 12 13  1  0
 13 14  1  0
 14 15  1  0
 16 17  2  0
 16 10  1  0
 18 16  1  0
 19 18  1  0
 20 21  1  0
 20 19  1  0
 21 22  1  0
 22 23  1  1
 22 18  1  0
 23 25  1  0
 24 23  2  0
M  END
$$$$
