DKP.pdb
     RDKit          3D

 25 25  0  0  1  0  0  0  0  0999 V2000
   11.8236  -18.4208   21.7714 N   0  0  0  0  0  0  0  0  0  0  0  0
   12.3404  -17.1059   22.0332 C   0  0  1  0  0  0  0  0  0  0  0  0
   12.4509  -16.3888   20.6827 C   0  0  0  0  0  0  0  0  0  0  0  0
   13.5807  -16.9961   19.9039 C   0  0  0  0  0  0  0  0  0  0  0  0
   13.3278  -17.4480   18.7593 O   0  0  0  0  0  0  0  0  0  0  0  0
   11.3985  -16.3858   22.9258 C   0  0  0  0  0  0  0  0  0  0  0  0
   11.5664  -15.1668   23.1833 O   0  0  0  0  0  0  0  0  0  0  0  0
   14.8591  -17.0623   20.4157 O   0  0  0  0  0  0  0  0  0  0  0  0
   10.2622  -17.0654   23.5239 N   0  0  0  0  0  0  0  0  0  0  0  0
    9.4446  -16.3738   24.4805 C   0  0  1  0  0  0  0  0  0  0  0  0
    8.1662  -17.1045   24.7484 C   0  0  0  0  0  0  0  0  0  0  0  0
    7.5612  -17.7973   23.6071 C   0  0  0  0  0  0  0  0  0  0  0  0
    6.3520  -18.6302   23.8683 C   0  0  0  0  0  0  0  0  0  0  0  0
    5.8073  -19.2317   22.5943 C   0  0  0  0  0  0  0  0  0  0  0  0
    4.6610  -20.0618   22.9222 N   0  0  0  0  0  0  0  0  0  0  0  0
   10.2513  -16.2995   25.7592 C   0  0  0  0  0  0  0  0  0  0  0  0
   11.2680  -17.0723   25.7987 O   0  0  0  0  0  0  0  0  0  0  0  0
    9.9262  -15.4537   26.8303 N   0  0  0  0  0  0  0  0  0  0  0  0
    8.6643  -14.7708   27.0105 C   0  0  0  0  0  0  0  0  0  0  0  0
    8.9707  -13.5923   27.9400 C   0  0  0  0  0  0  0  0  0  0  0  0
   10.5070  -13.6109   27.9940 C   0  0  0  0  0  0  0  0  0  0  0  0
   10.7239  -15.1190   27.9680 C   0  0  1  0  0  0  0  0  0  0  0  0
   10.1176  -15.7486   29.1776 C   0  0  0  0  0  0  0  0  0  0  0  0
   10.6681  -15.5771   30.2759 O   0  0  0  0  0  0  0  0  0  0  0  0
    8.9703  -16.5135   29.1251 O   0  0  0  0  0  0  0  0  0  0  0  0
  2  3  1  0
  2  1  1  6
  3  4  1  0
  4  8  1  0
  4  5  2  0
  6  2  1  0
  7  6  2  0
  9  6  1  0
 10  9  1  0
 10 11  1  1
 11 12  1  0
 12 13  1  0
 13 14  1  0
 14 15  1  0
 16 17  2  0
 16 10  1  0
 18 16  1  0
 19 18  1  0
 20 21  1  0
 20 19  1  0
 21 22  1  0
 22 23  1  1
 22 18  1  0
 23 25  1  0
 24 23  2  0
M  END
$$$$
