DKP.pdb
     RDKit          3D

 25 25  0  0  1  0  0  0  0  0999 V2000
   11.5488  -17.8961   21.4750 N   0  0  0  0  0  0  0  0  0  0  0  0
   12.5575  -17.2791   22.2912 C   0  0  1  0  0  0  0  0  0  0  0  0
   13.5205  -16.5531   21.3446 C   0  0  0  0  0  0  0  0  0  0  0  0
   14.3321  -17.5750   20.6037 C   0  0  0  0  0  0  0  0  0  0  0  0
   13.9750  -18.7769   20.6823 O   0  0  0  0  0  0  0  0  0  0  0  0
   11.9093  -16.3118   23.2114 C   0  0  0  0  0  0  0  0  0  0  0  0
   12.5991  -15.6225   24.0047 O   0  0  0  0  0  0  0  0  0  0  0  0
   15.4357  -17.2202   19.8575 O   0  0  0  0  0  0  0  0  0  0  0  0
   10.4673  -16.1352   23.2212 N   0  0  0  0  0  0  0  0  0  0  0  0
    9.8612  -15.3001   24.2198 C   0  0  1  0  0  0  0  0  0  0  0  0
    8.3940  -15.1262   23.9813 C   0  0  0  0  0  0  0  0  0  0  0  0
    8.0144  -14.2153   22.8974 C   0  0  0  0  0  0  0  0  0  0  0  0
    7.8363  -14.7992   21.5367 C   0  0  0  0  0  0  0  0  0  0  0  0
    7.5705  -13.7288   20.5046 C   0  0  0  0  0  0  0  0  0  0  0  0
    7.4648  -14.3555   19.1981 N   0  0  0  0  0  0  0  0  0  0  0  0
   10.0691  -15.9991   25.5463 C   0  0  0  0  0  0  0  0  0  0  0  0
   10.3829  -17.2346   25.4592 O   0  0  0  0  0  0  0  0  0  0  0  0
    9.9339  -15.3585   26.7872 N   0  0  0  0  0  0  0  0  0  0  0  0
    8.9865  -14.3101   27.0943 C   0  0  0  0  0  0  0  0  0  0  0  0
    9.5723  -13.5768   28.3051 C   0  0  0  0  0  0  0  0  0  0  0  0
   10.9809  -14.1849   28.4038 C   0  0  0  0  0  0  0  0  0  0  0  0
   10.6472  -15.6155   27.9988 C   0  0  1  0  0  0  0  0  0  0  0  0
    9.7080  -16.2256   28.9851 C   0  0  0  0  0  0  0  0  0  0  0  0
    8.5054  -16.3024   28.6913 O   0  0  0  0  0  0  0  0  0  0  0  0
   10.1219  -16.7076   30.2100 O   0  0  0  0  0  0  0  0  0  0  0  0
  2  3  1  0
  2  1  1  6
  3  4  1  0
  4  8  1  0
  4  5  2  0
  6  2  1  0
  7  6  2  0
  9  6  1  0
 10  9  1  0
 10 11  1  6
 11 12  1  0
 12 13  1  0
 13 14  1  0
 14 15  1  0
 16 17  2  0
 16 10  1  0
 18 16  1  0
 19 18  1  0
 20 21  1  0
 20 19  1  0
 21 22  1  0
 22 23  1  1
 22 18  1  0
 23 25  1  0
 24 23  2  0
M  END
$$$$
