DKP.pdb
     RDKit          3D

 25 25  0  0  1  0  0  0  0  0999 V2000
    9.0128  -15.3370   19.8033 N   0  0  0  0  0  0  0  0  0  0  0  0
    8.2654  -14.1898   20.2388 C   0  0  1  0  0  0  0  0  0  0  0  0
    7.1628  -13.9504   19.2008 C   0  0  0  0  0  0  0  0  0  0  0  0
    7.7883  -13.8813   17.8385 C   0  0  0  0  0  0  0  0  0  0  0  0
    7.7051  -14.8962   17.1027 O   0  0  0  0  0  0  0  0  0  0  0  0
    7.6709  -14.4768   21.5680 C   0  0  0  0  0  0  0  0  0  0  0  0
    6.8529  -13.6772   22.0892 O   0  0  0  0  0  0  0  0  0  0  0  0
    8.4359  -12.7475   17.3962 O   0  0  0  0  0  0  0  0  0  0  0  0
    8.0158  -15.6834   22.3002 N   0  0  0  0  0  0  0  0  0  0  0  0
    7.5249  -15.8670   23.6371 C   0  0  1  0  0  0  0  0  0  0  0  0
    7.5989  -17.2999   24.0631 C   0  0  0  0  0  0  0  0  0  0  0  0
    7.2685  -17.5804   25.4633 C   0  0  0  0  0  0  0  0  0  0  0  0
    7.4203  -18.9855   25.9393 C   0  0  0  0  0  0  0  0  0  0  0  0
    6.9414  -19.1434   27.3632 C   0  0  0  0  0  0  0  0  0  0  0  0
    6.6472  -20.5455   27.6046 N   0  0  0  0  0  0  0  0  0  0  0  0
    8.4129  -15.0350   24.5375 C   0  0  0  0  0  0  0  0  0  0  0  0
    9.6504  -15.0344   24.2197 O   0  0  0  0  0  0  0  0  0  0  0  0
    7.9346  -14.3116   25.6403 N   0  0  0  0  0  0  0  0  0  0  0  0
    6.5850  -14.3600   26.1575 C   0  0  0  0  0  0  0  0  0  0  0  0
    6.4039  -13.0551   26.9394 C   0  0  0  0  0  0  0  0  0  0  0  0
    7.6676  -12.2678   26.5562 C   0  0  0  0  0  0  0  0  0  0  0  0
    8.6564  -13.4258   26.4989 C   0  0  1  0  0  0  0  0  0  0  0  0
    8.7843  -14.0625   27.8425 C   0  0  0  0  0  0  0  0  0  0  0  0
    9.4527  -13.4841   28.7128 O   0  0  0  0  0  0  0  0  0  0  0  0
    8.1901  -15.2675   28.1568 O   0  0  0  0  0  0  0  0  0  0  0  0
  2  3  1  0
  2  1  1  6
  3  4  1  0
  4  8  1  0
  4  5  2  0
  6  2  1  0
  7  6  2  0
  9  6  1  0
 10  9  1  0
 10 11  1  1
 11 12  1  0
 12 13  1  0
 13 14  1  0
 14 15  1  0
 16 17  2  0
 16 10  1  0
 18 16  1  0
 19 18  1  0
 20 21  1  0
 20 19  1  0
 21 22  1  0
 22 23  1  1
 22 18  1  0
 23 25  1  0
 24 23  2  0
M  END
$$$$
