DKP.pdb
     RDKit          3D

 25 25  0  0  1  0  0  0  0  0999 V2000
    9.0163  -14.6032   18.9684 N   0  0  0  0  0  0  0  0  0  0  0  0
    9.7285  -14.8523   20.1912 C   0  0  1  0  0  0  0  0  0  0  0  0
   10.8910  -13.8544   20.2464 C   0  0  0  0  0  0  0  0  0  0  0  0
   12.0018  -14.3574   19.3718 C   0  0  0  0  0  0  0  0  0  0  0  0
   11.8311  -15.4511   18.7776 O   0  0  0  0  0  0  0  0  0  0  0  0
    8.8096  -14.6400   21.3371 C   0  0  0  0  0  0  0  0  0  0  0  0
    8.1482  -13.5758   21.4381 O   0  0  0  0  0  0  0  0  0  0  0  0
   13.1764  -13.6526   19.2165 O   0  0  0  0  0  0  0  0  0  0  0  0
    8.6495  -15.6504   22.3686 N   0  0  0  0  0  0  0  0  0  0  0  0
    7.7431  -15.4159   23.4574 C   0  0  1  0  0  0  0  0  0  0  0  0
    7.0863  -16.6807   23.9144 C   0  0  0  0  0  0  0  0  0  0  0  0
    6.5382  -17.5452   22.8653 C   0  0  0  0  0  0  0  0  0  0  0  0
    6.1102  -18.9189   23.2576 C   0  0  0  0  0  0  0  0  0  0  0  0
    5.5629  -19.6872   22.0779 C   0  0  0  0  0  0  0  0  0  0  0  0
    5.2058  -21.0253   22.5168 N   0  0  0  0  0  0  0  0  0  0  0  0
    8.5719  -14.8494   24.5903 C   0  0  0  0  0  0  0  0  0  0  0  0
    9.8324  -15.0215   24.4720 O   0  0  0  0  0  0  0  0  0  0  0  0
    8.0193  -14.1822   25.6938 N   0  0  0  0  0  0  0  0  0  0  0  0
    6.6070  -14.0081   25.9514 C   0  0  0  0  0  0  0  0  0  0  0  0
    6.5123  -12.8003   26.8890 C   0  0  0  0  0  0  0  0  0  0  0  0
    7.9499  -12.2562   26.8655 C   0  0  0  0  0  0  0  0  0  0  0  0
    8.7004  -13.5807   26.7970 C   0  0  1  0  0  0  0  0  0  0  0  0
    8.4323  -14.3898   28.0220 C   0  0  0  0  0  0  0  0  0  0  0  0
    7.5164  -15.2258   27.9931 O   0  0  0  0  0  0  0  0  0  0  0  0
    9.1609  -14.2468   29.1849 O   0  0  0  0  0  0  0  0  0  0  0  0
  2  3  1  0
  2  1  1  6
  3  4  1  0
  4  8  1  0
  4  5  2  0
  6  2  1  0
  7  6  2  0
  9  6  1  0
 10  9  1  0
 10 11  1  1
 11 12  1  0
 12 13  1  0
 13 14  1  0
 14 15  1  0
 16 17  2  0
 16 10  1  0
 18 16  1  0
 19 18  1  0
 20 21  1  0
 20 19  1  0
 21 22  1  0
 22 23  1  1
 22 18  1  0
 23 25  1  0
 24 23  2  0
M  END
$$$$
