REC.pdb
     RDKit          3D

 27 26  0  0  1  0  0  0  0  0999 V2000
   29.1204  -20.9399  -17.6799 N   0  0  0  0  0  0  0  0  0  0  0  0
   29.0196  -21.3409  -16.3265 C   0  0  0  0  0  0  0  0  0  0  0  0
   29.4570  -22.4857  -15.9624 N   0  0  0  0  0  0  0  0  0  0  0  0
   28.4235  -20.4610  -15.3855 N   0  0  0  0  0  0  0  0  0  0  0  0
   27.9163  -19.1682  -15.7489 C   0  0  0  0  0  0  0  0  0  0  0  0
   26.5494  -19.2519  -16.3944 C   0  0  0  0  0  0  0  0  0  0  0  0
   25.4463  -18.8354  -15.4348 C   0  0  0  0  0  0  0  0  0  0  0  0
   24.4393  -19.9407  -15.4411 C   0  0  2  0  0  0  0  0  0  0  0  0
   24.3164  -20.4625  -16.7773 N   0  0  0  0  0  0  0  0  0  0  0  0
   23.1245  -19.5859  -14.9147 C   0  0  0  0  0  0  0  0  0  0  0  0
   23.0674  -19.0685  -13.7722 O   0  0  0  0  0  0  0  0  0  0  0  0
   29.2767  -22.8316  -14.9936 N   0  0  0  0  0  0  0  0  0  0  0  0
   21.8959  -19.7900  -15.6160 C   0  0  1  0  0  0  0  0  0  0  0  0
   20.6367  -19.5124  -14.9526 C   0  0  0  0  0  0  0  0  0  0  0  0
   19.9899  -18.3298  -15.6049 C   0  0  0  0  0  0  0  0  0  0  0  0
   19.7457  -17.2006  -14.6316 C   0  0  0  0  0  0  0  0  0  0  0  0
   19.0834  -16.0958  -15.3590 O   0  0  0  0  0  0  0  0  0  0  0  0
   18.8194  -16.2331  -16.5919 C   0  0  0  0  0  0  0  0  0  0  0  0
   19.7666  -20.7197  -14.9766 O   0  0  0  0  0  0  0  0  0  0  0  0
   19.7383  -21.4190  -16.0089 O   0  0  0  0  0  0  0  0  0  0  0  0
   18.7353  -14.9050  -14.7576 N   0  0  0  0  0  0  0  0  0  0  0  0
   18.9739  -21.0961  -13.8653 C   0  0  2  0  0  0  0  0  0  0  0  0
   18.1554  -22.2900  -13.8509 C   0  0  0  0  0  0  0  0  0  0  0  0
   18.2846  -22.9652  -12.4980 S   0  0  0  0  0  0  0  0  0  0  0  0
   19.9143  -23.7407  -12.4053 C   0  0  0  0  0  0  0  0  0  0  0  0
   16.7447  -21.9135  -14.0700 O   0  0  0  0  0  0  0  0  0  0  0  0
   15.7713  -22.7720  -14.5778 O   0  0  0  0  0  0  0  0  0  0  0  0
  2  1  1  0
  3  2  2  0
  4  2  1  0
  5  4  1  0
  6  5  1  0
  7  6  1  0
  8  9  1  6
  8 10  1  0
  8  7  1  0
 10 12  1  0
 11 10  2  0
 12 13  1  0
 13 14  1  1
 14 15  1  0
 15 16  1  0
 16 20  1  0
 17 16  2  0
 18 19  2  0
 18 13  1  0
 21 18  1  0
 22 21  1  0
 22 23  1  6
 24 23  1  0
 25 22  1  0
 26 25  1  0
 27 25  2  0
M  END
$$$$
