REC.pdb
     RDKit          3D

 27 26  0  0  1  0  0  0  0  0999 V2000
    9.3924  -10.9443  -10.8878 N   0  0  0  0  0  0  0  0  0  0  0  0
   10.0680  -12.1393  -11.2318 C   0  0  0  0  0  0  0  0  0  0  0  0
    9.4377  -13.2514  -11.2455 N   0  0  0  0  0  0  0  0  0  0  0  0
   11.4496  -12.0862  -11.5536 N   0  0  0  0  0  0  0  0  0  0  0  0
   11.9505  -11.3802  -12.6986 C   0  0  0  0  0  0  0  0  0  0  0  0
   13.4616  -11.4259  -12.7817 C   0  0  0  0  0  0  0  0  0  0  0  0
   13.9892  -10.5765  -13.9267 C   0  0  0  0  0  0  0  0  0  0  0  0
   14.8093  -11.4852  -14.7856 C   0  0  2  0  0  0  0  0  0  0  0  0
   14.6957  -12.8333  -14.2932 N   0  0  0  0  0  0  0  0  0  0  0  0
   16.2148  -11.1130  -14.9186 C   0  0  0  0  0  0  0  0  0  0  0  0
   16.9881  -11.3823  -13.9671 O   0  0  0  0  0  0  0  0  0  0  0  0
    9.9528  -14.1436  -11.4172 N   0  0  0  0  0  0  0  0  0  0  0  0
   16.7686  -10.4603  -16.0632 C   0  0  1  0  0  0  0  0  0  0  0  0
   18.1853  -10.1528  -16.0981 C   0  0  0  0  0  0  0  0  0  0  0  0
   18.6280  -10.0449  -17.5246 C   0  0  0  0  0  0  0  0  0  0  0  0
   20.1057   -9.7553  -17.6458 C   0  0  0  0  0  0  0  0  0  0  0  0
   20.4229   -9.5517  -19.0763 O   0  0  0  0  0  0  0  0  0  0  0  0
   20.8483   -8.4216  -19.4643 C   0  0  0  0  0  0  0  0  0  0  0  0
   18.4607   -8.9122  -15.3234 O   0  0  0  0  0  0  0  0  0  0  0  0
   17.6490   -7.9679  -15.3936 O   0  0  0  0  0  0  0  0  0  0  0  0
   20.2754  -10.5413  -20.0249 N   0  0  0  0  0  0  0  0  0  0  0  0
   19.6126   -8.7740  -14.5116 C   0  0  2  0  0  0  0  0  0  0  0  0
   19.9787   -7.5288  -13.8705 C   0  0  0  0  0  0  0  0  0  0  0  0
   20.6940   -7.8322  -12.5670 S   0  0  0  0  0  0  0  0  0  0  0  0
   19.4757   -8.4464  -11.3819 C   0  0  0  0  0  0  0  0  0  0  0  0
   20.8886   -6.7763  -14.7568 O   0  0  0  0  0  0  0  0  0  0  0  0
   21.3668   -7.2492  -15.9775 O   0  0  0  0  0  0  0  0  0  0  0  0
  2  1  1  0
  3  2  2  0
  4  2  1  0
  5  4  1  0
  6  5  1  0
  7  6  1  0
  8  9  1  1
  8 10  1  0
  8  7  1  0
 10 12  1  0
 11 10  2  0
 12 13  1  0
 13 14  1  1
 14 15  1  0
 15 16  1  0
 16 20  1  0
 17 16  2  0
 18 19  2  0
 18 13  1  0
 21 18  1  0
 22 21  1  0
 22 23  1  6
 24 23  1  0
 25 22  1  0
 26 25  1  0
 27 25  2  0
M  END
$$$$
