REC.pdb
     RDKit          3D

 27 26  0  0  1  0  0  0  0  0999 V2000
   27.6904  -21.3408  -16.1030 N   0  0  0  0  0  0  0  0  0  0  0  0
   27.7646  -20.0521  -15.5229 C   0  0  0  0  0  0  0  0  0  0  0  0
   28.1237  -19.0497  -16.2305 N   0  0  0  0  0  0  0  0  0  0  0  0
   27.4421  -19.8906  -14.1499 N   0  0  0  0  0  0  0  0  0  0  0  0
   27.0853  -20.9942  -13.3042 C   0  0  0  0  0  0  0  0  0  0  0  0
   26.8594  -20.5648  -11.8700 C   0  0  0  0  0  0  0  0  0  0  0  0
   25.3846  -20.3480  -11.5721 C   0  0  0  0  0  0  0  0  0  0  0  0
   24.6487  -21.4667  -12.2376 C   0  0  2  0  0  0  0  0  0  0  0  0
   25.2878  -21.7755  -13.4902 N   0  0  0  0  0  0  0  0  0  0  0  0
   23.2215  -21.2363  -12.4421 C   0  0  0  0  0  0  0  0  0  0  0  0
   22.5040  -21.0485  -11.4292 O   0  0  0  0  0  0  0  0  0  0  0  0
   28.1493  -18.0939  -15.8103 N   0  0  0  0  0  0  0  0  0  0  0  0
   22.5867  -21.2111  -13.7224 C   0  0  2  0  0  0  0  0  0  0  0  0
   21.1626  -20.9530  -13.8120 C   0  0  0  0  0  0  0  0  0  0  0  0
   20.9356  -19.7563  -14.6830 C   0  0  0  0  0  0  0  0  0  0  0  0
   21.4436  -18.4820  -14.0502 C   0  0  0  0  0  0  0  0  0  0  0  0
   21.2227  -17.3712  -15.0017 O   0  0  0  0  0  0  0  0  0  0  0  0
   22.1910  -16.9543  -15.7068 C   0  0  0  0  0  0  0  0  0  0  0  0
   20.4522  -22.1614  -14.3120 O   0  0  0  0  0  0  0  0  0  0  0  0
   21.0131  -22.8776  -15.1651 O   0  0  0  0  0  0  0  0  0  0  0  0
   20.0003  -16.7540  -15.1626 N   0  0  0  0  0  0  0  0  0  0  0  0
   19.1633  -22.5203  -13.8484 C   0  0  2  0  0  0  0  0  0  0  0  0
   18.4687  -23.7090  -14.2960 C   0  0  0  0  0  0  0  0  0  0  0  0
   17.8898  -24.4294  -13.0924 S   0  0  0  0  0  0  0  0  0  0  0  0
   19.2492  -25.2037  -12.1877 C   0  0  0  0  0  0  0  0  0  0  0  0
   17.3688  -23.3167  -15.1992 O   0  0  0  0  0  0  0  0  0  0  0  0
   16.6862  -24.1976  -16.0362 O   0  0  0  0  0  0  0  0  0  0  0  0
  2  1  1  0
  3  2  2  0
  4  2  1  0
  5  4  1  0
  6  5  1  0
  7  6  1  0
  8  9  1  6
  8 10  1  0
  8  7  1  0
 10 12  1  0
 11 10  2  0
 12 13  1  0
 13 14  1  1
 14 15  1  0
 15 16  1  0
 16 20  1  0
 17 16  2  0
 18 19  2  0
 18 13  1  0
 21 18  1  0
 22 21  1  0
 22 23  1  6
 24 23  1  0
 25 22  1  0
 26 25  1  0
 27 25  2  0
M  END
$$$$
