REC.pdb
     RDKit          3D

 27 26  0  0  1  0  0  0  0  0999 V2000
   30.3868  -24.5611  -16.4592 N   0  0  0  0  0  0  0  0  0  0  0  0
   29.1060  -25.1503  -16.5819 C   0  0  0  0  0  0  0  0  0  0  0  0
   28.9289  -26.3739  -16.2569 N   0  0  0  0  0  0  0  0  0  0  0  0
   28.0280  -24.3688  -17.0743 N   0  0  0  0  0  0  0  0  0  0  0  0
   28.1954  -23.0157  -17.5231 C   0  0  0  0  0  0  0  0  0  0  0  0
   28.1616  -22.0259  -16.3779 C   0  0  0  0  0  0  0  0  0  0  0  0
   26.8829  -21.2038  -16.3809 C   0  0  0  0  0  0  0  0  0  0  0  0
   25.9369  -21.8878  -15.4465 C   0  0  2  0  0  0  0  0  0  0  0  0
   25.6377  -23.2019  -15.9527 N   0  0  0  0  0  0  0  0  0  0  0  0
   24.7019  -21.1597  -15.1701 C   0  0  0  0  0  0  0  0  0  0  0  0
   24.7910  -19.9501  -14.8460 O   0  0  0  0  0  0  0  0  0  0  0  0
   28.0012  -26.8282  -16.4112 N   0  0  0  0  0  0  0  0  0  0  0  0
   23.3957  -21.7354  -15.2439 C   0  0  2  0  0  0  0  0  0  0  0  0
   22.2301  -20.8980  -15.0369 C   0  0  0  0  0  0  0  0  0  0  0  0
   21.2013  -21.2256  -16.0745 C   0  0  0  0  0  0  0  0  0  0  0  0
   21.7172  -21.0174  -17.4790 C   0  0  0  0  0  0  0  0  0  0  0  0
   20.6516  -21.4082  -18.4276 O   0  0  0  0  0  0  0  0  0  0  0  0
   19.6123  -20.6881  -18.5267 C   0  0  0  0  0  0  0  0  0  0  0  0
   21.7136  -21.0704  -13.6518 O   0  0  0  0  0  0  0  0  0  0  0  0
   21.7456  -22.2054  -13.1359 O   0  0  0  0  0  0  0  0  0  0  0  0
   20.7294  -22.5338  -19.2202 N   0  0  0  0  0  0  0  0  0  0  0  0
   21.1896  -19.9871  -12.9055 C   0  0  2  0  0  0  0  0  0  0  0  0
   20.6980  -20.1291  -11.5513 C   0  0  0  0  0  0  0  0  0  0  0  0
   20.9220  -18.8285  -10.8022 S   0  0  0  0  0  0  0  0  0  0  0  0
   20.2487  -19.0119   -9.1351 C   0  0  0  0  0  0  0  0  0  0  0  0
   19.2515  -20.4219  -11.5888 O   0  0  0  0  0  0  0  0  0  0  0  0
   18.5658  -21.1265  -10.6010 O   0  0  0  0  0  0  0  0  0  0  0  0
  2  1  1  0
  3  2  2  0
  4  2  1  0
  5  4  1  0
  6  5  1  0
  7  6  1  0
  8  9  1  6
  8 10  1  0
  8  7  1  0
 10 12  1  0
 11 10  2  0
 12 13  1  0
 13 14  1  6
 14 15  1  0
 15 16  1  0
 16 20  1  0
 17 16  2  0
 18 19  2  0
 18 13  1  0
 21 18  1  0
 22 21  1  0
 22 23  1  6
 24 23  1  0
 25 22  1  0
 26 25  1  0
 27 25  2  0
M  END
$$$$
