REC.pdb
     RDKit          3D

 27 26  0  0  1  0  0  0  0  0999 V2000
   30.7069  -21.6223   -9.7531 N   0  0  0  0  0  0  0  0  0  0  0  0
   31.4841  -22.2281  -10.7689 C   0  0  0  0  0  0  0  0  0  0  0  0
   32.3207  -23.1485  -10.4736 N   0  0  0  0  0  0  0  0  0  0  0  0
   31.3265  -21.7968  -12.1121 N   0  0  0  0  0  0  0  0  0  0  0  0
   30.0697  -21.3425  -12.6362 C   0  0  0  0  0  0  0  0  0  0  0  0
   29.5022  -20.1877  -11.8383 C   0  0  0  0  0  0  0  0  0  0  0  0
   28.2197  -19.6529  -12.4548 C   0  0  0  0  0  0  0  0  0  0  0  0
   27.2052  -20.7451  -12.3372 C   0  0  2  0  0  0  0  0  0  0  0  0
   27.4246  -21.7106  -13.3825 N   0  0  0  0  0  0  0  0  0  0  0  0
   25.8136  -20.3032  -12.3419 C   0  0  0  0  0  0  0  0  0  0  0  0
   25.4557  -19.4744  -11.4695 O   0  0  0  0  0  0  0  0  0  0  0  0
   32.9402  -23.5502  -11.2123 N   0  0  0  0  0  0  0  0  0  0  0  0
   24.8303  -20.7539  -13.2761 C   0  0  1  0  0  0  0  0  0  0  0  0
   23.5033  -20.1694  -13.2587 C   0  0  0  0  0  0  0  0  0  0  0  0
   23.0132  -20.0252  -14.6664 C   0  0  0  0  0  0  0  0  0  0  0  0
   23.0281  -18.5889  -15.1342 C   0  0  0  0  0  0  0  0  0  0  0  0
   22.3568  -18.5227  -16.4508 O   0  0  0  0  0  0  0  0  0  0  0  0
   22.8323  -19.1807  -17.4252 C   0  0  0  0  0  0  0  0  0  0  0  0
   22.5899  -20.9942  -12.4218 O   0  0  0  0  0  0  0  0  0  0  0  0
   22.6670  -22.2369  -12.4946 O   0  0  0  0  0  0  0  0  0  0  0  0
   21.2250  -17.7688  -16.6779 N   0  0  0  0  0  0  0  0  0  0  0  0
   21.6402  -20.4111  -11.5483 C   0  0  2  0  0  0  0  0  0  0  0  0
   20.7719  -21.1936  -10.6943 C   0  0  0  0  0  0  0  0  0  0  0  0
   20.7337  -20.5644   -9.3138 S   0  0  0  0  0  0  0  0  0  0  0  0
   19.5951  -21.5207   -8.2867 C   0  0  0  0  0  0  0  0  0  0  0  0
   19.4088  -21.1970  -11.2613 O   0  0  0  0  0  0  0  0  0  0  0  0
   18.4642  -22.1959  -11.0323 O   0  0  0  0  0  0  0  0  0  0  0  0
  2  1  1  0
  3  2  2  0
  4  2  1  0
  5  4  1  0
  6  5  1  0
  7  6  1  0
  8  9  1  6
  8 10  1  0
  8  7  1  0
 10 12  1  0
 11 10  2  0
 12 13  1  0
 13 14  1  1
 14 15  1  0
 15 16  1  0
 16 20  1  0
 17 16  2  0
 18 19  2  0
 18 13  1  0
 21 18  1  0
 22 21  1  0
 22 23  1  1
 24 23  1  0
 25 22  1  0
 26 25  1  0
 27 25  2  0
M  END
$$$$
