REC.pdb
     RDKit          3D

 27 26  0  0  1  0  0  0  0  0999 V2000
   18.7509  -14.4815  -15.6380 N   0  0  0  0  0  0  0  0  0  0  0  0
   17.3410  -14.5995  -15.6057 C   0  0  0  0  0  0  0  0  0  0  0  0
   16.7743  -15.6475  -16.0693 N   0  0  0  0  0  0  0  0  0  0  0  0
   16.5692  -13.5405  -15.0599 N   0  0  0  0  0  0  0  0  0  0  0  0
   17.1426  -12.2791  -14.6851 C   0  0  0  0  0  0  0  0  0  0  0  0
   16.1106  -11.3300  -14.1137 C   0  0  0  0  0  0  0  0  0  0  0  0
   16.7440  -10.0396  -13.6192 C   0  0  0  0  0  0  0  0  0  0  0  0
   15.6371   -9.2198  -13.0373 C   0  0  2  0  0  0  0  0  0  0  0  0
   14.7306   -8.8338  -14.0872 N   0  0  0  0  0  0  0  0  0  0  0  0
   16.0647   -8.0455  -12.2824 C   0  0  0  0  0  0  0  0  0  0  0  0
   16.0677   -6.9362  -12.8702 O   0  0  0  0  0  0  0  0  0  0  0  0
   15.7363  -15.7498  -16.0143 N   0  0  0  0  0  0  0  0  0  0  0  0
   16.4813   -8.0765  -10.9155 C   0  0  2  0  0  0  0  0  0  0  0  0
   16.9270   -6.8550  -10.2736 C   0  0  0  0  0  0  0  0  0  0  0  0
   16.5948   -6.9191   -8.8149 C   0  0  0  0  0  0  0  0  0  0  0  0
   15.1735   -6.4929   -8.5314 C   0  0  0  0  0  0  0  0  0  0  0  0
   14.3052   -7.6877   -8.6152 O   0  0  0  0  0  0  0  0  0  0  0  0
   13.0921   -7.6014   -8.2554 C   0  0  0  0  0  0  0  0  0  0  0  0
   18.3809   -6.6487  -10.5157 O   0  0  0  0  0  0  0  0  0  0  0  0
   19.1996   -7.3460   -9.8839 O   0  0  0  0  0  0  0  0  0  0  0  0
   14.7539   -8.9099   -9.0688 N   0  0  0  0  0  0  0  0  0  0  0  0
   18.8596   -5.6882  -11.4394 C   0  0  1  0  0  0  0  0  0  0  0  0
   20.2592   -5.5583  -11.7855 C   0  0  0  0  0  0  0  0  0  0  0  0
   20.7640   -6.8853  -12.3216 S   0  0  0  0  0  0  0  0  0  0  0  0
   22.4798   -6.6685  -12.8461 C   0  0  0  0  0  0  0  0  0  0  0  0
   20.4063   -4.5274  -12.8320 O   0  0  0  0  0  0  0  0  0  0  0  0
   21.5444   -3.7426  -13.0083 O   0  0  0  0  0  0  0  0  0  0  0  0
  2  1  1  0
  3  2  2  0
  4  2  1  0
  5  4  1  0
  6  5  1  0
  7  6  1  0
  8  9  1  6
  8 10  1  0
  8  7  1  0
 10 12  1  0
 11 10  2  0
 12 13  1  0
 13 14  1  6
 14 15  1  0
 15 16  1  0
 16 20  1  0
 17 16  2  0
 18 19  2  0
 18 13  1  0
 21 18  1  0
 22 21  1  0
 22 23  1  1
 24 23  1  0
 25 22  1  0
 26 25  1  0
 27 25  2  0
M  END
$$$$
