REC.pdb
     RDKit          3D

 27 26  0  0  1  0  0  0  0  0999 V2000
   17.6468  -23.1345  -15.8419 N   0  0  0  0  0  0  0  0  0  0  0  0
   17.8511  -23.0147  -14.4467 C   0  0  0  0  0  0  0  0  0  0  0  0
   17.6275  -24.0111  -13.6777 N   0  0  0  0  0  0  0  0  0  0  0  0
   18.2995  -21.7769  -13.9158 N   0  0  0  0  0  0  0  0  0  0  0  0
   19.2545  -20.9456  -14.5923 C   0  0  0  0  0  0  0  0  0  0  0  0
   20.5385  -21.6861  -14.9011 C   0  0  0  0  0  0  0  0  0  0  0  0
   21.4647  -21.7351  -13.6967 C   0  0  0  0  0  0  0  0  0  0  0  0
   22.4908  -20.6680  -13.9073 C   0  0  2  0  0  0  0  0  0  0  0  0
   22.5509  -20.3378  -15.3073 N   0  0  0  0  0  0  0  0  0  0  0  0
   23.8252  -20.9818  -13.4047 C   0  0  0  0  0  0  0  0  0  0  0  0
   23.9655  -22.0212  -12.7147 O   0  0  0  0  0  0  0  0  0  0  0  0
   17.8401  -23.9437  -12.6573 N   0  0  0  0  0  0  0  0  0  0  0  0
   24.9842  -20.1812  -13.6468 C   0  0  1  0  0  0  0  0  0  0  0  0
   26.2562  -20.5668  -13.0671 C   0  0  0  0  0  0  0  0  0  0  0  0
   27.3600  -19.8698  -13.8008 C   0  0  0  0  0  0  0  0  0  0  0  0
   27.4019  -20.2446  -15.2637 C   0  0  0  0  0  0  0  0  0  0  0  0
   27.7458  -19.0351  -16.0430 O   0  0  0  0  0  0  0  0  0  0  0  0
   27.9705  -17.9457  -15.4338 C   0  0  0  0  0  0  0  0  0  0  0  0
   26.2676  -20.2684  -11.6091 O   0  0  0  0  0  0  0  0  0  0  0  0
   25.7369  -19.2135  -11.2079 O   0  0  0  0  0  0  0  0  0  0  0  0
   27.8336  -19.0300  -17.4190 N   0  0  0  0  0  0  0  0  0  0  0  0
   26.8605  -21.1446  -10.6680 C   0  0  2  0  0  0  0  0  0  0  0  0
   26.8097  -20.9163   -9.2394 C   0  0  0  0  0  0  0  0  0  0  0  0
   27.5666  -19.6423   -8.9123 S   0  0  0  0  0  0  0  0  0  0  0  0
   27.6584  -19.4837   -7.1144 C   0  0  0  0  0  0  0  0  0  0  0  0
   25.4018  -20.7621   -8.8228 O   0  0  0  0  0  0  0  0  0  0  0  0
   24.9440  -20.9371   -7.5181 O   0  0  0  0  0  0  0  0  0  0  0  0
  2  1  1  0
  3  2  2  0
  4  2  1  0
  5  4  1  0
  6  5  1  0
  7  6  1  0
  8  9  1  6
  8 10  1  0
  8  7  1  0
 10 12  1  0
 11 10  2  0
 12 13  1  0
 13 14  1  6
 14 15  1  0
 15 16  1  0
 16 20  1  0
 17 16  2  0
 18 19  2  0
 18 13  1  0
 21 18  1  0
 22 21  1  0
 22 23  1  6
 24 23  1  0
 25 22  1  0
 26 25  1  0
 27 25  2  0
M  END
$$$$
