REC.pdb
     RDKit          3D

 27 26  0  0  1  0  0  0  0  0999 V2000
   16.5722  -12.8645  -21.8030 N   0  0  0  0  0  0  0  0  0  0  0  0
   17.1327  -14.1625  -21.8651 C   0  0  0  0  0  0  0  0  0  0  0  0
   16.9409  -14.8956  -22.8947 N   0  0  0  0  0  0  0  0  0  0  0  0
   17.9016  -14.6383  -20.7707 N   0  0  0  0  0  0  0  0  0  0  0  0
   18.1900  -13.8313  -19.6192 C   0  0  0  0  0  0  0  0  0  0  0  0
   19.1040  -12.6705  -19.9497 C   0  0  0  0  0  0  0  0  0  0  0  0
   19.3930  -11.8145  -18.7271 C   0  0  0  0  0  0  0  0  0  0  0  0
   20.8724  -11.5991  -18.7005 C   0  0  2  0  0  0  0  0  0  0  0  0
   21.5367  -12.8756  -18.6541 N   0  0  0  0  0  0  0  0  0  0  0  0
   21.3555  -10.7391  -17.6240 C   0  0  0  0  0  0  0  0  0  0  0  0
   21.4127  -11.2206  -16.4660 O   0  0  0  0  0  0  0  0  0  0  0  0
   17.3897  -15.8365  -22.9591 N   0  0  0  0  0  0  0  0  0  0  0  0
   21.7677   -9.3822  -17.8027 C   0  0  2  0  0  0  0  0  0  0  0  0
   22.2082   -8.6097  -16.6573 C   0  0  0  0  0  0  0  0  0  0  0  0
   23.1338   -7.5284  -17.1227 C   0  0  0  0  0  0  0  0  0  0  0  0
   23.5055   -6.5746  -16.0117 C   0  0  0  0  0  0  0  0  0  0  0  0
   24.3740   -5.5191  -16.5774 O   0  0  0  0  0  0  0  0  0  0  0  0
   23.8736   -4.3897  -16.8648 C   0  0  0  0  0  0  0  0  0  0  0  0
   21.0337   -8.0716  -15.9184 O   0  0  0  0  0  0  0  0  0  0  0  0
   20.1044   -7.5498  -16.5662 O   0  0  0  0  0  0  0  0  0  0  0  0
   25.7197   -5.7031  -16.8146 N   0  0  0  0  0  0  0  0  0  0  0  0
   20.9408   -8.1356  -14.5069 C   0  0  2  0  0  0  0  0  0  0  0  0
   19.8347   -7.5690  -13.7645 C   0  0  0  0  0  0  0  0  0  0  0  0
   19.3551   -8.5792  -12.7386 S   0  0  0  0  0  0  0  0  0  0  0  0
   18.0106   -7.8299  -11.7915 C   0  0  0  0  0  0  0  0  0  0  0  0
   20.2927   -6.3516  -13.0660 O   0  0  0  0  0  0  0  0  0  0  0  0
   19.5476   -5.1785  -12.9599 O   0  0  0  0  0  0  0  0  0  0  0  0
  2  1  1  0
  3  2  2  0
  4  2  1  0
  5  4  1  0
  6  5  1  0
  7  6  1  0
  8  9  1  1
  8 10  1  0
  8  7  1  0
 10 12  1  0
 11 10  2  0
 12 13  1  0
 13 14  1  6
 14 15  1  0
 15 16  1  0
 16 20  1  0
 17 16  2  0
 18 19  2  0
 18 13  1  0
 21 18  1  0
 22 21  1  0
 22 23  1  1
 24 23  1  0
 25 22  1  0
 26 25  1  0
 27 25  2  0
M  END
$$$$
