QLK.pdb
     RDKit          3D

 27 26  0  0  1  0  0  0  0  0999 V2000
    7.8883  -12.1413   18.1094 N   0  0  0  0  0  0  0  0  0  0  0  0
    8.1871  -13.5303   18.1059 C   0  0  0  0  0  0  0  0  0  0  0  0
    8.8855  -13.9643   17.1592 O   0  0  0  0  0  0  0  0  0  0  0  0
    7.7129  -14.4552   19.1554 C   0  0  0  0  0  0  0  0  0  0  0  0
    8.4976  -14.2013   20.4116 C   0  0  0  0  0  0  0  0  0  0  0  0
    8.3724  -15.3137   21.4194 C   0  0  2  0  0  0  0  0  0  0  0  0
    6.9821  -15.6967   21.5524 N   0  0  0  0  0  0  0  0  0  0  0  0
    8.8835  -14.8716   22.7691 C   0  0  0  0  0  0  0  0  0  0  0  0
   10.0841  -14.5466   22.9109 O   0  0  0  0  0  0  0  0  0  0  0  0
    5.5856  -12.2021   26.2766 C   0  0  0  0  0  0  0  0  0  0  0  0
    6.8007  -12.6219   25.5045 C   0  0  1  0  0  0  0  0  0  0  0  0
    7.6975  -11.3909   25.4330 C   0  0  0  0  0  0  0  0  0  0  0  0
    7.4885  -13.8294   25.9559 C   0  0  0  0  0  0  0  0  0  0  0  0
    8.5936  -14.4569   25.2150 C   0  0  2  0  0  0  0  0  0  0  0  0
    8.0130  -14.8227   23.8711 N   0  0  0  0  0  0  0  0  0  0  0  0
    9.0580  -15.7424   25.7429 C   0  0  0  0  0  0  0  0  0  0  0  0
    9.4358  -15.7463   26.9731 O   0  0  0  0  0  0  0  0  0  0  0  0
    9.1260  -16.9843   25.0823 N   0  0  0  0  0  0  0  0  0  0  0  0
    9.6775  -18.1402   25.6851 C   0  0  1  0  0  0  0  0  0  0  0  0
    9.7257  -19.4084   24.9741 C   0  0  0  0  0  0  0  0  0  0  0  0
   10.2020  -20.6742   25.5407 C   0  0  0  0  0  0  0  0  0  0  0  0
   10.2869  -21.9007   24.7171 C   0  0  0  0  0  0  0  0  0  0  0  0
   10.7139  -23.1279   25.4152 C   0  0  0  0  0  0  0  0  0  0  0  0
   10.9181  -24.1551   24.3505 N   0  0  0  0  0  0  0  0  0  0  0  0
   11.1179  -17.8575   26.1957 C   0  0  0  0  0  0  0  0  0  0  0  0
   12.0253  -17.2591   25.3810 O   0  0  0  0  0  0  0  0  0  0  0  0
   11.4202  -18.1819   27.3602 O   0  0  0  0  0  0  0  0  0  0  0  0
  2  4  1  0
  2  1  1  0
  3  2  2  0
  5  4  1  0
  6  5  1  0
  6  8  1  0
  6  7  1  1
  8 15  1  0
  9  8  2  0
 11 10  1  1
 11 12  1  0
 13 11  1  0
 14 13  1  1
 15 14  1  0
 16 14  1  0
 16 17  2  0
 18 16  1  0
 19 18  1  0
 19 20  1  6
 20 21  1  0
 22 23  1  0
 22 21  1  0
 23 24  1  0
 25 19  1  0
 26 25  1  0
 27 25  2  0
M  END
$$$$
