QLK.pdb
     RDKit          3D

 27 26  0  0  1  0  0  0  0  0999 V2000
   10.6983  -18.7038   18.4062 N   0  0  0  0  0  0  0  0  0  0  0  0
    9.6766  -17.7302   18.2422 C   0  0  0  0  0  0  0  0  0  0  0  0
    9.7860  -16.9414   17.2736 O   0  0  0  0  0  0  0  0  0  0  0  0
    8.5193  -17.6210   19.1536 C   0  0  0  0  0  0  0  0  0  0  0  0
    8.7752  -16.5037   20.1253 C   0  0  0  0  0  0  0  0  0  0  0  0
    8.7994  -16.9640   21.5593 C   0  0  2  0  0  0  0  0  0  0  0  0
    7.5064  -17.5089   21.9181 N   0  0  0  0  0  0  0  0  0  0  0  0
    9.1128  -15.8132   22.4844 C   0  0  0  0  0  0  0  0  0  0  0  0
   10.1693  -15.1580   22.3369 O   0  0  0  0  0  0  0  0  0  0  0  0
    7.7065  -11.4151   25.6730 C   0  0  0  0  0  0  0  0  0  0  0  0
    7.2747  -12.8086   26.0205 C   0  0  1  0  0  0  0  0  0  0  0  0
    5.8903  -12.6747   26.6451 C   0  0  0  0  0  0  0  0  0  0  0  0
    7.3504  -13.8101   24.9593 C   0  0  0  0  0  0  0  0  0  0  0  0
    8.6173  -14.3650   24.4582 C   0  0  2  0  0  0  0  0  0  0  0  0
    8.2193  -15.4729   23.5142 N   0  0  0  0  0  0  0  0  0  0  0  0
    9.4438  -15.0514   25.4544 C   0  0  0  0  0  0  0  0  0  0  0  0
   10.0642  -14.2972   26.2924 O   0  0  0  0  0  0  0  0  0  0  0  0
    9.6324  -16.4363   25.6279 N   0  0  0  0  0  0  0  0  0  0  0  0
   10.4709  -16.9721   26.6345 C   0  0  1  0  0  0  0  0  0  0  0  0
   10.0660  -18.1343   27.4101 C   0  0  0  0  0  0  0  0  0  0  0  0
   10.8646  -18.7608   28.4683 C   0  0  0  0  0  0  0  0  0  0  0  0
   10.3608  -19.9319   29.2196 C   0  0  0  0  0  0  0  0  0  0  0  0
   11.2332  -20.4439   30.2930 C   0  0  0  0  0  0  0  0  0  0  0  0
   10.4239  -21.4606   31.0291 N   0  0  0  0  0  0  0  0  0  0  0  0
   11.8823  -17.2838   26.0634 C   0  0  0  0  0  0  0  0  0  0  0  0
   12.0100  -17.9229   24.8715 O   0  0  0  0  0  0  0  0  0  0  0  0
   12.8870  -16.9331   26.7117 O   0  0  0  0  0  0  0  0  0  0  0  0
  2  4  1  0
  2  1  1  0
  3  2  2  0
  5  4  1  0
  6  5  1  0
  6  8  1  0
  6  7  1  1
  8 15  1  0
  9  8  2  0
 11 10  1  6
 11 12  1  0
 13 11  1  0
 14 13  1  1
 15 14  1  0
 16 14  1  0
 16 17  2  0
 18 16  1  0
 19 18  1  0
 19 20  1  6
 20 21  1  0
 22 23  1  0
 22 21  1  0
 23 24  1  0
 25 19  1  0
 26 25  1  0
 27 25  2  0
M  END
$$$$
