QLK.pdb
     RDKit          3D

 27 26  0  0  1  0  0  0  0  0999 V2000
   12.4404  -16.1842   19.0330 N   0  0  0  0  0  0  0  0  0  0  0  0
   11.1983  -16.7363   18.6194 C   0  0  0  0  0  0  0  0  0  0  0  0
   11.0990  -17.0913   17.4209 O   0  0  0  0  0  0  0  0  0  0  0  0
   10.0499  -16.9008   19.5337 C   0  0  0  0  0  0  0  0  0  0  0  0
   10.4481  -16.4162   20.8992 C   0  0  0  0  0  0  0  0  0  0  0  0
    9.5071  -16.8717   21.9836 C   0  0  2  0  0  0  0  0  0  0  0  0
    8.1532  -16.9078   21.4707 N   0  0  0  0  0  0  0  0  0  0  0  0
    9.5530  -15.9288   23.1614 C   0  0  0  0  0  0  0  0  0  0  0  0
   10.6469  -15.6561   23.7059 O   0  0  0  0  0  0  0  0  0  0  0  0
    7.7346  -11.5044   26.0950 C   0  0  0  0  0  0  0  0  0  0  0  0
    6.8905  -12.7343   25.9411 C   0  0  1  0  0  0  0  0  0  0  0  0
    5.4473  -12.2468   25.8788 C   0  0  0  0  0  0  0  0  0  0  0  0
    7.2507  -13.6552   24.8654 C   0  0  0  0  0  0  0  0  0  0  0  0
    8.4571  -14.4966   24.8895 C   0  0  2  0  0  0  0  0  0  0  0  0
    8.3681  -15.3534   23.6506 N   0  0  0  0  0  0  0  0  0  0  0  0
    8.5204  -15.4787   25.9749 C   0  0  0  0  0  0  0  0  0  0  0  0
    8.8549  -15.0242   27.1314 O   0  0  0  0  0  0  0  0  0  0  0  0
    8.2416  -16.8582   25.9216 N   0  0  0  0  0  0  0  0  0  0  0  0
    8.3907  -17.7108   27.0415 C   0  0  1  0  0  0  0  0  0  0  0  0
    7.7909  -19.0359   27.0625 C   0  0  0  0  0  0  0  0  0  0  0  0
    7.8926  -19.9892   28.1720 C   0  0  0  0  0  0  0  0  0  0  0  0
    7.2973  -21.3409   28.0805 C   0  0  0  0  0  0  0  0  0  0  0  0
    7.4478  -22.2026   29.2681 C   0  0  0  0  0  0  0  0  0  0  0  0
    6.9032  -23.5373   28.8777 N   0  0  0  0  0  0  0  0  0  0  0  0
    9.8930  -17.8930   27.3953 C   0  0  0  0  0  0  0  0  0  0  0  0
   10.7810  -18.2563   26.4336 O   0  0  0  0  0  0  0  0  0  0  0  0
   10.2656  -17.6947   28.5677 O   0  0  0  0  0  0  0  0  0  0  0  0
  2  4  1  0
  2  1  1  0
  3  2  2  0
  5  4  1  0
  6  5  1  0
  6  8  1  0
  6  7  1  6
  8 15  1  0
  9  8  2  0
 11 10  1  6
 11 12  1  0
 13 11  1  0
 14 13  1  1
 15 14  1  0
 16 14  1  0
 16 17  2  0
 18 16  1  0
 19 18  1  0
 19 20  1  6
 20 21  1  0
 22 23  1  0
 22 21  1  0
 23 24  1  0
 25 19  1  0
 26 25  1  0
 27 25  2  0
M  END
$$$$
