QLK.pdb
     RDKit          3D

 27 26  0  0  1  0  0  0  0  0999 V2000
    8.6553  -20.5947   22.4506 N   0  0  0  0  0  0  0  0  0  0  0  0
    8.4809  -20.2582   21.0814 C   0  0  0  0  0  0  0  0  0  0  0  0
    8.3666  -21.2056   20.2678 O   0  0  0  0  0  0  0  0  0  0  0  0
    8.4312  -18.8630   20.5986 C   0  0  0  0  0  0  0  0  0  0  0  0
    8.5626  -17.9405   21.7775 C   0  0  0  0  0  0  0  0  0  0  0  0
    8.5236  -16.4845   21.3934 C   0  0  2  0  0  0  0  0  0  0  0  0
    9.4770  -16.2346   20.3323 N   0  0  0  0  0  0  0  0  0  0  0  0
    8.8737  -15.6113   22.5737 C   0  0  0  0  0  0  0  0  0  0  0  0
   10.0712  -15.3503   22.8292 O   0  0  0  0  0  0  0  0  0  0  0  0
    7.9781  -11.4545   26.1825 C   0  0  0  0  0  0  0  0  0  0  0  0
    7.0048  -12.5921   26.0965 C   0  0  1  0  0  0  0  0  0  0  0  0
    5.6259  -11.9816   26.3216 C   0  0  0  0  0  0  0  0  0  0  0  0
    7.0873  -13.4472   24.9147 C   0  0  0  0  0  0  0  0  0  0  0  0
    8.2640  -14.2679   24.5893 C   0  0  2  0  0  0  0  0  0  0  0  0
    7.8565  -15.0877   23.3897 N   0  0  0  0  0  0  0  0  0  0  0  0
    8.6216  -15.2816   25.5848 C   0  0  0  0  0  0  0  0  0  0  0  0
    7.8060  -16.2697   25.7054 O   0  0  0  0  0  0  0  0  0  0  0  0
    9.7574  -15.3262   26.4165 N   0  0  0  0  0  0  0  0  0  0  0  0
   10.0591  -16.4394   27.2370 C   0  0  1  0  0  0  0  0  0  0  0  0
   11.1762  -17.3190   26.9295 C   0  0  0  0  0  0  0  0  0  0  0  0
   11.4433  -17.9139   25.6162 C   0  0  0  0  0  0  0  0  0  0  0  0
   12.7073  -18.6324   25.3410 C   0  0  0  0  0  0  0  0  0  0  0  0
   12.8691  -19.1709   23.9774 C   0  0  0  0  0  0  0  0  0  0  0  0
   14.2014  -19.8452   23.9582 N   0  0  0  0  0  0  0  0  0  0  0  0
   10.2301  -15.9984   28.7175 C   0  0  0  0  0  0  0  0  0  0  0  0
   10.0760  -14.6936   29.0627 O   0  0  0  0  0  0  0  0  0  0  0  0
   10.5029  -16.8591   29.5762 O   0  0  0  0  0  0  0  0  0  0  0  0
  2  4  1  0
  2  1  1  0
  3  2  2  0
  5  4  1  0
  6  5  1  0
  6  8  1  0
  6  7  1  6
  8 15  1  0
  9  8  2  0
 11 10  1  6
 11 12  1  0
 13 11  1  0
 14 13  1  1
 15 14  1  0
 16 14  1  0
 16 17  2  0
 18 16  1  0
 19 18  1  0
 19 20  1  6
 20 21  1  0
 22 23  1  0
 22 21  1  0
 23 24  1  0
 25 19  1  0
 26 25  1  0
 27 25  2  0
M  END
$$$$
