QLK.pdb
     RDKit          3D

 27 26  0  0  1  0  0  0  0  0999 V2000
   12.0863  -17.3669   18.5641 N   0  0  0  0  0  0  0  0  0  0  0  0
   10.7129  -17.3837   18.2004 C   0  0  0  0  0  0  0  0  0  0  0  0
   10.4274  -17.8142   17.0578 O   0  0  0  0  0  0  0  0  0  0  0  0
    9.6387  -16.9218   19.1029 C   0  0  0  0  0  0  0  0  0  0  0  0
   10.2463  -16.5588   20.4286 C   0  0  0  0  0  0  0  0  0  0  0  0
    9.3912  -16.9661   21.5999 C   0  0  2  0  0  0  0  0  0  0  0  0
    8.0011  -17.0105   21.1964 N   0  0  0  0  0  0  0  0  0  0  0  0
    9.5344  -15.9804   22.7339 C   0  0  0  0  0  0  0  0  0  0  0  0
   10.6719  -15.6315   23.1235 O   0  0  0  0  0  0  0  0  0  0  0  0
    7.7637  -11.9171   26.2834 C   0  0  0  0  0  0  0  0  0  0  0  0
    6.9871  -13.1719   26.0164 C   0  0  1  0  0  0  0  0  0  0  0  0
    5.5162  -12.7847   26.1222 C   0  0  0  0  0  0  0  0  0  0  0  0
    7.3182  -13.9104   24.7999 C   0  0  0  0  0  0  0  0  0  0  0  0
    8.5829  -14.6382   24.6132 C   0  0  2  0  0  0  0  0  0  0  0  0
    8.3913  -15.4506   23.3561 N   0  0  0  0  0  0  0  0  0  0  0  0
    8.8836  -15.6520   25.6274 C   0  0  0  0  0  0  0  0  0  0  0  0
    8.0797  -16.6554   25.6811 O   0  0  0  0  0  0  0  0  0  0  0  0
    9.9545  -15.6817   26.5417 N   0  0  0  0  0  0  0  0  0  0  0  0
   10.2580  -16.8210   27.3248 C   0  0  1  0  0  0  0  0  0  0  0  0
   11.3040  -17.7501   26.9264 C   0  0  0  0  0  0  0  0  0  0  0  0
   11.6969  -18.9479   27.6752 C   0  0  0  0  0  0  0  0  0  0  0  0
   12.7356  -19.8685   27.1620 C   0  0  0  0  0  0  0  0  0  0  0  0
   13.0406  -21.0423   28.0014 C   0  0  0  0  0  0  0  0  0  0  0  0
   14.0965  -21.8053   27.2711 N   0  0  0  0  0  0  0  0  0  0  0  0
   10.5574  -16.4120   28.7940 C   0  0  0  0  0  0  0  0  0  0  0  0
   10.6695  -17.3630   29.7575 O   0  0  0  0  0  0  0  0  0  0  0  0
   10.6979  -15.2046   29.0679 O   0  0  0  0  0  0  0  0  0  0  0  0
  2  4  1  0
  2  1  1  0
  3  2  2  0
  5  4  1  0
  6  5  1  0
  6  8  1  0
  6  7  1  6
  8 15  1  0
  9  8  2  0
 11 10  1  6
 11 12  1  0
 13 11  1  0
 14 13  1  1
 15 14  1  0
 16 14  1  0
 16 17  2  0
 18 16  1  0
 19 18  1  0
 19 20  1  6
 20 21  1  0
 22 23  1  0
 22 21  1  0
 23 24  1  0
 25 19  1  0
 26 25  1  0
 27 25  2  0
M  END
$$$$
