QLK.pdb
     RDKit          3D

 27 26  0  0  1  0  0  0  0  0999 V2000
   10.9379  -18.0848   19.7645 N   0  0  0  0  0  0  0  0  0  0  0  0
    9.9455  -17.3831   19.0287 C   0  0  0  0  0  0  0  0  0  0  0  0
    9.5658  -17.8924   17.9476 O   0  0  0  0  0  0  0  0  0  0  0  0
    9.3623  -16.1053   19.4856 C   0  0  0  0  0  0  0  0  0  0  0  0
    9.9373  -15.7676   20.8323 C   0  0  0  0  0  0  0  0  0  0  0  0
    9.0266  -16.1415   21.9723 C   0  0  2  0  0  0  0  0  0  0  0  0
    7.6845  -15.6717   21.6983 N   0  0  0  0  0  0  0  0  0  0  0  0
    9.5028  -15.5193   23.2624 C   0  0  0  0  0  0  0  0  0  0  0  0
   10.7195  -15.5367   23.5571 O   0  0  0  0  0  0  0  0  0  0  0  0
    5.8583  -12.7749   26.5858 C   0  0  0  0  0  0  0  0  0  0  0  0
    6.7824  -13.2705   25.5137 C   0  0  1  0  0  0  0  0  0  0  0  0
    6.4488  -12.4604   24.2658 C   0  0  0  0  0  0  0  0  0  0  0  0
    8.2080  -13.3066   25.8319 C   0  0  0  0  0  0  0  0  0  0  0  0
    9.0904  -14.4267   25.4703 C   0  0  2  0  0  0  0  0  0  0  0  0
    8.5821  -14.9178   24.1371 N   0  0  0  0  0  0  0  0  0  0  0  0
    8.9901  -15.6113   26.3266 C   0  0  0  0  0  0  0  0  0  0  0  0
    9.2916  -15.4415   27.5661 O   0  0  0  0  0  0  0  0  0  0  0  0
    8.5853  -16.9129   25.9725 N   0  0  0  0  0  0  0  0  0  0  0  0
    8.5751  -17.9865   26.8950 C   0  0  1  0  0  0  0  0  0  0  0  0
    7.7937  -19.1872   26.6423 C   0  0  0  0  0  0  0  0  0  0  0  0
    7.7388  -20.3576   27.5239 C   0  0  0  0  0  0  0  0  0  0  0  0
    7.0202  -21.5878   27.1237 C   0  0  0  0  0  0  0  0  0  0  0  0
    6.9959  -22.6812   28.1133 C   0  0  0  0  0  0  0  0  0  0  0  0
    6.0323  -22.2548   29.1717 N   0  0  0  0  0  0  0  0  0  0  0  0
   10.0240  -18.4524   27.2095 C   0  0  0  0  0  0  0  0  0  0  0  0
   10.3509  -18.8661   28.4615 O   0  0  0  0  0  0  0  0  0  0  0  0
   10.8721  -18.4453   26.2966 O   0  0  0  0  0  0  0  0  0  0  0  0
  2  4  1  0
  2  1  1  0
  3  2  2  0
  5  4  1  0
  6  5  1  0
  6  8  1  0
  6  7  1  6
  8 15  1  0
  9  8  2  0
 11 10  1  1
 11 12  1  0
 13 11  1  0
 14 13  1  1
 15 14  1  0
 16 14  1  0
 16 17  2  0
 18 16  1  0
 19 18  1  0
 19 20  1  6
 20 21  1  0
 22 23  1  0
 22 21  1  0
 23 24  1  0
 25 19  1  0
 26 25  1  0
 27 25  2  0
M  END
$$$$
