QLK.pdb
     RDKit          3D

 27 26  0  0  1  0  0  0  0  0999 V2000
   11.7384  -18.0718   13.5625 N   0  0  0  0  0  0  0  0  0  0  0  0
   10.6900  -17.3492   14.1928 C   0  0  0  0  0  0  0  0  0  0  0  0
   10.3203  -16.2822   13.6476 O   0  0  0  0  0  0  0  0  0  0  0  0
   10.0388  -17.8038   15.4383 C   0  0  0  0  0  0  0  0  0  0  0  0
   10.8799  -17.3726   16.6066 C   0  0  0  0  0  0  0  0  0  0  0  0
   10.3012  -17.7873   17.9340 C   0  0  2  0  0  0  0  0  0  0  0  0
    8.9082  -18.1467   17.7675 N   0  0  0  0  0  0  0  0  0  0  0  0
   10.3935  -16.6593   18.9326 C   0  0  0  0  0  0  0  0  0  0  0  0
   11.5001  -16.1291   19.1814 O   0  0  0  0  0  0  0  0  0  0  0  0
    6.2984  -12.9837   19.7005 C   0  0  0  0  0  0  0  0  0  0  0  0
    7.6756  -13.5659   19.5853 C   0  0  1  0  0  0  0  0  0  0  0  0
    8.6032  -12.3924   19.2902 C   0  0  0  0  0  0  0  0  0  0  0  0
    8.1294  -14.4172   20.6827 C   0  0  0  0  0  0  0  0  0  0  0  0
    9.4018  -15.1550   20.6625 C   0  0  2  0  0  0  0  0  0  0  0  0
    9.2375  -16.1999   19.5862 N   0  0  0  0  0  0  0  0  0  0  0  0
    9.6912  -15.9475   21.8604 C   0  0  0  0  0  0  0  0  0  0  0  0
    8.8234  -16.8466   22.1681 O   0  0  0  0  0  0  0  0  0  0  0  0
   10.8105  -15.8669   22.7114 N   0  0  0  0  0  0  0  0  0  0  0  0
   11.0516  -16.8023   23.7460 C   0  0  1  0  0  0  0  0  0  0  0  0
   11.4865  -18.1579   23.4473 C   0  0  0  0  0  0  0  0  0  0  0  0
   12.3096  -18.5445   22.2971 C   0  0  0  0  0  0  0  0  0  0  0  0
   12.6974  -19.9542   22.0690 C   0  0  0  0  0  0  0  0  0  0  0  0
   13.4802  -20.2271   20.8491 C   0  0  0  0  0  0  0  0  0  0  0  0
   13.6910  -21.7053   20.8194 N   0  0  0  0  0  0  0  0  0  0  0  0
   12.0575  -16.2267   24.7815 C   0  0  0  0  0  0  0  0  0  0  0  0
   12.3037  -16.8956   25.9379 O   0  0  0  0  0  0  0  0  0  0  0  0
   12.6343  -15.1513   24.5297 O   0  0  0  0  0  0  0  0  0  0  0  0
  2  4  1  0
  2  1  1  0
  3  2  2  0
  5  4  1  0
  6  5  1  0
  6  8  1  0
  6  7  1  6
  8 15  1  0
  9  8  2  0
 11 10  1  1
 11 12  1  0
 13 11  1  0
 14 13  1  1
 15 14  1  0
 16 14  1  0
 16 17  2  0
 18 16  1  0
 19 18  1  0
 19 20  1  6
 20 21  1  0
 22 23  1  0
 22 21  1  0
 23 24  1  0
 25 19  1  0
 26 25  1  0
 27 25  2  0
M  END
$$$$
