EGC.pdb
     RDKit          3D

 20 19  0  0  1  0  0  0  0  0999 V2000
   19.5804  -12.5496  -15.6863 N   0  0  0  0  0  0  0  0  0  0  0  0
   18.2600  -12.1473  -16.0947 C   0  0  1  0  0  0  0  0  0  0  0  0
   17.1737  -12.8793  -15.3925 C   0  0  0  0  0  0  0  0  0  0  0  0
   17.0503  -14.3259  -15.6388 C   0  0  0  0  0  0  0  0  0  0  0  0
   15.9961  -15.0604  -14.9621 C   0  0  0  0  0  0  0  0  0  0  0  0
   15.2718  -14.3747  -14.1501 O   0  0  0  0  0  0  0  0  0  0  0  0
   18.1078  -10.6540  -15.9437 C   0  0  0  0  0  0  0  0  0  0  0  0
   17.0604  -10.1111  -16.3926 O   0  0  0  0  0  0  0  0  0  0  0  0
   15.6610  -16.3837  -15.0610 O   0  0  0  0  0  0  0  0  0  0  0  0
   19.0705   -9.8391  -15.3294 N   0  0  0  0  0  0  0  0  0  0  0  0
   18.9515   -8.4379  -15.0935 C   0  0  0  0  0  0  0  0  0  0  0  0
   20.1755   -7.8561  -14.4666 C   0  0  0  0  0  0  0  0  0  0  0  0
   20.5190   -8.2661  -13.3496 O   0  0  0  0  0  0  0  0  0  0  0  0
   20.9290   -6.8538  -15.1410 N   0  0  0  0  0  0  0  0  0  0  0  0
   22.1581   -6.3210  -14.6151 C   0  0  1  0  0  0  0  0  0  0  0  0
   23.0506   -5.7574  -15.6989 C   0  0  0  0  0  0  0  0  0  0  0  0
   23.0743   -6.9151  -17.0966 S   0  0  0  0  0  0  0  0  0  0  0  0
   21.9332   -5.3642  -13.5095 C   0  0  0  0  0  0  0  0  0  0  0  0
   22.8818   -5.2916  -12.5068 O   0  0  0  0  0  0  0  0  0  0  0  0
   20.9345   -4.6308  -13.4494 O   0  0  0  0  0  0  0  0  0  0  0  0
  2  1  1  1
  3  2  1  0
  4  3  1  0
  4  5  1  0
  5  6  2  0
  7  2  1  0
  8  7  2  0
  9  5  1  0
 10  7  1  0
 11 12  1  0
 11 10  1  0
 12 14  1  0
 13 12  2  0
 15 14  1  0
 15 16  1  6
 16 17  1  0
 18 15  1  0
 19 18  1  0
 20 18  2  0
M  END
$$$$
