EGC.pdb
     RDKit          3D

 20 19  0  0  1  0  0  0  0  0999 V2000
   19.0507  -10.7708  -19.0952 N   0  0  0  0  0  0  0  0  0  0  0  0
   20.2747  -10.8935  -18.3477 C   0  0  1  0  0  0  0  0  0  0  0  0
   21.2834  -11.7674  -19.0016 C   0  0  0  0  0  0  0  0  0  0  0  0
   20.9042  -13.1624  -19.2821 C   0  0  0  0  0  0  0  0  0  0  0  0
   21.8018  -13.9821  -20.0765 C   0  0  0  0  0  0  0  0  0  0  0  0
   21.4498  -15.2100  -20.2262 O   0  0  0  0  0  0  0  0  0  0  0  0
   20.8367   -9.5248  -18.0533 C   0  0  0  0  0  0  0  0  0  0  0  0
   21.8425   -9.4415  -17.2951 O   0  0  0  0  0  0  0  0  0  0  0  0
   22.9755  -13.6371  -20.6903 O   0  0  0  0  0  0  0  0  0  0  0  0
   20.2989   -8.3408  -18.5799 N   0  0  0  0  0  0  0  0  0  0  0  0
   20.8174   -7.0273  -18.3824 C   0  0  0  0  0  0  0  0  0  0  0  0
   20.3833   -6.4287  -17.0851 C   0  0  0  0  0  0  0  0  0  0  0  0
   19.2248   -6.6336  -16.6981 O   0  0  0  0  0  0  0  0  0  0  0  0
   21.2837   -5.6418  -16.3125 N   0  0  0  0  0  0  0  0  0  0  0  0
   20.9163   -5.0556  -15.0505 C   0  0  1  0  0  0  0  0  0  0  0  0
   21.9286   -5.3473  -13.9646 C   0  0  0  0  0  0  0  0  0  0  0  0
   22.1359   -7.1453  -13.8273 S   0  0  0  0  0  0  0  0  0  0  0  0
   20.6053   -3.6139  -15.1649 C   0  0  0  0  0  0  0  0  0  0  0  0
   19.7945   -3.0432  -14.2020 O   0  0  0  0  0  0  0  0  0  0  0  0
   21.0414   -2.9042  -16.0842 O   0  0  0  0  0  0  0  0  0  0  0  0
  2  1  1  6
  3  2  1  0
  4  3  1  0
  4  5  1  0
  5  6  2  0
  7  2  1  0
  8  7  2  0
  9  5  1  0
 10  7  1  0
 11 12  1  0
 11 10  1  0
 12 14  1  0
 13 12  2  0
 15 14  1  0
 15 16  1  1
 16 17  1  0
 18 15  1  0
 19 18  1  0
 20 18  2  0
M  END
$$$$
