EGC.pdb
     RDKit          3D

 20 19  0  0  1  0  0  0  0  0999 V2000
   20.4700  -12.1899  -17.3022 N   0  0  0  0  0  0  0  0  0  0  0  0
   19.3379  -11.7133  -18.0527 C   0  0  1  0  0  0  0  0  0  0  0  0
   18.0364  -12.2285  -17.5532 C   0  0  0  0  0  0  0  0  0  0  0  0
   18.0602  -13.1750  -16.4253 C   0  0  0  0  0  0  0  0  0  0  0  0
   17.1354  -12.9705  -15.3246 C   0  0  0  0  0  0  0  0  0  0  0  0
   16.3185  -13.9372  -15.0960 O   0  0  0  0  0  0  0  0  0  0  0  0
   19.3528  -10.2056  -18.1037 C   0  0  0  0  0  0  0  0  0  0  0  0
   18.3790   -9.6159  -18.6488 O   0  0  0  0  0  0  0  0  0  0  0  0
   17.0039  -11.8921  -14.4922 O   0  0  0  0  0  0  0  0  0  0  0  0
   20.3932   -9.4265  -17.5756 N   0  0  0  0  0  0  0  0  0  0  0  0
   20.4551   -8.0020  -17.5794 C   0  0  0  0  0  0  0  0  0  0  0  0
   20.3888   -7.4216  -16.2052 C   0  0  0  0  0  0  0  0  0  0  0  0
   19.4455   -7.7466  -15.4715 O   0  0  0  0  0  0  0  0  0  0  0  0
   21.3896   -6.5163  -15.7515 N   0  0  0  0  0  0  0  0  0  0  0  0
   21.3888   -5.9593  -14.4245 C   0  0  1  0  0  0  0  0  0  0  0  0
   21.7207   -6.9902  -13.3681 C   0  0  0  0  0  0  0  0  0  0  0  0
   21.6264   -6.2039  -11.7349 S   0  0  0  0  0  0  0  0  0  0  0  0
   22.2293   -4.7466  -14.3189 C   0  0  0  0  0  0  0  0  0  0  0  0
   21.8954   -3.8027  -13.3660 O   0  0  0  0  0  0  0  0  0  0  0  0
   23.2139   -4.5470  -15.0467 O   0  0  0  0  0  0  0  0  0  0  0  0
  2  1  1  1
  3  2  1  0
  4  3  1  0
  4  5  1  0
  5  6  2  0
  7  2  1  0
  8  7  2  0
  9  5  1  0
 10  7  1  0
 11 12  1  0
 11 10  1  0
 12 14  1  0
 13 12  2  0
 15 14  1  0
 15 16  1  1
 16 17  1  0
 18 15  1  0
 19 18  1  0
 20 18  2  0
M  END
$$$$
