EGC.pdb
     RDKit          3D

 20 19  0  0  1  0  0  0  0  0999 V2000
   18.6252  -11.4538  -15.6761 N   0  0  0  0  0  0  0  0  0  0  0  0
   18.2932  -11.2350  -17.0595 C   0  0  1  0  0  0  0  0  0  0  0  0
   16.8308  -11.2292  -17.3242 C   0  0  0  0  0  0  0  0  0  0  0  0
   16.0381  -12.3650  -16.8238 C   0  0  0  0  0  0  0  0  0  0  0  0
   15.8935  -12.5353  -15.3890 C   0  0  0  0  0  0  0  0  0  0  0  0
   15.5934  -11.4730  -14.7291 O   0  0  0  0  0  0  0  0  0  0  0  0
   18.9491   -9.9687  -17.5516 C   0  0  0  0  0  0  0  0  0  0  0  0
   18.8124   -9.6576  -18.7673 O   0  0  0  0  0  0  0  0  0  0  0  0
   16.0335  -13.6671  -14.6323 O   0  0  0  0  0  0  0  0  0  0  0  0
   19.7021   -9.1196  -16.7267 N   0  0  0  0  0  0  0  0  0  0  0  0
   20.3970   -7.9475  -17.1466 C   0  0  0  0  0  0  0  0  0  0  0  0
   20.3932   -6.8755  -16.1071 C   0  0  0  0  0  0  0  0  0  0  0  0
   19.4489   -6.0746  -16.0877 O   0  0  0  0  0  0  0  0  0  0  0  0
   21.4522   -6.7800  -15.1602 N   0  0  0  0  0  0  0  0  0  0  0  0
   21.3476   -6.0020  -13.9541 C   0  0  1  0  0  0  0  0  0  0  0  0
   21.7305   -6.7945  -12.7236 C   0  0  0  0  0  0  0  0  0  0  0  0
   20.8850   -8.3998  -12.7766 S   0  0  0  0  0  0  0  0  0  0  0  0
   22.0685   -4.7135  -14.0471 C   0  0  0  0  0  0  0  0  0  0  0  0
   21.8389   -3.7656  -13.0678 O   0  0  0  0  0  0  0  0  0  0  0  0
   22.8645   -4.4545  -14.9626 O   0  0  0  0  0  0  0  0  0  0  0  0
  2  1  1  1
  3  2  1  0
  4  3  1  0
  4  5  1  0
  5  6  2  0
  7  2  1  0
  8  7  2  0
  9  5  1  0
 10  7  1  0
 11 12  1  0
 11 10  1  0
 12 14  1  0
 13 12  2  0
 15 14  1  0
 15 16  1  1
 16 17  1  0
 18 15  1  0
 19 18  1  0
 20 18  2  0
M  END
$$$$
