EGC.pdb
     RDKit          3D

 20 19  0  0  1  0  0  0  0  0999 V2000
   21.6130  -12.5391  -17.8314 N   0  0  0  0  0  0  0  0  0  0  0  0
   21.4298  -11.1755  -18.2545 C   0  0  1  0  0  0  0  0  0  0  0  0
   20.0204  -10.8430  -18.5890 C   0  0  0  0  0  0  0  0  0  0  0  0
   19.3203  -11.7106  -19.5511 C   0  0  0  0  0  0  0  0  0  0  0  0
   19.3057  -11.3282  -20.9519 C   0  0  0  0  0  0  0  0  0  0  0  0
   18.3810  -10.5027  -21.2947 O   0  0  0  0  0  0  0  0  0  0  0  0
   21.9879  -10.2352  -17.2150 C   0  0  0  0  0  0  0  0  0  0  0  0
   21.7974  -10.5084  -15.9975 O   0  0  0  0  0  0  0  0  0  0  0  0
   20.1354  -11.7225  -21.9664 O   0  0  0  0  0  0  0  0  0  0  0  0
   22.7079   -9.0739  -17.5331 N   0  0  0  0  0  0  0  0  0  0  0  0
   23.2661   -8.1543  -16.5972 C   0  0  0  0  0  0  0  0  0  0  0  0
   22.2283   -7.3083  -15.9361 C   0  0  0  0  0  0  0  0  0  0  0  0
   21.2314   -6.9761  -16.5916 O   0  0  0  0  0  0  0  0  0  0  0  0
   22.3838   -6.8958  -14.5823 N   0  0  0  0  0  0  0  0  0  0  0  0
   21.4306   -6.0498  -13.9141 C   0  0  1  0  0  0  0  0  0  0  0  0
   21.3356   -6.3480  -12.4338 C   0  0  0  0  0  0  0  0  0  0  0  0
   20.8901   -8.0943  -12.2174 S   0  0  0  0  0  0  0  0  0  0  0  0
   21.6556   -4.6142  -14.1911 C   0  0  0  0  0  0  0  0  0  0  0  0
   20.6510   -3.7221  -13.8665 O   0  0  0  0  0  0  0  0  0  0  0  0
   22.7029   -4.1848  -14.6988 O   0  0  0  0  0  0  0  0  0  0  0  0
  2  1  1  1
  3  2  1  0
  4  3  1  0
  4  5  1  0
  5  6  2  0
  7  2  1  0
  8  7  2  0
  9  5  1  0
 10  7  1  0
 11 12  1  0
 11 10  1  0
 12 14  1  0
 13 12  2  0
 15 14  1  0
 15 16  1  1
 16 17  1  0
 18 15  1  0
 19 18  1  0
 20 18  2  0
M  END
$$$$
