EGC.pdb
     RDKit          3D

 20 19  0  0  1  0  0  0  0  0999 V2000
   22.2561  -13.7002  -14.5353 N   0  0  0  0  0  0  0  0  0  0  0  0
   23.6622  -13.9496  -14.7157 C   0  0  1  0  0  0  0  0  0  0  0  0
   23.9529  -15.0010  -15.7251 C   0  0  0  0  0  0  0  0  0  0  0  0
   22.9995  -15.1695  -16.8348 C   0  0  0  0  0  0  0  0  0  0  0  0
   23.2287  -16.2348  -17.7946 C   0  0  0  0  0  0  0  0  0  0  0  0
   22.3640  -16.3268  -18.7422 O   0  0  0  0  0  0  0  0  0  0  0  0
   24.3757  -12.6603  -15.0392 C   0  0  0  0  0  0  0  0  0  0  0  0
   25.6351  -12.6782  -15.1227 O   0  0  0  0  0  0  0  0  0  0  0  0
   24.2346  -17.1619  -17.8364 O   0  0  0  0  0  0  0  0  0  0  0  0
   23.7106  -11.4436  -15.2525 N   0  0  0  0  0  0  0  0  0  0  0  0
   24.3292  -10.1950  -15.5549 C   0  0  0  0  0  0  0  0  0  0  0  0
   23.3376   -9.0943  -15.7415 C   0  0  0  0  0  0  0  0  0  0  0  0
   23.7573   -7.9593  -16.0049 O   0  0  0  0  0  0  0  0  0  0  0  0
   21.9418   -9.3475  -15.6198 N   0  0  0  0  0  0  0  0  0  0  0  0
   20.9457   -8.3359  -15.8553 C   0  0  1  0  0  0  0  0  0  0  0  0
   19.6091   -8.9257  -16.2486 C   0  0  0  0  0  0  0  0  0  0  0  0
   18.3777   -7.5935  -16.3073 S   0  0  0  0  0  0  0  0  0  0  0  0
   20.8359   -7.3774  -14.7339 C   0  0  0  0  0  0  0  0  0  0  0  0
   20.8760   -6.0267  -15.0242 O   0  0  0  0  0  0  0  0  0  0  0  0
   20.7100   -7.7372  -13.5534 O   0  0  0  0  0  0  0  0  0  0  0  0
  2  1  1  6
  3  2  1  0
  4  3  1  0
  4  5  1  0
  5  6  2  0
  7  2  1  0
  8  7  2  0
  9  5  1  0
 10  7  1  0
 11 12  1  0
 11 10  1  0
 12 14  1  0
 13 12  2  0
 15 14  1  0
 15 16  1  1
 16 17  1  0
 18 15  1  0
 19 18  1  0
 20 18  2  0
M  END
$$$$
