EGC.pdb
     RDKit          3D

 20 19  0  0  1  0  0  0  0  0999 V2000
   19.7736  -24.4196  -12.5787 N   0  0  0  0  0  0  0  0  0  0  0  0
   18.6696  -24.0079  -11.7518 C   0  0  1  0  0  0  0  0  0  0  0  0
   17.5054  -23.5033  -12.5256 C   0  0  0  0  0  0  0  0  0  0  0  0
   16.3425  -23.0071  -11.7706 C   0  0  0  0  0  0  0  0  0  0  0  0
   16.2329  -21.5814  -11.5173 C   0  0  0  0  0  0  0  0  0  0  0  0
   16.2397  -20.8280  -12.5597 O   0  0  0  0  0  0  0  0  0  0  0  0
   18.2734  -25.1315  -10.8264 C   0  0  0  0  0  0  0  0  0  0  0  0
   17.8859  -26.2188  -11.3373 O   0  0  0  0  0  0  0  0  0  0  0  0
   16.1257  -20.9190  -10.3245 O   0  0  0  0  0  0  0  0  0  0  0  0
   18.3145  -25.0293   -9.4277 N   0  0  0  0  0  0  0  0  0  0  0  0
   17.9736  -26.0609   -8.5042 C   0  0  0  0  0  0  0  0  0  0  0  0
   17.8943  -25.5674   -7.0972 C   0  0  0  0  0  0  0  0  0  0  0  0
   18.4559  -24.5010   -6.8125 O   0  0  0  0  0  0  0  0  0  0  0  0
   17.1872  -26.3080   -6.1079 N   0  0  0  0  0  0  0  0  0  0  0  0
   17.2816  -26.0134   -4.7024 C   0  0  1  0  0  0  0  0  0  0  0  0
   15.9246  -25.8085   -4.0655 C   0  0  0  0  0  0  0  0  0  0  0  0
   16.1546  -25.0516   -2.4319 S   0  0  0  0  0  0  0  0  0  0  0  0
   18.1093  -26.9981   -3.9718 C   0  0  0  0  0  0  0  0  0  0  0  0
   19.0363  -26.5241   -3.0628 O   0  0  0  0  0  0  0  0  0  0  0  0
   18.0032  -28.2222   -4.1427 O   0  0  0  0  0  0  0  0  0  0  0  0
  2  1  1  6
  3  2  1  0
  4  3  1  0
  4  5  1  0
  5  6  2  0
  7  2  1  0
  8  7  2  0
  9  5  1  0
 10  7  1  0
 11 12  1  0
 11 10  1  0
 12 14  1  0
 13 12  2  0
 15 14  1  0
 15 16  1  1
 16 17  1  0
 18 15  1  0
 19 18  1  0
 20 18  2  0
M  END
$$$$
