EGC.pdb
     RDKit          3D

 20 19  0  0  1  0  0  0  0  0999 V2000
   16.2460  -12.9025  -13.8302 N   0  0  0  0  0  0  0  0  0  0  0  0
   16.8863  -12.2213  -14.9248 C   0  0  1  0  0  0  0  0  0  0  0  0
   16.2333  -12.4646  -16.2375 C   0  0  0  0  0  0  0  0  0  0  0  0
   16.1742  -13.8518  -16.7282 C   0  0  0  0  0  0  0  0  0  0  0  0
   15.2680  -14.7824  -16.0791 C   0  0  0  0  0  0  0  0  0  0  0  0
   14.4185  -15.3630  -16.8506 O   0  0  0  0  0  0  0  0  0  0  0  0
   16.9889  -10.7467  -14.6231 C   0  0  0  0  0  0  0  0  0  0  0  0
   15.9267  -10.1115  -14.3752 O   0  0  0  0  0  0  0  0  0  0  0  0
   15.1841  -15.1315  -14.7584 O   0  0  0  0  0  0  0  0  0  0  0  0
   18.2046  -10.0466  -14.6036 N   0  0  0  0  0  0  0  0  0  0  0  0
   18.3551   -8.6382  -14.4391 C   0  0  0  0  0  0  0  0  0  0  0  0
   19.7776   -8.1973  -14.5471 C   0  0  0  0  0  0  0  0  0  0  0  0
   20.6372   -9.0404  -14.8367 O   0  0  0  0  0  0  0  0  0  0  0  0
   20.1341   -6.8372  -14.3228 N   0  0  0  0  0  0  0  0  0  0  0  0
   21.4925   -6.3681  -14.3973 C   0  0  1  0  0  0  0  0  0  0  0  0
   22.1210   -6.6387  -15.7467 C   0  0  0  0  0  0  0  0  0  0  0  0
   23.8487   -6.0837  -15.7081 S   0  0  0  0  0  0  0  0  0  0  0  0
   21.6274   -4.9550  -13.9808 C   0  0  0  0  0  0  0  0  0  0  0  0
   20.6082   -4.0796  -14.3051 O   0  0  0  0  0  0  0  0  0  0  0  0
   22.6118   -4.5304  -13.3567 O   0  0  0  0  0  0  0  0  0  0  0  0
  2  1  1  1
  3  2  1  0
  4  3  1  0
  4  5  1  0
  5  6  2  0
  7  2  1  0
  8  7  2  0
  9  5  1  0
 10  7  1  0
 11 12  1  0
 11 10  1  0
 12 14  1  0
 13 12  2  0
 15 14  1  0
 15 16  1  6
 16 17  1  0
 18 15  1  0
 19 18  1  0
 20 18  2  0
M  END
$$$$
