EGC.pdb
     RDKit          3D

 20 19  0  0  1  0  0  0  0  0999 V2000
   20.5477  -12.5763  -16.2658 N   0  0  0  0  0  0  0  0  0  0  0  0
   19.5551  -12.1299  -17.2078 C   0  0  1  0  0  0  0  0  0  0  0  0
   18.1627  -12.2462  -16.7013 C   0  0  0  0  0  0  0  0  0  0  0  0
   17.9658  -12.8253  -15.3617 C   0  0  0  0  0  0  0  0  0  0  0  0
   16.6181  -12.8994  -14.8259 C   0  0  0  0  0  0  0  0  0  0  0  0
   15.8822  -13.8431  -15.2969 O   0  0  0  0  0  0  0  0  0  0  0  0
   19.8655  -10.7225  -17.6536 C   0  0  0  0  0  0  0  0  0  0  0  0
   19.1354  -10.2015  -18.5417 O   0  0  0  0  0  0  0  0  0  0  0  0
   16.0130  -12.1054  -13.8897 O   0  0  0  0  0  0  0  0  0  0  0  0
   20.9235   -9.9637  -17.1306 N   0  0  0  0  0  0  0  0  0  0  0  0
   21.2423   -8.6197  -17.4841 C   0  0  0  0  0  0  0  0  0  0  0  0
   20.9173   -7.6486  -16.3974 C   0  0  0  0  0  0  0  0  0  0  0  0
   19.7416   -7.5568  -16.0192 O   0  0  0  0  0  0  0  0  0  0  0  0
   21.9385   -6.8487  -15.8106 N   0  0  0  0  0  0  0  0  0  0  0  0
   21.6713   -5.8841  -14.7766 C   0  0  1  0  0  0  0  0  0  0  0  0
   22.5355   -6.0982  -13.5533 C   0  0  0  0  0  0  0  0  0  0  0  0
   22.1795   -4.7868  -12.3500 S   0  0  0  0  0  0  0  0  0  0  0  0
   21.7250   -4.4917  -15.2734 C   0  0  0  0  0  0  0  0  0  0  0  0
   22.7092   -4.1625  -16.1863 O   0  0  0  0  0  0  0  0  0  0  0  0
   20.9266   -3.6165  -14.9051 O   0  0  0  0  0  0  0  0  0  0  0  0
  2  1  1  1
  3  2  1  0
  4  3  1  0
  4  5  1  0
  5  6  2  0
  7  2  1  0
  8  7  2  0
  9  5  1  0
 10  7  1  0
 11 12  1  0
 11 10  1  0
 12 14  1  0
 13 12  2  0
 15 14  1  0
 15 16  1  1
 16 17  1  0
 18 15  1  0
 19 18  1  0
 20 18  2  0
M  END
$$$$
