EGC.pdb
     RDKit          3D

 20 19  0  0  1  0  0  0  0  0999 V2000
   19.0745  -12.4881  -15.4249 N   0  0  0  0  0  0  0  0  0  0  0  0
   17.9601  -12.2027  -16.2902 C   0  0  1  0  0  0  0  0  0  0  0  0
   16.6868  -12.8238  -15.8409 C   0  0  0  0  0  0  0  0  0  0  0  0
   16.7334  -13.7141  -14.6689 C   0  0  0  0  0  0  0  0  0  0  0  0
   15.5210  -14.4080  -14.2723 C   0  0  0  0  0  0  0  0  0  0  0  0
   14.4633  -14.1076  -14.9395 O   0  0  0  0  0  0  0  0  0  0  0  0
   17.8155  -10.7115  -16.4675 C   0  0  0  0  0  0  0  0  0  0  0  0
   16.9507  -10.2872  -17.2832 O   0  0  0  0  0  0  0  0  0  0  0  0
   15.3383  -15.3380  -13.2849 O   0  0  0  0  0  0  0  0  0  0  0  0
   18.5926   -9.7734  -15.7714 N   0  0  0  0  0  0  0  0  0  0  0  0
   18.4086   -8.3595  -15.7876 C   0  0  0  0  0  0  0  0  0  0  0  0
   19.3940   -7.6434  -14.9240 C   0  0  0  0  0  0  0  0  0  0  0  0
   19.7568   -8.1821  -13.8695 O   0  0  0  0  0  0  0  0  0  0  0  0
   19.9039   -6.3706  -15.3077 N   0  0  0  0  0  0  0  0  0  0  0  0
   20.6877   -5.5494  -14.4233 C   0  0  1  0  0  0  0  0  0  0  0  0
   22.1745   -5.7362  -14.6320 C   0  0  0  0  0  0  0  0  0  0  0  0
   23.0664   -4.7170  -13.4235 S   0  0  0  0  0  0  0  0  0  0  0  0
   20.2826   -4.1272  -14.4634 C   0  0  0  0  0  0  0  0  0  0  0  0
   20.2728   -3.4182  -13.2770 O   0  0  0  0  0  0  0  0  0  0  0  0
   19.9548   -3.5522  -15.5126 O   0  0  0  0  0  0  0  0  0  0  0  0
  2  1  1  1
  3  2  1  0
  4  3  1  0
  4  5  1  0
  5  6  2  0
  7  2  1  0
  8  7  2  0
  9  5  1  0
 10  7  1  0
 11 12  1  0
 11 10  1  0
 12 14  1  0
 13 12  2  0
 15 14  1  0
 15 16  1  6
 16 17  1  0
 18 15  1  0
 19 18  1  0
 20 18  2  0
M  END
$$$$
