EGC.pdb
     RDKit          3D

 20 19  0  0  1  0  0  0  0  0999 V2000
   20.4573  -11.9374  -17.6870 N   0  0  0  0  0  0  0  0  0  0  0  0
   19.4075  -10.9829  -17.4447 C   0  0  1  0  0  0  0  0  0  0  0  0
   18.0816  -11.6090  -17.2019 C   0  0  0  0  0  0  0  0  0  0  0  0
   18.0576  -12.9983  -16.7143 C   0  0  0  0  0  0  0  0  0  0  0  0
   17.0789  -13.3662  -15.7066 C   0  0  0  0  0  0  0  0  0  0  0  0
   17.4246  -13.1465  -14.4874 O   0  0  0  0  0  0  0  0  0  0  0  0
   19.7996  -10.0630  -16.3151 C   0  0  0  0  0  0  0  0  0  0  0  0
   19.0058   -9.1348  -15.9964 O   0  0  0  0  0  0  0  0  0  0  0  0
   15.8367  -13.9181  -15.8659 O   0  0  0  0  0  0  0  0  0  0  0  0
   21.0008  -10.1876  -15.6009 N   0  0  0  0  0  0  0  0  0  0  0  0
   21.4520   -9.3162  -14.5664 C   0  0  0  0  0  0  0  0  0  0  0  0
   21.9497   -8.0106  -15.0931 C   0  0  0  0  0  0  0  0  0  0  0  0
   22.9125   -8.0160  -15.8720 O   0  0  0  0  0  0  0  0  0  0  0  0
   21.3282   -6.7890  -14.7075 N   0  0  0  0  0  0  0  0  0  0  0  0
   21.7894   -5.5050  -15.1653 C   0  0  1  0  0  0  0  0  0  0  0  0
   20.6986   -4.7145  -15.8540 C   0  0  0  0  0  0  0  0  0  0  0  0
   19.7457   -5.8367  -16.9157 S   0  0  0  0  0  0  0  0  0  0  0  0
   22.4641   -4.7325  -14.0993 C   0  0  0  0  0  0  0  0  0  0  0  0
   23.1574   -3.5923  -14.4593 O   0  0  0  0  0  0  0  0  0  0  0  0
   22.4310   -5.0666  -12.9050 O   0  0  0  0  0  0  0  0  0  0  0  0
  2  1  1  1
  3  2  1  0
  4  3  1  0
  4  5  1  0
  5  6  2  0
  7  2  1  0
  8  7  2  0
  9  5  1  0
 10  7  1  0
 11 12  1  0
 11 10  1  0
 12 14  1  0
 13 12  2  0
 15 14  1  0
 15 16  1  1
 16 17  1  0
 18 15  1  0
 19 18  1  0
 20 18  2  0
M  END
$$$$
