AKD.pdb
     RDKit          3D

 23 22  0  0  1  0  0  0  0  0999 V2000
   28.5351  -22.4639  -16.6588 C   0  0  0  0  0  0  0  0  0  0  0  0
   27.8408  -21.3223  -17.3759 C   0  0  2  0  0  0  0  0  0  0  0  0
   28.8558  -20.4166  -17.8724 N   0  0  0  0  0  0  0  0  0  0  0  0
   27.0097  -20.6191  -16.3480 C   0  0  0  0  0  0  0  0  0  0  0  0
   27.5104  -19.8610  -15.4901 O   0  0  0  0  0  0  0  0  0  0  0  0
   25.5949  -20.8026  -16.3237 N   0  0  0  0  0  0  0  0  0  0  0  0
   24.7691  -20.0612  -15.4105 C   0  0  1  0  0  0  0  0  0  0  0  0
   23.4358  -19.7040  -16.0640 C   0  0  0  0  0  0  0  0  0  0  0  0
   22.5423  -18.9660  -15.0972 C   0  0  0  0  0  0  0  0  0  0  0  0
   21.1879  -18.6819  -15.6425 C   0  0  0  0  0  0  0  0  0  0  0  0
   20.3658  -17.7610  -14.7788 C   0  0  0  0  0  0  0  0  0  0  0  0
   19.0336  -17.5891  -15.3122 N   0  0  0  0  0  0  0  0  0  0  0  0
   24.5185  -20.8530  -14.1527 C   0  0  0  0  0  0  0  0  0  0  0  0
   24.1898  -22.0470  -14.1739 O   0  0  0  0  0  0  0  0  0  0  0  0
   24.6667  -20.2016  -12.9203 N   0  0  0  0  0  0  0  0  0  0  0  0
   24.4972  -20.9179  -11.6208 C   0  0  1  0  0  0  0  0  0  0  0  0
   25.3790  -20.2582  -10.6039 C   0  0  0  0  0  0  0  0  0  0  0  0
   25.3579  -20.7949   -9.2600 C   0  0  0  0  0  0  0  0  0  0  0  0
   24.7174  -21.7835   -8.9087 O   0  0  0  0  0  0  0  0  0  0  0  0
   23.0694  -20.8215  -11.2235 C   0  0  0  0  0  0  0  0  0  0  0  0
   22.3998  -19.7949  -11.5926 O   0  0  0  0  0  0  0  0  0  0  0  0
   26.1392  -20.1142   -8.3000 O   0  0  0  0  0  0  0  0  0  0  0  0
   22.4469  -21.7833  -10.4833 O   0  0  0  0  0  0  0  0  0  0  0  0
  2  1  1  1
  2  4  1  0
  3  2  1  0
  4  6  1  0
  5  4  2  0
  6  7  1  0
  7  8  1  6
  7 13  1  0
  8  9  1  0
  9 10  1  0
 10 11  1  0
 11 12  1  0
 13 14  2  0
 15 13  1  0
 15 16  1  0
 16 17  1  1
 18 17  1  0
 19 18  2  0
 20 16  1  0
 20 23  1  0
 21 20  2  0
 22 18  1  0
M  END
$$$$
