AKD.pdb
     RDKit          3D

 23 22  0  0  1  0  0  0  0  0999 V2000
   14.1692   -9.2710  -12.4164 C   0  0  0  0  0  0  0  0  0  0  0  0
   14.7404  -10.5156  -13.0676 C   0  0  2  0  0  0  0  0  0  0  0  0
   14.5910  -11.6192  -12.1420 N   0  0  0  0  0  0  0  0  0  0  0  0
   16.1971  -10.2480  -13.2881 C   0  0  0  0  0  0  0  0  0  0  0  0
   17.0529  -10.4405  -12.3982 O   0  0  0  0  0  0  0  0  0  0  0  0
   16.6518   -9.7560  -14.5480 N   0  0  0  0  0  0  0  0  0  0  0  0
   18.0531   -9.5682  -14.8058 C   0  0  1  0  0  0  0  0  0  0  0  0
   18.4335  -10.1675  -16.1580 C   0  0  0  0  0  0  0  0  0  0  0  0
   18.6097  -11.6628  -16.0545 C   0  0  0  0  0  0  0  0  0  0  0  0
   18.9251  -12.3126  -17.3547 C   0  0  0  0  0  0  0  0  0  0  0  0
   19.0838  -13.8080  -17.2642 C   0  0  0  0  0  0  0  0  0  0  0  0
   19.2660  -14.3980  -18.5709 N   0  0  0  0  0  0  0  0  0  0  0  0
   18.4092   -8.1038  -14.7847 C   0  0  0  0  0  0  0  0  0  0  0  0
   17.6848   -7.2367  -15.2923 O   0  0  0  0  0  0  0  0  0  0  0  0
   19.6072   -7.7229  -14.1643 N   0  0  0  0  0  0  0  0  0  0  0  0
   20.1257   -6.3242  -14.2354 C   0  0  1  0  0  0  0  0  0  0  0  0
   21.2267   -6.1811  -13.2283 C   0  0  0  0  0  0  0  0  0  0  0  0
   21.9112   -4.9073  -13.1707 C   0  0  0  0  0  0  0  0  0  0  0  0
   21.5179   -3.8739  -13.7076 O   0  0  0  0  0  0  0  0  0  0  0  0
   20.6347   -6.0900  -15.6108 C   0  0  0  0  0  0  0  0  0  0  0  0
   20.2857   -5.0185  -16.2180 O   0  0  0  0  0  0  0  0  0  0  0  0
   23.1180   -4.8760  -12.4372 O   0  0  0  0  0  0  0  0  0  0  0  0
   21.4580   -6.9707  -16.2487 O   0  0  0  0  0  0  0  0  0  0  0  0
  2  1  1  1
  2  4  1  0
  3  2  1  0
  4  6  1  0
  5  4  2  0
  6  7  1  0
  7  8  1  6
  7 13  1  0
  8  9  1  0
  9 10  1  0
 10 11  1  0
 11 12  1  0
 13 14  2  0
 15 13  1  0
 15 16  1  0
 16 17  1  1
 18 17  1  0
 19 18  2  0
 20 16  1  0
 20 23  1  0
 21 20  2  0
 22 18  1  0
M  END
$$$$
