AKD.pdb
     RDKit          3D

 23 22  0  0  1  0  0  0  0  0999 V2000
   15.3753  -10.1089  -15.4828 C   0  0  0  0  0  0  0  0  0  0  0  0
   16.2781  -11.2991  -15.7435 C   0  0  2  0  0  0  0  0  0  0  0  0
   15.9326  -12.3434  -14.8016 N   0  0  0  0  0  0  0  0  0  0  0  0
   17.6771  -10.8361  -15.4782 C   0  0  0  0  0  0  0  0  0  0  0  0
   18.1160  -10.6684  -14.3204 O   0  0  0  0  0  0  0  0  0  0  0  0
   18.5612  -10.5695  -16.5660 N   0  0  0  0  0  0  0  0  0  0  0  0
   19.9232  -10.1749  -16.3317 C   0  0  1  0  0  0  0  0  0  0  0  0
   20.8132  -10.6067  -17.4953 C   0  0  0  0  0  0  0  0  0  0  0  0
   21.0691  -12.0935  -17.4552 C   0  0  0  0  0  0  0  0  0  0  0  0
   21.7755  -12.6047  -18.6603 C   0  0  0  0  0  0  0  0  0  0  0  0
   21.9229  -14.1037  -18.6882 C   0  0  0  0  0  0  0  0  0  0  0  0
   22.7035  -14.5347  -19.8257 N   0  0  0  0  0  0  0  0  0  0  0  0
   20.0233   -8.6825  -16.1466 C   0  0  0  0  0  0  0  0  0  0  0  0
   19.3341   -7.8848  -16.7970 O   0  0  0  0  0  0  0  0  0  0  0  0
   20.9339   -8.1927  -15.1999 N   0  0  0  0  0  0  0  0  0  0  0  0
   21.1045   -6.7305  -14.9482 C   0  0  1  0  0  0  0  0  0  0  0  0
   21.7797   -6.5595  -13.6209 C   0  0  0  0  0  0  0  0  0  0  0  0
   22.0976   -5.2094  -13.2077 C   0  0  0  0  0  0  0  0  0  0  0  0
   23.1802   -4.6562  -13.3888 O   0  0  0  0  0  0  0  0  0  0  0  0
   21.9384   -6.1683  -16.0411 C   0  0  0  0  0  0  0  0  0  0  0  0
   21.7701   -4.9429  -16.3703 O   0  0  0  0  0  0  0  0  0  0  0  0
   21.0709   -4.4962  -12.5501 O   0  0  0  0  0  0  0  0  0  0  0  0
   22.8744   -6.9064  -16.7041 O   0  0  0  0  0  0  0  0  0  0  0  0
  2  1  1  1
  2  4  1  0
  3  2  1  0
  4  6  1  0
  5  4  2  0
  6  7  1  0
  7  8  1  6
  7 13  1  0
  8  9  1  0
  9 10  1  0
 10 11  1  0
 11 12  1  0
 13 14  2  0
 15 13  1  0
 15 16  1  0
 16 17  1  1
 18 17  1  0
 19 18  2  0
 20 16  1  0
 20 23  1  0
 21 20  2  0
 22 18  1  0
M  END
$$$$
