AKD.pdb
     RDKit          3D

 23 22  0  0  1  0  0  0  0  0999 V2000
   19.6005  -13.3541  -19.1207 C   0  0  0  0  0  0  0  0  0  0  0  0
   20.6990  -12.7681  -18.2550 C   0  0  2  0  0  0  0  0  0  0  0  0
   20.8835  -13.6356  -17.1103 N   0  0  0  0  0  0  0  0  0  0  0  0
   20.2055  -11.4331  -17.7902 C   0  0  0  0  0  0  0  0  0  0  0  0
   19.9721  -10.4953  -18.5823 O   0  0  0  0  0  0  0  0  0  0  0  0
   19.9854  -11.1955  -16.4005 N   0  0  0  0  0  0  0  0  0  0  0  0
   19.3950   -9.9668  -15.9453 C   0  0  1  0  0  0  0  0  0  0  0  0
   18.2916  -10.2481  -14.9276 C   0  0  0  0  0  0  0  0  0  0  0  0
   16.9624  -10.4457  -15.6145 C   0  0  0  0  0  0  0  0  0  0  0  0
   15.9897  -11.2289  -14.8064 C   0  0  0  0  0  0  0  0  0  0  0  0
   14.6383  -11.3751  -15.4561 C   0  0  0  0  0  0  0  0  0  0  0  0
   13.7710  -12.2319  -14.6798 N   0  0  0  0  0  0  0  0  0  0  0  0
   20.4363   -9.0704  -15.3257 C   0  0  0  0  0  0  0  0  0  0  0  0
   21.3599   -9.5095  -14.6269 O   0  0  0  0  0  0  0  0  0  0  0  0
   20.3443   -7.6909  -15.5573 N   0  0  0  0  0  0  0  0  0  0  0  0
   21.3731   -6.7331  -15.0527 C   0  0  1  0  0  0  0  0  0  0  0  0
   21.2858   -5.4790  -15.8691 C   0  0  0  0  0  0  0  0  0  0  0  0
   22.1343   -4.3734  -15.4789 C   0  0  0  0  0  0  0  0  0  0  0  0
   23.2236   -4.4872  -14.9209 O   0  0  0  0  0  0  0  0  0  0  0  0
   21.0821   -6.4539  -13.6233 C   0  0  0  0  0  0  0  0  0  0  0  0
   19.8597   -6.3634  -13.2544 O   0  0  0  0  0  0  0  0  0  0  0  0
   21.6522   -3.0785  -15.7722 O   0  0  0  0  0  0  0  0  0  0  0  0
   22.0654   -6.2918  -12.6921 O   0  0  0  0  0  0  0  0  0  0  0  0
  2  1  1  6
  2  4  1  0
  3  2  1  0
  4  6  1  0
  5  4  2  0
  6  7  1  0
  7  8  1  1
  7 13  1  0
  8  9  1  0
  9 10  1  0
 10 11  1  0
 11 12  1  0
 13 14  2  0
 15 13  1  0
 15 16  1  0
 16 17  1  6
 18 17  1  0
 19 18  2  0
 20 16  1  0
 20 23  1  0
 21 20  2  0
 22 18  1  0
M  END
$$$$
