AKD.pdb
     RDKit          3D

 23 22  0  0  1  0  0  0  0  0999 V2000
   25.7436   -9.6751  -14.5747 C   0  0  0  0  0  0  0  0  0  0  0  0
   25.3136  -10.3449  -15.8654 C   0  0  2  0  0  0  0  0  0  0  0  0
   26.3337  -10.0996  -16.8636 N   0  0  0  0  0  0  0  0  0  0  0  0
   24.0400   -9.6785  -16.2848 C   0  0  0  0  0  0  0  0  0  0  0  0
   24.0280   -8.6050  -16.9241 O   0  0  0  0  0  0  0  0  0  0  0  0
   22.7824  -10.2674  -15.9568 N   0  0  0  0  0  0  0  0  0  0  0  0
   21.5531   -9.7031  -16.4425 C   0  0  1  0  0  0  0  0  0  0  0  0
   20.4401  -10.7487  -16.4237 C   0  0  0  0  0  0  0  0  0  0  0  0
   19.2040  -10.2327  -17.1193 C   0  0  0  0  0  0  0  0  0  0  0  0
   18.1053  -11.2327  -17.1919 C   0  0  0  0  0  0  0  0  0  0  0  0
   16.9221  -10.7776  -18.0058 C   0  0  0  0  0  0  0  0  0  0  0  0
   15.9341  -11.8252  -18.1295 N   0  0  0  0  0  0  0  0  0  0  0  0
   21.1439   -8.5154  -15.6095 C   0  0  0  0  0  0  0  0  0  0  0  0
   21.2632   -8.4960  -14.3768 O   0  0  0  0  0  0  0  0  0  0  0  0
   20.6103   -7.3983  -16.2671 N   0  0  0  0  0  0  0  0  0  0  0  0
   20.1345   -6.1941  -15.5229 C   0  0  1  0  0  0  0  0  0  0  0  0
   20.6062   -4.9743  -16.2553 C   0  0  0  0  0  0  0  0  0  0  0  0
   20.1426   -3.6908  -15.7732 C   0  0  0  0  0  0  0  0  0  0  0  0
   19.4166   -3.5288  -14.7947 O   0  0  0  0  0  0  0  0  0  0  0  0
   18.6508   -6.2390  -15.4726 C   0  0  0  0  0  0  0  0  0  0  0  0
   18.0603   -5.7908  -14.4291 O   0  0  0  0  0  0  0  0  0  0  0  0
   20.5703   -2.5564  -16.4982 O   0  0  0  0  0  0  0  0  0  0  0  0
   17.8966   -6.7375  -16.4939 O   0  0  0  0  0  0  0  0  0  0  0  0
  2  1  1  1
  2  4  1  0
  3  2  1  0
  4  6  1  0
  5  4  2  0
  6  7  1  0
  7  8  1  1
  7 13  1  0
  8  9  1  0
  9 10  1  0
 10 11  1  0
 11 12  1  0
 13 14  2  0
 15 13  1  0
 15 16  1  0
 16 17  1  6
 18 17  1  0
 19 18  2  0
 20 16  1  0
 20 23  1  0
 21 20  2  0
 22 18  1  0
M  END
$$$$
