WDV.pdb
     RDKit          3D

 30 31  0  0  1  0  0  0  0  0999 V2000
    6.5979  -17.5340   24.4902 N   0  0  0  0  0  0  0  0  0  0  0  0
    7.7056  -16.5802   24.4592 C   0  0  1  0  0  0  0  0  0  0  0  0
    7.6576  -15.7390   25.6928 C   0  0  0  0  0  0  0  0  0  0  0  0
    6.6153  -14.7170   25.7644 C   0  0  0  0  0  0  0  0  0  0  0  0
    5.2783  -14.8756   26.1438 C   0  0  0  0  0  0  0  0  0  0  0  0
    4.6397  -13.7061   26.0587 N   0  0  0  0  0  0  0  0  0  0  0  0
    5.5048  -12.7773   25.6372 C   0  0  0  0  0  0  0  0  0  0  0  0
    5.3477  -11.4002   25.3993 C   0  0  0  0  0  0  0  0  0  0  0  0
    6.3963  -10.6157   24.9774 C   0  0  0  0  0  0  0  0  0  0  0  0
    7.6196  -11.2201   24.7911 C   0  0  0  0  0  0  0  0  0  0  0  0
    7.7666  -12.5652   25.0248 C   0  0  0  0  0  0  0  0  0  0  0  0
    6.7331  -13.3749   25.4479 C   0  0  0  0  0  0  0  0  0  0  0  0
    8.9869  -17.2504   24.1895 C   0  0  0  0  0  0  0  0  0  0  0  0
    9.2908  -18.3861   24.6301 O   0  0  0  0  0  0  0  0  0  0  0  0
   10.0094  -16.6269   23.3776 N   0  0  0  0  0  0  0  0  0  0  0  0
   11.4023  -16.9070   23.5379 C   0  0  1  0  0  0  0  0  0  0  0  0
   12.2501  -16.2998   22.4425 C   0  0  0  0  0  0  0  0  0  0  0  0
   13.5440  -16.9752   22.2722 C   0  0  0  0  0  0  0  0  0  0  0  0
   13.7867  -17.9868   22.9881 O   0  0  0  0  0  0  0  0  0  0  0  0
   11.9044  -16.5476   24.8923 C   0  0  0  0  0  0  0  0  0  0  0  0
   12.9748  -15.9108   25.0486 O   0  0  0  0  0  0  0  0  0  0  0  0
   14.5148  -16.5839   21.3857 O   0  0  0  0  0  0  0  0  0  0  0  0
   11.3768  -14.2376   27.1461 C   0  0  0  0  0  0  0  0  0  0  0  0
   11.2045  -15.4652   28.0413 C   0  0  1  0  0  0  0  0  0  0  0  0
    9.7950  -15.6017   28.5245 C   0  0  0  0  0  0  0  0  0  0  0  0
   11.7418  -16.6695   27.3468 C   0  0  2  0  0  0  0  0  0  0  0  0
   11.1614  -16.9294   26.0596 N   0  0  0  0  0  0  0  0  0  0  0  0
   11.5924  -17.8707   28.2342 C   0  0  0  0  0  0  0  0  0  0  0  0
   12.1183  -17.9391   29.5044 O   0  0  0  0  0  0  0  0  0  0  0  0
   10.9581  -18.8909   27.8297 O   0  0  0  0  0  0  0  0  0  0  0  0
  2 13  1  0
  2  3  1  0
  2  1  1  1
  3  4  1  0
  4  5  2  0
  4 12  1  0
  5  6  1  0
  6  7  1  0
  7  8  2  0
  9  8  1  0
 10  9  2  0
 11 12  2  0
 11 10  1  0
 12  7  1  0
 13 14  2  0
 15 16  1  0
 15 13  1  0
 16 20  1  0
 17 18  1  0
 16 17  1  6
 18 22  1  0
 19 18  2  0
 20 21  2  0
 24 23  1  6
 24 26  1  0
 25 24  1  0
 26 28  1  0
 27 20  1  0
 26 27  1  6
 28 30  2  0
 28 29  1  0
M  END
$$$$
