WDV.pdb
     RDKit          3D

 30 31  0  0  1  0  0  0  0  0999 V2000
    7.5363  -17.3234   21.6877 N   0  0  0  0  0  0  0  0  0  0  0  0
    8.1439  -16.4001   22.6448 C   0  0  1  0  0  0  0  0  0  0  0  0
    7.0613  -15.7024   23.4017 C   0  0  0  0  0  0  0  0  0  0  0  0
    7.0511  -14.2416   23.3593 C   0  0  0  0  0  0  0  0  0  0  0  0
    7.3845  -13.4088   22.2860 C   0  0  0  0  0  0  0  0  0  0  0  0
    7.2684  -12.1295   22.6500 N   0  0  0  0  0  0  0  0  0  0  0  0
    6.8696  -12.0834   23.9257 C   0  0  0  0  0  0  0  0  0  0  0  0
    6.5874  -10.9969   24.7728 C   0  0  0  0  0  0  0  0  0  0  0  0
    6.1663  -11.1822   26.0696 C   0  0  0  0  0  0  0  0  0  0  0  0
    6.0265  -12.4748   26.5237 C   0  0  0  0  0  0  0  0  0  0  0  0
    6.3039  -13.5315   25.6917 C   0  0  0  0  0  0  0  0  0  0  0  0
    6.7273  -13.3747   24.3883 C   0  0  0  0  0  0  0  0  0  0  0  0
    9.1696  -17.0673   23.4611 C   0  0  0  0  0  0  0  0  0  0  0  0
    8.9130  -17.8142   24.4370 O   0  0  0  0  0  0  0  0  0  0  0  0
   10.5803  -16.9006   23.1859 N   0  0  0  0  0  0  0  0  0  0  0  0
   11.6016  -17.3681   24.0706 C   0  0  1  0  0  0  0  0  0  0  0  0
   12.9545  -17.4651   23.4015 C   0  0  0  0  0  0  0  0  0  0  0  0
   13.3299  -18.8429   23.0551 C   0  0  0  0  0  0  0  0  0  0  0  0
   12.5271  -19.7715   23.3515 O   0  0  0  0  0  0  0  0  0  0  0  0
   11.6627  -16.5860   25.3356 C   0  0  0  0  0  0  0  0  0  0  0  0
   12.1682  -15.4377   25.3744 O   0  0  0  0  0  0  0  0  0  0  0  0
   14.4977  -19.1966   22.4285 O   0  0  0  0  0  0  0  0  0  0  0  0
    8.8129  -15.9757   27.7528 C   0  0  0  0  0  0  0  0  0  0  0  0
   10.1890  -15.3333   27.9317 C   0  0  1  0  0  0  0  0  0  0  0  0
   10.2764  -14.5650   29.2126 C   0  0  0  0  0  0  0  0  0  0  0  0
   11.2493  -16.3656   27.7535 C   0  0  2  0  0  0  0  0  0  0  0  0
   11.1366  -17.1409   26.5505 N   0  0  0  0  0  0  0  0  0  0  0  0
   11.2778  -17.2696   28.9513 C   0  0  0  0  0  0  0  0  0  0  0  0
   11.6873  -16.8552   30.1984 O   0  0  0  0  0  0  0  0  0  0  0  0
   10.9148  -18.4798   28.8491 O   0  0  0  0  0  0  0  0  0  0  0  0
  2 13  1  0
  2  3  1  0
  2  1  1  6
  3  4  1  0
  4  5  2  0
  4 12  1  0
  5  6  1  0
  6  7  1  0
  7  8  2  0
  9  8  1  0
 10  9  2  0
 11 12  2  0
 11 10  1  0
 12  7  1  0
 13 14  2  0
 15 16  1  0
 15 13  1  0
 16 20  1  0
 17 18  1  0
 16 17  1  6
 18 22  1  0
 19 18  2  0
 20 21  2  0
 24 23  1  1
 24 26  1  0
 25 24  1  0
 26 28  1  0
 27 20  1  0
 26 27  1  6
 28 30  2  0
 28 29  1  0
M  END
$$$$
