WDV.pdb
     RDKit          3D

 30 31  0  0  1  0  0  0  0  0999 V2000
    6.5129  -17.1942   24.4903 N   0  0  0  0  0  0  0  0  0  0  0  0
    7.7482  -16.4272   24.3373 C   0  0  1  0  0  0  0  0  0  0  0  0
    7.9084  -15.5233   25.5159 C   0  0  0  0  0  0  0  0  0  0  0  0
    6.8671  -14.5216   25.7360 C   0  0  0  0  0  0  0  0  0  0  0  0
    5.5215  -14.7338   26.0540 C   0  0  0  0  0  0  0  0  0  0  0  0
    4.8878  -13.5629   26.1535 N   0  0  0  0  0  0  0  0  0  0  0  0
    5.7643  -12.5816   25.9136 C   0  0  0  0  0  0  0  0  0  0  0  0
    5.6157  -11.1832   25.9079 C   0  0  0  0  0  0  0  0  0  0  0  0
    6.6754  -10.3451   25.6473 C   0  0  0  0  0  0  0  0  0  0  0  0
    7.9012  -10.9169   25.3884 C   0  0  0  0  0  0  0  0  0  0  0  0
    8.0398  -12.2831   25.3952 C   0  0  0  0  0  0  0  0  0  0  0  0
    6.9952  -13.1462   25.6530 C   0  0  0  0  0  0  0  0  0  0  0  0
    8.8928  -17.3019   24.0398 C   0  0  0  0  0  0  0  0  0  0  0  0
    8.9971  -18.4842   24.4492 O   0  0  0  0  0  0  0  0  0  0  0  0
   10.0044  -16.8439   23.2348 N   0  0  0  0  0  0  0  0  0  0  0  0
   11.3544  -17.2463   23.4795 C   0  0  1  0  0  0  0  0  0  0  0  0
   12.2829  -16.9023   22.3363 C   0  0  0  0  0  0  0  0  0  0  0  0
   13.6325  -17.4597   22.5006 C   0  0  0  0  0  0  0  0  0  0  0  0
   13.7392  -18.6704   22.8436 O   0  0  0  0  0  0  0  0  0  0  0  0
   11.8710  -16.7480   24.7835 C   0  0  0  0  0  0  0  0  0  0  0  0
   12.8929  -16.0222   24.8514 O   0  0  0  0  0  0  0  0  0  0  0  0
   14.7936  -16.7556   22.3071 O   0  0  0  0  0  0  0  0  0  0  0  0
   10.6283  -14.2984   26.6230 C   0  0  0  0  0  0  0  0  0  0  0  0
   10.7576  -15.3694   27.7067 C   0  0  1  0  0  0  0  0  0  0  0  0
    9.4186  -15.8155   28.2036 C   0  0  0  0  0  0  0  0  0  0  0  0
   11.6369  -16.4698   27.2194 C   0  0  2  0  0  0  0  0  0  0  0  0
   11.1987  -17.0949   26.0035 N   0  0  0  0  0  0  0  0  0  0  0  0
   11.8016  -17.4983   28.3001 C   0  0  0  0  0  0  0  0  0  0  0  0
   12.3674  -17.2212   29.5239 O   0  0  0  0  0  0  0  0  0  0  0  0
   11.4132  -18.6905   28.1142 O   0  0  0  0  0  0  0  0  0  0  0  0
  2 13  1  0
  2  3  1  0
  2  1  1  1
  3  4  1  0
  4  5  2  0
  4 12  1  0
  5  6  1  0
  6  7  1  0
  7  8  2  0
  9  8  1  0
 10  9  2  0
 11 12  2  0
 11 10  1  0
 12  7  1  0
 13 14  2  0
 15 16  1  0
 15 13  1  0
 16 20  1  0
 17 18  1  0
 16 17  1  6
 18 22  1  0
 19 18  2  0
 20 21  2  0
 24 23  1  6
 24 26  1  0
 25 24  1  0
 26 28  1  0
 27 20  1  0
 26 27  1  6
 28 30  2  0
 28 29  1  0
M  END
$$$$
