WDV.pdb
     RDKit          3D

 30 31  0  0  1  0  0  0  0  0999 V2000
    7.0124  -17.5500   22.7738 N   0  0  0  0  0  0  0  0  0  0  0  0
    8.0689  -16.5520   22.6144 C   0  0  1  0  0  0  0  0  0  0  0  0
    7.5227  -15.2059   22.9627 C   0  0  0  0  0  0  0  0  0  0  0  0
    6.8634  -15.0675   24.2597 C   0  0  0  0  0  0  0  0  0  0  0  0
    6.0891  -16.0150   24.9376 C   0  0  0  0  0  0  0  0  0  0  0  0
    5.6440  -15.5006   26.0865 N   0  0  0  0  0  0  0  0  0  0  0  0
    6.0955  -14.2464   26.1956 C   0  0  0  0  0  0  0  0  0  0  0  0
    5.9305  -13.2836   27.2072 C   0  0  0  0  0  0  0  0  0  0  0  0
    6.5088  -12.0381   27.1207 C   0  0  0  0  0  0  0  0  0  0  0  0
    7.2629  -11.7536   26.0040 C   0  0  0  0  0  0  0  0  0  0  0  0
    7.4201  -12.6978   25.0194 C   0  0  0  0  0  0  0  0  0  0  0  0
    6.8520  -13.9533   25.0804 C   0  0  0  0  0  0  0  0  0  0  0  0
    9.2964  -16.9485   23.3213 C   0  0  0  0  0  0  0  0  0  0  0  0
    9.3545  -17.8866   24.1538 O   0  0  0  0  0  0  0  0  0  0  0  0
   10.5513  -16.2635   23.0985 N   0  0  0  0  0  0  0  0  0  0  0  0
   11.7674  -16.6466   23.7455 C   0  0  1  0  0  0  0  0  0  0  0  0
   12.9906  -16.3738   22.8990 C   0  0  0  0  0  0  0  0  0  0  0  0
   12.9956  -17.1210   21.6337 C   0  0  0  0  0  0  0  0  0  0  0  0
   12.4738  -18.2709   21.6190 O   0  0  0  0  0  0  0  0  0  0  0  0
   11.8955  -16.0652   25.1099 C   0  0  0  0  0  0  0  0  0  0  0  0
   12.9955  -15.6449   25.5444 O   0  0  0  0  0  0  0  0  0  0  0  0
   13.5298  -16.6571   20.4586 O   0  0  0  0  0  0  0  0  0  0  0  0
   10.7102  -13.1057   26.6346 C   0  0  0  0  0  0  0  0  0  0  0  0
   10.2159  -14.1962   27.5857 C   0  0  1  0  0  0  0  0  0  0  0  0
    8.7234  -14.3008   27.5765 C   0  0  0  0  0  0  0  0  0  0  0  0
   10.9293  -15.4725   27.2964 C   0  0  2  0  0  0  0  0  0  0  0  0
   10.7453  -15.9746   25.9641 N   0  0  0  0  0  0  0  0  0  0  0  0
   10.5279  -16.5123   28.3016 C   0  0  0  0  0  0  0  0  0  0  0  0
   10.7423  -16.3749   29.6543 O   0  0  0  0  0  0  0  0  0  0  0  0
    9.9619  -17.5823   27.9251 O   0  0  0  0  0  0  0  0  0  0  0  0
  2 13  1  0
  2  3  1  0
  2  1  1  1
  3  4  1  0
  4  5  2  0
  4 12  1  0
  5  6  1  0
  6  7  1  0
  7  8  2  0
  9  8  1  0
 10  9  2  0
 11 12  2  0
 11 10  1  0
 12  7  1  0
 13 14  2  0
 15 16  1  0
 15 13  1  0
 16 20  1  0
 17 18  1  0
 16 17  1  6
 18 22  1  0
 19 18  2  0
 20 21  2  0
 24 23  1  6
 24 26  1  0
 25 24  1  0
 26 28  1  0
 27 20  1  0
 26 27  1  6
 28 30  2  0
 28 29  1  0
M  END
$$$$
