WDV.pdb
     RDKit          3D

 30 31  0  0  1  0  0  0  0  0999 V2000
    6.6752  -17.3561   23.6878 N   0  0  0  0  0  0  0  0  0  0  0  0
    7.7977  -16.4821   24.0252 C   0  0  1  0  0  0  0  0  0  0  0  0
    7.6482  -16.0222   25.4386 C   0  0  0  0  0  0  0  0  0  0  0  0
    6.6998  -14.9394   25.6921 C   0  0  0  0  0  0  0  0  0  0  0  0
    5.3700  -15.0405   26.1140 C   0  0  0  0  0  0  0  0  0  0  0  0
    4.8301  -13.8233   26.2112 N   0  0  0  0  0  0  0  0  0  0  0  0
    5.7537  -12.9183   25.8697 C   0  0  0  0  0  0  0  0  0  0  0  0
    5.7048  -11.5138   25.8181 C   0  0  0  0  0  0  0  0  0  0  0  0
    6.7989  -10.7658   25.4486 C   0  0  0  0  0  0  0  0  0  0  0  0
    7.9584  -11.4352   25.1259 C   0  0  0  0  0  0  0  0  0  0  0  0
    7.9998  -12.8068   25.1779 C   0  0  0  0  0  0  0  0  0  0  0  0
    6.9187  -13.5809   25.5447 C   0  0  0  0  0  0  0  0  0  0  0  0
    9.0866  -17.1046   23.6863 C   0  0  0  0  0  0  0  0  0  0  0  0
    9.2996  -18.3414   23.7238 O   0  0  0  0  0  0  0  0  0  0  0  0
   10.2250  -16.3104   23.2778 N   0  0  0  0  0  0  0  0  0  0  0  0
   11.5755  -16.7438   23.4583 C   0  0  1  0  0  0  0  0  0  0  0  0
   12.5514  -15.9967   22.5769 C   0  0  0  0  0  0  0  0  0  0  0  0
   13.9124  -16.5486   22.6252 C   0  0  0  0  0  0  0  0  0  0  0  0
   14.0535  -17.7975   22.5028 O   0  0  0  0  0  0  0  0  0  0  0  0
   11.9936  -16.7285   24.8868 C   0  0  0  0  0  0  0  0  0  0  0  0
   13.1408  -17.0960   25.2396 O   0  0  0  0  0  0  0  0  0  0  0  0
   15.0495  -15.8004   22.7948 O   0  0  0  0  0  0  0  0  0  0  0  0
   11.2899  -13.7053   27.1723 C   0  0  0  0  0  0  0  0  0  0  0  0
   11.0395  -14.9755   27.9860 C   0  0  1  0  0  0  0  0  0  0  0  0
    9.6071  -15.0894   28.4033 C   0  0  0  0  0  0  0  0  0  0  0  0
   11.5653  -16.1562   27.2437 C   0  0  2  0  0  0  0  0  0  0  0  0
   11.0774  -16.2868   25.8998 N   0  0  0  0  0  0  0  0  0  0  0  0
   11.2803  -17.4076   28.0219 C   0  0  0  0  0  0  0  0  0  0  0  0
   11.7279  -17.6140   29.3070 O   0  0  0  0  0  0  0  0  0  0  0  0
   10.5977  -18.3421   27.5044 O   0  0  0  0  0  0  0  0  0  0  0  0
  2 13  1  0
  2  3  1  0
  2  1  1  1
  3  4  1  0
  4  5  2  0
  4 12  1  0
  5  6  1  0
  6  7  1  0
  7  8  2  0
  9  8  1  0
 10  9  2  0
 11 12  2  0
 11 10  1  0
 12  7  1  0
 13 14  2  0
 15 16  1  0
 15 13  1  0
 16 20  1  0
 17 18  1  0
 16 17  1  6
 18 22  1  0
 19 18  2  0
 20 21  2  0
 24 23  1  6
 24 26  1  0
 25 24  1  0
 26 28  1  0
 27 20  1  0
 26 27  1  6
 28 30  2  0
 28 29  1  0
M  END
$$$$
