SDA.pdb
     RDKit          3D

 20 19  0  0  1  0  0  0  0  0999 V2000
   39.5038  -10.4174   -5.8220 O   0  0  0  0  0  0  0  0  0  0  0  0
   39.5799   -9.6137   -6.9391 C   0  0  0  0  0  0  0  0  0  0  0  0
   40.5130  -10.1602   -7.9988 C   0  0  2  0  0  0  0  0  0  0  0  0
   41.8391  -10.2103   -7.4710 N   0  0  0  0  0  0  0  0  0  0  0  0
   40.4648   -9.2201   -9.1457 C   0  0  0  0  0  0  0  0  0  0  0  0
   41.4576   -8.4654   -9.3301 O   0  0  0  0  0  0  0  0  0  0  0  0
   39.3241   -9.2132   -9.9683 N   0  0  0  0  0  0  0  0  0  0  0  0
   39.3056   -8.3327  -11.1511 C   0  0  1  0  0  0  0  0  0  0  0  0
   38.6949   -9.1321  -12.2331 C   0  0  0  0  0  0  0  0  0  0  0  0
   38.3925   -8.4866  -13.4935 C   0  0  0  0  0  0  0  0  0  0  0  0
   37.3597   -8.5122  -14.1740 O   0  0  0  0  0  0  0  0  0  0  0  0
   38.6008   -7.0747  -10.8231 C   0  0  0  0  0  0  0  0  0  0  0  0
   37.5487   -7.1351  -10.1502 O   0  0  0  0  0  0  0  0  0  0  0  0
   39.4383   -7.7026  -14.0362 O   0  0  0  0  0  0  0  0  0  0  0  0
   39.2950   -3.4840  -10.7393 C   0  0  0  0  0  0  0  0  0  0  0  0
   38.2932   -4.6271  -10.8822 C   0  0  2  0  0  0  0  0  0  0  0  0
   39.0487   -5.8003  -11.2278 N   0  0  0  0  0  0  0  0  0  0  0  0
   37.2422   -4.2997  -11.8536 C   0  0  0  0  0  0  0  0  0  0  0  0
   37.2146   -4.6949  -13.0477 O   0  0  0  0  0  0  0  0  0  0  0  0
   36.1944   -3.4929  -11.4310 O   0  0  0  0  0  0  0  0  0  0  0  0
  2  1  1  0
  3  5  1  0
  3  2  1  0
  3  4  1  1
  5  6  2  0
  7  8  1  0
  7  5  1  0
  9 10  1  0
  8  9  1  6
 10 14  1  0
 11 10  2  0
 12 13  2  0
 12  8  1  0
 16 15  1  6
 16 17  1  0
 16 18  1  0
 17 12  1  0
 18 20  1  0
 19 18  2  0
M  END
$$$$
