SDA.pdb
     RDKit          3D

 20 19  0  0  1  0  0  0  0  0999 V2000
   14.0981  -11.8183  -16.2313 O   0  0  0  0  0  0  0  0  0  0  0  0
   15.1022  -11.8301  -15.2872 C   0  0  0  0  0  0  0  0  0  0  0  0
   16.4799  -12.0043  -15.8906 C   0  0  2  0  0  0  0  0  0  0  0  0
   17.0617  -13.2064  -15.3845 N   0  0  0  0  0  0  0  0  0  0  0  0
   17.2906  -10.8368  -15.4649 C   0  0  0  0  0  0  0  0  0  0  0  0
   17.4480  -10.6491  -14.2284 O   0  0  0  0  0  0  0  0  0  0  0  0
   17.8421   -9.9995  -16.4512 N   0  0  0  0  0  0  0  0  0  0  0  0
   18.6944   -8.8718  -16.0312 C   0  0  1  0  0  0  0  0  0  0  0  0
   19.9482   -9.0122  -16.8000 C   0  0  0  0  0  0  0  0  0  0  0  0
   20.9441   -9.9600  -16.3457 C   0  0  0  0  0  0  0  0  0  0  0  0
   21.3105  -10.2420  -15.1982 O   0  0  0  0  0  0  0  0  0  0  0  0
   17.9702   -7.5986  -16.2353 C   0  0  0  0  0  0  0  0  0  0  0  0
   17.4321   -7.3863  -17.3437 O   0  0  0  0  0  0  0  0  0  0  0  0
   21.6049  -10.6787  -17.3702 O   0  0  0  0  0  0  0  0  0  0  0  0
   16.2940   -5.0767  -14.2865 C   0  0  0  0  0  0  0  0  0  0  0  0
   17.1280   -5.3904  -15.5262 C   0  0  2  0  0  0  0  0  0  0  0  0
   17.8495   -6.6017  -15.2454 N   0  0  0  0  0  0  0  0  0  0  0  0
   17.9950   -4.2622  -15.8878 C   0  0  0  0  0  0  0  0  0  0  0  0
   17.5896   -3.1284  -16.2526 O   0  0  0  0  0  0  0  0  0  0  0  0
   19.3689   -4.4516  -15.8254 O   0  0  0  0  0  0  0  0  0  0  0  0
  2  1  1  0
  3  5  1  0
  3  2  1  0
  3  4  1  1
  5  6  2  0
  7  8  1  0
  7  5  1  0
  9 10  1  0
  8  9  1  6
 10 14  1  0
 11 10  2  0
 12 13  2  0
 12  8  1  0
 16 15  1  1
 16 17  1  0
 16 18  1  0
 17 12  1  0
 18 20  1  0
 19 18  2  0
M  END
$$$$
