SDA.pdb
     RDKit          3D

 20 19  0  0  1  0  0  0  0  0999 V2000
   26.0202  -11.3337  -17.1211 O   0  0  0  0  0  0  0  0  0  0  0  0
   25.0559  -10.3499  -17.1687 C   0  0  0  0  0  0  0  0  0  0  0  0
   23.7132  -10.8600  -17.6474 C   0  0  2  0  0  0  0  0  0  0  0  0
   23.8019  -11.1710  -19.0385 N   0  0  0  0  0  0  0  0  0  0  0  0
   22.7340   -9.7648  -17.4398 C   0  0  0  0  0  0  0  0  0  0  0  0
   22.5287   -8.9698  -18.3963 O   0  0  0  0  0  0  0  0  0  0  0  0
   22.0846   -9.6636  -16.1963 N   0  0  0  0  0  0  0  0  0  0  0  0
   21.1341   -8.5575  -15.9785 C   0  0  1  0  0  0  0  0  0  0  0  0
   19.9752   -9.1588  -15.2869 C   0  0  0  0  0  0  0  0  0  0  0  0
   18.9091   -8.2932  -14.8277 C   0  0  0  0  0  0  0  0  0  0  0  0
   18.2142   -7.4840  -15.4544 O   0  0  0  0  0  0  0  0  0  0  0  0
   21.8055   -7.4623  -15.2459 C   0  0  0  0  0  0  0  0  0  0  0  0
   22.4896   -7.7463  -14.2387 O   0  0  0  0  0  0  0  0  0  0  0  0
   18.6115   -8.3827  -13.4471 O   0  0  0  0  0  0  0  0  0  0  0  0
   22.8702   -4.0337  -15.8388 C   0  0  0  0  0  0  0  0  0  0  0  0
   22.4041   -5.1012  -14.8518 C   0  0  2  0  0  0  0  0  0  0  0  0
   21.7190   -6.1053  -15.6193 N   0  0  0  0  0  0  0  0  0  0  0  0
   21.5835   -4.5198  -13.7822 C   0  0  0  0  0  0  0  0  0  0  0  0
   20.3334   -4.6288  -13.6914 O   0  0  0  0  0  0  0  0  0  0  0  0
   22.2276   -3.7923  -12.7906 O   0  0  0  0  0  0  0  0  0  0  0  0
  2  1  1  0
  3  5  1  0
  3  2  1  0
  3  4  1  6
  5  6  2  0
  7  8  1  0
  7  5  1  0
  9 10  1  0
  8  9  1  1
 10 14  1  0
 11 10  2  0
 12 13  2  0
 12  8  1  0
 16 15  1  6
 16 17  1  0
 16 18  1  0
 17 12  1  0
 18 20  1  0
 19 18  2  0
M  END
$$$$
