SDA.pdb
     RDKit          3D

 20 19  0  0  1  0  0  0  0  0999 V2000
   20.2198  -10.8793  -15.2262 O   0  0  0  0  0  0  0  0  0  0  0  0
   18.9476  -11.2372  -15.6175 C   0  0  0  0  0  0  0  0  0  0  0  0
   17.9293  -11.1142  -14.5038 C   0  0  2  0  0  0  0  0  0  0  0  0
   16.6726  -11.6125  -14.9643 N   0  0  0  0  0  0  0  0  0  0  0  0
   17.8093   -9.6705  -14.1832 C   0  0  0  0  0  0  0  0  0  0  0  0
   17.2307   -8.9277  -15.0214 O   0  0  0  0  0  0  0  0  0  0  0  0
   18.3418   -9.1997  -12.9696 N   0  0  0  0  0  0  0  0  0  0  0  0
   18.2822   -7.7551  -12.6798 C   0  0  1  0  0  0  0  0  0  0  0  0
   17.8209   -7.6483  -11.2803 C   0  0  0  0  0  0  0  0  0  0  0  0
   17.7092   -6.3356  -10.6795 C   0  0  0  0  0  0  0  0  0  0  0  0
   17.8496   -5.2144  -11.1831 O   0  0  0  0  0  0  0  0  0  0  0  0
   19.5970   -7.1378  -12.9580 C   0  0  0  0  0  0  0  0  0  0  0  0
   20.6043   -7.5799  -12.3638 O   0  0  0  0  0  0  0  0  0  0  0  0
   17.3897   -6.3281   -9.3009 O   0  0  0  0  0  0  0  0  0  0  0  0
   21.0700   -4.8045  -15.4121 C   0  0  0  0  0  0  0  0  0  0  0  0
   21.0946   -5.5170  -14.0620 C   0  0  2  0  0  0  0  0  0  0  0  0
   19.7833   -6.0713  -13.8614 N   0  0  0  0  0  0  0  0  0  0  0  0
   21.5192   -4.6122  -12.9867 C   0  0  0  0  0  0  0  0  0  0  0  0
   20.7517   -4.0912  -12.1368 O   0  0  0  0  0  0  0  0  0  0  0  0
   22.8691   -4.3021  -12.8926 O   0  0  0  0  0  0  0  0  0  0  0  0
  2  1  1  0
  3  5  1  0
  3  2  1  0
  3  4  1  6
  5  6  2  0
  7  8  1  0
  7  5  1  0
  9 10  1  0
  8  9  1  1
 10 14  1  0
 11 10  2  0
 12 13  2  0
 12  8  1  0
 16 15  1  6
 16 17  1  0
 16 18  1  0
 17 12  1  0
 18 20  1  0
 19 18  2  0
M  END
$$$$
