SDA.pdb
     RDKit          3D

 20 19  0  0  1  0  0  0  0  0999 V2000
   17.8584  -11.6250  -16.7710 O   0  0  0  0  0  0  0  0  0  0  0  0
   18.0481  -10.3492  -16.2851 C   0  0  0  0  0  0  0  0  0  0  0  0
   19.5094   -9.9936  -16.1104 C   0  0  2  0  0  0  0  0  0  0  0  0
   20.1738  -11.0677  -15.4435 N   0  0  0  0  0  0  0  0  0  0  0  0
   19.5611   -8.7725  -15.2693 C   0  0  0  0  0  0  0  0  0  0  0  0
   18.8475   -8.7427  -14.2305 O   0  0  0  0  0  0  0  0  0  0  0  0
   20.3964   -7.7124  -15.6650 N   0  0  0  0  0  0  0  0  0  0  0  0
   20.5155   -6.5346  -14.7857 C   0  0  1  0  0  0  0  0  0  0  0  0
   21.9532   -6.4212  -14.4646 C   0  0  0  0  0  0  0  0  0  0  0  0
   22.4052   -5.2989  -13.6692 C   0  0  0  0  0  0  0  0  0  0  0  0
   23.1093   -4.3316  -13.9838 O   0  0  0  0  0  0  0  0  0  0  0  0
   19.9245   -5.3545  -15.4528 C   0  0  0  0  0  0  0  0  0  0  0  0
   20.3421   -5.0360  -16.5874 O   0  0  0  0  0  0  0  0  0  0  0  0
   21.9775   -5.3042  -12.3202 O   0  0  0  0  0  0  0  0  0  0  0  0
   16.9845   -3.1750  -15.0780 C   0  0  0  0  0  0  0  0  0  0  0  0
   18.4030   -3.4167  -15.5883 C   0  0  2  0  0  0  0  0  0  0  0  0
   18.9095   -4.5607  -14.8802 N   0  0  0  0  0  0  0  0  0  0  0  0
   19.2375   -2.2182  -15.4386 C   0  0  0  0  0  0  0  0  0  0  0  0
   19.0524   -1.1300  -16.0423 O   0  0  0  0  0  0  0  0  0  0  0  0
   20.3156   -2.2810  -14.5663 O   0  0  0  0  0  0  0  0  0  0  0  0
  2  1  1  0
  3  5  1  0
  3  2  1  0
  3  4  1  1
  5  6  2  0
  7  8  1  0
  7  5  1  0
  9 10  1  0
  8  9  1  6
 10 14  1  0
 11 10  2  0
 12 13  2  0
 12  8  1  0
 16 15  1  1
 16 17  1  0
 16 18  1  0
 17 12  1  0
 18 20  1  0
 19 18  2  0
M  END
$$$$
