SDA.pdb
     RDKit          3D

 20 19  0  0  1  0  0  0  0  0999 V2000
   11.9979  -11.7912  -11.1714 O   0  0  0  0  0  0  0  0  0  0  0  0
   12.4634  -11.6926  -12.4650 C   0  0  0  0  0  0  0  0  0  0  0  0
   13.8714  -12.2244  -12.6294 C   0  0  2  0  0  0  0  0  0  0  0  0
   13.9286  -13.5573  -12.1199 N   0  0  0  0  0  0  0  0  0  0  0  0
   14.7630  -11.3447  -11.8339 C   0  0  0  0  0  0  0  0  0  0  0  0
   15.0736  -11.7188  -10.6708 O   0  0  0  0  0  0  0  0  0  0  0  0
   15.2174  -10.1438  -12.4079 N   0  0  0  0  0  0  0  0  0  0  0  0
   16.2328   -9.3519  -11.6894 C   0  0  1  0  0  0  0  0  0  0  0  0
   17.1916   -8.9042  -12.7205 C   0  0  0  0  0  0  0  0  0  0  0  0
   18.3557   -8.1470  -12.3106 C   0  0  0  0  0  0  0  0  0  0  0  0
   18.7383   -7.8241  -11.1793 O   0  0  0  0  0  0  0  0  0  0  0  0
   15.5722   -8.2677  -10.9309 C   0  0  0  0  0  0  0  0  0  0  0  0
   14.7415   -7.5435  -11.5214 O   0  0  0  0  0  0  0  0  0  0  0  0
   19.1897   -7.7046  -13.3648 O   0  0  0  0  0  0  0  0  0  0  0  0
   15.3569   -7.0785   -7.4262 C   0  0  0  0  0  0  0  0  0  0  0  0
   15.2134   -6.8671   -8.9314 C   0  0  2  0  0  0  0  0  0  0  0  0
   15.8260   -8.0001   -9.5699 N   0  0  0  0  0  0  0  0  0  0  0  0
   15.7838   -5.5802   -9.3482 C   0  0  0  0  0  0  0  0  0  0  0  0
   15.2864   -4.4534   -9.0918 O   0  0  0  0  0  0  0  0  0  0  0  0
   16.9623   -5.5981  -10.0818 O   0  0  0  0  0  0  0  0  0  0  0  0
  2  1  1  0
  3  5  1  0
  3  2  1  0
  3  4  1  1
  5  6  2  0
  7  8  1  0
  7  5  1  0
  9 10  1  0
  8  9  1  6
 10 14  1  0
 11 10  2  0
 12 13  2  0
 12  8  1  0
 16 15  1  1
 16 17  1  0
 16 18  1  0
 17 12  1  0
 18 20  1  0
 19 18  2  0
M  END
$$$$
