KIK.pdb
     RDKit          3D

 27 26  0  0  1  0  0  0  0  0999 V2000
   20.0552  -21.7700  -10.9402 N   0  0  0  0  0  0  0  0  0  0  0  0
   20.2389  -21.8641  -12.3287 C   0  0  1  0  0  0  0  0  0  0  0  0
   19.1212  -21.6535  -13.2554 C   0  0  0  0  0  0  0  0  0  0  0  0
   17.9351  -22.4872  -13.2908 C   0  0  0  0  0  0  0  0  0  0  0  0
   17.0767  -22.8415  -12.1799 C   0  0  0  0  0  0  0  0  0  0  0  0
   15.6127  -22.7268  -12.2365 C   0  0  0  0  0  0  0  0  0  0  0  0
   15.0330  -24.0557  -11.8128 N   0  0  0  0  0  0  0  0  0  0  0  0
   21.3104  -20.8598  -12.7161 C   0  0  0  0  0  0  0  0  0  0  0  0
   21.0164  -19.7167  -13.1257 O   0  0  0  0  0  0  0  0  0  0  0  0
   26.6779  -22.1392  -11.1007 C   0  0  0  0  0  0  0  0  0  0  0  0
   25.4983  -21.9498  -11.9897 C   0  0  0  0  0  0  0  0  0  0  0  0
   24.9223  -20.5742  -12.0089 C   0  0  2  0  0  0  0  0  0  0  0  0
   24.4908  -20.2649  -10.5617 C   0  0  0  0  0  0  0  0  0  0  0  0
   23.7816  -20.3654  -12.9473 C   0  0  2  0  0  0  0  0  0  0  0  0
   22.6565  -21.2255  -12.6109 N   0  0  0  0  0  0  0  0  0  0  0  0
   24.1166  -20.4223  -14.3814 C   0  0  0  0  0  0  0  0  0  0  0  0
   23.8488  -21.4460  -15.0547 O   0  0  0  0  0  0  0  0  0  0  0  0
   24.7386  -19.3330  -15.0041 N   0  0  0  0  0  0  0  0  0  0  0  0
   25.1361  -19.3073  -16.4071 C   0  0  1  0  0  0  0  0  0  0  0  0
   24.3460  -18.2456  -17.0934 C   0  0  0  0  0  0  0  0  0  0  0  0
   23.2898  -18.7588  -18.0113 C   0  0  0  0  0  0  0  0  0  0  0  0
   22.5104  -17.6668  -18.6970 C   0  0  0  0  0  0  0  0  0  0  0  0
   21.4004  -18.1789  -19.5499 C   0  0  0  0  0  0  0  0  0  0  0  0
   20.6400  -17.1385  -20.1926 N   0  0  0  0  0  0  0  0  0  0  0  0
   26.6008  -19.1150  -16.4816 C   0  0  0  0  0  0  0  0  0  0  0  0
   27.2832  -19.6653  -17.3895 O   0  0  0  0  0  0  0  0  0  0  0  0
   27.2900  -18.3295  -15.5685 O   0  0  0  0  0  0  0  0  0  0  0  0
  2  1  1  1
  2  3  1  0
  3  4  1  0
  5  6  1  0
  5  4  1  0
  7  6  1  0
  8  2  1  0
  9  8  2  0
 11 10  1  0
 12 11  1  0
 12 13  1  1
 12 14  1  0
 14 15  1  6
 15  8  1  0
 16 17  2  0
 16 14  1  0
 18 16  1  0
 19 18  1  0
 20 21  1  0
 19 20  1  6
 21 22  1  0
 23 22  1  0
 23 24  1  0
 25 19  1  0
 26 25  2  0
 27 25  1  0
M  END
$$$$
