KIK.pdb
     RDKit          3D

 27 26  0  0  1  0  0  0  0  0999 V2000
   13.7435  -12.8516  -15.5482 N   0  0  0  0  0  0  0  0  0  0  0  0
   14.1650  -11.9014  -16.4917 C   0  0  1  0  0  0  0  0  0  0  0  0
   13.1929  -11.1279  -17.2722 C   0  0  0  0  0  0  0  0  0  0  0  0
   12.1111  -11.7246  -18.0316 C   0  0  0  0  0  0  0  0  0  0  0  0
   12.1236  -12.1045  -19.4287 C   0  0  0  0  0  0  0  0  0  0  0  0
   10.9357  -12.6176  -20.1253 C   0  0  0  0  0  0  0  0  0  0  0  0
   10.7771  -14.0718  -19.7491 N   0  0  0  0  0  0  0  0  0  0  0  0
   15.0313  -10.8886  -15.7634 C   0  0  0  0  0  0  0  0  0  0  0  0
   14.6609  -10.3631  -14.6921 O   0  0  0  0  0  0  0  0  0  0  0  0
   20.3252  -11.6940  -15.2928 C   0  0  0  0  0  0  0  0  0  0  0  0
   18.9078  -11.2507  -15.1830 C   0  0  0  0  0  0  0  0  0  0  0  0
   18.5876   -9.9522  -15.8430 C   0  0  2  0  0  0  0  0  0  0  0  0
   19.5040   -8.8975  -15.1918 C   0  0  0  0  0  0  0  0  0  0  0  0
   17.1614   -9.5221  -15.7628 C   0  0  2  0  0  0  0  0  0  0  0  0
   16.2717  -10.5378  -16.3065 N   0  0  0  0  0  0  0  0  0  0  0  0
   16.8685   -8.1808  -16.2987 C   0  0  0  0  0  0  0  0  0  0  0  0
   16.8915   -7.9734  -17.5354 O   0  0  0  0  0  0  0  0  0  0  0  0
   16.5632   -7.1255  -15.4301 N   0  0  0  0  0  0  0  0  0  0  0  0
   16.1861   -5.7862  -15.8672 C   0  0  1  0  0  0  0  0  0  0  0  0
   14.9576   -5.3848  -15.1242 C   0  0  0  0  0  0  0  0  0  0  0  0
   14.5347   -3.9732  -15.3483 C   0  0  0  0  0  0  0  0  0  0  0  0
   13.3814   -3.5484  -14.4768 C   0  0  0  0  0  0  0  0  0  0  0  0
   12.9620   -2.1352  -14.6986 C   0  0  0  0  0  0  0  0  0  0  0  0
   11.9128   -1.6995  -13.8137 N   0  0  0  0  0  0  0  0  0  0  0  0
   17.3377   -4.8799  -15.6665 C   0  0  0  0  0  0  0  0  0  0  0  0
   18.2317   -5.1436  -14.8156 O   0  0  0  0  0  0  0  0  0  0  0  0
   17.4916   -3.7085  -16.3946 O   0  0  0  0  0  0  0  0  0  0  0  0
  2  1  1  1
  2  3  1  0
  3  4  1  0
  5  6  1  0
  5  4  1  0
  7  6  1  0
  8  2  1  0
  9  8  2  0
 11 10  1  0
 12 11  1  0
 12 13  1  1
 12 14  1  0
 14 15  1  6
 15  8  1  0
 16 17  2  0
 16 14  1  0
 18 16  1  0
 19 18  1  0
 20 21  1  0
 19 20  1  1
 21 22  1  0
 23 22  1  0
 23 24  1  0
 25 19  1  0
 26 25  2  0
 27 25  1  0
M  END
$$$$
