KIK.pdb
     RDKit          3D

 27 26  0  0  1  0  0  0  0  0999 V2000
   42.8727  -13.4576   -9.8043 N   0  0  0  0  0  0  0  0  0  0  0  0
   42.4157  -13.2821   -8.4886 C   0  0  1  0  0  0  0  0  0  0  0  0
   43.2741  -13.5977   -7.3414 C   0  0  0  0  0  0  0  0  0  0  0  0
   44.0046  -14.8424   -7.1994 C   0  0  0  0  0  0  0  0  0  0  0  0
   45.3560  -15.1229   -7.6372 C   0  0  0  0  0  0  0  0  0  0  0  0
   46.0202  -16.4113   -7.3957 C   0  0  0  0  0  0  0  0  0  0  0  0
   47.4429  -16.2922   -7.8887 N   0  0  0  0  0  0  0  0  0  0  0  0
   42.0159  -11.8249   -8.3353 C   0  0  0  0  0  0  0  0  0  0  0  0
   42.5156  -10.9319   -9.0521 O   0  0  0  0  0  0  0  0  0  0  0  0
   36.8699   -8.8474   -7.4408 C   0  0  0  0  0  0  0  0  0  0  0  0
   38.3476   -8.8333   -7.2566 C   0  0  0  0  0  0  0  0  0  0  0  0
   39.0198  -10.1612   -7.3524 C   0  0  2  0  0  0  0  0  0  0  0  0
   38.3748  -11.0524   -6.2725 C   0  0  0  0  0  0  0  0  0  0  0  0
   40.5033  -10.1462   -7.1957 C   0  0  2  0  0  0  0  0  0  0  0  0
   41.0664  -11.4773   -7.3687 N   0  0  0  0  0  0  0  0  0  0  0  0
   41.0099   -9.4808   -5.9823 C   0  0  0  0  0  0  0  0  0  0  0  0
   40.8580  -10.0134   -4.8569 O   0  0  0  0  0  0  0  0  0  0  0  0
   41.6644   -8.2462   -6.0759 N   0  0  0  0  0  0  0  0  0  0  0  0
   42.2211   -7.5244   -4.9374 C   0  0  1  0  0  0  0  0  0  0  0  0
   43.7075   -7.5617   -5.0468 C   0  0  0  0  0  0  0  0  0  0  0  0
   44.4224   -6.7625   -4.0115 C   0  0  0  0  0  0  0  0  0  0  0  0
   45.9210   -6.7879   -4.1651 C   0  0  0  0  0  0  0  0  0  0  0  0
   46.6380   -6.0408   -3.0928 C   0  0  0  0  0  0  0  0  0  0  0  0
   48.0692   -6.0363   -3.2514 N   0  0  0  0  0  0  0  0  0  0  0  0
   41.6502   -6.1601   -4.9156 C   0  0  0  0  0  0  0  0  0  0  0  0
   41.1504   -5.6480   -5.9552 O   0  0  0  0  0  0  0  0  0  0  0  0
   41.6352   -5.3839   -3.7653 O   0  0  0  0  0  0  0  0  0  0  0  0
  2  1  1  6
  2  3  1  0
  3  4  1  0
  5  6  1  0
  5  4  1  0
  7  6  1  0
  8  2  1  0
  9  8  2  0
 11 10  1  0
 12 11  1  0
 12 13  1  1
 12 14  1  0
 14 15  1  1
 15  8  1  0
 16 17  2  0
 16 14  1  0
 18 16  1  0
 19 18  1  0
 20 21  1  0
 19 20  1  6
 21 22  1  0
 23 22  1  0
 23 24  1  0
 25 19  1  0
 26 25  2  0
 27 25  1  0
M  END
$$$$
