KIK.pdb
     RDKit          3D

 27 26  0  0  1  0  0  0  0  0999 V2000
   29.3978  -23.8321  -16.5638 N   0  0  0  0  0  0  0  0  0  0  0  0
   28.1496  -23.5025  -17.1150 C   0  0  1  0  0  0  0  0  0  0  0  0
   27.2453  -24.5436  -17.6157 C   0  0  0  0  0  0  0  0  0  0  0  0
   27.6089  -25.5025  -18.6411 C   0  0  0  0  0  0  0  0  0  0  0  0
   28.9192  -25.7170  -19.2185 C   0  0  0  0  0  0  0  0  0  0  0  0
   29.1672  -26.6898  -20.2917 C   0  0  0  0  0  0  0  0  0  0  0  0
   30.6236  -26.5840  -20.6777 N   0  0  0  0  0  0  0  0  0  0  0  0
   27.3737  -22.7335  -16.0599 C   0  0  0  0  0  0  0  0  0  0  0  0
   27.3165  -23.1269  -14.8755 O   0  0  0  0  0  0  0  0  0  0  0  0
   26.7608  -16.9634  -14.5744 C   0  0  0  0  0  0  0  0  0  0  0  0
   26.1202  -18.3076  -14.5581 C   0  0  0  0  0  0  0  0  0  0  0  0
   26.7072  -19.3107  -15.4927 C   0  0  2  0  0  0  0  0  0  0  0  0
   26.6479  -18.6801  -16.8982 C   0  0  0  0  0  0  0  0  0  0  0  0
   26.0515  -20.6506  -15.4962 C   0  0  2  0  0  0  0  0  0  0  0  0
   26.7088  -21.5582  -16.4251 N   0  0  0  0  0  0  0  0  0  0  0  0
   24.5876  -20.6439  -15.6663 C   0  0  0  0  0  0  0  0  0  0  0  0
   24.0812  -20.4153  -16.7908 O   0  0  0  0  0  0  0  0  0  0  0  0
   23.7492  -20.8916  -14.5722 N   0  0  0  0  0  0  0  0  0  0  0  0
   22.2926  -20.9112  -14.6427 C   0  0  1  0  0  0  0  0  0  0  0  0
   21.7835  -21.7098  -13.4913 C   0  0  0  0  0  0  0  0  0  0  0  0
   20.2981  -21.8102  -13.4191 C   0  0  0  0  0  0  0  0  0  0  0  0
   19.8076  -22.5720  -12.2153 C   0  0  0  0  0  0  0  0  0  0  0  0
   18.3219  -22.6679  -12.1414 C   0  0  0  0  0  0  0  0  0  0  0  0
   17.8406  -23.2173  -10.9004 N   0  0  0  0  0  0  0  0  0  0  0  0
   21.8006  -19.5167  -14.6764 C   0  0  0  0  0  0  0  0  0  0  0  0
   22.3858  -18.6053  -14.0285 O   0  0  0  0  0  0  0  0  0  0  0  0
   20.6848  -19.1447  -15.4128 O   0  0  0  0  0  0  0  0  0  0  0  0
  2  1  1  1
  2  3  1  0
  3  4  1  0
  5  6  1  0
  5  4  1  0
  7  6  1  0
  8  2  1  0
  9  8  2  0
 11 10  1  0
 12 11  1  0
 12 13  1  6
 12 14  1  0
 14 15  1  6
 15  8  1  0
 16 17  2  0
 16 14  1  0
 18 16  1  0
 19 18  1  0
 20 21  1  0
 19 20  1  1
 21 22  1  0
 23 22  1  0
 23 24  1  0
 25 19  1  0
 26 25  2  0
 27 25  1  0
M  END
$$$$
