KIK.pdb
     RDKit          3D

 27 26  0  0  1  0  0  0  0  0999 V2000
   27.3918  -17.6775  -15.5465 N   0  0  0  0  0  0  0  0  0  0  0  0
   26.9636  -18.6927  -16.4163 C   0  0  1  0  0  0  0  0  0  0  0  0
   27.9202  -19.4229  -17.2555 C   0  0  0  0  0  0  0  0  0  0  0  0
   28.7134  -18.8036  -18.2997 C   0  0  0  0  0  0  0  0  0  0  0  0
   29.1721  -17.4315  -18.3578 C   0  0  0  0  0  0  0  0  0  0  0  0
   29.9304  -16.8926  -19.4954 C   0  0  0  0  0  0  0  0  0  0  0  0
   30.9290  -17.9438  -19.9187 N   0  0  0  0  0  0  0  0  0  0  0  0
   26.2447  -19.7369  -15.5799 C   0  0  0  0  0  0  0  0  0  0  0  0
   25.8528  -20.8143  -16.0762 O   0  0  0  0  0  0  0  0  0  0  0  0
   28.2863  -21.1571  -10.9629 C   0  0  0  0  0  0  0  0  0  0  0  0
   27.4608  -21.1316  -12.2021 C   0  0  0  0  0  0  0  0  0  0  0  0
   26.0870  -20.5720  -12.0476 C   0  0  2  0  0  0  0  0  0  0  0  0
   25.3333  -21.5283  -11.1022 C   0  0  0  0  0  0  0  0  0  0  0  0
   25.3213  -20.3827  -13.3139 C   0  0  2  0  0  0  0  0  0  0  0  0
   26.0174  -19.4840  -14.2230 N   0  0  0  0  0  0  0  0  0  0  0  0
   23.9015  -20.0218  -13.1529 C   0  0  0  0  0  0  0  0  0  0  0  0
   23.5760  -19.0116  -12.4845 O   0  0  0  0  0  0  0  0  0  0  0  0
   22.9031  -20.8058  -13.7445 N   0  0  0  0  0  0  0  0  0  0  0  0
   21.4736  -20.5450  -13.6195 C   0  0  1  0  0  0  0  0  0  0  0  0
   20.7871  -21.1520  -14.7955 C   0  0  0  0  0  0  0  0  0  0  0  0
   19.3105  -20.9502  -14.8196 C   0  0  0  0  0  0  0  0  0  0  0  0
   18.6176  -21.7298  -15.9069 C   0  0  0  0  0  0  0  0  0  0  0  0
   17.1465  -21.4948  -15.9571 C   0  0  0  0  0  0  0  0  0  0  0  0
   16.4709  -22.2805  -16.9571 N   0  0  0  0  0  0  0  0  0  0  0  0
   21.0093  -21.0630  -12.3142 C   0  0  0  0  0  0  0  0  0  0  0  0
   21.4780  -22.1326  -11.8355 O   0  0  0  0  0  0  0  0  0  0  0  0
   20.0470  -20.4074  -11.5592 O   0  0  0  0  0  0  0  0  0  0  0  0
  2  1  1  1
  2  3  1  0
  3  4  1  0
  5  6  1  0
  5  4  1  0
  7  6  1  0
  8  2  1  0
  9  8  2  0
 11 10  1  0
 12 11  1  0
 12 13  1  1
 12 14  1  0
 14 15  1  6
 15  8  1  0
 16 17  2  0
 16 14  1  0
 18 16  1  0
 19 18  1  0
 20 21  1  0
 19 20  1  6
 21 22  1  0
 23 22  1  0
 23 24  1  0
 25 19  1  0
 26 25  2  0
 27 25  1  0
M  END
$$$$
