KIK.pdb
     RDKit          3D

 27 26  0  0  1  0  0  0  0  0999 V2000
   27.7491  -19.8119  -14.3648 N   0  0  0  0  0  0  0  0  0  0  0  0
   26.9116  -20.7260  -15.0232 C   0  0  1  0  0  0  0  0  0  0  0  0
   27.4693  -21.8376  -15.8016 C   0  0  0  0  0  0  0  0  0  0  0  0
   28.3242  -21.6618  -16.9598 C   0  0  0  0  0  0  0  0  0  0  0  0
   28.5993  -20.4304  -17.6700 C   0  0  0  0  0  0  0  0  0  0  0  0
   29.4600  -20.3723  -18.8597 C   0  0  0  0  0  0  0  0  0  0  0  0
   29.0182  -21.4703  -19.7981 N   0  0  0  0  0  0  0  0  0  0  0  0
   26.0049  -21.3496  -13.9765 C   0  0  0  0  0  0  0  0  0  0  0  0
   25.4398  -22.4465  -14.1723 O   0  0  0  0  0  0  0  0  0  0  0  0
   26.9659  -20.6188   -8.9043 C   0  0  0  0  0  0  0  0  0  0  0  0
   26.1676  -21.3340   -9.9383 C   0  0  0  0  0  0  0  0  0  0  0  0
   24.9924  -20.5874  -10.4728 C   0  0  2  0  0  0  0  0  0  0  0  0
   23.8040  -20.9352   -9.5546 C   0  0  0  0  0  0  0  0  0  0  0  0
   24.6464  -20.8632  -11.8975 C   0  0  2  0  0  0  0  0  0  0  0  0
   25.7994  -20.6785  -12.7665 N   0  0  0  0  0  0  0  0  0  0  0  0
   23.4483  -20.1734  -12.4080 C   0  0  0  0  0  0  0  0  0  0  0  0
   23.4427  -18.9260  -12.5394 O   0  0  0  0  0  0  0  0  0  0  0  0
   22.3045  -20.9058  -12.7496 N   0  0  0  0  0  0  0  0  0  0  0  0
   21.0504  -20.3087  -13.1941 C   0  0  1  0  0  0  0  0  0  0  0  0
   20.7928  -20.7582  -14.5921 C   0  0  0  0  0  0  0  0  0  0  0  0
   19.4697  -20.3439  -15.1393 C   0  0  0  0  0  0  0  0  0  0  0  0
   19.2005  -20.8774  -16.5224 C   0  0  0  0  0  0  0  0  0  0  0  0
   17.8903  -20.4376  -17.0810 C   0  0  0  0  0  0  0  0  0  0  0  0
   17.5671  -21.0499  -18.3437 N   0  0  0  0  0  0  0  0  0  0  0  0
   19.9851  -20.6738  -12.2352 C   0  0  0  0  0  0  0  0  0  0  0  0
   19.9858  -21.7971  -11.6597 O   0  0  0  0  0  0  0  0  0  0  0  0
   18.9441  -19.8107  -11.9236 O   0  0  0  0  0  0  0  0  0  0  0  0
  2  1  1  1
  2  3  1  0
  3  4  1  0
  5  6  1  0
  5  4  1  0
  7  6  1  0
  8  2  1  0
  9  8  2  0
 11 10  1  0
 12 11  1  0
 12 13  1  1
 12 14  1  0
 14 15  1  6
 15  8  1  0
 16 17  2  0
 16 14  1  0
 18 16  1  0
 19 18  1  0
 20 21  1  0
 19 20  1  6
 21 22  1  0
 23 22  1  0
 23 24  1  0
 25 19  1  0
 26 25  2  0
 27 25  1  0
M  END
$$$$
