KIK.pdb
     RDKit          3D

 27 26  0  0  1  0  0  0  0  0999 V2000
   20.6386  -21.1424  -11.6076 N   0  0  0  0  0  0  0  0  0  0  0  0
   21.3079  -21.3133  -12.8297 C   0  0  1  0  0  0  0  0  0  0  0  0
   20.6221  -21.0832  -14.1061 C   0  0  0  0  0  0  0  0  0  0  0  0
   19.5470  -21.9183  -14.6059 C   0  0  0  0  0  0  0  0  0  0  0  0
   19.1499  -23.2233  -14.1204 C   0  0  0  0  0  0  0  0  0  0  0  0
   18.0553  -23.9977  -14.7218 C   0  0  0  0  0  0  0  0  0  0  0  0
   17.8749  -25.2508  -13.8980 N   0  0  0  0  0  0  0  0  0  0  0  0
   22.5155  -20.3923  -12.8211 C   0  0  0  0  0  0  0  0  0  0  0  0
   22.4437  -19.2256  -12.3799 O   0  0  0  0  0  0  0  0  0  0  0  0
   26.9555  -21.7250  -10.5018 C   0  0  0  0  0  0  0  0  0  0  0  0
   25.8643  -20.9961  -11.2057 C   0  0  0  0  0  0  0  0  0  0  0  0
   26.0770  -20.7745  -12.6652 C   0  0  2  0  0  0  0  0  0  0  0  0
   27.3816  -19.9636  -12.7948 C   0  0  0  0  0  0  0  0  0  0  0  0
   24.9642  -20.0867  -13.3823 C   0  0  2  0  0  0  0  0  0  0  0  0
   23.7349  -20.8635  -13.3189 N   0  0  0  0  0  0  0  0  0  0  0  0
   25.2693  -19.6379  -14.7525 C   0  0  0  0  0  0  0  0  0  0  0  0
   25.3017  -20.4625  -15.6970 O   0  0  0  0  0  0  0  0  0  0  0  0
   25.5272  -18.2859  -15.0109 N   0  0  0  0  0  0  0  0  0  0  0  0
   25.7424  -17.7318  -16.3427 C   0  0  1  0  0  0  0  0  0  0  0  0
   25.4146  -16.2781  -16.2985 C   0  0  0  0  0  0  0  0  0  0  0  0
   25.5820  -15.5682  -17.5983 C   0  0  0  0  0  0  0  0  0  0  0  0
   25.2377  -14.1030  -17.5288 C   0  0  0  0  0  0  0  0  0  0  0  0
   25.3365  -13.4094  -18.8445 C   0  0  0  0  0  0  0  0  0  0  0  0
   24.8133  -12.0679  -18.8298 N   0  0  0  0  0  0  0  0  0  0  0  0
   27.1304  -18.0265  -16.7604 C   0  0  0  0  0  0  0  0  0  0  0  0
   28.0650  -18.0859  -15.9143 O   0  0  0  0  0  0  0  0  0  0  0  0
   27.4709  -18.2498  -18.0870 O   0  0  0  0  0  0  0  0  0  0  0  0
  2  1  1  1
  2  3  1  0
  3  4  1  0
  5  6  1  0
  5  4  1  0
  7  6  1  0
  8  2  1  0
  9  8  2  0
 11 10  1  0
 12 11  1  0
 12 13  1  1
 12 14  1  0
 14 15  1  6
 15  8  1  0
 16 17  2  0
 16 14  1  0
 18 16  1  0
 19 18  1  0
 20 21  1  0
 19 20  1  1
 21 22  1  0
 23 22  1  0
 23 24  1  0
 25 19  1  0
 26 25  2  0
 27 25  1  0
M  END
$$$$
