KIK.pdb
     RDKit          3D

 27 26  0  0  1  0  0  0  0  0999 V2000
   24.8878  -21.9699  -10.5880 N   0  0  0  0  0  0  0  0  0  0  0  0
   23.7882  -21.1496  -10.8857 C   0  0  1  0  0  0  0  0  0  0  0  0
   23.3018  -20.1573   -9.9207 C   0  0  0  0  0  0  0  0  0  0  0  0
   22.5499  -20.4944   -8.7274 C   0  0  0  0  0  0  0  0  0  0  0  0
   21.8224  -21.7182   -8.4637 C   0  0  0  0  0  0  0  0  0  0  0  0
   20.9402  -21.8855   -7.3003 C   0  0  0  0  0  0  0  0  0  0  0  0
   20.3504  -23.2743   -7.3692 N   0  0  0  0  0  0  0  0  0  0  0  0
   24.1204  -20.3845  -12.1550 C   0  0  0  0  0  0  0  0  0  0  0  0
   23.6961  -19.2254  -12.3486 O   0  0  0  0  0  0  0  0  0  0  0  0
   28.6929  -20.4631  -16.2937 C   0  0  0  0  0  0  0  0  0  0  0  0
   27.2778  -20.1289  -15.9723 C   0  0  0  0  0  0  0  0  0  0  0  0
   26.7565  -20.6991  -14.6966 C   0  0  2  0  0  0  0  0  0  0  0  0
   26.9409  -22.2263  -14.7972 C   0  0  0  0  0  0  0  0  0  0  0  0
   25.3386  -20.3670  -14.3732 C   0  0  2  0  0  0  0  0  0  0  0  0
   24.9199  -20.9936  -13.1279 N   0  0  0  0  0  0  0  0  0  0  0  0
   24.3681  -20.5862  -15.4604 C   0  0  0  0  0  0  0  0  0  0  0  0
   23.8391  -21.7121  -15.6205 O   0  0  0  0  0  0  0  0  0  0  0  0
   24.0296  -19.5382  -16.3256 N   0  0  0  0  0  0  0  0  0  0  0  0
   22.9844  -19.6168  -17.3397 C   0  0  1  0  0  0  0  0  0  0  0  0
   22.2549  -18.3167  -17.3552 C   0  0  0  0  0  0  0  0  0  0  0  0
   21.1144  -18.2608  -18.3132 C   0  0  0  0  0  0  0  0  0  0  0  0
   20.3686  -16.9520  -18.2801 C   0  0  0  0  0  0  0  0  0  0  0  0
   19.1567  -16.9401  -19.1479 C   0  0  0  0  0  0  0  0  0  0  0  0
   18.3768  -15.7350  -19.0326 N   0  0  0  0  0  0  0  0  0  0  0  0
   23.6046  -19.9779  -18.6330 C   0  0  0  0  0  0  0  0  0  0  0  0
   24.7812  -19.6170  -18.9128 O   0  0  0  0  0  0  0  0  0  0  0  0
   22.9327  -20.7224  -19.5922 O   0  0  0  0  0  0  0  0  0  0  0  0
  2  1  1  1
  2  3  1  0
  3  4  1  0
  5  6  1  0
  5  4  1  0
  7  6  1  0
  8  2  1  0
  9  8  2  0
 11 10  1  0
 12 11  1  0
 12 13  1  6
 12 14  1  0
 14 15  1  1
 15  8  1  0
 16 17  2  0
 16 14  1  0
 18 16  1  0
 19 18  1  0
 20 21  1  0
 19 20  1  6
 21 22  1  0
 23 22  1  0
 23 24  1  0
 25 19  1  0
 26 25  2  0
 27 25  1  0
M  END
$$$$
