KIK.pdb
     RDKit          3D

 27 26  0  0  1  0  0  0  0  0999 V2000
   25.0744  -25.4240  -15.2656 N   0  0  0  0  0  0  0  0  0  0  0  0
   25.6027  -24.1374  -15.0756 C   0  0  1  0  0  0  0  0  0  0  0  0
   25.7905  -23.2223  -16.2069 C   0  0  0  0  0  0  0  0  0  0  0  0
   26.7275  -23.4586  -17.2882 C   0  0  0  0  0  0  0  0  0  0  0  0
   27.5475  -24.6332  -17.4993 C   0  0  0  0  0  0  0  0  0  0  0  0
   28.5134  -24.7427  -18.6013 C   0  0  0  0  0  0  0  0  0  0  0  0
   29.2421  -26.0561  -18.4423 N   0  0  0  0  0  0  0  0  0  0  0  0
   24.7030  -23.4162  -14.0871 C   0  0  0  0  0  0  0  0  0  0  0  0
   23.4684  -23.6068  -14.0688 O   0  0  0  0  0  0  0  0  0  0  0  0
   25.4711  -20.3342   -8.7360 C   0  0  0  0  0  0  0  0  0  0  0  0
   24.6439  -20.6582   -9.9312 C   0  0  0  0  0  0  0  0  0  0  0  0
   25.3394  -21.4241  -11.0055 C   0  0  2  0  0  0  0  0  0  0  0  0
   26.5889  -20.6039  -11.3829 C   0  0  0  0  0  0  0  0  0  0  0  0
   24.5240  -21.7175  -12.2198 C   0  0  2  0  0  0  0  0  0  0  0  0
   25.2720  -22.5186  -13.1776 N   0  0  0  0  0  0  0  0  0  0  0  0
   23.8788  -20.5529  -12.8517 C   0  0  0  0  0  0  0  0  0  0  0  0
   24.5567  -19.7410  -13.5259 O   0  0  0  0  0  0  0  0  0  0  0  0
   22.5023  -20.3422  -12.7029 N   0  0  0  0  0  0  0  0  0  0  0  0
   21.7392  -19.3482  -13.4490 C   0  0  1  0  0  0  0  0  0  0  0  0
   21.8491  -19.6728  -14.9000 C   0  0  0  0  0  0  0  0  0  0  0  0
   21.1055  -18.7441  -15.7978 C   0  0  0  0  0  0  0  0  0  0  0  0
   21.1474  -19.1517  -17.2477 C   0  0  0  0  0  0  0  0  0  0  0  0
   20.3825  -18.2362  -18.1415 C   0  0  0  0  0  0  0  0  0  0  0  0
   20.3970  -18.6359  -19.5249 N   0  0  0  0  0  0  0  0  0  0  0  0
   20.3520  -19.3323  -12.9361 C   0  0  0  0  0  0  0  0  0  0  0  0
   19.9236  -20.2571  -12.1917 O   0  0  0  0  0  0  0  0  0  0  0  0
   19.4624  -18.3125  -13.2434 O   0  0  0  0  0  0  0  0  0  0  0  0
  2  1  1  6
  2  3  1  0
  3  4  1  0
  5  6  1  0
  5  4  1  0
  7  6  1  0
  8  2  1  0
  9  8  2  0
 11 10  1  0
 12 11  1  0
 12 13  1  6
 12 14  1  0
 14 15  1  6
 15  8  1  0
 16 17  2  0
 16 14  1  0
 18 16  1  0
 19 18  1  0
 20 21  1  0
 19 20  1  6
 21 22  1  0
 23 22  1  0
 23 24  1  0
 25 19  1  0
 26 25  2  0
 27 25  1  0
M  END
$$$$
