KIK.pdb
     RDKit          3D

 27 26  0  0  1  0  0  0  0  0999 V2000
   28.5910  -23.4044  -16.5523 N   0  0  0  0  0  0  0  0  0  0  0  0
   27.9943  -22.1646  -16.2739 C   0  0  1  0  0  0  0  0  0  0  0  0
   27.4513  -21.3281  -17.3500 C   0  0  0  0  0  0  0  0  0  0  0  0
   28.2607  -20.7367  -18.3979 C   0  0  0  0  0  0  0  0  0  0  0  0
   29.4788  -19.9700  -18.2403 C   0  0  0  0  0  0  0  0  0  0  0  0
   30.1760  -19.3410  -19.3707 C   0  0  0  0  0  0  0  0  0  0  0  0
   29.2725  -18.2643  -19.9237 N   0  0  0  0  0  0  0  0  0  0  0  0
   26.8490  -22.4161  -15.3087 C   0  0  0  0  0  0  0  0  0  0  0  0
   26.1803  -23.4706  -15.3496 O   0  0  0  0  0  0  0  0  0  0  0  0
   25.6645  -20.7282   -9.5301 C   0  0  0  0  0  0  0  0  0  0  0  0
   25.1424  -21.2317  -10.8307 C   0  0  0  0  0  0  0  0  0  0  0  0
   26.0879  -21.1422  -11.9807 C   0  0  2  0  0  0  0  0  0  0  0  0
   26.5275  -19.6671  -12.0664 C   0  0  0  0  0  0  0  0  0  0  0  0
   25.5511  -21.6016  -13.2945 C   0  0  2  0  0  0  0  0  0  0  0  0
   26.5377  -21.4432  -14.3529 N   0  0  0  0  0  0  0  0  0  0  0  0
   24.2360  -21.0546  -13.6729 C   0  0  0  0  0  0  0  0  0  0  0  0
   24.1389  -19.8832  -14.1105 O   0  0  0  0  0  0  0  0  0  0  0  0
   23.0827  -21.8387  -13.5453 N   0  0  0  0  0  0  0  0  0  0  0  0
   21.7386  -21.3811  -13.8783 C   0  0  1  0  0  0  0  0  0  0  0  0
   20.8553  -22.5772  -13.9868 C   0  0  0  0  0  0  0  0  0  0  0  0
   19.4475  -22.2717  -14.3694 C   0  0  0  0  0  0  0  0  0  0  0  0
   18.5525  -23.4837  -14.3755 C   0  0  0  0  0  0  0  0  0  0  0  0
   17.1435  -23.1762  -14.7527 C   0  0  0  0  0  0  0  0  0  0  0  0
   16.3026  -24.3419  -14.8405 N   0  0  0  0  0  0  0  0  0  0  0  0
   21.3057  -20.3998  -12.8598 C   0  0  0  0  0  0  0  0  0  0  0  0
   21.6410  -20.5281  -11.6498 O   0  0  0  0  0  0  0  0  0  0  0  0
   20.5189  -19.3021  -13.1790 O   0  0  0  0  0  0  0  0  0  0  0  0
  2  1  1  6
  2  3  1  0
  3  4  1  0
  5  6  1  0
  5  4  1  0
  7  6  1  0
  8  2  1  0
  9  8  2  0
 11 10  1  0
 12 11  1  0
 12 13  1  6
 12 14  1  0
 14 15  1  6
 15  8  1  0
 16 17  2  0
 16 14  1  0
 18 16  1  0
 19 18  1  0
 20 21  1  0
 19 20  1  1
 21 22  1  0
 23 22  1  0
 23 24  1  0
 25 19  1  0
 26 25  2  0
 27 25  1  0
M  END
$$$$
