KIK.pdb
     RDKit          3D

 27 26  0  0  1  0  0  0  0  0999 V2000
   20.2407  -13.7586  -19.6363 N   0  0  0  0  0  0  0  0  0  0  0  0
   20.8650  -12.8713  -18.7455 C   0  0  1  0  0  0  0  0  0  0  0  0
   22.1427  -12.2345  -19.0835 C   0  0  0  0  0  0  0  0  0  0  0  0
   23.3644  -12.9692  -19.3492 C   0  0  0  0  0  0  0  0  0  0  0  0
   23.7664  -14.2398  -18.7830 C   0  0  0  0  0  0  0  0  0  0  0  0
   24.9972  -14.9361  -19.1825 C   0  0  0  0  0  0  0  0  0  0  0  0
   25.1705  -16.1225  -18.2639 N   0  0  0  0  0  0  0  0  0  0  0  0
   19.8868  -11.7442  -18.4639 C   0  0  0  0  0  0  0  0  0  0  0  0
   19.5692  -10.9194  -19.3470 O   0  0  0  0  0  0  0  0  0  0  0  0
   16.3328  -13.5564  -15.8279 C   0  0  0  0  0  0  0  0  0  0  0  0
   16.4116  -12.2471  -16.5329 C   0  0  0  0  0  0  0  0  0  0  0  0
   17.3018  -11.2301  -15.9022 C   0  0  2  0  0  0  0  0  0  0  0  0
   16.3767  -10.1285  -15.3480 C   0  0  0  0  0  0  0  0  0  0  0  0
   18.3386  -10.6371  -16.7959 C   0  0  2  0  0  0  0  0  0  0  0  0
   19.3301  -11.6289  -17.1858 N   0  0  0  0  0  0  0  0  0  0  0  0
   18.9584   -9.3899  -16.3141 C   0  0  0  0  0  0  0  0  0  0  0  0
   19.7965   -9.4177  -15.3814 O   0  0  0  0  0  0  0  0  0  0  0  0
   18.6150   -8.1620  -16.8934 N   0  0  0  0  0  0  0  0  0  0  0  0
   19.0854   -6.8679  -16.4126 C   0  0  1  0  0  0  0  0  0  0  0  0
   19.4617   -6.0426  -17.5958 C   0  0  0  0  0  0  0  0  0  0  0  0
   19.9119   -4.6606  -17.2658 C   0  0  0  0  0  0  0  0  0  0  0  0
   20.3603   -3.8737  -18.4699 C   0  0  0  0  0  0  0  0  0  0  0  0
   20.8208   -2.4955  -18.1375 C   0  0  0  0  0  0  0  0  0  0  0  0
   21.4614   -1.8209  -19.2366 N   0  0  0  0  0  0  0  0  0  0  0  0
   18.0332   -6.2659  -15.5650 C   0  0  0  0  0  0  0  0  0  0  0  0
   16.8110   -6.4793  -15.7965 O   0  0  0  0  0  0  0  0  0  0  0  0
   18.3329   -5.4464  -14.4860 O   0  0  0  0  0  0  0  0  0  0  0  0
  2  1  1  6
  2  3  1  0
  3  4  1  0
  5  6  1  0
  5  4  1  0
  7  6  1  0
  8  2  1  0
  9  8  2  0
 11 10  1  0
 12 11  1  0
 12 13  1  6
 12 14  1  0
 14 15  1  1
 15  8  1  0
 16 17  2  0
 16 14  1  0
 18 16  1  0
 19 18  1  0
 20 21  1  0
 19 20  1  6
 21 22  1  0
 23 22  1  0
 23 24  1  0
 25 19  1  0
 26 25  2  0
 27 25  1  0
M  END
$$$$
