CEI.pdb
     RDKit          3D

 24 23  0  0  1  0  0  0  0  0999 V2000
   18.7538  -14.5716  -17.1908 N   0  0  0  0  0  0  0  0  0  0  0  0
   18.1161  -13.4311  -17.7671 C   0  0  1  0  0  0  0  0  0  0  0  0
   16.7251  -13.7584  -18.2593 C   0  0  0  0  0  0  0  0  0  0  0  0
   16.1006  -12.2806  -19.1175 S   0  0  0  0  0  0  0  0  0  0  0  0
   18.1578  -12.2678  -16.8823 C   0  0  0  0  0  0  0  0  0  0  0  0
   17.4498  -12.3012  -15.8223 O   0  0  0  0  0  0  0  0  0  0  0  0
   18.9123  -11.1024  -17.0903 N   0  0  0  0  0  0  0  0  0  0  0  0
   18.8647   -9.9802  -16.2104 C   0  0  1  0  0  0  0  0  0  0  0  0
   20.2202   -9.7327  -15.5416 C   0  0  0  0  0  0  0  0  0  0  0  0
   20.1176   -8.5192  -14.6340 C   0  0  0  0  0  0  0  0  0  0  0  0
   21.3768   -8.2298  -13.9534 C   0  0  0  0  0  0  0  0  0  0  0  0
   22.3929   -8.9381  -14.1348 O   0  0  0  0  0  0  0  0  0  0  0  0
   18.4954   -8.7147  -16.8976 C   0  0  0  0  0  0  0  0  0  0  0  0
   18.9096   -8.5667  -18.0767 O   0  0  0  0  0  0  0  0  0  0  0  0
   21.4659   -7.1560  -13.0883 O   0  0  0  0  0  0  0  0  0  0  0  0
   13.8542   -7.0272  -18.1924 C   0  0  0  0  0  0  0  0  0  0  0  0
   15.3445   -7.1572  -18.1647 C   0  0  0  0  0  0  0  0  0  0  0  0
   15.9240   -6.2154  -17.1010 C   0  0  2  0  0  0  0  0  0  0  0  0
   15.7119   -4.8079  -17.6148 C   0  0  0  0  0  0  0  0  0  0  0  0
   17.4156   -6.4303  -16.9774 C   0  0  2  0  0  0  0  0  0  0  0  0
   17.7258   -7.6897  -16.3240 N   0  0  0  0  0  0  0  0  0  0  0  0
   17.9679   -5.3409  -16.1351 C   0  0  0  0  0  0  0  0  0  0  0  0
   18.7821   -4.3742  -16.7003 O   0  0  0  0  0  0  0  0  0  0  0  0
   17.7210   -5.2574  -14.8985 O   0  0  0  0  0  0  0  0  0  0  0  0
  2  3  1  0
  2  1  1  1
  4  3  1  0
  5  6  2  0
  5  2  1  0
  7  5  1  0
  8 13  1  0
  8  7  1  0
  8  9  1  6
 10  9  1  0
 10 11  1  0
 11 12  2  0
 13 21  1  0
 14 13  2  0
 15 11  1  0
 17 16  1  0
 18 17  1  0
 18 20  1  0
 18 19  1  6
 20 22  1  0
 20 21  1  1
 22 24  2  0
 22 23  1  0
M  END
$$$$
