CEI.pdb
     RDKit          3D

 24 23  0  0  1  0  0  0  0  0999 V2000
   20.1584  -14.1928  -19.8743 N   0  0  0  0  0  0  0  0  0  0  0  0
   19.2384  -13.1245  -19.6468 C   0  0  1  0  0  0  0  0  0  0  0  0
   18.1004  -13.5495  -18.7477 C   0  0  0  0  0  0  0  0  0  0  0  0
   17.0676  -14.7037  -19.7023 S   0  0  0  0  0  0  0  0  0  0  0  0
   19.9072  -11.9049  -19.1962 C   0  0  0  0  0  0  0  0  0  0  0  0
   20.9736  -12.0308  -18.5084 O   0  0  0  0  0  0  0  0  0  0  0  0
   19.4826  -10.5913  -19.4511 N   0  0  0  0  0  0  0  0  0  0  0  0
   20.2433   -9.4438  -19.0767 C   0  0  1  0  0  0  0  0  0  0  0  0
   19.7148   -8.1745  -19.7515 C   0  0  0  0  0  0  0  0  0  0  0  0
   20.6718   -7.0267  -19.4806 C   0  0  0  0  0  0  0  0  0  0  0  0
   20.2826   -5.8055  -20.1804 C   0  0  0  0  0  0  0  0  0  0  0  0
   19.2523   -5.7616  -20.8900 O   0  0  0  0  0  0  0  0  0  0  0  0
   20.2247   -9.1831  -17.6132 C   0  0  0  0  0  0  0  0  0  0  0  0
   19.1642   -9.4687  -16.9987 O   0  0  0  0  0  0  0  0  0  0  0  0
   21.0561   -4.6659  -20.0678 O   0  0  0  0  0  0  0  0  0  0  0  0
   23.4451  -11.3752  -14.3513 C   0  0  0  0  0  0  0  0  0  0  0  0
   22.3077  -10.6655  -15.0156 C   0  0  0  0  0  0  0  0  0  0  0  0
   22.4242   -9.1566  -14.7634 C   0  0  2  0  0  0  0  0  0  0  0  0
   22.2538   -8.9577  -13.2730 C   0  0  0  0  0  0  0  0  0  0  0  0
   21.2894   -8.4286  -15.4480 C   0  0  2  0  0  0  0  0  0  0  0  0
   21.2982   -8.6469  -16.8838 N   0  0  0  0  0  0  0  0  0  0  0  0
   21.4701   -6.9746  -15.2150 C   0  0  0  0  0  0  0  0  0  0  0  0
   20.9040   -6.3765  -14.1021 O   0  0  0  0  0  0  0  0  0  0  0  0
   22.1326   -6.2451  -16.0062 O   0  0  0  0  0  0  0  0  0  0  0  0
  2  3  1  0
  2  1  1  1
  4  3  1  0
  5  6  2  0
  5  2  1  0
  7  5  1  0
  8 13  1  0
  8  7  1  0
  8  9  1  6
 10  9  1  0
 10 11  1  0
 11 12  2  0
 13 21  1  0
 14 13  2  0
 15 11  1  0
 17 16  1  0
 18 17  1  0
 18 20  1  0
 18 19  1  1
 20 22  1  0
 20 21  1  6
 22 24  2  0
 22 23  1  0
M  END
$$$$
