CEI.pdb
     RDKit          3D

 24 23  0  0  1  0  0  0  0  0999 V2000
   26.9149  -17.1134  -15.8393 N   0  0  0  0  0  0  0  0  0  0  0  0
   27.3209  -18.3147  -15.1824 C   0  0  1  0  0  0  0  0  0  0  0  0
   28.7924  -18.2932  -14.8385 C   0  0  0  0  0  0  0  0  0  0  0  0
   29.7076  -18.5454  -16.3906 S   0  0  0  0  0  0  0  0  0  0  0  0
   26.4650  -18.6381  -14.0419 C   0  0  0  0  0  0  0  0  0  0  0  0
   26.0757  -17.6773  -13.2992 O   0  0  0  0  0  0  0  0  0  0  0  0
   26.0248  -19.9214  -13.6811 N   0  0  0  0  0  0  0  0  0  0  0  0
   25.1709  -20.1629  -12.5638 C   0  0  1  0  0  0  0  0  0  0  0  0
   24.0504  -21.1462  -12.9150 C   0  0  0  0  0  0  0  0  0  0  0  0
   23.0996  -21.2648  -11.7367 C   0  0  0  0  0  0  0  0  0  0  0  0
   21.7962  -20.6681  -12.0158 C   0  0  0  0  0  0  0  0  0  0  0  0
   21.0012  -21.1910  -12.8292 O   0  0  0  0  0  0  0  0  0  0  0  0
   25.8873  -20.7386  -11.3953 C   0  0  0  0  0  0  0  0  0  0  0  0
   26.4045  -21.8755  -11.5497 O   0  0  0  0  0  0  0  0  0  0  0  0
   21.4169  -19.5026  -11.3777 O   0  0  0  0  0  0  0  0  0  0  0  0
   28.6991  -19.4138   -6.0746 C   0  0  0  0  0  0  0  0  0  0  0  0
   27.9478  -20.4154   -6.8937 C   0  0  0  0  0  0  0  0  0  0  0  0
   27.2541  -19.7071   -8.0646 C   0  0  2  0  0  0  0  0  0  0  0  0
   26.1530  -18.8622   -7.4615 C   0  0  0  0  0  0  0  0  0  0  0  0
   26.5971  -20.7252   -8.9690 C   0  0  2  0  0  0  0  0  0  0  0  0
   26.0217  -20.1049  -10.1494 N   0  0  0  0  0  0  0  0  0  0  0  0
   25.4908  -21.3635   -8.2141 C   0  0  0  0  0  0  0  0  0  0  0  0
   24.1764  -21.0495   -8.5149 O   0  0  0  0  0  0  0  0  0  0  0  0
   25.7030  -22.1984   -7.2895 O   0  0  0  0  0  0  0  0  0  0  0  0
  2  3  1  0
  2  1  1  1
  4  3  1  0
  5  6  2  0
  5  2  1  0
  7  5  1  0
  8 13  1  0
  8  7  1  0
  8  9  1  6
 10  9  1  0
 10 11  1  0
 11 12  2  0
 13 21  1  0
 14 13  2  0
 15 11  1  0
 17 16  1  0
 18 17  1  0
 18 20  1  0
 18 19  1  1
 20 22  1  0
 20 21  1  6
 22 24  2  0
 22 23  1  0
M  END
$$$$
