CEI.pdb
     RDKit          3D

 24 23  0  0  1  0  0  0  0  0999 V2000
   23.8132  -12.2471  -18.0141 N   0  0  0  0  0  0  0  0  0  0  0  0
   23.4714  -11.7824  -16.7077 C   0  0  1  0  0  0  0  0  0  0  0  0
   24.6944  -11.6208  -15.8346 C   0  0  0  0  0  0  0  0  0  0  0  0
   25.3901  -13.2821  -15.5768 S   0  0  0  0  0  0  0  0  0  0  0  0
   22.6278  -10.5888  -16.7481 C   0  0  0  0  0  0  0  0  0  0  0  0
   22.9192   -9.6830  -17.5972 O   0  0  0  0  0  0  0  0  0  0  0  0
   21.5133  -10.3408  -15.9314 N   0  0  0  0  0  0  0  0  0  0  0  0
   20.7203   -9.1594  -16.0390 C   0  0  1  0  0  0  0  0  0  0  0  0
   19.3684   -9.3243  -15.3383 C   0  0  0  0  0  0  0  0  0  0  0  0
   18.4789  -10.2306  -16.1714 C   0  0  0  0  0  0  0  0  0  0  0  0
   17.1967  -10.4938  -15.5239 C   0  0  0  0  0  0  0  0  0  0  0  0
   16.1763   -9.8249  -15.8037 O   0  0  0  0  0  0  0  0  0  0  0  0
   21.3668   -7.9653  -15.4338 C   0  0  0  0  0  0  0  0  0  0  0  0
   21.9791   -8.1396  -14.3482 O   0  0  0  0  0  0  0  0  0  0  0  0
   17.0900  -11.4982  -14.5809 O   0  0  0  0  0  0  0  0  0  0  0  0
   24.9890   -3.4734  -16.8384 C   0  0  0  0  0  0  0  0  0  0  0  0
   23.8768   -3.8547  -15.9130 C   0  0  0  0  0  0  0  0  0  0  0  0
   23.1899   -5.1257  -16.4293 C   0  0  2  0  0  0  0  0  0  0  0  0
   22.5317   -4.7539  -17.7401 C   0  0  0  0  0  0  0  0  0  0  0  0
   22.0928   -5.5442  -15.4766 C   0  0  2  0  0  0  0  0  0  0  0  0
   21.3385   -6.6751  -15.9875 N   0  0  0  0  0  0  0  0  0  0  0  0
   21.1516   -4.4064  -15.3324 C   0  0  0  0  0  0  0  0  0  0  0  0
   21.4161   -3.4011  -14.4180 O   0  0  0  0  0  0  0  0  0  0  0  0
   20.0975   -4.3153  -16.0236 O   0  0  0  0  0  0  0  0  0  0  0  0
  2  3  1  0
  2  1  1  6
  4  3  1  0
  5  6  2  0
  5  2  1  0
  7  5  1  0
  8 13  1  0
  8  7  1  0
  8  9  1  1
 10  9  1  0
 10 11  1  0
 11 12  2  0
 13 21  1  0
 14 13  2  0
 15 11  1  0
 17 16  1  0
 18 17  1  0
 18 20  1  0
 18 19  1  6
 20 22  1  0
 20 21  1  6
 22 24  2  0
 22 23  1  0
M  END
$$$$
