CEI.pdb
     RDKit          3D

 24 23  0  0  1  0  0  0  0  0999 V2000
   27.8883  -20.9521  -17.0176 N   0  0  0  0  0  0  0  0  0  0  0  0
   27.8168  -21.6352  -15.7656 C   0  0  1  0  0  0  0  0  0  0  0  0
   29.1894  -22.0032  -15.2510 C   0  0  0  0  0  0  0  0  0  0  0  0
   29.7005  -23.5145  -16.1257 S   0  0  0  0  0  0  0  0  0  0  0  0
   27.0067  -20.9122  -14.7864 C   0  0  0  0  0  0  0  0  0  0  0  0
   27.2403  -19.6693  -14.6226 O   0  0  0  0  0  0  0  0  0  0  0  0
   25.9828  -21.4620  -13.9988 N   0  0  0  0  0  0  0  0  0  0  0  0
   25.1894  -20.6835  -13.1042 C   0  0  1  0  0  0  0  0  0  0  0  0
   23.7333  -20.6003  -13.5717 C   0  0  0  0  0  0  0  0  0  0  0  0
   23.5577  -19.3737  -14.4499 C   0  0  0  0  0  0  0  0  0  0  0  0
   22.1666  -19.1717  -14.8458 C   0  0  0  0  0  0  0  0  0  0  0  0
   21.8713  -18.6562  -15.9476 O   0  0  0  0  0  0  0  0  0  0  0  0
   25.1588  -21.2321  -11.7228 C   0  0  0  0  0  0  0  0  0  0  0  0
   24.8809  -22.4537  -11.6026 O   0  0  0  0  0  0  0  0  0  0  0  0
   21.1430  -19.5516  -13.9988 O   0  0  0  0  0  0  0  0  0  0  0  0
   28.0372  -18.8848   -7.5987 C   0  0  0  0  0  0  0  0  0  0  0  0
   27.4564  -19.9532   -8.4703 C   0  0  0  0  0  0  0  0  0  0  0  0
   25.9509  -20.0756   -8.2014 C   0  0  2  0  0  0  0  0  0  0  0  0
   25.8106  -20.7208   -6.8399 C   0  0  0  0  0  0  0  0  0  0  0  0
   25.3195  -21.0088   -9.2098 C   0  0  2  0  0  0  0  0  0  0  0  0
   25.4161  -20.4860  -10.5614 N   0  0  0  0  0  0  0  0  0  0  0  0
   23.8784  -21.1338   -8.8799 C   0  0  0  0  0  0  0  0  0  0  0  0
   22.9488  -20.3374   -9.5268 O   0  0  0  0  0  0  0  0  0  0  0  0
   23.4561  -21.9534   -8.0157 O   0  0  0  0  0  0  0  0  0  0  0  0
  2  3  1  0
  2  1  1  6
  4  3  1  0
  5  6  2  0
  5  2  1  0
  7  5  1  0
  8 13  1  0
  8  7  1  0
  8  9  1  6
 10  9  1  0
 10 11  1  0
 11 12  2  0
 13 21  1  0
 14 13  2  0
 15 11  1  0
 17 16  1  0
 18 17  1  0
 18 20  1  0
 18 19  1  1
 20 22  1  0
 20 21  1  6
 22 24  2  0
 22 23  1  0
M  END
$$$$
