CEI.pdb
     RDKit          3D

 24 23  0  0  1  0  0  0  0  0999 V2000
   14.7159  -13.5125  -12.8311 N   0  0  0  0  0  0  0  0  0  0  0  0
   14.8666  -12.2370  -13.4555 C   0  0  1  0  0  0  0  0  0  0  0  0
   13.5370  -11.6724  -13.9002 C   0  0  0  0  0  0  0  0  0  0  0  0
   12.3290  -13.0309  -13.8293 S   0  0  0  0  0  0  0  0  0  0  0  0
   15.6445  -11.3085  -12.6366 C   0  0  0  0  0  0  0  0  0  0  0  0
   15.7374  -11.5509  -11.3881 O   0  0  0  0  0  0  0  0  0  0  0  0
   16.3077  -10.1607  -13.0987 N   0  0  0  0  0  0  0  0  0  0  0  0
   17.0904   -9.3225  -12.2499 C   0  0  1  0  0  0  0  0  0  0  0  0
   18.3006   -8.7458  -12.9906 C   0  0  0  0  0  0  0  0  0  0  0  0
   19.1210   -7.9022  -12.0306 C   0  0  0  0  0  0  0  0  0  0  0  0
   20.3116   -7.3430  -12.6649 C   0  0  0  0  0  0  0  0  0  0  0  0
   20.2503   -6.3089  -13.3678 O   0  0  0  0  0  0  0  0  0  0  0  0
   16.3310   -8.1622  -11.7140 C   0  0  0  0  0  0  0  0  0  0  0  0
   15.6577   -7.4932  -12.5405 O   0  0  0  0  0  0  0  0  0  0  0  0
   21.5389   -7.9551  -12.4962 O   0  0  0  0  0  0  0  0  0  0  0  0
   12.2971   -6.4679   -7.8361 C   0  0  0  0  0  0  0  0  0  0  0  0
   13.5523   -5.9732   -8.4831 C   0  0  0  0  0  0  0  0  0  0  0  0
   14.3675   -7.1643   -9.0034 C   0  0  2  0  0  0  0  0  0  0  0  0
   14.9451   -7.8519   -7.7854 C   0  0  0  0  0  0  0  0  0  0  0  0
   15.5293   -6.6715   -9.8364 C   0  0  2  0  0  0  0  0  0  0  0  0
   16.3170   -7.7709  -10.3655 N   0  0  0  0  0  0  0  0  0  0  0  0
   16.4151   -5.8678   -8.9584 C   0  0  0  0  0  0  0  0  0  0  0  0
   16.0833   -4.5590   -8.6524 O   0  0  0  0  0  0  0  0  0  0  0  0
   17.4810   -6.3380   -8.4689 O   0  0  0  0  0  0  0  0  0  0  0  0
  2  3  1  0
  2  1  1  1
  4  3  1  0
  5  6  2  0
  5  2  1  0
  7  5  1  0
  8 13  1  0
  8  7  1  0
  8  9  1  6
 10  9  1  0
 10 11  1  0
 11 12  2  0
 13 21  1  0
 14 13  2  0
 15 11  1  0
 17 16  1  0
 18 17  1  0
 18 20  1  0
 18 19  1  1
 20 22  1  0
 20 21  1  1
 22 24  2  0
 22 23  1  0
M  END
$$$$
