CEI.pdb
     RDKit          3D

 24 23  0  0  1  0  0  0  0  0999 V2000
   22.5376  -16.2504  -19.2566 N   0  0  0  0  0  0  0  0  0  0  0  0
   21.4958  -15.5230  -18.6047 C   0  0  1  0  0  0  0  0  0  0  0  0
   21.0688  -16.1911  -17.3180 C   0  0  0  0  0  0  0  0  0  0  0  0
   20.1057  -17.6653  -17.7754 S   0  0  0  0  0  0  0  0  0  0  0  0
   21.8281  -14.1087  -18.4396 C   0  0  0  0  0  0  0  0  0  0  0  0
   22.9991  -13.8171  -18.0276 O   0  0  0  0  0  0  0  0  0  0  0  0
   20.9707  -13.0267  -18.6944 N   0  0  0  0  0  0  0  0  0  0  0  0
   21.3799  -11.6659  -18.5663 C   0  0  1  0  0  0  0  0  0  0  0  0
   20.3278  -10.7071  -19.1316 C   0  0  0  0  0  0  0  0  0  0  0  0
   20.8479   -9.2830  -19.0433 C   0  0  0  0  0  0  0  0  0  0  0  0
   19.9097   -8.3158  -19.6062 C   0  0  0  0  0  0  0  0  0  0  0  0
   20.1701   -7.0915  -19.6263 O   0  0  0  0  0  0  0  0  0  0  0  0
   21.6107  -11.2559  -17.1561 C   0  0  0  0  0  0  0  0  0  0  0  0
   20.8244  -11.7245  -16.2923 O   0  0  0  0  0  0  0  0  0  0  0  0
   18.7054   -8.7436  -20.1316 O   0  0  0  0  0  0  0  0  0  0  0  0
   26.5431  -11.1671  -15.1817 C   0  0  0  0  0  0  0  0  0  0  0  0
   25.0620  -11.3048  -15.3432 C   0  0  0  0  0  0  0  0  0  0  0  0
   24.3864   -9.9545  -15.0710 C   0  0  2  0  0  0  0  0  0  0  0  0
   24.5537   -9.6829  -13.5918 C   0  0  0  0  0  0  0  0  0  0  0  0
   22.9029  -10.0537  -15.3463 C   0  0  2  0  0  0  0  0  0  0  0  0
   22.6340  -10.3926  -16.7327 N   0  0  0  0  0  0  0  0  0  0  0  0
   22.2978   -8.7244  -15.0848 C   0  0  0  0  0  0  0  0  0  0  0  0
   22.2539   -7.7742  -16.0906 O   0  0  0  0  0  0  0  0  0  0  0  0
   21.8112   -8.4179  -13.9595 O   0  0  0  0  0  0  0  0  0  0  0  0
  2  3  1  0
  2  1  1  1
  4  3  1  0
  5  6  2  0
  5  2  1  0
  7  5  1  0
  8 13  1  0
  8  7  1  0
  8  9  1  1
 10  9  1  0
 10 11  1  0
 11 12  2  0
 13 21  1  0
 14 13  2  0
 15 11  1  0
 17 16  1  0
 18 17  1  0
 18 20  1  0
 18 19  1  1
 20 22  1  0
 20 21  1  6
 22 24  2  0
 22 23  1  0
M  END
$$$$
