CEI.pdb
     RDKit          3D

 24 23  0  0  1  0  0  0  0  0999 V2000
   30.1160  -22.3714  -18.2251 N   0  0  0  0  0  0  0  0  0  0  0  0
   29.1356  -23.0491  -17.4385 C   0  0  1  0  0  0  0  0  0  0  0  0
   29.7660  -24.0660  -16.5150 C   0  0  0  0  0  0  0  0  0  0  0  0
   30.4173  -25.4054  -17.5601 S   0  0  0  0  0  0  0  0  0  0  0  0
   28.2395  -22.1206  -16.7509 C   0  0  0  0  0  0  0  0  0  0  0  0
   28.7646  -21.2311  -16.0031 O   0  0  0  0  0  0  0  0  0  0  0  0
   26.8382  -22.1141  -16.8360 N   0  0  0  0  0  0  0  0  0  0  0  0
   26.0240  -21.1635  -16.1510 C   0  0  1  0  0  0  0  0  0  0  0  0
   24.8098  -20.7552  -16.9905 C   0  0  0  0  0  0  0  0  0  0  0  0
   23.9263  -19.8264  -16.1762 C   0  0  0  0  0  0  0  0  0  0  0  0
   22.7211  -19.4330  -16.9011 C   0  0  0  0  0  0  0  0  0  0  0  0
   21.8256  -18.7506  -16.3540 O   0  0  0  0  0  0  0  0  0  0  0  0
   25.4925  -21.6731  -14.8595 C   0  0  0  0  0  0  0  0  0  0  0  0
   24.9339  -22.8007  -14.8803 O   0  0  0  0  0  0  0  0  0  0  0  0
   22.5498  -19.8135  -18.2184 O   0  0  0  0  0  0  0  0  0  0  0  0
   25.8607  -20.9046   -8.7158 C   0  0  0  0  0  0  0  0  0  0  0  0
   25.1393  -21.4745   -9.8963 C   0  0  0  0  0  0  0  0  0  0  0  0
   25.7339  -20.9011  -11.1893 C   0  0  2  0  0  0  0  0  0  0  0  0
   25.4694  -19.4115  -11.1579 C   0  0  0  0  0  0  0  0  0  0  0  0
   25.0039  -21.4636  -12.3881 C   0  0  2  0  0  0  0  0  0  0  0  0
   25.5725  -20.9874  -13.6368 N   0  0  0  0  0  0  0  0  0  0  0  0
   23.5970  -20.9960  -12.3295 C   0  0  0  0  0  0  0  0  0  0  0  0
   22.6090  -21.8344  -11.8420 O   0  0  0  0  0  0  0  0  0  0  0  0
   23.2567  -19.8413  -12.7140 O   0  0  0  0  0  0  0  0  0  0  0  0
  2  3  1  0
  2  1  1  1
  4  3  1  0
  5  6  2  0
  5  2  1  0
  7  5  1  0
  8 13  1  0
  8  7  1  0
  8  9  1  6
 10  9  1  0
 10 11  1  0
 11 12  2  0
 13 21  1  0
 14 13  2  0
 15 11  1  0
 17 16  1  0
 18 17  1  0
 18 20  1  0
 18 19  1  1
 20 22  1  0
 20 21  1  6
 22 24  2  0
 22 23  1  0
M  END
$$$$
