NML.pdb
     RDKit          3D

 25 24  0  0  1  0  0  0  0  0999 V2000
    8.8883  -20.0092   19.2805 N   0  0  0  0  0  0  0  0  0  0  0  0
    9.5418  -18.8017   18.9131 C   0  0  0  0  0  0  0  0  0  0  0  0
    9.9918  -18.7461   17.7400 O   0  0  0  0  0  0  0  0  0  0  0  0
    9.7199  -17.6478   19.7899 C   0  0  0  0  0  0  0  0  0  0  0  0
    9.2145  -17.8232   21.1759 C   0  0  2  0  0  0  0  0  0  0  0  0
    7.8301  -18.0960   21.3084 N   0  0  0  0  0  0  0  0  0  0  0  0
    9.5285  -16.5937   21.9645 C   0  0  0  0  0  0  0  0  0  0  0  0
   10.7241  -16.1888   21.8782 O   0  0  0  0  0  0  0  0  0  0  0  0
    5.7733  -13.0749   26.6244 C   0  0  0  0  0  0  0  0  0  0  0  0
    6.5371  -11.9950   25.3700 S   0  0  0  0  0  0  0  0  0  0  0  0
    8.0453  -12.8025   24.7687 C   0  0  0  0  0  0  0  0  0  0  0  0
    7.6472  -14.1072   24.1074 C   0  0  0  0  0  0  0  0  0  0  0  0
    8.8763  -14.7758   23.5228 C   0  0  2  0  0  0  0  0  0  0  0  0
    8.5566  -15.9302   22.7516 N   0  0  0  0  0  0  0  0  0  0  0  0
    9.7575  -15.1158   24.6632 C   0  0  0  0  0  0  0  0  0  0  0  0
   10.7097  -14.3428   24.9246 O   0  0  0  0  0  0  0  0  0  0  0  0
   11.6837  -14.0783   27.8544 C   0  0  0  0  0  0  0  0  0  0  0  0
   10.2325  -14.5122   27.9259 C   0  0  2  0  0  0  0  0  0  0  0  0
    9.5321  -13.8095   29.0128 C   0  0  0  0  0  0  0  0  0  0  0  0
   10.0481  -15.9622   27.7535 C   0  0  0  0  0  0  0  0  0  0  0  0
   10.5465  -16.6394   26.5389 C   0  0  2  0  0  0  0  0  0  0  0  0
    9.5821  -16.2608   25.4685 N   0  0  0  0  0  0  0  0  0  0  0  0
   10.5187  -18.1048   26.6739 C   0  0  0  0  0  0  0  0  0  0  0  0
    9.6799  -18.8033   26.0895 O   0  0  0  0  0  0  0  0  0  0  0  0
   11.4545  -18.7880   27.4819 O   0  0  0  0  0  0  0  0  0  0  0  0
  1  2  1  0
  2  3  2  0
  4  2  1  0
  5  7  1  0
  5  4  1  0
  5  6  1  6
  7  8  2  0
  9 10  1  0
 10 11  1  0
 12 11  1  0
 13 12  1  1
 13 14  1  0
 14  7  1  0
 15 13  1  0
 16 15  2  0
 18 17  1  1
 18 20  1  0
 18 19  1  0
 21 20  1  1
 21 22  1  0
 21 23  1  0
 22 15  1  0
 23 25  1  0
 24 23  2  0
M  END
$$$$
