NML.pdb
     RDKit          3D

 25 24  0  0  1  0  0  0  0  0999 V2000
    6.5435  -21.9782   25.6590 N   0  0  0  0  0  0  0  0  0  0  0  0
    6.1659  -20.6932   25.1830 C   0  0  0  0  0  0  0  0  0  0  0  0
    4.9385  -20.4223   25.2238 O   0  0  0  0  0  0  0  0  0  0  0  0
    7.0904  -19.6904   24.6618 C   0  0  0  0  0  0  0  0  0  0  0  0
    6.9754  -19.4210   23.2053 C   0  0  2  0  0  0  0  0  0  0  0  0
    7.1874  -20.5270   22.3448 N   0  0  0  0  0  0  0  0  0  0  0  0
    7.9434  -18.3452   22.8344 C   0  0  0  0  0  0  0  0  0  0  0  0
    9.1642  -18.6471   22.9740 O   0  0  0  0  0  0  0  0  0  0  0  0
    6.5900  -12.1789   20.5100 C   0  0  0  0  0  0  0  0  0  0  0  0
    8.1789  -12.6858   19.7743 S   0  0  0  0  0  0  0  0  0  0  0  0
    8.9280  -13.9392   20.8496 C   0  0  0  0  0  0  0  0  0  0  0  0
    7.8463  -14.9248   21.2455 C   0  0  0  0  0  0  0  0  0  0  0  0
    8.4532  -16.0371   22.0786 C   0  0  2  0  0  0  0  0  0  0  0  0
    7.5233  -17.0788   22.3610 N   0  0  0  0  0  0  0  0  0  0  0  0
    8.9553  -15.4101   23.3225 C   0  0  0  0  0  0  0  0  0  0  0  0
    9.9552  -14.6576   23.2424 O   0  0  0  0  0  0  0  0  0  0  0  0
    7.2920  -12.1796   25.9327 C   0  0  0  0  0  0  0  0  0  0  0  0
    6.7050  -13.5750   26.0212 C   0  0  2  0  0  0  0  0  0  0  0  0
    5.3203  -13.5266   26.5175 C   0  0  0  0  0  0  0  0  0  0  0  0
    7.6435  -14.5691   26.5661 C   0  0  0  0  0  0  0  0  0  0  0  0
    8.8641  -14.9328   25.8177 C   0  0  2  0  0  0  0  0  0  0  0  0
    8.3692  -15.6148   24.5893 N   0  0  0  0  0  0  0  0  0  0  0  0
    9.7010  -15.8899   26.5593 C   0  0  0  0  0  0  0  0  0  0  0  0
   10.2958  -15.5758   27.5988 O   0  0  0  0  0  0  0  0  0  0  0  0
    9.8660  -17.2212   26.1170 O   0  0  0  0  0  0  0  0  0  0  0  0
  1  2  1  0
  2  3  2  0
  4  2  1  0
  5  7  1  0
  5  4  1  0
  5  6  1  6
  7  8  2  0
  9 10  1  0
 10 11  1  0
 12 11  1  0
 13 12  1  6
 13 14  1  0
 14  7  1  0
 15 13  1  0
 16 15  2  0
 18 17  1  1
 18 20  1  0
 18 19  1  0
 21 20  1  1
 21 22  1  0
 21 23  1  0
 22 15  1  0
 23 25  1  0
 24 23  2  0
M  END
$$$$
