NML.pdb
     RDKit          3D

 25 24  0  0  1  0  0  0  0  0999 V2000
   10.5096  -18.1484   18.1209 N   0  0  0  0  0  0  0  0  0  0  0  0
   10.3932  -16.7563   18.3834 C   0  0  0  0  0  0  0  0  0  0  0  0
   10.5430  -15.9890   17.3983 O   0  0  0  0  0  0  0  0  0  0  0  0
   10.1168  -16.1733   19.6932 C   0  0  0  0  0  0  0  0  0  0  0  0
    9.9779  -17.1506   20.8035 C   0  0  2  0  0  0  0  0  0  0  0  0
    8.9289  -18.0954   20.6793 N   0  0  0  0  0  0  0  0  0  0  0  0
    9.7887  -16.4043   22.0839 C   0  0  0  0  0  0  0  0  0  0  0  0
   10.6304  -15.4850   22.3012 O   0  0  0  0  0  0  0  0  0  0  0  0
    6.3762  -11.9603   25.4517 C   0  0  0  0  0  0  0  0  0  0  0  0
    7.2970  -13.5260   25.6056 S   0  0  0  0  0  0  0  0  0  0  0  0
    6.4859  -14.7664   24.5606 C   0  0  0  0  0  0  0  0  0  0  0  0
    7.1875  -16.0928   24.7762 C   0  0  0  0  0  0  0  0  0  0  0  0
    8.5988  -16.0159   24.2267 C   0  0  2  0  0  0  0  0  0  0  0  0
    8.7420  -16.7056   22.9884 N   0  0  0  0  0  0  0  0  0  0  0  0
    9.4901  -16.5809   25.2653 C   0  0  0  0  0  0  0  0  0  0  0  0
   10.0988  -17.6459   25.0054 O   0  0  0  0  0  0  0  0  0  0  0  0
   11.0299  -13.5367   27.9274 C   0  0  0  0  0  0  0  0  0  0  0  0
   10.0359  -14.3571   28.7265 C   0  0  2  0  0  0  0  0  0  0  0  0
    9.6553  -13.6541   29.9622 C   0  0  0  0  0  0  0  0  0  0  0  0
   10.3657  -15.7906   28.7719 C   0  0  0  0  0  0  0  0  0  0  0  0
   10.6517  -16.5312   27.5260 C   0  0  2  0  0  0  0  0  0  0  0  0
    9.6895  -15.9850   26.5285 N   0  0  0  0  0  0  0  0  0  0  0  0
   10.3860  -17.9719   27.6675 C   0  0  0  0  0  0  0  0  0  0  0  0
   11.2625  -18.7703   28.0244 O   0  0  0  0  0  0  0  0  0  0  0  0
    9.1097  -18.5153   27.4011 O   0  0  0  0  0  0  0  0  0  0  0  0
  1  2  1  0
  2  3  2  0
  4  2  1  0
  5  7  1  0
  5  4  1  0
  5  6  1  6
  7  8  2  0
  9 10  1  0
 10 11  1  0
 12 11  1  0
 13 12  1  1
 13 14  1  0
 14  7  1  0
 15 13  1  0
 16 15  2  0
 18 17  1  1
 18 20  1  0
 18 19  1  0
 21 20  1  1
 21 22  1  0
 21 23  1  0
 22 15  1  0
 23 25  1  0
 24 23  2  0
M  END
$$$$
