NML.pdb
     RDKit          3D

 25 24  0  0  1  0  0  0  0  0999 V2000
    8.7588  -17.8001   17.2428 N   0  0  0  0  0  0  0  0  0  0  0  0
    9.5679  -17.9747   18.3983 C   0  0  0  0  0  0  0  0  0  0  0  0
   10.2343  -19.0397   18.4563 O   0  0  0  0  0  0  0  0  0  0  0  0
    9.6730  -17.0188   19.4970 C   0  0  0  0  0  0  0  0  0  0  0  0
    9.5291  -17.6002   20.8566 C   0  0  2  0  0  0  0  0  0  0  0  0
    8.3426  -18.3354   21.1015 N   0  0  0  0  0  0  0  0  0  0  0  0
    9.6168  -16.5009   21.8645 C   0  0  0  0  0  0  0  0  0  0  0  0
   10.6693  -15.8007   21.8081 O   0  0  0  0  0  0  0  0  0  0  0  0
    6.0088  -11.3579   26.2506 C   0  0  0  0  0  0  0  0  0  0  0  0
    6.2492  -13.1616   26.1407 S   0  0  0  0  0  0  0  0  0  0  0  0
    7.1019  -13.5265   24.5825 C   0  0  0  0  0  0  0  0  0  0  0  0
    7.4173  -15.0091   24.5563 C   0  0  0  0  0  0  0  0  0  0  0  0
    8.7115  -15.2395   23.8004 C   0  0  2  0  0  0  0  0  0  0  0  0
    8.5947  -16.2610   22.8143 N   0  0  0  0  0  0  0  0  0  0  0  0
    9.7386  -15.5800   24.8112 C   0  0  0  0  0  0  0  0  0  0  0  0
   10.8580  -15.0210   24.7272 O   0  0  0  0  0  0  0  0  0  0  0  0
   11.2409  -13.9213   27.7457 C   0  0  0  0  0  0  0  0  0  0  0  0
    9.9874  -14.6942   28.1072 C   0  0  2  0  0  0  0  0  0  0  0  0
    9.2914  -14.0580   29.2371 C   0  0  0  0  0  0  0  0  0  0  0  0
   10.1775  -16.1535   28.0926 C   0  0  0  0  0  0  0  0  0  0  0  0
   10.5834  -16.8417   26.8501 C   0  0  2  0  0  0  0  0  0  0  0  0
    9.5240  -16.4982   25.8607 N   0  0  0  0  0  0  0  0  0  0  0  0
   10.5955  -18.3049   27.0087 C   0  0  0  0  0  0  0  0  0  0  0  0
   11.4265  -18.8821   27.7223 O   0  0  0  0  0  0  0  0  0  0  0  0
    9.6530  -19.1251   26.3498 O   0  0  0  0  0  0  0  0  0  0  0  0
  1  2  1  0
  2  3  2  0
  4  2  1  0
  5  7  1  0
  5  4  1  0
  5  6  1  6
  7  8  2  0
  9 10  1  0
 10 11  1  0
 12 11  1  0
 13 12  1  1
 13 14  1  0
 14  7  1  0
 15 13  1  0
 16 15  2  0
 18 17  1  1
 18 20  1  0
 18 19  1  0
 21 20  1  1
 21 22  1  0
 21 23  1  0
 22 15  1  0
 23 25  1  0
 24 23  2  0
M  END
$$$$
