NML.pdb
     RDKit          3D

 25 24  0  0  1  0  0  0  0  0999 V2000
    5.0329  -20.9977   23.6041 N   0  0  0  0  0  0  0  0  0  0  0  0
    4.9461  -20.0103   22.5853 C   0  0  0  0  0  0  0  0  0  0  0  0
    4.1228  -20.2337   21.6613 O   0  0  0  0  0  0  0  0  0  0  0  0
    5.7332  -18.7812   22.5438 C   0  0  0  0  0  0  0  0  0  0  0  0
    6.7459  -18.6424   23.6221 C   0  0  2  0  0  0  0  0  0  0  0  0
    6.2429  -18.4764   24.9366 N   0  0  0  0  0  0  0  0  0  0  0  0
    7.6310  -17.4807   23.3077 C   0  0  0  0  0  0  0  0  0  0  0  0
    8.3975  -17.6406   22.3137 O   0  0  0  0  0  0  0  0  0  0  0  0
    5.8711  -12.5332   26.3633 C   0  0  0  0  0  0  0  0  0  0  0  0
    6.0310  -12.1679   24.5845 S   0  0  0  0  0  0  0  0  0  0  0  0
    6.7098  -13.6350   23.7627 C   0  0  0  0  0  0  0  0  0  0  0  0
    8.0861  -13.9014   24.3397 C   0  0  0  0  0  0  0  0  0  0  0  0
    8.5782  -15.2578   23.8735 C   0  0  2  0  0  0  0  0  0  0  0  0
    7.6125  -16.2868   24.0685 N   0  0  0  0  0  0  0  0  0  0  0  0
    9.8241  -15.5380   24.6231 C   0  0  0  0  0  0  0  0  0  0  0  0
   10.8687  -14.9360   24.2783 O   0  0  0  0  0  0  0  0  0  0  0  0
   10.3329  -14.7496   29.8438 C   0  0  0  0  0  0  0  0  0  0  0  0
   10.8502  -14.9123   28.4278 C   0  0  2  0  0  0  0  0  0  0  0  0
   10.4583  -13.7636   27.5953 C   0  0  0  0  0  0  0  0  0  0  0  0
   10.6998  -16.2799   27.9053 C   0  0  0  0  0  0  0  0  0  0  0  0
   11.1256  -16.6047   26.5285 C   0  0  2  0  0  0  0  0  0  0  0  0
    9.8968  -16.4444   25.7018 N   0  0  0  0  0  0  0  0  0  0  0  0
   11.5740  -18.0010   26.4049 C   0  0  0  0  0  0  0  0  0  0  0  0
   10.8496  -18.8846   25.9279 O   0  0  0  0  0  0  0  0  0  0  0  0
   12.8610  -18.4016   26.8272 O   0  0  0  0  0  0  0  0  0  0  0  0
  1  2  1  0
  2  3  2  0
  4  2  1  0
  5  7  1  0
  5  4  1  0
  5  6  1  1
  7  8  2  0
  9 10  1  0
 10 11  1  0
 12 11  1  0
 13 12  1  1
 13 14  1  0
 14  7  1  0
 15 13  1  0
 16 15  2  0
 18 17  1  1
 18 20  1  0
 18 19  1  0
 21 20  1  1
 21 22  1  0
 21 23  1  0
 22 15  1  0
 23 25  1  0
 24 23  2  0
M  END
$$$$
