NML.pdb
     RDKit          3D

 25 24  0  0  1  0  0  0  0  0999 V2000
   12.4226  -17.6276   16.6238 N   0  0  0  0  0  0  0  0  0  0  0  0
   12.5417  -17.6517   18.0400 C   0  0  0  0  0  0  0  0  0  0  0  0
   13.3169  -18.5182   18.5194 O   0  0  0  0  0  0  0  0  0  0  0  0
   11.8383  -16.7552   18.9530 C   0  0  0  0  0  0  0  0  0  0  0  0
   11.3844  -17.3764   20.2240 C   0  0  2  0  0  0  0  0  0  0  0  0
   10.5123  -18.4868   20.1024 N   0  0  0  0  0  0  0  0  0  0  0  0
   10.7075  -16.3363   21.0559 C   0  0  0  0  0  0  0  0  0  0  0  0
   11.4253  -15.3407   21.3630 O   0  0  0  0  0  0  0  0  0  0  0  0
    6.9753  -12.5220   18.9204 C   0  0  0  0  0  0  0  0  0  0  0  0
    7.6302  -13.2827   20.4420 S   0  0  0  0  0  0  0  0  0  0  0  0
    6.8741  -14.9204   20.6283 C   0  0  0  0  0  0  0  0  0  0  0  0
    7.2041  -15.4345   22.0157 C   0  0  0  0  0  0  0  0  0  0  0  0
    8.7076  -15.4319   22.2138 C   0  0  2  0  0  0  0  0  0  0  0  0
    9.3591  -16.4576   21.4702 N   0  0  0  0  0  0  0  0  0  0  0  0
    8.9445  -15.5856   23.6673 C   0  0  0  0  0  0  0  0  0  0  0  0
    9.7860  -16.4366   24.0417 O   0  0  0  0  0  0  0  0  0  0  0  0
    8.8511  -12.0002   26.8493 C   0  0  0  0  0  0  0  0  0  0  0  0
    7.5700  -12.6908   26.4234 C   0  0  2  0  0  0  0  0  0  0  0  0
    6.4019  -11.8419   26.7075 C   0  0  0  0  0  0  0  0  0  0  0  0
    7.5363  -14.1213   26.7678 C   0  0  0  0  0  0  0  0  0  0  0  0
    8.4565  -15.0703   26.1084 C   0  0  2  0  0  0  0  0  0  0  0  0
    8.2746  -14.8267   24.6501 N   0  0  0  0  0  0  0  0  0  0  0  0
    8.0932  -16.4703   26.3809 C   0  0  0  0  0  0  0  0  0  0  0  0
    8.3296  -17.0112   27.4693 O   0  0  0  0  0  0  0  0  0  0  0  0
    7.4532  -17.2683   25.4068 O   0  0  0  0  0  0  0  0  0  0  0  0
  1  2  1  0
  2  3  2  0
  4  2  1  0
  5  7  1  0
  5  4  1  0
  5  6  1  6
  7  8  2  0
  9 10  1  0
 10 11  1  0
 12 11  1  0
 13 12  1  1
 13 14  1  0
 14  7  1  0
 15 13  1  0
 16 15  2  0
 18 17  1  1
 18 20  1  0
 18 19  1  0
 21 20  1  1
 21 22  1  0
 21 23  1  0
 22 15  1  0
 23 25  1  0
 24 23  2  0
M  END
$$$$
