NML.pdb
     RDKit          3D

 25 24  0  0  1  0  0  0  0  0999 V2000
    9.4156  -19.8983   19.2969 N   0  0  0  0  0  0  0  0  0  0  0  0
    9.4873  -18.5331   18.9077 C   0  0  0  0  0  0  0  0  0  0  0  0
    9.4868  -18.3054   17.6708 O   0  0  0  0  0  0  0  0  0  0  0  0
    9.5593  -17.4039   19.8305 C   0  0  0  0  0  0  0  0  0  0  0  0
    9.3833  -17.7478   21.2651 C   0  0  2  0  0  0  0  0  0  0  0  0
    8.1682  -18.3898   21.6112 N   0  0  0  0  0  0  0  0  0  0  0  0
    9.5044  -16.5013   22.0797 C   0  0  0  0  0  0  0  0  0  0  0  0
   10.5838  -15.8594   21.9252 O   0  0  0  0  0  0  0  0  0  0  0  0
    6.1645  -11.1374   26.8002 C   0  0  0  0  0  0  0  0  0  0  0  0
    5.9329  -12.7069   25.9024 S   0  0  0  0  0  0  0  0  0  0  0  0
    7.5050  -13.1459   25.1123 C   0  0  0  0  0  0  0  0  0  0  0  0
    7.2923  -14.4213   24.3209 C   0  0  0  0  0  0  0  0  0  0  0  0
    8.6131  -14.8813   23.7348 C   0  0  2  0  0  0  0  0  0  0  0  0
    8.4837  -16.0705   22.9611 N   0  0  0  0  0  0  0  0  0  0  0  0
    9.5380  -15.0768   24.8745 C   0  0  0  0  0  0  0  0  0  0  0  0
    9.9401  -14.0608   25.4897 O   0  0  0  0  0  0  0  0  0  0  0  0
   11.2628  -13.8493   27.8082 C   0  0  0  0  0  0  0  0  0  0  0  0
   10.0215  -14.7093   27.9459 C   0  0  2  0  0  0  0  0  0  0  0  0
    9.2678  -14.3452   29.1564 C   0  0  0  0  0  0  0  0  0  0  0  0
   10.2561  -16.1271   27.6286 C   0  0  0  0  0  0  0  0  0  0  0  0
   10.9832  -16.5073   26.4001 C   0  0  2  0  0  0  0  0  0  0  0  0
    9.9893  -16.3431   25.3027 N   0  0  0  0  0  0  0  0  0  0  0  0
   11.4028  -17.9179   26.4218 C   0  0  0  0  0  0  0  0  0  0  0  0
   12.2672  -18.3349   27.2040 O   0  0  0  0  0  0  0  0  0  0  0  0
   10.8348  -18.8689   25.5454 O   0  0  0  0  0  0  0  0  0  0  0  0
  1  2  1  0
  2  3  2  0
  4  2  1  0
  5  7  1  0
  5  4  1  0
  5  6  1  6
  7  8  2  0
  9 10  1  0
 10 11  1  0
 12 11  1  0
 13 12  1  1
 13 14  1  0
 14  7  1  0
 15 13  1  0
 16 15  2  0
 18 17  1  1
 18 20  1  0
 18 19  1  0
 21 20  1  1
 21 22  1  0
 21 23  1  0
 22 15  1  0
 23 25  1  0
 24 23  2  0
M  END
$$$$
