NML.pdb
     RDKit          3D

 25 24  0  0  1  0  0  0  0  0999 V2000
    9.8858  -19.2083   17.5169 N   0  0  0  0  0  0  0  0  0  0  0  0
    9.0894  -18.7357   18.5953 C   0  0  0  0  0  0  0  0  0  0  0  0
    7.9961  -19.3285   18.7823 O   0  0  0  0  0  0  0  0  0  0  0  0
    9.4510  -17.6317   19.4798 C   0  0  0  0  0  0  0  0  0  0  0  0
    9.3418  -17.9238   20.9324 C   0  0  2  0  0  0  0  0  0  0  0  0
    8.1101  -18.4709   21.3708 N   0  0  0  0  0  0  0  0  0  0  0  0
    9.5968  -16.6671   21.6990 C   0  0  0  0  0  0  0  0  0  0  0  0
   10.6823  -16.0785   21.4231 O   0  0  0  0  0  0  0  0  0  0  0  0
    6.3144  -12.6355   27.0004 C   0  0  0  0  0  0  0  0  0  0  0  0
    6.4180  -12.3172   25.2085 S   0  0  0  0  0  0  0  0  0  0  0  0
    7.9705  -13.0257   24.5952 C   0  0  0  0  0  0  0  0  0  0  0  0
    7.6476  -14.3357   23.9039 C   0  0  0  0  0  0  0  0  0  0  0  0
    8.9224  -14.9494   23.3582 C   0  0  2  0  0  0  0  0  0  0  0  0
    8.6879  -16.1716   22.6648 N   0  0  0  0  0  0  0  0  0  0  0  0
    9.8258  -15.1496   24.5142 C   0  0  0  0  0  0  0  0  0  0  0  0
   10.8067  -14.3781   24.6376 O   0  0  0  0  0  0  0  0  0  0  0  0
   11.2937  -13.6957   28.0364 C   0  0  0  0  0  0  0  0  0  0  0  0
    9.9939  -14.4608   27.8799 C   0  0  2  0  0  0  0  0  0  0  0  0
    8.9662  -13.9326   28.7914 C   0  0  0  0  0  0  0  0  0  0  0  0
   10.1843  -15.9148   27.7554 C   0  0  0  0  0  0  0  0  0  0  0  0
   10.6816  -16.4976   26.4923 C   0  0  2  0  0  0  0  0  0  0  0  0
    9.6410  -16.1602   25.4811 N   0  0  0  0  0  0  0  0  0  0  0  0
   10.7828  -17.9642   26.5638 C   0  0  0  0  0  0  0  0  0  0  0  0
   11.5841  -18.5321   27.3178 O   0  0  0  0  0  0  0  0  0  0  0  0
    9.9646  -18.7986   25.7704 O   0  0  0  0  0  0  0  0  0  0  0  0
  1  2  1  0
  2  3  2  0
  4  2  1  0
  5  7  1  0
  5  4  1  0
  5  6  1  6
  7  8  2  0
  9 10  1  0
 10 11  1  0
 12 11  1  0
 13 12  1  1
 13 14  1  0
 14  7  1  0
 15 13  1  0
 16 15  2  0
 18 17  1  1
 18 20  1  0
 18 19  1  0
 21 20  1  1
 21 22  1  0
 21 23  1  0
 22 15  1  0
 23 25  1  0
 24 23  2  0
M  END
$$$$
