TFF.pdb
     RDKit          3D

 30 31  0  0  1  0  0  0  0  0999 V2000
   17.7736  -12.6402  -20.6852 C   0  0  0  0  0  0  0  0  0  0  0  0
   17.7898  -11.6963  -19.5074 C   0  0  1  0  0  0  0  0  0  0  0  0
   16.5044  -11.3082  -19.1353 O   0  0  0  0  0  0  0  0  0  0  0  0
   18.6073  -12.1779  -18.3513 C   0  0  2  0  0  0  0  0  0  0  0  0
   18.0951  -13.4580  -17.9246 N   0  0  0  0  0  0  0  0  0  0  0  0
   18.7687  -11.2184  -17.2564 C   0  0  0  0  0  0  0  0  0  0  0  0
   17.9517  -11.3185  -16.2774 O   0  0  0  0  0  0  0  0  0  0  0  0
   19.7287  -10.1917  -17.1628 N   0  0  0  0  0  0  0  0  0  0  0  0
   19.7611   -9.2385  -16.0409 C   0  0  1  0  0  0  0  0  0  0  0  0
   21.1934   -9.0656  -15.6794 C   0  0  0  0  0  0  0  0  0  0  0  0
   21.5008   -7.9941  -14.7351 C   0  0  0  0  0  0  0  0  0  0  0  0
   21.4193   -8.3073  -13.3728 C   0  0  0  0  0  0  0  0  0  0  0  0
   21.6775   -7.3976  -12.3945 C   0  0  0  0  0  0  0  0  0  0  0  0
   22.0339   -6.1161  -12.7625 C   0  0  0  0  0  0  0  0  0  0  0  0
   22.1234   -5.7751  -14.0896 C   0  0  0  0  0  0  0  0  0  0  0  0
   21.8572   -6.7130  -15.0483 C   0  0  0  0  0  0  0  0  0  0  0  0
   19.0618   -7.9887  -16.3862 C   0  0  0  0  0  0  0  0  0  0  0  0
   19.3130   -7.4729  -17.5049 O   0  0  0  0  0  0  0  0  0  0  0  0
   18.1299   -7.3253  -15.5564 N   0  0  0  0  0  0  0  0  0  0  0  0
   17.6145   -6.0059  -15.8931 C   0  0  1  0  0  0  0  0  0  0  0  0
   16.1138   -6.0048  -15.9713 C   0  0  0  0  0  0  0  0  0  0  0  0
   15.5145   -4.6859  -16.1830 C   0  0  0  0  0  0  0  0  0  0  0  0
   15.4120   -4.1772  -17.4586 C   0  0  0  0  0  0  0  0  0  0  0  0
   14.8482   -2.9296  -17.6728 C   0  0  0  0  0  0  0  0  0  0  0  0
   14.3867   -2.1900  -16.6080 C   0  0  0  0  0  0  0  0  0  0  0  0
   14.5010   -2.7220  -15.3396 C   0  0  0  0  0  0  0  0  0  0  0  0
   15.0584   -3.9623  -15.0998 C   0  0  0  0  0  0  0  0  0  0  0  0
   18.1731   -4.9735  -14.9945 C   0  0  0  0  0  0  0  0  0  0  0  0
   18.5596   -3.7182  -15.3952 O   0  0  0  0  0  0  0  0  0  0  0  0
   18.3069   -5.2576  -13.7772 O   0  0  0  0  0  0  0  0  0  0  0  0
  2  1  1  6
  3  2  1  0
  4  5  1  1
  4  2  1  0
  6  4  1  0
  7  6  2  0
  8  6  1  0
  9  8  1  0
  9 10  1  6
 10 11  1  0
 11 16  1  0
 12 11  2  0
 12 13  1  0
 13 14  2  0
 14 15  1  0
 16 15  2  0
 17 18  2  0
 17  9  1  0
 19 17  1  0
 20 19  1  0
 20 21  1  1
 21 22  1  0
 22 27  1  0
 22 23  2  0
 23 24  1  0
 24 25  2  0
 26 25  1  0
 27 26  2  0
 28 20  1  0
 29 28  1  0
 30 28  2  0
M  END
$$$$
