TFF.pdb
     RDKit          3D

 30 31  0  0  1  0  0  0  0  0999 V2000
   23.2072  -12.7373  -15.0257 C   0  0  0  0  0  0  0  0  0  0  0  0
   24.3762  -12.5165  -15.9547 C   0  0  1  0  0  0  0  0  0  0  0  0
   25.2040  -13.6352  -16.0227 O   0  0  0  0  0  0  0  0  0  0  0  0
   23.9934  -11.9960  -17.3035 C   0  0  2  0  0  0  0  0  0  0  0  0
   25.1897  -11.8432  -18.0964 N   0  0  0  0  0  0  0  0  0  0  0  0
   23.1412  -10.8047  -17.2955 C   0  0  0  0  0  0  0  0  0  0  0  0
   23.7267   -9.6784  -17.1379 O   0  0  0  0  0  0  0  0  0  0  0  0
   21.7409  -10.7624  -17.4421 N   0  0  0  0  0  0  0  0  0  0  0  0
   20.9813   -9.5010  -17.4275 C   0  0  1  0  0  0  0  0  0  0  0  0
   19.7188   -9.7637  -18.1686 C   0  0  0  0  0  0  0  0  0  0  0  0
   18.7651   -8.6593  -18.2402 C   0  0  0  0  0  0  0  0  0  0  0  0
   17.5563   -8.8204  -17.5519 C   0  0  0  0  0  0  0  0  0  0  0  0
   16.5849   -7.8676  -17.5432 C   0  0  0  0  0  0  0  0  0  0  0  0
   16.8025   -6.6971  -18.2411 C   0  0  0  0  0  0  0  0  0  0  0  0
   17.9767   -6.5064  -18.9269 C   0  0  0  0  0  0  0  0  0  0  0  0
   18.9328   -7.4838  -18.9157 C   0  0  0  0  0  0  0  0  0  0  0  0
   20.7925   -9.0112  -16.0511 C   0  0  0  0  0  0  0  0  0  0  0  0
   20.4822   -9.8548  -15.1721 O   0  0  0  0  0  0  0  0  0  0  0  0
   20.9339   -7.6657  -15.6429 N   0  0  0  0  0  0  0  0  0  0  0  0
   20.7683   -7.2706  -14.2513 C   0  0  1  0  0  0  0  0  0  0  0  0
   22.0760   -6.8569  -13.6374 C   0  0  0  0  0  0  0  0  0  0  0  0
   22.6779   -5.6615  -14.2310 C   0  0  0  0  0  0  0  0  0  0  0  0
   22.3026   -4.4133  -13.7865 C   0  0  0  0  0  0  0  0  0  0  0  0
   22.8633   -3.2737  -14.3407 C   0  0  0  0  0  0  0  0  0  0  0  0
   23.8011   -3.3841  -15.3417 C   0  0  0  0  0  0  0  0  0  0  0  0
   24.1602   -4.6462  -15.7696 C   0  0  0  0  0  0  0  0  0  0  0  0
   23.6165   -5.7968  -15.2337 C   0  0  0  0  0  0  0  0  0  0  0  0
   19.6907   -6.2686  -14.1095 C   0  0  0  0  0  0  0  0  0  0  0  0
   19.1455   -5.5581  -15.1504 O   0  0  0  0  0  0  0  0  0  0  0  0
   19.2370   -6.0459  -12.9583 O   0  0  0  0  0  0  0  0  0  0  0  0
  2  1  1  6
  3  2  1  0
  4  5  1  6
  4  2  1  0
  6  4  1  0
  7  6  2  0
  8  6  1  0
  9  8  1  0
  9 10  1  1
 10 11  1  0
 11 16  1  0
 12 11  2  0
 12 13  1  0
 13 14  2  0
 14 15  1  0
 16 15  2  0
 17 18  2  0
 17  9  1  0
 19 17  1  0
 20 19  1  0
 20 21  1  6
 21 22  1  0
 22 27  1  0
 22 23  2  0
 23 24  1  0
 24 25  2  0
 26 25  1  0
 27 26  2  0
 28 20  1  0
 29 28  1  0
 30 28  2  0
M  END
$$$$
