TFF.pdb
     RDKit          3D

 30 31  0  0  1  0  0  0  0  0999 V2000
   25.0507  -16.3502  -17.1391 C   0  0  0  0  0  0  0  0  0  0  0  0
   25.8791  -17.0101  -18.2145 C   0  0  1  0  0  0  0  0  0  0  0  0
   26.2982  -16.0976  -19.1805 O   0  0  0  0  0  0  0  0  0  0  0  0
   26.9971  -17.8544  -17.6911 C   0  0  2  0  0  0  0  0  0  0  0  0
   27.6387  -18.5131  -18.8037 N   0  0  0  0  0  0  0  0  0  0  0  0
   26.6365  -18.7648  -16.6018 C   0  0  0  0  0  0  0  0  0  0  0  0
   26.1377  -19.8942  -16.9360 O   0  0  0  0  0  0  0  0  0  0  0  0
   26.7783  -18.5321  -15.2198 N   0  0  0  0  0  0  0  0  0  0  0  0
   26.2518  -19.4582  -14.2031 C   0  0  1  0  0  0  0  0  0  0  0  0
   27.1337  -19.3196  -13.0135 C   0  0  0  0  0  0  0  0  0  0  0  0
   26.7407  -20.0684  -11.8222 C   0  0  0  0  0  0  0  0  0  0  0  0
   26.1392  -19.3420  -10.7871 C   0  0  0  0  0  0  0  0  0  0  0  0
   25.7314  -19.9215   -9.6255 C   0  0  0  0  0  0  0  0  0  0  0  0
   25.9193  -21.2791   -9.4639 C   0  0  0  0  0  0  0  0  0  0  0  0
   26.5061  -22.0215  -10.4589 C   0  0  0  0  0  0  0  0  0  0  0  0
   26.9048  -21.4086  -11.6143 C   0  0  0  0  0  0  0  0  0  0  0  0
   24.8250  -19.2025  -13.9404 C   0  0  0  0  0  0  0  0  0  0  0  0
   24.4877  -18.0231  -13.6647 O   0  0  0  0  0  0  0  0  0  0  0  0
   23.8062  -20.1812  -13.9751 N   0  0  0  0  0  0  0  0  0  0  0  0
   22.4312  -19.8621  -13.6179 C   0  0  1  0  0  0  0  0  0  0  0  0
   21.9763  -18.5854  -14.2666 C   0  0  0  0  0  0  0  0  0  0  0  0
   20.6958  -18.0733  -13.7748 C   0  0  0  0  0  0  0  0  0  0  0  0
   19.5203  -18.5052  -14.3474 C   0  0  0  0  0  0  0  0  0  0  0  0
   18.3017  -18.0275  -13.8925 C   0  0  0  0  0  0  0  0  0  0  0  0
   18.2601  -17.1156  -12.8626 C   0  0  0  0  0  0  0  0  0  0  0  0
   19.4520  -16.6985  -12.3057 C   0  0  0  0  0  0  0  0  0  0  0  0
   20.6788  -17.1594  -12.7407 C   0  0  0  0  0  0  0  0  0  0  0  0
   21.5389  -21.0151  -13.8625 C   0  0  0  0  0  0  0  0  0  0  0  0
   21.9039  -22.1530  -14.5391 O   0  0  0  0  0  0  0  0  0  0  0  0
   20.3623  -20.9568  -13.4236 O   0  0  0  0  0  0  0  0  0  0  0  0
  2  1  1  1
  3  2  1  0
  4  5  1  6
  4  2  1  0
  6  4  1  0
  7  6  2  0
  8  6  1  0
  9  8  1  0
  9 10  1  1
 10 11  1  0
 11 16  1  0
 12 11  2  0
 12 13  1  0
 13 14  2  0
 14 15  1  0
 16 15  2  0
 17 18  2  0
 17  9  1  0
 19 17  1  0
 20 19  1  0
 20 21  1  6
 21 22  1  0
 22 27  1  0
 22 23  2  0
 23 24  1  0
 24 25  2  0
 26 25  1  0
 27 26  2  0
 28 20  1  0
 29 28  1  0
 30 28  2  0
M  END
$$$$
