TFF.pdb
     RDKit          3D

 30 31  0  0  1  0  0  0  0  0999 V2000
   28.4601  -28.7317  -18.2392 C   0  0  0  0  0  0  0  0  0  0  0  0
   27.8187  -27.4794  -17.6927 C   0  0  1  0  0  0  0  0  0  0  0  0
   27.0409  -27.7429  -16.5671 O   0  0  0  0  0  0  0  0  0  0  0  0
   28.7725  -26.3462  -17.4858 C   0  0  2  0  0  0  0  0  0  0  0  0
   29.7621  -26.7467  -16.5145 N   0  0  0  0  0  0  0  0  0  0  0  0
   28.1525  -25.0527  -17.1893 C   0  0  0  0  0  0  0  0  0  0  0  0
   28.2668  -24.6201  -15.9911 O   0  0  0  0  0  0  0  0  0  0  0  0
   27.4398  -24.2290  -18.0826 N   0  0  0  0  0  0  0  0  0  0  0  0
   26.8146  -22.9630  -17.6645 C   0  0  1  0  0  0  0  0  0  0  0  0
   26.9342  -22.0350  -18.8206 C   0  0  0  0  0  0  0  0  0  0  0  0
   26.3120  -20.7221  -18.6674 C   0  0  0  0  0  0  0  0  0  0  0  0
   25.0198  -20.5691  -19.1847 C   0  0  0  0  0  0  0  0  0  0  0  0
   24.3338  -19.3965  -19.1090 C   0  0  0  0  0  0  0  0  0  0  0  0
   24.9379  -18.3168  -18.4975 C   0  0  0  0  0  0  0  0  0  0  0  0
   26.2043  -18.4323  -17.9794 C   0  0  0  0  0  0  0  0  0  0  0  0
   26.8668  -19.6248  -18.0720 C   0  0  0  0  0  0  0  0  0  0  0  0
   25.4355  -23.1818  -17.1952 C   0  0  0  0  0  0  0  0  0  0  0  0
   24.7287  -24.0032  -17.8328 O   0  0  0  0  0  0  0  0  0  0  0  0
   24.8460  -22.5394  -16.0831 N   0  0  0  0  0  0  0  0  0  0  0  0
   23.4804  -22.8309  -15.6708 C   0  0  1  0  0  0  0  0  0  0  0  0
   23.3638  -22.9180  -14.1752 C   0  0  0  0  0  0  0  0  0  0  0  0
   22.0245  -23.2502  -13.6857 C   0  0  0  0  0  0  0  0  0  0  0  0
   21.6264  -24.5669  -13.6207 C   0  0  0  0  0  0  0  0  0  0  0  0
   20.3611  -24.8951  -13.1607 C   0  0  0  0  0  0  0  0  0  0  0  0
   19.4930  -23.9032  -12.7654 C   0  0  0  0  0  0  0  0  0  0  0  0
   19.9158  -22.5915  -12.8402 C   0  0  0  0  0  0  0  0  0  0  0  0
   21.1710  -22.2385  -13.2945 C   0  0  0  0  0  0  0  0  0  0  0  0
   22.5258  -21.8920  -16.2974 C   0  0  0  0  0  0  0  0  0  0  0  0
   21.3502  -22.2638  -16.9019 O   0  0  0  0  0  0  0  0  0  0  0  0
   22.8032  -20.6659  -16.2796 O   0  0  0  0  0  0  0  0  0  0  0  0
  2  1  1  1
  3  2  1  0
  4  5  1  1
  4  2  1  0
  6  4  1  0
  7  6  2  0
  8  6  1  0
  9  8  1  0
  9 10  1  6
 10 11  1  0
 11 16  1  0
 12 11  2  0
 12 13  1  0
 13 14  2  0
 14 15  1  0
 16 15  2  0
 17 18  2  0
 17  9  1  0
 19 17  1  0
 20 19  1  0
 20 21  1  1
 21 22  1  0
 22 27  1  0
 22 23  2  0
 23 24  1  0
 24 25  2  0
 26 25  1  0
 27 26  2  0
 28 20  1  0
 29 28  1  0
 30 28  2  0
M  END
$$$$
