TFF.pdb
     RDKit          3D

 30 31  0  0  1  0  0  0  0  0999 V2000
   26.6524  -18.8343  -14.9235 C   0  0  0  0  0  0  0  0  0  0  0  0
   27.6563  -19.9470  -15.1034 C   0  0  1  0  0  0  0  0  0  0  0  0
   28.6518  -19.6057  -16.0166 O   0  0  0  0  0  0  0  0  0  0  0  0
   28.2062  -20.4853  -13.8210 C   0  0  2  0  0  0  0  0  0  0  0  0
   29.1659  -21.5190  -14.1275 N   0  0  0  0  0  0  0  0  0  0  0  0
   27.2046  -20.8921  -12.8327 C   0  0  0  0  0  0  0  0  0  0  0  0
   26.7575  -22.0870  -12.9236 O   0  0  0  0  0  0  0  0  0  0  0  0
   26.6761  -20.1082  -11.7884 N   0  0  0  0  0  0  0  0  0  0  0  0
   25.6524  -20.6144  -10.8589 C   0  0  1  0  0  0  0  0  0  0  0  0
   25.7002  -19.7322   -9.6623 C   0  0  0  0  0  0  0  0  0  0  0  0
   26.7235  -20.0420   -8.6667 C   0  0  0  0  0  0  0  0  0  0  0  0
   26.9118  -19.1086   -7.6400 C   0  0  0  0  0  0  0  0  0  0  0  0
   27.8348  -19.2784   -6.6548 C   0  0  0  0  0  0  0  0  0  0  0  0
   28.6148  -20.4168   -6.6706 C   0  0  0  0  0  0  0  0  0  0  0  0
   28.4562  -21.3526   -7.6628 C   0  0  0  0  0  0  0  0  0  0  0  0
   27.5196  -21.1518   -8.6385 C   0  0  0  0  0  0  0  0  0  0  0  0
   24.3339  -20.6898  -11.5115 C   0  0  0  0  0  0  0  0  0  0  0  0
   24.0711  -19.8302  -12.3905 O   0  0  0  0  0  0  0  0  0  0  0  0
   23.3418  -21.6548  -11.2255 N   0  0  0  0  0  0  0  0  0  0  0  0
   22.0388  -21.6228  -11.8745 C   0  0  1  0  0  0  0  0  0  0  0  0
   21.2695  -22.8896  -11.6269 C   0  0  0  0  0  0  0  0  0  0  0  0
   19.9123  -22.8969  -12.1761 C   0  0  0  0  0  0  0  0  0  0  0  0
   18.8366  -22.6723  -11.3462 C   0  0  0  0  0  0  0  0  0  0  0  0
   17.5469  -22.6778  -11.8528 C   0  0  0  0  0  0  0  0  0  0  0  0
   17.3338  -22.9090  -13.1926 C   0  0  0  0  0  0  0  0  0  0  0  0
   18.4284  -23.1314  -14.0033 C   0  0  0  0  0  0  0  0  0  0  0  0
   19.7231  -23.1308  -13.5231 C   0  0  0  0  0  0  0  0  0  0  0  0
   21.3019  -20.3903  -11.5233 C   0  0  0  0  0  0  0  0  0  0  0  0
   20.4958  -19.6914  -12.3879 O   0  0  0  0  0  0  0  0  0  0  0  0
   21.4168  -19.9448  -10.3533 O   0  0  0  0  0  0  0  0  0  0  0  0
  2  1  1  1
  3  2  1  0
  4  5  1  6
  4  2  1  0
  6  4  1  0
  7  6  2  0
  8  6  1  0
  9  8  1  0
  9 10  1  1
 10 11  1  0
 11 16  1  0
 12 11  2  0
 12 13  1  0
 13 14  2  0
 14 15  1  0
 16 15  2  0
 17 18  2  0
 17  9  1  0
 19 17  1  0
 20 19  1  0
 20 21  1  1
 21 22  1  0
 22 27  1  0
 22 23  2  0
 23 24  1  0
 24 25  2  0
 26 25  1  0
 27 26  2  0
 28 20  1  0
 29 28  1  0
 30 28  2  0
M  END
$$$$
