TFF.pdb
     RDKit          3D

 30 31  0  0  1  0  0  0  0  0999 V2000
   30.2533  -38.5333  -10.4613 C   0  0  0  0  0  0  0  0  0  0  0  0
   30.1479  -39.4890   -9.2977 C   0  0  1  0  0  0  0  0  0  0  0  0
   31.2591  -40.3250   -9.2100 O   0  0  0  0  0  0  0  0  0  0  0  0
   29.8133  -38.8313   -7.9969 C   0  0  2  0  0  0  0  0  0  0  0  0
   29.6616  -39.8526   -6.9884 N   0  0  0  0  0  0  0  0  0  0  0  0
   28.6961  -37.8852   -8.0434 C   0  0  0  0  0  0  0  0  0  0  0  0
   27.5236  -38.3697   -7.8806 O   0  0  0  0  0  0  0  0  0  0  0  0
   28.7709  -36.4937   -8.2495 N   0  0  0  0  0  0  0  0  0  0  0  0
   27.5730  -35.6486   -8.3880 C   0  0  1  0  0  0  0  0  0  0  0  0
   27.9090  -34.3404   -7.7652 C   0  0  0  0  0  0  0  0  0  0  0  0
   26.9005  -33.2893   -7.8764 C   0  0  0  0  0  0  0  0  0  0  0  0
   26.0225  -33.1368   -6.7962 C   0  0  0  0  0  0  0  0  0  0  0  0
   25.0380  -32.1978   -6.7786 C   0  0  0  0  0  0  0  0  0  0  0  0
   24.9017  -31.3640   -7.8698 C   0  0  0  0  0  0  0  0  0  0  0  0
   25.7458  -31.4864   -8.9460 C   0  0  0  0  0  0  0  0  0  0  0  0
   26.7250  -32.4405   -8.9324 C   0  0  0  0  0  0  0  0  0  0  0  0
   27.1427  -35.5645   -9.7944 C   0  0  0  0  0  0  0  0  0  0  0  0
   28.0384  -35.4589  -10.6703 O   0  0  0  0  0  0  0  0  0  0  0  0
   25.8001  -35.5936  -10.2345 N   0  0  0  0  0  0  0  0  0  0  0  0
   25.4591  -35.4914  -11.6463 C   0  0  1  0  0  0  0  0  0  0  0  0
   25.3322  -36.8473  -12.2814 C   0  0  0  0  0  0  0  0  0  0  0  0
   24.2039  -37.6449  -11.7972 C   0  0  0  0  0  0  0  0  0  0  0  0
   22.9792  -37.5470  -12.4194 C   0  0  0  0  0  0  0  0  0  0  0  0
   21.9027  -38.2951  -11.9704 C   0  0  0  0  0  0  0  0  0  0  0  0
   22.0526  -39.1425  -10.8965 C   0  0  0  0  0  0  0  0  0  0  0  0
   23.2899  -39.2227  -10.2903 C   0  0  0  0  0  0  0  0  0  0  0  0
   24.3779  -38.4882  -10.7185 C   0  0  0  0  0  0  0  0  0  0  0  0
   24.2827  -34.6187  -11.8455 C   0  0  0  0  0  0  0  0  0  0  0  0
   23.8429  -34.1704  -13.0667 O   0  0  0  0  0  0  0  0  0  0  0  0
   23.6348  -34.2573  -10.8305 O   0  0  0  0  0  0  0  0  0  0  0  0
  2  1  1  6
  3  2  1  0
  4  5  1  1
  4  2  1  0
  6  4  1  0
  7  6  2  0
  8  6  1  0
  9  8  1  0
  9 10  1  6
 10 11  1  0
 11 16  1  0
 12 11  2  0
 12 13  1  0
 13 14  2  0
 14 15  1  0
 16 15  2  0
 17 18  2  0
 17  9  1  0
 19 17  1  0
 20 19  1  0
 20 21  1  1
 21 22  1  0
 22 27  1  0
 22 23  2  0
 23 24  1  0
 24 25  2  0
 26 25  1  0
 27 26  2  0
 28 20  1  0
 29 28  1  0
 30 28  2  0
M  END
$$$$
