TFF.pdb
     RDKit          3D

 30 31  0  0  1  0  0  0  0  0999 V2000
   21.7661   -5.6742  -20.5077 C   0  0  0  0  0  0  0  0  0  0  0  0
   22.0802   -7.1506  -20.5065 C   0  0  1  0  0  0  0  0  0  0  0  0
   22.6374   -7.5640  -21.7148 O   0  0  0  0  0  0  0  0  0  0  0  0
   22.8678   -7.6055  -19.3193 C   0  0  2  0  0  0  0  0  0  0  0  0
   23.1242   -9.0199  -19.4492 N   0  0  0  0  0  0  0  0  0  0  0  0
   22.3111   -7.2295  -18.0177 C   0  0  0  0  0  0  0  0  0  0  0  0
   21.2603   -7.8527  -17.6388 O   0  0  0  0  0  0  0  0  0  0  0  0
   22.8072   -6.2517  -17.1334 N   0  0  0  0  0  0  0  0  0  0  0  0
   22.1617   -5.9495  -15.8448 C   0  0  1  0  0  0  0  0  0  0  0  0
   23.2054   -6.1313  -14.8008 C   0  0  0  0  0  0  0  0  0  0  0  0
   23.6620   -7.4997  -14.5694 C   0  0  0  0  0  0  0  0  0  0  0  0
   22.9004   -8.2820  -13.6926 C   0  0  0  0  0  0  0  0  0  0  0  0
   23.2215   -9.5694  -13.3913 C   0  0  0  0  0  0  0  0  0  0  0  0
   24.3428  -10.1236  -13.9746 C   0  0  0  0  0  0  0  0  0  0  0  0
   25.1121   -9.3844  -14.8391 C   0  0  0  0  0  0  0  0  0  0  0  0
   24.7620   -8.0931  -15.1208 C   0  0  0  0  0  0  0  0  0  0  0  0
   21.5401   -4.6141  -15.8629 C   0  0  0  0  0  0  0  0  0  0  0  0
   22.2137   -3.6666  -16.3417 O   0  0  0  0  0  0  0  0  0  0  0  0
   20.2445   -4.3164  -15.3836 N   0  0  0  0  0  0  0  0  0  0  0  0
   19.6160   -3.0278  -15.6375 C   0  0  1  0  0  0  0  0  0  0  0  0
   19.6692   -2.6674  -17.0953 C   0  0  0  0  0  0  0  0  0  0  0  0
   19.0489   -1.3839  -17.4298 C   0  0  0  0  0  0  0  0  0  0  0  0
   17.7743   -1.3544  -17.9502 C   0  0  0  0  0  0  0  0  0  0  0  0
   17.1762   -0.1467  -18.2724 C   0  0  0  0  0  0  0  0  0  0  0  0
   17.8556    1.0334  -18.0735 C   0  0  0  0  0  0  0  0  0  0  0  0
   19.1317    0.9770  -17.5508 C   0  0  0  0  0  0  0  0  0  0  0  0
   19.7495   -0.2132  -17.2214 C   0  0  0  0  0  0  0  0  0  0  0  0
   18.2599   -2.9750  -15.0513 C   0  0  0  0  0  0  0  0  0  0  0  0
   17.7495   -1.9015  -14.3637 O   0  0  0  0  0  0  0  0  0  0  0  0
   17.5163   -3.9795  -15.1877 O   0  0  0  0  0  0  0  0  0  0  0  0
  2  1  1  6
  3  2  1  0
  4  5  1  1
  4  2  1  0
  6  4  1  0
  7  6  2  0
  8  6  1  0
  9  8  1  0
  9 10  1  1
 10 11  1  0
 11 16  1  0
 12 11  2  0
 12 13  1  0
 13 14  2  0
 14 15  1  0
 16 15  2  0
 17 18  2  0
 17  9  1  0
 19 17  1  0
 20 19  1  0
 20 21  1  6
 21 22  1  0
 22 27  1  0
 22 23  2  0
 23 24  1  0
 24 25  2  0
 26 25  1  0
 27 26  2  0
 28 20  1  0
 29 28  1  0
 30 28  2  0
M  END
$$$$
