TFF.pdb
     RDKit          3D

 30 31  0  0  1  0  0  0  0  0999 V2000
   22.3177  -20.7992  -12.8850 C   0  0  0  0  0  0  0  0  0  0  0  0
   23.1456  -21.5087  -13.9289 C   0  0  1  0  0  0  0  0  0  0  0  0
   22.5605  -21.4386  -15.1914 O   0  0  0  0  0  0  0  0  0  0  0  0
   24.5878  -21.1130  -13.9356 C   0  0  2  0  0  0  0  0  0  0  0  0
   25.2405  -21.7648  -15.0458 N   0  0  0  0  0  0  0  0  0  0  0  0
   25.2899  -21.2854  -12.6617 C   0  0  0  0  0  0  0  0  0  0  0  0
   25.6581  -22.4733  -12.3628 O   0  0  0  0  0  0  0  0  0  0  0  0
   25.6050  -20.2822  -11.7243 N   0  0  0  0  0  0  0  0  0  0  0  0
   26.3108  -20.5699  -10.4644 C   0  0  1  0  0  0  0  0  0  0  0  0
   27.1404  -19.3720  -10.1661 C   0  0  0  0  0  0  0  0  0  0  0  0
   27.9868  -19.4470   -8.9777 C   0  0  0  0  0  0  0  0  0  0  0  0
   27.5509  -18.7495   -7.8444 C   0  0  0  0  0  0  0  0  0  0  0  0
   28.2501  -18.7371   -6.6771 C   0  0  0  0  0  0  0  0  0  0  0  0
   29.4354  -19.4408   -6.6105 C   0  0  0  0  0  0  0  0  0  0  0  0
   29.8920  -20.1356   -7.7033 C   0  0  0  0  0  0  0  0  0  0  0  0
   29.1655  -20.1277   -8.8616 C   0  0  0  0  0  0  0  0  0  0  0  0
   25.3639  -20.9397   -9.3982 C   0  0  0  0  0  0  0  0  0  0  0  0
   24.1762  -20.5440   -9.5137 O   0  0  0  0  0  0  0  0  0  0  0  0
   25.6883  -21.7057   -8.2558 N   0  0  0  0  0  0  0  0  0  0  0  0
   24.6882  -22.0333   -7.2495 C   0  0  1  0  0  0  0  0  0  0  0  0
   25.3002  -22.7475   -6.0776 C   0  0  0  0  0  0  0  0  0  0  0  0
   26.1477  -21.9097   -5.2269 C   0  0  0  0  0  0  0  0  0  0  0  0
   27.5153  -21.9350   -5.3860 C   0  0  0  0  0  0  0  0  0  0  0  0
   28.3290  -21.1482   -4.5866 C   0  0  0  0  0  0  0  0  0  0  0  0
   27.7723  -20.3349   -3.6261 C   0  0  0  0  0  0  0  0  0  0  0  0
   26.3993  -20.3276   -3.4865 C   0  0  0  0  0  0  0  0  0  0  0  0
   25.5670  -21.1018   -4.2704 C   0  0  0  0  0  0  0  0  0  0  0  0
   23.8948  -20.8410   -6.8830 C   0  0  0  0  0  0  0  0  0  0  0  0
   22.7570  -20.8682   -6.1146 O   0  0  0  0  0  0  0  0  0  0  0  0
   24.2827  -19.7204   -7.3006 O   0  0  0  0  0  0  0  0  0  0  0  0
  2  1  1  1
  3  2  1  0
  4  5  1  6
  4  2  1  0
  6  4  1  0
  7  6  2  0
  8  6  1  0
  9  8  1  0
  9 10  1  1
 10 11  1  0
 11 16  1  0
 12 11  2  0
 12 13  1  0
 13 14  2  0
 14 15  1  0
 16 15  2  0
 17 18  2  0
 17  9  1  0
 19 17  1  0
 20 19  1  0
 20 21  1  1
 21 22  1  0
 22 27  1  0
 22 23  2  0
 23 24  1  0
 24 25  2  0
 26 25  1  0
 27 26  2  0
 28 20  1  0
 29 28  1  0
 30 28  2  0
M  END
$$$$
