RNS.pdb
     RDKit          3D

 26 25  0  0  1  0  0  0  0  0999 V2000
   26.7834  -21.5325   -9.8357 N   0  0  0  0  0  0  0  0  0  0  0  0
   25.6110  -20.9069  -10.3335 C   0  0  0  0  0  0  0  0  0  0  0  0
   24.4627  -21.0206   -9.7236 N   0  0  0  0  0  0  0  0  0  0  0  0
   25.7173  -20.1452  -11.5273 N   0  0  0  0  0  0  0  0  0  0  0  0
   26.9227  -20.1987  -12.3330 C   0  0  0  0  0  0  0  0  0  0  0  0
   26.9100  -21.3503  -13.2938 C   0  0  0  0  0  0  0  0  0  0  0  0
   26.8301  -20.9327  -14.7258 C   0  0  0  0  0  0  0  0  0  0  0  0
   26.3644  -19.5125  -14.9208 C   0  0  2  0  0  0  0  0  0  0  0  0
   25.9087  -18.8860  -13.7258 N   0  0  0  0  0  0  0  0  0  0  0  0
   25.4461  -19.3760  -16.0613 C   0  0  0  0  0  0  0  0  0  0  0  0
   25.7999  -19.8398  -17.1964 O   0  0  0  0  0  0  0  0  0  0  0  0
   23.6190  -20.6320  -10.1842 N   0  0  0  0  0  0  0  0  0  0  0  0
   19.6757  -17.7597  -17.1448 C   0  0  0  0  0  0  0  0  0  0  0  0
   20.8007  -18.5733  -17.5865 O   0  0  0  0  0  0  0  0  0  0  0  0
   20.7494  -19.0567  -18.7448 C   0  0  0  0  0  0  0  0  0  0  0  0
   21.8790  -18.7430  -16.6271 C   0  0  2  0  0  0  0  0  0  0  0  0
   23.2656  -18.6707  -17.1591 N   0  0  0  0  0  0  0  0  0  0  0  0
   24.1833  -18.7547  -15.9697 C   0  0  0  0  0  0  0  0  0  0  0  0
   23.5899  -17.3472  -17.7629 O   0  0  0  0  0  0  0  0  0  0  0  0
   23.6339  -16.3164  -16.9774 O   0  0  0  0  0  0  0  0  0  0  0  0
   24.7476  -16.7830  -21.6118 C   0  0  0  0  0  0  0  0  0  0  0  0
   25.1323  -15.8146  -20.6902 C   0  0  1  0  0  0  0  0  0  0  0  0
   24.1210  -15.6750  -19.5682 N   0  0  0  0  0  0  0  0  0  0  0  0
   23.8682  -17.0617  -19.1109 C   0  0  0  0  0  0  0  0  0  0  0  0
   22.9042  -15.0970  -20.1580 O   0  0  0  0  0  0  0  0  0  0  0  0
   21.7489  -15.8413  -20.2125 O   0  0  0  0  0  0  0  0  0  0  0  0
  2  3  2  0
  2  1  1  0
  4  2  1  0
  5  4  1  0
  6  5  1  0
  7  6  1  0
  8 10  1  0
  8  7  1  0
  8  9  1  1
 10 17  1  0
 11 10  2  0
 13 12  1  0
 14 13  2  0
 15 13  1  0
 16 17  1  0
 16 15  1  6
 18 16  1  0
 19 18  2  0
 21 20  1  0
 22 21  1  1
 22 23  1  0
 22 24  1  0
 23 18  1  0
 24 25  1  0
 26 24  2  0
M  END
$$$$
