RNS.pdb
     RDKit          3D

 26 25  0  0  1  0  0  0  0  0999 V2000
   12.6614  -13.9097  -16.8975 N   0  0  0  0  0  0  0  0  0  0  0  0
   13.1180  -14.7977  -15.8893 C   0  0  0  0  0  0  0  0  0  0  0  0
   13.0714  -16.0927  -16.0451 N   0  0  0  0  0  0  0  0  0  0  0  0
   13.6324  -14.2372  -14.6902 N   0  0  0  0  0  0  0  0  0  0  0  0
   13.6846  -12.7985  -14.5100 C   0  0  0  0  0  0  0  0  0  0  0  0
   14.6660  -12.1475  -15.4387 C   0  0  0  0  0  0  0  0  0  0  0  0
   14.7541  -10.6658  -15.2718 C   0  0  0  0  0  0  0  0  0  0  0  0
   15.6643   -9.9938  -16.2678 C   0  0  2  0  0  0  0  0  0  0  0  0
   16.2881  -10.8944  -17.1777 N   0  0  0  0  0  0  0  0  0  0  0  0
   16.5886   -9.0444  -15.6299 C   0  0  0  0  0  0  0  0  0  0  0  0
   16.1202   -8.1815  -14.8146 O   0  0  0  0  0  0  0  0  0  0  0  0
   13.4063  -16.6951  -15.2705 N   0  0  0  0  0  0  0  0  0  0  0  0
   20.8359   -7.0139  -13.4732 C   0  0  0  0  0  0  0  0  0  0  0  0
   21.2692   -8.1208  -14.3157 O   0  0  0  0  0  0  0  0  0  0  0  0
   22.4889   -8.4211  -14.2994 C   0  0  0  0  0  0  0  0  0  0  0  0
   20.2305   -8.7702  -15.0975 C   0  0  1  0  0  0  0  0  0  0  0  0
   18.8962   -8.1141  -15.1136 N   0  0  0  0  0  0  0  0  0  0  0  0
   17.9780   -9.0342  -15.8714 C   0  0  0  0  0  0  0  0  0  0  0  0
   18.8748   -6.8564  -15.9131 O   0  0  0  0  0  0  0  0  0  0  0  0
   18.9391   -6.9571  -17.2043 O   0  0  0  0  0  0  0  0  0  0  0  0
   17.2126   -2.7041  -17.0815 C   0  0  0  0  0  0  0  0  0  0  0  0
   17.3453   -3.9028  -16.3883 C   0  0  1  0  0  0  0  0  0  0  0  0
   18.7844   -4.3818  -16.3666 N   0  0  0  0  0  0  0  0  0  0  0  0
   18.7857   -5.5365  -15.4378 C   0  0  0  0  0  0  0  0  0  0  0  0
   19.5938   -3.2814  -15.8219 O   0  0  0  0  0  0  0  0  0  0  0  0
   20.0973   -3.3681  -14.5449 O   0  0  0  0  0  0  0  0  0  0  0  0
  2  3  2  0
  2  1  1  0
  4  2  1  0
  5  4  1  0
  6  5  1  0
  7  6  1  0
  8 10  1  0
  8  7  1  0
  8  9  1  1
 10 17  1  0
 11 10  2  0
 13 12  1  0
 14 13  2  0
 15 13  1  0
 16 17  1  0
 16 15  1  1
 18 16  1  0
 19 18  2  0
 21 20  1  0
 22 21  1  6
 22 23  1  0
 22 24  1  0
 23 18  1  0
 24 25  1  0
 26 24  2  0
M  END
$$$$
