RNS.pdb
     RDKit          3D

 26 25  0  0  1  0  0  0  0  0999 V2000
   28.1541  -17.7845  -16.8986 N   0  0  0  0  0  0  0  0  0  0  0  0
   28.5817  -17.9304  -18.2438 C   0  0  0  0  0  0  0  0  0  0  0  0
   28.9579  -16.9045  -18.9577 N   0  0  0  0  0  0  0  0  0  0  0  0
   28.5897  -19.2356  -18.8031 N   0  0  0  0  0  0  0  0  0  0  0  0
   28.2004  -20.3835  -18.0058 C   0  0  0  0  0  0  0  0  0  0  0  0
   26.8863  -20.1724  -17.3143 C   0  0  0  0  0  0  0  0  0  0  0  0
   26.4549  -21.3359  -16.4829 C   0  0  0  0  0  0  0  0  0  0  0  0
   26.7861  -21.1945  -15.0192 C   0  0  2  0  0  0  0  0  0  0  0  0
   28.0401  -21.7626  -14.6544 N   0  0  0  0  0  0  0  0  0  0  0  0
   25.6680  -21.5931  -14.1511 C   0  0  0  0  0  0  0  0  0  0  0  0
   25.1701  -22.7606  -14.2845 O   0  0  0  0  0  0  0  0  0  0  0  0
   29.2526  -17.0675  -19.9383 N   0  0  0  0  0  0  0  0  0  0  0  0
   25.9691  -22.3209  -10.7393 C   0  0  0  0  0  0  0  0  0  0  0  0
   25.2944  -21.1626  -10.1686 O   0  0  0  0  0  0  0  0  0  0  0  0
   25.7024  -20.7408   -9.0579 C   0  0  0  0  0  0  0  0  0  0  0  0
   24.2047  -20.6092  -10.9550 C   0  0  2  0  0  0  0  0  0  0  0  0
   23.9748  -21.2096  -12.2957 N   0  0  0  0  0  0  0  0  0  0  0  0
   25.1095  -20.7486  -13.1695 C   0  0  0  0  0  0  0  0  0  0  0  0
   22.7632  -20.6702  -12.9758 O   0  0  0  0  0  0  0  0  0  0  0  0
   22.9371  -19.9059  -14.0088 O   0  0  0  0  0  0  0  0  0  0  0  0
   21.0229  -21.8994  -15.8301 C   0  0  0  0  0  0  0  0  0  0  0  0
   20.7967  -22.2339  -14.4989 C   0  0  2  0  0  0  0  0  0  0  0  0
   20.3735  -21.0279  -13.6818 N   0  0  0  0  0  0  0  0  0  0  0  0
   21.4168  -20.8920  -12.6382 C   0  0  0  0  0  0  0  0  0  0  0  0
   19.0758  -21.3572  -13.0732 O   0  0  0  0  0  0  0  0  0  0  0  0
   19.0148  -22.2548  -12.0329 O   0  0  0  0  0  0  0  0  0  0  0  0
  2  3  2  0
  2  1  1  0
  4  2  1  0
  5  4  1  0
  6  5  1  0
  7  6  1  0
  8 10  1  0
  8  7  1  0
  8  9  1  1
 10 17  1  0
 11 10  2  0
 13 12  1  0
 14 13  2  0
 15 13  1  0
 16 17  1  0
 16 15  1  1
 18 16  1  0
 19 18  2  0
 21 20  1  0
 22 21  1  6
 22 23  1  0
 22 24  1  0
 23 18  1  0
 24 25  1  0
 26 24  2  0
M  END
$$$$
