RNS.pdb
     RDKit          3D

 26 25  0  0  1  0  0  0  0  0999 V2000
   14.7334  -12.1217  -17.0731 N   0  0  0  0  0  0  0  0  0  0  0  0
   14.6534  -13.3307  -17.8117 C   0  0  0  0  0  0  0  0  0  0  0  0
   13.6715  -14.1735  -17.6413 N   0  0  0  0  0  0  0  0  0  0  0  0
   15.6810  -13.6068  -18.7521 N   0  0  0  0  0  0  0  0  0  0  0  0
   16.4371  -14.8429  -18.6787 C   0  0  0  0  0  0  0  0  0  0  0  0
   17.7371  -14.6684  -17.9514 C   0  0  0  0  0  0  0  0  0  0  0  0
   18.4662  -13.4186  -18.3226 C   0  0  0  0  0  0  0  0  0  0  0  0
   19.7748  -13.2386  -17.5965 C   0  0  2  0  0  0  0  0  0  0  0  0
   20.2241  -14.4082  -16.9195 N   0  0  0  0  0  0  0  0  0  0  0  0
   19.7954  -12.0200  -16.7735 C   0  0  0  0  0  0  0  0  0  0  0  0
   19.1393  -12.0044  -15.6790 O   0  0  0  0  0  0  0  0  0  0  0  0
   13.7062  -15.0795  -18.1443 N   0  0  0  0  0  0  0  0  0  0  0  0
   21.1559   -7.6379  -14.4321 C   0  0  0  0  0  0  0  0  0  0  0  0
   22.2354   -8.5807  -14.6937 O   0  0  0  0  0  0  0  0  0  0  0  0
   23.3158   -8.4138  -14.0751 C   0  0  0  0  0  0  0  0  0  0  0  0
   21.9448   -9.6299  -15.6565 C   0  0  2  0  0  0  0  0  0  0  0  0
   20.5663   -9.6646  -16.2129 N   0  0  0  0  0  0  0  0  0  0  0  0
   20.5068  -10.8557  -17.1301 C   0  0  0  0  0  0  0  0  0  0  0  0
   20.2711   -8.5121  -17.1107 O   0  0  0  0  0  0  0  0  0  0  0  0
   20.7736   -8.5298  -18.3059 O   0  0  0  0  0  0  0  0  0  0  0  0
   17.5597   -4.6870  -18.3303 C   0  0  0  0  0  0  0  0  0  0  0  0
   17.9161   -5.7183  -17.4675 C   0  0  1  0  0  0  0  0  0  0  0  0
   19.2496   -6.3328  -17.8485 N   0  0  0  0  0  0  0  0  0  0  0  0
   19.4918   -7.3774  -16.8257 C   0  0  0  0  0  0  0  0  0  0  0  0
   20.2574   -5.2668  -17.7450 O   0  0  0  0  0  0  0  0  0  0  0  0
   21.1937   -5.3044  -16.7383 O   0  0  0  0  0  0  0  0  0  0  0  0
  2  3  2  0
  2  1  1  0
  4  2  1  0
  5  4  1  0
  6  5  1  0
  7  6  1  0
  8 10  1  0
  8  7  1  0
  8  9  1  1
 10 17  1  0
 11 10  2  0
 13 12  1  0
 14 13  2  0
 15 13  1  0
 16 17  1  0
 16 15  1  1
 18 16  1  0
 19 18  2  0
 21 20  1  0
 22 21  1  6
 22 23  1  0
 22 24  1  0
 23 18  1  0
 24 25  1  0
 26 24  2  0
M  END
$$$$
