RNS.pdb
     RDKit          3D

 26 25  0  0  1  0  0  0  0  0999 V2000
   23.0014   -9.6636  -18.6424 N   0  0  0  0  0  0  0  0  0  0  0  0
   21.9940   -8.7028  -18.9174 C   0  0  0  0  0  0  0  0  0  0  0  0
   21.4059   -8.6413  -20.0810 N   0  0  0  0  0  0  0  0  0  0  0  0
   21.6368   -7.7967  -17.8840 N   0  0  0  0  0  0  0  0  0  0  0  0
   21.5474   -8.2447  -16.5069 C   0  0  0  0  0  0  0  0  0  0  0  0
   21.1160   -9.6775  -16.4052 C   0  0  0  0  0  0  0  0  0  0  0  0
   20.8340  -10.1187  -15.0063 C   0  0  0  0  0  0  0  0  0  0  0  0
   19.5207   -9.6172  -14.4627 C   0  0  2  0  0  0  0  0  0  0  0  0
   18.5855   -9.2424  -15.4693 N   0  0  0  0  0  0  0  0  0  0  0  0
   19.7001   -8.6138  -13.4026 C   0  0  0  0  0  0  0  0  0  0  0  0
   20.5319   -8.8507  -12.4642 O   0  0  0  0  0  0  0  0  0  0  0  0
   20.7121   -7.8882  -20.2437 N   0  0  0  0  0  0  0  0  0  0  0  0
   21.9556   -6.0436  -12.2658 C   0  0  0  0  0  0  0  0  0  0  0  0
   21.1822   -4.9857  -12.9026 O   0  0  0  0  0  0  0  0  0  0  0  0
   21.8151   -4.0193  -13.3961 C   0  0  0  0  0  0  0  0  0  0  0  0
   19.7397   -5.1618  -12.8996 C   0  0  2  0  0  0  0  0  0  0  0  0
   19.2176   -6.3972  -12.2577 N   0  0  0  0  0  0  0  0  0  0  0  0
   18.9967   -7.3920  -13.3646 C   0  0  0  0  0  0  0  0  0  0  0  0
   17.8608   -6.2185  -11.6673 O   0  0  0  0  0  0  0  0  0  0  0  0
   16.9455   -5.6709  -12.4048 O   0  0  0  0  0  0  0  0  0  0  0  0
   16.8553   -7.6968   -8.1279 C   0  0  0  0  0  0  0  0  0  0  0  0
   15.7500   -7.4369   -8.9314 C   0  0  1  0  0  0  0  0  0  0  0  0
   16.0345   -6.3391   -9.9388 N   0  0  0  0  0  0  0  0  0  0  0  0
   17.4284   -6.5812  -10.3798 C   0  0  0  0  0  0  0  0  0  0  0  0
   15.9367   -5.0609   -9.2183 O   0  0  0  0  0  0  0  0  0  0  0  0
   14.7274   -4.6549   -8.7040 O   0  0  0  0  0  0  0  0  0  0  0  0
  2  3  2  0
  2  1  1  0
  4  2  1  0
  5  4  1  0
  6  5  1  0
  7  6  1  0
  8 10  1  0
  8  7  1  0
  8  9  1  6
 10 17  1  0
 11 10  2  0
 13 12  1  0
 14 13  2  0
 15 13  1  0
 16 17  1  0
 16 15  1  1
 18 16  1  0
 19 18  2  0
 21 20  1  0
 22 21  1  6
 22 23  1  0
 22 24  1  0
 23 18  1  0
 24 25  1  0
 26 24  2  0
M  END
$$$$
