RNS.pdb
     RDKit          3D

 26 25  0  0  1  0  0  0  0  0999 V2000
   20.8888  -29.1018  -10.7038 N   0  0  0  0  0  0  0  0  0  0  0  0
   19.5893  -28.6495  -10.3569 C   0  0  0  0  0  0  0  0  0  0  0  0
   18.7571  -29.4031   -9.6912 N   0  0  0  0  0  0  0  0  0  0  0  0
   19.2097  -27.3411  -10.7574 N   0  0  0  0  0  0  0  0  0  0  0  0
   19.8507  -26.6999  -11.8902 C   0  0  0  0  0  0  0  0  0  0  0  0
   20.5379  -25.4242  -11.5034 C   0  0  0  0  0  0  0  0  0  0  0  0
   21.1421  -24.6967  -12.6597 C   0  0  0  0  0  0  0  0  0  0  0  0
   21.3145  -25.5478  -13.8917 C   0  0  2  0  0  0  0  0  0  0  0  0
   22.5586  -26.2389  -13.9455 N   0  0  0  0  0  0  0  0  0  0  0  0
   20.9733  -24.8232  -15.1251 C   0  0  0  0  0  0  0  0  0  0  0  0
   21.8895  -24.1750  -15.7326 O   0  0  0  0  0  0  0  0  0  0  0  0
   17.7955  -29.0514   -9.5283 N   0  0  0  0  0  0  0  0  0  0  0  0
   18.0688  -25.3457  -20.0702 C   0  0  0  0  0  0  0  0  0  0  0  0
   17.7977  -24.5009  -18.9146 O   0  0  0  0  0  0  0  0  0  0  0  0
   17.1497  -23.4422  -19.1075 C   0  0  0  0  0  0  0  0  0  0  0  0
   18.3129  -24.9782  -17.6422 C   0  0  1  0  0  0  0  0  0  0  0  0
   19.4116  -24.1880  -17.0263 N   0  0  0  0  0  0  0  0  0  0  0  0
   19.6767  -24.8043  -15.6796 C   0  0  0  0  0  0  0  0  0  0  0  0
   19.0125  -22.7890  -16.7023 O   0  0  0  0  0  0  0  0  0  0  0  0
   18.5573  -22.5481  -15.5122 O   0  0  0  0  0  0  0  0  0  0  0  0
   20.6467  -18.9907  -17.0195 C   0  0  0  0  0  0  0  0  0  0  0  0
   19.8177  -19.8063  -16.2563 C   0  0  1  0  0  0  0  0  0  0  0  0
   18.6433  -20.3253  -17.0642 N   0  0  0  0  0  0  0  0  0  0  0  0
   19.0716  -21.6617  -17.5400 C   0  0  0  0  0  0  0  0  0  0  0  0
   18.4652  -19.4070  -18.1990 O   0  0  0  0  0  0  0  0  0  0  0  0
   17.8929  -18.1725  -17.9983 O   0  0  0  0  0  0  0  0  0  0  0  0
  2  3  2  0
  2  1  1  0
  4  2  1  0
  5  4  1  0
  6  5  1  0
  7  6  1  0
  8 10  1  0
  8  7  1  0
  8  9  1  6
 10 17  1  0
 11 10  2  0
 13 12  1  0
 14 13  2  0
 15 13  1  0
 16 17  1  0
 16 15  1  6
 18 16  1  0
 19 18  2  0
 21 20  1  0
 22 21  1  1
 22 23  1  0
 22 24  1  0
 23 18  1  0
 24 25  1  0
 26 24  2  0
M  END
$$$$
