RNS.pdb
     RDKit          3D

 26 25  0  0  1  0  0  0  0  0999 V2000
   25.5705  -25.0354  -15.9868 N   0  0  0  0  0  0  0  0  0  0  0  0
   26.9760  -25.0036  -16.1794 C   0  0  0  0  0  0  0  0  0  0  0  0
   27.6868  -26.0976  -16.2171 N   0  0  0  0  0  0  0  0  0  0  0  0
   27.5998  -23.7369  -16.3310 N   0  0  0  0  0  0  0  0  0  0  0  0
   26.8085  -22.5209  -16.3472 C   0  0  0  0  0  0  0  0  0  0  0  0
   26.7952  -21.8729  -17.6998 C   0  0  0  0  0  0  0  0  0  0  0  0
   25.4947  -22.0194  -18.4197 C   0  0  0  0  0  0  0  0  0  0  0  0
   24.6352  -20.7818  -18.3824 C   0  0  2  0  0  0  0  0  0  0  0  0
   25.3662  -19.5786  -18.1669 N   0  0  0  0  0  0  0  0  0  0  0  0
   23.4633  -20.9402  -17.5083 C   0  0  0  0  0  0  0  0  0  0  0  0
   22.7269  -21.9734  -17.6459 O   0  0  0  0  0  0  0  0  0  0  0  0
   28.7203  -26.0143  -16.2251 N   0  0  0  0  0  0  0  0  0  0  0  0
   20.0022  -20.4695  -13.6490 C   0  0  0  0  0  0  0  0  0  0  0  0
   21.2595  -19.8501  -13.2512 O   0  0  0  0  0  0  0  0  0  0  0  0
   21.3955  -19.5344  -12.0430 C   0  0  0  0  0  0  0  0  0  0  0  0
   22.2378  -19.6595  -14.3089 C   0  0  2  0  0  0  0  0  0  0  0  0
   21.8952  -20.2141  -15.6453 N   0  0  0  0  0  0  0  0  0  0  0  0
   23.1038  -20.0043  -16.5164 C   0  0  0  0  0  0  0  0  0  0  0  0
   20.8226  -19.4451  -16.3379 O   0  0  0  0  0  0  0  0  0  0  0  0
   21.0831  -18.2253  -16.6925 O   0  0  0  0  0  0  0  0  0  0  0  0
   16.9190  -20.6043  -16.7001 C   0  0  0  0  0  0  0  0  0  0  0  0
   17.4321  -19.9080  -17.7896 C   0  0  1  0  0  0  0  0  0  0  0  0
   18.5774  -18.9991  -17.3855 N   0  0  0  0  0  0  0  0  0  0  0  0
   19.5293  -19.8829  -16.6723 C   0  0  0  0  0  0  0  0  0  0  0  0
   18.0222  -17.9928  -16.4680 O   0  0  0  0  0  0  0  0  0  0  0  0
   17.1554  -17.0364  -16.9431 O   0  0  0  0  0  0  0  0  0  0  0  0
  2  3  2  0
  2  1  1  0
  4  2  1  0
  5  4  1  0
  6  5  1  0
  7  6  1  0
  8 10  1  0
  8  7  1  0
  8  9  1  1
 10 17  1  0
 11 10  2  0
 13 12  1  0
 14 13  2  0
 15 13  1  0
 16 17  1  0
 16 15  1  1
 18 16  1  0
 19 18  2  0
 21 20  1  0
 22 21  1  6
 22 23  1  0
 22 24  1  0
 23 18  1  0
 24 25  1  0
 26 24  2  0
M  END
$$$$
