RNS.pdb
     RDKit          3D

 26 25  0  0  1  0  0  0  0  0999 V2000
   27.6145  -23.4274  -15.4917 N   0  0  0  0  0  0  0  0  0  0  0  0
   28.7872  -23.2383  -16.2680 C   0  0  0  0  0  0  0  0  0  0  0  0
   29.5541  -24.2393  -16.6048 N   0  0  0  0  0  0  0  0  0  0  0  0
   29.1122  -21.9170  -16.6741 N   0  0  0  0  0  0  0  0  0  0  0  0
   28.1279  -20.8544  -16.5882 C   0  0  0  0  0  0  0  0  0  0  0  0
   28.0118  -20.3021  -15.1987 C   0  0  0  0  0  0  0  0  0  0  0  0
   27.0736  -19.1446  -15.0924 C   0  0  0  0  0  0  0  0  0  0  0  0
   25.7659  -19.3526  -15.8125 C   0  0  2  0  0  0  0  0  0  0  0  0
   25.8922  -19.4186  -17.2295 N   0  0  0  0  0  0  0  0  0  0  0  0
   24.7161  -18.4362  -15.3426 C   0  0  0  0  0  0  0  0  0  0  0  0
   24.4914  -18.3470  -14.0895 O   0  0  0  0  0  0  0  0  0  0  0  0
   30.3815  -24.0483  -17.1997 N   0  0  0  0  0  0  0  0  0  0  0  0
   24.8618  -14.8739  -15.4332 C   0  0  0  0  0  0  0  0  0  0  0  0
   23.8514  -14.5829  -16.4418 O   0  0  0  0  0  0  0  0  0  0  0  0
   23.9727  -13.5173  -17.0958 C   0  0  0  0  0  0  0  0  0  0  0  0
   22.7944  -15.5696  -16.5871 C   0  0  2  0  0  0  0  0  0  0  0  0
   22.8483  -16.7467  -15.6801 N   0  0  0  0  0  0  0  0  0  0  0  0
   23.9356  -17.6424  -16.2085 C   0  0  0  0  0  0  0  0  0  0  0  0
   21.6250  -17.5950  -15.7529 O   0  0  0  0  0  0  0  0  0  0  0  0
   21.7557  -18.8676  -15.5407 O   0  0  0  0  0  0  0  0  0  0  0  0
   18.2389  -17.4833  -13.0471 C   0  0  0  0  0  0  0  0  0  0  0  0
   19.2303  -17.0304  -13.9114 C   0  0  2  0  0  0  0  0  0  0  0  0
   19.1600  -17.7245  -15.2584 N   0  0  0  0  0  0  0  0  0  0  0  0
   20.3082  -17.1842  -16.0237 C   0  0  0  0  0  0  0  0  0  0  0  0
   17.8903  -17.3221  -15.8817 O   0  0  0  0  0  0  0  0  0  0  0  0
   16.7473  -18.0475  -15.6384 O   0  0  0  0  0  0  0  0  0  0  0  0
  2  3  2  0
  2  1  1  0
  4  2  1  0
  5  4  1  0
  6  5  1  0
  7  6  1  0
  8 10  1  0
  8  7  1  0
  8  9  1  6
 10 17  1  0
 11 10  2  0
 13 12  1  0
 14 13  2  0
 15 13  1  0
 16 17  1  0
 16 15  1  1
 18 16  1  0
 19 18  2  0
 21 20  1  0
 22 21  1  1
 22 23  1  0
 22 24  1  0
 23 18  1  0
 24 25  1  0
 26 24  2  0
M  END
$$$$
