RWA.pdb
     RDKit          3D

 31 32  0  0  1  0  0  0  0  0999 V2000
   29.2604  -21.1855  -11.8197 N   0  0  0  0  0  0  0  0  0  0  0  0
   27.8477  -21.3967  -11.8008 C   0  0  0  0  0  0  0  0  0  0  0  0
   27.2587  -21.4511  -10.6558 N   0  0  0  0  0  0  0  0  0  0  0  0
   27.1456  -21.5400  -13.0182 N   0  0  0  0  0  0  0  0  0  0  0  0
   27.7809  -21.2430  -14.2540 C   0  0  0  0  0  0  0  0  0  0  0  0
   28.0178  -19.8229  -14.5952 C   0  0  0  0  0  0  0  0  0  0  0  0
   26.9250  -18.8534  -14.3880 C   0  0  0  0  0  0  0  0  0  0  0  0
   25.8314  -18.9262  -15.3983 C   0  0  2  0  0  0  0  0  0  0  0  0
   26.0923  -17.9212  -16.4081 N   0  0  0  0  0  0  0  0  0  0  0  0
   24.5213  -18.5691  -14.7503 C   0  0  0  0  0  0  0  0  0  0  0  0
   24.3515  -17.4206  -14.2916 O   0  0  0  0  0  0  0  0  0  0  0  0
   26.2435  -21.6478  -10.5587 N   0  0  0  0  0  0  0  0  0  0  0  0
   23.5063  -19.5337  -14.6710 C   0  0  1  0  0  0  0  0  0  0  0  0
   22.3062  -19.2570  -13.9427 C   0  0  0  0  0  0  0  0  0  0  0  0
   21.1075  -19.2674  -14.9032 C   0  0  0  0  0  0  0  0  0  0  0  0
   20.9331  -17.9141  -15.4941 C   0  0  0  0  0  0  0  0  0  0  0  0
   21.3810  -17.4662  -16.7129 N   0  0  0  0  0  0  0  0  0  0  0  0
   21.0061  -16.1912  -16.8353 C   0  0  0  0  0  0  0  0  0  0  0  0
   20.3291  -15.8082  -15.7269 C   0  0  0  0  0  0  0  0  0  0  0  0
   19.7382  -14.6047  -15.3612 C   0  0  0  0  0  0  0  0  0  0  0  0
   19.1075  -14.5019  -14.1530 C   0  0  0  0  0  0  0  0  0  0  0  0
   19.0468  -15.5860  -13.2794 C   0  0  0  0  0  0  0  0  0  0  0  0
   19.6336  -16.7766  -13.6457 C   0  0  0  0  0  0  0  0  0  0  0  0
   20.2755  -16.8859  -14.8720 C   0  0  0  0  0  0  0  0  0  0  0  0
   22.0812  -20.2223  -12.8318 O   0  0  0  0  0  0  0  0  0  0  0  0
   22.0577  -21.4656  -13.0183 C   0  0  0  0  0  0  0  0  0  0  0  0
   21.6208  -19.9324   -9.1255 C   0  0  2  0  0  0  0  0  0  0  0  0
   21.5599  -20.7349  -10.4302 N   0  0  0  0  0  0  0  0  0  0  0  0
   21.8779  -19.7933  -11.4838 C   0  0  0  0  0  0  0  0  0  0  0  0
   20.2097  -21.2881  -10.5428 O   0  0  0  0  0  0  0  0  0  0  0  0
   19.8579  -22.4162   -9.8228 O   0  0  0  0  0  0  0  0  0  0  0  0
  2  1  1  0
  3  2  2  0
  4  2  1  0
  5  4  1  0
  6  5  1  0
  7  6  1  0
  8 10  1  0
  8  7  1  0
  8  9  1  6
 10 11  2  0
 12 13  1  0
 12 10  1  0
 13 14  1  1
 15 16  2  0
 15 14  1  0
 17 16  1  0
 18 23  2  0
 18 17  1  0
 19 18  1  0
 20 21  1  0
 20 19  2  0
 21 22  2  0
 22 23  1  0
 23 15  1  0
 24 28  1  0
 24 13  1  0
 25 24  2  0
 27 26  1  1
 27 29  1  0
 27 28  1  0
 29 30  1  0
 31 29  2  0
M  END
$$$$
