RWA.pdb
     RDKit          3D

 31 32  0  0  1  0  0  0  0  0999 V2000
   29.6589  -22.5751  -19.1858 N   0  0  0  0  0  0  0  0  0  0  0  0
   28.4292  -23.2996  -19.2456 C   0  0  0  0  0  0  0  0  0  0  0  0
   28.3240  -24.2433  -20.1169 N   0  0  0  0  0  0  0  0  0  0  0  0
   27.3774  -22.9663  -18.3635 N   0  0  0  0  0  0  0  0  0  0  0  0
   27.5625  -21.9696  -17.3678 C   0  0  0  0  0  0  0  0  0  0  0  0
   28.2428  -22.3538  -16.1113 C   0  0  0  0  0  0  0  0  0  0  0  0
   27.4242  -22.5864  -14.9060 C   0  0  0  0  0  0  0  0  0  0  0  0
   26.5031  -21.4677  -14.5563 C   0  0  2  0  0  0  0  0  0  0  0  0
   27.2973  -20.2640  -14.4225 N   0  0  0  0  0  0  0  0  0  0  0  0
   25.8751  -21.7318  -13.2147 C   0  0  0  0  0  0  0  0  0  0  0  0
   25.3478  -22.8401  -12.9867 O   0  0  0  0  0  0  0  0  0  0  0  0
   27.4688  -24.8255  -20.2094 N   0  0  0  0  0  0  0  0  0  0  0  0
   25.8914  -20.7269  -12.2366 C   0  0  1  0  0  0  0  0  0  0  0  0
   25.0024  -20.7978  -11.1176 C   0  0  0  0  0  0  0  0  0  0  0  0
   25.4886  -19.8472  -10.0133 C   0  0  0  0  0  0  0  0  0  0  0  0
   26.7720  -20.3496   -9.4554 C   0  0  0  0  0  0  0  0  0  0  0  0
   27.7222  -21.1116  -10.0903 N   0  0  0  0  0  0  0  0  0  0  0  0
   28.7069  -21.3356   -9.2178 C   0  0  0  0  0  0  0  0  0  0  0  0
   28.4141  -20.7375   -8.0388 C   0  0  0  0  0  0  0  0  0  0  0  0
   29.0962  -20.6695   -6.8299 C   0  0  0  0  0  0  0  0  0  0  0  0
   28.5496  -19.9797   -5.7842 C   0  0  0  0  0  0  0  0  0  0  0  0
   27.3169  -19.3417   -5.9099 C   0  0  0  0  0  0  0  0  0  0  0  0
   26.6445  -19.4117   -7.1095 C   0  0  0  0  0  0  0  0  0  0  0  0
   27.1956  -20.1113   -8.1747 C   0  0  0  0  0  0  0  0  0  0  0  0
   23.5967  -20.4765  -11.4883 O   0  0  0  0  0  0  0  0  0  0  0  0
   23.2967  -19.4564  -12.1596 C   0  0  0  0  0  0  0  0  0  0  0  0
   20.2803  -22.1473  -10.9913 C   0  0  2  0  0  0  0  0  0  0  0  0
   21.1303  -20.9310  -11.3761 N   0  0  0  0  0  0  0  0  0  0  0  0
   22.5013  -21.3097  -11.1028 C   0  0  0  0  0  0  0  0  0  0  0  0
   20.6738  -19.8019  -10.5645 O   0  0  0  0  0  0  0  0  0  0  0  0
   19.4673  -19.1858  -10.8460 O   0  0  0  0  0  0  0  0  0  0  0  0
  2  1  1  0
  3  2  2  0
  4  2  1  0
  5  4  1  0
  6  5  1  0
  7  6  1  0
  8 10  1  0
  8  7  1  0
  8  9  1  1
 10 11  2  0
 12 13  1  0
 12 10  1  0
 13 14  1  1
 15 16  2  0
 15 14  1  0
 17 16  1  0
 18 23  2  0
 18 17  1  0
 19 18  1  0
 20 21  1  0
 20 19  2  0
 21 22  2  0
 22 23  1  0
 23 15  1  0
 24 28  1  0
 24 13  1  0
 25 24  2  0
 27 26  1  6
 27 29  1  0
 27 28  1  0
 29 30  1  0
 31 29  2  0
M  END
$$$$
