RWA.pdb
     RDKit          3D

 31 32  0  0  1  0  0  0  0  0999 V2000
   23.6846  -19.6505  -17.7391 N   0  0  0  0  0  0  0  0  0  0  0  0
   25.0196  -19.3430  -18.1440 C   0  0  0  0  0  0  0  0  0  0  0  0
   25.1960  -18.8396  -19.3172 N   0  0  0  0  0  0  0  0  0  0  0  0
   26.0938  -19.5970  -17.2625 N   0  0  0  0  0  0  0  0  0  0  0  0
   25.8535  -20.1547  -15.9779 C   0  0  0  0  0  0  0  0  0  0  0  0
   25.2974  -19.2750  -14.9262 C   0  0  0  0  0  0  0  0  0  0  0  0
   24.9750  -19.8609  -13.6110 C   0  0  0  0  0  0  0  0  0  0  0  0
   26.1616  -20.1962  -12.7736 C   0  0  2  0  0  0  0  0  0  0  0  0
   26.9689  -21.1482  -13.5083 N   0  0  0  0  0  0  0  0  0  0  0  0
   25.7115  -20.8821  -11.5122 C   0  0  0  0  0  0  0  0  0  0  0  0
   25.4898  -22.1105  -11.5222 O   0  0  0  0  0  0  0  0  0  0  0  0
   26.1379  -18.6135  -19.6922 N   0  0  0  0  0  0  0  0  0  0  0  0
   25.5473  -20.1300  -10.3400 C   0  0  1  0  0  0  0  0  0  0  0  0
   25.0851  -20.7588   -9.1406 C   0  0  0  0  0  0  0  0  0  0  0  0
   25.6489  -20.0159   -7.9201 C   0  0  0  0  0  0  0  0  0  0  0  0
   27.0970  -20.3219   -7.7781 C   0  0  0  0  0  0  0  0  0  0  0  0
   27.8857  -21.0617   -8.6251 N   0  0  0  0  0  0  0  0  0  0  0  0
   29.1175  -21.0828   -8.1120 C   0  0  0  0  0  0  0  0  0  0  0  0
   29.1409  -20.3758   -6.9573 C   0  0  0  0  0  0  0  0  0  0  0  0
   30.1579  -20.0961   -6.0525 C   0  0  0  0  0  0  0  0  0  0  0  0
   29.8886  -19.3390   -4.9468 C   0  0  0  0  0  0  0  0  0  0  0  0
   28.6083  -18.8415   -4.7109 C   0  0  0  0  0  0  0  0  0  0  0  0
   27.6035  -19.1211   -5.6100 C   0  0  0  0  0  0  0  0  0  0  0  0
   27.8722  -19.8898   -6.7346 C   0  0  0  0  0  0  0  0  0  0  0  0
   23.5992  -20.8145   -9.0655 O   0  0  0  0  0  0  0  0  0  0  0  0
   22.8845  -19.7833   -9.1483 C   0  0  0  0  0  0  0  0  0  0  0  0
   20.9765  -23.3949   -9.2810 C   0  0  2  0  0  0  0  0  0  0  0  0
   21.4628  -22.0736   -8.6747 N   0  0  0  0  0  0  0  0  0  0  0  0
   22.8942  -22.0458   -8.8941 C   0  0  0  0  0  0  0  0  0  0  0  0
   21.0992  -22.0808   -7.2571 O   0  0  0  0  0  0  0  0  0  0  0  0
   19.7712  -21.9903   -6.8791 O   0  0  0  0  0  0  0  0  0  0  0  0
  2  1  1  0
  3  2  2  0
  4  2  1  0
  5  4  1  0
  6  5  1  0
  7  6  1  0
  8 10  1  0
  8  7  1  0
  8  9  1  6
 10 11  2  0
 12 13  1  0
 12 10  1  0
 13 14  1  6
 15 16  2  0
 15 14  1  0
 17 16  1  0
 18 23  2  0
 18 17  1  0
 19 18  1  0
 20 21  1  0
 20 19  2  0
 21 22  2  0
 22 23  1  0
 23 15  1  0
 24 28  1  0
 24 13  1  0
 25 24  2  0
 27 26  1  6
 27 29  1  0
 27 28  1  0
 29 30  1  0
 31 29  2  0
M  END
$$$$
