RWA.pdb
     RDKit          3D

 31 32  0  0  1  0  0  0  0  0999 V2000
   31.4804  -25.9775  -17.4431 N   0  0  0  0  0  0  0  0  0  0  0  0
   30.3217  -25.7584  -18.2494 C   0  0  0  0  0  0  0  0  0  0  0  0
   29.6118  -26.7817  -18.5805 N   0  0  0  0  0  0  0  0  0  0  0  0
   29.9914  -24.4469  -18.6575 N   0  0  0  0  0  0  0  0  0  0  0  0
   29.4675  -23.5135  -17.7230 C   0  0  0  0  0  0  0  0  0  0  0  0
   29.8208  -23.6791  -16.2957 C   0  0  0  0  0  0  0  0  0  0  0  0
   28.8747  -23.1960  -15.2718 C   0  0  0  0  0  0  0  0  0  0  0  0
   27.6795  -22.4903  -15.8154 C   0  0  2  0  0  0  0  0  0  0  0  0
   28.0721  -21.1332  -16.1344 N   0  0  0  0  0  0  0  0  0  0  0  0
   26.6183  -22.4030  -14.7523 C   0  0  0  0  0  0  0  0  0  0  0  0
   26.1564  -23.4496  -14.2528 O   0  0  0  0  0  0  0  0  0  0  0  0
   28.8050  -26.7150  -19.2312 N   0  0  0  0  0  0  0  0  0  0  0  0
   26.1621  -21.1438  -14.3359 C   0  0  1  0  0  0  0  0  0  0  0  0
   25.2254  -21.0379  -13.2595 C   0  0  0  0  0  0  0  0  0  0  0  0
   25.6395  -19.8885  -12.3284 C   0  0  0  0  0  0  0  0  0  0  0  0
   26.8463  -20.2857  -11.5559 C   0  0  0  0  0  0  0  0  0  0  0  0
   28.0595  -20.7006  -12.0486 N   0  0  0  0  0  0  0  0  0  0  0  0
   28.8506  -20.9580  -11.0051 C   0  0  0  0  0  0  0  0  0  0  0  0
   28.1774  -20.7194   -9.8547 C   0  0  0  0  0  0  0  0  0  0  0  0
   28.5414  -20.8298   -8.5181 C   0  0  0  0  0  0  0  0  0  0  0  0
   27.6363  -20.5144   -7.5436 C   0  0  0  0  0  0  0  0  0  0  0  0
   26.3515  -20.0830   -7.8684 C   0  0  0  0  0  0  0  0  0  0  0  0
   25.9951  -19.9751   -9.1941 C   0  0  0  0  0  0  0  0  0  0  0  0
   26.9110  -20.2944  -10.1876 C   0  0  0  0  0  0  0  0  0  0  0  0
   23.8310  -20.8321  -13.7389 O   0  0  0  0  0  0  0  0  0  0  0  0
   23.5323  -19.9349  -14.5677 C   0  0  0  0  0  0  0  0  0  0  0  0
   20.6280  -22.7131  -13.4234 C   0  0  2  0  0  0  0  0  0  0  0  0
   21.3915  -21.4247  -13.7505 N   0  0  0  0  0  0  0  0  0  0  0  0
   22.7455  -21.6435  -13.2850 C   0  0  0  0  0  0  0  0  0  0  0  0
   20.7166  -20.3264  -13.0576 O   0  0  0  0  0  0  0  0  0  0  0  0
   19.4889  -19.8715  -13.5054 O   0  0  0  0  0  0  0  0  0  0  0  0
  2  1  1  0
  3  2  2  0
  4  2  1  0
  5  4  1  0
  6  5  1  0
  7  6  1  0
  8 10  1  0
  8  7  1  0
  8  9  1  1
 10 11  2  0
 12 13  1  0
 12 10  1  0
 13 14  1  1
 15 16  2  0
 15 14  1  0
 17 16  1  0
 18 23  2  0
 18 17  1  0
 19 18  1  0
 20 21  1  0
 20 19  2  0
 21 22  2  0
 22 23  1  0
 23 15  1  0
 24 28  1  0
 24 13  1  0
 25 24  2  0
 27 26  1  6
 27 29  1  0
 27 28  1  0
 29 30  1  0
 31 29  2  0
M  END
$$$$
