RWA.pdb
     RDKit          3D

 31 32  0  0  1  0  0  0  0  0999 V2000
   23.6027  -21.8391  -19.0947 N   0  0  0  0  0  0  0  0  0  0  0  0
   24.4376  -21.1049  -19.9916 C   0  0  0  0  0  0  0  0  0  0  0  0
   23.8787  -20.2472  -20.7745 N   0  0  0  0  0  0  0  0  0  0  0  0
   25.8311  -21.3364  -19.9979 N   0  0  0  0  0  0  0  0  0  0  0  0
   26.4563  -21.9904  -18.9023 C   0  0  0  0  0  0  0  0  0  0  0  0
   25.9684  -23.3335  -18.5183 C   0  0  0  0  0  0  0  0  0  0  0  0
   26.5071  -23.9592  -17.2955 C   0  0  0  0  0  0  0  0  0  0  0  0
   27.3340  -23.0537  -16.4479 C   0  0  2  0  0  0  0  0  0  0  0  0
   28.5243  -23.7786  -16.0539 N   0  0  0  0  0  0  0  0  0  0  0  0
   26.5848  -22.7194  -15.1867 C   0  0  0  0  0  0  0  0  0  0  0  0
   26.4172  -23.5982  -14.3161 O   0  0  0  0  0  0  0  0  0  0  0  0
   24.4217  -19.6538  -21.4317 N   0  0  0  0  0  0  0  0  0  0  0  0
   26.0844  -21.4218  -15.0060 C   0  0  2  0  0  0  0  0  0  0  0  0
   25.4684  -21.0542  -13.7679 C   0  0  0  0  0  0  0  0  0  0  0  0
   26.1429  -19.7907  -13.2129 C   0  0  0  0  0  0  0  0  0  0  0  0
   27.3110  -20.1775  -12.3781 C   0  0  0  0  0  0  0  0  0  0  0  0
   28.6078  -20.3711  -12.7873 N   0  0  0  0  0  0  0  0  0  0  0  0
   29.3222  -20.7108  -11.7125 C   0  0  0  0  0  0  0  0  0  0  0  0
   28.5182  -20.7406  -10.6233 C   0  0  0  0  0  0  0  0  0  0  0  0
   28.7645  -21.0310   -9.2868 C   0  0  0  0  0  0  0  0  0  0  0  0
   27.7386  -20.9815   -8.3850 C   0  0  0  0  0  0  0  0  0  0  0  0
   26.4467  -20.6438   -8.7838 C   0  0  0  0  0  0  0  0  0  0  0  0
   26.2071  -20.3568  -10.1091 C   0  0  0  0  0  0  0  0  0  0  0  0
   27.2460  -20.4059  -11.0290 C   0  0  0  0  0  0  0  0  0  0  0  0
   24.0025  -20.8338  -13.9068 O   0  0  0  0  0  0  0  0  0  0  0  0
   23.5167  -20.1022  -14.8067 C   0  0  0  0  0  0  0  0  0  0  0  0
   20.9529  -22.0723  -12.1177 C   0  0  2  0  0  0  0  0  0  0  0  0
   21.6548  -21.0809  -13.0528 N   0  0  0  0  0  0  0  0  0  0  0  0
   23.0572  -21.4417  -13.0239 C   0  0  0  0  0  0  0  0  0  0  0  0
   21.3974  -19.7350  -12.5387 O   0  0  0  0  0  0  0  0  0  0  0  0
   20.1684  -19.1342  -12.7466 O   0  0  0  0  0  0  0  0  0  0  0  0
  2  1  1  0
  3  2  2  0
  4  2  1  0
  5  4  1  0
  6  5  1  0
  7  6  1  0
  8 10  1  0
  8  7  1  0
  8  9  1  1
 10 11  2  0
 12 13  1  0
 12 10  1  0
 13 14  1  6
 15 16  2  0
 15 14  1  0
 17 16  1  0
 18 23  2  0
 18 17  1  0
 19 18  1  0
 20 21  1  0
 20 19  2  0
 21 22  2  0
 22 23  1  0
 23 15  1  0
 24 28  1  0
 24 13  1  0
 25 24  2  0
 27 26  1  6
 27 29  1  0
 27 28  1  0
 29 30  1  0
 31 29  2  0
M  END
$$$$
