RWA.pdb
     RDKit          3D

 31 32  0  0  1  0  0  0  0  0999 V2000
   22.7661  -21.4749  -16.4227 N   0  0  0  0  0  0  0  0  0  0  0  0
   22.0183  -20.2763  -16.2108 C   0  0  0  0  0  0  0  0  0  0  0  0
   20.9548  -20.0934  -16.9153 N   0  0  0  0  0  0  0  0  0  0  0  0
   22.4586  -19.3377  -15.2514 N   0  0  0  0  0  0  0  0  0  0  0  0
   23.7772  -19.4101  -14.7269 C   0  0  0  0  0  0  0  0  0  0  0  0
   24.1755  -20.6372  -14.0024 C   0  0  0  0  0  0  0  0  0  0  0  0
   24.1975  -20.6124  -12.5273 C   0  0  0  0  0  0  0  0  0  0  0  0
   25.5608  -20.6574  -11.9263 C   0  0  2  0  0  0  0  0  0  0  0  0
   26.3606  -21.5775  -12.7083 N   0  0  0  0  0  0  0  0  0  0  0  0
   25.4798  -21.2195  -10.5330 C   0  0  0  0  0  0  0  0  0  0  0  0
   25.4582  -22.4563  -10.3659 O   0  0  0  0  0  0  0  0  0  0  0  0
   20.3906  -19.2231  -16.8595 N   0  0  0  0  0  0  0  0  0  0  0  0
   25.4300  -20.3438   -9.4387 C   0  0  2  0  0  0  0  0  0  0  0  0
   25.0970  -20.8368   -8.1374 C   0  0  0  0  0  0  0  0  0  0  0  0
   25.6355  -19.8736   -7.0689 C   0  0  0  0  0  0  0  0  0  0  0  0
   27.1221  -19.9056   -7.0758 C   0  0  0  0  0  0  0  0  0  0  0  0
   27.9534  -20.0607   -8.1582 N   0  0  0  0  0  0  0  0  0  0  0  0
   29.2094  -20.0331   -7.7079 C   0  0  0  0  0  0  0  0  0  0  0  0
   29.2068  -19.8642   -6.3643 C   0  0  0  0  0  0  0  0  0  0  0  0
   30.2327  -19.7709   -5.4315 C   0  0  0  0  0  0  0  0  0  0  0  0
   29.9299  -19.5978   -4.1100 C   0  0  0  0  0  0  0  0  0  0  0  0
   28.6067  -19.5132   -3.6809 C   0  0  0  0  0  0  0  0  0  0  0  0
   27.5933  -19.6063   -4.6085 C   0  0  0  0  0  0  0  0  0  0  0  0
   27.8958  -19.7822   -5.9521 C   0  0  0  0  0  0  0  0  0  0  0  0
   23.6312  -21.0297   -7.9616 O   0  0  0  0  0  0  0  0  0  0  0  0
   22.8094  -20.0884   -8.1022 C   0  0  0  0  0  0  0  0  0  0  0  0
   21.4225  -23.9677   -7.2318 C   0  0  2  0  0  0  0  0  0  0  0  0
   21.6466  -22.4604   -7.3989 N   0  0  0  0  0  0  0  0  0  0  0  0
   23.0686  -22.2987   -7.6216 C   0  0  0  0  0  0  0  0  0  0  0  0
   21.1794  -21.8087   -6.1746 O   0  0  0  0  0  0  0  0  0  0  0  0
   19.8265  -21.7522   -5.8895 O   0  0  0  0  0  0  0  0  0  0  0  0
  2  1  1  0
  3  2  2  0
  4  2  1  0
  5  4  1  0
  6  5  1  0
  7  6  1  0
  8 10  1  0
  8  7  1  0
  8  9  1  6
 10 11  2  0
 12 13  1  0
 12 10  1  0
 13 14  1  6
 15 16  2  0
 15 14  1  0
 17 16  1  0
 18 23  2  0
 18 17  1  0
 19 18  1  0
 20 21  1  0
 20 19  2  0
 21 22  2  0
 22 23  1  0
 23 15  1  0
 24 28  1  0
 24 13  1  0
 25 24  2  0
 27 26  1  6
 27 29  1  0
 27 28  1  0
 29 30  1  0
 31 29  2  0
M  END
$$$$
