RWA.pdb
     RDKit          3D

 31 32  0  0  1  0  0  0  0  0999 V2000
   28.9840  -17.6687  -18.2162 N   0  0  0  0  0  0  0  0  0  0  0  0
   27.5866  -17.3732  -18.1916 C   0  0  0  0  0  0  0  0  0  0  0  0
   26.9403  -17.4086  -19.3060 N   0  0  0  0  0  0  0  0  0  0  0  0
   26.9609  -17.0533  -16.9662 N   0  0  0  0  0  0  0  0  0  0  0  0
   27.6705  -17.1803  -15.7418 C   0  0  0  0  0  0  0  0  0  0  0  0
   28.1193  -18.5288  -15.3299 C   0  0  0  0  0  0  0  0  0  0  0  0
   27.3089  -19.2753  -14.3487 C   0  0  0  0  0  0  0  0  0  0  0  0
   27.8980  -20.5752  -13.9183 C   0  0  2  0  0  0  0  0  0  0  0  0
   27.6605  -21.5407  -14.9713 N   0  0  0  0  0  0  0  0  0  0  0  0
   27.1797  -21.0739  -12.6938 C   0  0  0  0  0  0  0  0  0  0  0  0
   26.0892  -21.6687  -12.8166 O   0  0  0  0  0  0  0  0  0  0  0  0
   25.9235  -17.2060  -19.3688 N   0  0  0  0  0  0  0  0  0  0  0  0
   27.7471  -20.8635  -11.4287 C   0  0  2  0  0  0  0  0  0  0  0  0
   26.9167  -20.8334  -10.2638 C   0  0  0  0  0  0  0  0  0  0  0  0
   27.6367  -20.0760   -9.1381 C   0  0  0  0  0  0  0  0  0  0  0  0
   26.8358  -20.1652   -7.8885 C   0  0  0  0  0  0  0  0  0  0  0  0
   25.4836  -20.3763   -7.7713 N   0  0  0  0  0  0  0  0  0  0  0  0
   25.1885  -20.3803   -6.4698 C   0  0  0  0  0  0  0  0  0  0  0  0
   26.3158  -20.1771   -5.7476 C   0  0  0  0  0  0  0  0  0  0  0  0
   26.5481  -20.0949   -4.3799 C   0  0  0  0  0  0  0  0  0  0  0  0
   27.8177  -19.8779   -3.9226 C   0  0  0  0  0  0  0  0  0  0  0  0
   28.8859  -19.7375   -4.8066 C   0  0  0  0  0  0  0  0  0  0  0  0
   28.6512  -19.8197   -6.1610 C   0  0  0  0  0  0  0  0  0  0  0  0
   27.3632  -20.0399   -6.6304 C   0  0  0  0  0  0  0  0  0  0  0  0
   25.5885  -20.2154  -10.5296 O   0  0  0  0  0  0  0  0  0  0  0  0
   25.4130  -18.9703  -10.5138 C   0  0  0  0  0  0  0  0  0  0  0  0
   22.5984  -21.1005  -12.3293 C   0  0  2  0  0  0  0  0  0  0  0  0
   23.1472  -20.3866  -11.0887 N   0  0  0  0  0  0  0  0  0  0  0  0
   24.4306  -21.0014  -10.8192 C   0  0  0  0  0  0  0  0  0  0  0  0
   22.1798  -20.5793  -10.0074 O   0  0  0  0  0  0  0  0  0  0  0  0
   20.9508  -19.9451  -10.0524 O   0  0  0  0  0  0  0  0  0  0  0  0
  2  1  1  0
  3  2  2  0
  4  2  1  0
  5  4  1  0
  6  5  1  0
  7  6  1  0
  8 10  1  0
  8  7  1  0
  8  9  1  6
 10 11  2  0
 12 13  1  0
 12 10  1  0
 13 14  1  6
 15 16  2  0
 15 14  1  0
 17 16  1  0
 18 23  2  0
 18 17  1  0
 19 18  1  0
 20 21  1  0
 20 19  2  0
 21 22  2  0
 22 23  1  0
 23 15  1  0
 24 28  1  0
 24 13  1  0
 25 24  2  0
 27 26  1  6
 27 29  1  0
 27 28  1  0
 29 30  1  0
 31 29  2  0
M  END
$$$$
