RWA.pdb
     RDKit          3D

 31 32  0  0  1  0  0  0  0  0999 V2000
   23.5626  -26.0349  -18.5611 N   0  0  0  0  0  0  0  0  0  0  0  0
   24.4713  -26.3034  -19.6301 C   0  0  0  0  0  0  0  0  0  0  0  0
   24.0863  -26.0432  -20.8322 N   0  0  0  0  0  0  0  0  0  0  0  0
   25.7466  -26.8404  -19.3459 N   0  0  0  0  0  0  0  0  0  0  0  0
   26.0946  -27.2018  -18.0165 C   0  0  0  0  0  0  0  0  0  0  0  0
   27.2156  -26.4865  -17.3677 C   0  0  0  0  0  0  0  0  0  0  0  0
   26.9272  -25.6261  -16.2043 C   0  0  0  0  0  0  0  0  0  0  0  0
   26.2629  -24.3340  -16.5379 C   0  0  2  0  0  0  0  0  0  0  0  0
   27.2310  -23.5000  -17.2197 N   0  0  0  0  0  0  0  0  0  0  0  0
   25.8829  -23.6198  -15.2693 C   0  0  0  0  0  0  0  0  0  0  0  0
   25.9430  -24.2236  -14.1784 O   0  0  0  0  0  0  0  0  0  0  0  0
   24.6712  -26.2542  -21.6642 N   0  0  0  0  0  0  0  0  0  0  0  0
   25.4658  -22.2821  -15.3301 C   0  0  1  0  0  0  0  0  0  0  0  0
   25.1942  -21.5578  -14.1264 C   0  0  0  0  0  0  0  0  0  0  0  0
   25.7792  -20.1417  -14.2349 C   0  0  0  0  0  0  0  0  0  0  0  0
   27.2196  -20.1702  -13.8673 C   0  0  0  0  0  0  0  0  0  0  0  0
   28.2906  -19.7909  -14.6392 N   0  0  0  0  0  0  0  0  0  0  0  0
   29.3958  -19.9851  -13.9168 C   0  0  0  0  0  0  0  0  0  0  0  0
   29.0629  -20.4793  -12.7008 C   0  0  0  0  0  0  0  0  0  0  0  0
   29.8268  -20.8459  -11.5993 C   0  0  0  0  0  0  0  0  0  0  0  0
   29.2086  -21.3252  -10.4784 C   0  0  0  0  0  0  0  0  0  0  0  0
   27.8220  -21.4528  -10.4212 C   0  0  0  0  0  0  0  0  0  0  0  0
   27.0690  -21.0884  -11.5150 C   0  0  0  0  0  0  0  0  0  0  0  0
   27.6924  -20.6011  -12.6560 C   0  0  0  0  0  0  0  0  0  0  0  0
   23.7384  -21.4891  -13.8218 O   0  0  0  0  0  0  0  0  0  0  0  0
   22.8640  -21.4799  -14.7253 C   0  0  0  0  0  0  0  0  0  0  0  0
   21.7461  -21.0517  -10.6773 C   0  0  1  0  0  0  0  0  0  0  0  0
   21.8444  -21.1974  -12.2002 N   0  0  0  0  0  0  0  0  0  0  0  0
   23.2461  -21.4292  -12.4814 C   0  0  0  0  0  0  0  0  0  0  0  0
   21.3367  -19.9596  -12.7934 O   0  0  0  0  0  0  0  0  0  0  0  0
   20.0073  -19.8601  -13.1641 O   0  0  0  0  0  0  0  0  0  0  0  0
  2  1  1  0
  3  2  2  0
  4  2  1  0
  5  4  1  0
  6  5  1  0
  7  6  1  0
  8 10  1  0
  8  7  1  0
  8  9  1  1
 10 11  2  0
 12 13  1  0
 12 10  1  0
 13 14  1  1
 15 16  2  0
 15 14  1  0
 17 16  1  0
 18 23  2  0
 18 17  1  0
 19 18  1  0
 20 21  1  0
 20 19  2  0
 21 22  2  0
 22 23  1  0
 23 15  1  0
 24 28  1  0
 24 13  1  0
 25 24  2  0
 27 26  1  1
 27 29  1  0
 27 28  1  0
 29 30  1  0
 31 29  2  0
M  END
$$$$
