RWA.pdb
     RDKit          3D

 31 32  0  0  1  0  0  0  0  0999 V2000
   27.3902  -24.7866  -16.5616 N   0  0  0  0  0  0  0  0  0  0  0  0
   27.6315  -24.1411  -17.8128 C   0  0  0  0  0  0  0  0  0  0  0  0
   27.5793  -24.8565  -18.8835 N   0  0  0  0  0  0  0  0  0  0  0  0
   27.9185  -22.7583  -17.8426 N   0  0  0  0  0  0  0  0  0  0  0  0
   27.9206  -21.9983  -16.6420 C   0  0  0  0  0  0  0  0  0  0  0  0
   28.7875  -22.4484  -15.5305 C   0  0  0  0  0  0  0  0  0  0  0  0
   28.4423  -22.0422  -14.1547 C   0  0  0  0  0  0  0  0  0  0  0  0
   27.2393  -21.1684  -14.0493 C   0  0  2  0  0  0  0  0  0  0  0  0
   27.6948  -19.8007  -13.9100 N   0  0  0  0  0  0  0  0  0  0  0  0
   26.4771  -21.5080  -12.7972 C   0  0  0  0  0  0  0  0  0  0  0  0
   26.0205  -22.6598  -12.6450 O   0  0  0  0  0  0  0  0  0  0  0  0
   27.7176  -24.4547  -19.8312 N   0  0  0  0  0  0  0  0  0  0  0  0
   26.2904  -20.5236  -11.8159 C   0  0  1  0  0  0  0  0  0  0  0  0
   25.4234  -20.7708  -10.7048 C   0  0  0  0  0  0  0  0  0  0  0  0
   25.9106  -19.9746   -9.4849 C   0  0  0  0  0  0  0  0  0  0  0  0
   27.1811  -20.5624   -8.9837 C   0  0  0  0  0  0  0  0  0  0  0  0
   28.0587  -21.3700   -9.6651 N   0  0  0  0  0  0  0  0  0  0  0  0
   29.0599  -21.6670   -8.8342 C   0  0  0  0  0  0  0  0  0  0  0  0
   28.8485  -21.0714   -7.6366 C   0  0  0  0  0  0  0  0  0  0  0  0
   29.5782  -21.0642   -6.4540 C   0  0  0  0  0  0  0  0  0  0  0  0
   29.1142  -20.3597   -5.3786 C   0  0  0  0  0  0  0  0  0  0  0  0
   27.9188  -19.6467   -5.4481 C   0  0  0  0  0  0  0  0  0  0  0  0
   27.1989  -19.6565   -6.6218 C   0  0  0  0  0  0  0  0  0  0  0  0
   27.6661  -20.3709   -7.7170 C   0  0  0  0  0  0  0  0  0  0  0  0
   24.0052  -20.4315  -11.0052 O   0  0  0  0  0  0  0  0  0  0  0  0
   23.6250  -19.2484  -11.1976 C   0  0  0  0  0  0  0  0  0  0  0  0
   20.9518  -22.3572  -11.8954 C   0  0  2  0  0  0  0  0  0  0  0  0
   21.6051  -21.0842  -11.3452 N   0  0  0  0  0  0  0  0  0  0  0  0
   22.9883  -21.4319  -11.0933 C   0  0  0  0  0  0  0  0  0  0  0  0
   20.8779  -20.7064  -10.1326 O   0  0  0  0  0  0  0  0  0  0  0  0
   19.6024  -20.1778  -10.2227 O   0  0  0  0  0  0  0  0  0  0  0  0
  2  1  1  0
  3  2  2  0
  4  2  1  0
  5  4  1  0
  6  5  1  0
  7  6  1  0
  8 10  1  0
  8  7  1  0
  8  9  1  1
 10 11  2  0
 12 13  1  0
 12 10  1  0
 13 14  1  1
 15 16  2  0
 15 14  1  0
 17 16  1  0
 18 23  2  0
 18 17  1  0
 19 18  1  0
 20 21  1  0
 20 19  2  0
 21 22  2  0
 22 23  1  0
 23 15  1  0
 24 28  1  0
 24 13  1  0
 25 24  2  0
 27 26  1  6
 27 29  1  0
 27 28  1  0
 29 30  1  0
 31 29  2  0
M  END
$$$$
