RWA.pdb
     RDKit          3D

 31 32  0  0  1  0  0  0  0  0999 V2000
   29.9711  -24.1502  -18.3597 N   0  0  0  0  0  0  0  0  0  0  0  0
   29.5931  -25.3582  -17.6976 C   0  0  0  0  0  0  0  0  0  0  0  0
   30.4867  -25.9721  -17.0008 N   0  0  0  0  0  0  0  0  0  0  0  0
   28.2717  -25.8411  -17.8241 N   0  0  0  0  0  0  0  0  0  0  0  0
   27.2679  -25.0389  -18.4304 C   0  0  0  0  0  0  0  0  0  0  0  0
   26.9863  -23.7095  -17.8449 C   0  0  0  0  0  0  0  0  0  0  0  0
   25.8340  -23.5670  -16.9345 C   0  0  0  0  0  0  0  0  0  0  0  0
   26.0191  -24.1970  -15.5963 C   0  0  2  0  0  0  0  0  0  0  0  0
   25.4626  -25.5329  -15.6537 N   0  0  0  0  0  0  0  0  0  0  0  0
   25.2297  -23.4354  -14.5664 C   0  0  0  0  0  0  0  0  0  0  0  0
   24.2778  -23.9922  -13.9815 O   0  0  0  0  0  0  0  0  0  0  0  0
   30.2892  -26.8569  -16.4938 N   0  0  0  0  0  0  0  0  0  0  0  0
   25.5754  -22.1074  -14.2769 C   0  0  1  0  0  0  0  0  0  0  0  0
   24.8749  -21.3875  -13.2579 C   0  0  0  0  0  0  0  0  0  0  0  0
   25.6814  -20.1419  -12.8611 C   0  0  0  0  0  0  0  0  0  0  0  0
   26.7742  -20.5333  -11.9320 C   0  0  0  0  0  0  0  0  0  0  0  0
   28.0634  -20.8829  -12.2522 N   0  0  0  0  0  0  0  0  0  0  0  0
   28.6994  -21.1617  -11.1125 C   0  0  0  0  0  0  0  0  0  0  0  0
   27.8525  -21.0004  -10.0683 C   0  0  0  0  0  0  0  0  0  0  0  0
   28.0166  -21.1608   -8.6977 C   0  0  0  0  0  0  0  0  0  0  0  0
   26.9638  -20.9227   -7.8592 C   0  0  0  0  0  0  0  0  0  0  0  0
   25.7255  -20.5207   -8.3566 C   0  0  0  0  0  0  0  0  0  0  0  0
   25.5673  -20.3631   -9.7153 C   0  0  0  0  0  0  0  0  0  0  0  0
   26.6338  -20.6039  -10.5711 C   0  0  0  0  0  0  0  0  0  0  0  0
   23.5023  -20.9959  -13.6813 O   0  0  0  0  0  0  0  0  0  0  0  0
   23.2831  -20.3693  -14.7491 C   0  0  0  0  0  0  0  0  0  0  0  0
   20.0609  -21.4921  -12.2817 C   0  0  2  0  0  0  0  0  0  0  0  0
   21.0328  -20.8265  -13.2628 N   0  0  0  0  0  0  0  0  0  0  0  0
   22.3487  -21.3092  -12.8979 C   0  0  0  0  0  0  0  0  0  0  0  0
   20.8893  -19.3783  -13.1085 O   0  0  0  0  0  0  0  0  0  0  0  0
   19.8696  -18.7070  -13.7600 O   0  0  0  0  0  0  0  0  0  0  0  0
  2  1  1  0
  3  2  2  0
  4  2  1  0
  5  4  1  0
  6  5  1  0
  7  6  1  0
  8 10  1  0
  8  7  1  0
  8  9  1  6
 10 11  2  0
 12 13  1  0
 12 10  1  0
 13 14  1  1
 15 16  2  0
 15 14  1  0
 17 16  1  0
 18 23  2  0
 18 17  1  0
 19 18  1  0
 20 21  1  0
 20 19  2  0
 21 22  2  0
 22 23  1  0
 23 15  1  0
 24 28  1  0
 24 13  1  0
 25 24  2  0
 27 26  1  6
 27 29  1  0
 27 28  1  0
 29 30  1  0
 31 29  2  0
M  END
$$$$
