RWA.pdb
     RDKit          3D

 31 32  0  0  1  0  0  0  0  0999 V2000
   28.5448  -22.2342  -15.8091 N   0  0  0  0  0  0  0  0  0  0  0  0
   27.8592  -21.1372  -16.4153 C   0  0  0  0  0  0  0  0  0  0  0  0
   28.2004  -20.7954  -17.6101 N   0  0  0  0  0  0  0  0  0  0  0  0
   26.8432  -20.4658  -15.6994 N   0  0  0  0  0  0  0  0  0  0  0  0
   26.5050  -20.8712  -14.3802 C   0  0  0  0  0  0  0  0  0  0  0  0
   27.4528  -20.5589  -13.2877 C   0  0  0  0  0  0  0  0  0  0  0  0
   27.2089  -21.1372  -11.9524 C   0  0  0  0  0  0  0  0  0  0  0  0
   25.7731  -21.2016  -11.5571 C   0  0  2  0  0  0  0  0  0  0  0  0
   25.2043  -19.8814  -11.7337 N   0  0  0  0  0  0  0  0  0  0  0  0
   25.6671  -21.5342  -10.0935 C   0  0  0  0  0  0  0  0  0  0  0  0
   26.2116  -22.5678   -9.6537 O   0  0  0  0  0  0  0  0  0  0  0  0
   27.7582  -20.0005  -18.1115 N   0  0  0  0  0  0  0  0  0  0  0  0
   24.9567  -20.6759   -9.2416 C   0  0  1  0  0  0  0  0  0  0  0  0
   24.6858  -21.0647   -7.8915 C   0  0  0  0  0  0  0  0  0  0  0  0
   24.8830  -19.8596   -6.9597 C   0  0  0  0  0  0  0  0  0  0  0  0
   26.3285  -19.5190   -6.8878 C   0  0  0  0  0  0  0  0  0  0  0  0
   27.0474  -18.7246   -7.7474 N   0  0  0  0  0  0  0  0  0  0  0  0
   28.3074  -18.6946   -7.3084 C   0  0  0  0  0  0  0  0  0  0  0  0
   28.4169  -19.4491   -6.1893 C   0  0  0  0  0  0  0  0  0  0  0  0
   29.4931  -19.7418   -5.3603 C   0  0  0  0  0  0  0  0  0  0  0  0
   29.3085  -20.5515   -4.2748 C   0  0  0  0  0  0  0  0  0  0  0  0
   28.0563  -21.0899   -3.9843 C   0  0  0  0  0  0  0  0  0  0  0  0
   26.9926  -20.7973   -4.8084 C   0  0  0  0  0  0  0  0  0  0  0  0
   27.1752  -19.9754   -5.9125 C   0  0  0  0  0  0  0  0  0  0  0  0
   23.3152  -21.6221   -7.7257 O   0  0  0  0  0  0  0  0  0  0  0  0
   22.3121  -21.1139   -8.2885 C   0  0  0  0  0  0  0  0  0  0  0  0
   21.8945  -24.7209   -6.2134 C   0  0  2  0  0  0  0  0  0  0  0  0
   21.7171  -23.2991   -6.7582 N   0  0  0  0  0  0  0  0  0  0  0  0
   23.0564  -22.7704   -6.9152 C   0  0  0  0  0  0  0  0  0  0  0  0
   20.9157  -22.5534   -5.7868 O   0  0  0  0  0  0  0  0  0  0  0  0
   21.4779  -21.5056   -5.0793 O   0  0  0  0  0  0  0  0  0  0  0  0
  2  1  1  0
  3  2  2  0
  4  2  1  0
  5  4  1  0
  6  5  1  0
  7  6  1  0
  8 10  1  0
  8  7  1  0
  8  9  1  1
 10 11  2  0
 12 13  1  0
 12 10  1  0
 13 14  1  1
 15 16  2  0
 15 14  1  0
 17 16  1  0
 18 23  2  0
 18 17  1  0
 19 18  1  0
 20 21  1  0
 20 19  2  0
 21 22  2  0
 22 23  1  0
 23 15  1  0
 24 28  1  0
 24 13  1  0
 25 24  2  0
 27 26  1  6
 27 29  1  0
 27 28  1  0
 29 30  1  0
 31 29  2  0
M  END
$$$$
