NYT.pdb
     RDKit          3D

 28 28  0  0  1  0  0  0  0  0999 V2000
   29.1502  -21.7338  -19.3794 N   0  0  0  0  0  0  0  0  0  0  0  0
   28.7206  -22.9724  -18.8405 C   0  0  0  0  0  0  0  0  0  0  0  0
   29.0384  -24.0074  -19.5023 O   0  0  0  0  0  0  0  0  0  0  0  0
   27.9492  -23.0187  -17.5794 C   0  0  0  0  0  0  0  0  0  0  0  0
   27.6597  -21.6607  -17.0224 C   0  0  2  0  0  0  0  0  0  0  0  0
   28.8424  -20.8641  -16.9112 N   0  0  0  0  0  0  0  0  0  0  0  0
   26.8882  -21.7168  -15.7533 C   0  0  0  0  0  0  0  0  0  0  0  0
   25.8918  -22.4633  -15.6782 O   0  0  0  0  0  0  0  0  0  0  0  0
   24.7359  -20.4846   -7.1546 O   0  0  0  0  0  0  0  0  0  0  0  0
   25.3526  -20.5445   -8.4024 C   0  0  0  0  0  0  0  0  0  0  0  0
   25.8849  -19.3997   -8.9153 C   0  0  0  0  0  0  0  0  0  0  0  0
   26.5013  -19.4374  -10.1522 C   0  0  0  0  0  0  0  0  0  0  0  0
   26.6004  -20.5945  -10.8938 C   0  0  0  0  0  0  0  0  0  0  0  0
   27.2651  -20.5607  -12.1849 C   0  0  0  0  0  0  0  0  0  0  0  0
   26.4372  -21.0165  -13.3621 C   0  0  2  0  0  0  0  0  0  0  0  0
   27.2238  -20.9568  -14.5986 N   0  0  0  0  0  0  0  0  0  0  0  0
   25.1527  -20.3191  -13.5138 C   0  0  0  0  0  0  0  0  0  0  0  0
   25.0853  -19.0797  -13.8340 O   0  0  0  0  0  0  0  0  0  0  0  0
   26.0663  -21.7490  -10.3816 C   0  0  0  0  0  0  0  0  0  0  0  0
   25.4417  -21.7135   -9.1297 C   0  0  0  0  0  0  0  0  0  0  0  0
   22.7901  -20.1209  -15.9574 C   0  0  0  0  0  0  0  0  0  0  0  0
   22.0311  -20.6857  -14.7896 C   0  0  1  0  0  0  0  0  0  0  0  0
   22.1147  -22.0792  -14.7839 O   0  0  0  0  0  0  0  0  0  0  0  0
   22.6385  -20.1981  -13.4556 C   0  0  2  0  0  0  0  0  0  0  0  0
   23.8764  -20.9337  -13.3284 N   0  0  0  0  0  0  0  0  0  0  0  0
   21.6943  -20.6709  -12.4230 C   0  0  0  0  0  0  0  0  0  0  0  0
   20.5118  -20.0026  -12.1223 O   0  0  0  0  0  0  0  0  0  0  0  0
   21.9455  -21.7164  -11.7753 O   0  0  0  0  0  0  0  0  0  0  0  0
  1  2  1  0
  2  3  2  0
  4  5  1  0
  4  2  1  0
  5  6  1  1
  5  7  1  0
  7  8  2  0
  9 10  1  0
 10 11  2  0
 10 20  1  0
 11 12  1  0
 12 13  2  0
 13 14  1  0
 15 14  1  1
 15 17  1  0
 16  7  1  0
 16 15  1  0
 17 18  2  0
 19 13  1  0
 20 19  2  0
 22 21  1  6
 22 23  1  0
 22 24  1  0
 24 26  1  0
 24 25  1  1
 25 17  1  0
 26 28  2  0
 26 27  1  0
M  END
$$$$
