NYT.pdb
     RDKit          3D

 28 28  0  0  1  0  0  0  0  0999 V2000
   28.7343  -21.1294  -18.4731 N   0  0  0  0  0  0  0  0  0  0  0  0
   27.4494  -20.5315  -18.4455 C   0  0  0  0  0  0  0  0  0  0  0  0
   27.2355  -19.6319  -19.3143 O   0  0  0  0  0  0  0  0  0  0  0  0
   26.4420  -20.9558  -17.4490 C   0  0  0  0  0  0  0  0  0  0  0  0
   26.9111  -22.0877  -16.5907 C   0  0  2  0  0  0  0  0  0  0  0  0
   26.8136  -23.3461  -17.2634 N   0  0  0  0  0  0  0  0  0  0  0  0
   26.2563  -22.1017  -15.2565 C   0  0  0  0  0  0  0  0  0  0  0  0
   25.2102  -22.7621  -15.0978 O   0  0  0  0  0  0  0  0  0  0  0  0
   24.3325  -20.4229   -6.7652 O   0  0  0  0  0  0  0  0  0  0  0  0
   24.9821  -20.4627   -7.9969 C   0  0  0  0  0  0  0  0  0  0  0  0
   24.7502  -21.5274   -8.8152 C   0  0  0  0  0  0  0  0  0  0  0  0
   25.3849  -21.5864  -10.0420 C   0  0  0  0  0  0  0  0  0  0  0  0
   26.2495  -20.6047  -10.4749 C   0  0  0  0  0  0  0  0  0  0  0  0
   26.8787  -20.7309  -11.7780 C   0  0  0  0  0  0  0  0  0  0  0  0
   25.9945  -21.2477  -12.8871 C   0  0  2  0  0  0  0  0  0  0  0  0
   26.7600  -21.3946  -14.1296 N   0  0  0  0  0  0  0  0  0  0  0  0
   24.7682  -20.4683  -13.1060 C   0  0  0  0  0  0  0  0  0  0  0  0
   24.7990  -19.2425  -13.4797 O   0  0  0  0  0  0  0  0  0  0  0  0
   26.4859  -19.5313   -9.6548 C   0  0  0  0  0  0  0  0  0  0  0  0
   25.8446  -19.4693   -8.4123 C   0  0  0  0  0  0  0  0  0  0  0  0
   22.5008  -19.9879  -15.5499 C   0  0  0  0  0  0  0  0  0  0  0  0
   21.6656  -20.5342  -14.4263 C   0  0  1  0  0  0  0  0  0  0  0  0
   21.6373  -21.9291  -14.4757 O   0  0  0  0  0  0  0  0  0  0  0  0
   22.2711  -20.1498  -13.0581 C   0  0  2  0  0  0  0  0  0  0  0  0
   23.4464  -20.9821  -12.9330 N   0  0  0  0  0  0  0  0  0  0  0  0
   21.2662  -20.5916  -12.0700 C   0  0  0  0  0  0  0  0  0  0  0  0
   20.0722  -19.9107  -11.8555 O   0  0  0  0  0  0  0  0  0  0  0  0
   21.4737  -21.6210  -11.3822 O   0  0  0  0  0  0  0  0  0  0  0  0
  1  2  1  0
  2  3  2  0
  4  5  1  0
  4  2  1  0
  5  6  1  6
  5  7  1  0
  7  8  2  0
  9 10  1  0
 10 11  2  0
 10 20  1  0
 11 12  1  0
 12 13  2  0
 13 14  1  0
 15 14  1  1
 15 17  1  0
 16  7  1  0
 16 15  1  0
 17 18  2  0
 19 13  1  0
 20 19  2  0
 22 21  1  6
 22 23  1  0
 22 24  1  0
 24 26  1  0
 24 25  1  1
 25 17  1  0
 26 28  2  0
 26 27  1  0
M  END
$$$$
