NYT.pdb
     RDKit          3D

 28 28  0  0  1  0  0  0  0  0999 V2000
   30.2435  -22.0060  -18.6617 N   0  0  0  0  0  0  0  0  0  0  0  0
   28.9167  -21.7310  -19.0781 C   0  0  0  0  0  0  0  0  0  0  0  0
   28.7950  -21.1424  -20.1955 O   0  0  0  0  0  0  0  0  0  0  0  0
   27.7659  -22.1211  -18.2347 C   0  0  0  0  0  0  0  0  0  0  0  0
   28.1774  -22.7079  -16.9214 C   0  0  2  0  0  0  0  0  0  0  0  0
   28.6891  -24.0358  -17.0649 N   0  0  0  0  0  0  0  0  0  0  0  0
   27.1064  -22.6170  -15.8950 C   0  0  0  0  0  0  0  0  0  0  0  0
   26.2047  -23.4785  -15.8769 O   0  0  0  0  0  0  0  0  0  0  0  0
   22.8416  -20.6148   -8.3539 O   0  0  0  0  0  0  0  0  0  0  0  0
   23.6995  -20.6301   -9.4513 C   0  0  0  0  0  0  0  0  0  0  0  0
   24.9104  -21.2405   -9.3161 C   0  0  0  0  0  0  0  0  0  0  0  0
   25.7769  -21.2668  -10.3930 C   0  0  0  0  0  0  0  0  0  0  0  0
   25.4638  -20.6965  -11.6076 C   0  0  0  0  0  0  0  0  0  0  0  0
   26.4222  -20.7650  -12.6971 C   0  0  0  0  0  0  0  0  0  0  0  0
   25.9609  -21.4997  -13.9326 C   0  0  2  0  0  0  0  0  0  0  0  0
   27.0467  -21.5880  -14.9145 N   0  0  0  0  0  0  0  0  0  0  0  0
   24.7349  -20.9647  -14.5409 C   0  0  0  0  0  0  0  0  0  0  0  0
   24.7065  -19.8227  -15.1224 O   0  0  0  0  0  0  0  0  0  0  0  0
   24.2464  -20.0811  -11.7485 C   0  0  0  0  0  0  0  0  0  0  0  0
   23.3675  -20.0531  -10.6597 C   0  0  0  0  0  0  0  0  0  0  0  0
   22.7705  -21.8616  -17.4363 C   0  0  0  0  0  0  0  0  0  0  0  0
   21.8683  -22.0193  -16.2448 C   0  0  1  0  0  0  0  0  0  0  0  0
   21.9676  -23.3123  -15.7278 O   0  0  0  0  0  0  0  0  0  0  0  0
   22.2844  -21.0544  -15.1125 C   0  0  2  0  0  0  0  0  0  0  0  0
   23.4785  -21.6448  -14.5511 N   0  0  0  0  0  0  0  0  0  0  0  0
   21.1931  -21.1514  -14.1221 C   0  0  0  0  0  0  0  0  0  0  0  0
   19.9732  -20.5020  -14.2809 O   0  0  0  0  0  0  0  0  0  0  0  0
   21.3471  -21.8420  -13.0853 O   0  0  0  0  0  0  0  0  0  0  0  0
  1  2  1  0
  2  3  2  0
  4  5  1  0
  4  2  1  0
  5  6  1  6
  5  7  1  0
  7  8  2  0
  9 10  1  0
 10 11  2  0
 10 20  1  0
 11 12  1  0
 12 13  2  0
 13 14  1  0
 15 14  1  1
 15 17  1  0
 16  7  1  0
 16 15  1  0
 17 18  2  0
 19 13  1  0
 20 19  2  0
 22 21  1  6
 22 23  1  0
 22 24  1  0
 24 26  1  0
 24 25  1  1
 25 17  1  0
 26 28  2  0
 26 27  1  0
M  END
$$$$
