NYT.pdb
     RDKit          3D

 28 28  0  0  1  0  0  0  0  0999 V2000
   21.2383  -15.6970  -16.6473 N   0  0  0  0  0  0  0  0  0  0  0  0
   20.8344  -14.4499  -17.1867 C   0  0  0  0  0  0  0  0  0  0  0  0
   20.1351  -14.5014  -18.2442 O   0  0  0  0  0  0  0  0  0  0  0  0
   21.2231  -13.1831  -16.5296 C   0  0  0  0  0  0  0  0  0  0  0  0
   21.2326  -12.0180  -17.4680 C   0  0  2  0  0  0  0  0  0  0  0  0
   22.1630  -12.2004  -18.5389 N   0  0  0  0  0  0  0  0  0  0  0  0
   21.4177  -10.7211  -16.7660 C   0  0  0  0  0  0  0  0  0  0  0  0
   20.9007  -10.5567  -15.6429 O   0  0  0  0  0  0  0  0  0  0  0  0
   27.7771  -11.8224  -15.6431 O   0  0  0  0  0  0  0  0  0  0  0  0
   26.8084  -10.8717  -15.9570 C   0  0  0  0  0  0  0  0  0  0  0  0
   26.1874  -10.2203  -14.9337 C   0  0  0  0  0  0  0  0  0  0  0  0
   25.2230   -9.2730  -15.2234 C   0  0  0  0  0  0  0  0  0  0  0  0
   24.8610   -8.9578  -16.5150 C   0  0  0  0  0  0  0  0  0  0  0  0
   23.8414   -7.9491  -16.7450 C   0  0  0  0  0  0  0  0  0  0  0  0
   22.4140   -8.4027  -16.5560 C   0  0  2  0  0  0  0  0  0  0  0  0
   22.1622   -9.6367  -17.3077 N   0  0  0  0  0  0  0  0  0  0  0  0
   21.4019   -7.3804  -16.8560 C   0  0  0  0  0  0  0  0  0  0  0  0
   21.2410   -6.9087  -18.0370 O   0  0  0  0  0  0  0  0  0  0  0  0
   25.4833   -9.6106  -17.5480 C   0  0  0  0  0  0  0  0  0  0  0  0
   26.4599  -10.5701  -17.2574 C   0  0  0  0  0  0  0  0  0  0  0  0
   17.6274   -4.6100  -15.1290 C   0  0  0  0  0  0  0  0  0  0  0  0
   18.5975   -5.7504  -14.9990 C   0  0  1  0  0  0  0  0  0  0  0  0
   17.9133   -6.9657  -14.9372 O   0  0  0  0  0  0  0  0  0  0  0  0
   19.5236   -5.8237  -16.2333 C   0  0  2  0  0  0  0  0  0  0  0  0
   20.5114   -6.8214  -15.8889 N   0  0  0  0  0  0  0  0  0  0  0  0
   20.1790   -4.5012  -16.2848 C   0  0  0  0  0  0  0  0  0  0  0  0
   21.3649   -4.2226  -15.6133 O   0  0  0  0  0  0  0  0  0  0  0  0
   19.6651   -3.5726  -16.9552 O   0  0  0  0  0  0  0  0  0  0  0  0
  1  2  1  0
  2  3  2  0
  4  5  1  0
  4  2  1  0
  5  6  1  6
  5  7  1  0
  7  8  2  0
  9 10  1  0
 10 11  2  0
 10 20  1  0
 11 12  1  0
 12 13  2  0
 13 14  1  0
 15 14  1  6
 15 17  1  0
 16  7  1  0
 16 15  1  0
 17 18  2  0
 19 13  1  0
 20 19  2  0
 22 21  1  6
 22 23  1  0
 22 24  1  0
 24 26  1  0
 24 25  1  1
 25 17  1  0
 26 28  2  0
 26 27  1  0
M  END
$$$$
