NYT.pdb
     RDKit          3D

 28 28  0  0  1  0  0  0  0  0999 V2000
   19.4648  -15.5262  -18.4975 N   0  0  0  0  0  0  0  0  0  0  0  0
   20.4357  -16.3153  -19.1638 C   0  0  0  0  0  0  0  0  0  0  0  0
   20.2165  -16.5475  -20.3919 O   0  0  0  0  0  0  0  0  0  0  0  0
   21.6219  -16.8214  -18.4395 C   0  0  0  0  0  0  0  0  0  0  0  0
   21.5870  -16.5136  -16.9759 C   0  0  2  0  0  0  0  0  0  0  0  0
   21.4876  -15.1088  -16.7262 N   0  0  0  0  0  0  0  0  0  0  0  0
   22.7071  -17.1474  -16.2325 C   0  0  0  0  0  0  0  0  0  0  0  0
   23.8122  -16.5709  -16.1875 O   0  0  0  0  0  0  0  0  0  0  0  0
   27.1589  -22.6524  -10.8068 O   0  0  0  0  0  0  0  0  0  0  0  0
   26.2053  -21.8922  -11.4802 C   0  0  0  0  0  0  0  0  0  0  0  0
   25.4128  -22.5152  -12.3973 C   0  0  0  0  0  0  0  0  0  0  0  0
   24.4601  -21.7791  -13.0767 C   0  0  0  0  0  0  0  0  0  0  0  0
   24.2773  -20.4302  -12.8630 C   0  0  0  0  0  0  0  0  0  0  0  0
   23.2541  -19.7206  -13.6111 C   0  0  0  0  0  0  0  0  0  0  0  0
   23.7233  -19.0190  -14.8628 C   0  0  2  0  0  0  0  0  0  0  0  0
   22.5926  -18.3942  -15.5573 N   0  0  0  0  0  0  0  0  0  0  0  0
   24.5114  -19.8582  -15.7761 C   0  0  0  0  0  0  0  0  0  0  0  0
   23.9798  -20.8006  -16.4633 O   0  0  0  0  0  0  0  0  0  0  0  0
   25.0724  -19.7990  -11.9411 C   0  0  0  0  0  0  0  0  0  0  0  0
   26.0377  -20.5420  -11.2519 C   0  0  0  0  0  0  0  0  0  0  0  0
   28.6305  -19.2833  -16.0443 C   0  0  0  0  0  0  0  0  0  0  0  0
   27.9061  -19.7589  -17.2721 C   0  0  1  0  0  0  0  0  0  0  0  0
   28.7244  -20.6062  -18.0215 O   0  0  0  0  0  0  0  0  0  0  0  0
   26.6541  -20.5772  -16.8857 C   0  0  2  0  0  0  0  0  0  0  0  0
   25.9163  -19.7137  -15.9913 N   0  0  0  0  0  0  0  0  0  0  0  0
   27.1817  -21.7222  -16.1164 C   0  0  0  0  0  0  0  0  0  0  0  0
   27.6915  -22.8654  -16.7233 O   0  0  0  0  0  0  0  0  0  0  0  0
   27.1817  -21.6877  -14.8615 O   0  0  0  0  0  0  0  0  0  0  0  0
  1  2  1  0
  2  3  2  0
  4  5  1  0
  4  2  1  0
  5  6  1  6
  5  7  1  0
  7  8  2  0
  9 10  1  0
 10 11  2  0
 10 20  1  0
 11 12  1  0
 12 13  2  0
 13 14  1  0
 15 14  1  1
 15 17  1  0
 16  7  1  0
 16 15  1  0
 17 18  2  0
 19 13  1  0
 20 19  2  0
 22 21  1  1
 22 23  1  0
 22 24  1  0
 24 26  1  0
 24 25  1  1
 25 17  1  0
 26 28  2  0
 26 27  1  0
M  END
$$$$
