NYT.pdb
     RDKit          3D

 28 28  0  0  1  0  0  0  0  0999 V2000
   26.5702  -12.6918  -21.4593 N   0  0  0  0  0  0  0  0  0  0  0  0
   25.3936  -13.4746  -21.5695 C   0  0  0  0  0  0  0  0  0  0  0  0
   25.3794  -14.3287  -22.5077 O   0  0  0  0  0  0  0  0  0  0  0  0
   24.2684  -13.2804  -20.6292 C   0  0  0  0  0  0  0  0  0  0  0  0
   24.5474  -12.2383  -19.5928 C   0  0  2  0  0  0  0  0  0  0  0  0
   25.6397  -12.6047  -18.7452 N   0  0  0  0  0  0  0  0  0  0  0  0
   23.3330  -11.8568  -18.8255 C   0  0  0  0  0  0  0  0  0  0  0  0
   22.2136  -11.9586  -19.3661 O   0  0  0  0  0  0  0  0  0  0  0  0
   22.6054  -17.2618  -14.8618 O   0  0  0  0  0  0  0  0  0  0  0  0
   22.4845  -15.8798  -14.9884 C   0  0  0  0  0  0  0  0  0  0  0  0
   23.5490  -15.1037  -14.6395 C   0  0  0  0  0  0  0  0  0  0  0  0
   23.4499  -13.7298  -14.7575 C   0  0  0  0  0  0  0  0  0  0  0  0
   22.3097  -13.1078  -15.2173 C   0  0  0  0  0  0  0  0  0  0  0  0
   22.2776  -11.6591  -15.3185 C   0  0  0  0  0  0  0  0  0  0  0  0
   22.1547  -11.1007  -16.7157 C   0  0  2  0  0  0  0  0  0  0  0  0
   23.3713  -11.3739  -17.4880 N   0  0  0  0  0  0  0  0  0  0  0  0
   21.7935   -9.6776  -16.7766 C   0  0  0  0  0  0  0  0  0  0  0  0
   22.6564   -8.7483  -16.5900 O   0  0  0  0  0  0  0  0  0  0  0  0
   21.2359  -13.8846  -15.5698 C   0  0  0  0  0  0  0  0  0  0  0  0
   21.3337  -15.2757  -15.4511 C   0  0  0  0  0  0  0  0  0  0  0  0
   18.2474   -6.2956  -17.7253 C   0  0  0  0  0  0  0  0  0  0  0  0
   18.7164   -7.7198  -17.6237 C   0  0  1  0  0  0  0  0  0  0  0  0
   18.7104   -8.3243  -18.8820 O   0  0  0  0  0  0  0  0  0  0  0  0
   20.1713   -7.7808  -17.1079 C   0  0  2  0  0  0  0  0  0  0  0  0
   20.4772   -9.1923  -17.0464 N   0  0  0  0  0  0  0  0  0  0  0  0
   20.1003   -7.2476  -15.7324 C   0  0  0  0  0  0  0  0  0  0  0  0
   20.2282   -5.8929  -15.4432 O   0  0  0  0  0  0  0  0  0  0  0  0
   19.9175   -8.0279  -14.7662 O   0  0  0  0  0  0  0  0  0  0  0  0
  1  2  1  0
  2  3  2  0
  4  5  1  0
  4  2  1  0
  5  6  1  1
  5  7  1  0
  7  8  2  0
  9 10  1  0
 10 11  2  0
 10 20  1  0
 11 12  1  0
 12 13  2  0
 13 14  1  0
 15 14  1  1
 15 17  1  0
 16  7  1  0
 16 15  1  0
 17 18  2  0
 19 13  1  0
 20 19  2  0
 22 21  1  6
 22 23  1  0
 22 24  1  0
 24 26  1  0
 24 25  1  1
 25 17  1  0
 26 28  2  0
 26 27  1  0
M  END
$$$$
