NYT.pdb
     RDKit          3D

 28 28  0  0  1  0  0  0  0  0999 V2000
   27.8630  -19.2809  -20.4765 N   0  0  0  0  0  0  0  0  0  0  0  0
   28.2514  -19.3860  -19.1173 C   0  0  0  0  0  0  0  0  0  0  0  0
   29.3957  -18.9203  -18.8280 O   0  0  0  0  0  0  0  0  0  0  0  0
   27.3510  -20.0076  -18.1220 C   0  0  0  0  0  0  0  0  0  0  0  0
   28.0509  -20.9862  -17.2329 C   0  0  2  0  0  0  0  0  0  0  0  0
   28.4095  -22.1823  -17.9304 N   0  0  0  0  0  0  0  0  0  0  0  0
   27.2982  -21.2598  -15.9808 C   0  0  0  0  0  0  0  0  0  0  0  0
   26.3365  -22.0534  -16.0089 O   0  0  0  0  0  0  0  0  0  0  0  0
   24.5601  -20.9058   -7.5280 O   0  0  0  0  0  0  0  0  0  0  0  0
   25.2838  -20.7236   -8.7043 C   0  0  0  0  0  0  0  0  0  0  0  0
   25.6101  -21.8241   -9.4388 C   0  0  0  0  0  0  0  0  0  0  0  0
   26.3281  -21.6654  -10.6095 C   0  0  0  0  0  0  0  0  0  0  0  0
   26.7307  -20.4300  -11.0680 C   0  0  0  0  0  0  0  0  0  0  0  0
   27.4801  -20.3380  -12.3089 C   0  0  0  0  0  0  0  0  0  0  0  0
   26.7580  -20.8078  -13.5487 C   0  0  2  0  0  0  0  0  0  0  0  0
   27.6143  -20.6600  -14.7302 N   0  0  0  0  0  0  0  0  0  0  0  0
   25.4430  -20.1881  -13.7630 C   0  0  0  0  0  0  0  0  0  0  0  0
   25.3176  -18.9575  -14.0991 O   0  0  0  0  0  0  0  0  0  0  0  0
   26.4046  -19.3196  -10.3322 C   0  0  0  0  0  0  0  0  0  0  0  0
   25.6778  -19.4776   -9.1466 C   0  0  0  0  0  0  0  0  0  0  0  0
   23.0466  -20.0250  -16.2304 C   0  0  0  0  0  0  0  0  0  0  0  0
   22.3381  -20.6780  -15.0770 C   0  0  1  0  0  0  0  0  0  0  0  0
   22.5134  -22.0623  -15.1199 O   0  0  0  0  0  0  0  0  0  0  0  0
   22.9254  -20.1968  -13.7316 C   0  0  2  0  0  0  0  0  0  0  0  0
   24.1977  -20.8749  -13.6262 N   0  0  0  0  0  0  0  0  0  0  0  0
   22.0083  -20.7415  -12.7102 C   0  0  0  0  0  0  0  0  0  0  0  0
   20.7398  -20.2180  -12.4822 O   0  0  0  0  0  0  0  0  0  0  0  0
   22.3638  -21.7172  -12.0049 O   0  0  0  0  0  0  0  0  0  0  0  0
  1  2  1  0
  2  3  2  0
  4  5  1  0
  4  2  1  0
  5  6  1  6
  5  7  1  0
  7  8  2  0
  9 10  1  0
 10 11  2  0
 10 20  1  0
 11 12  1  0
 12 13  2  0
 13 14  1  0
 15 14  1  1
 15 17  1  0
 16  7  1  0
 16 15  1  0
 17 18  2  0
 19 13  1  0
 20 19  2  0
 22 21  1  6
 22 23  1  0
 22 24  1  0
 24 26  1  0
 24 25  1  1
 25 17  1  0
 26 28  2  0
 26 27  1  0
M  END
$$$$
