NYT.pdb
     RDKit          3D

 28 28  0  0  1  0  0  0  0  0999 V2000
   23.6126  -12.6462  -21.8351 N   0  0  0  0  0  0  0  0  0  0  0  0
   22.3204  -12.4993  -21.2711 C   0  0  0  0  0  0  0  0  0  0  0  0
   21.3650  -13.0158  -21.9272 O   0  0  0  0  0  0  0  0  0  0  0  0
   22.1336  -11.7805  -19.9921 C   0  0  0  0  0  0  0  0  0  0  0  0
   23.3972  -11.1663  -19.4780 C   0  0  2  0  0  0  0  0  0  0  0  0
   24.3864  -12.1530  -19.1720 N   0  0  0  0  0  0  0  0  0  0  0  0
   23.1583  -10.2289  -18.3497 C   0  0  0  0  0  0  0  0  0  0  0  0
   22.4329  -10.5890  -17.4011 O   0  0  0  0  0  0  0  0  0  0  0  0
   28.8443  -11.4975  -15.7636 O   0  0  0  0  0  0  0  0  0  0  0  0
   27.8950  -10.5114  -16.0229 C   0  0  0  0  0  0  0  0  0  0  0  0
   26.8916  -10.3274  -15.1193 C   0  0  0  0  0  0  0  0  0  0  0  0
   25.9391   -9.3540  -15.3576 C   0  0  0  0  0  0  0  0  0  0  0  0
   25.9630   -8.5557  -16.4804 C   0  0  0  0  0  0  0  0  0  0  0  0
   24.9308   -7.5503  -16.6640 C   0  0  0  0  0  0  0  0  0  0  0  0
   23.5814   -8.0665  -17.1021 C   0  0  2  0  0  0  0  0  0  0  0  0
   23.7171   -8.9222  -18.2854 N   0  0  0  0  0  0  0  0  0  0  0  0
   22.5662   -7.0250  -17.3114 C   0  0  0  0  0  0  0  0  0  0  0  0
   22.7574   -6.0389  -18.1077 O   0  0  0  0  0  0  0  0  0  0  0  0
   26.9709   -8.7372  -17.3924 C   0  0  0  0  0  0  0  0  0  0  0  0
   27.9363   -9.7219  -17.1535 C   0  0  0  0  0  0  0  0  0  0  0  0
   18.7302   -7.6662  -15.9775 C   0  0  0  0  0  0  0  0  0  0  0  0
   18.9841   -6.7247  -17.1211 C   0  0  1  0  0  0  0  0  0  0  0  0
   17.9781   -5.7591  -17.1882 O   0  0  0  0  0  0  0  0  0  0  0  0
   20.3152   -5.9670  -16.9202 C   0  0  2  0  0  0  0  0  0  0  0  0
   21.2904   -7.0040  -16.6687 N   0  0  0  0  0  0  0  0  0  0  0  0
   20.1160   -5.1886  -15.6810 C   0  0  0  0  0  0  0  0  0  0  0  0
   19.4114   -3.9895  -15.6509 O   0  0  0  0  0  0  0  0  0  0  0  0
   20.5919   -5.6041  -14.5963 O   0  0  0  0  0  0  0  0  0  0  0  0
  1  2  1  0
  2  3  2  0
  4  5  1  0
  4  2  1  0
  5  6  1  1
  5  7  1  0
  7  8  2  0
  9 10  1  0
 10 11  2  0
 10 20  1  0
 11 12  1  0
 12 13  2  0
 13 14  1  0
 15 14  1  6
 15 17  1  0
 16  7  1  0
 16 15  1  0
 17 18  2  0
 19 13  1  0
 20 19  2  0
 22 21  1  1
 22 23  1  0
 22 24  1  0
 24 26  1  0
 24 25  1  1
 25 17  1  0
 26 28  2  0
 26 27  1  0
M  END
$$$$
