NYT.pdb
     RDKit          3D

 28 28  0  0  1  0  0  0  0  0999 V2000
   28.4300  -21.0976  -20.5061 N   0  0  0  0  0  0  0  0  0  0  0  0
   28.2823  -20.5490  -19.2075 C   0  0  0  0  0  0  0  0  0  0  0  0
   29.0307  -19.5620  -18.9319 O   0  0  0  0  0  0  0  0  0  0  0  0
   27.3038  -21.1184  -18.2556 C   0  0  0  0  0  0  0  0  0  0  0  0
   27.9506  -21.8349  -17.1126 C   0  0  2  0  0  0  0  0  0  0  0  0
   28.4820  -23.1028  -17.5071 N   0  0  0  0  0  0  0  0  0  0  0  0
   27.0630  -21.9329  -15.9246 C   0  0  0  0  0  0  0  0  0  0  0  0
   26.1215  -22.7508  -15.9330 O   0  0  0  0  0  0  0  0  0  0  0  0
   23.6360  -20.3969   -7.8167 O   0  0  0  0  0  0  0  0  0  0  0  0
   24.4527  -20.4686   -8.9430 C   0  0  0  0  0  0  0  0  0  0  0  0
   24.4758  -19.4035   -9.7928 C   0  0  0  0  0  0  0  0  0  0  0  0
   25.2796  -19.4542  -10.9165 C   0  0  0  0  0  0  0  0  0  0  0  0
   26.0647  -20.5464  -11.2150 C   0  0  0  0  0  0  0  0  0  0  0  0
   26.8874  -20.5289  -12.4121 C   0  0  0  0  0  0  0  0  0  0  0  0
   26.2911  -21.1946  -13.6288 C   0  0  2  0  0  0  0  0  0  0  0  0
   27.2256  -21.1357  -14.7577 N   0  0  0  0  0  0  0  0  0  0  0  0
   24.9627  -20.6956  -14.0103 C   0  0  0  0  0  0  0  0  0  0  0  0
   24.8061  -19.5875  -14.6352 O   0  0  0  0  0  0  0  0  0  0  0  0
   26.0448  -21.6206  -10.3628 C   0  0  0  0  0  0  0  0  0  0  0  0
   25.2320  -21.5717   -9.2245 C   0  0  0  0  0  0  0  0  0  0  0  0
   20.2475  -21.5542  -14.9928 C   0  0  0  0  0  0  0  0  0  0  0  0
   21.6786  -21.9460  -14.7543 C   0  0  1  0  0  0  0  0  0  0  0  0
   22.3274  -22.1791  -15.9682 O   0  0  0  0  0  0  0  0  0  0  0  0
   22.4477  -20.8058  -14.0508 C   0  0  2  0  0  0  0  0  0  0  0  0
   23.7375  -21.3769  -13.7350 N   0  0  0  0  0  0  0  0  0  0  0  0
   21.7061  -20.5780  -12.7941 C   0  0  0  0  0  0  0  0  0  0  0  0
   20.8276  -19.5133  -12.6214 O   0  0  0  0  0  0  0  0  0  0  0  0
   21.8567  -21.3629  -11.8262 O   0  0  0  0  0  0  0  0  0  0  0  0
  1  2  1  0
  2  3  2  0
  4  5  1  0
  4  2  1  0
  5  6  1  6
  5  7  1  0
  7  8  2  0
  9 10  1  0
 10 11  2  0
 10 20  1  0
 11 12  1  0
 12 13  2  0
 13 14  1  0
 15 14  1  1
 15 17  1  0
 16  7  1  0
 16 15  1  0
 17 18  2  0
 19 13  1  0
 20 19  2  0
 22 21  1  6
 22 23  1  0
 22 24  1  0
 24 26  1  0
 24 25  1  1
 25 17  1  0
 26 28  2  0
 26 27  1  0
M  END
$$$$
