DGY.pdb
     RDKit          3D

 25 25  0  0  1  0  0  0  0  0999 V2000
   25.1148  -16.5536  -16.8029 N   0  0  0  0  0  0  0  0  0  0  0  0
   26.3348  -17.2065  -17.2398 C   0  0  1  0  0  0  0  0  0  0  0  0
   27.2491  -16.1301  -17.7896 C   0  0  0  0  0  0  0  0  0  0  0  0
   26.7052  -15.5697  -19.0530 C   0  0  0  0  0  0  0  0  0  0  0  0
   26.7537  -14.3392  -19.2950 O   0  0  0  0  0  0  0  0  0  0  0  0
   26.9156  -17.9057  -16.0897 C   0  0  0  0  0  0  0  0  0  0  0  0
   27.8854  -18.7112  -16.1971 O   0  0  0  0  0  0  0  0  0  0  0  0
   26.1277  -16.3970  -20.0006 O   0  0  0  0  0  0  0  0  0  0  0  0
   26.4203  -17.7247  -14.7453 N   0  0  0  0  0  0  0  0  0  0  0  0
   26.9525  -18.4727  -13.6515 C   0  0  0  0  0  0  0  0  0  0  0  0
   26.1530  -19.5987  -13.1846 C   0  0  0  0  0  0  0  0  0  0  0  0
   26.2637  -20.7272  -13.7735 O   0  0  0  0  0  0  0  0  0  0  0  0
   30.0010  -20.5083   -8.3818 O   0  0  0  0  0  0  0  0  0  0  0  0
   28.6976  -20.6403   -8.8637 C   0  0  0  0  0  0  0  0  0  0  0  0
   28.4016  -21.4791   -9.9284 C   0  0  0  0  0  0  0  0  0  0  0  0
   27.0953  -21.5683  -10.3603 C   0  0  0  0  0  0  0  0  0  0  0  0
   26.0858  -20.8260   -9.7361 C   0  0  0  0  0  0  0  0  0  0  0  0
   24.6888  -20.9022  -10.1887 C   0  0  0  0  0  0  0  0  0  0  0  0
   24.5357  -20.7985  -11.6809 C   0  0  2  0  0  0  0  0  0  0  0  0
   25.2334  -19.5704  -12.1074 N   0  0  0  0  0  0  0  0  0  0  0  0
   23.1271  -20.7035  -12.0965 C   0  0  0  0  0  0  0  0  0  0  0  0
   22.6421  -19.5604  -12.7122 O   0  0  0  0  0  0  0  0  0  0  0  0
   26.3942  -19.9952   -8.6782 C   0  0  0  0  0  0  0  0  0  0  0  0
   27.7013  -19.9114   -8.2522 C   0  0  0  0  0  0  0  0  0  0  0  0
   22.3211  -21.6487  -11.9089 O   0  0  0  0  0  0  0  0  0  0  0  0
  2  1  1  1
  2  3  1  0
  3  4  1  0
  4  5  2  0
  6  2  1  0
  7  6  2  0
  8  4  1  0
  9  6  1  0
 10 11  1  0
 10  9  1  0
 11 12  2  0
 14 13  1  0
 14 24  2  0
 15 14  1  0
 16 15  2  0
 16 17  1  0
 17 23  2  0
 18 17  1  0
 19 18  1  1
 20 19  1  0
 20 11  1  0
 21 19  1  0
 22 21  1  0
 23 24  1  0
 25 21  2  0
M  END
$$$$
