DGY.pdb
     RDKit          3D

 25 25  0  0  1  0  0  0  0  0999 V2000
   28.2845  -22.3763  -16.9374 N   0  0  0  0  0  0  0  0  0  0  0  0
   27.0380  -22.7135  -16.2753 C   0  0  1  0  0  0  0  0  0  0  0  0
   27.2383  -24.0521  -15.5936 C   0  0  0  0  0  0  0  0  0  0  0  0
   27.5125  -25.1174  -16.5916 C   0  0  0  0  0  0  0  0  0  0  0  0
   27.5738  -24.8617  -17.8187 O   0  0  0  0  0  0  0  0  0  0  0  0
   26.7194  -21.6408  -15.3282 C   0  0  0  0  0  0  0  0  0  0  0  0
   27.5062  -20.6776  -15.0955 O   0  0  0  0  0  0  0  0  0  0  0  0
   27.7085  -26.4272  -16.1893 O   0  0  0  0  0  0  0  0  0  0  0  0
   25.4791  -21.6063  -14.5893 N   0  0  0  0  0  0  0  0  0  0  0  0
   25.0880  -20.4490  -13.8499 C   0  0  0  0  0  0  0  0  0  0  0  0
   23.7510  -20.4705  -13.2692 C   0  0  0  0  0  0  0  0  0  0  0  0
   23.3701  -19.4872  -12.5477 O   0  0  0  0  0  0  0  0  0  0  0  0
   22.9845  -23.3283  -19.3894 O   0  0  0  0  0  0  0  0  0  0  0  0
   22.5118  -22.6522  -18.2633 C   0  0  0  0  0  0  0  0  0  0  0  0
   21.4687  -23.1578  -17.5011 C   0  0  0  0  0  0  0  0  0  0  0  0
   21.0450  -22.4451  -16.3995 C   0  0  0  0  0  0  0  0  0  0  0  0
   21.6560  -21.2334  -16.0562 C   0  0  0  0  0  0  0  0  0  0  0  0
   21.2117  -20.4557  -14.8899 C   0  0  0  0  0  0  0  0  0  0  0  0
   21.3641  -21.1901  -13.5867 C   0  0  2  0  0  0  0  0  0  0  0  0
   22.7966  -21.5053  -13.4275 N   0  0  0  0  0  0  0  0  0  0  0  0
   20.6030  -22.4494  -13.5584 C   0  0  0  0  0  0  0  0  0  0  0  0
   21.2527  -23.6730  -13.5199 O   0  0  0  0  0  0  0  0  0  0  0  0
   22.6925  -20.7417  -16.8234 C   0  0  0  0  0  0  0  0  0  0  0  0
   23.1104  -21.4592  -17.9222 C   0  0  0  0  0  0  0  0  0  0  0  0
   19.3468  -22.4588  -13.5681 O   0  0  0  0  0  0  0  0  0  0  0  0
  2  1  1  1
  2  3  1  0
  3  4  1  0
  4  5  2  0
  6  2  1  0
  7  6  2  0
  8  4  1  0
  9  6  1  0
 10 11  1  0
 10  9  1  0
 11 12  2  0
 14 13  1  0
 14 24  2  0
 15 14  1  0
 16 15  2  0
 16 17  1  0
 17 23  2  0
 18 17  1  0
 19 18  1  6
 20 19  1  0
 20 11  1  0
 21 19  1  0
 22 21  1  0
 23 24  1  0
 25 21  2  0
M  END
$$$$
