DGY.pdb
     RDKit          3D

 25 25  0  0  1  0  0  0  0  0999 V2000
   17.7947   -9.4705  -16.8502 N   0  0  0  0  0  0  0  0  0  0  0  0
   18.6597  -10.5532  -16.4198 C   0  0  1  0  0  0  0  0  0  0  0  0
   20.0030  -10.3501  -17.0914 C   0  0  0  0  0  0  0  0  0  0  0  0
   19.8833  -10.4899  -18.5652 C   0  0  0  0  0  0  0  0  0  0  0  0
   19.3666  -11.5091  -19.0840 O   0  0  0  0  0  0  0  0  0  0  0  0
   18.7490  -10.5124  -14.9571 C   0  0  0  0  0  0  0  0  0  0  0  0
   19.4299  -11.3442  -14.2898 O   0  0  0  0  0  0  0  0  0  0  0  0
   20.3422   -9.4923  -19.4078 O   0  0  0  0  0  0  0  0  0  0  0  0
   18.0630   -9.5154  -14.1691 N   0  0  0  0  0  0  0  0  0  0  0  0
   18.1259   -9.5249  -12.7426 C   0  0  0  0  0  0  0  0  0  0  0  0
   17.2158   -8.6239  -12.0463 C   0  0  0  0  0  0  0  0  0  0  0  0
   16.5355   -7.7807  -12.7236 O   0  0  0  0  0  0  0  0  0  0  0  0
   11.3349   -5.5342   -6.2827 O   0  0  0  0  0  0  0  0  0  0  0  0
   12.4312   -6.1799   -6.8569 C   0  0  0  0  0  0  0  0  0  0  0  0
   13.7315   -5.8493   -6.5042 C   0  0  0  0  0  0  0  0  0  0  0  0
   14.7742   -6.5220   -7.1053 C   0  0  0  0  0  0  0  0  0  0  0  0
   14.5254   -7.5205   -8.0543 C   0  0  0  0  0  0  0  0  0  0  0  0
   15.6250   -8.2425   -8.7117 C   0  0  0  0  0  0  0  0  0  0  0  0
   15.9746   -7.6956  -10.0679 C   0  0  2  0  0  0  0  0  0  0  0  0
   16.9998   -8.5849  -10.6468 N   0  0  0  0  0  0  0  0  0  0  0  0
   16.5241   -6.3319   -9.9999 C   0  0  0  0  0  0  0  0  0  0  0  0
   15.7476   -5.2341  -10.3352 O   0  0  0  0  0  0  0  0  0  0  0  0
   13.2269   -7.8393   -8.3962 C   0  0  0  0  0  0  0  0  0  0  0  0
   12.1906   -7.1631   -7.7914 C   0  0  0  0  0  0  0  0  0  0  0  0
   17.7078   -6.1174   -9.6381 O   0  0  0  0  0  0  0  0  0  0  0  0
  2  1  1  6
  2  3  1  0
  3  4  1  0
  4  5  2  0
  6  2  1  0
  7  6  2  0
  8  4  1  0
  9  6  1  0
 10 11  1  0
 10  9  1  0
 11 12  2  0
 14 13  1  0
 14 24  2  0
 15 14  1  0
 16 15  2  0
 16 17  1  0
 17 23  2  0
 18 17  1  0
 19 18  1  1
 20 19  1  0
 20 11  1  0
 21 19  1  0
 22 21  1  0
 23 24  1  0
 25 21  2  0
M  END
$$$$
