DGY.pdb
     RDKit          3D

 25 25  0  0  1  0  0  0  0  0999 V2000
   16.1406  -12.6763  -17.0889 N   0  0  0  0  0  0  0  0  0  0  0  0
   17.5051  -13.1104  -16.8537 C   0  0  1  0  0  0  0  0  0  0  0  0
   18.1954  -13.1748  -18.2013 C   0  0  0  0  0  0  0  0  0  0  0  0
   17.7432  -14.3623  -18.9703 C   0  0  0  0  0  0  0  0  0  0  0  0
   17.2685  -15.3708  -18.3937 O   0  0  0  0  0  0  0  0  0  0  0  0
   18.1380  -12.1530  -15.9415 C   0  0  0  0  0  0  0  0  0  0  0  0
   19.2443  -12.3802  -15.3711 O   0  0  0  0  0  0  0  0  0  0  0  0
   17.8351  -14.3852  -20.3512 O   0  0  0  0  0  0  0  0  0  0  0  0
   17.5416  -10.8759  -15.6271 N   0  0  0  0  0  0  0  0  0  0  0  0
   18.1337   -9.9958  -14.6711 C   0  0  0  0  0  0  0  0  0  0  0  0
   18.9431   -8.9071  -15.2046 C   0  0  0  0  0  0  0  0  0  0  0  0
   18.4973   -8.2244  -16.1884 O   0  0  0  0  0  0  0  0  0  0  0  0
   24.8268   -2.4304  -16.2438 O   0  0  0  0  0  0  0  0  0  0  0  0
   24.1391   -3.5557  -15.7864 C   0  0  0  0  0  0  0  0  0  0  0  0
   24.6867   -4.8267  -15.8827 C   0  0  0  0  0  0  0  0  0  0  0  0
   23.9600   -5.9004  -15.4135 C   0  0  0  0  0  0  0  0  0  0  0  0
   22.6925   -5.7115  -14.8501 C   0  0  0  0  0  0  0  0  0  0  0  0
   21.8997   -6.8456  -14.3523 C   0  0  0  0  0  0  0  0  0  0  0  0
   20.9569   -7.4133  -15.3768 C   0  0  2  0  0  0  0  0  0  0  0  0
   20.2180   -8.5136  -14.7285 N   0  0  0  0  0  0  0  0  0  0  0  0
   21.6608   -7.9521  -16.5515 C   0  0  0  0  0  0  0  0  0  0  0  0
   22.1661   -9.2427  -16.5485 O   0  0  0  0  0  0  0  0  0  0  0  0
   22.1594   -4.4417  -14.7607 C   0  0  0  0  0  0  0  0  0  0  0  0
   22.8913   -3.3742  -15.2314 C   0  0  0  0  0  0  0  0  0  0  0  0
   21.8269   -7.2657  -17.5905 O   0  0  0  0  0  0  0  0  0  0  0  0
  2  1  1  6
  2  3  1  0
  3  4  1  0
  4  5  2  0
  6  2  1  0
  7  6  2  0
  8  4  1  0
  9  6  1  0
 10 11  1  0
 10  9  1  0
 11 12  2  0
 14 13  1  0
 14 24  2  0
 15 14  1  0
 16 15  2  0
 16 17  1  0
 17 23  2  0
 18 17  1  0
 19 18  1  1
 20 19  1  0
 20 11  1  0
 21 19  1  0
 22 21  1  0
 23 24  1  0
 25 21  2  0
M  END
$$$$
