DGY.pdb
     RDKit          3D

 25 25  0  0  1  0  0  0  0  0999 V2000
   21.9065   -3.5492  -15.4224 N   0  0  0  0  0  0  0  0  0  0  0  0
   22.6327   -4.5618  -16.1659 C   0  0  1  0  0  0  0  0  0  0  0  0
   24.0529   -4.0617  -16.3382 C   0  0  0  0  0  0  0  0  0  0  0  0
   24.0918   -2.8823  -17.2403 C   0  0  0  0  0  0  0  0  0  0  0  0
   23.1271   -2.6050  -17.9936 O   0  0  0  0  0  0  0  0  0  0  0  0
   22.5651   -5.8177  -15.4126 C   0  0  0  0  0  0  0  0  0  0  0  0
   22.2888   -5.8613  -14.1786 O   0  0  0  0  0  0  0  0  0  0  0  0
   25.2009   -2.0549  -17.2720 O   0  0  0  0  0  0  0  0  0  0  0  0
   22.8100   -7.1011  -16.0276 N   0  0  0  0  0  0  0  0  0  0  0  0
   22.8201   -8.3032  -15.2570 C   0  0  0  0  0  0  0  0  0  0  0  0
   22.9727   -9.5489  -15.9987 C   0  0  0  0  0  0  0  0  0  0  0  0
   23.0391   -9.5097  -17.2741 O   0  0  0  0  0  0  0  0  0  0  0  0
   29.4585  -11.0017  -17.5646 O   0  0  0  0  0  0  0  0  0  0  0  0
   28.2195  -11.4068  -17.0654 C   0  0  0  0  0  0  0  0  0  0  0  0
   27.6702  -10.8234  -15.9329 C   0  0  0  0  0  0  0  0  0  0  0  0
   26.4427  -11.2654  -15.4870 C   0  0  0  0  0  0  0  0  0  0  0  0
   25.7628  -12.2843  -16.1646 C   0  0  0  0  0  0  0  0  0  0  0  0
   24.4569  -12.7740  -15.6987 C   0  0  0  0  0  0  0  0  0  0  0  0
   23.2921  -12.0253  -16.2848 C   0  0  2  0  0  0  0  0  0  0  0  0
   23.0579  -10.8444  -15.4318 N   0  0  0  0  0  0  0  0  0  0  0  0
   22.0616  -12.8321  -16.3132 C   0  0  0  0  0  0  0  0  0  0  0  0
   21.8419  -13.7599  -17.3190 O   0  0  0  0  0  0  0  0  0  0  0  0
   26.3208  -12.8562  -17.2899 C   0  0  0  0  0  0  0  0  0  0  0  0
   27.5472  -12.4094  -17.7293 C   0  0  0  0  0  0  0  0  0  0  0  0
   21.1741  -12.7087  -15.4327 O   0  0  0  0  0  0  0  0  0  0  0  0
  2  1  1  1
  2  3  1  0
  3  4  1  0
  4  5  2  0
  6  2  1  0
  7  6  2  0
  8  4  1  0
  9  6  1  0
 10 11  1  0
 10  9  1  0
 11 12  2  0
 14 13  1  0
 14 24  2  0
 15 14  1  0
 16 15  2  0
 16 17  1  0
 17 23  2  0
 18 17  1  0
 19 18  1  1
 20 19  1  0
 20 11  1  0
 21 19  1  0
 22 21  1  0
 23 24  1  0
 25 21  2  0
M  END
$$$$
