DGY.pdb
     RDKit          3D

 25 25  0  0  1  0  0  0  0  0999 V2000
   19.3227  -13.4519  -17.3972 N   0  0  0  0  0  0  0  0  0  0  0  0
   20.6339  -12.9733  -17.0006 C   0  0  1  0  0  0  0  0  0  0  0  0
   21.5310  -13.0570  -18.2192 C   0  0  0  0  0  0  0  0  0  0  0  0
   21.8831  -14.4682  -18.5201 C   0  0  0  0  0  0  0  0  0  0  0  0
   22.9567  -14.9740  -18.1118 O   0  0  0  0  0  0  0  0  0  0  0  0
   20.4880  -11.6027  -16.5013 C   0  0  0  0  0  0  0  0  0  0  0  0
   21.3850  -11.0224  -15.8234 O   0  0  0  0  0  0  0  0  0  0  0  0
   21.0296  -15.2650  -19.2633 O   0  0  0  0  0  0  0  0  0  0  0  0
   19.3045  -10.8128  -16.7484 N   0  0  0  0  0  0  0  0  0  0  0  0
   19.1213   -9.5381  -16.1316 C   0  0  0  0  0  0  0  0  0  0  0  0
   20.2838   -8.6590  -16.0993 C   0  0  0  0  0  0  0  0  0  0  0  0
   21.1636   -8.7567  -17.0207 O   0  0  0  0  0  0  0  0  0  0  0  0
   25.5483   -2.0569  -17.1177 O   0  0  0  0  0  0  0  0  0  0  0  0
   24.6105   -3.0826  -16.9882 C   0  0  0  0  0  0  0  0  0  0  0  0
   24.8738   -4.3654  -17.4463 C   0  0  0  0  0  0  0  0  0  0  0  0
   23.9085   -5.3375  -17.2904 C   0  0  0  0  0  0  0  0  0  0  0  0
   22.6849   -5.0357  -16.6810 C   0  0  0  0  0  0  0  0  0  0  0  0
   21.6407   -6.0576  -16.5139 C   0  0  0  0  0  0  0  0  0  0  0  0
   21.7429   -6.8125  -15.2176 C   0  0  2  0  0  0  0  0  0  0  0  0
   20.5484   -7.6728  -15.1175 N   0  0  0  0  0  0  0  0  0  0  0  0
   21.7747   -5.9198  -14.0479 C   0  0  0  0  0  0  0  0  0  0  0  0
   22.9789   -5.5073  -13.4998 O   0  0  0  0  0  0  0  0  0  0  0  0
   22.4360   -3.7554  -16.2299 C   0  0  0  0  0  0  0  0  0  0  0  0
   23.4050   -2.7898  -16.3890 C   0  0  0  0  0  0  0  0  0  0  0  0
   20.7187   -5.5038  -13.5095 O   0  0  0  0  0  0  0  0  0  0  0  0
  2  1  1  6
  2  3  1  0
  3  4  1  0
  4  5  2  0
  6  2  1  0
  7  6  2  0
  8  4  1  0
  9  6  1  0
 10 11  1  0
 10  9  1  0
 11 12  2  0
 14 13  1  0
 14 24  2  0
 15 14  1  0
 16 15  2  0
 16 17  1  0
 17 23  2  0
 18 17  1  0
 19 18  1  6
 20 19  1  0
 20 11  1  0
 21 19  1  0
 22 21  1  0
 23 24  1  0
 25 21  2  0
M  END
$$$$
