DGY.pdb
     RDKit          3D

 25 25  0  0  1  0  0  0  0  0999 V2000
   19.9258  -11.9944  -18.5473 N   0  0  0  0  0  0  0  0  0  0  0  0
   21.2987  -12.2319  -18.9529 C   0  0  1  0  0  0  0  0  0  0  0  0
   21.3729  -11.9983  -20.4484 C   0  0  0  0  0  0  0  0  0  0  0  0
   21.0050  -13.2289  -21.1942 C   0  0  0  0  0  0  0  0  0  0  0  0
   21.8438  -14.1375  -21.4081 O   0  0  0  0  0  0  0  0  0  0  0  0
   22.1624  -11.3203  -18.1966 C   0  0  0  0  0  0  0  0  0  0  0  0
   23.3833  -11.5642  -17.9708 O   0  0  0  0  0  0  0  0  0  0  0  0
   19.7189  -13.4044  -21.6748 O   0  0  0  0  0  0  0  0  0  0  0  0
   21.6797  -10.0727  -17.6524 N   0  0  0  0  0  0  0  0  0  0  0  0
   22.5608   -9.1573  -17.0007 C   0  0  0  0  0  0  0  0  0  0  0  0
   21.9798   -7.8917  -16.5699 C   0  0  0  0  0  0  0  0  0  0  0  0
   20.9081   -7.4767  -17.1283 O   0  0  0  0  0  0  0  0  0  0  0  0
   17.3737   -9.9210  -13.1221 O   0  0  0  0  0  0  0  0  0  0  0  0
   18.3304   -8.9259  -13.3293 C   0  0  0  0  0  0  0  0  0  0  0  0
   18.3479   -8.1705  -14.4927 C   0  0  0  0  0  0  0  0  0  0  0  0
   19.3173   -7.2013  -14.6408 C   0  0  0  0  0  0  0  0  0  0  0  0
   20.2667   -6.9833  -13.6355 C   0  0  0  0  0  0  0  0  0  0  0  0
   21.3129   -5.9599  -13.7798 C   0  0  0  0  0  0  0  0  0  0  0  0
   21.8011   -5.7971  -15.1925 C   0  0  2  0  0  0  0  0  0  0  0  0
   22.4987   -7.0441  -15.5604 N   0  0  0  0  0  0  0  0  0  0  0  0
   22.7429   -4.6753  -15.3364 C   0  0  0  0  0  0  0  0  0  0  0  0
   22.3340   -3.3698  -15.1148 O   0  0  0  0  0  0  0  0  0  0  0  0
   20.2380   -7.7422  -12.4831 C   0  0  0  0  0  0  0  0  0  0  0  0
   19.2666   -8.7083  -12.3423 C   0  0  0  0  0  0  0  0  0  0  0  0
   23.9417   -4.8612  -15.6627 O   0  0  0  0  0  0  0  0  0  0  0  0
  2  1  1  1
  2  3  1  0
  3  4  1  0
  4  5  2  0
  6  2  1  0
  7  6  2  0
  8  4  1  0
  9  6  1  0
 10 11  1  0
 10  9  1  0
 11 12  2  0
 14 13  1  0
 14 24  2  0
 15 14  1  0
 16 15  2  0
 16 17  1  0
 17 23  2  0
 18 17  1  0
 19 18  1  1
 20 19  1  0
 20 11  1  0
 21 19  1  0
 22 21  1  0
 23 24  1  0
 25 21  2  0
M  END
$$$$
