DGY.pdb
     RDKit          3D

 25 25  0  0  1  0  0  0  0  0999 V2000
   19.1948   -8.9361  -18.6939 N   0  0  0  0  0  0  0  0  0  0  0  0
   19.6484  -10.0690  -17.9088 C   0  0  1  0  0  0  0  0  0  0  0  0
   21.1068  -10.2986  -18.2510 C   0  0  0  0  0  0  0  0  0  0  0  0
   21.2382  -11.0688  -19.5141 C   0  0  0  0  0  0  0  0  0  0  0  0
   20.4997  -12.0539  -19.7573 O   0  0  0  0  0  0  0  0  0  0  0  0
   19.4450   -9.7533  -16.4918 C   0  0  0  0  0  0  0  0  0  0  0  0
   19.7991  -10.5322  -15.5596 O   0  0  0  0  0  0  0  0  0  0  0  0
   22.1850  -10.7161  -20.4601 O   0  0  0  0  0  0  0  0  0  0  0  0
   18.8230   -8.5250  -16.0559 N   0  0  0  0  0  0  0  0  0  0  0  0
   18.6457   -8.2347  -14.6691 C   0  0  0  0  0  0  0  0  0  0  0  0
   19.4901   -7.1850  -14.1121 C   0  0  0  0  0  0  0  0  0  0  0  0
   19.2894   -6.7962  -12.9116 O   0  0  0  0  0  0  0  0  0  0  0  0
   25.2938   -6.9064  -18.9369 O   0  0  0  0  0  0  0  0  0  0  0  0
   24.6760   -6.6511  -17.7116 C   0  0  0  0  0  0  0  0  0  0  0  0
   24.6562   -5.3770  -17.1631 C   0  0  0  0  0  0  0  0  0  0  0  0
   24.0304   -5.1860  -15.9494 C   0  0  0  0  0  0  0  0  0  0  0  0
   23.4259   -6.2581  -15.2827 C   0  0  0  0  0  0  0  0  0  0  0  0
   22.7613   -6.0747  -13.9837 C   0  0  0  0  0  0  0  0  0  0  0  0
   21.3696   -5.5167  -14.0961 C   0  0  2  0  0  0  0  0  0  0  0  0
   20.5478   -6.5281  -14.7878 N   0  0  0  0  0  0  0  0  0  0  0  0
   21.3255   -4.2679  -14.8737 C   0  0  0  0  0  0  0  0  0  0  0  0
   21.8846   -3.1006  -14.3780 O   0  0  0  0  0  0  0  0  0  0  0  0
   23.4531   -7.5206  -15.8395 C   0  0  0  0  0  0  0  0  0  0  0  0
   24.0799   -7.7036  -17.0521 C   0  0  0  0  0  0  0  0  0  0  0  0
   20.7832   -4.2171  -16.0057 O   0  0  0  0  0  0  0  0  0  0  0  0
  2  1  1  6
  2  3  1  0
  3  4  1  0
  4  5  2  0
  6  2  1  0
  7  6  2  0
  8  4  1  0
  9  6  1  0
 10 11  1  0
 10  9  1  0
 11 12  2  0
 14 13  1  0
 14 24  2  0
 15 14  1  0
 16 15  2  0
 16 17  1  0
 17 23  2  0
 18 17  1  0
 19 18  1  6
 20 19  1  0
 20 11  1  0
 21 19  1  0
 22 21  1  0
 23 24  1  0
 25 21  2  0
M  END
$$$$
