QYD.pdb
     RDKit          3D

 30 30  0  0  1  0  0  0  0  0999 V2000
    7.7181  -19.4638   18.6288 N   0  0  0  0  0  0  0  0  0  0  0  0
    7.1876  -18.4039   17.8177 C   0  0  0  0  0  0  0  0  0  0  0  0
    5.9703  -18.4434   17.5830 O   0  0  0  0  0  0  0  0  0  0  0  0
    8.1521  -17.3901   17.3582 C   0  0  0  0  0  0  0  0  0  0  0  0
    8.8535  -16.6436   18.4573 C   0  0  0  0  0  0  0  0  0  0  0  0
    8.0369  -15.4416   18.8455 C   0  0  2  0  0  0  0  0  0  0  0  0
    8.3326  -14.3635   17.9152 N   0  0  0  0  0  0  0  0  0  0  0  0
    8.3121  -14.9700   20.2074 C   0  0  0  0  0  0  0  0  0  0  0  0
    9.4933  -14.6915   20.5277 O   0  0  0  0  0  0  0  0  0  0  0  0
    8.1878  -12.7877   28.6220 O   0  0  0  0  0  0  0  0  0  0  0  0
    7.7812  -13.0332   27.3087 C   0  0  0  0  0  0  0  0  0  0  0  0
    8.0595  -12.1320   26.3021 C   0  0  0  0  0  0  0  0  0  0  0  0
    7.6510  -12.3883   25.0084 C   0  0  0  0  0  0  0  0  0  0  0  0
    6.9620  -13.5392   24.6925 C   0  0  0  0  0  0  0  0  0  0  0  0
    6.5042  -13.8559   23.3168 C   0  0  0  0  0  0  0  0  0  0  0  0
    7.6535  -14.4545   22.5359 C   0  0  2  0  0  0  0  0  0  0  0  0
    7.2977  -14.8082   21.2018 N   0  0  0  0  0  0  0  0  0  0  0  0
    8.1535  -15.6166   23.3247 C   0  0  0  0  0  0  0  0  0  0  0  0
    7.5246  -16.7015   23.4111 O   0  0  0  0  0  0  0  0  0  0  0  0
    6.6829  -14.4403   25.6948 C   0  0  0  0  0  0  0  0  0  0  0  0
    7.0917  -14.1842   26.9914 C   0  0  0  0  0  0  0  0  0  0  0  0
    9.3838  -15.5130   24.0110 N   0  0  0  0  0  0  0  0  0  0  0  0
   10.0653  -16.6819   24.5727 C   0  0  1  0  0  0  0  0  0  0  0  0
   11.5244  -16.6582   24.2857 C   0  0  0  0  0  0  0  0  0  0  0  0
   12.1830  -17.8965   24.7503 C   0  0  0  0  0  0  0  0  0  0  0  0
   11.4988  -18.9556   24.9951 O   0  0  0  0  0  0  0  0  0  0  0  0
    9.8682  -16.6819   26.0602 C   0  0  0  0  0  0  0  0  0  0  0  0
    9.6664  -17.7772   26.8416 O   0  0  0  0  0  0  0  0  0  0  0  0
   13.5398  -18.0251   24.9596 O   0  0  0  0  0  0  0  0  0  0  0  0
    9.8884  -15.5581   26.6669 O   0  0  0  0  0  0  0  0  0  0  0  0
  1  2  1  0
  2  3  2  0
  4  5  1  0
  4  2  1  0
  6  7  1  6
  6  5  1  0
  8  6  1  0
  9  8  2  0
 10 11  1  0
 11 12  2  0
 11 21  1  0
 12 13  1  0
 13 14  2  0
 14 15  1  0
 16 15  1  1
 16 17  1  0
 17  8  1  0
 18 22  1  0
 18 16  1  0
 19 18  2  0
 20 14  1  0
 21 20  2  0
 23 27  1  0
 23 22  1  0
 23 24  1  1
 25 24  1  0
 25 26  2  0
 27 28  1  0
 29 25  1  0
 30 27  2  0
M  END
$$$$
