QYD.pdb
     RDKit          3D

 30 30  0  0  1  0  0  0  0  0999 V2000
    6.6334  -13.6783   15.5597 N   0  0  0  0  0  0  0  0  0  0  0  0
    7.7845  -14.5369   15.5322 C   0  0  0  0  0  0  0  0  0  0  0  0
    7.6921  -15.5637   14.8427 O   0  0  0  0  0  0  0  0  0  0  0  0
    8.9440  -14.0975   16.3269 C   0  0  0  0  0  0  0  0  0  0  0  0
    8.6477  -13.8180   17.7730 C   0  0  0  0  0  0  0  0  0  0  0  0
    8.8359  -15.0770   18.5742 C   0  0  2  0  0  0  0  0  0  0  0  0
    7.7115  -15.9617   18.3135 N   0  0  0  0  0  0  0  0  0  0  0  0
    8.9142  -14.8371   20.0197 C   0  0  0  0  0  0  0  0  0  0  0  0
   10.0224  -14.5384   20.5276 O   0  0  0  0  0  0  0  0  0  0  0  0
    7.6639  -12.7966   28.3180 O   0  0  0  0  0  0  0  0  0  0  0  0
    7.4041  -13.2197   27.0127 C   0  0  0  0  0  0  0  0  0  0  0  0
    7.0924  -14.5366   26.7451 C   0  0  0  0  0  0  0  0  0  0  0  0
    6.8380  -14.9402   25.4495 C   0  0  0  0  0  0  0  0  0  0  0  0
    6.8883  -14.0474   24.4011 C   0  0  0  0  0  0  0  0  0  0  0  0
    6.6220  -14.4364   22.9940 C   0  0  0  0  0  0  0  0  0  0  0  0
    7.9378  -14.6781   22.2874 C   0  0  2  0  0  0  0  0  0  0  0  0
    7.7850  -14.9256   20.8921 N   0  0  0  0  0  0  0  0  0  0  0  0
    8.6114  -15.8011   23.0000 C   0  0  0  0  0  0  0  0  0  0  0  0
    8.1133  -16.9524   23.0801 O   0  0  0  0  0  0  0  0  0  0  0  0
    7.1991  -12.7327   24.6651 C   0  0  0  0  0  0  0  0  0  0  0  0
    7.4542  -12.3273   25.9629 C   0  0  0  0  0  0  0  0  0  0  0  0
    9.8627  -15.5814   23.6176 N   0  0  0  0  0  0  0  0  0  0  0  0
   10.6229  -16.6633   24.2483 C   0  0  1  0  0  0  0  0  0  0  0  0
   12.0824  -16.3775   24.2566 C   0  0  0  0  0  0  0  0  0  0  0  0
   12.8374  -17.4595   24.9215 C   0  0  0  0  0  0  0  0  0  0  0  0
   12.7326  -17.6559   26.1866 O   0  0  0  0  0  0  0  0  0  0  0  0
   10.1547  -16.8140   25.6659 C   0  0  0  0  0  0  0  0  0  0  0  0
    9.4629  -15.8883   26.3837 O   0  0  0  0  0  0  0  0  0  0  0  0
   13.6939  -18.3235   24.2727 O   0  0  0  0  0  0  0  0  0  0  0  0
   10.4213  -17.9064   26.2716 O   0  0  0  0  0  0  0  0  0  0  0  0
  1  2  1  0
  2  3  2  0
  4  5  1  0
  4  2  1  0
  6  7  1  1
  6  5  1  0
  8  6  1  0
  9  8  2  0
 10 11  1  0
 11 12  2  0
 11 21  1  0
 12 13  1  0
 13 14  2  0
 14 15  1  0
 16 15  1  1
 16 17  1  0
 17  8  1  0
 18 22  1  0
 18 16  1  0
 19 18  2  0
 20 14  1  0
 21 20  2  0
 23 27  1  0
 23 22  1  0
 23 24  1  1
 25 24  1  0
 25 26  2  0
 27 28  1  0
 29 25  1  0
 30 27  2  0
M  END
$$$$
