QYD.pdb
     RDKit          3D

 30 30  0  0  1  0  0  0  0  0999 V2000
    8.6773  -12.7341   15.7373 N   0  0  0  0  0  0  0  0  0  0  0  0
    7.8995  -13.9206   15.5138 C   0  0  0  0  0  0  0  0  0  0  0  0
    7.6627  -14.2121   14.3317 O   0  0  0  0  0  0  0  0  0  0  0  0
    7.4730  -14.6559   16.7165 C   0  0  0  0  0  0  0  0  0  0  0  0
    7.9972  -14.1040   18.0118 C   0  0  0  0  0  0  0  0  0  0  0  0
    8.5466  -15.2272   18.8478 C   0  0  2  0  0  0  0  0  0  0  0  0
    7.6313  -16.3543   18.7643 N   0  0  0  0  0  0  0  0  0  0  0  0
    8.7157  -14.8683   20.2605 C   0  0  0  0  0  0  0  0  0  0  0  0
    9.8158  -14.3996   20.6416 O   0  0  0  0  0  0  0  0  0  0  0  0
    8.0065  -12.9588   28.6934 O   0  0  0  0  0  0  0  0  0  0  0  0
    7.6957  -13.2266   27.3585 C   0  0  0  0  0  0  0  0  0  0  0  0
    8.0090  -12.3229   26.3645 C   0  0  0  0  0  0  0  0  0  0  0  0
    7.6955  -12.6015   25.0491 C   0  0  0  0  0  0  0  0  0  0  0  0
    7.0682  -13.7774   24.6987 C   0  0  0  0  0  0  0  0  0  0  0  0
    6.7130  -14.1185   23.2988 C   0  0  0  0  0  0  0  0  0  0  0  0
    7.9314  -14.6800   22.5995 C   0  0  2  0  0  0  0  0  0  0  0  0
    7.6847  -15.0247   21.2386 N   0  0  0  0  0  0  0  0  0  0  0  0
    8.3992  -15.8403   23.4105 C   0  0  0  0  0  0  0  0  0  0  0  0
    7.7932  -16.9413   23.4357 O   0  0  0  0  0  0  0  0  0  0  0  0
    6.7544  -14.6810   25.6884 C   0  0  0  0  0  0  0  0  0  0  0  0
    7.0681  -14.4027   27.0067 C   0  0  0  0  0  0  0  0  0  0  0  0
    9.5706  -15.7162   24.1901 N   0  0  0  0  0  0  0  0  0  0  0  0
   10.2366  -16.8756   24.7888 C   0  0  1  0  0  0  0  0  0  0  0  0
   11.6628  -16.9639   24.3767 C   0  0  0  0  0  0  0  0  0  0  0  0
   12.3281  -18.1308   24.9922 C   0  0  0  0  0  0  0  0  0  0  0  0
   11.6496  -19.1547   25.3678 O   0  0  0  0  0  0  0  0  0  0  0  0
   10.1752  -16.7444   26.2823 C   0  0  0  0  0  0  0  0  0  0  0  0
   10.1814  -17.7688   27.1775 O   0  0  0  0  0  0  0  0  0  0  0  0
   13.6855  -18.2249   25.2152 O   0  0  0  0  0  0  0  0  0  0  0  0
   10.1105  -15.5690   26.7779 O   0  0  0  0  0  0  0  0  0  0  0  0
  1  2  1  0
  2  3  2  0
  4  5  1  0
  4  2  1  0
  6  7  1  1
  6  5  1  0
  8  6  1  0
  9  8  2  0
 10 11  1  0
 11 12  2  0
 11 21  1  0
 12 13  1  0
 13 14  2  0
 14 15  1  0
 16 15  1  1
 16 17  1  0
 17  8  1  0
 18 22  1  0
 18 16  1  0
 19 18  2  0
 20 14  1  0
 21 20  2  0
 23 27  1  0
 23 22  1  0
 23 24  1  6
 25 24  1  0
 25 26  2  0
 27 28  1  0
 29 25  1  0
 30 27  2  0
M  END
$$$$
