QYD.pdb
     RDKit          3D

 30 30  0  0  1  0  0  0  0  0999 V2000
    8.0473  -12.0069   18.5935 N   0  0  0  0  0  0  0  0  0  0  0  0
    8.0386  -13.3254   18.0241 C   0  0  0  0  0  0  0  0  0  0  0  0
    7.5272  -13.4388   16.8998 O   0  0  0  0  0  0  0  0  0  0  0  0
    8.6399  -14.3923   18.8422 C   0  0  0  0  0  0  0  0  0  0  0  0
    8.0374  -14.5540   20.2089 C   0  0  0  0  0  0  0  0  0  0  0  0
    8.5443  -15.8260   20.8314 C   0  0  2  0  0  0  0  0  0  0  0  0
    7.5060  -16.8384   20.7215 N   0  0  0  0  0  0  0  0  0  0  0  0
    8.9005  -15.6760   22.2469 C   0  0  0  0  0  0  0  0  0  0  0  0
    9.9381  -15.0376   22.5487 O   0  0  0  0  0  0  0  0  0  0  0  0
    6.5250  -10.2635   26.2652 O   0  0  0  0  0  0  0  0  0  0  0  0
    6.7138  -11.6368   26.0954 C   0  0  0  0  0  0  0  0  0  0  0  0
    5.7513  -12.4124   25.4830 C   0  0  0  0  0  0  0  0  0  0  0  0
    5.9519  -13.7689   25.3221 C   0  0  0  0  0  0  0  0  0  0  0  0
    7.1069  -14.3768   25.7644 C   0  0  0  0  0  0  0  0  0  0  0  0
    7.3650  -15.8302   25.6124 C   0  0  0  0  0  0  0  0  0  0  0  0
    8.5287  -16.0323   24.6668 C   0  0  2  0  0  0  0  0  0  0  0  0
    8.1222  -16.2231   23.3141 N   0  0  0  0  0  0  0  0  0  0  0  0
    9.3218  -17.1785   25.1959 C   0  0  0  0  0  0  0  0  0  0  0  0
    8.9738  -18.3763   25.0401 O   0  0  0  0  0  0  0  0  0  0  0  0
    8.0690  -13.6054   26.3757 C   0  0  0  0  0  0  0  0  0  0  0  0
    7.8689  -12.2461   26.5375 C   0  0  0  0  0  0  0  0  0  0  0  0
   10.5176  -16.9278   25.9049 N   0  0  0  0  0  0  0  0  0  0  0  0
   11.3332  -18.0075   26.4666 C   0  0  1  0  0  0  0  0  0  0  0  0
   12.7796  -17.6616   26.4649 C   0  0  0  0  0  0  0  0  0  0  0  0
   13.3430  -17.7165   25.1002 C   0  0  0  0  0  0  0  0  0  0  0  0
   12.6340  -18.1242   24.1097 O   0  0  0  0  0  0  0  0  0  0  0  0
   10.8985  -18.2488   27.8823 C   0  0  0  0  0  0  0  0  0  0  0  0
   11.3086  -19.2691   28.6833 O   0  0  0  0  0  0  0  0  0  0  0  0
   14.6327  -17.3527   24.7752 O   0  0  0  0  0  0  0  0  0  0  0  0
   10.0661  -17.4306   28.4008 O   0  0  0  0  0  0  0  0  0  0  0  0
  1  2  1  0
  2  3  2  0
  4  5  1  0
  4  2  1  0
  6  7  1  1
  6  5  1  0
  8  6  1  0
  9  8  2  0
 10 11  1  0
 11 12  2  0
 11 21  1  0
 12 13  1  0
 13 14  2  0
 14 15  1  0
 16 15  1  1
 16 17  1  0
 17  8  1  0
 18 22  1  0
 18 16  1  0
 19 18  2  0
 20 14  1  0
 21 20  2  0
 23 27  1  0
 23 22  1  0
 23 24  1  1
 25 24  1  0
 25 26  2  0
 27 28  1  0
 29 25  1  0
 30 27  2  0
M  END
$$$$
