QYD.pdb
     RDKit          3D

 30 30  0  0  1  0  0  0  0  0999 V2000
   12.9746  -16.5872   16.7179 N   0  0  0  0  0  0  0  0  0  0  0  0
   11.8111  -17.3221   16.3067 C   0  0  0  0  0  0  0  0  0  0  0  0
   11.9137  -17.9795   15.2600 O   0  0  0  0  0  0  0  0  0  0  0  0
   10.6288  -17.2106   17.1777 C   0  0  0  0  0  0  0  0  0  0  0  0
   10.8515  -16.4386   18.4472 C   0  0  0  0  0  0  0  0  0  0  0  0
   10.2138  -17.1708   19.5960 C   0  0  2  0  0  0  0  0  0  0  0  0
    8.9347  -17.7013   19.1512 N   0  0  0  0  0  0  0  0  0  0  0  0
    9.9824  -16.3192   20.7683 C   0  0  0  0  0  0  0  0  0  0  0  0
   10.9638  -15.7659   21.3215 O   0  0  0  0  0  0  0  0  0  0  0  0
    7.1351  -12.0128   27.7102 O   0  0  0  0  0  0  0  0  0  0  0  0
    7.1388  -12.7093   26.4997 C   0  0  0  0  0  0  0  0  0  0  0  0
    6.5327  -13.9438   26.3924 C   0  0  0  0  0  0  0  0  0  0  0  0
    6.5443  -14.6205   25.1890 C   0  0  0  0  0  0  0  0  0  0  0  0
    7.1554  -14.0858   24.0756 C   0  0  0  0  0  0  0  0  0  0  0  0
    7.1921  -14.7770   22.7629 C   0  0  0  0  0  0  0  0  0  0  0  0
    8.5538  -15.4077   22.5710 C   0  0  2  0  0  0  0  0  0  0  0  0
    8.6858  -16.0818   21.3221 N   0  0  0  0  0  0  0  0  0  0  0  0
    8.7814  -16.3083   23.7371 C   0  0  0  0  0  0  0  0  0  0  0  0
    8.0704  -17.3196   23.9648 O   0  0  0  0  0  0  0  0  0  0  0  0
    7.7610  -12.8542   24.1797 C   0  0  0  0  0  0  0  0  0  0  0  0
    7.7498  -12.1754   25.3850 C   0  0  0  0  0  0  0  0  0  0  0  0
    9.8356  -16.0297   24.6351 N   0  0  0  0  0  0  0  0  0  0  0  0
   10.1426  -16.9000   25.7730 C   0  0  1  0  0  0  0  0  0  0  0  0
   11.5942  -17.2143   25.8488 C   0  0  0  0  0  0  0  0  0  0  0  0
   12.0344  -18.0033   24.6798 C   0  0  0  0  0  0  0  0  0  0  0  0
   11.3746  -19.0359   24.2946 O   0  0  0  0  0  0  0  0  0  0  0  0
    9.7362  -16.1983   27.0355 C   0  0  0  0  0  0  0  0  0  0  0  0
    9.6211  -16.7664   28.2663 O   0  0  0  0  0  0  0  0  0  0  0  0
   13.1523  -17.7184   23.9246 O   0  0  0  0  0  0  0  0  0  0  0  0
    9.4696  -14.9510   26.9680 O   0  0  0  0  0  0  0  0  0  0  0  0
  1  2  1  0
  2  3  2  0
  4  5  1  0
  4  2  1  0
  6  7  1  6
  6  5  1  0
  8  6  1  0
  9  8  2  0
 10 11  1  0
 11 12  2  0
 11 21  1  0
 12 13  1  0
 13 14  2  0
 14 15  1  0
 16 15  1  1
 16 17  1  0
 17  8  1  0
 18 22  1  0
 18 16  1  0
 19 18  2  0
 20 14  1  0
 21 20  2  0
 23 27  1  0
 23 22  1  0
 23 24  1  1
 25 24  1  0
 25 26  2  0
 27 28  1  0
 29 25  1  0
 30 27  2  0
M  END
$$$$
