QYD.pdb
     RDKit          3D

 30 30  0  0  1  0  0  0  0  0999 V2000
    7.0436  -16.8341   17.6190 N   0  0  0  0  0  0  0  0  0  0  0  0
    7.8973  -15.7836   17.1389 C   0  0  0  0  0  0  0  0  0  0  0  0
    8.3909  -15.9436   16.0124 O   0  0  0  0  0  0  0  0  0  0  0  0
    8.0875  -14.6352   18.0412 C   0  0  0  0  0  0  0  0  0  0  0  0
    7.2070  -14.6374   19.2585 C   0  0  0  0  0  0  0  0  0  0  0  0
    7.4987  -13.4174   20.0886 C   0  0  2  0  0  0  0  0  0  0  0  0
    8.3510  -12.5275   19.3163 N   0  0  0  0  0  0  0  0  0  0  0  0
    8.1736  -13.7263   21.3544 C   0  0  0  0  0  0  0  0  0  0  0  0
    9.4152  -13.9093   21.3529 O   0  0  0  0  0  0  0  0  0  0  0  0
   10.6585  -14.9645   29.5741 O   0  0  0  0  0  0  0  0  0  0  0  0
    9.8527  -14.7277   28.4583 C   0  0  0  0  0  0  0  0  0  0  0  0
    9.2160  -15.7671   27.8124 C   0  0  0  0  0  0  0  0  0  0  0  0
    8.4224  -15.5175   26.7106 C   0  0  0  0  0  0  0  0  0  0  0  0
    8.2476  -14.2369   26.2324 C   0  0  0  0  0  0  0  0  0  0  0  0
    7.4043  -13.9222   25.0526 C   0  0  0  0  0  0  0  0  0  0  0  0
    8.2083  -14.1508   23.7916 C   0  0  2  0  0  0  0  0  0  0  0  0
    7.4873  -13.8316   22.6042 N   0  0  0  0  0  0  0  0  0  0  0  0
    8.6665  -15.5692   23.8220 C   0  0  0  0  0  0  0  0  0  0  0  0
    7.9882  -16.5138   23.3450 O   0  0  0  0  0  0  0  0  0  0  0  0
    8.8816  -13.1978   26.8749 C   0  0  0  0  0  0  0  0  0  0  0  0
    9.6770  -13.4469   27.9790 C   0  0  0  0  0  0  0  0  0  0  0  0
    9.9127  -15.8846   24.4076 N   0  0  0  0  0  0  0  0  0  0  0  0
   10.6672  -17.0850   24.0388 C   0  0  1  0  0  0  0  0  0  0  0  0
   11.1929  -16.9991   22.6503 C   0  0  0  0  0  0  0  0  0  0  0  0
   12.0020  -18.1871   22.3082 C   0  0  0  0  0  0  0  0  0  0  0  0
   12.1560  -19.1449   23.1500 O   0  0  0  0  0  0  0  0  0  0  0  0
   11.8246  -17.2315   24.9825 C   0  0  0  0  0  0  0  0  0  0  0  0
   12.4977  -18.3827   25.2521 O   0  0  0  0  0  0  0  0  0  0  0  0
   12.6448  -18.3701   21.1021 O   0  0  0  0  0  0  0  0  0  0  0  0
   12.2297  -16.1892   25.5996 O   0  0  0  0  0  0  0  0  0  0  0  0
  1  2  1  0
  2  3  2  0
  4  5  1  0
  4  2  1  0
  6  7  1  6
  6  5  1  0
  8  6  1  0
  9  8  2  0
 10 11  1  0
 11 12  2  0
 11 21  1  0
 12 13  1  0
 13 14  2  0
 14 15  1  0
 16 15  1  1
 16 17  1  0
 17  8  1  0
 18 22  1  0
 18 16  1  0
 19 18  2  0
 20 14  1  0
 21 20  2  0
 23 27  1  0
 23 22  1  0
 23 24  1  6
 25 24  1  0
 25 26  2  0
 27 28  1  0
 29 25  1  0
 30 27  2  0
M  END
$$$$
