YFQ.pdb
     RDKit          3D

 33 34  0  0  1  0  0  0  0  0999 V2000
    3.9265  -24.4783   22.5742 O   0  0  0  0  0  0  0  0  0  0  0  0
    4.7170  -23.3795   22.8590 C   0  0  0  0  0  0  0  0  0  0  0  0
    6.0457  -23.5235   23.1236 C   0  0  0  0  0  0  0  0  0  0  0  0
    6.7974  -22.3972   23.4033 C   0  0  0  0  0  0  0  0  0  0  0  0
    6.2263  -21.1403   23.4181 C   0  0  0  0  0  0  0  0  0  0  0  0
    7.0922  -19.9753   23.7263 C   0  0  0  0  0  0  0  0  0  0  0  0
    6.9467  -18.9804   22.5930 C   0  0  2  0  0  0  0  0  0  0  0  0
    7.6148  -19.5264   21.4323 N   0  0  0  0  0  0  0  0  0  0  0  0
    7.6276  -17.7250   23.0438 C   0  0  0  0  0  0  0  0  0  0  0  0
    8.8382  -17.5130   22.8684 O   0  0  0  0  0  0  0  0  0  0  0  0
    4.8807  -21.0133   23.1482 C   0  0  0  0  0  0  0  0  0  0  0  0
    4.1283  -22.1241   22.8700 C   0  0  0  0  0  0  0  0  0  0  0  0
    6.8615  -16.7422   23.6948 N   0  0  0  0  0  0  0  0  0  0  0  0
    7.4737  -15.5856   24.3711 C   0  0  1  0  0  0  0  0  0  0  0  0
    6.3163  -14.6532   24.6473 C   0  0  0  0  0  0  0  0  0  0  0  0
    6.6838  -13.4963   25.4629 C   0  0  0  0  0  0  0  0  0  0  0  0
    7.7569  -12.6681   25.1890 C   0  0  0  0  0  0  0  0  0  0  0  0
    8.0671  -11.5867   25.9762 C   0  0  0  0  0  0  0  0  0  0  0  0
    7.3126  -11.2811   27.0829 C   0  0  0  0  0  0  0  0  0  0  0  0
    6.2371  -12.0882   27.3815 C   0  0  0  0  0  0  0  0  0  0  0  0
    5.9326  -13.1660   26.5918 C   0  0  0  0  0  0  0  0  0  0  0  0
    8.1232  -16.0151   25.6317 C   0  0  0  0  0  0  0  0  0  0  0  0
    7.4424  -16.7557   26.3970 O   0  0  0  0  0  0  0  0  0  0  0  0
   12.2384  -19.7619   26.0308 N   0  0  0  0  0  0  0  0  0  0  0  0
   12.5389  -18.4786   25.5231 C   0  0  0  0  0  0  0  0  0  0  0  0
   13.4508  -18.3415   24.6298 O   0  0  0  0  0  0  0  0  0  0  0  0
   11.8537  -17.2436   25.9544 C   0  0  0  0  0  0  0  0  0  0  0  0
   10.7714  -17.3966   26.9405 C   0  0  0  0  0  0  0  0  0  0  0  0
    9.9854  -16.1699   27.2931 C   0  0  2  0  0  0  0  0  0  0  0  0
    9.4182  -15.6562   26.0161 N   0  0  0  0  0  0  0  0  0  0  0  0
   10.6457  -15.1294   28.0317 C   0  0  0  0  0  0  0  0  0  0  0  0
   11.1329  -15.3475   29.3272 O   0  0  0  0  0  0  0  0  0  0  0  0
   10.8197  -13.9845   27.5632 O   0  0  0  0  0  0  0  0  0  0  0  0
  2  1  1  0
  3  2  2  0
  4  3  1  0
  5  4  2  0
  5 11  1  0
  6  7  1  0
  6  5  1  0
  7  8  1  6
  9  7  1  0
  9 13  1  0
 10  9  2  0
 11 12  2  0
 12  2  1  0
 13 14  1  0
 15 16  1  0
 14 15  1  1
 16 17  2  0
 17 18  1  0
 19 18  2  0
 20 21  2  0
 20 19  1  0
 21 16  1  0
 22 23  2  0
 22 14  1  0
 24 25  1  0
 25 27  1  0
 26 25  2  0
 27 28  1  0
 29 28  1  6
 29 30  1  0
 29 31  1  0
 30 22  1  0
 31 32  1  0
 33 31  2  0
M  END
$$$$
