YFQ.pdb
     RDKit          3D

 33 34  0  0  1  0  0  0  0  0999 V2000
    7.9836  -14.0870   14.5761 O   0  0  0  0  0  0  0  0  0  0  0  0
    8.0249  -13.8887   15.9444 C   0  0  0  0  0  0  0  0  0  0  0  0
    9.2144  -13.7818   16.6001 C   0  0  0  0  0  0  0  0  0  0  0  0
    9.2077  -13.5840   17.9686 C   0  0  0  0  0  0  0  0  0  0  0  0
    8.0241  -13.4941   18.6736 C   0  0  0  0  0  0  0  0  0  0  0  0
    8.0910  -13.2815   20.1407 C   0  0  0  0  0  0  0  0  0  0  0  0
    8.7791  -14.4861   20.7499 C   0  0  2  0  0  0  0  0  0  0  0  0
    8.0257  -15.6639   20.3802 N   0  0  0  0  0  0  0  0  0  0  0  0
    8.7413  -14.2877   22.2339 C   0  0  0  0  0  0  0  0  0  0  0  0
    8.5764  -13.1768   22.7627 O   0  0  0  0  0  0  0  0  0  0  0  0
    6.8301  -13.6045   17.9940 C   0  0  0  0  0  0  0  0  0  0  0  0
    6.8275  -13.8006   16.6380 C   0  0  0  0  0  0  0  0  0  0  0  0
    8.8995  -15.4101   23.0656 N   0  0  0  0  0  0  0  0  0  0  0  0
    8.7913  -15.3257   24.5322 C   0  0  1  0  0  0  0  0  0  0  0  0
    7.3605  -14.9065   24.7821 C   0  0  0  0  0  0  0  0  0  0  0  0
    7.2429  -13.6951   25.5927 C   0  0  0  0  0  0  0  0  0  0  0  0
    7.8969  -12.5099   25.3095 C   0  0  0  0  0  0  0  0  0  0  0  0
    7.7566  -11.3907   26.0923 C   0  0  0  0  0  0  0  0  0  0  0  0
    6.9494  -11.4049   27.2040 C   0  0  0  0  0  0  0  0  0  0  0  0
    6.2849  -12.5716   27.5119 C   0  0  0  0  0  0  0  0  0  0  0  0
    6.4290  -13.6852   26.7265 C   0  0  0  0  0  0  0  0  0  0  0  0
    9.0729  -16.6462   25.1427 C   0  0  0  0  0  0  0  0  0  0  0  0
    8.3780  -17.6198   24.7342 O   0  0  0  0  0  0  0  0  0  0  0  0
   12.4219  -19.8326   23.1786 N   0  0  0  0  0  0  0  0  0  0  0  0
   12.8976  -20.2623   24.4371 C   0  0  0  0  0  0  0  0  0  0  0  0
   13.5454  -21.3667   24.5331 O   0  0  0  0  0  0  0  0  0  0  0  0
   12.7034  -19.5060   25.6905 C   0  0  0  0  0  0  0  0  0  0  0  0
   11.9118  -18.2681   25.6011 C   0  0  0  0  0  0  0  0  0  0  0  0
   10.5969  -18.2406   26.3204 C   0  0  2  0  0  0  0  0  0  0  0  0
   10.0421  -16.8732   26.1238 N   0  0  0  0  0  0  0  0  0  0  0  0
   10.5720  -18.6244   27.7047 C   0  0  0  0  0  0  0  0  0  0  0  0
   10.8959  -17.7168   28.7219 O   0  0  0  0  0  0  0  0  0  0  0  0
   10.2631  -19.7775   28.0730 O   0  0  0  0  0  0  0  0  0  0  0  0
  2  1  1  0
  3  2  2  0
  4  3  1  0
  5  4  2  0
  5 11  1  0
  6  7  1  0
  6  5  1  0
  7  8  1  1
  9  7  1  0
  9 13  1  0
 10  9  2  0
 11 12  2  0
 12  2  1  0
 13 14  1  0
 15 16  1  0
 14 15  1  6
 16 17  2  0
 17 18  1  0
 19 18  2  0
 20 21  2  0
 20 19  1  0
 21 16  1  0
 22 23  2  0
 22 14  1  0
 24 25  1  0
 25 27  1  0
 26 25  2  0
 27 28  1  0
 29 28  1  1
 29 30  1  0
 29 31  1  0
 30 22  1  0
 31 32  1  0
 33 31  2  0
M  END
$$$$
