YFQ.pdb
     RDKit          3D

 33 34  0  0  1  0  0  0  0  0999 V2000
    8.0863  -21.5792   16.2507 O   0  0  0  0  0  0  0  0  0  0  0  0
    8.4121  -20.8421   17.3749 C   0  0  0  0  0  0  0  0  0  0  0  0
    7.4484  -20.4345   18.2475 C   0  0  0  0  0  0  0  0  0  0  0  0
    7.8201  -19.6995   19.3582 C   0  0  0  0  0  0  0  0  0  0  0  0
    9.1414  -19.3757   19.5935 C   0  0  0  0  0  0  0  0  0  0  0  0
    9.4689  -18.5841   20.8052 C   0  0  0  0  0  0  0  0  0  0  0  0
    9.3201  -17.1183   20.4521 C   0  0  2  0  0  0  0  0  0  0  0  0
   10.3291  -16.7922   19.4687 N   0  0  0  0  0  0  0  0  0  0  0  0
    9.5590  -16.3533   21.7173 C   0  0  0  0  0  0  0  0  0  0  0  0
   10.6816  -16.2369   22.2343 O   0  0  0  0  0  0  0  0  0  0  0  0
   10.1030  -19.7963   18.7002 C   0  0  0  0  0  0  0  0  0  0  0  0
    9.7435  -20.5251   17.5970 C   0  0  0  0  0  0  0  0  0  0  0  0
    8.4627  -15.7391   22.3478 N   0  0  0  0  0  0  0  0  0  0  0  0
    8.6026  -14.9625   23.5916 C   0  0  1  0  0  0  0  0  0  0  0  0
    7.4453  -13.9903   23.5623 C   0  0  0  0  0  0  0  0  0  0  0  0
    7.3310  -13.1858   24.7781 C   0  0  0  0  0  0  0  0  0  0  0  0
    6.4576  -13.4692   25.8123 C   0  0  0  0  0  0  0  0  0  0  0  0
    6.3833  -12.6923   26.9419 C   0  0  0  0  0  0  0  0  0  0  0  0
    7.1853  -11.5868   27.0910 C   0  0  0  0  0  0  0  0  0  0  0  0
    8.0656  -11.2789   26.0772 C   0  0  0  0  0  0  0  0  0  0  0  0
    8.1351  -12.0584   24.9523 C   0  0  0  0  0  0  0  0  0  0  0  0
    8.5138  -15.8597   24.7675 C   0  0  0  0  0  0  0  0  0  0  0  0
    7.7260  -16.8436   24.6722 O   0  0  0  0  0  0  0  0  0  0  0  0
   11.5643  -19.7845   23.5427 N   0  0  0  0  0  0  0  0  0  0  0  0
   11.5035  -19.7797   24.9538 C   0  0  0  0  0  0  0  0  0  0  0  0
   11.3074  -20.8778   25.5894 O   0  0  0  0  0  0  0  0  0  0  0  0
   11.6605  -18.5648   25.7784 C   0  0  0  0  0  0  0  0  0  0  0  0
   10.7988  -17.4197   25.4414 C   0  0  0  0  0  0  0  0  0  0  0  0
    9.9773  -16.8297   26.5477 C   0  0  2  0  0  0  0  0  0  0  0  0
    9.2353  -15.6849   25.9517 N   0  0  0  0  0  0  0  0  0  0  0  0
   10.6458  -16.4489   27.7610 C   0  0  0  0  0  0  0  0  0  0  0  0
   10.6553  -17.2854   28.8851 O   0  0  0  0  0  0  0  0  0  0  0  0
   11.2492  -15.3613   27.8786 O   0  0  0  0  0  0  0  0  0  0  0  0
  2  1  1  0
  3  2  2  0
  4  3  1  0
  5  4  2  0
  5 11  1  0
  6  7  1  0
  6  5  1  0
  7  8  1  6
  9  7  1  0
  9 13  1  0
 10  9  2  0
 11 12  2  0
 12  2  1  0
 13 14  1  0
 15 16  1  0
 14 15  1  1
 16 17  2  0
 17 18  1  0
 19 18  2  0
 20 21  2  0
 20 19  1  0
 21 16  1  0
 22 23  2  0
 22 14  1  0
 24 25  1  0
 25 27  1  0
 26 25  2  0
 27 28  1  0
 29 28  1  6
 29 30  1  0
 29 31  1  0
 30 22  1  0
 31 32  1  0
 33 31  2  0
M  END
$$$$
