YFQ.pdb
     RDKit          3D

 33 34  0  0  1  0  0  0  0  0999 V2000
    5.8820  -19.2240   15.9968 O   0  0  0  0  0  0  0  0  0  0  0  0
    6.6550  -18.8812   17.0914 C   0  0  0  0  0  0  0  0  0  0  0  0
    6.0824  -18.3887   18.2254 C   0  0  0  0  0  0  0  0  0  0  0  0
    6.8942  -18.0594   19.2952 C   0  0  0  0  0  0  0  0  0  0  0  0
    8.2638  -18.2207   19.2315 C   0  0  0  0  0  0  0  0  0  0  0  0
    9.0744  -17.8465   20.4168 C   0  0  0  0  0  0  0  0  0  0  0  0
    9.1982  -16.3366   20.4325 C   0  0  2  0  0  0  0  0  0  0  0  0
   10.0697  -15.9497   19.3452 N   0  0  0  0  0  0  0  0  0  0  0  0
    9.8160  -15.9775   21.7486 C   0  0  0  0  0  0  0  0  0  0  0  0
   11.0425  -15.9732   21.9401 O   0  0  0  0  0  0  0  0  0  0  0  0
    8.8260  -18.7201   18.0764 C   0  0  0  0  0  0  0  0  0  0  0  0
    8.0291  -19.0491   17.0115 C   0  0  0  0  0  0  0  0  0  0  0  0
    8.9689  -15.6297   22.8154 N   0  0  0  0  0  0  0  0  0  0  0  0
    9.4855  -15.2752   24.1486 C   0  0  1  0  0  0  0  0  0  0  0  0
    8.3153  -14.6186   24.8450 C   0  0  0  0  0  0  0  0  0  0  0  0
    8.5953  -14.2536   26.2331 C   0  0  0  0  0  0  0  0  0  0  0  0
    8.2393  -15.0283   27.3220 C   0  0  0  0  0  0  0  0  0  0  0  0
    8.5250  -14.6542   28.6118 C   0  0  0  0  0  0  0  0  0  0  0  0
    9.1852  -13.4783   28.8748 C   0  0  0  0  0  0  0  0  0  0  0  0
    9.5525  -12.6852   27.8102 C   0  0  0  0  0  0  0  0  0  0  0  0
    9.2646  -13.0643   26.5251 C   0  0  0  0  0  0  0  0  0  0  0  0
    9.9178  -16.4948   24.8705 C   0  0  0  0  0  0  0  0  0  0  0  0
    9.0445  -17.3925   25.0413 O   0  0  0  0  0  0  0  0  0  0  0  0
   14.0034  -20.4902   23.9273 N   0  0  0  0  0  0  0  0  0  0  0  0
   13.7798  -19.1856   23.4344 C   0  0  0  0  0  0  0  0  0  0  0  0
   14.0498  -18.9094   22.2100 O   0  0  0  0  0  0  0  0  0  0  0  0
   13.2344  -18.0819   24.2498 C   0  0  0  0  0  0  0  0  0  0  0  0
   12.8697  -18.4026   25.6395 C   0  0  0  0  0  0  0  0  0  0  0  0
   11.5231  -17.9503   26.1179 C   0  0  2  0  0  0  0  0  0  0  0  0
   11.2084  -16.7060   25.3637 N   0  0  0  0  0  0  0  0  0  0  0  0
   11.3288  -17.7726   27.5303 C   0  0  0  0  0  0  0  0  0  0  0  0
   10.9909  -16.5252   28.0716 O   0  0  0  0  0  0  0  0  0  0  0  0
   11.4493  -18.7121   28.3449 O   0  0  0  0  0  0  0  0  0  0  0  0
  2  1  1  0
  3  2  2  0
  4  3  1  0
  5  4  2  0
  5 11  1  0
  6  7  1  0
  6  5  1  0
  7  8  1  6
  9  7  1  0
  9 13  1  0
 10  9  2  0
 11 12  2  0
 12  2  1  0
 13 14  1  0
 15 16  1  0
 14 15  1  1
 16 17  2  0
 17 18  1  0
 19 18  2  0
 20 21  2  0
 20 19  1  0
 21 16  1  0
 22 23  2  0
 22 14  1  0
 24 25  1  0
 25 27  1  0
 26 25  2  0
 27 28  1  0
 29 28  1  1
 29 30  1  0
 29 31  1  0
 30 22  1  0
 31 32  1  0
 33 31  2  0
M  END
$$$$
