YFQ.pdb
     RDKit          3D

 33 34  0  0  1  0  0  0  0  0999 V2000
    8.6909  -21.3615   16.1555 O   0  0  0  0  0  0  0  0  0  0  0  0
    8.9116  -20.6737   17.3351 C   0  0  0  0  0  0  0  0  0  0  0  0
   10.0491  -20.8724   18.0583 C   0  0  0  0  0  0  0  0  0  0  0  0
   10.2275  -20.1628   19.2315 C   0  0  0  0  0  0  0  0  0  0  0  0
    9.2785  -19.2644   19.6767 C   0  0  0  0  0  0  0  0  0  0  0  0
    9.5350  -18.5374   20.9447 C   0  0  0  0  0  0  0  0  0  0  0  0
    9.6489  -17.0628   20.6156 C   0  0  2  0  0  0  0  0  0  0  0  0
   10.8195  -16.8806   19.7862 N   0  0  0  0  0  0  0  0  0  0  0  0
    9.8198  -16.3510   21.9221 C   0  0  0  0  0  0  0  0  0  0  0  0
   10.8902  -16.3413   22.5508 O   0  0  0  0  0  0  0  0  0  0  0  0
    8.1338  -19.0760   18.9325 C   0  0  0  0  0  0  0  0  0  0  0  0
    7.9489  -19.7749   17.7686 C   0  0  0  0  0  0  0  0  0  0  0  0
    8.7187  -15.6627   22.4609 N   0  0  0  0  0  0  0  0  0  0  0  0
    8.7777  -14.9790   23.7643 C   0  0  1  0  0  0  0  0  0  0  0  0
    7.6085  -14.0210   23.7418 C   0  0  0  0  0  0  0  0  0  0  0  0
    7.4553  -13.2617   24.9822 C   0  0  0  0  0  0  0  0  0  0  0  0
    8.5153  -12.7913   25.7356 C   0  0  0  0  0  0  0  0  0  0  0  0
    8.3310  -12.0763   26.8931 C   0  0  0  0  0  0  0  0  0  0  0  0
    7.0677  -11.7964   27.3550 C   0  0  0  0  0  0  0  0  0  0  0  0
    5.9915  -12.2521   26.6259 C   0  0  0  0  0  0  0  0  0  0  0  0
    6.1822  -12.9651   25.4712 C   0  0  0  0  0  0  0  0  0  0  0  0
    8.6385  -15.9621   24.8642 C   0  0  0  0  0  0  0  0  0  0  0  0
    7.7728  -16.8696   24.7078 O   0  0  0  0  0  0  0  0  0  0  0  0
   12.0872  -19.3060   23.3482 N   0  0  0  0  0  0  0  0  0  0  0  0
   12.0365  -19.8240   24.6612 C   0  0  0  0  0  0  0  0  0  0  0  0
   12.6689  -20.9039   24.9478 O   0  0  0  0  0  0  0  0  0  0  0  0
   11.2899  -19.1896   25.7661 C   0  0  0  0  0  0  0  0  0  0  0  0
   10.6105  -17.9192   25.4627 C   0  0  0  0  0  0  0  0  0  0  0  0
    9.9318  -17.2152   26.5988 C   0  0  2  0  0  0  0  0  0  0  0  0
    9.3933  -15.9446   26.0405 N   0  0  0  0  0  0  0  0  0  0  0  0
   10.6839  -16.9846   27.8010 C   0  0  0  0  0  0  0  0  0  0  0  0
   11.4556  -15.8275   27.9711 O   0  0  0  0  0  0  0  0  0  0  0  0
   10.6904  -17.7956   28.7513 O   0  0  0  0  0  0  0  0  0  0  0  0
  2  1  1  0
  3  2  2  0
  4  3  1  0
  5  4  2  0
  5 11  1  0
  6  7  1  0
  6  5  1  0
  7  8  1  6
  9  7  1  0
  9 13  1  0
 10  9  2  0
 11 12  2  0
 12  2  1  0
 13 14  1  0
 15 16  1  0
 14 15  1  6
 16 17  2  0
 17 18  1  0
 19 18  2  0
 20 21  2  0
 20 19  1  0
 21 16  1  0
 22 23  2  0
 22 14  1  0
 24 25  1  0
 25 27  1  0
 26 25  2  0
 27 28  1  0
 29 28  1  6
 29 30  1  0
 29 31  1  0
 30 22  1  0
 31 32  1  0
 33 31  2  0
M  END
$$$$
