YFQ.pdb
     RDKit          3D

 33 34  0  0  1  0  0  0  0  0999 V2000
    8.4385  -23.1485   19.0549 O   0  0  0  0  0  0  0  0  0  0  0  0
    8.7748  -22.0306   19.7968 C   0  0  0  0  0  0  0  0  0  0  0  0
   10.0752  -21.6479   19.9346 C   0  0  0  0  0  0  0  0  0  0  0  0
   10.3649  -20.5235   20.6855 C   0  0  0  0  0  0  0  0  0  0  0  0
    9.3649  -19.7900   21.2921 C   0  0  0  0  0  0  0  0  0  0  0  0
    9.7477  -18.5945   22.0835 C   0  0  0  0  0  0  0  0  0  0  0  0
    9.2537  -17.3711   21.3386 C   0  0  2  0  0  0  0  0  0  0  0  0
   10.0581  -17.2206   20.1462 N   0  0  0  0  0  0  0  0  0  0  0  0
    9.4600  -16.2063   22.2569 C   0  0  0  0  0  0  0  0  0  0  0  0
   10.5567  -15.6410   22.3948 O   0  0  0  0  0  0  0  0  0  0  0  0
    8.0550  -20.1917   21.1420 C   0  0  0  0  0  0  0  0  0  0  0  0
    7.7589  -21.3046   20.3996 C   0  0  0  0  0  0  0  0  0  0  0  0
    8.3625  -15.7313   22.9962 N   0  0  0  0  0  0  0  0  0  0  0  0
    8.5126  -14.7613   24.0945 C   0  0  1  0  0  0  0  0  0  0  0  0
    7.1486  -14.1223   24.2234 C   0  0  0  0  0  0  0  0  0  0  0  0
    7.0429  -13.2010   25.3541 C   0  0  0  0  0  0  0  0  0  0  0  0
    7.7951  -12.0478   25.4835 C   0  0  0  0  0  0  0  0  0  0  0  0
    7.6631  -11.2039   26.5585 C   0  0  0  0  0  0  0  0  0  0  0  0
    6.7655  -11.4763   27.5622 C   0  0  0  0  0  0  0  0  0  0  0  0
    6.0019  -12.6183   27.4613 C   0  0  0  0  0  0  0  0  0  0  0  0
    6.1384  -13.4565   26.3858 C   0  0  0  0  0  0  0  0  0  0  0  0
    8.8932  -15.4592   25.3449 C   0  0  0  0  0  0  0  0  0  0  0  0
    8.1741  -16.4403   25.6885 O   0  0  0  0  0  0  0  0  0  0  0  0
   13.0442  -16.3352   23.8817 N   0  0  0  0  0  0  0  0  0  0  0  0
   13.0889  -16.9553   25.1498 C   0  0  0  0  0  0  0  0  0  0  0  0
   13.5847  -18.1337   25.2685 O   0  0  0  0  0  0  0  0  0  0  0  0
   12.5967  -16.3239   26.3906 C   0  0  0  0  0  0  0  0  0  0  0  0
   11.3597  -16.8746   26.9683 C   0  0  0  0  0  0  0  0  0  0  0  0
   10.2949  -15.8984   27.3683 C   0  0  2  0  0  0  0  0  0  0  0  0
    9.9787  -15.1031   26.1502 N   0  0  0  0  0  0  0  0  0  0  0  0
   10.5425  -15.0499   28.5010 C   0  0  0  0  0  0  0  0  0  0  0  0
   10.8407  -15.5815   29.7626 O   0  0  0  0  0  0  0  0  0  0  0  0
   10.5057  -13.8035   28.4230 O   0  0  0  0  0  0  0  0  0  0  0  0
  2  1  1  0
  3  2  2  0
  4  3  1  0
  5  4  2  0
  5 11  1  0
  6  7  1  0
  6  5  1  0
  7  8  1  6
  9  7  1  0
  9 13  1  0
 10  9  2  0
 11 12  2  0
 12  2  1  0
 13 14  1  0
 15 16  1  0
 14 15  1  1
 16 17  2  0
 17 18  1  0
 19 18  2  0
 20 21  2  0
 20 19  1  0
 21 16  1  0
 22 23  2  0
 22 14  1  0
 24 25  1  0
 25 27  1  0
 26 25  2  0
 27 28  1  0
 29 28  1  6
 29 30  1  0
 29 31  1  0
 30 22  1  0
 31 32  1  0
 33 31  2  0
M  END
$$$$
