YFQ.pdb
     RDKit          3D

 33 34  0  0  1  0  0  0  0  0999 V2000
    7.5112  -15.7080   13.8476 O   0  0  0  0  0  0  0  0  0  0  0  0
    7.7548  -15.7789   15.2073 C   0  0  0  0  0  0  0  0  0  0  0  0
    7.1959  -16.7616   15.9677 C   0  0  0  0  0  0  0  0  0  0  0  0
    7.4672  -16.7937   17.3231 C   0  0  0  0  0  0  0  0  0  0  0  0
    8.2885  -15.8529   17.9117 C   0  0  0  0  0  0  0  0  0  0  0  0
    8.5363  -15.9472   19.3718 C   0  0  0  0  0  0  0  0  0  0  0  0
    9.3681  -14.7472   19.7765 C   0  0  2  0  0  0  0  0  0  0  0  0
   10.6902  -14.9113   19.2138 N   0  0  0  0  0  0  0  0  0  0  0  0
    9.4326  -14.7639   21.2726 C   0  0  0  0  0  0  0  0  0  0  0  0
   10.3523  -15.3099   21.9028 O   0  0  0  0  0  0  0  0  0  0  0  0
    8.8453  -14.8659   17.1273 C   0  0  0  0  0  0  0  0  0  0  0  0
    8.5818  -14.8266   15.7833 C   0  0  0  0  0  0  0  0  0  0  0  0
    8.4056  -14.1327   21.9961 N   0  0  0  0  0  0  0  0  0  0  0  0
    8.4557  -13.9735   23.4596 C   0  0  1  0  0  0  0  0  0  0  0  0
    7.4213  -12.9129   23.7601 C   0  0  0  0  0  0  0  0  0  0  0  0
    7.2372  -12.6690   25.1901 C   0  0  0  0  0  0  0  0  0  0  0  0
    8.1474  -11.9925   25.9816 C   0  0  0  0  0  0  0  0  0  0  0  0
    7.9362  -11.7781   27.3212 C   0  0  0  0  0  0  0  0  0  0  0  0
    6.7958  -12.2342   27.9367 C   0  0  0  0  0  0  0  0  0  0  0  0
    5.8703  -12.9121   27.1741 C   0  0  0  0  0  0  0  0  0  0  0  0
    6.0870  -13.1227   25.8374 C   0  0  0  0  0  0  0  0  0  0  0  0
    8.1146  -15.2527   24.1253 C   0  0  0  0  0  0  0  0  0  0  0  0
    7.2558  -15.9802   23.5500 O   0  0  0  0  0  0  0  0  0  0  0  0
   10.7754  -18.7870   21.8789 N   0  0  0  0  0  0  0  0  0  0  0  0
   10.6917  -19.5408   23.0703 C   0  0  0  0  0  0  0  0  0  0  0  0
   11.1305  -20.7471   23.0963 O   0  0  0  0  0  0  0  0  0  0  0  0
   10.1235  -19.0234   24.3313 C   0  0  0  0  0  0  0  0  0  0  0  0
    9.6295  -17.6367   24.3153 C   0  0  0  0  0  0  0  0  0  0  0  0
    8.9279  -17.1435   25.5447 C   0  0  2  0  0  0  0  0  0  0  0  0
    8.6754  -15.6925   25.3275 N   0  0  0  0  0  0  0  0  0  0  0  0
    9.5429  -17.3853   26.8204 C   0  0  0  0  0  0  0  0  0  0  0  0
    9.6597  -18.6800   27.3432 O   0  0  0  0  0  0  0  0  0  0  0  0
   10.0028  -16.4627   27.5262 O   0  0  0  0  0  0  0  0  0  0  0  0
  2  1  1  0
  3  2  2  0
  4  3  1  0
  5  4  2  0
  5 11  1  0
  6  7  1  0
  6  5  1  0
  7  8  1  6
  9  7  1  0
  9 13  1  0
 10  9  2  0
 11 12  2  0
 12  2  1  0
 13 14  1  0
 15 16  1  0
 14 15  1  1
 16 17  2  0
 17 18  1  0
 19 18  2  0
 20 21  2  0
 20 19  1  0
 21 16  1  0
 22 23  2  0
 22 14  1  0
 24 25  1  0
 25 27  1  0
 26 25  2  0
 27 28  1  0
 29 28  1  6
 29 30  1  0
 29 31  1  0
 30 22  1  0
 31 32  1  0
 33 31  2  0
M  END
$$$$
