YFQ.pdb
     RDKit          3D

 33 34  0  0  1  0  0  0  0  0999 V2000
   15.4327  -15.7595   16.4973 O   0  0  0  0  0  0  0  0  0  0  0  0
   14.5143  -15.3273   17.4371 C   0  0  0  0  0  0  0  0  0  0  0  0
   14.9214  -14.8718   18.6549 C   0  0  0  0  0  0  0  0  0  0  0  0
   13.9682  -14.4497   19.5633 C   0  0  0  0  0  0  0  0  0  0  0  0
   12.6224  -14.4831   19.2571 C   0  0  0  0  0  0  0  0  0  0  0  0
   11.6542  -14.0152   20.2797 C   0  0  0  0  0  0  0  0  0  0  0  0
   10.3013  -14.6050   19.9372 C   0  0  2  0  0  0  0  0  0  0  0  0
    9.8963  -14.0753   18.6539 N   0  0  0  0  0  0  0  0  0  0  0  0
    9.3595  -14.1505   21.0093 C   0  0  0  0  0  0  0  0  0  0  0  0
    8.6664  -13.1254   20.9093 O   0  0  0  0  0  0  0  0  0  0  0  0
   12.2287  -14.9470   18.0204 C   0  0  0  0  0  0  0  0  0  0  0  0
   13.1665  -15.3671   17.1142 C   0  0  0  0  0  0  0  0  0  0  0  0
    9.2553  -14.9193   22.1818 N   0  0  0  0  0  0  0  0  0  0  0  0
    9.0307  -14.3122   23.5049 C   0  0  1  0  0  0  0  0  0  0  0  0
    7.6743  -13.6543   23.3935 C   0  0  0  0  0  0  0  0  0  0  0  0
    7.2171  -13.0497   24.6441 C   0  0  0  0  0  0  0  0  0  0  0  0
    7.5069  -11.7524   25.0258 C   0  0  0  0  0  0  0  0  0  0  0  0
    7.0542  -11.2179   26.2067 C   0  0  0  0  0  0  0  0  0  0  0  0
    6.2845  -11.9619   27.0678 C   0  0  0  0  0  0  0  0  0  0  0  0
    5.9794  -13.2580   26.7149 C   0  0  0  0  0  0  0  0  0  0  0  0
    6.4342  -13.7856   25.5348 C   0  0  0  0  0  0  0  0  0  0  0  0
    9.0298  -15.3584   24.5542 C   0  0  0  0  0  0  0  0  0  0  0  0
    8.9050  -14.9638   25.7486 O   0  0  0  0  0  0  0  0  0  0  0  0
   13.4980  -18.1023   22.1568 N   0  0  0  0  0  0  0  0  0  0  0  0
   13.7117  -18.2473   23.5454 C   0  0  0  0  0  0  0  0  0  0  0  0
   14.7838  -18.8103   23.9722 O   0  0  0  0  0  0  0  0  0  0  0  0
   12.7640  -17.7775   24.5757 C   0  0  0  0  0  0  0  0  0  0  0  0
   11.4850  -17.2274   24.0975 C   0  0  0  0  0  0  0  0  0  0  0  0
   10.2673  -17.4985   24.9287 C   0  0  2  0  0  0  0  0  0  0  0  0
    9.1564  -16.7279   24.3055 N   0  0  0  0  0  0  0  0  0  0  0  0
   10.3441  -17.2600   26.3434 C   0  0  0  0  0  0  0  0  0  0  0  0
   10.1180  -15.9874   26.8845 O   0  0  0  0  0  0  0  0  0  0  0  0
   10.6139  -18.1659   27.1602 O   0  0  0  0  0  0  0  0  0  0  0  0
  2  1  1  0
  3  2  2  0
  4  3  1  0
  5  4  2  0
  5 11  1  0
  6  7  1  0
  6  5  1  0
  7  8  1  6
  9  7  1  0
  9 13  1  0
 10  9  2  0
 11 12  2  0
 12  2  1  0
 13 14  1  0
 15 16  1  0
 14 15  1  6
 16 17  2  0
 17 18  1  0
 19 18  2  0
 20 21  2  0
 20 19  1  0
 21 16  1  0
 22 23  2  0
 22 14  1  0
 24 25  1  0
 25 27  1  0
 26 25  2  0
 27 28  1  0
 29 28  1  6
 29 30  1  0
 29 31  1  0
 30 22  1  0
 31 32  1  0
 33 31  2  0
M  END
$$$$
