YFQ.pdb
     RDKit          3D

 33 34  0  0  1  0  0  0  0  0999 V2000
   12.7277  -20.5261   15.7550 O   0  0  0  0  0  0  0  0  0  0  0  0
   12.6288  -19.9889   17.0258 C   0  0  0  0  0  0  0  0  0  0  0  0
   11.6955  -20.4451   17.9073 C   0  0  0  0  0  0  0  0  0  0  0  0
   11.6329  -19.8786   19.1671 C   0  0  0  0  0  0  0  0  0  0  0  0
   12.4945  -18.8667   19.5411 C   0  0  0  0  0  0  0  0  0  0  0  0
   12.3711  -18.3043   20.9088 C   0  0  0  0  0  0  0  0  0  0  0  0
   11.0447  -17.5764   20.9898 C   0  0  2  0  0  0  0  0  0  0  0  0
   10.9562  -16.6840   19.8552 N   0  0  0  0  0  0  0  0  0  0  0  0
   11.0699  -16.7947   22.2670 C   0  0  0  0  0  0  0  0  0  0  0  0
   12.1227  -16.4379   22.8197 O   0  0  0  0  0  0  0  0  0  0  0  0
   13.4323  -18.4175   18.6364 C   0  0  0  0  0  0  0  0  0  0  0  0
   13.5014  -18.9733   17.3860 C   0  0  0  0  0  0  0  0  0  0  0  0
    9.8464  -16.4492   22.8671 N   0  0  0  0  0  0  0  0  0  0  0  0
    9.7730  -15.7553   24.1643 C   0  0  1  0  0  0  0  0  0  0  0  0
    8.4229  -15.0753   24.1534 C   0  0  0  0  0  0  0  0  0  0  0  0
    8.1275  -14.3498   25.3882 C   0  0  0  0  0  0  0  0  0  0  0  0
    8.7263  -13.1550   25.7439 C   0  0  0  0  0  0  0  0  0  0  0  0
    8.4181  -12.5000   26.9106 C   0  0  0  0  0  0  0  0  0  0  0  0
    7.4893  -13.0137   27.7830 C   0  0  0  0  0  0  0  0  0  0  0  0
    6.8759  -14.2029   27.4559 C   0  0  0  0  0  0  0  0  0  0  0  0
    7.1878  -14.8517   26.2899 C   0  0  0  0  0  0  0  0  0  0  0  0
    9.8669  -16.7332   25.2735 C   0  0  0  0  0  0  0  0  0  0  0  0
    9.0805  -17.7217   25.2265 O   0  0  0  0  0  0  0  0  0  0  0  0
   14.8958  -19.4357   27.7450 N   0  0  0  0  0  0  0  0  0  0  0  0
   14.0337  -19.7417   26.6690 C   0  0  0  0  0  0  0  0  0  0  0  0
   14.4641  -20.4441   25.6842 O   0  0  0  0  0  0  0  0  0  0  0  0
   12.6254  -19.3038   26.5948 C   0  0  0  0  0  0  0  0  0  0  0  0
   12.2448  -18.1531   27.4304 C   0  0  0  0  0  0  0  0  0  0  0  0
   10.8153  -17.7056   27.3727 C   0  0  2  0  0  0  0  0  0  0  0  0
   10.7561  -16.6285   26.3468 N   0  0  0  0  0  0  0  0  0  0  0  0
   10.1803  -17.3019   28.5967 C   0  0  0  0  0  0  0  0  0  0  0  0
    9.9058  -18.2220   29.6171 O   0  0  0  0  0  0  0  0  0  0  0  0
    9.8417  -16.1194   28.8154 O   0  0  0  0  0  0  0  0  0  0  0  0
  2  1  1  0
  3  2  2  0
  4  3  1  0
  5  4  2  0
  5 11  1  0
  6  7  1  0
  6  5  1  0
  7  8  1  6
  9  7  1  0
  9 13  1  0
 10  9  2  0
 11 12  2  0
 12  2  1  0
 13 14  1  0
 15 16  1  0
 14 15  1  6
 16 17  2  0
 17 18  1  0
 19 18  2  0
 20 21  2  0
 20 19  1  0
 21 16  1  0
 22 23  2  0
 22 14  1  0
 24 25  1  0
 25 27  1  0
 26 25  2  0
 27 28  1  0
 29 28  1  1
 29 30  1  0
 29 31  1  0
 30 22  1  0
 31 32  1  0
 33 31  2  0
M  END
$$$$
