YFQ.pdb
     RDKit          3D

 33 34  0  0  1  0  0  0  0  0999 V2000
    7.8827  -22.5137   17.3862 O   0  0  0  0  0  0  0  0  0  0  0  0
    8.2367  -21.5733   18.3368 C   0  0  0  0  0  0  0  0  0  0  0  0
    9.5352  -21.1913   18.4929 C   0  0  0  0  0  0  0  0  0  0  0  0
    9.8431  -20.2480   19.4559 C   0  0  0  0  0  0  0  0  0  0  0  0
    8.8629  -19.6929   20.2541 C   0  0  0  0  0  0  0  0  0  0  0  0
    9.2644  -18.6862   21.2676 C   0  0  0  0  0  0  0  0  0  0  0  0
    9.1142  -17.3153   20.6403 C   0  0  2  0  0  0  0  0  0  0  0  0
   10.1016  -17.1951   19.5904 N   0  0  0  0  0  0  0  0  0  0  0  0
    9.3859  -16.3218   21.7274 C   0  0  0  0  0  0  0  0  0  0  0  0
   10.5273  -15.9208   22.0061 O   0  0  0  0  0  0  0  0  0  0  0  0
    7.5546  -20.0912   20.0823 C   0  0  0  0  0  0  0  0  0  0  0  0
    7.2406  -21.0253   19.1305 C   0  0  0  0  0  0  0  0  0  0  0  0
    8.2996  -15.8204   22.4658 N   0  0  0  0  0  0  0  0  0  0  0  0
    8.4773  -14.9072   23.6078 C   0  0  1  0  0  0  0  0  0  0  0  0
    7.2330  -14.0487   23.6025 C   0  0  0  0  0  0  0  0  0  0  0  0
    7.1553  -13.1306   24.7381 C   0  0  0  0  0  0  0  0  0  0  0  0
    6.3678  -13.3476   25.8540 C   0  0  0  0  0  0  0  0  0  0  0  0
    6.3258  -12.4638   26.9039 C   0  0  0  0  0  0  0  0  0  0  0  0
    7.0753  -11.3126   26.8865 C   0  0  0  0  0  0  0  0  0  0  0  0
    7.8697  -11.0689   25.7879 C   0  0  0  0  0  0  0  0  0  0  0  0
    7.9073  -11.9549   24.7432 C   0  0  0  0  0  0  0  0  0  0  0  0
    8.5854  -15.6791   24.8680 C   0  0  0  0  0  0  0  0  0  0  0  0
    7.8019  -16.6621   25.0001 O   0  0  0  0  0  0  0  0  0  0  0  0
    8.7526  -20.6322   27.3933 N   0  0  0  0  0  0  0  0  0  0  0  0
    8.3329  -19.5183   28.1534 C   0  0  0  0  0  0  0  0  0  0  0  0
    7.3342  -19.6289   28.9525 O   0  0  0  0  0  0  0  0  0  0  0  0
    8.9845  -18.1943   28.0989 C   0  0  0  0  0  0  0  0  0  0  0  0
    9.1486  -17.5914   26.7659 C   0  0  0  0  0  0  0  0  0  0  0  0
   10.1624  -16.4958   26.6280 C   0  0  2  0  0  0  0  0  0  0  0  0
    9.4848  -15.3895   25.8979 N   0  0  0  0  0  0  0  0  0  0  0  0
   11.4321  -16.8162   26.0368 C   0  0  0  0  0  0  0  0  0  0  0  0
   12.4829  -15.8896   26.0125 O   0  0  0  0  0  0  0  0  0  0  0  0
   11.6659  -17.9280   25.5172 O   0  0  0  0  0  0  0  0  0  0  0  0
  2  1  1  0
  3  2  2  0
  4  3  1  0
  5  4  2  0
  5 11  1  0
  6  7  1  0
  6  5  1  0
  7  8  1  6
  9  7  1  0
  9 13  1  0
 10  9  2  0
 11 12  2  0
 12  2  1  0
 13 14  1  0
 15 16  1  0
 14 15  1  1
 16 17  2  0
 17 18  1  0
 19 18  2  0
 20 21  2  0
 20 19  1  0
 21 16  1  0
 22 23  2  0
 22 14  1  0
 24 25  1  0
 25 27  1  0
 26 25  2  0
 27 28  1  0
 29 28  1  6
 29 30  1  0
 29 31  1  0
 30 22  1  0
 31 32  1  0
 33 31  2  0
M  END
$$$$
