YFQ.pdb
     RDKit          3D

 33 34  0  0  1  0  0  0  0  0999 V2000
    6.5410  -22.4776   18.0862 O   0  0  0  0  0  0  0  0  0  0  0  0
    7.0474  -21.6043   19.0318 C   0  0  0  0  0  0  0  0  0  0  0  0
    6.7227  -21.7341   20.3486 C   0  0  0  0  0  0  0  0  0  0  0  0
    7.2524  -20.8382   21.2590 C   0  0  0  0  0  0  0  0  0  0  0  0
    8.0977  -19.8234   20.8565 C   0  0  0  0  0  0  0  0  0  0  0  0
    8.6293  -18.8975   21.8871 C   0  0  0  0  0  0  0  0  0  0  0  0
    8.9908  -17.5982   21.1968 C   0  0  2  0  0  0  0  0  0  0  0  0
   10.1803  -17.8291   20.4073 N   0  0  0  0  0  0  0  0  0  0  0  0
    9.2711  -16.6068   22.2837 C   0  0  0  0  0  0  0  0  0  0  0  0
   10.4159  -16.3655   22.6990 O   0  0  0  0  0  0  0  0  0  0  0  0
    8.4153  -19.7071   19.5204 C   0  0  0  0  0  0  0  0  0  0  0  0
    7.8949  -20.5906   18.6116 C   0  0  0  0  0  0  0  0  0  0  0  0
    8.1892  -15.9182   22.8599 N   0  0  0  0  0  0  0  0  0  0  0  0
    8.3681  -14.9288   23.9363 C   0  0  1  0  0  0  0  0  0  0  0  0
    7.1135  -14.0868   23.8881 C   0  0  0  0  0  0  0  0  0  0  0  0
    7.0579  -13.0661   24.9338 C   0  0  0  0  0  0  0  0  0  0  0  0
    7.9232  -11.9899   25.0092 C   0  0  0  0  0  0  0  0  0  0  0  0
    7.8357  -11.0480   26.0043 C   0  0  0  0  0  0  0  0  0  0  0  0
    6.8710  -11.1393   26.9783 C   0  0  0  0  0  0  0  0  0  0  0  0
    5.9945  -12.2008   26.9298 C   0  0  0  0  0  0  0  0  0  0  0  0
    6.0870  -13.1376   25.9339 C   0  0  0  0  0  0  0  0  0  0  0  0
    8.4991  -15.6135   25.2438 C   0  0  0  0  0  0  0  0  0  0  0  0
    8.7229  -14.8798   26.2485 O   0  0  0  0  0  0  0  0  0  0  0  0
    5.8675  -20.4628   24.7628 N   0  0  0  0  0  0  0  0  0  0  0  0
    6.6952  -20.8319   25.8460 C   0  0  0  0  0  0  0  0  0  0  0  0
    6.5280  -21.9676   26.4209 O   0  0  0  0  0  0  0  0  0  0  0  0
    7.7786  -19.9816   26.3787 C   0  0  0  0  0  0  0  0  0  0  0  0
    7.3970  -18.6396   26.8485 C   0  0  0  0  0  0  0  0  0  0  0  0
    8.4466  -17.5706   26.7990 C   0  0  2  0  0  0  0  0  0  0  0  0
    8.3918  -16.9949   25.4272 N   0  0  0  0  0  0  0  0  0  0  0  0
    9.7900  -17.9204   27.1695 C   0  0  0  0  0  0  0  0  0  0  0  0
   10.1191  -18.2688   28.4861 O   0  0  0  0  0  0  0  0  0  0  0  0
   10.7288  -17.9328   26.3453 O   0  0  0  0  0  0  0  0  0  0  0  0
  2  1  1  0
  3  2  2  0
  4  3  1  0
  5  4  2  0
  5 11  1  0
  6  7  1  0
  6  5  1  0
  7  8  1  6
  9  7  1  0
  9 13  1  0
 10  9  2  0
 11 12  2  0
 12  2  1  0
 13 14  1  0
 15 16  1  0
 14 15  1  1
 16 17  2  0
 17 18  1  0
 19 18  2  0
 20 21  2  0
 20 19  1  0
 21 16  1  0
 22 23  2  0
 22 14  1  0
 24 25  1  0
 25 27  1  0
 26 25  2  0
 27 28  1  0
 29 28  1  6
 29 30  1  0
 29 31  1  0
 30 22  1  0
 31 32  1  0
 33 31  2  0
M  END
$$$$
