IRW.pdb
     RDKit          3D

 34 35  0  0  1  0  0  0  0  0999 V2000
   18.9207  -16.8071  -16.6008 C   0  0  0  0  0  0  0  0  0  0  0  0
   18.2947  -15.8382  -17.5734 C   0  0  0  0  0  0  0  0  0  0  0  0
   19.0200  -14.5206  -17.6003 C   0  0  2  0  0  0  0  0  0  0  0  0
   20.5021  -14.8031  -17.4256 C   0  0  0  0  0  0  0  0  0  0  0  0
   18.5722  -13.6449  -16.4775 C   0  0  2  0  0  0  0  0  0  0  0  0
   17.1475  -13.4708  -16.5051 N   0  0  0  0  0  0  0  0  0  0  0  0
   19.2437  -12.3342  -16.4361 C   0  0  0  0  0  0  0  0  0  0  0  0
   20.4836  -12.2094  -16.1907 O   0  0  0  0  0  0  0  0  0  0  0  0
   18.7930   -6.0460  -21.0533 N   0  0  0  0  0  0  0  0  0  0  0  0
   19.9715   -6.7751  -21.2656 C   0  0  0  0  0  0  0  0  0  0  0  0
   20.5179   -6.7870  -22.4401 N   0  0  0  0  0  0  0  0  0  0  0  0
   20.5666   -7.4938  -20.2043 N   0  0  0  0  0  0  0  0  0  0  0  0
   19.9280   -7.6406  -18.9368 C   0  0  0  0  0  0  0  0  0  0  0  0
   18.9139   -8.7453  -18.8484 C   0  0  0  0  0  0  0  0  0  0  0  0
   18.2562   -8.8734  -17.5220 C   0  0  0  0  0  0  0  0  0  0  0  0
   18.9886   -9.8221  -16.5951 C   0  0  2  0  0  0  0  0  0  0  0  0
   18.4826  -11.1625  -16.6777 N   0  0  0  0  0  0  0  0  0  0  0  0
   18.8354   -9.2749  -15.1985 C   0  0  0  0  0  0  0  0  0  0  0  0
   17.7561   -9.4423  -14.5768 O   0  0  0  0  0  0  0  0  0  0  0  0
   21.3740   -7.3145  -22.6320 N   0  0  0  0  0  0  0  0  0  0  0  0
   19.8762   -8.5668  -14.5467 C   0  0  2  0  0  0  0  0  0  0  0  0
   19.5910   -7.9875  -13.2508 C   0  0  0  0  0  0  0  0  0  0  0  0
   20.9198   -7.7005  -12.5769 C   0  0  0  0  0  0  0  0  0  0  0  0
   20.6647   -7.0172  -11.2800 C   0  0  0  0  0  0  0  0  0  0  0  0
   20.2386   -7.5040  -10.0704 N   0  0  0  0  0  0  0  0  0  0  0  0
   20.1542   -6.4847   -9.1760 C   0  0  0  0  0  0  0  0  0  0  0  0
   20.5143   -5.3426   -9.7690 C   0  0  0  0  0  0  0  0  0  0  0  0
   20.5995   -4.0561   -9.3053 C   0  0  0  0  0  0  0  0  0  0  0  0
   21.0190   -3.0370  -10.1704 C   0  0  0  0  0  0  0  0  0  0  0  0
   21.3467   -3.3082  -11.4792 C   0  0  0  0  0  0  0  0  0  0  0  0
   21.2475   -4.6185  -11.9085 C   0  0  0  0  0  0  0  0  0  0  0  0
   20.8339   -5.6499  -11.0707 C   0  0  0  0  0  0  0  0  0  0  0  0
   18.9257   -6.6530  -13.4592 O   0  0  0  0  0  0  0  0  0  0  0  0
   19.2408   -5.9113  -14.4239 O   0  0  0  0  0  0  0  0  0  0  0  0
  2  1  1  0
  3  2  1  0
  3  4  1  1
  5  3  1  0
  5  6  1  6
  7  5  1  0
  7  8  2  0
  9 10  1  0
 10 12  1  0
 11 10  2  0
 12 13  1  0
 13 14  1  0
 14 15  1  0
 16 15  1  6
 16 17  1  0
 17  7  1  0
 18 16  1  0
 19 18  2  0
 20 18  1  0
 21 20  1  0
 21 22  1  1
 22 23  1  0
 23 31  1  0
 23 24  2  0
 24 25  1  0
 26 27  2  0
 26 25  1  0
 28 27  1  0
 29 28  2  0
 30 29  1  0
 30 31  2  0
 31 26  1  0
 32 21  1  0
 33 32  2  0
 34 32  1  0
M  END
$$$$
