IRW.pdb
     RDKit          3D

 34 35  0  0  1  0  0  0  0  0999 V2000
   17.9171  -21.1376  -13.3878 C   0  0  0  0  0  0  0  0  0  0  0  0
   19.0198  -21.5428  -14.3346 C   0  0  0  0  0  0  0  0  0  0  0  0
   20.2799  -21.9172  -13.6033 C   0  0  2  0  0  0  0  0  0  0  0  0
   20.7679  -20.6861  -12.8595 C   0  0  0  0  0  0  0  0  0  0  0  0
   21.3436  -22.3409  -14.5609 C   0  0  2  0  0  0  0  0  0  0  0  0
   20.9278  -23.4962  -15.3048 N   0  0  0  0  0  0  0  0  0  0  0  0
   22.6528  -22.5860  -13.9312 C   0  0  0  0  0  0  0  0  0  0  0  0
   22.8523  -23.5430  -13.1203 O   0  0  0  0  0  0  0  0  0  0  0  0
   29.8667  -23.1059  -15.7572 N   0  0  0  0  0  0  0  0  0  0  0  0
   29.2520  -22.2577  -16.6889 C   0  0  0  0  0  0  0  0  0  0  0  0
   29.3592  -22.5079  -17.9555 N   0  0  0  0  0  0  0  0  0  0  0  0
   28.5146  -21.1340  -16.2526 N   0  0  0  0  0  0  0  0  0  0  0  0
   28.5389  -20.6919  -14.8962 C   0  0  0  0  0  0  0  0  0  0  0  0
   27.4667  -21.2617  -14.0116 C   0  0  0  0  0  0  0  0  0  0  0  0
   26.1205  -21.3250  -14.6375 C   0  0  0  0  0  0  0  0  0  0  0  0
   25.0572  -21.8373  -13.6875 C   0  0  2  0  0  0  0  0  0  0  0  0
   23.7363  -21.7241  -14.2370 N   0  0  0  0  0  0  0  0  0  0  0  0
   25.1815  -21.0345  -12.4173 C   0  0  0  0  0  0  0  0  0  0  0  0
   24.7938  -19.8393  -12.3931 O   0  0  0  0  0  0  0  0  0  0  0  0
   28.9324  -21.9038  -18.6632 N   0  0  0  0  0  0  0  0  0  0  0  0
   25.7276  -21.5814  -11.2289 C   0  0  2  0  0  0  0  0  0  0  0  0
   25.9207  -20.6927  -10.1024 C   0  0  0  0  0  0  0  0  0  0  0  0
   26.7103  -21.4518   -9.0524 C   0  0  0  0  0  0  0  0  0  0  0  0
   26.9939  -20.5408   -7.9107 C   0  0  0  0  0  0  0  0  0  0  0  0
   26.3403  -19.4204   -7.4645 N   0  0  0  0  0  0  0  0  0  0  0  0
   26.9837  -18.9237   -6.3757 C   0  0  0  0  0  0  0  0  0  0  0  0
   28.0420  -19.6906   -6.0973 C   0  0  0  0  0  0  0  0  0  0  0  0
   28.9941  -19.6173   -5.1146 C   0  0  0  0  0  0  0  0  0  0  0  0
   30.0087  -20.5820   -5.0633 C   0  0  0  0  0  0  0  0  0  0  0  0
   30.0641  -21.6024   -5.9851 C   0  0  0  0  0  0  0  0  0  0  0  0
   29.0855  -21.6413   -6.9607 C   0  0  0  0  0  0  0  0  0  0  0  0
   28.0665  -20.6963   -7.0348 C   0  0  0  0  0  0  0  0  0  0  0  0
   26.7933  -19.5468  -10.5411 O   0  0  0  0  0  0  0  0  0  0  0  0
   26.5369  -18.3645  -10.1993 O   0  0  0  0  0  0  0  0  0  0  0  0
  2  1  1  0
  3  2  1  0
  3  4  1  6
  5  3  1  0
  5  6  1  1
  7  5  1  0
  7  8  2  0
  9 10  1  0
 10 12  1  0
 11 10  2  0
 12 13  1  0
 13 14  1  0
 14 15  1  0
 16 15  1  6
 16 17  1  0
 17  7  1  0
 18 16  1  0
 19 18  2  0
 20 18  1  0
 21 20  1  0
 21 22  1  1
 22 23  1  0
 23 31  1  0
 23 24  2  0
 24 25  1  0
 26 27  2  0
 26 25  1  0
 28 27  1  0
 29 28  2  0
 30 29  1  0
 30 31  2  0
 31 26  1  0
 32 21  1  0
 33 32  2  0
 34 32  1  0
M  END
$$$$
