IRW.pdb
     RDKit          3D

 34 35  0  0  1  0  0  0  0  0999 V2000
   27.2509  -17.6040  -18.0344 C   0  0  0  0  0  0  0  0  0  0  0  0
   27.2074  -18.7927  -17.1061 C   0  0  0  0  0  0  0  0  0  0  0  0
   26.5404  -18.4616  -15.7990 C   0  0  2  0  0  0  0  0  0  0  0  0
   27.2937  -17.2997  -15.1748 C   0  0  0  0  0  0  0  0  0  0  0  0
   26.6037  -19.6215  -14.8617 C   0  0  2  0  0  0  0  0  0  0  0  0
   25.8728  -20.7402  -15.3864 N   0  0  0  0  0  0  0  0  0  0  0  0
   26.1480  -19.3125  -13.4952 C   0  0  0  0  0  0  0  0  0  0  0  0
   26.7498  -18.4821  -12.7459 O   0  0  0  0  0  0  0  0  0  0  0  0
   21.1703  -21.7228  -15.7367 N   0  0  0  0  0  0  0  0  0  0  0  0
   22.2312  -22.5959  -15.4585 C   0  0  0  0  0  0  0  0  0  0  0  0
   22.8077  -23.2365  -16.4258 N   0  0  0  0  0  0  0  0  0  0  0  0
   22.6757  -22.7778  -14.1295 N   0  0  0  0  0  0  0  0  0  0  0  0
   22.0408  -22.1370  -13.0239 C   0  0  0  0  0  0  0  0  0  0  0  0
   22.4317  -20.7046  -12.7959 C   0  0  0  0  0  0  0  0  0  0  0  0
   23.1115  -20.4501  -11.4992 C   0  0  0  0  0  0  0  0  0  0  0  0
   24.4644  -19.7892  -11.6678 C   0  0  2  0  0  0  0  0  0  0  0  0
   24.9944  -19.9639  -12.9900 N   0  0  0  0  0  0  0  0  0  0  0  0
   25.3806  -20.3982  -10.6368 C   0  0  0  0  0  0  0  0  0  0  0  0
   25.8580  -21.5455  -10.8250 O   0  0  0  0  0  0  0  0  0  0  0  0
   23.5644  -23.9046  -16.2554 N   0  0  0  0  0  0  0  0  0  0  0  0
   25.7315  -19.7187   -9.4431 C   0  0  1  0  0  0  0  0  0  0  0  0
   26.6202  -20.3912   -8.5189 C   0  0  0  0  0  0  0  0  0  0  0  0
   27.5609  -19.3462   -7.9485 C   0  0  0  0  0  0  0  0  0  0  0  0
   28.5145  -20.0118   -7.0203 C   0  0  0  0  0  0  0  0  0  0  0  0
   29.3755  -21.0627   -7.2096 N   0  0  0  0  0  0  0  0  0  0  0  0
   30.0470  -21.3123   -6.0551 C   0  0  0  0  0  0  0  0  0  0  0  0
   29.6478  -20.4512   -5.1144 C   0  0  0  0  0  0  0  0  0  0  0  0
   30.0162  -20.2887   -3.8046 C   0  0  0  0  0  0  0  0  0  0  0  0
   29.4186  -19.2782   -3.0400 C   0  0  0  0  0  0  0  0  0  0  0  0
   28.4670  -18.4462   -3.5840 C   0  0  0  0  0  0  0  0  0  0  0  0
   28.1227  -18.6426   -4.9084 C   0  0  0  0  0  0  0  0  0  0  0  0
   28.7003  -19.6382   -5.6907 C   0  0  0  0  0  0  0  0  0  0  0  0
   25.8067  -20.9049   -7.3608 O   0  0  0  0  0  0  0  0  0  0  0  0
   24.7008  -20.3879   -7.0611 O   0  0  0  0  0  0  0  0  0  0  0  0
  2  1  1  0
  3  2  1  0
  3  4  1  1
  5  3  1  0
  5  6  1  6
  7  5  1  0
  7  8  2  0
  9 10  1  0
 10 12  1  0
 11 10  2  0
 12 13  1  0
 13 14  1  0
 14 15  1  0
 16 15  1  6
 16 17  1  0
 17  7  1  0
 18 16  1  0
 19 18  2  0
 20 18  1  0
 21 20  1  0
 21 22  1  1
 22 23  1  0
 23 31  1  0
 23 24  2  0
 24 25  1  0
 26 27  2  0
 26 25  1  0
 28 27  1  0
 29 28  2  0
 30 29  1  0
 30 31  2  0
 31 26  1  0
 32 21  1  0
 33 32  2  0
 34 32  1  0
M  END
$$$$
