IRW.pdb
     RDKit          3D

 34 35  0  0  1  0  0  0  0  0999 V2000
   29.4000  -20.7294  -19.4365 C   0  0  0  0  0  0  0  0  0  0  0  0
   29.3981  -21.2228  -18.0106 C   0  0  0  0  0  0  0  0  0  0  0  0
   28.3689  -20.5154  -17.1720 C   0  0  2  0  0  0  0  0  0  0  0  0
   28.6806  -19.0294  -17.2106 C   0  0  0  0  0  0  0  0  0  0  0  0
   28.4344  -20.9734  -15.7529 C   0  0  2  0  0  0  0  0  0  0  0  0
   28.3260  -22.4027  -15.6739 N   0  0  0  0  0  0  0  0  0  0  0  0
   27.4380  -20.3388  -14.8724 C   0  0  0  0  0  0  0  0  0  0  0  0
   27.3760  -19.0811  -14.7062 O   0  0  0  0  0  0  0  0  0  0  0  0
   23.5433  -23.9591  -16.8357 N   0  0  0  0  0  0  0  0  0  0  0  0
   22.8313  -24.1579  -15.6445 C   0  0  0  0  0  0  0  0  0  0  0  0
   22.7009  -25.3543  -15.1650 N   0  0  0  0  0  0  0  0  0  0  0  0
   22.2586  -23.0599  -14.9641 N   0  0  0  0  0  0  0  0  0  0  0  0
   22.4411  -21.7156  -15.4062 C   0  0  0  0  0  0  0  0  0  0  0  0
   23.7512  -21.0840  -15.0303 C   0  0  0  0  0  0  0  0  0  0  0  0
   24.1305  -21.2541  -13.6036 C   0  0  0  0  0  0  0  0  0  0  0  0
   25.4945  -20.6752  -13.2879 C   0  0  2  0  0  0  0  0  0  0  0  0
   26.5100  -21.1572  -14.1801 N   0  0  0  0  0  0  0  0  0  0  0  0
   25.8099  -21.0502  -11.8620 C   0  0  0  0  0  0  0  0  0  0  0  0
   26.5263  -22.0550  -11.6240 O   0  0  0  0  0  0  0  0  0  0  0  0
   22.1675  -25.5385  -14.3109 N   0  0  0  0  0  0  0  0  0  0  0  0
   25.3228  -20.3038  -10.7596 C   0  0  1  0  0  0  0  0  0  0  0  0
   25.5861  -20.8122   -9.4298 C   0  0  0  0  0  0  0  0  0  0  0  0
   26.7532  -20.0254   -8.8633 C   0  0  0  0  0  0  0  0  0  0  0  0
   26.8534  -20.2958   -7.4036 C   0  0  0  0  0  0  0  0  0  0  0  0
   26.1228  -21.1188   -6.5846 N   0  0  0  0  0  0  0  0  0  0  0  0
   26.5934  -21.0269   -5.3133 C   0  0  0  0  0  0  0  0  0  0  0  0
   27.6138  -20.1647   -5.2788 C   0  0  0  0  0  0  0  0  0  0  0  0
   28.4151  -19.7333   -4.2545 C   0  0  0  0  0  0  0  0  0  0  0  0
   29.4313  -18.8052   -4.5172 C   0  0  0  0  0  0  0  0  0  0  0  0
   29.6371  -18.3201   -5.7885 C   0  0  0  0  0  0  0  0  0  0  0  0
   28.8076  -18.7798   -6.7942 C   0  0  0  0  0  0  0  0  0  0  0  0
   27.7908  -19.7012   -6.5613 C   0  0  0  0  0  0  0  0  0  0  0  0
   24.4012  -20.5000   -8.5549 O   0  0  0  0  0  0  0  0  0  0  0  0
   23.6195  -19.5547   -8.8294 O   0  0  0  0  0  0  0  0  0  0  0  0
  2  1  1  0
  3  2  1  0
  3  4  1  1
  5  3  1  0
  5  6  1  6
  7  5  1  0
  7  8  2  0
  9 10  1  0
 10 12  1  0
 11 10  2  0
 12 13  1  0
 13 14  1  0
 14 15  1  0
 16 15  1  6
 16 17  1  0
 17  7  1  0
 18 16  1  0
 19 18  2  0
 20 18  1  0
 21 20  1  0
 21 22  1  1
 22 23  1  0
 23 31  1  0
 23 24  2  0
 24 25  1  0
 26 27  2  0
 26 25  1  0
 28 27  1  0
 29 28  2  0
 30 29  1  0
 30 31  2  0
 31 26  1  0
 32 21  1  0
 33 32  2  0
 34 32  1  0
M  END
$$$$
