IRW.pdb
     RDKit          3D

 34 35  0  0  1  0  0  0  0  0999 V2000
   29.0590  -16.8363  -16.6756 C   0  0  0  0  0  0  0  0  0  0  0  0
   28.2201  -18.0884  -16.7479 C   0  0  0  0  0  0  0  0  0  0  0  0
   27.2250  -18.1646  -15.6223 C   0  0  2  0  0  0  0  0  0  0  0  0
   28.0021  -18.2019  -14.3178 C   0  0  0  0  0  0  0  0  0  0  0  0
   26.4079  -19.4100  -15.7193 C   0  0  2  0  0  0  0  0  0  0  0  0
   25.7667  -19.4994  -17.0006 N   0  0  0  0  0  0  0  0  0  0  0  0
   25.4140  -19.5593  -14.6421 C   0  0  0  0  0  0  0  0  0  0  0  0
   24.5256  -18.6828  -14.4061 O   0  0  0  0  0  0  0  0  0  0  0  0
   23.3031  -25.4597  -15.3982 N   0  0  0  0  0  0  0  0  0  0  0  0
   22.5232  -25.4830  -14.2335 C   0  0  0  0  0  0  0  0  0  0  0  0
   22.4146  -26.5805  -13.5538 N   0  0  0  0  0  0  0  0  0  0  0  0
   21.8582  -24.3151  -13.7968 N   0  0  0  0  0  0  0  0  0  0  0  0
   22.0839  -23.0432  -14.4028 C   0  0  0  0  0  0  0  0  0  0  0  0
   23.4381  -22.4414  -14.1563 C   0  0  0  0  0  0  0  0  0  0  0  0
   23.6875  -22.0411  -12.7472 C   0  0  0  0  0  0  0  0  0  0  0  0
   24.6860  -20.9078  -12.6289 C   0  0  2  0  0  0  0  0  0  0  0  0
   25.4448  -20.7233  -13.8330 N   0  0  0  0  0  0  0  0  0  0  0  0
   25.5905  -21.2405  -11.4693 C   0  0  0  0  0  0  0  0  0  0  0  0
   25.9545  -22.4287  -11.2817 O   0  0  0  0  0  0  0  0  0  0  0  0
   21.8146  -26.6465  -12.7270 N   0  0  0  0  0  0  0  0  0  0  0  0
   26.0549  -20.2515  -10.5661 C   0  0  2  0  0  0  0  0  0  0  0  0
   26.7092  -20.6971   -9.3539 C   0  0  0  0  0  0  0  0  0  0  0  0
   27.6428  -19.5883   -8.9053 C   0  0  0  0  0  0  0  0  0  0  0  0
   28.4083  -20.0540   -7.7174 C   0  0  0  0  0  0  0  0  0  0  0  0
   29.1847  -21.1679   -7.5224 N   0  0  0  0  0  0  0  0  0  0  0  0
   29.6820  -21.1581   -6.2580 C   0  0  0  0  0  0  0  0  0  0  0  0
   29.2511  -20.0659   -5.6199 C   0  0  0  0  0  0  0  0  0  0  0  0
   29.4681  -19.6010   -4.3494 C   0  0  0  0  0  0  0  0  0  0  0  0
   28.8768  -18.3970   -3.9447 C   0  0  0  0  0  0  0  0  0  0  0  0
   28.0812  -17.6739   -4.8038 C   0  0  0  0  0  0  0  0  0  0  0  0
   27.8868  -18.1766   -6.0768 C   0  0  0  0  0  0  0  0  0  0  0  0
   28.4619  -19.3695   -6.5048 C   0  0  0  0  0  0  0  0  0  0  0  0
   25.6702  -20.8380   -8.2734 O   0  0  0  0  0  0  0  0  0  0  0  0
   24.5909  -20.1951   -8.3193 O   0  0  0  0  0  0  0  0  0  0  0  0
  2  1  1  0
  3  2  1  0
  3  4  1  1
  5  3  1  0
  5  6  1  6
  7  5  1  0
  7  8  2  0
  9 10  1  0
 10 12  1  0
 11 10  2  0
 12 13  1  0
 13 14  1  0
 14 15  1  0
 16 15  1  6
 16 17  1  0
 17  7  1  0
 18 16  1  0
 19 18  2  0
 20 18  1  0
 21 20  1  0
 21 22  1  1
 22 23  1  0
 23 31  1  0
 23 24  2  0
 24 25  1  0
 26 27  2  0
 26 25  1  0
 28 27  1  0
 29 28  2  0
 30 29  1  0
 30 31  2  0
 31 26  1  0
 32 21  1  0
 33 32  2  0
 34 32  1  0
M  END
$$$$
