IRW.pdb
     RDKit          3D

 34 35  0  0  1  0  0  0  0  0999 V2000
   26.5532  -20.0005   -9.8215 C   0  0  0  0  0  0  0  0  0  0  0  0
   27.0275  -20.7383  -11.0493 C   0  0  0  0  0  0  0  0  0  0  0  0
   25.9446  -20.8589  -12.0865 C   0  0  2  0  0  0  0  0  0  0  0  0
   24.8048  -21.6565  -11.4767 C   0  0  0  0  0  0  0  0  0  0  0  0
   26.4405  -21.5906  -13.2892 C   0  0  2  0  0  0  0  0  0  0  0  0
   27.6545  -21.0013  -13.7788 N   0  0  0  0  0  0  0  0  0  0  0  0
   25.4517  -21.6949  -14.3764 C   0  0  0  0  0  0  0  0  0  0  0  0
   25.1225  -20.7028  -15.0979 O   0  0  0  0  0  0  0  0  0  0  0  0
   27.7095  -26.9905  -16.1005 N   0  0  0  0  0  0  0  0  0  0  0  0
   28.0272  -26.1594  -17.1839 C   0  0  0  0  0  0  0  0  0  0  0  0
   28.9752  -26.4991  -17.9989 N   0  0  0  0  0  0  0  0  0  0  0  0
   27.3168  -24.9558  -17.3919 N   0  0  0  0  0  0  0  0  0  0  0  0
   26.2388  -24.5564  -16.5468 C   0  0  0  0  0  0  0  0  0  0  0  0
   24.8739  -25.0065  -16.9843 C   0  0  0  0  0  0  0  0  0  0  0  0
   23.7754  -24.6360  -16.0547 C   0  0  0  0  0  0  0  0  0  0  0  0
   23.8340  -23.1829  -15.6294 C   0  0  2  0  0  0  0  0  0  0  0  0
   24.8392  -22.9478  -14.6325 N   0  0  0  0  0  0  0  0  0  0  0  0
   22.4656  -22.8239  -15.1081 C   0  0  0  0  0  0  0  0  0  0  0  0
   22.0341  -23.3668  -14.0599 O   0  0  0  0  0  0  0  0  0  0  0  0
   29.1643  -25.9730  -18.8565 N   0  0  0  0  0  0  0  0  0  0  0  0
   21.6309  -21.8835  -15.7628 C   0  0  1  0  0  0  0  0  0  0  0  0
   20.3292  -21.6191  -15.1869 C   0  0  0  0  0  0  0  0  0  0  0  0
   20.2351  -20.1252  -14.9384 C   0  0  0  0  0  0  0  0  0  0  0  0
   21.0669  -19.7805  -13.7538 C   0  0  0  0  0  0  0  0  0  0  0  0
   22.3385  -19.2749  -13.6585 N   0  0  0  0  0  0  0  0  0  0  0  0
   22.6705  -19.1272  -12.3493 C   0  0  0  0  0  0  0  0  0  0  0  0
   21.6486  -19.5230  -11.5846 C   0  0  0  0  0  0  0  0  0  0  0  0
   21.4850  -19.5689  -10.2250 C   0  0  0  0  0  0  0  0  0  0  0  0
   20.2781  -20.0386   -9.6905 C   0  0  0  0  0  0  0  0  0  0  0  0
   19.2540  -20.4548  -10.5103 C   0  0  0  0  0  0  0  0  0  0  0  0
   19.4582  -20.3930  -11.8761 C   0  0  0  0  0  0  0  0  0  0  0  0
   20.6467  -19.9308  -12.4336 C   0  0  0  0  0  0  0  0  0  0  0  0
   19.2768  -21.9440  -16.2135 O   0  0  0  0  0  0  0  0  0  0  0  0
   19.5900  -22.3063  -17.3757 O   0  0  0  0  0  0  0  0  0  0  0  0
  2  1  1  0
  3  2  1  0
  3  4  1  1
  5  3  1  0
  5  6  1  6
  7  5  1  0
  7  8  2  0
  9 10  1  0
 10 12  1  0
 11 10  2  0
 12 13  1  0
 13 14  1  0
 14 15  1  0
 16 15  1  1
 16 17  1  0
 17  7  1  0
 18 16  1  0
 19 18  2  0
 20 18  1  0
 21 20  1  0
 21 22  1  1
 22 23  1  0
 23 31  1  0
 23 24  2  0
 24 25  1  0
 26 27  2  0
 26 25  1  0
 28 27  1  0
 29 28  2  0
 30 29  1  0
 30 31  2  0
 31 26  1  0
 32 21  1  0
 33 32  2  0
 34 32  1  0
M  END
$$$$
