IRW.pdb
     RDKit          3D

 34 35  0  0  1  0  0  0  0  0999 V2000
   29.0450  -18.3787  -18.9436 C   0  0  0  0  0  0  0  0  0  0  0  0
   28.9671  -19.3522  -17.7935 C   0  0  0  0  0  0  0  0  0  0  0  0
   28.0240  -18.8808  -16.7205 C   0  0  2  0  0  0  0  0  0  0  0  0
   28.5494  -17.5585  -16.1890 C   0  0  0  0  0  0  0  0  0  0  0  0
   27.9745  -19.8557  -15.5912 C   0  0  2  0  0  0  0  0  0  0  0  0
   27.6516  -21.1707  -16.0680 N   0  0  0  0  0  0  0  0  0  0  0  0
   27.0562  -19.4687  -14.5061 C   0  0  0  0  0  0  0  0  0  0  0  0
   27.1621  -18.3678  -13.8816 O   0  0  0  0  0  0  0  0  0  0  0  0
   19.4496  -19.3834  -13.6853 N   0  0  0  0  0  0  0  0  0  0  0  0
   20.0231  -20.4012  -14.4602 C   0  0  0  0  0  0  0  0  0  0  0  0
   19.6640  -20.5487  -15.6962 N   0  0  0  0  0  0  0  0  0  0  0  0
   20.9921  -21.2640  -13.9003 N   0  0  0  0  0  0  0  0  0  0  0  0
   21.3882  -21.1725  -12.5326 C   0  0  0  0  0  0  0  0  0  0  0  0
   22.7322  -20.5471  -12.2896 C   0  0  0  0  0  0  0  0  0  0  0  0
   23.7125  -20.7465  -13.3885 C   0  0  0  0  0  0  0  0  0  0  0  0
   25.0568  -20.1121  -13.0956 C   0  0  2  0  0  0  0  0  0  0  0  0
   26.0120  -20.3548  -14.1388 N   0  0  0  0  0  0  0  0  0  0  0  0
   25.5348  -20.6848  -11.7853 C   0  0  0  0  0  0  0  0  0  0  0  0
   25.7638  -21.9167  -11.6883 O   0  0  0  0  0  0  0  0  0  0  0  0
   20.0769  -21.2679  -16.2962 N   0  0  0  0  0  0  0  0  0  0  0  0
   25.7397  -19.8772  -10.6382 C   0  0  2  0  0  0  0  0  0  0  0  0
   26.0703  -20.5409   -9.3947 C   0  0  0  0  0  0  0  0  0  0  0  0
   26.7081  -19.5096   -8.4827 C   0  0  0  0  0  0  0  0  0  0  0  0
   26.9866  -20.1394   -7.1637 C   0  0  0  0  0  0  0  0  0  0  0  0
   26.4019  -21.2063   -6.5301 N   0  0  0  0  0  0  0  0  0  0  0  0
   27.0054  -21.4068   -5.3294 C   0  0  0  0  0  0  0  0  0  0  0  0
   27.9707  -20.4984   -5.1606 C   0  0  0  0  0  0  0  0  0  0  0  0
   28.8548  -20.2797   -4.1368 C   0  0  0  0  0  0  0  0  0  0  0  0
   29.7788  -19.2312   -4.2351 C   0  0  0  0  0  0  0  0  0  0  0  0
   29.8123  -18.4172   -5.3443 C   0  0  0  0  0  0  0  0  0  0  0  0
   28.9041  -18.6704   -6.3552 C   0  0  0  0  0  0  0  0  0  0  0  0
   27.9757  -19.7048   -6.2836 C   0  0  0  0  0  0  0  0  0  0  0  0
   24.7909  -20.9651   -8.7238 O   0  0  0  0  0  0  0  0  0  0  0  0
   23.7338  -20.2975   -8.8551 O   0  0  0  0  0  0  0  0  0  0  0  0
  2  1  1  0
  3  2  1  0
  3  4  1  1
  5  3  1  0
  5  6  1  6
  7  5  1  0
  7  8  2  0
  9 10  1  0
 10 12  1  0
 11 10  2  0
 12 13  1  0
 13 14  1  0
 14 15  1  0
 16 15  1  6
 16 17  1  0
 17  7  1  0
 18 16  1  0
 19 18  2  0
 20 18  1  0
 21 20  1  0
 21 22  1  1
 22 23  1  0
 23 31  1  0
 23 24  2  0
 24 25  1  0
 26 27  2  0
 26 25  1  0
 28 27  1  0
 29 28  2  0
 30 29  1  0
 30 31  2  0
 31 26  1  0
 32 21  1  0
 33 32  2  0
 34 32  1  0
M  END
$$$$
