IRW.pdb
     RDKit          3D

 34 35  0  0  1  0  0  0  0  0999 V2000
   32.3382  -25.9666  -18.7653 C   0  0  0  0  0  0  0  0  0  0  0  0
   31.4906  -25.8113  -17.5267 C   0  0  0  0  0  0  0  0  0  0  0  0
   30.2600  -24.9861  -17.7870 C   0  0  2  0  0  0  0  0  0  0  0  0
   30.7110  -23.5807  -18.1453 C   0  0  0  0  0  0  0  0  0  0  0  0
   29.4044  -24.9090  -16.5663 C   0  0  2  0  0  0  0  0  0  0  0  0
   28.9038  -26.2072  -16.2129 N   0  0  0  0  0  0  0  0  0  0  0  0
   28.2931  -23.9478  -16.6739 C   0  0  0  0  0  0  0  0  0  0  0  0
   28.4809  -22.6997  -16.8160 O   0  0  0  0  0  0  0  0  0  0  0  0
   21.4421  -26.1716  -20.8516 N   0  0  0  0  0  0  0  0  0  0  0  0
   21.5854  -26.1364  -19.4575 C   0  0  0  0  0  0  0  0  0  0  0  0
   20.7124  -26.7290  -18.7059 N   0  0  0  0  0  0  0  0  0  0  0  0
   22.6783  -25.4604  -18.8697 N   0  0  0  0  0  0  0  0  0  0  0  0
   23.7264  -24.8904  -19.6523 C   0  0  0  0  0  0  0  0  0  0  0  0
   24.8294  -24.2320  -18.8735 C   0  0  0  0  0  0  0  0  0  0  0  0
   24.6440  -24.2590  -17.3993 C   0  0  0  0  0  0  0  0  0  0  0  0
   25.7870  -23.6009  -16.6538 C   0  0  2  0  0  0  0  0  0  0  0  0
   26.9599  -24.4271  -16.6168 N   0  0  0  0  0  0  0  0  0  0  0  0
   25.2906  -23.3096  -15.2602 C   0  0  0  0  0  0  0  0  0  0  0  0
   25.0851  -24.2563  -14.4596 O   0  0  0  0  0  0  0  0  0  0  0  0
   20.7828  -26.7177  -17.6847 N   0  0  0  0  0  0  0  0  0  0  0  0
   25.0412  -21.9893  -14.8081 C   0  0  2  0  0  0  0  0  0  0  0  0
   24.5996  -21.8154  -13.4403 C   0  0  0  0  0  0  0  0  0  0  0  0
   25.3371  -20.6176  -12.8716 C   0  0  0  0  0  0  0  0  0  0  0  0
   25.3249  -19.5218  -13.8780 C   0  0  0  0  0  0  0  0  0  0  0  0
   24.3495  -18.6205  -14.2211 N   0  0  0  0  0  0  0  0  0  0  0  0
   24.8109  -17.8060  -15.2059 C   0  0  0  0  0  0  0  0  0  0  0  0
   26.0641  -18.1509  -15.5164 C   0  0  0  0  0  0  0  0  0  0  0  0
   26.9548  -17.6463  -16.4272 C   0  0  0  0  0  0  0  0  0  0  0  0
   28.2293  -18.2179  -16.5357 C   0  0  0  0  0  0  0  0  0  0  0  0
   28.6005  -19.2787  -15.7415 C   0  0  0  0  0  0  0  0  0  0  0  0
   27.6735  -19.7588  -14.8354 C   0  0  0  0  0  0  0  0  0  0  0  0
   26.4010  -19.2100  -14.7067 C   0  0  0  0  0  0  0  0  0  0  0  0
   23.1399  -21.4467  -13.4520 O   0  0  0  0  0  0  0  0  0  0  0  0
   22.5438  -21.1794  -14.5260 O   0  0  0  0  0  0  0  0  0  0  0  0
  2  1  1  0
  3  2  1  0
  3  4  1  1
  5  3  1  0
  5  6  1  6
  7  5  1  0
  7  8  2  0
  9 10  1  0
 10 12  1  0
 11 10  2  0
 12 13  1  0
 13 14  1  0
 14 15  1  0
 16 15  1  6
 16 17  1  0
 17  7  1  0
 18 16  1  0
 19 18  2  0
 20 18  1  0
 21 20  1  0
 21 22  1  6
 22 23  1  0
 23 31  1  0
 23 24  2  0
 24 25  1  0
 26 27  2  0
 26 25  1  0
 28 27  1  0
 29 28  2  0
 30 29  1  0
 30 31  2  0
 31 26  1  0
 32 21  1  0
 33 32  2  0
 34 32  1  0
M  END
$$$$
