IRW.pdb
     RDKit          3D

 34 35  0  0  1  0  0  0  0  0999 V2000
   28.7035  -15.3764  -19.4137 C   0  0  0  0  0  0  0  0  0  0  0  0
   27.9302  -16.6576  -19.6064 C   0  0  0  0  0  0  0  0  0  0  0  0
   28.7723  -17.8712  -19.3216 C   0  0  2  0  0  0  0  0  0  0  0  0
   29.0121  -18.5891  -20.6385 C   0  0  0  0  0  0  0  0  0  0  0  0
   28.0625  -18.8053  -18.3987 C   0  0  2  0  0  0  0  0  0  0  0  0
   28.8430  -19.9890  -18.1736 N   0  0  0  0  0  0  0  0  0  0  0  0
   26.7051  -19.1681  -18.8417 C   0  0  0  0  0  0  0  0  0  0  0  0
   26.3942  -19.2816  -20.0679 O   0  0  0  0  0  0  0  0  0  0  0  0
   26.3646  -24.2874  -16.3219 N   0  0  0  0  0  0  0  0  0  0  0  0
   25.0269  -24.3655  -15.9099 C   0  0  0  0  0  0  0  0  0  0  0  0
   24.7471  -24.7303  -14.6987 N   0  0  0  0  0  0  0  0  0  0  0  0
   23.9840  -24.0458  -16.8081 N   0  0  0  0  0  0  0  0  0  0  0  0
   24.2390  -23.5063  -18.1042 C   0  0  0  0  0  0  0  0  0  0  0  0
   24.9604  -22.1888  -18.1250 C   0  0  0  0  0  0  0  0  0  0  0  0
   24.2488  -21.1080  -18.8556 C   0  0  0  0  0  0  0  0  0  0  0  0
   24.3447  -19.7676  -18.1559 C   0  0  2  0  0  0  0  0  0  0  0  0
   25.7017  -19.4003  -17.8672 N   0  0  0  0  0  0  0  0  0  0  0  0
   23.5361  -19.8768  -16.8880 C   0  0  0  0  0  0  0  0  0  0  0  0
   24.0714  -20.3227  -15.8420 O   0  0  0  0  0  0  0  0  0  0  0  0
   23.7830  -24.8812  -14.3893 N   0  0  0  0  0  0  0  0  0  0  0  0
   22.1733  -19.4912  -16.8260 C   0  0  1  0  0  0  0  0  0  0  0  0
   21.5334  -19.4769  -15.5273 C   0  0  0  0  0  0  0  0  0  0  0  0
   21.8776  -18.1565  -14.8637 C   0  0  0  0  0  0  0  0  0  0  0  0
   21.5701  -17.0482  -15.8076 C   0  0  0  0  0  0  0  0  0  0  0  0
   20.3770  -16.4833  -16.1803 N   0  0  0  0  0  0  0  0  0  0  0  0
   20.6067  -15.4904  -17.0790 C   0  0  0  0  0  0  0  0  0  0  0  0
   21.9200  -15.3906  -17.3042 C   0  0  0  0  0  0  0  0  0  0  0  0
   22.6511  -14.5585  -18.1108 C   0  0  0  0  0  0  0  0  0  0  0  0
   24.0463  -14.6814  -18.1454 C   0  0  0  0  0  0  0  0  0  0  0  0
   24.6941  -15.6252  -17.3815 C   0  0  0  0  0  0  0  0  0  0  0  0
   23.9210  -16.4455  -16.5812 C   0  0  0  0  0  0  0  0  0  0  0  0
   22.5340  -16.3450  -16.5276 C   0  0  0  0  0  0  0  0  0  0  0  0
   20.0414  -19.4723  -15.7291 O   0  0  0  0  0  0  0  0  0  0  0  0
   19.5391  -19.3482  -16.8748 O   0  0  0  0  0  0  0  0  0  0  0  0
  2  1  1  0
  3  2  1  0
  3  4  1  6
  5  3  1  0
  5  6  1  6
  7  5  1  0
  7  8  2  0
  9 10  1  0
 10 12  1  0
 11 10  2  0
 12 13  1  0
 13 14  1  0
 14 15  1  0
 16 15  1  1
 16 17  1  0
 17  7  1  0
 18 16  1  0
 19 18  2  0
 20 18  1  0
 21 20  1  0
 21 22  1  1
 22 23  1  0
 23 31  1  0
 23 24  2  0
 24 25  1  0
 26 27  2  0
 26 25  1  0
 28 27  1  0
 29 28  2  0
 30 29  1  0
 30 31  2  0
 31 26  1  0
 32 21  1  0
 33 32  2  0
 34 32  1  0
M  END
$$$$
