LCN.pdb
     RDKit          3D

 23 22  0  0  1  0  0  0  0  0999 V2000
   26.8786  -14.2407  -15.1806 C   0  0  0  0  0  0  0  0  0  0  0  0
   27.1313  -13.1782  -16.1940 C   0  0  2  0  0  0  0  0  0  0  0  0
   28.3952  -12.4202  -15.8236 C   0  0  0  0  0  0  0  0  0  0  0  0
   25.9885  -12.2762  -16.4960 C   0  0  0  0  0  0  0  0  0  0  0  0
   24.7009  -12.9260  -16.8626 C   0  0  2  0  0  0  0  0  0  0  0  0
   24.7744  -13.8260  -17.9612 N   0  0  0  0  0  0  0  0  0  0  0  0
   23.6715  -11.8607  -16.9972 C   0  0  0  0  0  0  0  0  0  0  0  0
   23.6050  -11.1544  -18.0616 O   0  0  0  0  0  0  0  0  0  0  0  0
   22.7084  -11.5330  -16.0170 N   0  0  0  0  0  0  0  0  0  0  0  0
   21.6937  -10.5156  -16.2107 C   0  0  1  0  0  0  0  0  0  0  0  0
   20.3302  -10.9624  -15.7950 C   0  0  0  0  0  0  0  0  0  0  0  0
   19.1633   -9.6158  -16.1101 S   0  0  0  0  0  0  0  0  0  0  0  0
   22.1049   -9.2355  -15.5595 C   0  0  0  0  0  0  0  0  0  0  0  0
   22.8585   -9.2922  -14.5468 O   0  0  0  0  0  0  0  0  0  0  0  0
   22.7583   -4.3505  -14.1873 N   0  0  0  0  0  0  0  0  0  0  0  0
   23.4636   -4.7147  -15.3628 C   0  0  0  0  0  0  0  0  0  0  0  0
   24.3669   -3.9470  -15.7734 O   0  0  0  0  0  0  0  0  0  0  0  0
   23.1214   -5.9753  -16.0675 C   0  0  0  0  0  0  0  0  0  0  0  0
   22.0405   -6.7439  -15.3372 C   0  0  2  0  0  0  0  0  0  0  0  0
   21.7036   -7.9706  -16.0060 N   0  0  0  0  0  0  0  0  0  0  0  0
   20.8938   -5.8358  -15.1618 C   0  0  0  0  0  0  0  0  0  0  0  0
   19.9939   -5.8616  -16.0418 O   0  0  0  0  0  0  0  0  0  0  0  0
   20.7247   -4.9605  -14.1139 O   0  0  0  0  0  0  0  0  0  0  0  0
  2  3  1  1
  2  1  1  0
  4  2  1  0
  5  7  1  0
  5  4  1  0
  5  6  1  6
  7  9  1  0
  8  7  2  0
  9 10  1  0
 10 13  1  0
 10 11  1  1
 11 12  1  0
 13 14  2  0
 13 20  1  0
 16 18  1  0
 16 15  1  0
 17 16  2  0
 19 21  1  0
 19 18  1  6
 20 19  1  0
 21 23  1  0
 22 21  2  0
M  END
$$$$
