LCN.pdb
     RDKit          3D

 23 22  0  0  1  0  0  0  0  0999 V2000
   23.0974  -11.9776  -15.9618 C   0  0  0  0  0  0  0  0  0  0  0  0
   23.5823  -10.6016  -15.6600 C   0  0  2  0  0  0  0  0  0  0  0  0
   25.1001  -10.5770  -15.7278 C   0  0  0  0  0  0  0  0  0  0  0  0
   23.0528   -9.9784  -14.4182 C   0  0  0  0  0  0  0  0  0  0  0  0
   21.5739   -9.8534  -14.3093 C   0  0  2  0  0  0  0  0  0  0  0  0
   20.9050   -9.5606  -15.5296 N   0  0  0  0  0  0  0  0  0  0  0  0
   21.2737   -8.9167  -13.1934 C   0  0  0  0  0  0  0  0  0  0  0  0
   21.9503   -8.9625  -12.1089 O   0  0  0  0  0  0  0  0  0  0  0  0
   20.2638   -7.9289  -13.2112 N   0  0  0  0  0  0  0  0  0  0  0  0
   20.0547   -6.9886  -12.1276 C   0  0  1  0  0  0  0  0  0  0  0  0
   20.6636   -5.6498  -12.3889 C   0  0  0  0  0  0  0  0  0  0  0  0
   20.0251   -5.0254  -13.9627 S   0  0  0  0  0  0  0  0  0  0  0  0
   18.6042   -6.9049  -11.7798 C   0  0  0  0  0  0  0  0  0  0  0  0
   17.7570   -6.9932  -12.7132 O   0  0  0  0  0  0  0  0  0  0  0  0
   14.1483   -8.1892   -8.7398 N   0  0  0  0  0  0  0  0  0  0  0  0
   14.9435   -7.0379   -8.5064 C   0  0  0  0  0  0  0  0  0  0  0  0
   14.3769   -6.0036   -8.0785 O   0  0  0  0  0  0  0  0  0  0  0  0
   16.4034   -7.0841   -8.7699 C   0  0  0  0  0  0  0  0  0  0  0  0
   16.7350   -6.5621  -10.1519 C   0  0  2  0  0  0  0  0  0  0  0  0
   18.1247   -6.7336  -10.4756 N   0  0  0  0  0  0  0  0  0  0  0  0
   16.2852   -5.1607  -10.2151 C   0  0  0  0  0  0  0  0  0  0  0  0
   17.0203   -4.2912   -9.6778 O   0  0  0  0  0  0  0  0  0  0  0  0
   15.1264   -4.7227  -10.8136 O   0  0  0  0  0  0  0  0  0  0  0  0
  2  3  1  1
  2  1  1  0
  4  2  1  0
  5  7  1  0
  5  4  1  0
  5  6  1  6
  7  9  1  0
  8  7  2  0
  9 10  1  0
 10 13  1  0
 10 11  1  6
 11 12  1  0
 13 14  2  0
 13 20  1  0
 16 18  1  0
 16 15  1  0
 17 16  2  0
 19 21  1  0
 19 18  1  1
 20 19  1  0
 21 23  1  0
 22 21  2  0
M  END
$$$$
