LCN.pdb
     RDKit          3D

 23 22  0  0  1  0  0  0  0  0999 V2000
   20.9338  -14.3484  -19.1234 C   0  0  0  0  0  0  0  0  0  0  0  0
   22.0423  -14.6243  -18.1670 C   0  0  2  0  0  0  0  0  0  0  0  0
   21.7312  -15.8916  -17.3884 C   0  0  0  0  0  0  0  0  0  0  0  0
   22.4452  -13.4947  -17.2881 C   0  0  0  0  0  0  0  0  0  0  0  0
   22.7599  -12.2037  -17.9582 C   0  0  2  0  0  0  0  0  0  0  0  0
   23.6845  -12.2962  -19.0348 N   0  0  0  0  0  0  0  0  0  0  0  0
   23.1249  -11.2177  -16.9059 C   0  0  0  0  0  0  0  0  0  0  0  0
   22.3999  -11.0876  -15.8602 O   0  0  0  0  0  0  0  0  0  0  0  0
   24.2511  -10.3658  -16.9463 N   0  0  0  0  0  0  0  0  0  0  0  0
   24.6032   -9.4645  -15.8665 C   0  0  1  0  0  0  0  0  0  0  0  0
   26.0765   -9.3727  -15.6378 C   0  0  0  0  0  0  0  0  0  0  0  0
   26.6722  -10.9856  -15.0741 S   0  0  0  0  0  0  0  0  0  0  0  0
   23.9667   -8.1285  -16.0712 C   0  0  0  0  0  0  0  0  0  0  0  0
   24.1119   -7.2506  -15.1740 O   0  0  0  0  0  0  0  0  0  0  0  0
   24.1125   -4.9653  -18.9898 N   0  0  0  0  0  0  0  0  0  0  0  0
   22.9429   -5.5043  -19.5845 C   0  0  0  0  0  0  0  0  0  0  0  0
   22.7234   -5.2527  -20.7938 O   0  0  0  0  0  0  0  0  0  0  0  0
   22.0217   -6.3398  -18.7744 C   0  0  0  0  0  0  0  0  0  0  0  0
   22.5399   -6.5308  -17.3647 C   0  0  2  0  0  0  0  0  0  0  0  0
   23.2152   -7.7891  -17.2027 N   0  0  0  0  0  0  0  0  0  0  0  0
   21.4014   -6.3522  -16.4469 C   0  0  0  0  0  0  0  0  0  0  0  0
   21.2530   -5.2180  -15.9211 O   0  0  0  0  0  0  0  0  0  0  0  0
   20.4854   -7.3240  -16.1163 O   0  0  0  0  0  0  0  0  0  0  0  0
  2  3  1  1
  2  1  1  0
  4  2  1  0
  5  7  1  0
  5  4  1  0
  5  6  1  6
  7  9  1  0
  8  7  2  0
  9 10  1  0
 10 13  1  0
 10 11  1  6
 11 12  1  0
 13 14  2  0
 13 20  1  0
 16 18  1  0
 16 15  1  0
 17 16  2  0
 19 21  1  0
 19 18  1  6
 20 19  1  0
 21 23  1  0
 22 21  2  0
M  END
$$$$
