LCN.pdb
     RDKit          3D

 23 22  0  0  1  0  0  0  0  0999 V2000
   26.5332  -17.2704  -16.1098 C   0  0  0  0  0  0  0  0  0  0  0  0
   25.8493  -15.9561  -15.9535 C   0  0  2  0  0  0  0  0  0  0  0  0
   26.7964  -14.9723  -15.2871 C   0  0  0  0  0  0  0  0  0  0  0  0
   24.5089  -15.9877  -15.3109 C   0  0  0  0  0  0  0  0  0  0  0  0
   23.4924  -16.8845  -15.9252 C   0  0  2  0  0  0  0  0  0  0  0  0
   23.6325  -17.0789  -17.3269 N   0  0  0  0  0  0  0  0  0  0  0  0
   22.1479  -16.4188  -15.4916 C   0  0  0  0  0  0  0  0  0  0  0  0
   21.8958  -16.2305  -14.2518 O   0  0  0  0  0  0  0  0  0  0  0  0
   21.0639  -16.1484  -16.3563 N   0  0  0  0  0  0  0  0  0  0  0  0
   19.7837  -15.6505  -15.8919 C   0  0  1  0  0  0  0  0  0  0  0  0
   19.5008  -14.2544  -16.3416 C   0  0  0  0  0  0  0  0  0  0  0  0
   20.8793  -13.1972  -15.8356 S   0  0  0  0  0  0  0  0  0  0  0  0
   18.6906  -16.6043  -16.2485 C   0  0  0  0  0  0  0  0  0  0  0  0
   18.7172  -17.1489  -17.3885 O   0  0  0  0  0  0  0  0  0  0  0  0
   18.2276  -19.9832  -15.5875 N   0  0  0  0  0  0  0  0  0  0  0  0
   17.1435  -19.9564  -14.6731 C   0  0  0  0  0  0  0  0  0  0  0  0
   16.9984  -20.9320  -13.8977 O   0  0  0  0  0  0  0  0  0  0  0  0
   16.2217  -18.7933  -14.6560 C   0  0  0  0  0  0  0  0  0  0  0  0
   16.5520  -17.8067  -15.7559 C   0  0  2  0  0  0  0  0  0  0  0  0
   17.6333  -16.9328  -15.3915 N   0  0  0  0  0  0  0  0  0  0  0  0
   15.3094  -17.0933  -16.0981 C   0  0  0  0  0  0  0  0  0  0  0  0
   15.0647  -16.0251  -15.4786 O   0  0  0  0  0  0  0  0  0  0  0  0
   14.3926  -17.4987  -17.0405 O   0  0  0  0  0  0  0  0  0  0  0  0
  2  3  1  1
  2  1  1  0
  4  2  1  0
  5  7  1  0
  5  4  1  0
  5  6  1  6
  7  9  1  0
  8  7  2  0
  9 10  1  0
 10 13  1  0
 10 11  1  6
 11 12  1  0
 13 14  2  0
 13 20  1  0
 16 18  1  0
 16 15  1  0
 17 16  2  0
 19 21  1  0
 19 18  1  1
 20 19  1  0
 21 23  1  0
 22 21  2  0
M  END
$$$$
