LCN.pdb
     RDKit          3D

 23 22  0  0  1  0  0  0  0  0999 V2000
   26.9513  -19.8856   -4.1972 C   0  0  0  0  0  0  0  0  0  0  0  0
   27.9188  -19.7143   -5.3172 C   0  0  2  0  0  0  0  0  0  0  0  0
   29.1181  -18.9192   -4.8287 C   0  0  0  0  0  0  0  0  0  0  0  0
   27.3601  -19.1870   -6.5902 C   0  0  0  0  0  0  0  0  0  0  0  0
   26.2758  -19.9832   -7.2266 C   0  0  2  0  0  0  0  0  0  0  0  0
   26.2857  -21.3699   -6.9118 N   0  0  0  0  0  0  0  0  0  0  0  0
   26.2734  -19.6742   -8.6817 C   0  0  0  0  0  0  0  0  0  0  0  0
   26.2377  -18.4614   -9.0867 O   0  0  0  0  0  0  0  0  0  0  0  0
   26.3089  -20.6354   -9.7164 N   0  0  0  0  0  0  0  0  0  0  0  0
   26.1994  -20.2932  -11.1211 C   0  0  1  0  0  0  0  0  0  0  0  0
   27.4563  -20.5511  -11.8860 C   0  0  0  0  0  0  0  0  0  0  0  0
   28.2770  -21.9971  -11.1721 S   0  0  0  0  0  0  0  0  0  0  0  0
   25.0071  -20.9563  -11.7299 C   0  0  0  0  0  0  0  0  0  0  0  0
   24.7253  -22.1339  -11.3686 O   0  0  0  0  0  0  0  0  0  0  0  0
   20.6831  -22.0744  -14.2050 N   0  0  0  0  0  0  0  0  0  0  0  0
   20.5328  -20.9452  -13.3598 C   0  0  0  0  0  0  0  0  0  0  0  0
   19.3711  -20.5418  -13.1114 O   0  0  0  0  0  0  0  0  0  0  0  0
   21.7344  -20.2789  -12.7986 C   0  0  0  0  0  0  0  0  0  0  0  0
   23.0081  -20.9713  -13.2351 C   0  0  2  0  0  0  0  0  0  0  0  0
   24.1791  -20.3485  -12.6814 N   0  0  0  0  0  0  0  0  0  0  0  0
   23.0058  -21.0144  -14.7076 C   0  0  0  0  0  0  0  0  0  0  0  0
   23.8315  -20.2798  -15.3104 O   0  0  0  0  0  0  0  0  0  0  0  0
   22.1745  -21.7925  -15.4799 O   0  0  0  0  0  0  0  0  0  0  0  0
  2  3  1  1
  2  1  1  0
  4  2  1  0
  5  7  1  0
  5  4  1  0
  5  6  1  6
  7  9  1  0
  8  7  2  0
  9 10  1  0
 10 13  1  0
 10 11  1  6
 11 12  1  0
 13 14  2  0
 13 20  1  0
 16 18  1  0
 16 15  1  0
 17 16  2  0
 19 21  1  0
 19 18  1  6
 20 19  1  0
 21 23  1  0
 22 21  2  0
M  END
$$$$
