LCN.pdb
     RDKit          3D

 23 22  0  0  1  0  0  0  0  0999 V2000
   26.7784  -21.0261   -6.2376 C   0  0  0  0  0  0  0  0  0  0  0  0
   27.7404  -20.2396   -7.0596 C   0  0  2  0  0  0  0  0  0  0  0  0
   28.3445  -19.1356   -6.2080 C   0  0  0  0  0  0  0  0  0  0  0  0
   27.2329  -19.7442   -8.3664 C   0  0  0  0  0  0  0  0  0  0  0  0
   26.7516  -20.7703   -9.3308 C   0  0  2  0  0  0  0  0  0  0  0  0
   27.7709  -21.5784   -9.9056 N   0  0  0  0  0  0  0  0  0  0  0  0
   25.8630  -20.0947  -10.3139 C   0  0  0  0  0  0  0  0  0  0  0  0
   26.0890  -18.8868  -10.6689 O   0  0  0  0  0  0  0  0  0  0  0  0
   24.7352  -20.6834  -10.9283 N   0  0  0  0  0  0  0  0  0  0  0  0
   24.2818  -20.3295  -12.2593 C   0  0  1  0  0  0  0  0  0  0  0  0
   25.3197  -20.5540  -13.3100 C   0  0  0  0  0  0  0  0  0  0  0  0
   25.8453  -22.2839  -13.2382 S   0  0  0  0  0  0  0  0  0  0  0  0
   22.9891  -21.0108  -12.5703 C   0  0  0  0  0  0  0  0  0  0  0  0
   22.9029  -22.2554  -12.3693 O   0  0  0  0  0  0  0  0  0  0  0  0
   19.4175  -18.5739  -11.2165 N   0  0  0  0  0  0  0  0  0  0  0  0
   19.1373  -19.8437  -11.7833 C   0  0  0  0  0  0  0  0  0  0  0  0
   18.6428  -20.7270  -11.0422 O   0  0  0  0  0  0  0  0  0  0  0  0
   19.4312  -20.0927  -13.2166 C   0  0  0  0  0  0  0  0  0  0  0  0
   20.6241  -21.0093  -13.3878 C   0  0  2  0  0  0  0  0  0  0  0  0
   21.8619  -20.3501  -13.0734 N   0  0  0  0  0  0  0  0  0  0  0  0
   20.5758  -21.5469  -14.7585 C   0  0  0  0  0  0  0  0  0  0  0  0
   19.5757  -22.2439  -15.0730 O   0  0  0  0  0  0  0  0  0  0  0  0
   21.5350  -21.3499  -15.7250 O   0  0  0  0  0  0  0  0  0  0  0  0
  2  3  1  1
  2  1  1  0
  4  2  1  0
  5  7  1  0
  5  4  1  0
  5  6  1  6
  7  9  1  0
  8  7  2  0
  9 10  1  0
 10 13  1  0
 10 11  1  6
 11 12  1  0
 13 14  2  0
 13 20  1  0
 16 18  1  0
 16 15  1  0
 17 16  2  0
 19 21  1  0
 19 18  1  6
 20 19  1  0
 21 23  1  0
 22 21  2  0
M  END
$$$$
