LCN.pdb
     RDKit          3D

 23 22  0  0  1  0  0  0  0  0999 V2000
   22.2142  -15.5764  -16.8898 C   0  0  0  0  0  0  0  0  0  0  0  0
   23.3556  -15.4023  -15.9483 C   0  0  2  0  0  0  0  0  0  0  0  0
   23.1232  -16.2558  -14.7128 C   0  0  0  0  0  0  0  0  0  0  0  0
   23.7229  -14.0002  -15.6169 C   0  0  0  0  0  0  0  0  0  0  0  0
   23.8726  -13.0587  -16.7597 C   0  0  2  0  0  0  0  0  0  0  0  0
   24.7562  -13.4952  -17.7849 N   0  0  0  0  0  0  0  0  0  0  0  0
   24.1757  -11.7113  -16.2073 C   0  0  0  0  0  0  0  0  0  0  0  0
   23.5375  -11.2689  -15.1909 O   0  0  0  0  0  0  0  0  0  0  0  0
   25.1491  -10.8239  -16.7182 N   0  0  0  0  0  0  0  0  0  0  0  0
   25.4152   -9.5207  -16.1412 C   0  0  1  0  0  0  0  0  0  0  0  0
   26.7913   -9.0199  -16.4365 C   0  0  0  0  0  0  0  0  0  0  0  0
   27.9883  -10.1809  -15.7341 S   0  0  0  0  0  0  0  0  0  0  0  0
   24.3509   -8.5479  -16.5321 C   0  0  0  0  0  0  0  0  0  0  0  0
   24.0043   -8.4931  -17.7461 O   0  0  0  0  0  0  0  0  0  0  0  0
   20.4048   -5.9947  -18.2104 N   0  0  0  0  0  0  0  0  0  0  0  0
   20.3539   -6.6380  -16.9472 C   0  0  0  0  0  0  0  0  0  0  0  0
   19.3740   -6.4006  -16.2007 O   0  0  0  0  0  0  0  0  0  0  0  0
   21.4439   -7.5619  -16.5457 C   0  0  0  0  0  0  0  0  0  0  0  0
   22.6349   -6.8084  -15.9925 C   0  0  2  0  0  0  0  0  0  0  0  0
   23.7112   -7.6893  -15.6301 N   0  0  0  0  0  0  0  0  0  0  0  0
   22.1530   -5.9782  -14.8750 C   0  0  0  0  0  0  0  0  0  0  0  0
   22.2453   -6.4578  -13.7147 O   0  0  0  0  0  0  0  0  0  0  0  0
   21.6096   -4.7199  -14.9948 O   0  0  0  0  0  0  0  0  0  0  0  0
  2  3  1  1
  2  1  1  0
  4  2  1  0
  5  7  1  0
  5  4  1  0
  5  6  1  6
  7  9  1  0
  8  7  2  0
  9 10  1  0
 10 13  1  0
 10 11  1  6
 11 12  1  0
 13 14  2  0
 13 20  1  0
 16 18  1  0
 16 15  1  0
 17 16  2  0
 19 21  1  0
 19 18  1  1
 20 19  1  0
 21 23  1  0
 22 21  2  0
M  END
$$$$
