LCN.pdb
     RDKit          3D

 23 22  0  0  1  0  0  0  0  0999 V2000
   17.3449  -14.4451    2.7125 C   0  0  0  0  0  0  0  0  0  0  0  0
   18.1670  -13.5210    3.5431 C   0  0  2  0  0  0  0  0  0  0  0  0
   19.5620  -13.4174    2.9495 C   0  0  0  0  0  0  0  0  0  0  0  0
   18.1836  -13.7937    5.0046 C   0  0  0  0  0  0  0  0  0  0  0  0
   16.8637  -13.8607    5.6887 C   0  0  2  0  0  0  0  0  0  0  0  0
   16.1920  -12.6141    5.8202 N   0  0  0  0  0  0  0  0  0  0  0  0
   17.0443  -14.6089    6.9616 C   0  0  0  0  0  0  0  0  0  0  0  0
   17.5156  -14.0232    7.9965 O   0  0  0  0  0  0  0  0  0  0  0  0
   16.7308  -15.9730    7.1537 N   0  0  0  0  0  0  0  0  0  0  0  0
   16.9522  -16.6691    8.4062 C   0  0  1  0  0  0  0  0  0  0  0  0
   15.9369  -17.7320    8.6723 C   0  0  0  0  0  0  0  0  0  0  0  0
   16.3020  -18.4868   10.2758 S   0  0  0  0  0  0  0  0  0  0  0  0
   18.3545  -17.1788    8.4809 C   0  0  0  0  0  0  0  0  0  0  0  0
   18.8897  -17.6208    7.4250 O   0  0  0  0  0  0  0  0  0  0  0  0
   23.8662  -16.4841   10.3230 N   0  0  0  0  0  0  0  0  0  0  0  0
   22.8669  -17.0953    9.5230 C   0  0  0  0  0  0  0  0  0  0  0  0
   23.1949  -18.0754    8.8119 O   0  0  0  0  0  0  0  0  0  0  0  0
   21.4793  -16.5689    9.5463 C   0  0  0  0  0  0  0  0  0  0  0  0
   20.4668  -17.6801    9.7254 C   0  0  2  0  0  0  0  0  0  0  0  0
   19.1152  -17.1964    9.6562 N   0  0  0  0  0  0  0  0  0  0  0  0
   20.7817  -18.3658   10.9907 C   0  0  0  0  0  0  0  0  0  0  0  0
   19.9323  -18.2924   11.9169 O   0  0  0  0  0  0  0  0  0  0  0  0
   21.9293  -19.0811   11.2442 O   0  0  0  0  0  0  0  0  0  0  0  0
  2  3  1  6
  2  1  1  0
  4  2  1  0
  5  7  1  0
  5  4  1  0
  5  6  1  1
  7  9  1  0
  8  7  2  0
  9 10  1  0
 10 13  1  0
 10 11  1  6
 11 12  1  0
 13 14  2  0
 13 20  1  0
 16 18  1  0
 16 15  1  0
 17 16  2  0
 19 21  1  0
 19 18  1  1
 20 19  1  0
 21 23  1  0
 22 21  2  0
M  END
$$$$
