LCN.pdb
     RDKit          3D

 23 22  0  0  1  0  0  0  0  0999 V2000
   18.6659  -10.7134  -19.9433 C   0  0  0  0  0  0  0  0  0  0  0  0
   17.7069  -11.1611  -18.8948 C   0  0  2  0  0  0  0  0  0  0  0  0
   16.2929  -11.1019  -19.4481 C   0  0  0  0  0  0  0  0  0  0  0  0
   17.8324  -10.5017  -17.5681 C   0  0  0  0  0  0  0  0  0  0  0  0
   19.2074  -10.3645  -17.0155 C   0  0  2  0  0  0  0  0  0  0  0  0
   19.7389  -11.5457  -16.4286 N   0  0  0  0  0  0  0  0  0  0  0  0
   19.2303   -9.1660  -16.1348 C   0  0  0  0  0  0  0  0  0  0  0  0
   18.6865   -9.2015  -14.9776 O   0  0  0  0  0  0  0  0  0  0  0  0
   19.8236   -7.9269  -16.4642 N   0  0  0  0  0  0  0  0  0  0  0  0
   19.8793   -6.8052  -15.5470 C   0  0  1  0  0  0  0  0  0  0  0  0
   20.9428   -6.9510  -14.5082 C   0  0  0  0  0  0  0  0  0  0  0  0
   22.5304   -7.1945  -15.3413 S   0  0  0  0  0  0  0  0  0  0  0  0
   19.9800   -5.5185  -16.2994 C   0  0  0  0  0  0  0  0  0  0  0  0
   20.7539   -5.4653  -17.2969 O   0  0  0  0  0  0  0  0  0  0  0  0
   19.4970   -0.7272  -18.0301 N   0  0  0  0  0  0  0  0  0  0  0  0
   18.2198   -1.3358  -17.9279 C   0  0  0  0  0  0  0  0  0  0  0  0
   17.2512   -0.7795  -18.4990 O   0  0  0  0  0  0  0  0  0  0  0  0
   18.0627   -2.5961  -17.1598 C   0  0  0  0  0  0  0  0  0  0  0  0
   19.3958   -3.1124  -16.6613 C   0  0  2  0  0  0  0  0  0  0  0  0
   19.2651   -4.3623  -15.9641 N   0  0  0  0  0  0  0  0  0  0  0  0
   20.0068   -2.0467  -15.8481 C   0  0  0  0  0  0  0  0  0  0  0  0
   19.7438   -2.0340  -14.6170 O   0  0  0  0  0  0  0  0  0  0  0  0
   20.8425   -1.0626  -16.3236 O   0  0  0  0  0  0  0  0  0  0  0  0
  2  3  1  6
  2  1  1  0
  4  2  1  0
  5  7  1  0
  5  4  1  0
  5  6  1  1
  7  9  1  0
  8  7  2  0
  9 10  1  0
 10 13  1  0
 10 11  1  1
 11 12  1  0
 13 14  2  0
 13 20  1  0
 16 18  1  0
 16 15  1  0
 17 16  2  0
 19 21  1  0
 19 18  1  1
 20 19  1  0
 21 23  1  0
 22 21  2  0
M  END
$$$$
