LCN.pdb
     RDKit          3D

 23 22  0  0  1  0  0  0  0  0999 V2000
   16.3102  -11.7129  -18.3315 C   0  0  0  0  0  0  0  0  0  0  0  0
   16.6837  -12.2909  -17.0102 C   0  0  2  0  0  0  0  0  0  0  0  0
   15.4217  -12.6307  -16.2349 C   0  0  0  0  0  0  0  0  0  0  0  0
   17.6589  -11.5086  -16.2053 C   0  0  0  0  0  0  0  0  0  0  0  0
   18.9094  -11.0866  -16.8929 C   0  0  2  0  0  0  0  0  0  0  0  0
   19.7242  -12.1527  -17.3639 N   0  0  0  0  0  0  0  0  0  0  0  0
   19.6075  -10.1088  -16.0159 C   0  0  0  0  0  0  0  0  0  0  0  0
   18.9752   -9.5137  -15.0767 O   0  0  0  0  0  0  0  0  0  0  0  0
   20.9706   -9.7524  -16.1203 N   0  0  0  0  0  0  0  0  0  0  0  0
   21.6477   -8.9135  -15.1508 C   0  0  1  0  0  0  0  0  0  0  0  0
   23.0853   -9.2754  -14.9666 C   0  0  0  0  0  0  0  0  0  0  0  0
   23.1728  -10.8347  -14.0527 S   0  0  0  0  0  0  0  0  0  0  0  0
   21.4540   -7.4697  -15.4820 C   0  0  0  0  0  0  0  0  0  0  0  0
   21.4942   -7.1217  -16.6961 O   0  0  0  0  0  0  0  0  0  0  0  0
   18.1775   -2.5790  -14.7205 N   0  0  0  0  0  0  0  0  0  0  0  0
   19.4235   -3.2112  -14.9653 C   0  0  0  0  0  0  0  0  0  0  0  0
   20.3208   -2.5491  -15.5401 O   0  0  0  0  0  0  0  0  0  0  0  0
   19.6323   -4.6184  -14.5421 C   0  0  0  0  0  0  0  0  0  0  0  0
   21.0405   -5.0858  -14.8436 C   0  0  2  0  0  0  0  0  0  0  0  0
   21.2295   -6.4741  -14.5236 N   0  0  0  0  0  0  0  0  0  0  0  0
   21.9665   -4.1872  -14.1327 C   0  0  0  0  0  0  0  0  0  0  0  0
   22.3412   -4.5335  -12.9818 O   0  0  0  0  0  0  0  0  0  0  0  0
   22.4566   -2.9990  -14.6235 O   0  0  0  0  0  0  0  0  0  0  0  0
  2  3  1  1
  2  1  1  0
  4  2  1  0
  5  7  1  0
  5  4  1  0
  5  6  1  1
  7  9  1  0
  8  7  2  0
  9 10  1  0
 10 13  1  0
 10 11  1  6
 11 12  1  0
 13 14  2  0
 13 20  1  0
 16 18  1  0
 16 15  1  0
 17 16  2  0
 19 21  1  0
 19 18  1  1
 20 19  1  0
 21 23  1  0
 22 21  2  0
M  END
$$$$
