FQV.pdb
     RDKit          3D

 28 28  0  0  1  0  0  0  0  0999 V2000
   26.7424  -18.3674   -8.1960 N   0  0  0  0  0  0  0  0  0  0  0  0
   26.9955  -19.7632   -8.5988 C   0  0  1  0  0  0  0  0  0  0  0  0
   26.7363  -20.6644   -7.4376 C   0  0  0  0  0  0  0  0  0  0  0  0
   27.5775  -20.3160   -6.2886 C   0  0  0  0  0  0  0  0  0  0  0  0
   27.1109  -19.6433   -5.1774 C   0  0  0  0  0  0  0  0  0  0  0  0
   27.9098  -19.3546   -4.1053 C   0  0  0  0  0  0  0  0  0  0  0  0
   29.2264  -19.7376   -4.1111 C   0  0  0  0  0  0  0  0  0  0  0  0
   29.7237  -20.4136   -5.2106 C   0  0  0  0  0  0  0  0  0  0  0  0
   28.9155  -20.6990   -6.2818 C   0  0  0  0  0  0  0  0  0  0  0  0
   26.1413  -20.0329   -9.7749 C   0  0  0  0  0  0  0  0  0  0  0  0
   24.9676  -19.5904   -9.7865 O   0  0  0  0  0  0  0  0  0  0  0  0
   26.7792  -19.7309  -15.3679 N   0  0  0  0  0  0  0  0  0  0  0  0
   27.9623  -19.7026  -14.5950 C   0  0  0  0  0  0  0  0  0  0  0  0
   28.8266  -18.8350  -14.8520 O   0  0  0  0  0  0  0  0  0  0  0  0
   28.2128  -20.6691  -13.4877 C   0  0  0  0  0  0  0  0  0  0  0  0
   27.0195  -21.5261  -13.2186 C   0  0  0  0  0  0  0  0  0  0  0  0
   26.0823  -20.9605  -12.1497 C   0  0  2  0  0  0  0  0  0  0  0  0
   26.6508  -20.7766  -10.8669 N   0  0  0  0  0  0  0  0  0  0  0  0
   24.7896  -21.6160  -12.2247 C   0  0  0  0  0  0  0  0  0  0  0  0
   24.6388  -22.8307  -11.8996 O   0  0  0  0  0  0  0  0  0  0  0  0
   21.0595  -19.4631  -12.5738 C   0  0  0  0  0  0  0  0  0  0  0  0
   21.2730  -20.7610  -11.8177 C   0  0  1  0  0  0  0  0  0  0  0  0
   19.9512  -21.4984  -11.8129 C   0  0  0  0  0  0  0  0  0  0  0  0
   22.2955  -21.5615  -12.5527 C   0  0  2  0  0  0  0  0  0  0  0  0
   23.5849  -20.9817  -12.6600 N   0  0  0  0  0  0  0  0  0  0  0  0
   21.7821  -21.8415  -13.9181 C   0  0  0  0  0  0  0  0  0  0  0  0
   22.3648  -21.3117  -15.0577 O   0  0  0  0  0  0  0  0  0  0  0  0
   20.7815  -22.5850  -14.0689 O   0  0  0  0  0  0  0  0  0  0  0  0
  2  1  1  1
  2  3  1  0
  3  4  1  0
  4  9  2  0
  5  4  1  0
  5  6  2  0
  6  7  1  0
  7  8  2  0
  9  8  1  0
 10  2  1  0
 10 18  1  0
 11 10  2  0
 13 15  1  0
 13 12  1  0
 14 13  2  0
 17 16  1  6
 16 15  1  0
 17 18  1  0
 19 17  1  0
 20 19  2  0
 22 21  1  6
 23 22  1  0
 24 25  1  6
 24 22  1  0
 25 19  1  0
 26 24  1  0
 27 26  1  0
 28 26  2  0
M  END
$$$$
