FQV.pdb
     RDKit          3D

 28 28  0  0  1  0  0  0  0  0999 V2000
   23.3066  -14.9419  -18.3829 N   0  0  0  0  0  0  0  0  0  0  0  0
   23.5275  -13.9410  -17.3225 C   0  0  1  0  0  0  0  0  0  0  0  0
   24.8872  -13.3469  -17.4833 C   0  0  0  0  0  0  0  0  0  0  0  0
   25.9391  -14.3436  -17.2613 C   0  0  0  0  0  0  0  0  0  0  0  0
   26.6330  -14.9611  -18.2822 C   0  0  0  0  0  0  0  0  0  0  0  0
   27.6302  -15.8677  -18.0481 C   0  0  0  0  0  0  0  0  0  0  0  0
   27.9714  -16.1912  -16.7601 C   0  0  0  0  0  0  0  0  0  0  0  0
   27.2942  -15.5889  -15.7151 C   0  0  0  0  0  0  0  0  0  0  0  0
   26.2952  -14.6808  -15.9588 C   0  0  0  0  0  0  0  0  0  0  0  0
   22.4250  -12.9610  -17.4199 C   0  0  0  0  0  0  0  0  0  0  0  0
   21.9315  -12.7130  -18.5463 O   0  0  0  0  0  0  0  0  0  0  0  0
   17.1977  -12.6168  -14.3111 N   0  0  0  0  0  0  0  0  0  0  0  0
   17.2747  -11.3285  -14.8873 C   0  0  0  0  0  0  0  0  0  0  0  0
   16.2505  -10.6094  -14.8891 O   0  0  0  0  0  0  0  0  0  0  0  0
   18.5318  -10.8004  -15.4904 C   0  0  0  0  0  0  0  0  0  0  0  0
   19.6343  -11.8070  -15.4458 C   0  0  0  0  0  0  0  0  0  0  0  0
   20.9164  -11.3488  -16.1437 C   0  0  2  0  0  0  0  0  0  0  0  0
   21.9388  -12.3211  -16.2541 N   0  0  0  0  0  0  0  0  0  0  0  0
   21.2926  -10.0277  -15.6752 C   0  0  0  0  0  0  0  0  0  0  0  0
   22.1299   -9.8664  -14.7389 O   0  0  0  0  0  0  0  0  0  0  0  0
   20.7133   -6.4804  -18.0176 C   0  0  0  0  0  0  0  0  0  0  0  0
   21.8427   -6.7390  -17.0381 C   0  0  1  0  0  0  0  0  0  0  0  0
   22.3298   -5.3912  -16.5512 C   0  0  0  0  0  0  0  0  0  0  0  0
   21.2915   -7.5210  -15.8929 C   0  0  2  0  0  0  0  0  0  0  0  0
   20.7749   -8.8044  -16.2031 N   0  0  0  0  0  0  0  0  0  0  0  0
   20.2219   -6.7186  -15.2461 C   0  0  0  0  0  0  0  0  0  0  0  0
   20.4930   -5.6221  -14.4443 O   0  0  0  0  0  0  0  0  0  0  0  0
   19.0175   -7.0284  -15.4192 O   0  0  0  0  0  0  0  0  0  0  0  0
  2  1  1  6
  2  3  1  0
  3  4  1  0
  4  9  2  0
  5  4  1  0
  5  6  2  0
  6  7  1  0
  7  8  2  0
  9  8  1  0
 10  2  1  0
 10 18  1  0
 11 10  2  0
 13 15  1  0
 13 12  1  0
 14 13  2  0
 17 16  1  1
 16 15  1  0
 17 18  1  0
 19 17  1  0
 20 19  2  0
 22 21  1  6
 23 22  1  0
 24 25  1  6
 24 22  1  0
 25 19  1  0
 26 24  1  0
 27 26  1  0
 28 26  2  0
M  END
$$$$
