FQV.pdb
     RDKit          3D

 28 28  0  0  1  0  0  0  0  0999 V2000
   28.6359  -21.9080   -9.5581 N   0  0  0  0  0  0  0  0  0  0  0  0
   27.4566  -21.0674   -9.2802 C   0  0  1  0  0  0  0  0  0  0  0  0
   27.9098  -19.7192   -8.8276 C   0  0  0  0  0  0  0  0  0  0  0  0
   28.1542  -19.6915   -7.3824 C   0  0  0  0  0  0  0  0  0  0  0  0
   29.3777  -19.9750   -6.8098 C   0  0  0  0  0  0  0  0  0  0  0  0
   29.5875  -19.9147   -5.4594 C   0  0  0  0  0  0  0  0  0  0  0  0
   28.5599  -19.5617   -4.6231 C   0  0  0  0  0  0  0  0  0  0  0  0
   27.3217  -19.2715   -5.1670 C   0  0  0  0  0  0  0  0  0  0  0  0
   27.1198  -19.3345   -6.5224 C   0  0  0  0  0  0  0  0  0  0  0  0
   26.6421  -21.0478  -10.5138 C   0  0  0  0  0  0  0  0  0  0  0  0
   27.2141  -21.1935  -11.6207 O   0  0  0  0  0  0  0  0  0  0  0  0
   20.1502  -20.3687  -10.5043 N   0  0  0  0  0  0  0  0  0  0  0  0
   20.4901  -20.7451  -11.8235 C   0  0  0  0  0  0  0  0  0  0  0  0
   19.5929  -20.7528  -12.6957 O   0  0  0  0  0  0  0  0  0  0  0  0
   21.8778  -21.1315  -12.2082 C   0  0  0  0  0  0  0  0  0  0  0  0
   22.8273  -21.0037  -11.0624 C   0  0  0  0  0  0  0  0  0  0  0  0
   24.2913  -20.8705  -11.4864 C   0  0  2  0  0  0  0  0  0  0  0  0
   25.2394  -20.8708  -10.4358 N   0  0  0  0  0  0  0  0  0  0  0  0
   24.4217  -19.8494  -12.5095 C   0  0  0  0  0  0  0  0  0  0  0  0
   24.3278  -18.6165  -12.2359 O   0  0  0  0  0  0  0  0  0  0  0  0
   27.2632  -19.0938  -14.7094 C   0  0  0  0  0  0  0  0  0  0  0  0
   26.0954  -19.1800  -15.6741 C   0  0  1  0  0  0  0  0  0  0  0  0
   26.1907  -20.5192  -16.3730 C   0  0  0  0  0  0  0  0  0  0  0  0
   24.8338  -19.1131  -14.8799 C   0  0  2  0  0  0  0  0  0  0  0  0
   24.6622  -20.1164  -13.8930 N   0  0  0  0  0  0  0  0  0  0  0  0
   23.6834  -19.1638  -15.8182 C   0  0  0  0  0  0  0  0  0  0  0  0
   23.3746  -18.1219  -16.6772 O   0  0  0  0  0  0  0  0  0  0  0  0
   22.9483  -20.1812  -15.8508 O   0  0  0  0  0  0  0  0  0  0  0  0
  2  1  1  6
  2  3  1  0
  3  4  1  0
  4  9  2  0
  5  4  1  0
  5  6  2  0
  6  7  1  0
  7  8  2  0
  9  8  1  0
 10  2  1  0
 10 18  1  0
 11 10  2  0
 13 15  1  0
 13 12  1  0
 14 13  2  0
 17 16  1  1
 16 15  1  0
 17 18  1  0
 19 17  1  0
 20 19  2  0
 22 21  1  1
 23 22  1  0
 24 25  1  1
 24 22  1  0
 25 19  1  0
 26 24  1  0
 27 26  1  0
 28 26  2  0
M  END
$$$$
