FQV.pdb
     RDKit          3D

 28 28  0  0  1  0  0  0  0  0999 V2000
   26.7998  -18.1683  -18.7000 N   0  0  0  0  0  0  0  0  0  0  0  0
   27.1706  -18.4781  -17.3068 C   0  0  1  0  0  0  0  0  0  0  0  0
   27.6979  -17.2444  -16.6528 C   0  0  0  0  0  0  0  0  0  0  0  0
   28.9399  -16.7897  -17.2851 C   0  0  0  0  0  0  0  0  0  0  0  0
   30.1518  -17.4334  -17.1367 C   0  0  0  0  0  0  0  0  0  0  0  0
   31.2914  -17.0051  -17.7603 C   0  0  0  0  0  0  0  0  0  0  0  0
   31.2537  -15.8978  -18.5680 C   0  0  0  0  0  0  0  0  0  0  0  0
   30.0536  -15.2310  -18.7368 C   0  0  0  0  0  0  0  0  0  0  0  0
   28.9154  -15.6673  -18.1075 C   0  0  0  0  0  0  0  0  0  0  0  0
   25.9675  -19.0392  -16.6562 C   0  0  0  0  0  0  0  0  0  0  0  0
   24.8375  -18.7496  -17.1176 O   0  0  0  0  0  0  0  0  0  0  0  0
   21.7087  -20.3192  -16.1383 N   0  0  0  0  0  0  0  0  0  0  0  0
   21.7841  -21.4012  -15.2321 C   0  0  0  0  0  0  0  0  0  0  0  0
   20.7397  -21.7712  -14.6506 O   0  0  0  0  0  0  0  0  0  0  0  0
   23.0627  -22.1134  -14.9478 C   0  0  0  0  0  0  0  0  0  0  0  0
   24.2097  -21.5136  -15.6931 C   0  0  0  0  0  0  0  0  0  0  0  0
   25.0890  -20.5979  -14.8390 C   0  0  2  0  0  0  0  0  0  0  0  0
   26.0998  -19.8917  -15.5334 N   0  0  0  0  0  0  0  0  0  0  0  0
   25.4635  -21.2730  -13.6100 C   0  0  0  0  0  0  0  0  0  0  0  0
   26.0625  -22.3888  -13.6189 O   0  0  0  0  0  0  0  0  0  0  0  0
   27.7980  -20.3138  -11.0898 C   0  0  0  0  0  0  0  0  0  0  0  0
   26.5788  -20.6433  -10.2490 C   0  0  1  0  0  0  0  0  0  0  0  0
   25.9570  -19.3289   -9.8287 C   0  0  0  0  0  0  0  0  0  0  0  0
   25.6209  -21.4055  -11.1024 C   0  0  2  0  0  0  0  0  0  0  0  0
   25.2047  -20.7678  -12.2982 N   0  0  0  0  0  0  0  0  0  0  0  0
   24.4202  -21.7284  -10.2898 C   0  0  0  0  0  0  0  0  0  0  0  0
   23.1589  -21.2456  -10.5975 O   0  0  0  0  0  0  0  0  0  0  0  0
   24.5296  -22.4663   -9.2797 O   0  0  0  0  0  0  0  0  0  0  0  0
  2  1  1  6
  2  3  1  0
  3  4  1  0
  4  9  2  0
  5  4  1  0
  5  6  2  0
  6  7  1  0
  7  8  2  0
  9  8  1  0
 10  2  1  0
 10 18  1  0
 11 10  2  0
 13 15  1  0
 13 12  1  0
 14 13  2  0
 17 16  1  6
 16 15  1  0
 17 18  1  0
 19 17  1  0
 20 19  2  0
 22 21  1  6
 23 22  1  0
 24 25  1  6
 24 22  1  0
 25 19  1  0
 26 24  1  0
 27 26  1  0
 28 26  2  0
M  END
$$$$
