FQV.pdb
     RDKit          3D

 28 28  0  0  1  0  0  0  0  0999 V2000
   27.8613  -21.8066  -15.9960 N   0  0  0  0  0  0  0  0  0  0  0  0
   27.6033  -21.0010  -14.7881 C   0  0  1  0  0  0  0  0  0  0  0  0
   28.0690  -19.6023  -15.0215 C   0  0  0  0  0  0  0  0  0  0  0  0
   29.5307  -19.5060  -14.9647 C   0  0  0  0  0  0  0  0  0  0  0  0
   30.3434  -19.5670  -16.0786 C   0  0  0  0  0  0  0  0  0  0  0  0
   31.7038  -19.4463  -16.0019 C   0  0  0  0  0  0  0  0  0  0  0  0
   32.3057  -19.2566  -14.7847 C   0  0  0  0  0  0  0  0  0  0  0  0
   31.5179  -19.1909  -13.6496 C   0  0  0  0  0  0  0  0  0  0  0  0
   30.1542  -19.3131  -13.7354 C   0  0  0  0  0  0  0  0  0  0  0  0
   26.1587  -21.1155  -14.4954 C   0  0  0  0  0  0  0  0  0  0  0  0
   25.3641  -21.3383  -15.4402 O   0  0  0  0  0  0  0  0  0  0  0  0
   23.7960  -21.0464   -8.3910 N   0  0  0  0  0  0  0  0  0  0  0  0
   22.6826  -21.2771   -9.2306 C   0  0  0  0  0  0  0  0  0  0  0  0
   21.5739  -21.5208   -8.7041 O   0  0  0  0  0  0  0  0  0  0  0  0
   22.7860  -21.2396  -10.7175 C   0  0  0  0  0  0  0  0  0  0  0  0
   24.1922  -21.0202  -11.1707 C   0  0  0  0  0  0  0  0  0  0  0  0
   24.3581  -21.0263  -12.6917 C   0  0  2  0  0  0  0  0  0  0  0  0
   25.6905  -20.9778  -13.1662 N   0  0  0  0  0  0  0  0  0  0  0  0
   23.3944  -20.1279  -13.3005 C   0  0  0  0  0  0  0  0  0  0  0  0
   23.4684  -18.8723  -13.1528 O   0  0  0  0  0  0  0  0  0  0  0  0
   22.6855  -19.7622  -16.9186 C   0  0  0  0  0  0  0  0  0  0  0  0
   21.3151  -19.9249  -16.2883 C   0  0  1  0  0  0  0  0  0  0  0  0
   20.8836  -21.3571  -16.5198 C   0  0  0  0  0  0  0  0  0  0  0  0
   21.4460  -19.6669  -14.8243 C   0  0  2  0  0  0  0  0  0  0  0  0
   22.2923  -20.5498  -14.1070 N   0  0  0  0  0  0  0  0  0  0  0  0
   20.0912  -19.7040  -14.2166 C   0  0  0  0  0  0  0  0  0  0  0  0
   19.1518  -18.7078  -14.4259 O   0  0  0  0  0  0  0  0  0  0  0  0
   19.7630  -20.6669  -13.4805 O   0  0  0  0  0  0  0  0  0  0  0  0
  2  1  1  6
  2  3  1  0
  3  4  1  0
  4  9  2  0
  5  4  1  0
  5  6  2  0
  6  7  1  0
  7  8  2  0
  9  8  1  0
 10  2  1  0
 10 18  1  0
 11 10  2  0
 13 15  1  0
 13 12  1  0
 14 13  2  0
 17 16  1  1
 16 15  1  0
 17 18  1  0
 19 17  1  0
 20 19  2  0
 22 21  1  6
 23 22  1  0
 24 25  1  1
 24 22  1  0
 25 19  1  0
 26 24  1  0
 27 26  1  0
 28 26  2  0
M  END
$$$$
