APG.pdb
     RDKit          3D

 17 17  0  0  1  0  0  0  0  0999 V2000
   27.4242  -18.4482  -14.6854 C   0  0  0  0  0  0  0  0  0  0  0  0
   27.7586  -19.9040  -14.3640 C   0  0  2  0  0  0  0  0  0  0  0  0
   28.4378  -20.4723  -15.5246 N   0  0  0  0  0  0  0  0  0  0  0  0
   26.5270  -20.6581  -14.0662 C   0  0  0  0  0  0  0  0  0  0  0  0
   25.9993  -21.3229  -15.0134 O   0  0  0  0  0  0  0  0  0  0  0  0
   25.9646  -20.6424  -12.7941 N   0  0  0  0  0  0  0  0  0  0  0  0
   26.5095  -19.9613  -11.6527 C   0  0  0  0  0  0  0  0  0  0  0  0
   26.0683  -20.6982  -10.4301 C   0  0  0  0  0  0  0  0  0  0  0  0
   24.7900  -21.3352  -10.8694 C   0  0  0  0  0  0  0  0  0  0  0  0
   24.7517  -21.2775  -12.3847 C   0  0  1  0  0  0  0  0  0  0  0  0
   23.5425  -20.5308  -12.8370 C   0  0  0  0  0  0  0  0  0  0  0  0
   23.5577  -19.2787  -12.7869 O   0  0  0  0  0  0  0  0  0  0  0  0
   22.4023  -21.2237  -13.3127 N   0  0  0  0  0  0  0  0  0  0  0  0
   21.2814  -20.5079  -13.8720 C   0  0  0  0  0  0  0  0  0  0  0  0
   20.0574  -20.7722  -13.0760 C   0  0  0  0  0  0  0  0  0  0  0  0
   19.7994  -21.9219  -12.6405 O   0  0  0  0  0  0  0  0  0  0  0  0
   19.1466  -19.7416  -12.7843 O   0  0  0  0  0  0  0  0  0  0  0  0
  2  1  1  6
  2  3  1  0
  4  5  2  0
  4  2  1  0
  6  4  1  0
  7  6  1  0
  8  7  1  0
  9  8  1  0
  9 10  1  0
 10 11  1  1
 10  6  1  0
 11 12  2  0
 13 14  1  0
 13 11  1  0
 14 15  1  0
 15 16  2  0
 15 17  1  0
M  END
$$$$
