APG.pdb
     RDKit          3D

 17 17  0  0  1  0  0  0  0  0999 V2000
   17.8879   -8.8659  -16.7062 C   0  0  0  0  0  0  0  0  0  0  0  0
   18.3948   -9.4585  -15.3923 C   0  0  2  0  0  0  0  0  0  0  0  0
   17.2900  -10.1869  -14.7759 N   0  0  0  0  0  0  0  0  0  0  0  0
   18.8698   -8.3871  -14.4975 C   0  0  0  0  0  0  0  0  0  0  0  0
   18.0527   -7.9350  -13.6338 O   0  0  0  0  0  0  0  0  0  0  0  0
   20.1655   -7.8906  -14.5951 N   0  0  0  0  0  0  0  0  0  0  0  0
   21.1326   -8.2805  -15.5832 C   0  0  0  0  0  0  0  0  0  0  0  0
   22.4905   -8.0978  -14.9872 C   0  0  0  0  0  0  0  0  0  0  0  0
   22.2683   -7.0170  -13.9796 C   0  0  0  0  0  0  0  0  0  0  0  0
   20.7721   -6.9056  -13.7563 C   0  0  1  0  0  0  0  0  0  0  0  0
   20.3087   -5.5254  -14.0797 C   0  0  0  0  0  0  0  0  0  0  0  0
   19.8686   -5.2951  -15.2303 O   0  0  0  0  0  0  0  0  0  0  0  0
   20.3657   -4.4981  -13.1061 N   0  0  0  0  0  0  0  0  0  0  0  0
   19.8011   -3.1968  -13.3696 C   0  0  0  0  0  0  0  0  0  0  0  0
   20.6526   -2.4555  -14.3325 C   0  0  0  0  0  0  0  0  0  0  0  0
   21.8983   -2.3905  -14.1844 O   0  0  0  0  0  0  0  0  0  0  0  0
   20.0899   -1.8017  -15.4428 O   0  0  0  0  0  0  0  0  0  0  0  0
  2  1  1  6
  2  3  1  0
  4  5  2  0
  4  2  1  0
  6  4  1  0
  7  6  1  0
  8  7  1  0
  9  8  1  0
  9 10  1  0
 10 11  1  6
 10  6  1  0
 11 12  2  0
 13 14  1  0
 13 11  1  0
 14 15  1  0
 15 16  2  0
 15 17  1  0
M  END
$$$$
