APG.pdb
     RDKit          3D

 17 17  0  0  1  0  0  0  0  0999 V2000
   26.3979  -18.6153  -16.7084 C   0  0  0  0  0  0  0  0  0  0  0  0
   26.9678  -20.0103  -16.4558 C   0  0  2  0  0  0  0  0  0  0  0  0
   26.7306  -20.8122  -17.6524 N   0  0  0  0  0  0  0  0  0  0  0  0
   26.3157  -20.6249  -15.2849 C   0  0  0  0  0  0  0  0  0  0  0  0
   25.2314  -21.2606  -15.4800 O   0  0  0  0  0  0  0  0  0  0  0  0
   26.8686  -20.5134  -14.0133 N   0  0  0  0  0  0  0  0  0  0  0  0
   28.0202  -19.7246  -13.6741 C   0  0  0  0  0  0  0  0  0  0  0  0
   28.6779  -20.3641  -12.4946 C   0  0  0  0  0  0  0  0  0  0  0  0
   27.5433  -21.0657  -11.8216 C   0  0  0  0  0  0  0  0  0  0  0  0
   26.4008  -21.1390  -12.8168 C   0  0  1  0  0  0  0  0  0  0  0  0
   25.1942  -20.4619  -12.2599 C   0  0  0  0  0  0  0  0  0  0  0  0
   25.0475  -19.2344  -12.4651 O   0  0  0  0  0  0  0  0  0  0  0  0
   24.2357  -21.1924  -11.5154 N   0  0  0  0  0  0  0  0  0  0  0  0
   22.9801  -20.5921  -11.1352 C   0  0  0  0  0  0  0  0  0  0  0  0
   21.9584  -20.8366  -12.1831 C   0  0  0  0  0  0  0  0  0  0  0  0
   21.1160  -21.7613  -12.0681 O   0  0  0  0  0  0  0  0  0  0  0  0
   21.9018  -20.0389  -13.3395 O   0  0  0  0  0  0  0  0  0  0  0  0
  2  1  1  6
  2  3  1  0
  4  5  2  0
  4  2  1  0
  6  4  1  0
  7  6  1  0
  8  7  1  0
  9  8  1  0
  9 10  1  0
 10 11  1  1
 10  6  1  0
 11 12  2  0
 13 14  1  0
 13 11  1  0
 14 15  1  0
 15 16  2  0
 15 17  1  0
M  END
$$$$
