APG.pdb
     RDKit          3D

 17 17  0  0  1  0  0  0  0  0999 V2000
   27.2446  -17.6956  -14.8346 C   0  0  0  0  0  0  0  0  0  0  0  0
   27.5979  -19.1668  -15.0480 C   0  0  2  0  0  0  0  0  0  0  0  0
   28.0829  -19.3149  -16.4169 N   0  0  0  0  0  0  0  0  0  0  0  0
   26.4124  -20.0149  -14.8257 C   0  0  0  0  0  0  0  0  0  0  0  0
   25.7679  -20.4073  -15.8497 O   0  0  0  0  0  0  0  0  0  0  0  0
   26.0153  -20.3729  -13.5416 N   0  0  0  0  0  0  0  0  0  0  0  0
   26.6675  -19.9691  -12.3270 C   0  0  0  0  0  0  0  0  0  0  0  0
   26.4197  -21.0293  -11.3037 C   0  0  0  0  0  0  0  0  0  0  0  0
   25.1276  -21.6298  -11.7538 C   0  0  0  0  0  0  0  0  0  0  0  0
   24.8952  -21.1857  -13.1855 C   0  0  1  0  0  0  0  0  0  0  0  0
   23.6047  -20.4453  -13.2875 C   0  0  0  0  0  0  0  0  0  0  0  0
   23.5630  -19.2564  -12.8934 O   0  0  0  0  0  0  0  0  0  0  0  0
   22.4519  -21.0739  -13.8187 N   0  0  0  0  0  0  0  0  0  0  0  0
   21.2553  -20.3157  -14.0923 C   0  0  0  0  0  0  0  0  0  0  0  0
   20.1446  -20.7831  -13.2265 C   0  0  0  0  0  0  0  0  0  0  0  0
   19.2712  -19.9868  -12.8010 O   0  0  0  0  0  0  0  0  0  0  0  0
   20.0356  -22.1347  -12.8548 O   0  0  0  0  0  0  0  0  0  0  0  0
  2  1  1  6
  2  3  1  0
  4  5  2  0
  4  2  1  0
  6  4  1  0
  7  6  1  0
  8  7  1  0
  9  8  1  0
  9 10  1  0
 10 11  1  1
 10  6  1  0
 11 12  2  0
 13 14  1  0
 13 11  1  0
 14 15  1  0
 15 16  2  0
 15 17  1  0
M  END
$$$$
