APG.pdb
     RDKit          3D

 17 17  0  0  1  0  0  0  0  0999 V2000
   27.5803  -19.0801  -16.0117 C   0  0  0  0  0  0  0  0  0  0  0  0
   27.9376  -20.5067  -15.5970 C   0  0  2  0  0  0  0  0  0  0  0  0
   28.4733  -21.1911  -16.7699 N   0  0  0  0  0  0  0  0  0  0  0  0
   26.7424  -21.2069  -15.0918 C   0  0  0  0  0  0  0  0  0  0  0  0
   26.0803  -21.9132  -15.9167 O   0  0  0  0  0  0  0  0  0  0  0  0
   26.3550  -21.0986  -13.7602 N   0  0  0  0  0  0  0  0  0  0  0  0
   27.0038  -20.2855  -12.7695 C   0  0  0  0  0  0  0  0  0  0  0  0
   26.7770  -20.9240  -11.4377 C   0  0  0  0  0  0  0  0  0  0  0  0
   25.4940  -21.6633  -11.6380 C   0  0  0  0  0  0  0  0  0  0  0  0
   25.2500  -21.7520  -13.1325 C   0  0  1  0  0  0  0  0  0  0  0  0
   23.9468  -21.1134  -13.4761 C   0  0  0  0  0  0  0  0  0  0  0  0
   23.9208  -19.8775  -13.6821 O   0  0  0  0  0  0  0  0  0  0  0  0
   22.7649  -21.8887  -13.5673 N   0  0  0  0  0  0  0  0  0  0  0  0
   21.6013  -21.3858  -14.2563 C   0  0  0  0  0  0  0  0  0  0  0  0
   20.5598  -20.9875  -13.2774 C   0  0  0  0  0  0  0  0  0  0  0  0
   20.0542  -21.8238  -12.4880 O   0  0  0  0  0  0  0  0  0  0  0  0
   20.1058  -19.6589  -13.2031 O   0  0  0  0  0  0  0  0  0  0  0  0
  2  1  1  6
  2  3  1  0
  4  5  2  0
  4  2  1  0
  6  4  1  0
  7  6  1  0
  8  7  1  0
  9  8  1  0
  9 10  1  0
 10 11  1  1
 10  6  1  0
 11 12  2  0
 13 14  1  0
 13 11  1  0
 14 15  1  0
 15 16  2  0
 15 17  1  0
M  END
$$$$
