APG.pdb
     RDKit          3D

 17 17  0  0  1  0  0  0  0  0999 V2000
   18.5921  -10.4936  -17.7162 C   0  0  0  0  0  0  0  0  0  0  0  0
   18.4778  -10.5853  -16.1953 C   0  0  2  0  0  0  0  0  0  0  0  0
   17.1077  -10.9734  -15.8736 N   0  0  0  0  0  0  0  0  0  0  0  0
   18.8048   -9.2866  -15.5786 C   0  0  0  0  0  0  0  0  0  0  0  0
   17.8470   -8.4771  -15.3662 O   0  0  0  0  0  0  0  0  0  0  0  0
   20.1142   -8.9606  -15.2409 N   0  0  0  0  0  0  0  0  0  0  0  0
   21.2681   -9.7737  -15.5068 C   0  0  0  0  0  0  0  0  0  0  0  0
   22.2908   -9.4676  -14.4614 C   0  0  0  0  0  0  0  0  0  0  0  0
   21.9552   -8.0654  -14.0690 C   0  0  0  0  0  0  0  0  0  0  0  0
   20.5606   -7.7705  -14.5878 C   0  0  1  0  0  0  0  0  0  0  0  0
   20.5958   -6.5992  -15.5102 C   0  0  0  0  0  0  0  0  0  0  0  0
   20.7418   -6.8069  -16.7374 O   0  0  0  0  0  0  0  0  0  0  0  0
   20.4668   -5.2809  -15.0082 N   0  0  0  0  0  0  0  0  0  0  0  0
   20.3536   -4.1557  -15.9041 C   0  0  0  0  0  0  0  0  0  0  0  0
   20.1789   -2.9017  -15.1304 C   0  0  0  0  0  0  0  0  0  0  0  0
   19.0376   -2.4234  -14.9144 O   0  0  0  0  0  0  0  0  0  0  0  0
   21.2880   -2.2087  -14.6141 O   0  0  0  0  0  0  0  0  0  0  0  0
  2  1  1  6
  2  3  1  0
  4  5  2  0
  4  2  1  0
  6  4  1  0
  7  6  1  0
  8  7  1  0
  9  8  1  0
  9 10  1  0
 10 11  1  6
 10  6  1  0
 11 12  2  0
 13 14  1  0
 13 11  1  0
 14 15  1  0
 15 16  2  0
 15 17  1  0
M  END
$$$$
