APG.pdb
     RDKit          3D

 17 17  0  0  1  0  0  0  0  0999 V2000
   16.6000  -18.0013    6.6951 C   0  0  0  0  0  0  0  0  0  0  0  0
   17.4713  -17.4897    5.5489 C   0  0  2  0  0  0  0  0  0  0  0  0
   16.6009  -16.8026    4.5994 N   0  0  0  0  0  0  0  0  0  0  0  0
   18.1655  -18.6132    4.8932 C   0  0  0  0  0  0  0  0  0  0  0  0
   17.7152  -19.0107    3.7720 O   0  0  0  0  0  0  0  0  0  0  0  0
   19.2734  -19.2149    5.4808 N   0  0  0  0  0  0  0  0  0  0  0  0
   19.8703  -18.8206    6.7265 C   0  0  0  0  0  0  0  0  0  0  0  0
   21.3182  -19.1854    6.6725 C   0  0  0  0  0  0  0  0  0  0  0  0
   21.3357  -20.3349    5.7180 C   0  0  0  0  0  0  0  0  0  0  0  0
   20.0123  -20.3294    4.9769 C   0  0  1  0  0  0  0  0  0  0  0  0
   19.3011  -21.6225    5.1919 C   0  0  0  0  0  0  0  0  0  0  0  0
   18.2143  -21.6123    5.8158 O   0  0  0  0  0  0  0  0  0  0  0  0
   19.8438  -22.8352    4.7007 N   0  0  0  0  0  0  0  0  0  0  0  0
   19.3184  -23.4509    3.5064 C   0  0  0  0  0  0  0  0  0  0  0  0
   17.9618  -23.9936    3.7653 C   0  0  0  0  0  0  0  0  0  0  0  0
   17.3706  -23.7776    4.8523 O   0  0  0  0  0  0  0  0  0  0  0  0
   17.2951  -24.7679    2.7995 O   0  0  0  0  0  0  0  0  0  0  0  0
  2  1  1  1
  2  3  1  0
  4  5  2  0
  4  2  1  0
  6  4  1  0
  7  6  1  0
  8  7  1  0
  9  8  1  0
  9 10  1  0
 10 11  1  1
 10  6  1  0
 11 12  2  0
 13 14  1  0
 13 11  1  0
 14 15  1  0
 15 16  2  0
 15 17  1  0
M  END
$$$$
