APG.pdb
     RDKit          3D

 17 17  0  0  1  0  0  0  0  0999 V2000
   15.7370  -14.6752    5.5367 C   0  0  0  0  0  0  0  0  0  0  0  0
   17.0162  -15.0940    4.8136 C   0  0  2  0  0  0  0  0  0  0  0  0
   16.8503  -16.4778    4.3791 N   0  0  0  0  0  0  0  0  0  0  0  0
   18.1767  -14.9715    5.7148 C   0  0  0  0  0  0  0  0  0  0  0  0
   18.6003  -16.0305    6.2777 O   0  0  0  0  0  0  0  0  0  0  0  0
   18.7857  -13.7412    5.9394 N   0  0  0  0  0  0  0  0  0  0  0  0
   18.3432  -12.4845    5.4024 C   0  0  0  0  0  0  0  0  0  0  0  0
   19.5387  -11.5970    5.2779 C   0  0  0  0  0  0  0  0  0  0  0  0
   20.4531  -12.1209    6.3372 C   0  0  0  0  0  0  0  0  0  0  0  0
   19.9404  -13.4897    6.7428 C   0  0  1  0  0  0  0  0  0  0  0  0
   19.6285  -13.5069    8.2011 C   0  0  0  0  0  0  0  0  0  0  0  0
   18.5113  -13.0842    8.5801 O   0  0  0  0  0  0  0  0  0  0  0  0
   20.5760  -13.9910    9.1362 N   0  0  0  0  0  0  0  0  0  0  0  0
   20.2864  -13.9927   10.5496 C   0  0  0  0  0  0  0  0  0  0  0  0
   19.3997  -15.1333   10.8884 C   0  0  0  0  0  0  0  0  0  0  0  0
   19.4223  -16.1966   10.2199 O   0  0  0  0  0  0  0  0  0  0  0  0
   18.5051  -15.0586   11.9704 O   0  0  0  0  0  0  0  0  0  0  0  0
  2  1  1  1
  2  3  1  0
  4  5  2  0
  4  2  1  0
  6  4  1  0
  7  6  1  0
  8  7  1  0
  9  8  1  0
  9 10  1  0
 10 11  1  1
 10  6  1  0
 11 12  2  0
 13 14  1  0
 13 11  1  0
 14 15  1  0
 15 16  2  0
 15 17  1  0
M  END
$$$$
