APG.pdb
     RDKit          3D

 17 17  0  0  1  0  0  0  0  0999 V2000
   26.6011  -16.7568  -14.6829 C   0  0  0  0  0  0  0  0  0  0  0  0
   26.7724  -18.1147  -15.3620 C   0  0  2  0  0  0  0  0  0  0  0  0
   26.3545  -17.9733  -16.7536 N   0  0  0  0  0  0  0  0  0  0  0  0
   25.9559  -19.1349  -14.6790 C   0  0  0  0  0  0  0  0  0  0  0  0
   24.7608  -19.3000  -15.0817 O   0  0  0  0  0  0  0  0  0  0  0  0
   26.4761  -19.8894  -13.6325 N   0  0  0  0  0  0  0  0  0  0  0  0
   27.8391  -19.8548  -13.1804 C   0  0  0  0  0  0  0  0  0  0  0  0
   28.1554  -21.1893  -12.5873 C   0  0  0  0  0  0  0  0  0  0  0  0
   26.8185  -21.6744  -12.1290 C   0  0  0  0  0  0  0  0  0  0  0  0
   25.7674  -20.8187  -12.8102 C   0  0  1  0  0  0  0  0  0  0  0  0
   24.9219  -20.1378  -11.7877 C   0  0  0  0  0  0  0  0  0  0  0  0
   25.4745  -19.6848  -10.7582 O   0  0  0  0  0  0  0  0  0  0  0  0
   23.5243  -20.0068  -11.9777 N   0  0  0  0  0  0  0  0  0  0  0  0
   22.6041  -20.9334  -11.3644 C   0  0  0  0  0  0  0  0  0  0  0  0
   21.4625  -21.1982  -12.2746 C   0  0  0  0  0  0  0  0  0  0  0  0
   21.4661  -20.7851  -13.4609 O   0  0  0  0  0  0  0  0  0  0  0  0
   20.3392  -21.9212  -11.8362 O   0  0  0  0  0  0  0  0  0  0  0  0
  2  1  1  1
  2  3  1  0
  4  5  2  0
  4  2  1  0
  6  4  1  0
  7  6  1  0
  8  7  1  0
  9  8  1  0
  9 10  1  0
 10 11  1  1
 10  6  1  0
 11 12  2  0
 13 14  1  0
 13 11  1  0
 14 15  1  0
 15 16  2  0
 15 17  1  0
M  END
$$$$
