YIM.pdb
     RDKit          3D

 29 29  0  0  1  0  0  0  0  0999 V2000
    1.0697  -20.6321   20.7067 O   0  0  0  0  0  0  0  0  0  0  0  0
    2.1824  -20.0663   21.3337 C   0  0  0  0  0  0  0  0  0  0  0  0
    3.3772  -20.7446   21.4487 C   0  0  0  0  0  0  0  0  0  0  0  0
    4.4595  -20.1653   22.0712 C   0  0  0  0  0  0  0  0  0  0  0  0
    4.4003  -18.8836   22.6074 C   0  0  0  0  0  0  0  0  0  0  0  0
    5.5912  -18.2923   23.2692 C   0  0  0  0  0  0  0  0  0  0  0  0
    6.0533  -17.1321   22.4161 C   0  0  2  0  0  0  0  0  0  0  0  0
    6.2195  -17.5975   21.0737 N   0  0  0  0  0  0  0  0  0  0  0  0
    7.2395  -16.4592   22.9778 C   0  0  0  0  0  0  0  0  0  0  0  0
    8.3388  -16.5829   22.3786 O   0  0  0  0  0  0  0  0  0  0  0  0
    3.1916  -18.2311   22.4765 C   0  0  0  0  0  0  0  0  0  0  0  0
    2.1082  -18.7966   21.8595 C   0  0  0  0  0  0  0  0  0  0  0  0
    5.7245  -12.2858   26.2066 C   0  0  0  0  0  0  0  0  0  0  0  0
    6.4537  -12.9156   25.0095 C   0  0  0  0  0  0  0  0  0  0  0  0
    7.6579  -13.6829   25.4692 C   0  0  2  0  0  0  0  0  0  0  0  0
    8.6378  -12.6904   26.0453 C   0  0  0  0  0  0  0  0  0  0  0  0
    8.1653  -14.5826   24.4286 C   0  0  2  0  0  0  0  0  0  0  0  0
    7.2437  -15.6816   24.1406 N   0  0  0  0  0  0  0  0  0  0  0  0
    9.4606  -15.2229   24.7229 C   0  0  0  0  0  0  0  0  0  0  0  0
   10.5721  -14.6150   24.4740 O   0  0  0  0  0  0  0  0  0  0  0  0
   11.1171  -13.2373   28.9711 C   0  0  0  0  0  0  0  0  0  0  0  0
   11.2541  -14.8636   29.7804 S   0  0  0  0  0  0  0  0  0  0  0  0
   11.4972  -16.1010   28.4715 C   0  0  0  0  0  0  0  0  0  0  0  0
   10.4941  -15.8560   27.4057 C   0  0  0  0  0  0  0  0  0  0  0  0
   10.7151  -16.8020   26.2459 C   0  0  2  0  0  0  0  0  0  0  0  0
    9.6411  -16.5085   25.2900 N   0  0  0  0  0  0  0  0  0  0  0  0
   10.5979  -18.2076   26.6710 C   0  0  0  0  0  0  0  0  0  0  0  0
   11.4327  -18.7033   27.4676 O   0  0  0  0  0  0  0  0  0  0  0  0
    9.5928  -19.0474   26.2372 O   0  0  0  0  0  0  0  0  0  0  0  0
  2  1  1  0
  3  2  2  0
  4  3  1  0
  5 11  1  0
  5  4  2  0
  6  5  1  0
  7  9  1  0
  7  6  1  0
  7  8  1  6
  9 10  2  0
 11 12  2  0
 12  2  1  0
 14 13  1  0
 15 16  1  6
 15 14  1  0
 15 17  1  0
 17 18  1  1
 18  9  1  0
 19 26  1  0
 19 17  1  0
 20 19  2  0
 22 23  1  0
 22 21  1  0
 23 24  1  0
 25 24  1  1
 25 26  1  0
 25 27  1  0
 27 29  1  0
 28 27  2  0
M  END
$$$$
