YIM.pdb
     RDKit          3D

 29 29  0  0  1  0  0  0  0  0999 V2000
    9.1378  -13.3022   15.8475 O   0  0  0  0  0  0  0  0  0  0  0  0
    8.7029  -13.6486   17.1290 C   0  0  0  0  0  0  0  0  0  0  0  0
    9.4950  -14.3694   17.9971 C   0  0  0  0  0  0  0  0  0  0  0  0
    9.0437  -14.6985   19.2551 C   0  0  0  0  0  0  0  0  0  0  0  0
    7.7823  -14.3242   19.7051 C   0  0  0  0  0  0  0  0  0  0  0  0
    7.3327  -14.6963   21.0708 C   0  0  0  0  0  0  0  0  0  0  0  0
    7.1526  -16.1978   21.0942 C   0  0  2  0  0  0  0  0  0  0  0  0
    6.0258  -16.5296   20.2778 N   0  0  0  0  0  0  0  0  0  0  0  0
    7.0884  -16.7345   22.4665 C   0  0  0  0  0  0  0  0  0  0  0  0
    6.0252  -16.5805   23.1214 O   0  0  0  0  0  0  0  0  0  0  0  0
    7.0138  -13.6041   18.8135 C   0  0  0  0  0  0  0  0  0  0  0  0
    7.4516  -13.2708   17.5598 C   0  0  0  0  0  0  0  0  0  0  0  0
    8.4604  -21.6113   24.0630 C   0  0  0  0  0  0  0  0  0  0  0  0
    7.8287  -20.2152   23.9464 C   0  0  0  0  0  0  0  0  0  0  0  0
    8.6539  -19.1996   24.6796 C   0  0  2  0  0  0  0  0  0  0  0  0
    8.8248  -19.6889   26.0969 C   0  0  0  0  0  0  0  0  0  0  0  0
    8.1300  -17.8408   24.5097 C   0  0  2  0  0  0  0  0  0  0  0  0
    8.1287  -17.4121   23.1111 N   0  0  0  0  0  0  0  0  0  0  0  0
    8.8555  -16.7871   25.2429 C   0  0  0  0  0  0  0  0  0  0  0  0
   10.0867  -16.5145   24.9658 O   0  0  0  0  0  0  0  0  0  0  0  0
    6.6713  -11.1971   26.6734 C   0  0  0  0  0  0  0  0  0  0  0  0
    7.5297  -11.4131   28.2656 S   0  0  0  0  0  0  0  0  0  0  0  0
    8.7278  -12.7637   28.0558 C   0  0  0  0  0  0  0  0  0  0  0  0
    8.1201  -13.7945   27.1781 C   0  0  0  0  0  0  0  0  0  0  0  0
    9.1019  -14.9174   26.9254 C   0  0  2  0  0  0  0  0  0  0  0  0
    8.3239  -15.9808   26.2794 N   0  0  0  0  0  0  0  0  0  0  0  0
    9.6571  -15.4379   28.1867 C   0  0  0  0  0  0  0  0  0  0  0  0
    9.0813  -16.3716   28.7982 O   0  0  0  0  0  0  0  0  0  0  0  0
   10.8127  -14.9507   28.7621 O   0  0  0  0  0  0  0  0  0  0  0  0
  2  1  1  0
  3  2  2  0
  4  3  1  0
  5 11  1  0
  5  4  2  0
  6  5  1  0
  7  9  1  0
  7  6  1  0
  7  8  1  1
  9 10  2  0
 11 12  2  0
 12  2  1  0
 14 13  1  0
 15 16  1  1
 15 14  1  0
 15 17  1  0
 17 18  1  6
 18  9  1  0
 19 26  1  0
 19 17  1  0
 20 19  2  0
 22 23  1  0
 22 21  1  0
 23 24  1  0
 25 24  1  1
 25 26  1  0
 25 27  1  0
 27 29  1  0
 28 27  2  0
M  END
$$$$
