YIM.pdb
     RDKit          3D

 29 29  0  0  1  0  0  0  0  0999 V2000
   12.2032  -23.2048   16.4761 O   0  0  0  0  0  0  0  0  0  0  0  0
   12.1713  -21.9793   17.1459 C   0  0  0  0  0  0  0  0  0  0  0  0
   11.8098  -21.8836   18.4729 C   0  0  0  0  0  0  0  0  0  0  0  0
   11.7860  -20.6642   19.1109 C   0  0  0  0  0  0  0  0  0  0  0  0
   12.1215  -19.4847   18.4553 C   0  0  0  0  0  0  0  0  0  0  0  0
   12.0862  -18.1885   19.1795 C   0  0  0  0  0  0  0  0  0  0  0  0
   10.6356  -17.8685   19.4637 C   0  0  2  0  0  0  0  0  0  0  0  0
    9.9230  -17.8660   18.2234 N   0  0  0  0  0  0  0  0  0  0  0  0
   10.4774  -16.6362   20.2585 C   0  0  0  0  0  0  0  0  0  0  0  0
   11.4657  -15.8663   20.3740 O   0  0  0  0  0  0  0  0  0  0  0  0
   12.4787  -19.6134   17.1287 C   0  0  0  0  0  0  0  0  0  0  0  0
   12.5061  -20.8205   16.4833 C   0  0  0  0  0  0  0  0  0  0  0  0
    7.2219  -12.8927   19.0554 C   0  0  0  0  0  0  0  0  0  0  0  0
    8.4107  -13.6242   19.6982 C   0  0  0  0  0  0  0  0  0  0  0  0
    8.0293  -14.1726   21.0413 C   0  0  2  0  0  0  0  0  0  0  0  0
    7.5207  -13.0224   21.8753 C   0  0  0  0  0  0  0  0  0  0  0  0
    9.0989  -14.9882   21.6249 C   0  0  2  0  0  0  0  0  0  0  0  0
    9.3001  -16.2458   20.9052 N   0  0  0  0  0  0  0  0  0  0  0  0
    8.9049  -15.3696   23.0359 C   0  0  0  0  0  0  0  0  0  0  0  0
    8.0250  -16.2541   23.3684 O   0  0  0  0  0  0  0  0  0  0  0  0
    6.2170  -11.3487   26.7362 C   0  0  0  0  0  0  0  0  0  0  0  0
    5.6473  -13.0785   26.6974 S   0  0  0  0  0  0  0  0  0  0  0  0
    7.1227  -14.1365   26.7835 C   0  0  0  0  0  0  0  0  0  0  0  0
    7.7857  -14.1216   25.4560 C   0  0  0  0  0  0  0  0  0  0  0  0
    9.0904  -14.8857   25.5094 C   0  0  2  0  0  0  0  0  0  0  0  0
    9.6219  -14.8507   24.1421 N   0  0  0  0  0  0  0  0  0  0  0  0
    8.8733  -16.2905   25.8960 C   0  0  0  0  0  0  0  0  0  0  0  0
    8.3908  -16.5740   27.0203 O   0  0  0  0  0  0  0  0  0  0  0  0
    9.1744  -17.3563   25.0732 O   0  0  0  0  0  0  0  0  0  0  0  0
  2  1  1  0
  3  2  2  0
  4  3  1  0
  5 11  1  0
  5  4  2  0
  6  5  1  0
  7  9  1  0
  7  6  1  0
  7  8  1  6
  9 10  2  0
 11 12  2  0
 12  2  1  0
 14 13  1  0
 15 16  1  1
 15 14  1  0
 15 17  1  0
 17 18  1  6
 18  9  1  0
 19 26  1  0
 19 17  1  0
 20 19  2  0
 22 23  1  0
 22 21  1  0
 23 24  1  0
 25 24  1  6
 25 26  1  0
 25 27  1  0
 27 29  1  0
 28 27  2  0
M  END
$$$$
