YIM.pdb
     RDKit          3D

 29 29  0  0  1  0  0  0  0  0999 V2000
    3.5731  -21.9602   21.1256 O   0  0  0  0  0  0  0  0  0  0  0  0
    4.5167  -21.1231   21.7260 C   0  0  0  0  0  0  0  0  0  0  0  0
    4.2292  -20.3993   22.8636 C   0  0  0  0  0  0  0  0  0  0  0  0
    5.1762  -19.5811   23.4366 C   0  0  0  0  0  0  0  0  0  0  0  0
    6.4528  -19.4472   22.9019 C   0  0  0  0  0  0  0  0  0  0  0  0
    7.4478  -18.5561   23.5513 C   0  0  0  0  0  0  0  0  0  0  0  0
    7.1834  -17.1499   23.0613 C   0  0  2  0  0  0  0  0  0  0  0  0
    7.4419  -17.1063   21.6550 N   0  0  0  0  0  0  0  0  0  0  0  0
    7.9123  -16.1354   23.8453 C   0  0  0  0  0  0  0  0  0  0  0  0
    9.0947  -15.8587   23.5160 O   0  0  0  0  0  0  0  0  0  0  0  0
    6.7096  -20.1841   21.7640 C   0  0  0  0  0  0  0  0  0  0  0  0
    5.7762  -21.0012   21.1848 C   0  0  0  0  0  0  0  0  0  0  0  0
    5.1760  -12.2848   26.5543 C   0  0  0  0  0  0  0  0  0  0  0  0
    6.3593  -12.8299   25.7393 C   0  0  0  0  0  0  0  0  0  0  0  0
    7.2545  -13.6673   26.6037 C   0  0  2  0  0  0  0  0  0  0  0  0
    7.9220  -12.7461   27.5953 C   0  0  0  0  0  0  0  0  0  0  0  0
    8.1345  -14.5299   25.8091 C   0  0  2  0  0  0  0  0  0  0  0  0
    7.3895  -15.4435   24.9429 N   0  0  0  0  0  0  0  0  0  0  0  0
    9.0515  -15.3845   26.5856 C   0  0  0  0  0  0  0  0  0  0  0  0
    8.6023  -16.3651   27.2952 O   0  0  0  0  0  0  0  0  0  0  0  0
   14.8683  -17.6968   24.2532 C   0  0  0  0  0  0  0  0  0  0  0  0
   14.3552  -16.0081   24.7042 S   0  0  0  0  0  0  0  0  0  0  0  0
   12.6528  -16.1091   25.3329 C   0  0  0  0  0  0  0  0  0  0  0  0
   12.6967  -16.0270   26.8140 C   0  0  0  0  0  0  0  0  0  0  0  0
   11.3080  -16.1869   27.3925 C   0  0  2  0  0  0  0  0  0  0  0  0
   10.4607  -15.2519   26.6433 N   0  0  0  0  0  0  0  0  0  0  0  0
   11.2752  -15.8159   28.8178 C   0  0  0  0  0  0  0  0  0  0  0  0
   10.9185  -14.6637   29.1675 O   0  0  0  0  0  0  0  0  0  0  0  0
   11.6218  -16.6836   29.8331 O   0  0  0  0  0  0  0  0  0  0  0  0
  2  1  1  0
  3  2  2  0
  4  3  1  0
  5 11  1  0
  5  4  2  0
  6  5  1  0
  7  9  1  0
  7  6  1  0
  7  8  1  6
  9 10  2  0
 11 12  2  0
 12  2  1  0
 14 13  1  0
 15 16  1  6
 15 14  1  0
 15 17  1  0
 17 18  1  1
 18  9  1  0
 19 26  1  0
 19 17  1  0
 20 19  2  0
 22 23  1  0
 22 21  1  0
 23 24  1  0
 25 24  1  6
 25 26  1  0
 25 27  1  0
 27 29  1  0
 28 27  2  0
M  END
$$$$
