YIM.pdb
     RDKit          3D

 29 29  0  0  1  0  0  0  0  0999 V2000
    2.4456  -23.0545   24.5980 O   0  0  0  0  0  0  0  0  0  0  0  0
    3.4723  -22.1251   24.4149 C   0  0  0  0  0  0  0  0  0  0  0  0
    4.5337  -22.0304   25.2897 C   0  0  0  0  0  0  0  0  0  0  0  0
    5.5334  -21.1061   25.0876 C   0  0  0  0  0  0  0  0  0  0  0  0
    5.5206  -20.2340   24.0045 C   0  0  0  0  0  0  0  0  0  0  0  0
    6.6196  -19.2522   23.8197 C   0  0  0  0  0  0  0  0  0  0  0  0
    6.6237  -18.8470   22.3626 C   0  0  2  0  0  0  0  0  0  0  0  0
    6.8195  -20.0207   21.5686 N   0  0  0  0  0  0  0  0  0  0  0  0
    7.5795  -17.7586   22.0849 C   0  0  0  0  0  0  0  0  0  0  0  0
    8.7574  -18.0624   21.7639 O   0  0  0  0  0  0  0  0  0  0  0  0
    4.4457  -20.3535   23.1476 C   0  0  0  0  0  0  0  0  0  0  0  0
    3.4455  -21.2687   23.3380 C   0  0  0  0  0  0  0  0  0  0  0  0
    5.9846  -13.2083   19.6410 C   0  0  0  0  0  0  0  0  0  0  0  0
    6.8466  -14.4068   20.0676 C   0  0  0  0  0  0  0  0  0  0  0  0
    7.5644  -14.1106   21.3509 C   0  0  2  0  0  0  0  0  0  0  0  0
    8.4372  -12.9021   21.1161 C   0  0  0  0  0  0  0  0  0  0  0  0
    8.2205  -15.3012   21.9002 C   0  0  2  0  0  0  0  0  0  0  0  0
    7.2801  -16.3937   22.1498 N   0  0  0  0  0  0  0  0  0  0  0  0
    8.9345  -15.0987   23.1743 C   0  0  0  0  0  0  0  0  0  0  0  0
    8.6043  -14.1402   23.9739 O   0  0  0  0  0  0  0  0  0  0  0  0
    9.0818  -13.0116   27.8003 C   0  0  0  0  0  0  0  0  0  0  0  0
    9.1567  -14.7195   28.4295 S   0  0  0  0  0  0  0  0  0  0  0  0
   10.2799  -15.6480   27.3433 C   0  0  0  0  0  0  0  0  0  0  0  0
    9.6536  -15.7497   26.0018 C   0  0  0  0  0  0  0  0  0  0  0  0
   10.6970  -15.5860   24.9187 C   0  0  2  0  0  0  0  0  0  0  0  0
   10.0064  -15.8876   23.6596 N   0  0  0  0  0  0  0  0  0  0  0  0
   11.8036  -16.5429   25.0915 C   0  0  0  0  0  0  0  0  0  0  0  0
   11.8997  -17.5467   24.3430 O   0  0  0  0  0  0  0  0  0  0  0  0
   12.7798  -16.4037   26.0566 O   0  0  0  0  0  0  0  0  0  0  0  0
  2  1  1  0
  3  2  2  0
  4  3  1  0
  5 11  1  0
  5  4  2  0
  6  5  1  0
  7  9  1  0
  7  6  1  0
  7  8  1  6
  9 10  2  0
 11 12  2  0
 12  2  1  0
 14 13  1  0
 15 16  1  6
 15 14  1  0
 15 17  1  0
 17 18  1  1
 18  9  1  0
 19 26  1  0
 19 17  1  0
 20 19  2  0
 22 23  1  0
 22 21  1  0
 23 24  1  0
 25 24  1  1
 25 26  1  0
 25 27  1  0
 27 29  1  0
 28 27  2  0
M  END
$$$$
