YIM.pdb
     RDKit          3D

 29 29  0  0  1  0  0  0  0  0999 V2000
    7.6099  -14.7028   14.5358 O   0  0  0  0  0  0  0  0  0  0  0  0
    7.7234  -14.4724   15.9089 C   0  0  0  0  0  0  0  0  0  0  0  0
    8.1916  -15.4388   16.7735 C   0  0  0  0  0  0  0  0  0  0  0  0
    8.2943  -15.1874   18.1229 C   0  0  0  0  0  0  0  0  0  0  0  0
    7.9349  -13.9614   18.6719 C   0  0  0  0  0  0  0  0  0  0  0  0
    8.0629  -13.7281   20.1331 C   0  0  0  0  0  0  0  0  0  0  0  0
    8.5344  -15.0220   20.7581 C   0  0  2  0  0  0  0  0  0  0  0  0
    7.4867  -15.9887   20.6386 N   0  0  0  0  0  0  0  0  0  0  0  0
    9.0331  -14.8326   22.1332 C   0  0  0  0  0  0  0  0  0  0  0  0
   10.0986  -14.1849   22.3006 O   0  0  0  0  0  0  0  0  0  0  0  0
    7.4703  -13.0155   17.7812 C   0  0  0  0  0  0  0  0  0  0  0  0
    7.3637  -13.2536   16.4372 C   0  0  0  0  0  0  0  0  0  0  0  0
    6.1282  -12.5760   25.5689 C   0  0  0  0  0  0  0  0  0  0  0  0
    7.2723  -13.1997   24.7544 C   0  0  0  0  0  0  0  0  0  0  0  0
    7.8346  -14.3956   25.4640 C   0  0  2  0  0  0  0  0  0  0  0  0
    8.2485  -13.9523   26.8459 C   0  0  0  0  0  0  0  0  0  0  0  0
    8.8500  -15.0834   24.6605 C   0  0  2  0  0  0  0  0  0  0  0  0
    8.4093  -15.3213   23.2859 N   0  0  0  0  0  0  0  0  0  0  0  0
    9.2747  -16.4001   25.1704 C   0  0  0  0  0  0  0  0  0  0  0  0
    8.4069  -17.3160   25.4445 O   0  0  0  0  0  0  0  0  0  0  0  0
   11.0666  -13.0860   29.0683 C   0  0  0  0  0  0  0  0  0  0  0  0
   10.4620  -14.5747   29.9267 S   0  0  0  0  0  0  0  0  0  0  0  0
   11.0597  -16.0168   28.9958 C   0  0  0  0  0  0  0  0  0  0  0  0
   10.6599  -15.8541   27.5760 C   0  0  0  0  0  0  0  0  0  0  0  0
   11.1401  -17.0304   26.7547 C   0  0  2  0  0  0  0  0  0  0  0  0
   10.6111  -16.8080   25.4041 N   0  0  0  0  0  0  0  0  0  0  0  0
   10.5999  -18.3002   27.2704 C   0  0  0  0  0  0  0  0  0  0  0  0
    9.4999  -18.3248   27.8759 O   0  0  0  0  0  0  0  0  0  0  0  0
   11.2456  -19.5109   27.1254 O   0  0  0  0  0  0  0  0  0  0  0  0
  2  1  1  0
  3  2  2  0
  4  3  1  0
  5 11  1  0
  5  4  2  0
  6  5  1  0
  7  9  1  0
  7  6  1  0
  7  8  1  1
  9 10  2  0
 11 12  2  0
 12  2  1  0
 14 13  1  0
 15 16  1  1
 15 14  1  0
 15 17  1  0
 17 18  1  6
 18  9  1  0
 19 26  1  0
 19 17  1  0
 20 19  2  0
 22 23  1  0
 22 21  1  0
 23 24  1  0
 25 24  1  1
 25 26  1  0
 25 27  1  0
 27 29  1  0
 28 27  2  0
M  END
$$$$
