YIM.pdb
     RDKit          3D

 29 29  0  0  1  0  0  0  0  0999 V2000
    8.9712  -22.8677   29.6789 O   0  0  0  0  0  0  0  0  0  0  0  0
    8.6318  -21.6224   29.1445 C   0  0  0  0  0  0  0  0  0  0  0  0
    7.3196  -21.2255   28.9985 C   0  0  0  0  0  0  0  0  0  0  0  0
    7.0108  -19.9930   28.4691 C   0  0  0  0  0  0  0  0  0  0  0  0
    7.9957  -19.1002   28.0611 C   0  0  0  0  0  0  0  0  0  0  0  0
    7.6218  -17.7781   27.4970 C   0  0  0  0  0  0  0  0  0  0  0  0
    6.9137  -18.0303   26.1846 C   0  0  2  0  0  0  0  0  0  0  0  0
    7.2979  -19.3223   25.7057 N   0  0  0  0  0  0  0  0  0  0  0  0
    7.1192  -16.9369   25.2163 C   0  0  0  0  0  0  0  0  0  0  0  0
    7.6408  -17.2108   24.1046 O   0  0  0  0  0  0  0  0  0  0  0  0
    9.2984  -19.5264   28.2200 C   0  0  0  0  0  0  0  0  0  0  0  0
    9.6181  -20.7496   28.7452 C   0  0  0  0  0  0  0  0  0  0  0  0
    5.0956  -12.2214   26.7681 C   0  0  0  0  0  0  0  0  0  0  0  0
    5.4613  -13.2515   25.6880 C   0  0  0  0  0  0  0  0  0  0  0  0
    6.9209  -13.1687   25.3522 C   0  0  2  0  0  0  0  0  0  0  0  0
    7.1199  -11.9512   24.4830 C   0  0  0  0  0  0  0  0  0  0  0  0
    7.4381  -14.4395   24.8354 C   0  0  2  0  0  0  0  0  0  0  0  0
    6.7764  -15.5984   25.4347 N   0  0  0  0  0  0  0  0  0  0  0  0
    8.8815  -14.6636   25.0369 C   0  0  0  0  0  0  0  0  0  0  0  0
    9.5404  -13.9878   25.9179 O   0  0  0  0  0  0  0  0  0  0  0  0
   10.2234  -13.8303   28.7565 C   0  0  0  0  0  0  0  0  0  0  0  0
   11.1801  -15.3601   28.5062 S   0  0  0  0  0  0  0  0  0  0  0  0
   11.9265  -15.2673   26.8516 C   0  0  0  0  0  0  0  0  0  0  0  0
   11.2569  -16.2653   25.9809 C   0  0  0  0  0  0  0  0  0  0  0  0
   11.1244  -15.7313   24.5717 C   0  0  2  0  0  0  0  0  0  0  0  0
    9.6820  -15.5990   24.3362 N   0  0  0  0  0  0  0  0  0  0  0  0
   11.6792  -16.6755   23.5864 C   0  0  0  0  0  0  0  0  0  0  0  0
   10.9185  -17.3104   22.8149 O   0  0  0  0  0  0  0  0  0  0  0  0
   13.0307  -16.9166   23.4482 O   0  0  0  0  0  0  0  0  0  0  0  0
  2  1  1  0
  3  2  2  0
  4  3  1  0
  5 11  1  0
  5  4  2  0
  6  5  1  0
  7  9  1  0
  7  6  1  0
  7  8  1  6
  9 10  2  0
 11 12  2  0
 12  2  1  0
 14 13  1  0
 15 16  1  6
 15 14  1  0
 15 17  1  0
 17 18  1  1
 18  9  1  0
 19 26  1  0
 19 17  1  0
 20 19  2  0
 22 23  1  0
 22 21  1  0
 23 24  1  0
 25 24  1  1
 25 26  1  0
 25 27  1  0
 27 29  1  0
 28 27  2  0
M  END
$$$$
