YIM.pdb
     RDKit          3D

 29 29  0  0  1  0  0  0  0  0999 V2000
   14.6838  -22.3355   17.0336 O   0  0  0  0  0  0  0  0  0  0  0  0
   14.3362  -21.3225   17.9306 C   0  0  0  0  0  0  0  0  0  0  0  0
   13.2592  -21.4422   18.7830 C   0  0  0  0  0  0  0  0  0  0  0  0
   12.9369  -20.4298   19.6580 C   0  0  0  0  0  0  0  0  0  0  0  0
   13.6733  -19.2521   19.7233 C   0  0  0  0  0  0  0  0  0  0  0  0
   13.2950  -18.1838   20.6833 C   0  0  0  0  0  0  0  0  0  0  0  0
   12.1063  -17.4523   20.1006 C   0  0  2  0  0  0  0  0  0  0  0  0
   12.5394  -16.7439   18.9358 N   0  0  0  0  0  0  0  0  0  0  0  0
   11.4168  -16.6152   21.1002 C   0  0  0  0  0  0  0  0  0  0  0  0
   11.9222  -15.5034   21.4024 O   0  0  0  0  0  0  0  0  0  0  0  0
   14.7444  -19.1626   18.8580 C   0  0  0  0  0  0  0  0  0  0  0  0
   15.0749  -20.1626   17.9833 C   0  0  0  0  0  0  0  0  0  0  0  0
    6.4385  -14.9918   20.8977 C   0  0  0  0  0  0  0  0  0  0  0  0
    7.9327  -15.1173   21.2342 C   0  0  0  0  0  0  0  0  0  0  0  0
    8.1283  -15.9527   22.4646 C   0  0  2  0  0  0  0  0  0  0  0  0
    7.2795  -15.3558   23.5602 C   0  0  0  0  0  0  0  0  0  0  0  0
    9.5479  -16.1585   22.7682 C   0  0  2  0  0  0  0  0  0  0  0  0
   10.2275  -16.9604   21.7508 N   0  0  0  0  0  0  0  0  0  0  0  0
    9.8295  -16.8299   24.0504 C   0  0  0  0  0  0  0  0  0  0  0  0
   10.0540  -18.1005   24.0979 O   0  0  0  0  0  0  0  0  0  0  0  0
   11.5816  -12.1108   28.4771 C   0  0  0  0  0  0  0  0  0  0  0  0
   10.5905  -13.5992   28.8248 S   0  0  0  0  0  0  0  0  0  0  0  0
   10.8765  -14.7701   27.4644 C   0  0  0  0  0  0  0  0  0  0  0  0
   10.0057  -15.9530   27.6759 C   0  0  0  0  0  0  0  0  0  0  0  0
   10.1841  -16.9474   26.5499 C   0  0  2  0  0  0  0  0  0  0  0  0
    9.8934  -16.2030   25.3192 N   0  0  0  0  0  0  0  0  0  0  0  0
    9.2289  -18.0631   26.6638 C   0  0  0  0  0  0  0  0  0  0  0  0
    8.0641  -17.9528   26.2076 O   0  0  0  0  0  0  0  0  0  0  0  0
    9.5412  -19.2679   27.2595 O   0  0  0  0  0  0  0  0  0  0  0  0
  2  1  1  0
  3  2  2  0
  4  3  1  0
  5 11  1  0
  5  4  2  0
  6  5  1  0
  7  9  1  0
  7  6  1  0
  7  8  1  6
  9 10  2  0
 11 12  2  0
 12  2  1  0
 14 13  1  0
 15 16  1  1
 15 14  1  0
 15 17  1  0
 17 18  1  6
 18  9  1  0
 19 26  1  0
 19 17  1  0
 20 19  2  0
 22 23  1  0
 22 21  1  0
 23 24  1  0
 25 24  1  1
 25 26  1  0
 25 27  1  0
 27 29  1  0
 28 27  2  0
M  END
$$$$
