YIM.pdb
     RDKit          3D

 29 29  0  0  1  0  0  0  0  0999 V2000
    5.0923  -24.1823   27.6612 O   0  0  0  0  0  0  0  0  0  0  0  0
    5.6533  -23.0703   27.0286 C   0  0  0  0  0  0  0  0  0  0  0  0
    5.4793  -21.7915   27.5134 C   0  0  0  0  0  0  0  0  0  0  0  0
    6.0425  -20.7117   26.8720 C   0  0  0  0  0  0  0  0  0  0  0  0
    6.8047  -20.8574   25.7180 C   0  0  0  0  0  0  0  0  0  0  0  0
    7.3980  -19.6674   25.0564 C   0  0  0  0  0  0  0  0  0  0  0  0
    6.2579  -18.8434   24.5008 C   0  0  2  0  0  0  0  0  0  0  0  0
    5.6233  -19.5942   23.4617 N   0  0  0  0  0  0  0  0  0  0  0  0
    6.6864  -17.4906   24.0988 C   0  0  0  0  0  0  0  0  0  0  0  0
    7.0942  -17.3159   22.9215 O   0  0  0  0  0  0  0  0  0  0  0  0
    6.9604  -22.1489   25.2580 C   0  0  0  0  0  0  0  0  0  0  0  0
    6.4053  -23.2308   25.8872 C   0  0  0  0  0  0  0  0  0  0  0  0
    5.1401  -12.8716   26.5554 C   0  0  0  0  0  0  0  0  0  0  0  0
    5.6704  -13.7660   25.4238 C   0  0  0  0  0  0  0  0  0  0  0  0
    7.1225  -14.0777   25.6338 C   0  0  2  0  0  0  0  0  0  0  0  0
    7.8918  -12.7883   25.4815 C   0  0  0  0  0  0  0  0  0  0  0  0
    7.5648  -15.2102   24.8143 C   0  0  2  0  0  0  0  0  0  0  0  0
    6.6767  -16.3667   24.9317 N   0  0  0  0  0  0  0  0  0  0  0  0
    8.9152  -15.7196   25.1157 C   0  0  0  0  0  0  0  0  0  0  0  0
    9.0960  -16.6239   26.0193 O   0  0  0  0  0  0  0  0  0  0  0  0
   10.7618  -13.0285   28.9744 C   0  0  0  0  0  0  0  0  0  0  0  0
   11.9291  -14.4205   29.1093 S   0  0  0  0  0  0  0  0  0  0  0  0
   12.3485  -14.9411   27.4192 C   0  0  0  0  0  0  0  0  0  0  0  0
   11.1112  -14.9091   26.6005 C   0  0  0  0  0  0  0  0  0  0  0  0
   11.4103  -15.3224   25.1762 C   0  0  2  0  0  0  0  0  0  0  0  0
   10.1162  -15.3117   24.4846 N   0  0  0  0  0  0  0  0  0  0  0  0
   11.9652  -16.6858   25.1191 C   0  0  0  0  0  0  0  0  0  0  0  0
   11.3021  -17.6220   24.6084 O   0  0  0  0  0  0  0  0  0  0  0  0
   13.2136  -17.0150   25.6061 O   0  0  0  0  0  0  0  0  0  0  0  0
  2  1  1  0
  3  2  2  0
  4  3  1  0
  5 11  1  0
  5  4  2  0
  6  5  1  0
  7  9  1  0
  7  6  1  0
  7  8  1  6
  9 10  2  0
 11 12  2  0
 12  2  1  0
 14 13  1  0
 15 16  1  6
 15 14  1  0
 15 17  1  0
 17 18  1  1
 18  9  1  0
 19 26  1  0
 19 17  1  0
 20 19  2  0
 22 23  1  0
 22 21  1  0
 23 24  1  0
 25 24  1  1
 25 26  1  0
 25 27  1  0
 27 29  1  0
 28 27  2  0
M  END
$$$$
