FAI.pdb
     RDKit          3D

 25 25  0  0  1  0  0  0  0  0999 V2000
   27.3333  -21.7585  -17.3583 N   0  0  0  0  0  0  0  0  0  0  0  0
   27.5299  -20.5228  -16.5848 C   0  0  1  0  0  0  0  0  0  0  0  0
   26.6371  -19.4591  -17.0944 C   0  0  0  0  0  0  0  0  0  0  0  0
   26.8519  -18.1446  -16.4487 C   0  0  0  0  0  0  0  0  0  0  0  0
   26.0283  -17.6807  -15.4246 C   0  0  0  0  0  0  0  0  0  0  0  0
   26.2163  -16.4496  -14.8284 C   0  0  0  0  0  0  0  0  0  0  0  0
   27.2465  -15.6139  -15.2324 C   0  0  0  0  0  0  0  0  0  0  0  0
   28.0651  -16.0548  -16.2375 C   0  0  0  0  0  0  0  0  0  0  0  0
   27.8658  -17.3038  -16.8339 C   0  0  0  0  0  0  0  0  0  0  0  0
   27.5210  -20.8351  -15.1774 C   0  0  0  0  0  0  0  0  0  0  0  0
   26.5873  -21.5727  -14.7202 O   0  0  0  0  0  0  0  0  0  0  0  0
   29.6013  -20.3607  -12.0223 C   0  0  0  0  0  0  0  0  0  0  0  0
   28.3505  -20.7563  -12.8004 C   0  0  2  0  0  0  0  0  0  0  0  0
   28.4553  -20.4204  -14.1792 N   0  0  0  0  0  0  0  0  0  0  0  0
   27.2134  -20.2459  -12.0543 C   0  0  0  0  0  0  0  0  0  0  0  0
   26.5814  -19.2810  -12.6140 O   0  0  0  0  0  0  0  0  0  0  0  0
   23.5370  -20.9990  -13.7731 C   0  0  0  0  0  0  0  0  0  0  0  0
   24.5154  -20.5259  -12.7638 C   0  0  0  0  0  0  0  0  0  0  0  0
   24.3670  -21.0147  -11.3772 C   0  0  2  0  0  0  0  0  0  0  0  0
   22.9189  -21.1356  -10.9765 C   0  0  0  0  0  0  0  0  0  0  0  0
   25.3148  -20.4912  -10.3871 C   0  0  2  0  0  0  0  0  0  0  0  0
   26.7125  -20.6625  -10.8066 N   0  0  0  0  0  0  0  0  0  0  0  0
   25.1348  -20.8328   -8.9727 C   0  0  0  0  0  0  0  0  0  0  0  0
   25.8584  -21.9176   -8.3918 O   0  0  0  0  0  0  0  0  0  0  0  0
   24.3879  -20.2742   -8.1439 O   0  0  0  0  0  0  0  0  0  0  0  0
  2 10  1  0
  2  1  1  6
  3  2  1  0
  4  3  1  0
  5  4  2  0
  6  5  1  0
  7  6  2  0
  7  8  1  0
  8  9  2  0
  9  4  1  0
 10 11  2  0
 13 12  1  1
 14 13  1  0
 14 10  1  0
 15 22  1  0
 15 13  1  0
 16 15  2  0
 18 17  1  0
 19 18  1  0
 19 20  1  1
 21 19  1  0
 21 22  1  6
 23 21  1  0
 23 24  1  0
 25 23  2  0
M  END
$$$$
