FAI.pdb
     RDKit          3D

 25 25  0  0  1  0  0  0  0  0999 V2000
   26.4501  -19.0548  -16.3233 N   0  0  0  0  0  0  0  0  0  0  0  0
   26.6476  -18.7421  -14.8995 C   0  0  1  0  0  0  0  0  0  0  0  0
   25.4543  -18.0520  -14.3626 C   0  0  0  0  0  0  0  0  0  0  0  0
   25.2232  -16.7167  -14.9581 C   0  0  0  0  0  0  0  0  0  0  0  0
   26.1422  -15.6778  -14.8224 C   0  0  0  0  0  0  0  0  0  0  0  0
   25.9251  -14.4266  -15.3645 C   0  0  0  0  0  0  0  0  0  0  0  0
   24.7663  -14.1507  -16.0745 C   0  0  0  0  0  0  0  0  0  0  0  0
   23.8531  -15.1607  -16.2172 C   0  0  0  0  0  0  0  0  0  0  0  0
   24.0835  -16.4244  -15.6644 C   0  0  0  0  0  0  0  0  0  0  0  0
   27.1506  -19.9100  -14.2202 C   0  0  0  0  0  0  0  0  0  0  0  0
   26.5133  -21.0077  -14.3372 O   0  0  0  0  0  0  0  0  0  0  0  0
   29.9943  -21.0460  -11.9543 C   0  0  0  0  0  0  0  0  0  0  0  0
   28.5860  -21.1134  -12.5364 C   0  0  2  0  0  0  0  0  0  0  0  0
   28.3171  -20.0167  -13.4023 N   0  0  0  0  0  0  0  0  0  0  0  0
   27.6826  -21.3460  -11.4229 C   0  0  0  0  0  0  0  0  0  0  0  0
   27.8505  -22.4574  -10.8061 O   0  0  0  0  0  0  0  0  0  0  0  0
   27.9196  -19.1031   -7.1188 C   0  0  0  0  0  0  0  0  0  0  0  0
   27.5192  -20.0922   -8.1490 C   0  0  0  0  0  0  0  0  0  0  0  0
   26.1091  -20.0956   -8.5908 C   0  0  2  0  0  0  0  0  0  0  0  0
   25.1559  -20.1725   -7.4256 C   0  0  0  0  0  0  0  0  0  0  0  0
   25.7948  -20.8783   -9.7914 C   0  0  2  0  0  0  0  0  0  0  0  0
   26.6524  -20.5230  -10.9303 N   0  0  0  0  0  0  0  0  0  0  0  0
   24.3954  -21.0294  -10.2018 C   0  0  0  0  0  0  0  0  0  0  0  0
   24.0045  -20.7734  -11.5507 O   0  0  0  0  0  0  0  0  0  0  0  0
   23.4273  -21.3731   -9.4935 O   0  0  0  0  0  0  0  0  0  0  0  0
  2 10  1  0
  2  1  1  6
  3  2  1  0
  4  3  1  0
  5  4  2  0
  6  5  1  0
  7  6  2  0
  7  8  1  0
  8  9  2  0
  9  4  1  0
 10 11  2  0
 13 12  1  1
 14 13  1  0
 14 10  1  0
 15 22  1  0
 15 13  1  0
 16 15  2  0
 18 17  1  0
 19 18  1  0
 19 20  1  1
 21 19  1  0
 21 22  1  6
 23 21  1  0
 23 24  1  0
 25 23  2  0
M  END
$$$$
