FAI.pdb
     RDKit          3D

 25 25  0  0  1  0  0  0  0  0999 V2000
   17.5401  -11.3125  -13.9449 N   0  0  0  0  0  0  0  0  0  0  0  0
   16.6046  -10.2360  -14.3054 C   0  0  1  0  0  0  0  0  0  0  0  0
   15.2247  -10.7652  -14.3704 C   0  0  0  0  0  0  0  0  0  0  0  0
   15.0476  -11.8381  -15.3746 C   0  0  0  0  0  0  0  0  0  0  0  0
   14.8417  -13.1669  -15.0082 C   0  0  0  0  0  0  0  0  0  0  0  0
   14.6895  -14.1733  -15.9411 C   0  0  0  0  0  0  0  0  0  0  0  0
   14.7375  -13.8971  -17.2992 C   0  0  0  0  0  0  0  0  0  0  0  0
   14.9390  -12.5964  -17.6761 C   0  0  0  0  0  0  0  0  0  0  0  0
   15.0914  -11.5848  -16.7227 C   0  0  0  0  0  0  0  0  0  0  0  0
   16.8765   -9.0764  -13.4931 C   0  0  0  0  0  0  0  0  0  0  0  0
   16.8587   -9.2003  -12.2245 O   0  0  0  0  0  0  0  0  0  0  0  0
   17.7972   -5.3894  -13.8015 C   0  0  0  0  0  0  0  0  0  0  0  0
   17.3713   -6.6468  -13.0503 C   0  0  2  0  0  0  0  0  0  0  0  0
   17.1816   -7.7503  -13.9284 N   0  0  0  0  0  0  0  0  0  0  0  0
   16.2716   -6.2642  -12.1817 C   0  0  0  0  0  0  0  0  0  0  0  0
   15.1057   -6.3443  -12.7088 O   0  0  0  0  0  0  0  0  0  0  0  0
   13.3744   -7.1581   -7.0604 C   0  0  0  0  0  0  0  0  0  0  0  0
   13.7457   -6.1335   -8.0665 C   0  0  0  0  0  0  0  0  0  0  0  0
   14.8616   -6.4412   -8.9849 C   0  0  2  0  0  0  0  0  0  0  0  0
   16.0489   -7.0137   -8.2537 C   0  0  0  0  0  0  0  0  0  0  0  0
   15.1146   -5.4787  -10.0630 C   0  0  2  0  0  0  0  0  0  0  0  0
   16.3098   -5.8190  -10.8469 N   0  0  0  0  0  0  0  0  0  0  0  0
   15.0578   -4.0433   -9.7696 C   0  0  0  0  0  0  0  0  0  0  0  0
   16.2111   -3.2213   -9.9485 O   0  0  0  0  0  0  0  0  0  0  0  0
   14.0790   -3.3890   -9.3564 O   0  0  0  0  0  0  0  0  0  0  0  0
  2 10  1  0
  2  1  1  1
  3  2  1  0
  4  3  1  0
  5  4  2  0
  6  5  1  0
  7  6  2  0
  7  8  1  0
  8  9  2  0
  9  4  1  0
 10 11  2  0
 13 12  1  6
 14 13  1  0
 14 10  1  0
 15 22  1  0
 15 13  1  0
 16 15  2  0
 18 17  1  0
 19 18  1  0
 19 20  1  1
 21 19  1  0
 21 22  1  1
 23 21  1  0
 23 24  1  0
 25 23  2  0
M  END
$$$$
