FAI.pdb
     RDKit          3D

 25 25  0  0  1  0  0  0  0  0999 V2000
   27.2765  -20.3624  -15.7228 N   0  0  0  0  0  0  0  0  0  0  0  0
   27.8313  -20.5267  -14.3704 C   0  0  1  0  0  0  0  0  0  0  0  0
   29.2148  -20.0049  -14.3240 C   0  0  0  0  0  0  0  0  0  0  0  0
   30.1661  -20.7715  -15.1595 C   0  0  0  0  0  0  0  0  0  0  0  0
   30.6369  -20.2863  -16.3783 C   0  0  0  0  0  0  0  0  0  0  0  0
   31.5137  -21.0035  -17.1677 C   0  0  0  0  0  0  0  0  0  0  0  0
   31.9659  -22.2537  -16.7732 C   0  0  0  0  0  0  0  0  0  0  0  0
   31.5131  -22.7449  -15.5781 C   0  0  0  0  0  0  0  0  0  0  0  0
   30.6254  -22.0097  -14.7863 C   0  0  0  0  0  0  0  0  0  0  0  0
   26.8706  -20.0616  -13.4013 C   0  0  0  0  0  0  0  0  0  0  0  0
   26.5631  -18.8245  -13.3897 O   0  0  0  0  0  0  0  0  0  0  0  0
   23.9499  -20.4164  -11.5014 C   0  0  0  0  0  0  0  0  0  0  0  0
   25.4568  -20.2573  -11.3260 C   0  0  2  0  0  0  0  0  0  0  0  0
   26.1799  -20.8261  -12.4116 N   0  0  0  0  0  0  0  0  0  0  0  0
   25.7722  -20.7065   -9.9811 C   0  0  0  0  0  0  0  0  0  0  0  0
   26.0739  -21.9482   -9.8765 O   0  0  0  0  0  0  0  0  0  0  0  0
   29.2111  -18.5324   -6.6044 C   0  0  0  0  0  0  0  0  0  0  0  0
   28.2948  -19.4589   -7.3130 C   0  0  0  0  0  0  0  0  0  0  0  0
   27.0009  -19.7735   -6.6724 C   0  0  2  0  0  0  0  0  0  0  0  0
   27.1651  -20.1148   -5.2134 C   0  0  0  0  0  0  0  0  0  0  0  0
   26.0473  -20.5613   -7.4616 C   0  0  2  0  0  0  0  0  0  0  0  0
   25.7916  -19.9695   -8.7820 N   0  0  0  0  0  0  0  0  0  0  0  0
   24.8060  -21.0229   -6.8325 C   0  0  0  0  0  0  0  0  0  0  0  0
   24.8381  -22.0251   -5.8165 O   0  0  0  0  0  0  0  0  0  0  0  0
   23.6429  -20.6405   -7.0731 O   0  0  0  0  0  0  0  0  0  0  0  0
  2 10  1  0
  2  1  1  6
  3  2  1  0
  4  3  1  0
  5  4  2  0
  6  5  1  0
  7  6  2  0
  7  8  1  0
  8  9  2  0
  9  4  1  0
 10 11  2  0
 13 12  1  6
 14 13  1  0
 14 10  1  0
 15 22  1  0
 15 13  1  0
 16 15  2  0
 18 17  1  0
 19 18  1  0
 19 20  1  1
 21 19  1  0
 21 22  1  6
 23 21  1  0
 23 24  1  0
 25 23  2  0
M  END
$$$$
