FAI.pdb
     RDKit          3D

 25 25  0  0  1  0  0  0  0  0999 V2000
   30.6585  -19.8718  -12.4634 N   0  0  0  0  0  0  0  0  0  0  0  0
   29.5762  -20.8673  -12.4225 C   0  0  1  0  0  0  0  0  0  0  0  0
   29.2319  -21.1832  -11.0188 C   0  0  0  0  0  0  0  0  0  0  0  0
   30.3781  -21.6784  -10.2240 C   0  0  0  0  0  0  0  0  0  0  0  0
   31.5706  -22.0847  -10.8202 C   0  0  0  0  0  0  0  0  0  0  0  0
   32.6377  -22.5601  -10.0843 C   0  0  0  0  0  0  0  0  0  0  0  0
   32.5629  -22.6543   -8.7028 C   0  0  0  0  0  0  0  0  0  0  0  0
   31.3983  -22.2589   -8.1012 C   0  0  0  0  0  0  0  0  0  0  0  0
   30.3238  -21.7785   -8.8564 C   0  0  0  0  0  0  0  0  0  0  0  0
   28.5300  -20.4716  -13.3321 C   0  0  0  0  0  0  0  0  0  0  0  0
   27.9407  -19.3578  -13.1395 O   0  0  0  0  0  0  0  0  0  0  0  0
   26.6438  -21.6544  -16.4190 C   0  0  0  0  0  0  0  0  0  0  0  0
   26.7736  -20.9479  -15.0734 C   0  0  2  0  0  0  0  0  0  0  0  0
   28.0423  -21.1806  -14.4725 N   0  0  0  0  0  0  0  0  0  0  0  0
   25.5822  -21.2768  -14.3102 C   0  0  0  0  0  0  0  0  0  0  0  0
   25.3889  -22.5286  -14.1117 O   0  0  0  0  0  0  0  0  0  0  0  0
   25.0434  -20.2171   -9.4915 C   0  0  0  0  0  0  0  0  0  0  0  0
   24.8190  -20.8094  -10.8327 C   0  0  0  0  0  0  0  0  0  0  0  0
   23.5819  -20.4401  -11.5515 C   0  0  2  0  0  0  0  0  0  0  0  0
   22.3623  -20.5751  -10.6761 C   0  0  0  0  0  0  0  0  0  0  0  0
   23.4774  -20.8701  -12.9505 C   0  0  2  0  0  0  0  0  0  0  0  0
   24.6145  -20.4142  -13.7616 N   0  0  0  0  0  0  0  0  0  0  0  0
   22.2075  -20.6923  -13.6614 C   0  0  0  0  0  0  0  0  0  0  0  0
   22.1045  -19.7607  -14.7382 O   0  0  0  0  0  0  0  0  0  0  0  0
   21.1267  -21.2778  -13.4470 O   0  0  0  0  0  0  0  0  0  0  0  0
  2 10  1  0
  2  1  1  1
  3  2  1  0
  4  3  1  0
  5  4  2  0
  6  5  1  0
  7  6  2  0
  7  8  1  0
  8  9  2  0
  9  4  1  0
 10 11  2  0
 13 12  1  6
 14 13  1  0
 14 10  1  0
 15 22  1  0
 15 13  1  0
 16 15  2  0
 18 17  1  0
 19 18  1  0
 19 20  1  1
 21 19  1  0
 21 22  1  6
 23 21  1  0
 23 24  1  0
 25 23  2  0
M  END
$$$$
