HRM.pdb
     RDKit          3D

 30 30  0  0  1  0  0  0  0  0999 V2000
    8.6238  -16.3148   19.4889 N   0  0  0  0  0  0  0  0  0  0  0  0
    7.9324  -15.1455   20.0002 C   0  0  1  0  0  0  0  0  0  0  0  0
    6.9484  -14.6908   18.9465 C   0  0  0  0  0  0  0  0  0  0  0  0
    7.6905  -14.4034   17.6970 C   0  0  0  0  0  0  0  0  0  0  0  0
    8.4058  -13.2718   17.3500 C   0  0  0  0  0  0  0  0  0  0  0  0
    8.9309  -13.4107   16.1206 N   0  0  0  0  0  0  0  0  0  0  0  0
    8.5635  -14.6156   15.6717 C   0  0  0  0  0  0  0  0  0  0  0  0
    7.8190  -15.2194   16.6099 N   0  0  0  0  0  0  0  0  0  0  0  0
    7.2800  -15.4664   21.2805 C   0  0  0  0  0  0  0  0  0  0  0  0
    6.5486  -14.6159   21.8264 O   0  0  0  0  0  0  0  0  0  0  0  0
    7.3746  -23.1033   25.4773 N   0  0  0  0  0  0  0  0  0  0  0  0
    7.0893  -22.1649   26.4881 C   0  0  0  0  0  0  0  0  0  0  0  0
    7.0160  -22.4737   27.7549 N   0  0  0  0  0  0  0  0  0  0  0  0
    6.8539  -20.7783   26.1956 N   0  0  0  0  0  0  0  0  0  0  0  0
    6.2639  -20.4197   24.9219 C   0  0  0  0  0  0  0  0  0  0  0  0
    6.2613  -18.9200   24.7311 C   0  0  0  0  0  0  0  0  0  0  0  0
    6.8282  -18.5478   23.3878 C   0  0  0  0  0  0  0  0  0  0  0  0
    6.8519  -17.0615   23.1511 C   0  0  2  0  0  0  0  0  0  0  0  0
    7.4926  -16.7296   21.8686 N   0  0  0  0  0  0  0  0  0  0  0  0
    7.7000  -16.4865   24.2563 C   0  0  0  0  0  0  0  0  0  0  0  0
    8.9504  -16.6489   24.1072 O   0  0  0  0  0  0  0  0  0  0  0  0
    6.8547  -21.6908   28.4121 C   0  0  0  0  0  0  0  0  0  0  0  0
    6.7729   -9.6682   28.0627 S   0  0  0  0  0  0  0  0  0  0  0  0
    6.1562  -11.0956   27.2100 C   0  0  0  0  0  0  0  0  0  0  0  0
    7.3850  -12.3262   26.8409 C   0  0  0  0  0  0  0  0  0  0  0  0
    6.8822  -13.5400   26.1358 C   0  0  1  0  0  0  0  0  0  0  0  0
    7.8710  -14.6174   25.8485 N   0  0  0  0  0  0  0  0  0  0  0  0
    7.1653  -15.8267   25.3591 C   0  0  0  0  0  0  0  0  0  0  0  0
    8.6475  -15.0018   27.0613 O   0  0  0  0  0  0  0  0  0  0  0  0
    8.2528  -16.0225   27.7101 O   0  0  0  0  0  0  0  0  0  0  0  0
  2  1  1  6
  2  3  1  0
  2  9  1  0
  4  8  1  0
  4  3  1  0
  5  4  2  0
  6  5  1  0
  6  7  1  0
  7  8  2  0
  9 10  2  0
 12 14  1  0
 12 11  1  0
 13 12  2  0
 15 14  1  0
 15 16  1  0
 17 16  1  0
 18 17  1  1
 19 18  1  0
 19  9  1  0
 20 18  1  0
 20 21  2  0
 22 23  1  0
 23 24  1  0
 24 25  1  0
 26 25  1  6
 26 27  1  0
 26 28  1  0
 27 20  1  0
 28 29  2  0
 28 30  1  0
M  END
$$$$
