HRM.pdb
     RDKit          3D

 30 30  0  0  1  0  0  0  0  0999 V2000
   10.9134  -15.5059   18.1462 N   0  0  0  0  0  0  0  0  0  0  0  0
   11.4568  -15.5072   19.4920 C   0  0  1  0  0  0  0  0  0  0  0  0
   12.0152  -14.1298   19.7682 C   0  0  0  0  0  0  0  0  0  0  0  0
   13.4391  -14.1047   19.3602 C   0  0  0  0  0  0  0  0  0  0  0  0
   14.2963  -15.1644   19.1257 C   0  0  0  0  0  0  0  0  0  0  0  0
   15.5119  -14.7118   18.7738 N   0  0  0  0  0  0  0  0  0  0  0  0
   15.4490  -13.3760   18.7786 C   0  0  0  0  0  0  0  0  0  0  0  0
   14.2096  -13.0015   19.1292 N   0  0  0  0  0  0  0  0  0  0  0  0
   10.4139  -15.8968   20.4555 C   0  0  0  0  0  0  0  0  0  0  0  0
    9.2520  -15.4667   20.3093 O   0  0  0  0  0  0  0  0  0  0  0  0
    7.1025  -22.9520   23.2741 N   0  0  0  0  0  0  0  0  0  0  0  0
    6.7478  -22.0868   24.3274 C   0  0  0  0  0  0  0  0  0  0  0  0
    5.8121  -22.3593   25.1966 N   0  0  0  0  0  0  0  0  0  0  0  0
    7.3987  -20.8216   24.5257 N   0  0  0  0  0  0  0  0  0  0  0  0
    8.4059  -20.3936   23.5763 C   0  0  0  0  0  0  0  0  0  0  0  0
    9.0222  -19.0793   23.9986 C   0  0  0  0  0  0  0  0  0  0  0  0
   10.0185  -18.6000   22.9778 C   0  0  0  0  0  0  0  0  0  0  0  0
    9.6932  -17.2342   22.4351 C   0  0  2  0  0  0  0  0  0  0  0  0
   10.7455  -16.7495   21.5278 N   0  0  0  0  0  0  0  0  0  0  0  0
    9.6545  -16.3190   23.6320 C   0  0  0  0  0  0  0  0  0  0  0  0
   10.7904  -16.0407   24.1263 O   0  0  0  0  0  0  0  0  0  0  0  0
    5.5940  -21.6200   25.8870 C   0  0  0  0  0  0  0  0  0  0  0  0
    6.5352  -10.5756   25.9379 S   0  0  0  0  0  0  0  0  0  0  0  0
    5.9849  -12.0666   26.7248 C   0  0  0  0  0  0  0  0  0  0  0  0
    7.2020  -13.3606   26.7934 C   0  0  0  0  0  0  0  0  0  0  0  0
    7.3130  -14.1993   25.5656 C   0  0  1  0  0  0  0  0  0  0  0  0
    8.5644  -14.9902   25.3938 N   0  0  0  0  0  0  0  0  0  0  0  0
    8.4716  -15.8124   24.1627 C   0  0  0  0  0  0  0  0  0  0  0  0
    8.8057  -15.9113   26.5404 O   0  0  0  0  0  0  0  0  0  0  0  0
    8.2300  -17.0454   26.5116 O   0  0  0  0  0  0  0  0  0  0  0  0
  2  1  1  6
  2  3  1  0
  2  9  1  0
  4  8  1  0
  4  3  1  0
  5  4  2  0
  6  5  1  0
  6  7  1  0
  7  8  2  0
  9 10  2  0
 12 14  1  0
 12 11  1  0
 13 12  2  0
 15 14  1  0
 15 16  1  0
 17 16  1  0
 18 17  1  1
 19 18  1  0
 19  9  1  0
 20 18  1  0
 20 21  2  0
 22 23  1  0
 23 24  1  0
 24 25  1  0
 26 25  1  6
 26 27  1  0
 26 28  1  0
 27 20  1  0
 28 29  2  0
 28 30  1  0
M  END
$$$$
