HRM.pdb
     RDKit          3D

 30 30  0  0  1  0  0  0  0  0999 V2000
    7.2271  -17.2114   17.9507 N   0  0  0  0  0  0  0  0  0  0  0  0
    7.9052  -16.3325   18.8857 C   0  0  1  0  0  0  0  0  0  0  0  0
    7.7631  -14.9160   18.3774 C   0  0  0  0  0  0  0  0  0  0  0  0
    8.4176  -14.8198   17.0519 C   0  0  0  0  0  0  0  0  0  0  0  0
    7.9216  -14.2959   15.8720 C   0  0  0  0  0  0  0  0  0  0  0  0
    8.8370  -14.4015   14.8936 N   0  0  0  0  0  0  0  0  0  0  0  0
    9.9149  -14.9861   15.4273 C   0  0  0  0  0  0  0  0  0  0  0  0
    9.6737  -15.2412   16.7218 N   0  0  0  0  0  0  0  0  0  0  0  0
    7.3451  -16.5062   20.2363 C   0  0  0  0  0  0  0  0  0  0  0  0
    6.1960  -16.0876   20.4823 O   0  0  0  0  0  0  0  0  0  0  0  0
    9.1156  -22.3548   26.7420 N   0  0  0  0  0  0  0  0  0  0  0  0
    8.0342  -21.5712   27.1896 C   0  0  0  0  0  0  0  0  0  0  0  0
    7.3821  -21.8118   28.2952 N   0  0  0  0  0  0  0  0  0  0  0  0
    7.5614  -20.4331   26.4516 N   0  0  0  0  0  0  0  0  0  0  0  0
    8.0843  -20.1916   25.1222 C   0  0  0  0  0  0  0  0  0  0  0  0
    7.6142  -18.8565   24.5913 C   0  0  0  0  0  0  0  0  0  0  0  0
    8.0533  -18.6600   23.1655 C   0  0  0  0  0  0  0  0  0  0  0  0
    7.5486  -17.3745   22.5668 C   0  0  2  0  0  0  0  0  0  0  0  0
    8.1169  -17.1424   21.2294 N   0  0  0  0  0  0  0  0  0  0  0  0
    8.0424  -16.2796   23.4773 C   0  0  0  0  0  0  0  0  0  0  0  0
    9.2851  -16.0346   23.3899 O   0  0  0  0  0  0  0  0  0  0  0  0
    6.6421  -21.1351   28.5511 C   0  0  0  0  0  0  0  0  0  0  0  0
    6.4557  -10.2939   28.4371 S   0  0  0  0  0  0  0  0  0  0  0  0
    5.9035  -11.7445   27.5793 C   0  0  0  0  0  0  0  0  0  0  0  0
    7.2053  -12.7290   26.8747 C   0  0  0  0  0  0  0  0  0  0  0  0
    6.7734  -13.7177   25.8456 C   0  0  1  0  0  0  0  0  0  0  0  0
    7.8324  -14.5716   25.2369 N   0  0  0  0  0  0  0  0  0  0  0  0
    7.2101  -15.5845   24.3500 C   0  0  0  0  0  0  0  0  0  0  0  0
    8.6285  -15.2955   26.2682 O   0  0  0  0  0  0  0  0  0  0  0  0
    8.1458  -16.3800   26.7257 O   0  0  0  0  0  0  0  0  0  0  0  0
  2  1  1  6
  2  3  1  0
  2  9  1  0
  4  8  1  0
  4  3  1  0
  5  4  2  0
  6  5  1  0
  6  7  1  0
  7  8  2  0
  9 10  2  0
 12 14  1  0
 12 11  1  0
 13 12  2  0
 15 14  1  0
 15 16  1  0
 17 16  1  0
 18 17  1  1
 19 18  1  0
 19  9  1  0
 20 18  1  0
 20 21  2  0
 22 23  1  0
 23 24  1  0
 24 25  1  0
 26 25  1  6
 26 27  1  0
 26 28  1  0
 27 20  1  0
 28 29  2  0
 28 30  1  0
M  END
$$$$
