HRM.pdb
     RDKit          3D

 30 30  0  0  1  0  0  0  0  0999 V2000
   10.9311  -18.2197   19.3538 N   0  0  0  0  0  0  0  0  0  0  0  0
   11.5685  -17.6760   20.5389 C   0  0  1  0  0  0  0  0  0  0  0  0
   12.1952  -16.3527   20.1629 C   0  0  0  0  0  0  0  0  0  0  0  0
   13.4508  -16.6160   19.4221 C   0  0  0  0  0  0  0  0  0  0  0  0
   14.6956  -16.9632   19.9145 C   0  0  0  0  0  0  0  0  0  0  0  0
   15.5714  -17.1115   18.9058 N   0  0  0  0  0  0  0  0  0  0  0  0
   14.9076  -16.8646   17.7714 C   0  0  0  0  0  0  0  0  0  0  0  0
   13.6345  -16.5663   18.0701 N   0  0  0  0  0  0  0  0  0  0  0  0
   10.5833  -17.5453   21.6252 C   0  0  0  0  0  0  0  0  0  0  0  0
    9.5149  -16.9367   21.4145 O   0  0  0  0  0  0  0  0  0  0  0  0
   10.7990  -22.8684   23.0088 N   0  0  0  0  0  0  0  0  0  0  0  0
    9.7365  -23.4524   23.7255 C   0  0  0  0  0  0  0  0  0  0  0  0
    9.1701  -24.5774   23.3805 N   0  0  0  0  0  0  0  0  0  0  0  0
    9.1889  -22.8442   24.9061 N   0  0  0  0  0  0  0  0  0  0  0  0
    9.7583  -21.6006   25.3839 C   0  0  0  0  0  0  0  0  0  0  0  0
    9.4356  -20.4622   24.4430 C   0  0  0  0  0  0  0  0  0  0  0  0
   10.0229  -19.1696   24.9415 C   0  0  0  0  0  0  0  0  0  0  0  0
    9.8646  -18.0362   23.9638 C   0  0  2  0  0  0  0  0  0  0  0  0
   10.8636  -18.1099   22.8859 N   0  0  0  0  0  0  0  0  0  0  0  0
   10.1247  -16.7785   24.7526 C   0  0  0  0  0  0  0  0  0  0  0  0
   11.3519  -16.4956   24.9138 O   0  0  0  0  0  0  0  0  0  0  0  0
    8.4406  -24.9413   24.0178 C   0  0  0  0  0  0  0  0  0  0  0  0
    5.7194  -11.9618   26.1005 S   0  0  0  0  0  0  0  0  0  0  0  0
    7.2940  -11.3016   26.5802 C   0  0  0  0  0  0  0  0  0  0  0  0
    8.5800  -12.5148   26.7668 C   0  0  0  0  0  0  0  0  0  0  0  0
    8.3950  -13.7684   25.9810 C   0  0  1  0  0  0  0  0  0  0  0  0
    9.4981  -14.7692   26.0285 N   0  0  0  0  0  0  0  0  0  0  0  0
    9.1069  -15.9816   25.2688 C   0  0  0  0  0  0  0  0  0  0  0  0
    9.8143  -15.1874   27.4237 O   0  0  0  0  0  0  0  0  0  0  0  0
   10.3054  -14.3084   28.2013 O   0  0  0  0  0  0  0  0  0  0  0  0
  2  1  1  6
  2  3  1  0
  2  9  1  0
  4  8  1  0
  4  3  1  0
  5  4  2  0
  6  5  1  0
  6  7  1  0
  7  8  2  0
  9 10  2  0
 12 14  1  0
 12 11  1  0
 13 12  2  0
 15 14  1  0
 15 16  1  0
 17 16  1  0
 18 17  1  1
 19 18  1  0
 19  9  1  0
 20 18  1  0
 20 21  2  0
 22 23  1  0
 23 24  1  0
 24 25  1  0
 26 25  1  6
 26 27  1  0
 26 28  1  0
 27 20  1  0
 28 29  2  0
 28 30  1  0
M  END
$$$$
