HRM.pdb
     RDKit          3D

 30 30  0  0  1  0  0  0  0  0999 V2000
    7.2894  -16.6097   20.3267 N   0  0  0  0  0  0  0  0  0  0  0  0
    8.1472  -15.8581   21.2243 C   0  0  1  0  0  0  0  0  0  0  0  0
    7.5306  -14.4918   21.4197 C   0  0  0  0  0  0  0  0  0  0  0  0
    7.7348  -13.6985   20.1854 C   0  0  0  0  0  0  0  0  0  0  0  0
    8.3509  -14.0693   19.0041 C   0  0  0  0  0  0  0  0  0  0  0  0
    8.3280  -13.0515   18.1266 N   0  0  0  0  0  0  0  0  0  0  0  0
    7.7059  -12.0311   18.7266 C   0  0  0  0  0  0  0  0  0  0  0  0
    7.3459  -12.4088   19.9623 N   0  0  0  0  0  0  0  0  0  0  0  0
    8.3126  -16.5889   22.4918 C   0  0  0  0  0  0  0  0  0  0  0  0
    7.3197  -17.1223   23.0266 O   0  0  0  0  0  0  0  0  0  0  0  0
   10.1083  -21.2333   20.7034 N   0  0  0  0  0  0  0  0  0  0  0  0
   11.4812  -21.0736   20.4327 C   0  0  0  0  0  0  0  0  0  0  0  0
   12.0790  -21.6172   19.4067 N   0  0  0  0  0  0  0  0  0  0  0  0
   12.3381  -20.2897   21.2782 N   0  0  0  0  0  0  0  0  0  0  0  0
   11.9466  -20.0588   22.6539 C   0  0  0  0  0  0  0  0  0  0  0  0
   11.0117  -18.8752   22.7579 C   0  0  0  0  0  0  0  0  0  0  0  0
   10.6723  -18.5827   24.1944 C   0  0  0  0  0  0  0  0  0  0  0  0
    9.7682  -17.3899   24.3536 C   0  0  2  0  0  0  0  0  0  0  0  0
    9.5906  -16.6737   23.0805 N   0  0  0  0  0  0  0  0  0  0  0  0
   10.4772  -16.4663   25.3107 C   0  0  0  0  0  0  0  0  0  0  0  0
   11.1833  -15.5672   24.7584 O   0  0  0  0  0  0  0  0  0  0  0  0
   13.1045  -21.4908   19.3497 C   0  0  0  0  0  0  0  0  0  0  0  0
    7.3556  -12.0430   25.5047 S   0  0  0  0  0  0  0  0  0  0  0  0
    7.3485  -12.4057   27.2407 C   0  0  0  0  0  0  0  0  0  0  0  0
    8.7670  -13.3109   27.8140 C   0  0  0  0  0  0  0  0  0  0  0  0
    9.1031  -14.5349   27.0316 C   0  0  1  0  0  0  0  0  0  0  0  0
   10.2799  -15.3291   27.4846 N   0  0  0  0  0  0  0  0  0  0  0  0
   10.3733  -16.5807   26.6941 C   0  0  0  0  0  0  0  0  0  0  0  0
   10.1808  -15.7048   28.9236 O   0  0  0  0  0  0  0  0  0  0  0  0
    9.7210  -16.8590   29.1970 O   0  0  0  0  0  0  0  0  0  0  0  0
  2  1  1  6
  2  3  1  0
  2  9  1  0
  4  8  1  0
  4  3  1  0
  5  4  2  0
  6  5  1  0
  6  7  1  0
  7  8  2  0
  9 10  2  0
 12 14  1  0
 12 11  1  0
 13 12  2  0
 15 14  1  0
 15 16  1  0
 17 16  1  0
 18 17  1  6
 19 18  1  0
 19  9  1  0
 20 18  1  0
 20 21  2  0
 22 23  1  0
 23 24  1  0
 24 25  1  0
 26 25  1  6
 26 27  1  0
 26 28  1  0
 27 20  1  0
 28 29  2  0
 28 30  1  0
M  END
$$$$
