FGN.pdb
     RDKit          3D

 24 24  0  0  1  0  0  0  0  0999 V2000
   25.6298  -21.0218   -7.7621 N   0  0  0  0  0  0  0  0  0  0  0  0
   26.7100  -20.2695   -8.3696 C   0  0  1  0  0  0  0  0  0  0  0  0
   28.0187  -20.7462   -7.7504 C   0  0  0  0  0  0  0  0  0  0  0  0
   28.2132  -20.1958   -6.3985 C   0  0  0  0  0  0  0  0  0  0  0  0
   28.7197  -20.9522   -5.3364 C   0  0  0  0  0  0  0  0  0  0  0  0
   28.8724  -20.3757   -4.1052 C   0  0  0  0  0  0  0  0  0  0  0  0
   28.5300  -19.0654   -3.9184 C   0  0  0  0  0  0  0  0  0  0  0  0
   28.0267  -18.2962   -4.9541 C   0  0  0  0  0  0  0  0  0  0  0  0
   27.8700  -18.8700   -6.1972 C   0  0  0  0  0  0  0  0  0  0  0  0
   26.7781  -20.5210   -9.8397 C   0  0  0  0  0  0  0  0  0  0  0  0
   27.8786  -20.4482  -10.4417 O   0  0  0  0  0  0  0  0  0  0  0  0
   25.6120  -20.8478  -10.5962 N   0  0  0  0  0  0  0  0  0  0  0  0
   25.7345  -20.9126  -12.0131 C   0  0  0  0  0  0  0  0  0  0  0  0
   24.4950  -21.0367  -12.7713 C   0  0  0  0  0  0  0  0  0  0  0  0
   24.4532  -21.8450  -13.7640 O   0  0  0  0  0  0  0  0  0  0  0  0
   19.6524  -22.2948  -12.5568 N   0  0  0  0  0  0  0  0  0  0  0  0
   19.9986  -21.6258  -11.3370 C   0  0  0  0  0  0  0  0  0  0  0  0
   19.1799  -21.7225  -10.4010 O   0  0  0  0  0  0  0  0  0  0  0  0
   21.2780  -20.8933  -11.3047 C   0  0  0  0  0  0  0  0  0  0  0  0
   21.9766  -21.0035  -12.6177 C   0  0  2  0  0  0  0  0  0  0  0  0
   23.2931  -20.3368  -12.5203 N   0  0  0  0  0  0  0  0  0  0  0  0
   21.2050  -20.3652  -13.6950 C   0  0  0  0  0  0  0  0  0  0  0  0
   21.7418  -19.2974  -14.3818 O   0  0  0  0  0  0  0  0  0  0  0  0
   20.0682  -20.7740  -14.0005 O   0  0  0  0  0  0  0  0  0  0  0  0
  2  1  1  1
  3  2  1  0
  4  9  2  0
  4  3  1  0
  5  4  1  0
  6  7  1  0
  6  5  2  0
  7  8  2  0
  8  9  1  0
 10  2  1  0
 10 12  1  0
 11 10  2  0
 13 12  1  0
 14 13  1  0
 15 14  2  0
 17 16  1  0
 17 18  2  0
 20 19  1  1
 19 17  1  0
 20 21  1  0
 21 14  1  0
 22 23  1  0
 22 20  1  0
 24 22  2  0
M  END
$$$$
