FGN.pdb
     RDKit          3D

 24 24  0  0  1  0  0  0  0  0999 V2000
   27.7930  -19.8611  -14.2025 N   0  0  0  0  0  0  0  0  0  0  0  0
   27.0580  -18.6823  -13.7874 C   0  0  1  0  0  0  0  0  0  0  0  0
   26.2682  -18.1759  -14.9887 C   0  0  0  0  0  0  0  0  0  0  0  0
   27.1552  -17.7846  -16.0972 C   0  0  0  0  0  0  0  0  0  0  0  0
   27.9119  -16.6082  -16.0849 C   0  0  0  0  0  0  0  0  0  0  0  0
   28.7141  -16.3066  -17.1513 C   0  0  0  0  0  0  0  0  0  0  0  0
   28.7728  -17.1544  -18.2221 C   0  0  0  0  0  0  0  0  0  0  0  0
   28.0333  -18.3247  -18.2574 C   0  0  0  0  0  0  0  0  0  0  0  0
   27.2228  -18.6353  -17.1870 C   0  0  0  0  0  0  0  0  0  0  0  0
   26.0858  -19.0108  -12.7030 C   0  0  0  0  0  0  0  0  0  0  0  0
   25.1740  -18.1989  -12.4062 O   0  0  0  0  0  0  0  0  0  0  0  0
   26.1606  -20.2401  -11.9803 N   0  0  0  0  0  0  0  0  0  0  0  0
   25.2694  -20.4235  -10.8853 C   0  0  0  0  0  0  0  0  0  0  0  0
   23.9561  -20.9756  -11.1970 C   0  0  0  0  0  0  0  0  0  0  0  0
   23.7945  -21.6073  -12.2994 O   0  0  0  0  0  0  0  0  0  0  0  0
   19.2479  -23.6563   -9.2324 N   0  0  0  0  0  0  0  0  0  0  0  0
   19.4219  -22.3639   -9.8279 C   0  0  0  0  0  0  0  0  0  0  0  0
   18.4926  -21.9597  -10.5549 O   0  0  0  0  0  0  0  0  0  0  0  0
   20.6717  -21.6414   -9.5272 C   0  0  0  0  0  0  0  0  0  0  0  0
   21.5621  -21.6171  -10.7233 C   0  0  2  0  0  0  0  0  0  0  0  0
   22.8024  -20.8857  -10.3857 N   0  0  0  0  0  0  0  0  0  0  0  0
   20.9170  -20.9476  -11.8630 C   0  0  0  0  0  0  0  0  0  0  0  0
   21.1271  -19.6019  -12.0752 O   0  0  0  0  0  0  0  0  0  0  0  0
   20.1795  -21.5778  -12.6452 O   0  0  0  0  0  0  0  0  0  0  0  0
  2  1  1  6
  3  2  1  0
  4  9  2  0
  4  3  1  0
  5  4  1  0
  6  7  1  0
  6  5  2  0
  7  8  2  0
  8  9  1  0
 10  2  1  0
 10 12  1  0
 11 10  2  0
 13 12  1  0
 14 13  1  0
 15 14  2  0
 17 16  1  0
 17 18  2  0
 20 19  1  1
 19 17  1  0
 20 21  1  0
 21 14  1  0
 22 23  1  0
 22 20  1  0
 24 22  2  0
M  END
$$$$
