FGN.pdb
     RDKit          3D

 24 24  0  0  1  0  0  0  0  0999 V2000
   26.5870  -19.4295  -10.8348 N   0  0  0  0  0  0  0  0  0  0  0  0
   26.9396  -20.8319  -10.9389 C   0  0  1  0  0  0  0  0  0  0  0  0
   26.6376  -21.4913   -9.5982 C   0  0  0  0  0  0  0  0  0  0  0  0
   27.3857  -20.8577   -8.4995 C   0  0  0  0  0  0  0  0  0  0  0  0
   26.8477  -19.8428   -7.7010 C   0  0  0  0  0  0  0  0  0  0  0  0
   27.6014  -19.2977   -6.6978 C   0  0  0  0  0  0  0  0  0  0  0  0
   28.8744  -19.7461   -6.4803 C   0  0  0  0  0  0  0  0  0  0  0  0
   29.4288  -20.7494   -7.2572 C   0  0  0  0  0  0  0  0  0  0  0  0
   28.6758  -21.3035   -8.2697 C   0  0  0  0  0  0  0  0  0  0  0  0
   26.1194  -21.5150  -11.9827 C   0  0  0  0  0  0  0  0  0  0  0  0
   26.2366  -22.7524  -12.1671 O   0  0  0  0  0  0  0  0  0  0  0  0
   25.1895  -20.7941  -12.7919 N   0  0  0  0  0  0  0  0  0  0  0  0
   24.6458  -21.4547  -13.9298 C   0  0  0  0  0  0  0  0  0  0  0  0
   23.1924  -21.4613  -14.0492 C   0  0  0  0  0  0  0  0  0  0  0  0
   22.6565  -22.0151  -15.0723 O   0  0  0  0  0  0  0  0  0  0  0  0
   20.9955  -22.4135  -10.3237 N   0  0  0  0  0  0  0  0  0  0  0  0
   20.2657  -22.3204  -11.5542 C   0  0  0  0  0  0  0  0  0  0  0  0
   19.8505  -23.3942  -12.0341 O   0  0  0  0  0  0  0  0  0  0  0  0
   20.0768  -20.9764  -12.1306 C   0  0  0  0  0  0  0  0  0  0  0  0
   20.8297  -20.8464  -13.4114 C   0  0  2  0  0  0  0  0  0  0  0  0
   22.2797  -20.9033  -13.1257 N   0  0  0  0  0  0  0  0  0  0  0  0
   20.5330  -19.5731  -14.0853 C   0  0  0  0  0  0  0  0  0  0  0  0
   19.2472  -19.3022  -14.5018 O   0  0  0  0  0  0  0  0  0  0  0  0
   21.4274  -18.7295  -14.2880 O   0  0  0  0  0  0  0  0  0  0  0  0
  2  1  1  1
  3  2  1  0
  4  9  2  0
  4  3  1  0
  5  4  1  0
  6  7  1  0
  6  5  2  0
  7  8  2  0
  8  9  1  0
 10  2  1  0
 10 12  1  0
 11 10  2  0
 13 12  1  0
 14 13  1  0
 15 14  2  0
 17 16  1  0
 17 18  2  0
 20 19  1  1
 19 17  1  0
 20 21  1  0
 21 14  1  0
 22 23  1  0
 22 20  1  0
 24 22  2  0
M  END
$$$$
