FGN.pdb
     RDKit          3D

 24 24  0  0  1  0  0  0  0  0999 V2000
   22.9047  -14.6052  -16.5709 N   0  0  0  0  0  0  0  0  0  0  0  0
   23.5773  -13.4456  -16.0187 C   0  0  1  0  0  0  0  0  0  0  0  0
   25.0671  -13.5860  -16.3092 C   0  0  0  0  0  0  0  0  0  0  0  0
   25.6086  -14.8475  -15.7765 C   0  0  0  0  0  0  0  0  0  0  0  0
   25.7667  -15.0878  -14.4075 C   0  0  0  0  0  0  0  0  0  0  0  0
   26.2786  -16.2835  -13.9834 C   0  0  0  0  0  0  0  0  0  0  0  0
   26.6326  -17.2366  -14.8973 C   0  0  0  0  0  0  0  0  0  0  0  0
   26.4855  -17.0222  -16.2575 C   0  0  0  0  0  0  0  0  0  0  0  0
   25.9706  -15.8202  -16.6924 C   0  0  0  0  0  0  0  0  0  0  0  0
   23.0987  -12.1888  -16.6670 C   0  0  0  0  0  0  0  0  0  0  0  0
   22.3904  -12.2440  -17.7034 O   0  0  0  0  0  0  0  0  0  0  0  0
   23.4257  -10.9038  -16.1371 N   0  0  0  0  0  0  0  0  0  0  0  0
   22.7845   -9.7668  -16.7055 C   0  0  0  0  0  0  0  0  0  0  0  0
   22.2787   -8.7670  -15.7720 C   0  0  0  0  0  0  0  0  0  0  0  0
   21.9480   -9.1331  -14.5900 O   0  0  0  0  0  0  0  0  0  0  0  0
   21.6668   -2.6821  -14.7561 N   0  0  0  0  0  0  0  0  0  0  0  0
   21.6204   -4.0715  -14.4057 C   0  0  0  0  0  0  0  0  0  0  0  0
   21.2925   -4.3356  -13.2316 O   0  0  0  0  0  0  0  0  0  0  0  0
   21.9617   -5.0477  -15.4568 C   0  0  0  0  0  0  0  0  0  0  0  0
   21.7183   -6.4387  -14.9771 C   0  0  2  0  0  0  0  0  0  0  0  0
   22.1082   -7.3900  -16.0403 N   0  0  0  0  0  0  0  0  0  0  0  0
   20.3013   -6.6562  -14.6483 C   0  0  0  0  0  0  0  0  0  0  0  0
   19.3832   -6.8364  -15.6606 O   0  0  0  0  0  0  0  0  0  0  0  0
   19.9126   -6.6808  -13.4646 O   0  0  0  0  0  0  0  0  0  0  0  0
  2  1  1  6
  3  2  1  0
  4  9  2  0
  4  3  1  0
  5  4  1  0
  6  7  1  0
  6  5  2  0
  7  8  2  0
  8  9  1  0
 10  2  1  0
 10 12  1  0
 11 10  2  0
 13 12  1  0
 14 13  1  0
 15 14  2  0
 17 16  1  0
 17 18  2  0
 20 19  1  6
 19 17  1  0
 20 21  1  0
 21 14  1  0
 22 23  1  0
 22 20  1  0
 24 22  2  0
M  END
$$$$
