FGN.pdb
     RDKit          3D

 24 24  0  0  1  0  0  0  0  0999 V2000
   21.1723  -11.2067  -17.5081 N   0  0  0  0  0  0  0  0  0  0  0  0
   22.3268  -10.3301  -17.4812 C   0  0  1  0  0  0  0  0  0  0  0  0
   22.0561   -9.1699  -18.4320 C   0  0  0  0  0  0  0  0  0  0  0  0
   21.9420   -9.6257  -19.8276 C   0  0  0  0  0  0  0  0  0  0  0  0
   20.7136   -9.7713  -20.4807 C   0  0  0  0  0  0  0  0  0  0  0  0
   20.6824  -10.2016  -21.7790 C   0  0  0  0  0  0  0  0  0  0  0  0
   21.8495  -10.4868  -22.4314 C   0  0  0  0  0  0  0  0  0  0  0  0
   23.0776  -10.3504  -21.8062 C   0  0  0  0  0  0  0  0  0  0  0  0
   23.1171   -9.9175  -20.4985 C   0  0  0  0  0  0  0  0  0  0  0  0
   22.5396   -9.7656  -16.1155 C   0  0  0  0  0  0  0  0  0  0  0  0
   23.5192   -9.0115  -15.8904 O   0  0  0  0  0  0  0  0  0  0  0  0
   21.6495  -10.0603  -15.0386 N   0  0  0  0  0  0  0  0  0  0  0  0
   21.8763   -9.4120  -13.7915 C   0  0  0  0  0  0  0  0  0  0  0  0
   21.4232   -8.0303  -13.6812 C   0  0  0  0  0  0  0  0  0  0  0  0
   21.3123   -7.5047  -12.5185 O   0  0  0  0  0  0  0  0  0  0  0  0
   22.1368   -4.1969  -13.1198 N   0  0  0  0  0  0  0  0  0  0  0  0
   22.1697   -3.9832  -14.5371 C   0  0  0  0  0  0  0  0  0  0  0  0
   22.9183   -3.0714  -14.9421 O   0  0  0  0  0  0  0  0  0  0  0  0
   21.3233   -4.8535  -15.3740 C   0  0  0  0  0  0  0  0  0  0  0  0
   20.5611   -5.8141  -14.5251 C   0  0  2  0  0  0  0  0  0  0  0  0
   21.0814   -7.1790  -14.7563 N   0  0  0  0  0  0  0  0  0  0  0  0
   19.1259   -5.7974  -14.8465 C   0  0  0  0  0  0  0  0  0  0  0  0
   18.6121   -6.7185  -15.7340 O   0  0  0  0  0  0  0  0  0  0  0  0
   18.3609   -4.9612  -14.3284 O   0  0  0  0  0  0  0  0  0  0  0  0
  2  1  1  1
  3  2  1  0
  4  9  2  0
  4  3  1  0
  5  4  1  0
  6  7  1  0
  6  5  2  0
  7  8  2  0
  8  9  1  0
 10  2  1  0
 10 12  1  0
 11 10  2  0
 13 12  1  0
 14 13  1  0
 15 14  2  0
 17 16  1  0
 17 18  2  0
 20 19  1  6
 19 17  1  0
 20 21  1  0
 21 14  1  0
 22 23  1  0
 22 20  1  0
 24 22  2  0
M  END
$$$$
