FGN.pdb
     RDKit          3D

 24 24  0  0  1  0  0  0  0  0999 V2000
   26.3325  -18.9864   -8.0377 N   0  0  0  0  0  0  0  0  0  0  0  0
   27.4914  -19.7519   -8.4535 C   0  0  1  0  0  0  0  0  0  0  0  0
   27.7219  -20.8500   -7.4217 C   0  0  0  0  0  0  0  0  0  0  0  0
   28.2784  -20.3114   -6.1692 C   0  0  0  0  0  0  0  0  0  0  0  0
   27.4840  -19.9766   -5.0676 C   0  0  0  0  0  0  0  0  0  0  0  0
   28.0691  -19.4789   -3.9356 C   0  0  0  0  0  0  0  0  0  0  0  0
   29.4250  -19.3112   -3.8857 C   0  0  0  0  0  0  0  0  0  0  0  0
   30.2323  -19.6354   -4.9631 C   0  0  0  0  0  0  0  0  0  0  0  0
   29.6502  -20.1373   -6.1069 C   0  0  0  0  0  0  0  0  0  0  0  0
   27.2567  -20.4048   -9.7755 C   0  0  0  0  0  0  0  0  0  0  0  0
   27.9737  -21.3709  -10.1379 O   0  0  0  0  0  0  0  0  0  0  0  0
   26.2250  -19.9584  -10.6560 N   0  0  0  0  0  0  0  0  0  0  0  0
   26.1095  -20.5969  -11.9234 C   0  0  0  0  0  0  0  0  0  0  0  0
   24.7933  -21.1167  -12.2758 C   0  0  0  0  0  0  0  0  0  0  0  0
   24.6475  -22.3791  -12.4356 O   0  0  0  0  0  0  0  0  0  0  0  0
   19.5250  -21.7559  -11.0660 N   0  0  0  0  0  0  0  0  0  0  0  0
   19.9402  -20.7734  -12.0239 C   0  0  0  0  0  0  0  0  0  0  0  0
   19.1198  -20.4936  -12.9208 O   0  0  0  0  0  0  0  0  0  0  0  0
   21.2853  -20.1921  -11.8597 C   0  0  0  0  0  0  0  0  0  0  0  0
   22.2956  -20.9917  -12.6108 C   0  0  2  0  0  0  0  0  0  0  0  0
   23.6208  -20.3512  -12.4666 N   0  0  0  0  0  0  0  0  0  0  0  0
   21.9653  -21.0714  -14.0419 C   0  0  0  0  0  0  0  0  0  0  0  0
   21.1237  -22.0641  -14.4961 O   0  0  0  0  0  0  0  0  0  0  0  0
   22.4347  -20.2536  -14.8564 O   0  0  0  0  0  0  0  0  0  0  0  0
  2  1  1  1
  3  2  1  0
  4  9  2  0
  4  3  1  0
  5  4  1  0
  6  7  1  0
  6  5  2  0
  7  8  2  0
  8  9  1  0
 10  2  1  0
 10 12  1  0
 11 10  2  0
 13 12  1  0
 14 13  1  0
 15 14  2  0
 17 16  1  0
 17 18  2  0
 20 19  1  1
 19 17  1  0
 20 21  1  0
 21 14  1  0
 22 23  1  0
 22 20  1  0
 24 22  2  0
M  END
$$$$
