PLD.pdb
     RDKit          3D

 24 24  0  0  1  0  0  0  0  0999 V2000
   27.9361  -22.0382  -15.9418 N   0  0  0  0  0  0  0  0  0  0  0  0
   28.0343  -21.8859  -17.3539 C   0  0  0  0  0  0  0  0  0  0  0  0
   28.0472  -20.3675  -17.5473 C   0  0  0  0  0  0  0  0  0  0  0  0
   27.0080  -19.9523  -16.5184 C   0  0  0  0  0  0  0  0  0  0  0  0
   27.2452  -20.9534  -15.3850 C   0  0  1  0  0  0  0  0  0  0  0  0
   26.0521  -21.1981  -14.5995 C   0  0  0  0  0  0  0  0  0  0  0  0
   25.2780  -22.1275  -14.9867 O   0  0  0  0  0  0  0  0  0  0  0  0
   25.4776  -22.3132  -10.2081 C   0  0  0  0  0  0  0  0  0  0  0  0
   25.8994  -20.8819  -10.5734 C   0  0  2  0  0  0  0  0  0  0  0  0
   26.1924  -20.2004   -9.2597 C   0  0  0  0  0  0  0  0  0  0  0  0
   24.8135  -20.1679  -11.2920 C   0  0  0  0  0  0  0  0  0  0  0  0
   24.5288  -20.6015  -12.6839 C   0  0  2  0  0  0  0  0  0  0  0  0
   25.7427  -20.4513  -13.4528 N   0  0  0  0  0  0  0  0  0  0  0  0
   23.3353  -20.0671  -13.3175 C   0  0  0  0  0  0  0  0  0  0  0  0
   23.2369  -18.8977  -13.7950 O   0  0  0  0  0  0  0  0  0  0  0  0
   22.1537  -20.8632  -13.4478 N   0  0  0  0  0  0  0  0  0  0  0  0
   21.0343  -20.4221  -14.2774 C   0  0  1  0  0  0  0  0  0  0  0  0
   21.0328  -21.2101  -15.5812 C   0  0  0  0  0  0  0  0  0  0  0  0
   19.8901  -20.9328  -16.4450 C   0  0  0  0  0  0  0  0  0  0  0  0
   19.3967  -21.8267  -17.2196 O   0  0  0  0  0  0  0  0  0  0  0  0
   19.7996  -20.7764  -13.5414 C   0  0  0  0  0  0  0  0  0  0  0  0
   19.8160  -21.5107  -12.3596 O   0  0  0  0  0  0  0  0  0  0  0  0
   19.2733  -19.7098  -16.4893 O   0  0  0  0  0  0  0  0  0  0  0  0
   18.6411  -20.4224  -13.9585 O   0  0  0  0  0  0  0  0  0  0  0  0
  1  5  1  0
  1  2  1  0
  2  3  1  0
  3  4  1  0
  5  4  1  0
  5  6  1  6
  6 13  1  0
  7  6  2  0
  9  8  1  1
  9 11  1  0
 10  9  1  0
 12 11  1  1
 12 13  1  0
 12 14  1  0
 14 15  2  0
 14 16  1  0
 16 17  1  0
 17 18  1  6
 17 21  1  0
 19 23  1  0
 19 18  1  0
 20 19  2  0
 21 22  1  0
 24 21  2  0
M  END
$$$$
