PLD.pdb
     RDKit          3D

 24 24  0  0  1  0  0  0  0  0999 V2000
   26.7203  -19.0986  -14.5454 N   0  0  0  0  0  0  0  0  0  0  0  0
   28.0522  -18.5974  -14.5017 C   0  0  0  0  0  0  0  0  0  0  0  0
   28.8752  -19.7203  -15.1381 C   0  0  0  0  0  0  0  0  0  0  0  0
   28.1928  -20.9362  -14.5323 C   0  0  0  0  0  0  0  0  0  0  0  0
   26.7273  -20.4981  -14.4721 C   0  0  1  0  0  0  0  0  0  0  0  0
   25.9921  -21.1581  -13.4118 C   0  0  0  0  0  0  0  0  0  0  0  0
   25.8398  -22.4158  -13.5015 O   0  0  0  0  0  0  0  0  0  0  0  0
   26.9258  -21.8456   -9.5953 C   0  0  0  0  0  0  0  0  0  0  0  0
   26.2776  -20.4595   -9.7308 C   0  0  2  0  0  0  0  0  0  0  0  0
   26.4776  -19.7886   -8.3944 C   0  0  0  0  0  0  0  0  0  0  0  0
   24.8290  -20.5707  -10.0384 C   0  0  0  0  0  0  0  0  0  0  0  0
   24.4635  -20.9866  -11.4168 C   0  0  2  0  0  0  0  0  0  0  0  0
   25.4598  -20.4572  -12.3192 N   0  0  0  0  0  0  0  0  0  0  0  0
   23.0879  -20.7741  -11.8344 C   0  0  0  0  0  0  0  0  0  0  0  0
   22.0711  -21.1403  -11.1732 O   0  0  0  0  0  0  0  0  0  0  0  0
   22.7882  -20.1091  -13.0652 N   0  0  0  0  0  0  0  0  0  0  0  0
   21.4071  -19.9220  -13.5050 C   0  0  1  0  0  0  0  0  0  0  0  0
   21.3828  -18.9758  -14.6986 C   0  0  0  0  0  0  0  0  0  0  0  0
   20.0489  -18.7237  -15.2333 C   0  0  0  0  0  0  0  0  0  0  0  0
   19.0031  -18.7830  -14.4948 O   0  0  0  0  0  0  0  0  0  0  0  0
   20.9321  -21.2434  -13.9742 C   0  0  0  0  0  0  0  0  0  0  0  0
   21.7881  -22.2007  -14.5097 O   0  0  0  0  0  0  0  0  0  0  0  0
   19.8238  -18.4117  -16.5486 O   0  0  0  0  0  0  0  0  0  0  0  0
   19.6967  -21.5768  -13.9113 O   0  0  0  0  0  0  0  0  0  0  0  0
  1  5  1  0
  1  2  1  0
  2  3  1  0
  3  4  1  0
  5  4  1  0
  5  6  1  1
  6 13  1  0
  7  6  2  0
  9  8  1  1
  9 11  1  0
 10  9  1  0
 12 11  1  1
 12 13  1  0
 12 14  1  0
 14 15  2  0
 14 16  1  0
 16 17  1  0
 17 18  1  6
 17 21  1  0
 19 23  1  0
 19 18  1  0
 20 19  2  0
 21 22  1  0
 24 21  2  0
M  END
$$$$
