PLD.pdb
     RDKit          3D

 24 24  0  0  1  0  0  0  0  0999 V2000
   21.3360  -11.6931  -19.6221 N   0  0  0  0  0  0  0  0  0  0  0  0
   21.5965  -13.0429  -19.9924 C   0  0  0  0  0  0  0  0  0  0  0  0
   20.4855  -13.8251  -19.2875 C   0  0  0  0  0  0  0  0  0  0  0  0
   20.4397  -13.0942  -17.9554 C   0  0  0  0  0  0  0  0  0  0  0  0
   20.7251  -11.6463  -18.3617 C   0  0  1  0  0  0  0  0  0  0  0  0
   21.3463  -10.8818  -17.2987 C   0  0  0  0  0  0  0  0  0  0  0  0
   20.6933  -10.7466  -16.2178 O   0  0  0  0  0  0  0  0  0  0  0  0
   26.8447  -10.2180  -15.4704 C   0  0  0  0  0  0  0  0  0  0  0  0
   25.3231  -10.1025  -15.2937 C   0  0  2  0  0  0  0  0  0  0  0  0
   24.8421  -11.5050  -15.0151 C   0  0  0  0  0  0  0  0  0  0  0  0
   24.6776   -9.5722  -16.5216 C   0  0  0  0  0  0  0  0  0  0  0  0
   23.2040   -9.3892  -16.4822 C   0  0  2  0  0  0  0  0  0  0  0  0
   22.6175  -10.3040  -17.4342 N   0  0  0  0  0  0  0  0  0  0  0  0
   22.6993   -8.0284  -16.5532 C   0  0  0  0  0  0  0  0  0  0  0  0
   22.6798   -7.3226  -17.6052 O   0  0  0  0  0  0  0  0  0  0  0  0
   22.1701   -7.3798  -15.3929 N   0  0  0  0  0  0  0  0  0  0  0  0
   21.6296   -6.0240  -15.4668 C   0  0  1  0  0  0  0  0  0  0  0  0
   20.1178   -6.0743  -15.2869 C   0  0  0  0  0  0  0  0  0  0  0  0
   19.4761   -4.7642  -15.2583 C   0  0  0  0  0  0  0  0  0  0  0  0
   20.0555   -3.7185  -15.7201 O   0  0  0  0  0  0  0  0  0  0  0  0
   22.1910   -5.2836  -14.3141 C   0  0  0  0  0  0  0  0  0  0  0  0
   22.9946   -5.8897  -13.3535 O   0  0  0  0  0  0  0  0  0  0  0  0
   18.2239   -4.5627  -14.7391 O   0  0  0  0  0  0  0  0  0  0  0  0
   21.9636   -4.0349  -14.1396 O   0  0  0  0  0  0  0  0  0  0  0  0
  1  5  1  0
  1  2  1  0
  2  3  1  0
  3  4  1  0
  5  4  1  0
  5  6  1  1
  6 13  1  0
  7  6  2  0
  9  8  1  6
  9 11  1  0
 10  9  1  0
 12 11  1  6
 12 13  1  0
 12 14  1  0
 14 15  2  0
 14 16  1  0
 16 17  1  0
 17 18  1  1
 17 21  1  0
 19 23  1  0
 19 18  1  0
 20 19  2  0
 21 22  1  0
 24 21  2  0
M  END
$$$$
