PLD.pdb
     RDKit          3D

 24 24  0  0  1  0  0  0  0  0999 V2000
   21.9786  -12.0966  -18.7697 N   0  0  0  0  0  0  0  0  0  0  0  0
   22.5521  -13.2376  -19.3990 C   0  0  0  0  0  0  0  0  0  0  0  0
   21.7708  -14.4068  -18.7945 C   0  0  0  0  0  0  0  0  0  0  0  0
   21.6682  -13.9484  -17.3487 C   0  0  0  0  0  0  0  0  0  0  0  0
   21.5111  -12.4325  -17.4919 C   0  0  1  0  0  0  0  0  0  0  0  0
   22.0106  -11.7096  -16.3394 C   0  0  0  0  0  0  0  0  0  0  0  0
   21.5022  -11.9883  -15.2095 O   0  0  0  0  0  0  0  0  0  0  0  0
   25.8127  -12.1239  -15.2076 C   0  0  0  0  0  0  0  0  0  0  0  0
   25.7057  -10.9162  -16.1508 C   0  0  2  0  0  0  0  0  0  0  0  0
   27.1278  -10.5121  -16.4512 C   0  0  0  0  0  0  0  0  0  0  0  0
   24.9774   -9.7935  -15.5069 C   0  0  0  0  0  0  0  0  0  0  0  0
   23.5109   -9.9539  -15.3332 C   0  0  2  0  0  0  0  0  0  0  0  0
   23.0153  -10.7358  -16.4423 N   0  0  0  0  0  0  0  0  0  0  0  0
   22.7400   -8.7582  -15.0372 C   0  0  0  0  0  0  0  0  0  0  0  0
   22.9666   -7.9792  -14.0640 O   0  0  0  0  0  0  0  0  0  0  0  0
   21.6368   -8.3723  -15.8624 N   0  0  0  0  0  0  0  0  0  0  0  0
   20.8834   -7.1496  -15.5919 C   0  0  1  0  0  0  0  0  0  0  0  0
   20.3424   -6.5915  -16.9020 C   0  0  0  0  0  0  0  0  0  0  0  0
   19.5508   -5.3752  -16.7510 C   0  0  0  0  0  0  0  0  0  0  0  0
   19.5428   -4.7062  -15.6578 O   0  0  0  0  0  0  0  0  0  0  0  0
   19.7223   -7.5454  -14.7630 C   0  0  0  0  0  0  0  0  0  0  0  0
   19.2431   -6.7588  -13.7201 O   0  0  0  0  0  0  0  0  0  0  0  0
   18.7676   -4.8703  -17.7558 O   0  0  0  0  0  0  0  0  0  0  0  0
   19.0930   -8.6429  -14.9646 O   0  0  0  0  0  0  0  0  0  0  0  0
  1  5  1  0
  1  2  1  0
  2  3  1  0
  3  4  1  0
  5  4  1  0
  5  6  1  1
  6 13  1  0
  7  6  2  0
  9  8  1  1
  9 11  1  0
 10  9  1  0
 12 11  1  6
 12 13  1  0
 12 14  1  0
 14 15  2  0
 14 16  1  0
 16 17  1  0
 17 18  1  6
 17 21  1  0
 19 23  1  0
 19 18  1  0
 20 19  2  0
 21 22  1  0
 24 21  2  0
M  END
$$$$
