PLD.pdb
     RDKit          3D

 24 24  0  0  1  0  0  0  0  0999 V2000
   27.1823  -19.5386  -15.3477 N   0  0  0  0  0  0  0  0  0  0  0  0
   28.5757  -19.5113  -15.0570 C   0  0  0  0  0  0  0  0  0  0  0  0
   29.0981  -20.7979  -15.7011 C   0  0  0  0  0  0  0  0  0  0  0  0
   27.9727  -21.7567  -15.3477 C   0  0  0  0  0  0  0  0  0  0  0  0
   26.7336  -20.8629  -15.4424 C   0  0  1  0  0  0  0  0  0  0  0  0
   25.6563  -21.3117  -14.5832 C   0  0  0  0  0  0  0  0  0  0  0  0
   25.2013  -22.4812  -14.7790 O   0  0  0  0  0  0  0  0  0  0  0  0
   26.0539  -22.1869  -10.7143 C   0  0  0  0  0  0  0  0  0  0  0  0
   25.7464  -20.6905  -10.8762 C   0  0  2  0  0  0  0  0  0  0  0  0
   25.9519  -20.0866   -9.5091 C   0  0  0  0  0  0  0  0  0  0  0  0
   24.3485  -20.4744  -11.3288 C   0  0  0  0  0  0  0  0  0  0  0  0
   24.0185  -20.8887  -12.7165 C   0  0  2  0  0  0  0  0  0  0  0  0
   25.1203  -20.5047  -13.5684 N   0  0  0  0  0  0  0  0  0  0  0  0
   22.7034  -20.5342  -13.2230 C   0  0  0  0  0  0  0  0  0  0  0  0
   22.3269  -19.3523  -13.4812 O   0  0  0  0  0  0  0  0  0  0  0  0
   21.7170  -21.5399  -13.4733 N   0  0  0  0  0  0  0  0  0  0  0  0
   20.3970  -21.1892  -13.9933 C   0  0  1  0  0  0  0  0  0  0  0  0
   19.7709  -22.4154  -14.6451 C   0  0  0  0  0  0  0  0  0  0  0  0
   18.4201  -22.1978  -15.1521 C   0  0  0  0  0  0  0  0  0  0  0  0
   17.8650  -21.0431  -15.1202 O   0  0  0  0  0  0  0  0  0  0  0  0
   19.5642  -20.8331  -12.8222 C   0  0  0  0  0  0  0  0  0  0  0  0
   18.4461  -20.0107  -12.9199 O   0  0  0  0  0  0  0  0  0  0  0  0
   17.6586  -23.2025  -15.6894 O   0  0  0  0  0  0  0  0  0  0  0  0
   19.8325  -21.2674  -11.6471 O   0  0  0  0  0  0  0  0  0  0  0  0
  1  5  1  0
  1  2  1  0
  2  3  1  0
  3  4  1  0
  5  4  1  0
  5  6  1  1
  6 13  1  0
  7  6  2  0
  9  8  1  1
  9 11  1  0
 10  9  1  0
 12 11  1  1
 12 13  1  0
 12 14  1  0
 14 15  2  0
 14 16  1  0
 16 17  1  0
 17 18  1  1
 17 21  1  0
 19 23  1  0
 19 18  1  0
 20 19  2  0
 21 22  1  0
 24 21  2  0
M  END
$$$$
