PLD.pdb
     RDKit          3D

 24 24  0  0  1  0  0  0  0  0999 V2000
   20.3423  -10.7070  -19.1466 N   0  0  0  0  0  0  0  0  0  0  0  0
   20.3139  -11.8110  -20.0450 C   0  0  0  0  0  0  0  0  0  0  0  0
   19.3020  -12.7642  -19.4043 C   0  0  0  0  0  0  0  0  0  0  0  0
   19.6767  -12.6155  -17.9386 C   0  0  0  0  0  0  0  0  0  0  0  0
   20.0601  -11.1366  -17.8428 C   0  0  1  0  0  0  0  0  0  0  0  0
   21.0170  -10.8768  -16.7859 C   0  0  0  0  0  0  0  0  0  0  0  0
   20.6454  -11.1029  -15.5927 O   0  0  0  0  0  0  0  0  0  0  0  0
   27.1135  -10.0431  -16.5123 C   0  0  0  0  0  0  0  0  0  0  0  0
   25.8069  -10.1861  -15.7171 C   0  0  2  0  0  0  0  0  0  0  0  0
   25.9768  -11.4318  -14.8833 C   0  0  0  0  0  0  0  0  0  0  0  0
   24.6388  -10.3291  -16.6229 C   0  0  0  0  0  0  0  0  0  0  0  0
   23.2949  -10.1141  -16.0275 C   0  0  2  0  0  0  0  0  0  0  0  0
   22.3086  -10.3942  -17.0453 N   0  0  0  0  0  0  0  0  0  0  0  0
   23.0808   -8.8780  -15.2942 C   0  0  0  0  0  0  0  0  0  0  0  0
   23.4295   -8.6859  -14.0914 O   0  0  0  0  0  0  0  0  0  0  0  0
   22.4404   -7.7583  -15.9131 N   0  0  0  0  0  0  0  0  0  0  0  0
   22.2776   -6.4930  -15.2000 C   0  0  1  0  0  0  0  0  0  0  0  0
   22.6581   -5.3425  -16.1231 C   0  0  0  0  0  0  0  0  0  0  0  0
   22.3785   -4.0197  -15.5746 C   0  0  0  0  0  0  0  0  0  0  0  0
   22.3923   -3.7952  -14.3129 O   0  0  0  0  0  0  0  0  0  0  0  0
   20.8342   -6.3629  -14.8975 C   0  0  0  0  0  0  0  0  0  0  0  0
   19.9054   -7.3402  -15.2411 O   0  0  0  0  0  0  0  0  0  0  0  0
   22.0824   -2.9377  -16.3618 O   0  0  0  0  0  0  0  0  0  0  0  0
   20.3612   -5.3339  -14.2985 O   0  0  0  0  0  0  0  0  0  0  0  0
  1  5  1  0
  1  2  1  0
  2  3  1  0
  3  4  1  0
  5  4  1  0
  5  6  1  1
  6 13  1  0
  7  6  2  0
  9  8  1  6
  9 11  1  0
 10  9  1  0
 12 11  1  6
 12 13  1  0
 12 14  1  0
 14 15  2  0
 14 16  1  0
 16 17  1  0
 17 18  1  6
 17 21  1  0
 19 23  1  0
 19 18  1  0
 20 19  2  0
 21 22  1  0
 24 21  2  0
M  END
$$$$
