PLD.pdb
     RDKit          3D

 24 24  0  0  1  0  0  0  0  0999 V2000
   20.4372  -13.3189  -17.4622 N   0  0  0  0  0  0  0  0  0  0  0  0
   19.1227  -13.7894  -17.7405 C   0  0  0  0  0  0  0  0  0  0  0  0
   18.4682  -12.6085  -18.4618 C   0  0  0  0  0  0  0  0  0  0  0  0
   19.0151  -11.4508  -17.6424 C   0  0  0  0  0  0  0  0  0  0  0  0
   20.4283  -11.9272  -17.2976 C   0  0  1  0  0  0  0  0  0  0  0  0
   20.9229  -11.3544  -16.0616 C   0  0  0  0  0  0  0  0  0  0  0  0
   20.1849  -11.4577  -15.0332 O   0  0  0  0  0  0  0  0  0  0  0  0
   26.3035  -11.0081  -15.4477 C   0  0  0  0  0  0  0  0  0  0  0  0
   24.8737  -10.5886  -15.8210 C   0  0  2  0  0  0  0  0  0  0  0  0
   25.0236   -9.3304  -16.6396 C   0  0  0  0  0  0  0  0  0  0  0  0
   24.0583  -10.3194  -14.6092 C   0  0  0  0  0  0  0  0  0  0  0  0
   22.6289   -9.9762  -14.8222 C   0  0  2  0  0  0  0  0  0  0  0  0
   22.1645  -10.7064  -15.9791 N   0  0  0  0  0  0  0  0  0  0  0  0
   22.2722   -8.5676  -14.8063 C   0  0  0  0  0  0  0  0  0  0  0  0
   22.5175   -7.7744  -13.8492 O   0  0  0  0  0  0  0  0  0  0  0  0
   21.5983   -7.9679  -15.9168 N   0  0  0  0  0  0  0  0  0  0  0  0
   21.1710   -6.5709  -15.8753 C   0  0  1  0  0  0  0  0  0  0  0  0
   21.6808   -5.8516  -17.1176 C   0  0  0  0  0  0  0  0  0  0  0  0
   21.1254   -4.5152  -17.3036 C   0  0  0  0  0  0  0  0  0  0  0  0
   21.1007   -3.6561  -16.3530 O   0  0  0  0  0  0  0  0  0  0  0  0
   19.6921   -6.5809  -15.9417 C   0  0  0  0  0  0  0  0  0  0  0  0
   18.9580   -7.7483  -16.1269 O   0  0  0  0  0  0  0  0  0  0  0  0
   20.5952   -4.0914  -18.4941 O   0  0  0  0  0  0  0  0  0  0  0  0
   19.0051   -5.5052  -15.8315 O   0  0  0  0  0  0  0  0  0  0  0  0
  1  5  1  0
  1  2  1  0
  2  3  1  0
  3  4  1  0
  5  4  1  0
  5  6  1  1
  6 13  1  0
  7  6  2  0
  9  8  1  1
  9 11  1  0
 10  9  1  0
 12 11  1  6
 12 13  1  0
 12 14  1  0
 14 15  2  0
 14 16  1  0
 16 17  1  0
 17 18  1  6
 17 21  1  0
 19 23  1  0
 19 18  1  0
 20 19  2  0
 21 22  1  0
 24 21  2  0
M  END
$$$$
