PLD.pdb
     RDKit          3D

 24 24  0  0  1  0  0  0  0  0999 V2000
   18.8368  -11.3127  -17.7404 N   0  0  0  0  0  0  0  0  0  0  0  0
   18.8427  -12.6541  -18.2172 C   0  0  0  0  0  0  0  0  0  0  0  0
   17.5873  -13.2609  -17.5857 C   0  0  0  0  0  0  0  0  0  0  0  0
   17.6523  -12.6415  -16.1990 C   0  0  0  0  0  0  0  0  0  0  0  0
   18.2182  -11.2482  -16.4845 C   0  0  1  0  0  0  0  0  0  0  0  0
   18.9501  -10.7031  -15.3587 C   0  0  0  0  0  0  0  0  0  0  0  0
   18.3367  -10.6154  -14.2501 O   0  0  0  0  0  0  0  0  0  0  0  0
   24.3048  -11.5218  -15.4869 C   0  0  0  0  0  0  0  0  0  0  0  0
   23.0636  -10.6295  -15.6395 C   0  0  2  0  0  0  0  0  0  0  0  0
   23.5801   -9.3020  -16.1362 C   0  0  0  0  0  0  0  0  0  0  0  0
   22.3632  -10.4556  -14.3416 C   0  0  0  0  0  0  0  0  0  0  0  0
   21.0594   -9.7442  -14.3701 C   0  0  2  0  0  0  0  0  0  0  0  0
   20.2842  -10.2819  -15.4643 N   0  0  0  0  0  0  0  0  0  0  0  0
   21.0902   -8.2931  -14.2995 C   0  0  0  0  0  0  0  0  0  0  0  0
   21.6606   -7.6298  -13.3830 O   0  0  0  0  0  0  0  0  0  0  0  0
   20.4553   -7.4952  -15.3031 N   0  0  0  0  0  0  0  0  0  0  0  0
   20.3858   -6.0407  -15.1785 C   0  0  1  0  0  0  0  0  0  0  0  0
   20.9883   -5.3997  -16.4221 C   0  0  0  0  0  0  0  0  0  0  0  0
   20.8248   -3.9513  -16.4859 C   0  0  0  0  0  0  0  0  0  0  0  0
   20.6399   -3.2457  -15.4321 O   0  0  0  0  0  0  0  0  0  0  0  0
   18.9481   -5.6890  -15.1480 C   0  0  0  0  0  0  0  0  0  0  0  0
   18.4900   -4.4429  -14.7318 O   0  0  0  0  0  0  0  0  0  0  0  0
   20.8549   -3.2525  -17.6644 O   0  0  0  0  0  0  0  0  0  0  0  0
   18.0427   -6.5217  -15.5061 O   0  0  0  0  0  0  0  0  0  0  0  0
  1  5  1  0
  1  2  1  0
  2  3  1  0
  3  4  1  0
  5  4  1  0
  5  6  1  1
  6 13  1  0
  7  6  2  0
  9  8  1  1
  9 11  1  0
 10  9  1  0
 12 11  1  6
 12 13  1  0
 12 14  1  0
 14 15  2  0
 14 16  1  0
 16 17  1  0
 17 18  1  6
 17 21  1  0
 19 23  1  0
 19 18  1  0
 20 19  2  0
 21 22  1  0
 24 21  2  0
M  END
$$$$
