PLD.pdb
     RDKit          3D

 24 24  0  0  1  0  0  0  0  0999 V2000
   21.9464  -12.0815  -19.0475 N   0  0  0  0  0  0  0  0  0  0  0  0
   22.5621  -13.2615  -19.5529 C   0  0  0  0  0  0  0  0  0  0  0  0
   21.8592  -14.3848  -18.7866 C   0  0  0  0  0  0  0  0  0  0  0  0
   21.7709  -13.7588  -17.4041 C   0  0  0  0  0  0  0  0  0  0  0  0
   21.5310  -12.2812  -17.7241 C   0  0  1  0  0  0  0  0  0  0  0  0
   22.0221  -11.3994  -16.6841 C   0  0  0  0  0  0  0  0  0  0  0  0
   21.5236  -11.5303  -15.5234 O   0  0  0  0  0  0  0  0  0  0  0  0
   25.7845  -11.5051  -15.0607 C   0  0  0  0  0  0  0  0  0  0  0  0
   25.7449  -10.6578  -16.3415 C   0  0  2  0  0  0  0  0  0  0  0  0
   27.1859  -10.3517  -16.6669 C   0  0  0  0  0  0  0  0  0  0  0  0
   24.9868   -9.3984  -16.1302 C   0  0  0  0  0  0  0  0  0  0  0  0
   23.5205   -9.5213  -15.9270 C   0  0  2  0  0  0  0  0  0  0  0  0
   23.0086  -10.4314  -16.9253 N   0  0  0  0  0  0  0  0  0  0  0  0
   22.7628   -8.2902  -15.7780 C   0  0  0  0  0  0  0  0  0  0  0  0
   23.0393   -7.3714  -14.9506 O   0  0  0  0  0  0  0  0  0  0  0  0
   21.6151   -8.0310  -16.5919 N   0  0  0  0  0  0  0  0  0  0  0  0
   20.8580   -6.7885  -16.4550 C   0  0  1  0  0  0  0  0  0  0  0  0
   20.3006   -6.3863  -17.8144 C   0  0  0  0  0  0  0  0  0  0  0  0
   21.2069   -5.5675  -18.6126 C   0  0  0  0  0  0  0  0  0  0  0  0
   22.3534   -5.2030  -18.1710 O   0  0  0  0  0  0  0  0  0  0  0  0
   19.7076   -7.0916  -15.5737 C   0  0  0  0  0  0  0  0  0  0  0  0
   18.9063   -6.0985  -15.0190 O   0  0  0  0  0  0  0  0  0  0  0  0
   20.8974   -5.1342  -19.8753 O   0  0  0  0  0  0  0  0  0  0  0  0
   19.3874   -8.2951  -15.2731 O   0  0  0  0  0  0  0  0  0  0  0  0
  1  5  1  0
  1  2  1  0
  2  3  1  0
  3  4  1  0
  5  4  1  0
  5  6  1  1
  6 13  1  0
  7  6  2  0
  9  8  1  1
  9 11  1  0
 10  9  1  0
 12 11  1  6
 12 13  1  0
 12 14  1  0
 14 15  2  0
 14 16  1  0
 16 17  1  0
 17 18  1  6
 17 21  1  0
 19 23  1  0
 19 18  1  0
 20 19  2  0
 21 22  1  0
 24 21  2  0
M  END
$$$$
