PLD.pdb
     RDKit          3D

 24 24  0  0  1  0  0  0  0  0999 V2000
   20.5932  -10.7986  -18.2687 N   0  0  0  0  0  0  0  0  0  0  0  0
   20.7735  -11.9603  -19.0718 C   0  0  0  0  0  0  0  0  0  0  0  0
   19.5998  -12.8563  -18.6685 C   0  0  0  0  0  0  0  0  0  0  0  0
   19.5737  -12.6136  -17.1681 C   0  0  0  0  0  0  0  0  0  0  0  0
   19.9607  -11.1362  -17.0645 C   0  0  1  0  0  0  0  0  0  0  0  0
   20.6078  -10.8169  -15.8077 C   0  0  0  0  0  0  0  0  0  0  0  0
   19.9710  -11.0767  -14.7400 O   0  0  0  0  0  0  0  0  0  0  0  0
   25.7273  -11.4321  -15.8516 C   0  0  0  0  0  0  0  0  0  0  0  0
   24.6985  -10.2958  -15.7496 C   0  0  2  0  0  0  0  0  0  0  0  0
   25.5054   -9.0212  -15.7402 C   0  0  0  0  0  0  0  0  0  0  0  0
   23.8970  -10.4061  -14.5042 C   0  0  0  0  0  0  0  0  0  0  0  0
   22.5332   -9.8178  -14.5270 C   0  0  2  0  0  0  0  0  0  0  0  0
   21.8866  -10.2430  -15.7469 N   0  0  0  0  0  0  0  0  0  0  0  0
   22.4145   -8.3990  -14.2362 C   0  0  0  0  0  0  0  0  0  0  0  0
   22.8127   -7.8483  -13.1669 O   0  0  0  0  0  0  0  0  0  0  0  0
   21.8195   -7.5031  -15.1797 N   0  0  0  0  0  0  0  0  0  0  0  0
   21.6941   -6.0761  -14.8900 C   0  0  1  0  0  0  0  0  0  0  0  0
   22.4101   -5.2780  -15.9722 C   0  0  0  0  0  0  0  0  0  0  0  0
   22.2514   -3.8326  -15.8514 C   0  0  0  0  0  0  0  0  0  0  0  0
   21.9254   -3.2796  -14.7422 O   0  0  0  0  0  0  0  0  0  0  0  0
   20.2520   -5.7535  -14.9791 C   0  0  0  0  0  0  0  0  0  0  0  0
   19.7508   -4.4820  -14.7182 O   0  0  0  0  0  0  0  0  0  0  0  0
   22.4358   -2.9756  -16.9048 O   0  0  0  0  0  0  0  0  0  0  0  0
   19.3825   -6.6367  -15.3036 O   0  0  0  0  0  0  0  0  0  0  0  0
  1  5  1  0
  1  2  1  0
  2  3  1  0
  3  4  1  0
  5  4  1  0
  5  6  1  1
  6 13  1  0
  7  6  2  0
  9  8  1  1
  9 11  1  0
 10  9  1  0
 12 11  1  6
 12 13  1  0
 12 14  1  0
 14 15  2  0
 14 16  1  0
 16 17  1  0
 17 18  1  6
 17 21  1  0
 19 23  1  0
 19 18  1  0
 20 19  2  0
 21 22  1  0
 24 21  2  0
M  END
$$$$
