PVP.pdb
     RDKit          3D

 22 23  0  0  1  0  0  0  0  0999 V2000
   26.1835  -20.3844  -12.3028 N   0  0  0  0  0  0  0  0  0  0  0  0
   25.3304  -21.2676  -13.0662 C   0  0  0  0  0  0  0  0  0  0  0  0
   25.1088  -22.4447  -12.1337 C   0  0  0  0  0  0  0  0  0  0  0  0
   25.1852  -21.8174  -10.7579 C   0  0  0  0  0  0  0  0  0  0  0  0
   25.7470  -20.4383  -10.9321 C   0  0  1  0  0  0  0  0  0  0  0  0
   26.9517  -20.3109  -10.0590 C   0  0  0  0  0  0  0  0  0  0  0  0
   28.0136  -20.9745  -10.2862 O   0  0  0  0  0  0  0  0  0  0  0  0
   29.3661  -17.7276   -6.6191 C   0  0  0  0  0  0  0  0  0  0  0  0
   28.3586  -17.9370   -7.7202 C   0  0  2  0  0  0  0  0  0  0  0  0
   27.0335  -17.3666   -7.1916 C   0  0  0  0  0  0  0  0  0  0  0  0
   28.1136  -19.3843   -8.0137 C   0  0  2  0  0  0  0  0  0  0  0  0
   26.9933  -19.4496   -8.9276 N   0  0  0  0  0  0  0  0  0  0  0  0
   27.9199  -20.2320   -6.8234 C   0  0  0  0  0  0  0  0  0  0  0  0
   26.7633  -20.6965   -6.6462 O   0  0  0  0  0  0  0  0  0  0  0  0
   28.9132  -20.5527   -5.8918 N   0  0  0  0  0  0  0  0  0  0  0  0
   30.2861  -20.1180   -5.8785 C   0  0  0  0  0  0  0  0  0  0  0  0
   31.0524  -21.1557   -5.0738 C   0  0  0  0  0  0  0  0  0  0  0  0
   30.0289  -22.2504   -4.8636 C   0  0  0  0  0  0  0  0  0  0  0  0
   28.7541  -21.4022   -4.7416 C   0  0  1  0  0  0  0  0  0  0  0  0
   28.8527  -20.6667   -3.4651 C   0  0  0  0  0  0  0  0  0  0  0  0
   28.7318  -21.2793   -2.2266 O   0  0  0  0  0  0  0  0  0  0  0  0
   29.0552  -19.4269   -3.4668 O   0  0  0  0  0  0  0  0  0  0  0  0
  1  5  1  0
  1  2  1  0
  2  3  1  0
  4  5  1  0
  4  3  1  0
  6 12  1  0
  5  6  1  1
  7  6  2  0
  9  8  1  1
  9 10  1  0
  9 11  1  0
 11 13  1  0
 11 12  1  6
 13 15  1  0
 14 13  2  0
 15 16  1  0
 17 16  1  0
 18 17  1  0
 19 18  1  0
 19 15  1  0
 19 20  1  1
 20 22  2  0
 20 21  1  0
M  END
$$$$
