PVP.pdb
     RDKit          3D

 22 23  0  0  1  0  0  0  0  0999 V2000
   28.5800  -20.2666   -7.0144 N   0  0  0  0  0  0  0  0  0  0  0  0
   29.0753  -19.7272   -5.7677 C   0  0  0  0  0  0  0  0  0  0  0  0
   28.0896  -18.6200   -5.4406 C   0  0  0  0  0  0  0  0  0  0  0  0
   26.7957  -19.1150   -6.0517 C   0  0  0  0  0  0  0  0  0  0  0  0
   27.1422  -20.2682   -6.9451 C   0  0  1  0  0  0  0  0  0  0  0  0
   26.6141  -19.9760   -8.3109 C   0  0  0  0  0  0  0  0  0  0  0  0
   25.8441  -18.9869   -8.5312 O   0  0  0  0  0  0  0  0  0  0  0  0
   26.9841  -21.5386  -12.9874 C   0  0  0  0  0  0  0  0  0  0  0  0
   27.5177  -20.8883  -11.7369 C   0  0  2  0  0  0  0  0  0  0  0  0
   28.3656  -21.9601  -11.0348 C   0  0  0  0  0  0  0  0  0  0  0  0
   26.4355  -20.5035  -10.7770 C   0  0  2  0  0  0  0  0  0  0  0  0
   26.9321  -20.7739   -9.4449 N   0  0  0  0  0  0  0  0  0  0  0  0
   25.1296  -21.1384  -11.0311 C   0  0  0  0  0  0  0  0  0  0  0  0
   24.8588  -22.1603  -10.3475 O   0  0  0  0  0  0  0  0  0  0  0  0
   24.1846  -20.6938  -11.9621 N   0  0  0  0  0  0  0  0  0  0  0  0
   24.3409  -19.6653  -12.9579 C   0  0  0  0  0  0  0  0  0  0  0  0
   22.9401  -19.1692  -13.2796 C   0  0  0  0  0  0  0  0  0  0  0  0
   22.0859  -19.8542  -12.2350 C   0  0  0  0  0  0  0  0  0  0  0  0
   22.8404  -21.1860  -12.1065 C   0  0  1  0  0  0  0  0  0  0  0  0
   22.6288  -21.9188  -13.3708 C   0  0  0  0  0  0  0  0  0  0  0  0
   23.6245  -22.0945  -14.3203 O   0  0  0  0  0  0  0  0  0  0  0  0
   21.5055  -22.4187  -13.6284 O   0  0  0  0  0  0  0  0  0  0  0  0
  1  5  1  0
  1  2  1  0
  2  3  1  0
  4  5  1  0
  4  3  1  0
  6 12  1  0
  5  6  1  6
  7  6  2  0
  9  8  1  6
  9 10  1  0
  9 11  1  0
 11 13  1  0
 11 12  1  1
 13 15  1  0
 14 13  2  0
 15 16  1  0
 17 16  1  0
 18 17  1  0
 19 18  1  0
 19 15  1  0
 19 20  1  6
 20 22  2  0
 20 21  1  0
M  END
$$$$
