PVP.pdb
     RDKit          3D

 22 23  0  0  1  0  0  0  0  0999 V2000
   28.2479  -18.6930  -15.9677 N   0  0  0  0  0  0  0  0  0  0  0  0
   28.3690  -17.4666  -16.7239 C   0  0  0  0  0  0  0  0  0  0  0  0
   27.0690  -16.7383  -16.4343 C   0  0  0  0  0  0  0  0  0  0  0  0
   26.7135  -17.2036  -15.0381 C   0  0  0  0  0  0  0  0  0  0  0  0
   27.5981  -18.3727  -14.7238 C   0  0  1  0  0  0  0  0  0  0  0  0
   26.7297  -19.5273  -14.3462 C   0  0  0  0  0  0  0  0  0  0  0  0
   26.2846  -20.3406  -15.2180 O   0  0  0  0  0  0  0  0  0  0  0  0
   25.2926  -20.1921  -10.2062 C   0  0  0  0  0  0  0  0  0  0  0  0
   25.6776  -21.2227  -11.2363 C   0  0  2  0  0  0  0  0  0  0  0  0
   27.2062  -21.3517  -11.1508 C   0  0  0  0  0  0  0  0  0  0  0  0
   25.3632  -20.7898  -12.6343 C   0  0  2  0  0  0  0  0  0  0  0  0
   26.3457  -19.7930  -13.0025 N   0  0  0  0  0  0  0  0  0  0  0  0
   23.9808  -20.3212  -12.8400 C   0  0  0  0  0  0  0  0  0  0  0  0
   23.7670  -19.0965  -12.6419 O   0  0  0  0  0  0  0  0  0  0  0  0
   22.9067  -21.1267  -13.2336 N   0  0  0  0  0  0  0  0  0  0  0  0
   22.8684  -22.5629  -13.3319 C   0  0  0  0  0  0  0  0  0  0  0  0
   21.7604  -22.8916  -14.3198 C   0  0  0  0  0  0  0  0  0  0  0  0
   21.3853  -21.5358  -14.8774 C   0  0  0  0  0  0  0  0  0  0  0  0
   21.6025  -20.6662  -13.6299 C   0  0  1  0  0  0  0  0  0  0  0  0
   20.5456  -21.0327  -12.6663 C   0  0  0  0  0  0  0  0  0  0  0  0
   19.2243  -20.6336  -12.8030 O   0  0  0  0  0  0  0  0  0  0  0  0
   20.8237  -21.7384  -11.6649 O   0  0  0  0  0  0  0  0  0  0  0  0
  1  5  1  0
  1  2  1  0
  2  3  1  0
  4  5  1  0
  4  3  1  0
  6 12  1  0
  5  6  1  6
  7  6  2  0
  9  8  1  1
  9 10  1  0
  9 11  1  0
 11 13  1  0
 11 12  1  1
 13 15  1  0
 14 13  2  0
 15 16  1  0
 17 16  1  0
 18 17  1  0
 19 18  1  0
 19 15  1  0
 19 20  1  1
 20 22  2  0
 20 21  1  0
M  END
$$$$
