PVP.pdb
     RDKit          3D

 22 23  0  0  1  0  0  0  0  0999 V2000
   26.0016  -19.9420  -11.1164 N   0  0  0  0  0  0  0  0  0  0  0  0
   25.0686  -20.7293  -11.8912 C   0  0  0  0  0  0  0  0  0  0  0  0
   24.8464  -21.9638  -11.0361 C   0  0  0  0  0  0  0  0  0  0  0  0
   25.0272  -21.4461   -9.6248 C   0  0  0  0  0  0  0  0  0  0  0  0
   25.6399  -20.0817   -9.7301 C   0  0  1  0  0  0  0  0  0  0  0  0
   26.8956  -20.0700   -8.9222 C   0  0  0  0  0  0  0  0  0  0  0  0
   27.9353  -20.7020   -9.2957 O   0  0  0  0  0  0  0  0  0  0  0  0
   29.7359  -17.7839   -5.6866 C   0  0  0  0  0  0  0  0  0  0  0  0
   28.4172  -17.9659   -6.3932 C   0  0  2  0  0  0  0  0  0  0  0  0
   27.3340  -17.7043   -5.3355 C   0  0  0  0  0  0  0  0  0  0  0  0
   28.2093  -19.3660   -6.8800 C   0  0  2  0  0  0  0  0  0  0  0  0
   27.0134  -19.3602   -7.6950 N   0  0  0  0  0  0  0  0  0  0  0  0
   28.1633  -20.3887   -5.8194 C   0  0  0  0  0  0  0  0  0  0  0  0
   27.0360  -20.8916   -5.5718 O   0  0  0  0  0  0  0  0  0  0  0  0
   29.2648  -20.8338   -5.0803 N   0  0  0  0  0  0  0  0  0  0  0  0
   30.6336  -20.3991   -5.1853 C   0  0  0  0  0  0  0  0  0  0  0  0
   31.4835  -21.5370   -4.6424 C   0  0  0  0  0  0  0  0  0  0  0  0
   30.4807  -22.6550   -4.4569 C   0  0  0  0  0  0  0  0  0  0  0  0
   29.2446  -21.8386   -4.0508 C   0  0  1  0  0  0  0  0  0  0  0  0
   29.5187  -21.2912   -2.7072 C   0  0  0  0  0  0  0  0  0  0  0  0
   29.6474  -22.0854   -1.5774 O   0  0  0  0  0  0  0  0  0  0  0  0
   29.6468  -20.0519   -2.5463 O   0  0  0  0  0  0  0  0  0  0  0  0
  1  5  1  0
  1  2  1  0
  2  3  1  0
  4  5  1  0
  4  3  1  0
  6 12  1  0
  5  6  1  1
  7  6  2  0
  9  8  1  1
  9 10  1  0
  9 11  1  0
 11 13  1  0
 11 12  1  1
 13 15  1  0
 14 13  2  0
 15 16  1  0
 17 16  1  0
 18 17  1  0
 19 18  1  0
 19 15  1  0
 19 20  1  1
 20 22  2  0
 20 21  1  0
M  END
$$$$
