PVP.pdb
     RDKit          3D

 22 23  0  0  1  0  0  0  0  0999 V2000
   22.1437  -16.5479  -18.0151 N   0  0  0  0  0  0  0  0  0  0  0  0
   21.2196  -17.2494  -18.8780 C   0  0  0  0  0  0  0  0  0  0  0  0
   20.0997  -16.2472  -19.0923 C   0  0  0  0  0  0  0  0  0  0  0  0
   20.8065  -14.9114  -19.0002 C   0  0  0  0  0  0  0  0  0  0  0  0
   22.1715  -15.1720  -18.4374 C   0  0  1  0  0  0  0  0  0  0  0  0
   22.3466  -14.3203  -17.2234 C   0  0  0  0  0  0  0  0  0  0  0  0
   21.8317  -14.6398  -16.1042 O   0  0  0  0  0  0  0  0  0  0  0  0
   25.5020  -11.6233  -16.8415 C   0  0  0  0  0  0  0  0  0  0  0  0
   24.6353  -12.1407  -15.7223 C   0  0  2  0  0  0  0  0  0  0  0  0
   25.0991  -13.5824  -15.4636 C   0  0  0  0  0  0  0  0  0  0  0  0
   23.1886  -12.2185  -16.0986 C   0  0  2  0  0  0  0  0  0  0  0  0
   23.0918  -13.1086  -17.2355 N   0  0  0  0  0  0  0  0  0  0  0  0
   22.5435  -10.9163  -16.3458 C   0  0  0  0  0  0  0  0  0  0  0  0
   22.6048  -10.4730  -17.5225 O   0  0  0  0  0  0  0  0  0  0  0  0
   21.8782  -10.1503  -15.3824 N   0  0  0  0  0  0  0  0  0  0  0  0
   21.7344  -10.4287  -13.9768 C   0  0  0  0  0  0  0  0  0  0  0  0
   20.4977   -9.6722  -13.5184 C   0  0  0  0  0  0  0  0  0  0  0  0
   19.9028   -9.1701  -14.8160 C   0  0  0  0  0  0  0  0  0  0  0  0
   21.1889   -8.9090  -15.6144 C   0  0  1  0  0  0  0  0  0  0  0  0
   21.8556   -7.7536  -14.9815 C   0  0  0  0  0  0  0  0  0  0  0  0
   23.0589   -7.8540  -14.2989 O   0  0  0  0  0  0  0  0  0  0  0  0
   21.3343   -6.6126  -15.0464 O   0  0  0  0  0  0  0  0  0  0  0  0
  1  5  1  0
  1  2  1  0
  2  3  1  0
  4  5  1  0
  4  3  1  0
  6 12  1  0
  5  6  1  1
  7  6  2  0
  9  8  1  6
  9 10  1  0
  9 11  1  0
 11 13  1  0
 11 12  1  6
 13 15  1  0
 14 13  2  0
 15 16  1  0
 17 16  1  0
 18 17  1  0
 19 18  1  0
 19 15  1  0
 19 20  1  1
 20 22  2  0
 20 21  1  0
M  END
$$$$
