PVP.pdb
     RDKit          3D

 22 23  0  0  1  0  0  0  0  0999 V2000
   28.7101  -18.6746  -16.2232 N   0  0  0  0  0  0  0  0  0  0  0  0
   28.5945  -17.5795  -17.1602 C   0  0  0  0  0  0  0  0  0  0  0  0
   27.1641  -17.1043  -16.9799 C   0  0  0  0  0  0  0  0  0  0  0  0
   26.8749  -17.4161  -15.5268 C   0  0  0  0  0  0  0  0  0  0  0  0
   27.9740  -18.3124  -15.0403 C   0  0  1  0  0  0  0  0  0  0  0  0
   27.3543  -19.5522  -14.4848 C   0  0  0  0  0  0  0  0  0  0  0  0
   27.1187  -20.5662  -15.2169 O   0  0  0  0  0  0  0  0  0  0  0  0
   25.5199  -21.8990  -10.4904 C   0  0  0  0  0  0  0  0  0  0  0  0
   26.3644  -20.8356  -11.1440 C   0  0  2  0  0  0  0  0  0  0  0  0
   25.9172  -19.5032  -10.5233 C   0  0  0  0  0  0  0  0  0  0  0  0
   26.1187  -20.7245  -12.6164 C   0  0  2  0  0  0  0  0  0  0  0  0
   26.9898  -19.6823  -13.1159 N   0  0  0  0  0  0  0  0  0  0  0  0
   24.7099  -20.5100  -12.9934 C   0  0  0  0  0  0  0  0  0  0  0  0
   24.3155  -19.3153  -13.0380 O   0  0  0  0  0  0  0  0  0  0  0  0
   23.7945  -21.5224  -13.3007 N   0  0  0  0  0  0  0  0  0  0  0  0
   23.9510  -22.9419  -13.1147 C   0  0  0  0  0  0  0  0  0  0  0  0
   23.0026  -23.6064  -14.1000 C   0  0  0  0  0  0  0  0  0  0  0  0
   22.5166  -22.4472  -14.9426 C   0  0  0  0  0  0  0  0  0  0  0  0
   22.4902  -21.3388  -13.8796 C   0  0  1  0  0  0  0  0  0  0  0  0
   21.3948  -21.6699  -12.9465 C   0  0  0  0  0  0  0  0  0  0  0  0
   20.0556  -21.4770  -13.2515 O   0  0  0  0  0  0  0  0  0  0  0  0
   21.6549  -22.1506  -11.8154 O   0  0  0  0  0  0  0  0  0  0  0  0
  1  5  1  0
  1  2  1  0
  2  3  1  0
  4  5  1  0
  4  3  1  0
  6 12  1  0
  5  6  1  6
  7  6  2  0
  9  8  1  1
  9 10  1  0
  9 11  1  0
 11 13  1  0
 11 12  1  1
 13 15  1  0
 14 13  2  0
 15 16  1  0
 17 16  1  0
 18 17  1  0
 19 18  1  0
 19 15  1  0
 19 20  1  1
 20 22  2  0
 20 21  1  0
M  END
$$$$
