PVP.pdb
     RDKit          3D

 22 23  0  0  1  0  0  0  0  0999 V2000
 2193.4111-1673.2444 -712.8285 N   0  0  0  0  0  0  0  0  0  0  0  0
 2192.0869-1673.5238 -713.3368 C   0  0  0  0  0  0  0  0  0  0  0  0
 2192.0842-1675.0309 -713.5175 C   0  0  0  0  0  0  0  0  0  0  0  0
 2193.0334-1675.5126 -712.4393 C   0  0  0  0  0  0  0  0  0  0  0  0
 2193.7610-1674.3074 -711.9232 C   0  0  1  0  0  0  0  0  0  0  0  0
 2195.2271-1674.5586 -712.0508 C   0  0  0  0  0  0  0  0  0  0  0  0
 2195.7549-1675.6467 -711.6546 O   0  0  0  0  0  0  0  0  0  0  0  0
 2196.2329-1672.9144 -709.4517 C   0  0  0  0  0  0  0  0  0  0  0  0
 2196.1638-1672.1521 -710.7500 C   0  0  2  0  0  0  0  0  0  0  0  0
 2194.7031-1672.2495 -711.2169 C   0  0  0  0  0  0  0  0  0  0  0  0
 2196.9995-1672.7678 -711.8286 C   0  0  2  0  0  0  0  0  0  0  0  0
 2196.1230-1673.6090 -712.6169 N   0  0  0  0  0  0  0  0  0  0  0  0
 2198.1919-1673.4894 -711.3506 C   0  0  0  0  0  0  0  0  0  0  0  0
 2199.1162-1672.7867 -710.8616 O   0  0  0  0  0  0  0  0  0  0  0  0
 2198.3699-1674.8761 -711.4002 N   0  0  0  0  0  0  0  0  0  0  0  0
 2197.6174-1675.8884 -710.7056 C   0  0  0  0  0  0  0  0  0  0  0  0
 2198.5239-1677.1038 -710.6147 C   0  0  0  0  0  0  0  0  0  0  0  0
 2199.8533-1676.5786 -711.1121 C   0  0  0  0  0  0  0  0  0  0  0  0
 2199.3633-1675.5770 -712.1680 C   0  0  1  0  0  0  0  0  0  0  0  0
 2198.7854-1676.3695 -713.2714 C   0  0  0  0  0  0  0  0  0  0  0  0
 2199.4133-1677.4811 -713.8156 O   0  0  0  0  0  0  0  0  0  0  0  0
 2197.6758-1676.0483 -713.7627 O   0  0  0  0  0  0  0  0  0  0  0  0
  1  5  1  0
  1  2  1  0
  2  3  1  0
  4  5  1  0
  4  3  1  0
  6 12  1  0
  5  6  1  6
  7  6  2  0
  9  8  1  1
  9 10  1  0
  9 11  1  0
 11 13  1  0
 11 12  1  1
 13 15  1  0
 14 13  2  0
 15 16  1  0
 17 16  1  0
 18 17  1  0
 19 18  1  0
 19 15  1  0
 19 20  1  6
 20 22  2  0
 20 21  1  0
M  END
$$$$
