PVP.pdb
     RDKit          3D

 22 23  0  0  1  0  0  0  0  0999 V2000
   20.1649  -20.3131  -13.9885 N   0  0  0  0  0  0  0  0  0  0  0  0
   19.2290  -20.8004  -14.9772 C   0  0  0  0  0  0  0  0  0  0  0  0
   20.1170  -21.2119  -16.1376 C   0  0  0  0  0  0  0  0  0  0  0  0
   21.4032  -21.6329  -15.4587 C   0  0  0  0  0  0  0  0  0  0  0  0
   21.3276  -21.1603  -14.0379 C   0  0  1  0  0  0  0  0  0  0  0  0
   22.5269  -20.3143  -13.7625 C   0  0  0  0  0  0  0  0  0  0  0  0
   22.5082  -19.0536  -13.9361 O   0  0  0  0  0  0  0  0  0  0  0  0
   27.3036  -20.7341  -12.5254 C   0  0  0  0  0  0  0  0  0  0  0  0
   25.8383  -20.6828  -12.1765 C   0  0  2  0  0  0  0  0  0  0  0  0
   25.3968  -22.1438  -12.0002 C   0  0  0  0  0  0  0  0  0  0  0  0
   25.0001  -20.1134  -13.2783 C   0  0  2  0  0  0  0  0  0  0  0  0
   23.7567  -20.8537  -13.2932 N   0  0  0  0  0  0  0  0  0  0  0  0
   25.6536  -20.0829  -14.5993 C   0  0  0  0  0  0  0  0  0  0  0  0
   25.4592  -21.0779  -15.3457 O   0  0  0  0  0  0  0  0  0  0  0  0
   26.4609  -19.0442  -15.0755 N   0  0  0  0  0  0  0  0  0  0  0  0
   27.1655  -18.0496  -14.3086 C   0  0  0  0  0  0  0  0  0  0  0  0
   27.3781  -16.8670  -15.2402 C   0  0  0  0  0  0  0  0  0  0  0  0
   26.5530  -17.2347  -16.4543 C   0  0  0  0  0  0  0  0  0  0  0  0
   26.7475  -18.7583  -16.4562 C   0  0  1  0  0  0  0  0  0  0  0  0
   28.1582  -19.0069  -16.8143 C   0  0  0  0  0  0  0  0  0  0  0  0
   29.0525  -19.6479  -15.9697 O   0  0  0  0  0  0  0  0  0  0  0  0
   28.6002  -18.6325  -17.9289 O   0  0  0  0  0  0  0  0  0  0  0  0
  1  5  1  0
  1  2  1  0
  2  3  1  0
  4  5  1  0
  4  3  1  0
  6 12  1  0
  5  6  1  6
  7  6  2  0
  9  8  1  6
  9 10  1  0
  9 11  1  0
 11 13  1  0
 11 12  1  6
 13 15  1  0
 14 13  2  0
 15 16  1  0
 17 16  1  0
 18 17  1  0
 19 18  1  0
 19 15  1  0
 19 20  1  1
 20 22  2  0
 20 21  1  0
M  END
$$$$
