PVP.pdb
     RDKit          3D

 22 23  0  0  1  0  0  0  0  0999 V2000
   26.0441  -20.6464  -12.5998 N   0  0  0  0  0  0  0  0  0  0  0  0
   25.4343  -21.6784  -13.4084 C   0  0  0  0  0  0  0  0  0  0  0  0
   25.5349  -22.9192  -12.5397 C   0  0  0  0  0  0  0  0  0  0  0  0
   25.4683  -22.3646  -11.1325 C   0  0  0  0  0  0  0  0  0  0  0  0
   25.6559  -20.8805  -11.2335 C   0  0  1  0  0  0  0  0  0  0  0  0
   26.8005  -20.4936  -10.3560 C   0  0  0  0  0  0  0  0  0  0  0  0
   28.0034  -20.7672  -10.6688 O   0  0  0  0  0  0  0  0  0  0  0  0
   26.8518  -17.7049   -6.7018 C   0  0  0  0  0  0  0  0  0  0  0  0
   27.6551  -18.0316   -7.9345 C   0  0  2  0  0  0  0  0  0  0  0  0
   26.9027  -17.3881   -9.1094 C   0  0  0  0  0  0  0  0  0  0  0  0
   27.7113  -19.5006   -8.2168 C   0  0  2  0  0  0  0  0  0  0  0  0
   26.6259  -19.8013   -9.1256 N   0  0  0  0  0  0  0  0  0  0  0  0
   27.6985  -20.3608   -7.0197 C   0  0  0  0  0  0  0  0  0  0  0  0
   26.7411  -21.1722   -6.9208 O   0  0  0  0  0  0  0  0  0  0  0  0
   28.6588  -20.3409   -6.0025 N   0  0  0  0  0  0  0  0  0  0  0  0
   29.8371  -19.5176   -5.9151 C   0  0  0  0  0  0  0  0  0  0  0  0
   30.8026  -20.2536   -4.9998 C   0  0  0  0  0  0  0  0  0  0  0  0
   30.1316  -21.5954   -4.8020 C   0  0  0  0  0  0  0  0  0  0  0  0
   28.6584  -21.1610   -4.8203 C   0  0  1  0  0  0  0  0  0  0  0  0
   28.4272  -20.3878   -3.5838 C   0  0  0  0  0  0  0  0  0  0  0  0
   28.4884  -20.9490   -2.3169 O   0  0  0  0  0  0  0  0  0  0  0  0
   28.1604  -19.1619   -3.6484 O   0  0  0  0  0  0  0  0  0  0  0  0
  1  5  1  0
  1  2  1  0
  2  3  1  0
  4  5  1  0
  4  3  1  0
  6 12  1  0
  5  6  1  1
  7  6  2  0
  9  8  1  1
  9 10  1  0
  9 11  1  0
 11 13  1  0
 11 12  1  6
 13 15  1  0
 14 13  2  0
 15 16  1  0
 17 16  1  0
 18 17  1  0
 19 18  1  0
 19 15  1  0
 19 20  1  1
 20 22  2  0
 20 21  1  0
M  END
$$$$
