WCA.pdb
     RDKit          3D

 26 27  0  0  1  0  0  0  0  0999 V2000
    6.6596  -18.0616   24.2749 N   0  0  0  0  0  0  0  0  0  0  0  0
    7.5858  -17.0225   24.0058 C   0  0  1  0  0  0  0  0  0  0  0  0
    8.1105  -16.3840   25.2513 C   0  0  0  0  0  0  0  0  0  0  0  0
    7.1359  -15.4041   25.7544 C   0  0  0  0  0  0  0  0  0  0  0  0
    5.8225  -15.6530   26.1727 C   0  0  0  0  0  0  0  0  0  0  0  0
    5.2698  -14.5061   26.5960 N   0  0  0  0  0  0  0  0  0  0  0  0
    6.1573  -13.5052   26.4772 C   0  0  0  0  0  0  0  0  0  0  0  0
    6.1127  -12.1609   26.7486 C   0  0  0  0  0  0  0  0  0  0  0  0
    7.2010  -11.3424   26.5111 C   0  0  0  0  0  0  0  0  0  0  0  0
    8.3451  -11.8813   25.9952 C   0  0  0  0  0  0  0  0  0  0  0  0
    8.3986  -13.2306   25.7200 C   0  0  0  0  0  0  0  0  0  0  0  0
    7.3329  -14.0579   25.9490 C   0  0  0  0  0  0  0  0  0  0  0  0
    8.6755  -17.3803   23.0581 C   0  0  0  0  0  0  0  0  0  0  0  0
    9.0158  -18.6013   23.0523 O   0  0  0  0  0  0  0  0  0  0  0  0
    9.3333  -16.5002   22.1986 N   0  0  0  0  0  0  0  0  0  0  0  0
   10.4252  -16.9977   21.3675 C   0  0  1  0  0  0  0  0  0  0  0  0
   10.7712  -15.8279   20.4567 C   0  0  0  0  0  0  0  0  0  0  0  0
   12.1876  -16.1694   19.4050 S   0  0  0  0  0  0  0  0  0  0  0  0
   11.6073  -17.3196   22.2189 C   0  0  0  0  0  0  0  0  0  0  0  0
   11.9970  -16.4933   23.1104 O   0  0  0  0  0  0  0  0  0  0  0  0
   14.0930  -20.2187   22.4425 C   0  0  0  0  0  0  0  0  0  0  0  0
   13.4897  -18.9156   22.8277 C   0  0  2  0  0  0  0  0  0  0  0  0
   12.3260  -18.5299   22.0756 N   0  0  0  0  0  0  0  0  0  0  0  0
   14.4941  -17.7937   22.9021 C   0  0  0  0  0  0  0  0  0  0  0  0
   14.9608  -17.1630   21.7749 O   0  0  0  0  0  0  0  0  0  0  0  0
   14.8949  -17.4492   24.0280 O   0  0  0  0  0  0  0  0  0  0  0  0
  2  1  1  1
  2 13  1  0
  3  2  1  0
  3  4  1  0
  4  5  2  0
  4 12  1  0
  5  6  1  0
  6  7  1  0
  7  8  2  0
  8  9  1  0
 10  9  2  0
 11 10  1  0
 12 11  2  0
 12  7  1  0
 13 14  2  0
 15 16  1  0
 15 13  1  0
 16 19  1  0
 16 17  1  6
 18 17  1  0
 19 23  1  0
 20 19  2  0
 22 21  1  6
 23 22  1  0
 24 25  1  0
 24 22  1  0
 26 24  2  0
M  END
$$$$
