WCA.pdb
     RDKit          3D

 26 27  0  0  1  0  0  0  0  0999 V2000
    6.3578  -18.2726   24.6189 N   0  0  0  0  0  0  0  0  0  0  0  0
    6.8222  -17.0299   24.1190 C   0  0  1  0  0  0  0  0  0  0  0  0
    7.6520  -16.2844   25.1139 C   0  0  0  0  0  0  0  0  0  0  0  0
    6.8615  -15.1902   25.6980 C   0  0  0  0  0  0  0  0  0  0  0  0
    5.5629  -15.2664   26.2174 C   0  0  0  0  0  0  0  0  0  0  0  0
    5.2057  -14.0624   26.6894 N   0  0  0  0  0  0  0  0  0  0  0  0
    6.2088  -13.1886   26.5063 C   0  0  0  0  0  0  0  0  0  0  0  0
    6.3685  -11.8551   26.7877 C   0  0  0  0  0  0  0  0  0  0  0  0
    7.5360  -11.1872   26.4693 C   0  0  0  0  0  0  0  0  0  0  0  0
    8.5527  -11.8671   25.8616 C   0  0  0  0  0  0  0  0  0  0  0  0
    8.4010  -13.2067   25.5756 C   0  0  0  0  0  0  0  0  0  0  0  0
    7.2539  -13.8862   25.8837 C   0  0  0  0  0  0  0  0  0  0  0  0
    7.4725  -17.0925   22.7822 C   0  0  0  0  0  0  0  0  0  0  0  0
    7.9378  -18.2248   22.4533 O   0  0  0  0  0  0  0  0  0  0  0  0
    7.6059  -16.0308   21.8873 N   0  0  0  0  0  0  0  0  0  0  0  0
    8.3038  -16.2466   20.6237 C   0  0  1  0  0  0  0  0  0  0  0  0
    7.9571  -15.0237   19.7858 C   0  0  0  0  0  0  0  0  0  0  0  0
    8.3307  -13.4820   20.6299 S   0  0  0  0  0  0  0  0  0  0  0  0
    9.7775  -16.2779   20.8549 C   0  0  0  0  0  0  0  0  0  0  0  0
   10.5764  -16.4172   19.8691 O   0  0  0  0  0  0  0  0  0  0  0  0
   12.0825  -15.4793   23.7619 C   0  0  0  0  0  0  0  0  0  0  0  0
   11.7379  -16.1199   22.4653 C   0  0  2  0  0  0  0  0  0  0  0  0
   10.3351  -16.1542   22.1494 N   0  0  0  0  0  0  0  0  0  0  0  0
   12.3770  -17.4729   22.2816 C   0  0  0  0  0  0  0  0  0  0  0  0
   13.7020  -17.6089   21.9468 O   0  0  0  0  0  0  0  0  0  0  0  0
   11.6622  -18.4777   22.4437 O   0  0  0  0  0  0  0  0  0  0  0  0
  2  1  1  1
  2 13  1  0
  3  2  1  0
  3  4  1  0
  4  5  2  0
  4 12  1  0
  5  6  1  0
  6  7  1  0
  7  8  2  0
  8  9  1  0
 10  9  2  0
 11 10  1  0
 12 11  2  0
 12  7  1  0
 13 14  2  0
 15 16  1  0
 15 13  1  0
 16 19  1  0
 16 17  1  6
 18 17  1  0
 19 23  1  0
 20 19  2  0
 22 21  1  1
 23 22  1  0
 24 25  1  0
 24 22  1  0
 26 24  2  0
M  END
$$$$
