WCA.pdb
     RDKit          3D

 26 27  0  0  1  0  0  0  0  0999 V2000
    6.5095  -17.6439   24.0294 N   0  0  0  0  0  0  0  0  0  0  0  0
    7.5482  -16.6822   24.1082 C   0  0  1  0  0  0  0  0  0  0  0  0
    7.7628  -16.1813   25.5001 C   0  0  0  0  0  0  0  0  0  0  0  0
    6.7986  -15.1107   25.7958 C   0  0  0  0  0  0  0  0  0  0  0  0
    5.4884  -15.2570   26.2688 C   0  0  0  0  0  0  0  0  0  0  0  0
    4.9462  -14.0429   26.4476 N   0  0  0  0  0  0  0  0  0  0  0  0
    5.8375  -13.0955   26.1137 C   0  0  0  0  0  0  0  0  0  0  0  0
    5.8028  -11.7239   26.0980 C   0  0  0  0  0  0  0  0  0  0  0  0
    6.8928  -10.9812   25.6844 C   0  0  0  0  0  0  0  0  0  0  0  0
    8.0286  -11.6245   25.2824 C   0  0  0  0  0  0  0  0  0  0  0  0
    8.0722  -13.0018   25.2954 C   0  0  0  0  0  0  0  0  0  0  0  0
    7.0046  -13.7550   25.7023 C   0  0  0  0  0  0  0  0  0  0  0  0
    8.8238  -17.0781   23.4527 C   0  0  0  0  0  0  0  0  0  0  0  0
    9.0532  -18.3241   23.4111 O   0  0  0  0  0  0  0  0  0  0  0  0
    9.7610  -16.2082   22.8951 N   0  0  0  0  0  0  0  0  0  0  0  0
   11.1130  -16.6905   22.6309 C   0  0  1  0  0  0  0  0  0  0  0  0
   11.7045  -15.6584   21.6808 C   0  0  0  0  0  0  0  0  0  0  0  0
   10.5639  -15.1933   20.3725 S   0  0  0  0  0  0  0  0  0  0  0  0
   11.9058  -16.7014   23.8947 C   0  0  0  0  0  0  0  0  0  0  0  0
   13.1424  -17.0174   23.8709 O   0  0  0  0  0  0  0  0  0  0  0  0
   11.5130  -15.3749   27.3997 C   0  0  0  0  0  0  0  0  0  0  0  0
   12.0037  -16.3734   26.4135 C   0  0  2  0  0  0  0  0  0  0  0  0
   11.3299  -16.3660   25.1428 N   0  0  0  0  0  0  0  0  0  0  0  0
   12.1009  -17.7684   26.9771 C   0  0  0  0  0  0  0  0  0  0  0  0
   12.8524  -18.0486   28.0920 O   0  0  0  0  0  0  0  0  0  0  0  0
   11.4733  -18.6722   26.3974 O   0  0  0  0  0  0  0  0  0  0  0  0
  2  1  1  1
  2 13  1  0
  3  2  1  0
  3  4  1  0
  4  5  2  0
  4 12  1  0
  5  6  1  0
  6  7  1  0
  7  8  2  0
  8  9  1  0
 10  9  2  0
 11 10  1  0
 12 11  2  0
 12  7  1  0
 13 14  2  0
 15 16  1  0
 15 13  1  0
 16 19  1  0
 16 17  1  6
 18 17  1  0
 19 23  1  0
 20 19  2  0
 22 21  1  1
 23 22  1  0
 24 25  1  0
 24 22  1  0
 26 24  2  0
M  END
$$$$
