WCA.pdb
     RDKit          3D

 26 27  0  0  1  0  0  0  0  0999 V2000
    6.2695  -17.8467   24.1978 N   0  0  0  0  0  0  0  0  0  0  0  0
    7.3337  -16.9716   23.8634 C   0  0  1  0  0  0  0  0  0  0  0  0
    7.9312  -16.3092   25.0628 C   0  0  0  0  0  0  0  0  0  0  0  0
    7.0187  -15.2686   25.5604 C   0  0  0  0  0  0  0  0  0  0  0  0
    5.8036  -15.4570   26.2312 C   0  0  0  0  0  0  0  0  0  0  0  0
    5.2873  -14.2610   26.5522 N   0  0  0  0  0  0  0  0  0  0  0  0
    6.1048  -13.2854   26.1240 C   0  0  0  0  0  0  0  0  0  0  0  0
    6.0565  -11.9152   26.1788 C   0  0  0  0  0  0  0  0  0  0  0  0
    7.0589  -11.1373   25.6302 C   0  0  0  0  0  0  0  0  0  0  0  0
    8.1199  -11.7436   25.0203 C   0  0  0  0  0  0  0  0  0  0  0  0
    8.1766  -13.1193   24.9610 C   0  0  0  0  0  0  0  0  0  0  0  0
    7.1954  -13.9070   25.4989 C   0  0  0  0  0  0  0  0  0  0  0  0
    8.3714  -17.5548   22.9707 C   0  0  0  0  0  0  0  0  0  0  0  0
    8.5828  -18.7961   23.1164 O   0  0  0  0  0  0  0  0  0  0  0  0
    9.1091  -16.8604   22.0118 N   0  0  0  0  0  0  0  0  0  0  0  0
   10.1872  -17.5466   21.3067 C   0  0  1  0  0  0  0  0  0  0  0  0
   10.4828  -16.6562   20.1078 C   0  0  0  0  0  0  0  0  0  0  0  0
   10.7692  -14.9449   20.5749 S   0  0  0  0  0  0  0  0  0  0  0  0
   11.3994  -17.6160   22.1738 C   0  0  0  0  0  0  0  0  0  0  0  0
   12.4796  -18.1251   21.7228 O   0  0  0  0  0  0  0  0  0  0  0  0
   12.6420  -15.8667   25.2264 C   0  0  0  0  0  0  0  0  0  0  0  0
   12.5311  -17.0896   24.3881 C   0  0  2  0  0  0  0  0  0  0  0  0
   11.3991  -17.1276   23.5017 N   0  0  0  0  0  0  0  0  0  0  0  0
   12.6539  -18.3668   25.1797 C   0  0  0  0  0  0  0  0  0  0  0  0
   13.7727  -18.6541   25.9226 O   0  0  0  0  0  0  0  0  0  0  0  0
   11.7011  -19.1653   25.1418 O   0  0  0  0  0  0  0  0  0  0  0  0
  2  1  1  1
  2 13  1  0
  3  2  1  0
  3  4  1  0
  4  5  2  0
  4 12  1  0
  5  6  1  0
  6  7  1  0
  7  8  2  0
  8  9  1  0
 10  9  2  0
 11 10  1  0
 12 11  2  0
 12  7  1  0
 13 14  2  0
 15 16  1  0
 15 13  1  0
 16 19  1  0
 16 17  1  6
 18 17  1  0
 19 23  1  0
 20 19  2  0
 22 21  1  1
 23 22  1  0
 24 25  1  0
 24 22  1  0
 26 24  2  0
M  END
$$$$
