WCA.pdb
     RDKit          3D

 26 27  0  0  1  0  0  0  0  0999 V2000
    6.3637  -18.0190   24.0576 N   0  0  0  0  0  0  0  0  0  0  0  0
    7.2204  -16.8912   23.9928 C   0  0  1  0  0  0  0  0  0  0  0  0
    7.7285  -16.4777   25.3363 C   0  0  0  0  0  0  0  0  0  0  0  0
    6.9385  -15.3426   25.8371 C   0  0  0  0  0  0  0  0  0  0  0  0
    5.7312  -15.3970   26.5451 C   0  0  0  0  0  0  0  0  0  0  0  0
    5.3455  -14.1500   26.8552 N   0  0  0  0  0  0  0  0  0  0  0  0
    6.2424  -13.2685   26.3842 C   0  0  0  0  0  0  0  0  0  0  0  0
    6.3316  -11.8995   26.4117 C   0  0  0  0  0  0  0  0  0  0  0  0
    7.3892  -11.2353   25.8193 C   0  0  0  0  0  0  0  0  0  0  0  0
    8.3666  -11.9550   25.1931 C   0  0  0  0  0  0  0  0  0  0  0  0
    8.2851  -13.3303   25.1611 C   0  0  0  0  0  0  0  0  0  0  0  0
    7.2472  -14.0067   25.7423 C   0  0  0  0  0  0  0  0  0  0  0  0
    8.3122  -16.9871   22.9865 C   0  0  0  0  0  0  0  0  0  0  0  0
    8.6671  -18.1635   22.6755 O   0  0  0  0  0  0  0  0  0  0  0  0
    8.9575  -15.9120   22.3753 N   0  0  0  0  0  0  0  0  0  0  0  0
   10.0625  -16.1716   21.4577 C   0  0  1  0  0  0  0  0  0  0  0  0
   10.2119  -14.8781   20.6689 C   0  0  0  0  0  0  0  0  0  0  0  0
   11.6076  -14.9184   19.5379 S   0  0  0  0  0  0  0  0  0  0  0  0
   11.3159  -16.4212   22.2277 C   0  0  0  0  0  0  0  0  0  0  0  0
   12.3891  -16.7417   21.6154 O   0  0  0  0  0  0  0  0  0  0  0  0
   12.2711  -17.6259   25.5236 C   0  0  0  0  0  0  0  0  0  0  0  0
   12.4992  -16.6020   24.4700 C   0  0  2  0  0  0  0  0  0  0  0  0
   11.3629  -16.3117   23.6375 N   0  0  0  0  0  0  0  0  0  0  0  0
   13.7342  -16.8618   23.6452 C   0  0  0  0  0  0  0  0  0  0  0  0
   14.9644  -17.0564   24.2240 O   0  0  0  0  0  0  0  0  0  0  0  0
   13.6079  -16.8958   22.4084 O   0  0  0  0  0  0  0  0  0  0  0  0
  2  1  1  1
  2 13  1  0
  3  2  1  0
  3  4  1  0
  4  5  2  0
  4 12  1  0
  5  6  1  0
  6  7  1  0
  7  8  2  0
  8  9  1  0
 10  9  2  0
 11 10  1  0
 12 11  2  0
 12  7  1  0
 13 14  2  0
 15 16  1  0
 15 13  1  0
 16 19  1  0
 16 17  1  6
 18 17  1  0
 19 23  1  0
 20 19  2  0
 22 21  1  6
 23 22  1  0
 24 25  1  0
 24 22  1  0
 26 24  2  0
M  END
$$$$
