WCA.pdb
     RDKit          3D

 26 27  0  0  1  0  0  0  0  0999 V2000
    6.5259  -17.9625   23.8971 N   0  0  0  0  0  0  0  0  0  0  0  0
    7.5674  -17.0588   23.5677 C   0  0  1  0  0  0  0  0  0  0  0  0
    8.1791  -16.4228   24.7742 C   0  0  0  0  0  0  0  0  0  0  0  0
    7.2070  -15.5155   25.4028 C   0  0  0  0  0  0  0  0  0  0  0  0
    6.0543  -15.8701   26.1152 C   0  0  0  0  0  0  0  0  0  0  0  0
    5.4522  -14.7574   26.5615 N   0  0  0  0  0  0  0  0  0  0  0  0
    6.1529  -13.6783   26.1769 C   0  0  0  0  0  0  0  0  0  0  0  0
    5.9851  -12.3274   26.3496 C   0  0  0  0  0  0  0  0  0  0  0  0
    6.8804  -11.4175   25.8192 C   0  0  0  0  0  0  0  0  0  0  0  0
    7.9547  -11.8708   25.1081 C   0  0  0  0  0  0  0  0  0  0  0  0
    8.1311  -13.2259   24.9301 C   0  0  0  0  0  0  0  0  0  0  0  0
    7.2570  -14.1427   25.4479 C   0  0  0  0  0  0  0  0  0  0  0  0
    8.5956  -17.5957   22.6358 C   0  0  0  0  0  0  0  0  0  0  0  0
    8.7791  -18.8488   22.6877 O   0  0  0  0  0  0  0  0  0  0  0  0
    9.3520  -16.8473   21.7338 N   0  0  0  0  0  0  0  0  0  0  0  0
   10.2754  -17.5338   20.8358 C   0  0  1  0  0  0  0  0  0  0  0  0
   10.5790  -16.5108   19.7500 C   0  0  0  0  0  0  0  0  0  0  0  0
   11.2781  -14.9928   20.4102 S   0  0  0  0  0  0  0  0  0  0  0  0
   11.5371  -17.8661   21.5597 C   0  0  0  0  0  0  0  0  0  0  0  0
   12.5019  -18.4257   20.9388 O   0  0  0  0  0  0  0  0  0  0  0  0
   14.1149  -17.2610   23.4103 C   0  0  0  0  0  0  0  0  0  0  0  0
   12.8406  -17.9523   23.7401 C   0  0  2  0  0  0  0  0  0  0  0  0
   11.7103  -17.5771   22.9338 N   0  0  0  0  0  0  0  0  0  0  0  0
   12.5059  -17.9139   25.2097 C   0  0  0  0  0  0  0  0  0  0  0  0
   13.3476  -18.4406   26.1585 O   0  0  0  0  0  0  0  0  0  0  0  0
   11.4316  -17.3846   25.5451 O   0  0  0  0  0  0  0  0  0  0  0  0
  2  1  1  1
  2 13  1  0
  3  2  1  0
  3  4  1  0
  4  5  2  0
  4 12  1  0
  5  6  1  0
  6  7  1  0
  7  8  2  0
  8  9  1  0
 10  9  2  0
 11 10  1  0
 12 11  2  0
 12  7  1  0
 13 14  2  0
 15 16  1  0
 15 13  1  0
 16 19  1  0
 16 17  1  6
 18 17  1  0
 19 23  1  0
 20 19  2  0
 22 21  1  1
 23 22  1  0
 24 25  1  0
 24 22  1  0
 26 24  2  0
M  END
$$$$
