WCA.pdb
     RDKit          3D

 26 27  0  0  1  0  0  0  0  0999 V2000
    6.5281  -17.1261   23.6523 N   0  0  0  0  0  0  0  0  0  0  0  0
    7.7528  -16.4169   23.7366 C   0  0  1  0  0  0  0  0  0  0  0  0
    8.0842  -16.0072   25.1354 C   0  0  0  0  0  0  0  0  0  0  0  0
    7.1304  -14.9847   25.5914 C   0  0  0  0  0  0  0  0  0  0  0  0
    5.8367  -15.1930   26.0863 C   0  0  0  0  0  0  0  0  0  0  0  0
    5.3008  -14.0121   26.4299 N   0  0  0  0  0  0  0  0  0  0  0  0
    6.1804  -13.0274   26.1849 C   0  0  0  0  0  0  0  0  0  0  0  0
    6.1452  -11.6643   26.3381 C   0  0  0  0  0  0  0  0  0  0  0  0
    7.2207  -10.8722   25.9824 C   0  0  0  0  0  0  0  0  0  0  0  0
    8.3424  -11.4569   25.4674 C   0  0  0  0  0  0  0  0  0  0  0  0
    8.3865  -12.8253   25.3105 C   0  0  0  0  0  0  0  0  0  0  0  0
    7.3331  -13.6269   25.6575 C   0  0  0  0  0  0  0  0  0  0  0  0
    8.9049  -17.0671   23.0557 C   0  0  0  0  0  0  0  0  0  0  0  0
    8.9758  -18.3262   23.1837 O   0  0  0  0  0  0  0  0  0  0  0  0
    9.8860  -16.4163   22.3076 N   0  0  0  0  0  0  0  0  0  0  0  0
   11.1650  -17.0807   22.0771 C   0  0  1  0  0  0  0  0  0  0  0  0
   11.8735  -16.1964   21.0604 C   0  0  0  0  0  0  0  0  0  0  0  0
   10.9490  -16.0315   19.5284 S   0  0  0  0  0  0  0  0  0  0  0  0
   11.9601  -17.1067   23.3393 C   0  0  0  0  0  0  0  0  0  0  0  0
   12.7329  -16.1326   23.6281 O   0  0  0  0  0  0  0  0  0  0  0  0
   11.8857  -18.1196   26.7184 C   0  0  0  0  0  0  0  0  0  0  0  0
   12.6495  -18.3271   25.4598 C   0  0  2  0  0  0  0  0  0  0  0  0
   11.8877  -18.1890   24.2477 N   0  0  0  0  0  0  0  0  0  0  0  0
   13.4608  -19.5978   25.4587 C   0  0  0  0  0  0  0  0  0  0  0  0
   14.4392  -19.8336   26.3932 O   0  0  0  0  0  0  0  0  0  0  0  0
   13.2170  -20.4396   24.5761 O   0  0  0  0  0  0  0  0  0  0  0  0
  2  1  1  1
  2 13  1  0
  3  2  1  0
  3  4  1  0
  4  5  2  0
  4 12  1  0
  5  6  1  0
  6  7  1  0
  7  8  2  0
  8  9  1  0
 10  9  2  0
 11 10  1  0
 12 11  2  0
 12  7  1  0
 13 14  2  0
 15 16  1  0
 15 13  1  0
 16 19  1  0
 16 17  1  6
 18 17  1  0
 19 23  1  0
 20 19  2  0
 22 21  1  1
 23 22  1  0
 24 25  1  0
 24 22  1  0
 26 24  2  0
M  END
$$$$
