WCA.pdb
     RDKit          3D

 26 27  0  0  1  0  0  0  0  0999 V2000
    6.3135  -17.9655   24.5024 N   0  0  0  0  0  0  0  0  0  0  0  0
    7.0375  -16.7763   24.2345 C   0  0  1  0  0  0  0  0  0  0  0  0
    7.6736  -16.2027   25.4595 C   0  0  0  0  0  0  0  0  0  0  0  0
    6.8129  -15.1486   26.0176 C   0  0  0  0  0  0  0  0  0  0  0  0
    5.5367  -15.3024   26.5739 C   0  0  0  0  0  0  0  0  0  0  0  0
    5.0967  -14.1102   27.0040 N   0  0  0  0  0  0  0  0  0  0  0  0
    6.0234  -13.1700   26.7576 C   0  0  0  0  0  0  0  0  0  0  0  0
    6.0838  -11.8170   26.9783 C   0  0  0  0  0  0  0  0  0  0  0  0
    7.1875  -11.0751   26.6012 C   0  0  0  0  0  0  0  0  0  0  0  0
    8.2403  -11.7001   25.9960 C   0  0  0  0  0  0  0  0  0  0  0  0
    8.1881  -13.0587   25.7709 C   0  0  0  0  0  0  0  0  0  0  0  0
    7.1055  -13.8110   26.1377 C   0  0  0  0  0  0  0  0  0  0  0  0
    7.9919  -16.8632   23.0964 C   0  0  0  0  0  0  0  0  0  0  0  0
    8.4733  -18.0144   22.8736 O   0  0  0  0  0  0  0  0  0  0  0  0
    8.3868  -15.8050   22.2779 N   0  0  0  0  0  0  0  0  0  0  0  0
    9.2814  -16.0675   21.1548 C   0  0  1  0  0  0  0  0  0  0  0  0
    9.2032  -14.8065   20.3054 C   0  0  0  0  0  0  0  0  0  0  0  0
    7.5244  -14.4265   19.7897 S   0  0  0  0  0  0  0  0  0  0  0  0
   10.6795  -16.2386   21.6468 C   0  0  0  0  0  0  0  0  0  0  0  0
   11.3229  -15.2361   22.1056 O   0  0  0  0  0  0  0  0  0  0  0  0
   13.1174  -19.1664   21.9790 C   0  0  0  0  0  0  0  0  0  0  0  0
   12.7052  -17.7379   21.9779 C   0  0  2  0  0  0  0  0  0  0  0  0
   11.3320  -17.4939   21.6267 N   0  0  0  0  0  0  0  0  0  0  0  0
   13.6398  -16.8496   21.1966 C   0  0  0  0  0  0  0  0  0  0  0  0
   13.4759  -16.6314   19.8506 O   0  0  0  0  0  0  0  0  0  0  0  0
   14.5770  -16.3115   21.8121 O   0  0  0  0  0  0  0  0  0  0  0  0
  2  1  1  1
  2 13  1  0
  3  2  1  0
  3  4  1  0
  4  5  2  0
  4 12  1  0
  5  6  1  0
  6  7  1  0
  7  8  2  0
  8  9  1  0
 10  9  2  0
 11 10  1  0
 12 11  2  0
 12  7  1  0
 13 14  2  0
 15 16  1  0
 15 13  1  0
 16 19  1  0
 16 17  1  6
 18 17  1  0
 19 23  1  0
 20 19  2  0
 22 21  1  6
 23 22  1  0
 24 25  1  0
 24 22  1  0
 26 24  2  0
M  END
$$$$
