WCA.pdb
     RDKit          3D

 26 27  0  0  1  0  0  0  0  0999 V2000
    6.0759  -17.8517   24.0281 N   0  0  0  0  0  0  0  0  0  0  0  0
    6.7455  -16.6685   23.6260 C   0  0  1  0  0  0  0  0  0  0  0  0
    7.6578  -16.1369   24.6840 C   0  0  0  0  0  0  0  0  0  0  0  0
    6.9067  -15.2519   25.5872 C   0  0  0  0  0  0  0  0  0  0  0  0
    5.8857  -15.6154   26.4745 C   0  0  0  0  0  0  0  0  0  0  0  0
    5.4791  -14.5285   27.1477 N   0  0  0  0  0  0  0  0  0  0  0  0
    6.1840  -13.4580   26.7471 C   0  0  0  0  0  0  0  0  0  0  0  0
    6.1703  -12.1300   27.0921 C   0  0  0  0  0  0  0  0  0  0  0  0
    7.0227  -11.2219   26.4926 C   0  0  0  0  0  0  0  0  0  0  0  0
    7.8973  -11.6538   25.5366 C   0  0  0  0  0  0  0  0  0  0  0  0
    7.9181  -12.9860   25.1843 C   0  0  0  0  0  0  0  0  0  0  0  0
    7.0834  -13.9007   25.7665 C   0  0  0  0  0  0  0  0  0  0  0  0
    7.4116  -16.7426   22.2977 C   0  0  0  0  0  0  0  0  0  0  0  0
    7.8255  -17.8913   21.9571 O   0  0  0  0  0  0  0  0  0  0  0  0
    7.6102  -15.6752   21.4219 N   0  0  0  0  0  0  0  0  0  0  0  0
    8.3366  -15.9005   20.1761 C   0  0  1  0  0  0  0  0  0  0  0  0
    8.0832  -14.6425   19.3569 C   0  0  0  0  0  0  0  0  0  0  0  0
    8.4309  -13.1394   20.2780 S   0  0  0  0  0  0  0  0  0  0  0  0
    9.7981  -16.0166   20.4527 C   0  0  0  0  0  0  0  0  0  0  0  0
   10.6209  -16.1701   19.4889 O   0  0  0  0  0  0  0  0  0  0  0  0
   12.0775  -15.3653   23.3985 C   0  0  0  0  0  0  0  0  0  0  0  0
   11.7069  -16.0484   22.1310 C   0  0  2  0  0  0  0  0  0  0  0  0
   10.3182  -15.9596   21.7672 N   0  0  0  0  0  0  0  0  0  0  0  0
   12.2072  -17.4684   22.0520 C   0  0  0  0  0  0  0  0  0  0  0  0
   11.3474  -18.5390   22.0240 O   0  0  0  0  0  0  0  0  0  0  0  0
   13.4373  -17.6475   22.0121 O   0  0  0  0  0  0  0  0  0  0  0  0
  2  1  1  1
  2 13  1  0
  3  2  1  0
  3  4  1  0
  4  5  2  0
  4 12  1  0
  5  6  1  0
  6  7  1  0
  7  8  2  0
  8  9  1  0
 10  9  2  0
 11 10  1  0
 12 11  2  0
 12  7  1  0
 13 14  2  0
 15 16  1  0
 15 13  1  0
 16 19  1  0
 16 17  1  6
 18 17  1  0
 19 23  1  0
 20 19  2  0
 22 21  1  1
 23 22  1  0
 24 25  1  0
 24 22  1  0
 26 24  2  0
M  END
$$$$
