LRS.pdb
     RDKit          3D

 26 25  0  0  1  0  0  0  0  0999 V2000
   19.5691  -14.4363    1.9007 C   0  0  0  0  0  0  0  0  0  0  0  0
   18.0785  -14.6455    2.1634 C   0  0  1  0  0  0  0  0  0  0  0  0
   17.4989  -15.6151    1.1719 C   0  0  0  0  0  0  0  0  0  0  0  0
   17.9703  -15.1384    3.5923 C   0  0  0  0  0  0  0  0  0  0  0  0
   16.5318  -15.3228    3.9482 C   0  0  2  0  0  0  0  0  0  0  0  0
   15.9914  -14.0852    4.4271 N   0  0  0  0  0  0  0  0  0  0  0  0
   16.3176  -16.4545    4.8915 C   0  0  0  0  0  0  0  0  0  0  0  0
   16.5821  -16.3237    6.1213 O   0  0  0  0  0  0  0  0  0  0  0  0
   11.4663  -23.9639    3.8968 N   0  0  0  0  0  0  0  0  0  0  0  0
   12.0017  -23.9740    5.2117 C   0  0  0  0  0  0  0  0  0  0  0  0
   11.6285  -24.8977    6.0383 N   0  0  0  0  0  0  0  0  0  0  0  0
   12.9337  -23.0173    5.6804 N   0  0  0  0  0  0  0  0  0  0  0  0
   13.3788  -21.8639    4.9385 C   0  0  0  0  0  0  0  0  0  0  0  0
   14.3267  -20.9834    5.6982 C   0  0  0  0  0  0  0  0  0  0  0  0
   14.6720  -19.7983    4.8498 C   0  0  0  0  0  0  0  0  0  0  0  0
   15.6494  -18.8303    5.4660 C   0  0  2  0  0  0  0  0  0  0  0  0
   15.8172  -17.7154    4.4779 N   0  0  0  0  0  0  0  0  0  0  0  0
   16.9831  -19.4311    5.6850 C   0  0  0  0  0  0  0  0  0  0  0  0
   17.7697  -19.5652    4.6878 O   0  0  0  0  0  0  0  0  0  0  0  0
   11.9749  -24.9564    7.0167 O   0  0  0  0  0  0  0  0  0  0  0  0
   19.9535  -18.6046    7.8653 C   0  0  0  0  0  0  0  0  0  0  0  0
   19.5818  -19.9068    8.1730 C   0  0  2  0  0  0  0  0  0  0  0  0
   18.7869  -20.4931    7.0311 N   0  0  0  0  0  0  0  0  0  0  0  0
   17.4611  -19.8693    6.9266 C   0  0  0  0  0  0  0  0  0  0  0  0
   18.6634  -21.9629    7.1713 O   0  0  0  0  0  0  0  0  0  0  0  0
   17.5295  -22.4710    7.1582 O   0  0  0  0  0  0  0  0  0  0  0  0
  2  1  1  6
  3  2  1  0
  4  2  1  0
  4  5  1  0
  5  6  1  1
  7  8  2  0
  7  5  1  0
  9 10  1  0
 10 12  1  0
 11 10  2  0
 12 13  1  0
 13 14  1  0
 14 15  1  0
 16 15  1  6
 16 17  1  0
 17  7  1  0
 18 16  1  0
 19 18  2  0
 21 20  1  0
 22 21  1  6
 22 23  1  0
 23 18  1  0
 24 22  1  0
 25 24  2  0
 26 24  1  0
M  END
$$$$
