LRS.pdb
     RDKit          3D

 26 25  0  0  1  0  0  0  0  0999 V2000
   23.8825  -12.2146  -15.9283 C   0  0  0  0  0  0  0  0  0  0  0  0
   22.4255  -12.4393  -15.5269 C   0  0  1  0  0  0  0  0  0  0  0  0
   22.3457  -13.2158  -14.2424 C   0  0  0  0  0  0  0  0  0  0  0  0
   21.8049  -11.0613  -15.4146 C   0  0  0  0  0  0  0  0  0  0  0  0
   20.3578  -11.1932  -15.0704 C   0  0  2  0  0  0  0  0  0  0  0  0
   19.6830  -11.9284  -16.0985 N   0  0  0  0  0  0  0  0  0  0  0  0
   19.7184   -9.8807  -14.7789 C   0  0  0  0  0  0  0  0  0  0  0  0
   19.3410   -9.1272  -15.7220 O   0  0  0  0  0  0  0  0  0  0  0  0
   14.8064   -7.6672   -8.0324 N   0  0  0  0  0  0  0  0  0  0  0  0
   14.7078   -8.1467   -9.3651 C   0  0  0  0  0  0  0  0  0  0  0  0
   13.7131   -8.9089   -9.6899 N   0  0  0  0  0  0  0  0  0  0  0  0
   15.6491   -7.8368  -10.3758 N   0  0  0  0  0  0  0  0  0  0  0  0
   16.8426   -7.0517  -10.1817 C   0  0  0  0  0  0  0  0  0  0  0  0
   17.6190   -6.8073  -11.4420 C   0  0  0  0  0  0  0  0  0  0  0  0
   18.1615   -8.1126  -11.9373 C   0  0  0  0  0  0  0  0  0  0  0  0
   18.9438   -8.0364  -13.2234 C   0  0  2  0  0  0  0  0  0  0  0  0
   19.5001   -9.4083  -13.4596 N   0  0  0  0  0  0  0  0  0  0  0  0
   20.0889   -7.1041  -13.1379 C   0  0  0  0  0  0  0  0  0  0  0  0
   20.9471   -7.2662  -12.2061 O   0  0  0  0  0  0  0  0  0  0  0  0
   13.5151   -9.1957  -10.6693 O   0  0  0  0  0  0  0  0  0  0  0  0
   21.2044   -4.5418  -16.1565 C   0  0  0  0  0  0  0  0  0  0  0  0
   22.1636   -5.0040  -15.2649 C   0  0  1  0  0  0  0  0  0  0  0  0
   21.5338   -5.2314  -13.9117 N   0  0  0  0  0  0  0  0  0  0  0  0
   20.3113   -6.0385  -14.0195 C   0  0  0  0  0  0  0  0  0  0  0  0
   21.2520   -3.9435  -13.2354 O   0  0  0  0  0  0  0  0  0  0  0  0
   20.0737   -3.6566  -12.9642 O   0  0  0  0  0  0  0  0  0  0  0  0
  2  1  1  1
  3  2  1  0
  4  2  1  0
  4  5  1  0
  5  6  1  6
  7  8  2  0
  7  5  1  0
  9 10  1  0
 10 12  1  0
 11 10  2  0
 12 13  1  0
 13 14  1  0
 14 15  1  0
 16 15  1  1
 16 17  1  0
 17  7  1  0
 18 16  1  0
 19 18  2  0
 21 20  1  0
 22 21  1  1
 22 23  1  0
 23 18  1  0
 24 22  1  0
 25 24  2  0
 26 24  1  0
M  END
$$$$
