LRS.pdb
     RDKit          3D

 26 25  0  0  1  0  0  0  0  0999 V2000
   25.8730  -12.1348  -17.8853 C   0  0  0  0  0  0  0  0  0  0  0  0
   26.5709  -13.2140  -17.0587 C   0  0  1  0  0  0  0  0  0  0  0  0
   26.5425  -12.8605  -15.5981 C   0  0  0  0  0  0  0  0  0  0  0  0
   25.8424  -14.5083  -17.3595 C   0  0  0  0  0  0  0  0  0  0  0  0
   26.3927  -15.6005  -16.5028 C   0  0  2  0  0  0  0  0  0  0  0  0
   27.8107  -15.6898  -16.6877 N   0  0  0  0  0  0  0  0  0  0  0  0
   25.6956  -16.8987  -16.7151 C   0  0  0  0  0  0  0  0  0  0  0  0
   24.7032  -16.9742  -17.4955 O   0  0  0  0  0  0  0  0  0  0  0  0
   24.2264  -24.0551  -14.6933 N   0  0  0  0  0  0  0  0  0  0  0  0
   25.1225  -24.7337  -15.5606 C   0  0  0  0  0  0  0  0  0  0  0  0
   24.7629  -25.8622  -16.0829 N   0  0  0  0  0  0  0  0  0  0  0  0
   26.4077  -24.2418  -15.8923 N   0  0  0  0  0  0  0  0  0  0  0  0
   26.8241  -22.8669  -15.7694 C   0  0  0  0  0  0  0  0  0  0  0  0
   25.7498  -21.8757  -16.1072 C   0  0  0  0  0  0  0  0  0  0  0  0
   26.3133  -20.4927  -15.9917 C   0  0  0  0  0  0  0  0  0  0  0  0
   25.3534  -19.3784  -16.3214 C   0  0  2  0  0  0  0  0  0  0  0  0
   26.0923  -18.0983  -16.0709 N   0  0  0  0  0  0  0  0  0  0  0  0
   24.1606  -19.3783  -15.4468 C   0  0  0  0  0  0  0  0  0  0  0  0
   24.0957  -18.5310  -14.4933 O   0  0  0  0  0  0  0  0  0  0  0  0
   25.3730  -26.4116  -16.7206 O   0  0  0  0  0  0  0  0  0  0  0  0
   20.0893  -18.3663  -14.5786 C   0  0  0  0  0  0  0  0  0  0  0  0
   21.2938  -18.5893  -15.2328 C   0  0  1  0  0  0  0  0  0  0  0  0
   21.8057  -19.9704  -14.9012 N   0  0  0  0  0  0  0  0  0  0  0  0
   23.0734  -20.2502  -15.5885 C   0  0  0  0  0  0  0  0  0  0  0  0
   20.7946  -21.0029  -15.2285 O   0  0  0  0  0  0  0  0  0  0  0  0
   21.0457  -21.8199  -16.1305 O   0  0  0  0  0  0  0  0  0  0  0  0
  2  1  1  6
  3  2  1  0
  4  2  1  0
  4  5  1  0
  5  6  1  6
  7  8  2  0
  7  5  1  0
  9 10  1  0
 10 12  1  0
 11 10  2  0
 12 13  1  0
 13 14  1  0
 14 15  1  0
 16 15  1  1
 16 17  1  0
 17  7  1  0
 18 16  1  0
 19 18  2  0
 21 20  1  0
 22 21  1  1
 22 23  1  0
 23 18  1  0
 24 22  1  0
 25 24  2  0
 26 24  1  0
M  END
$$$$
