LRS.pdb
     RDKit          3D

 26 25  0  0  1  0  0  0  0  0999 V2000
   28.5672  -24.7841  -20.9374 C   0  0  0  0  0  0  0  0  0  0  0  0
   28.9584  -23.7417  -19.8911 C   0  0  1  0  0  0  0  0  0  0  0  0
   29.2411  -22.4181  -20.5449 C   0  0  0  0  0  0  0  0  0  0  0  0
   27.8016  -23.6742  -18.9145 C   0  0  0  0  0  0  0  0  0  0  0  0
   28.1173  -22.6914  -17.8354 C   0  0  2  0  0  0  0  0  0  0  0  0
   29.3963  -22.9956  -17.2656 N   0  0  0  0  0  0  0  0  0  0  0  0
   27.0354  -22.5943  -16.8173 C   0  0  0  0  0  0  0  0  0  0  0  0
   25.9937  -23.3045  -16.9181 O   0  0  0  0  0  0  0  0  0  0  0  0
   23.5998  -20.6277  -10.0067 N   0  0  0  0  0  0  0  0  0  0  0  0
   24.8236  -20.8636   -9.3267 C   0  0  0  0  0  0  0  0  0  0  0  0
   24.7950  -21.2848   -8.1030 N   0  0  0  0  0  0  0  0  0  0  0  0
   26.0941  -20.6607   -9.9170 N   0  0  0  0  0  0  0  0  0  0  0  0
   26.3182  -20.0884  -11.2212 C   0  0  0  0  0  0  0  0  0  0  0  0
   25.6197  -20.8170  -12.3311 C   0  0  0  0  0  0  0  0  0  0  0  0
   26.5757  -20.9953  -13.4702 C   0  0  0  0  0  0  0  0  0  0  0  0
   26.0147  -21.7081  -14.6740 C   0  0  2  0  0  0  0  0  0  0  0  0
   27.1060  -21.7214  -15.7018 N   0  0  0  0  0  0  0  0  0  0  0  0
   24.8587  -21.0004  -15.2661 C   0  0  0  0  0  0  0  0  0  0  0  0
   24.9569  -19.7489  -15.5010 O   0  0  0  0  0  0  0  0  0  0  0  0
   25.6512  -21.5378   -7.5705 O   0  0  0  0  0  0  0  0  0  0  0  0
   20.9535  -19.9719  -13.7145 C   0  0  0  0  0  0  0  0  0  0  0  0
   22.2043  -20.5419  -13.9127 C   0  0  2  0  0  0  0  0  0  0  0  0
   22.3740  -20.9050  -15.3683 N   0  0  0  0  0  0  0  0  0  0  0  0
   23.6421  -21.6094  -15.5995 C   0  0  0  0  0  0  0  0  0  0  0  0
   22.2795  -19.7025  -16.2288 O   0  0  0  0  0  0  0  0  0  0  0  0
   23.2545  -18.9345  -16.2910 O   0  0  0  0  0  0  0  0  0  0  0  0
  2  1  1  6
  3  2  1  0
  4  2  1  0
  4  5  1  0
  5  6  1  1
  7  8  2  0
  7  5  1  0
  9 10  1  0
 10 12  1  0
 11 10  2  0
 12 13  1  0
 13 14  1  0
 14 15  1  0
 16 15  1  1
 16 17  1  0
 17  7  1  0
 18 16  1  0
 19 18  2  0
 21 20  1  0
 22 21  1  1
 22 23  1  0
 23 18  1  0
 24 22  1  0
 25 24  2  0
 26 24  1  0
M  END
$$$$
