LRS.pdb
     RDKit          3D

 26 25  0  0  1  0  0  0  0  0999 V2000
   27.5658  -16.6347  -17.9609 C   0  0  0  0  0  0  0  0  0  0  0  0
   28.1038  -17.8634  -17.2289 C   0  0  1  0  0  0  0  0  0  0  0  0
   29.0106  -17.4518  -16.1031 C   0  0  0  0  0  0  0  0  0  0  0  0
   26.8882  -18.6297  -16.7479 C   0  0  0  0  0  0  0  0  0  0  0  0
   27.3290  -19.8424  -15.9963 C   0  0  2  0  0  0  0  0  0  0  0  0
   28.0282  -20.7286  -16.8788 N   0  0  0  0  0  0  0  0  0  0  0  0
   26.2084  -20.5054  -15.2745 C   0  0  0  0  0  0  0  0  0  0  0  0
   25.5296  -21.4121  -15.8373 O   0  0  0  0  0  0  0  0  0  0  0  0
   25.0034  -20.7115   -6.6021 N   0  0  0  0  0  0  0  0  0  0  0  0
   23.7064  -20.7915   -7.1740 C   0  0  0  0  0  0  0  0  0  0  0  0
   22.6712  -20.6004   -6.4206 N   0  0  0  0  0  0  0  0  0  0  0  0
   23.4744  -21.0741   -8.5414 N   0  0  0  0  0  0  0  0  0  0  0  0
   24.4892  -21.4603   -9.4899 C   0  0  0  0  0  0  0  0  0  0  0  0
   24.0059  -21.5073  -10.9094 C   0  0  0  0  0  0  0  0  0  0  0  0
   25.0192  -20.8410  -11.7883 C   0  0  0  0  0  0  0  0  0  0  0  0
   24.7117  -20.8754  -13.2635 C   0  0  2  0  0  0  0  0  0  0  0  0
   25.8437  -20.1682  -13.9461 N   0  0  0  0  0  0  0  0  0  0  0  0
   23.4686  -20.1490  -13.6021 C   0  0  0  0  0  0  0  0  0  0  0  0
   23.4746  -18.8721  -13.5763 O   0  0  0  0  0  0  0  0  0  0  0  0
   21.6948  -20.7033   -6.7622 O   0  0  0  0  0  0  0  0  0  0  0  0
   20.3200  -21.6884  -15.6596 C   0  0  0  0  0  0  0  0  0  0  0  0
   20.4458  -20.3094  -15.5548 C   0  0  1  0  0  0  0  0  0  0  0  0
   21.0671  -19.9539  -14.2255 N   0  0  0  0  0  0  0  0  0  0  0  0
   22.2626  -20.7651  -13.9599 C   0  0  0  0  0  0  0  0  0  0  0  0
   20.0839  -20.0964  -13.1262 O   0  0  0  0  0  0  0  0  0  0  0  0
   19.0211  -19.4556  -13.1887 O   0  0  0  0  0  0  0  0  0  0  0  0
  2  1  1  1
  3  2  1  0
  4  2  1  0
  4  5  1  0
  5  6  1  6
  7  8  2  0
  7  5  1  0
  9 10  1  0
 10 12  1  0
 11 10  2  0
 12 13  1  0
 13 14  1  0
 14 15  1  0
 16 15  1  1
 16 17  1  0
 17  7  1  0
 18 16  1  0
 19 18  2  0
 21 20  1  0
 22 21  1  6
 22 23  1  0
 23 18  1  0
 24 22  1  0
 25 24  2  0
 26 24  1  0
M  END
$$$$
