LRS.pdb
     RDKit          3D

 26 25  0  0  1  0  0  0  0  0999 V2000
   22.0198  -19.7443   -9.1607 C   0  0  0  0  0  0  0  0  0  0  0  0
   22.9519  -20.8044   -9.7455 C   0  0  1  0  0  0  0  0  0  0  0  0
   22.2505  -21.5902  -10.8178 C   0  0  0  0  0  0  0  0  0  0  0  0
   24.1615  -20.0559  -10.2682 C   0  0  0  0  0  0  0  0  0  0  0  0
   25.0648  -21.0061  -10.9831 C   0  0  2  0  0  0  0  0  0  0  0  0
   26.1749  -21.3413  -10.1416 N   0  0  0  0  0  0  0  0  0  0  0  0
   25.4805  -20.5015  -12.3207 C   0  0  0  0  0  0  0  0  0  0  0  0
   26.1029  -19.4058  -12.4282 O   0  0  0  0  0  0  0  0  0  0  0  0
   26.8447  -24.7127  -15.9592 N   0  0  0  0  0  0  0  0  0  0  0  0
   28.0338  -24.4521  -16.6898 C   0  0  0  0  0  0  0  0  0  0  0  0
   29.0123  -25.2973  -16.6257 N   0  0  0  0  0  0  0  0  0  0  0  0
   28.2164  -23.3032  -17.4962 N   0  0  0  0  0  0  0  0  0  0  0  0
   28.0030  -21.9452  -17.0613 C   0  0  0  0  0  0  0  0  0  0  0  0
   26.5610  -21.5312  -17.0519 C   0  0  0  0  0  0  0  0  0  0  0  0
   25.9744  -21.8502  -15.7111 C   0  0  0  0  0  0  0  0  0  0  0  0
   25.6700  -20.6565  -14.8428 C   0  0  2  0  0  0  0  0  0  0  0  0
   25.2101  -21.2015  -13.5241 N   0  0  0  0  0  0  0  0  0  0  0  0
   24.5730  -19.8248  -15.3839 C   0  0  0  0  0  0  0  0  0  0  0  0
   23.3662  -20.1493  -15.1203 O   0  0  0  0  0  0  0  0  0  0  0  0
   29.9242  -25.1457  -17.1012 O   0  0  0  0  0  0  0  0  0  0  0  0
   22.8615  -15.7514  -17.3029 C   0  0  0  0  0  0  0  0  0  0  0  0
   23.9712  -16.4541  -16.8520 C   0  0  1  0  0  0  0  0  0  0  0  0
   23.6021  -17.9009  -16.6286 N   0  0  0  0  0  0  0  0  0  0  0  0
   24.7591  -18.6842  -16.1754 C   0  0  0  0  0  0  0  0  0  0  0  0
   23.0173  -18.4937  -17.8542 O   0  0  0  0  0  0  0  0  0  0  0  0
   23.7676  -19.0871  -18.6473 O   0  0  0  0  0  0  0  0  0  0  0  0
  2  1  1  6
  3  2  1  0
  4  2  1  0
  4  5  1  0
  5  6  1  1
  7  8  2  0
  7  5  1  0
  9 10  1  0
 10 12  1  0
 11 10  2  0
 12 13  1  0
 13 14  1  0
 14 15  1  0
 16 15  1  6
 16 17  1  0
 17  7  1  0
 18 16  1  0
 19 18  2  0
 21 20  1  0
 22 21  1  1
 22 23  1  0
 23 18  1  0
 24 22  1  0
 25 24  2  0
 26 24  1  0
M  END
$$$$
