LRS.pdb
     RDKit          3D

 26 25  0  0  1  0  0  0  0  0999 V2000
   27.6812  -19.2008  -18.2149 C   0  0  0  0  0  0  0  0  0  0  0  0
   27.9912  -20.2932  -17.1927 C   0  0  1  0  0  0  0  0  0  0  0  0
   29.1634  -19.8991  -16.3383 C   0  0  0  0  0  0  0  0  0  0  0  0
   26.7217  -20.4858  -16.3877 C   0  0  0  0  0  0  0  0  0  0  0  0
   26.9496  -21.5238  -15.3387 C   0  0  2  0  0  0  0  0  0  0  0  0
   27.2541  -22.7783  -15.9602 N   0  0  0  0  0  0  0  0  0  0  0  0
   25.8228  -21.6131  -14.3698 C   0  0  0  0  0  0  0  0  0  0  0  0
   24.8248  -22.3512  -14.6124 O   0  0  0  0  0  0  0  0  0  0  0  0
   21.3774  -22.0338   -7.2588 N   0  0  0  0  0  0  0  0  0  0  0  0
   21.0756  -21.8458   -8.6333 C   0  0  0  0  0  0  0  0  0  0  0  0
   19.8372  -21.8086   -9.0085 N   0  0  0  0  0  0  0  0  0  0  0  0
   22.0650  -21.6958   -9.6344 N   0  0  0  0  0  0  0  0  0  0  0  0
   23.4576  -21.4174   -9.3858 C   0  0  0  0  0  0  0  0  0  0  0  0
   23.9254  -20.1102   -9.9542 C   0  0  0  0  0  0  0  0  0  0  0  0
   25.0324  -20.3741  -10.9280 C   0  0  0  0  0  0  0  0  0  0  0  0
   24.5991  -20.9462  -12.2535 C   0  0  2  0  0  0  0  0  0  0  0  0
   25.8012  -20.8938  -13.1477 N   0  0  0  0  0  0  0  0  0  0  0  0
   23.5344  -20.1463  -12.8971 C   0  0  0  0  0  0  0  0  0  0  0  0
   23.7163  -18.8920  -13.0550 O   0  0  0  0  0  0  0  0  0  0  0  0
   19.5479  -21.7827  -10.0066 O   0  0  0  0  0  0  0  0  0  0  0  0
   20.0474  -19.4256  -15.9604 C   0  0  0  0  0  0  0  0  0  0  0  0
   20.9774  -20.2811  -15.3842 C   0  0  2  0  0  0  0  0  0  0  0  0
   21.3326  -19.7906  -14.0012 N   0  0  0  0  0  0  0  0  0  0  0  0
   22.3199  -20.6689  -13.3596 C   0  0  0  0  0  0  0  0  0  0  0  0
   20.1214  -19.6616  -13.1576 O   0  0  0  0  0  0  0  0  0  0  0  0
   20.0408  -20.3411  -12.1203 O   0  0  0  0  0  0  0  0  0  0  0  0
  2  1  1  6
  3  2  1  0
  4  2  1  0
  4  5  1  0
  5  6  1  6
  7  8  2  0
  7  5  1  0
  9 10  1  0
 10 12  1  0
 11 10  2  0
 12 13  1  0
 13 14  1  0
 14 15  1  0
 16 15  1  1
 16 17  1  0
 17  7  1  0
 18 16  1  0
 19 18  2  0
 21 20  1  0
 22 21  1  6
 22 23  1  0
 23 18  1  0
 24 22  1  0
 25 24  2  0
 26 24  1  0
M  END
$$$$
