LRS.pdb
     RDKit          3D

 26 25  0  0  1  0  0  0  0  0999 V2000
   28.6558  -18.0564  -21.1566 C   0  0  0  0  0  0  0  0  0  0  0  0
   27.6003  -17.3236  -20.3298 C   0  0  1  0  0  0  0  0  0  0  0  0
   26.6360  -16.5998  -21.2273 C   0  0  0  0  0  0  0  0  0  0  0  0
   26.9247  -18.3817  -19.4809 C   0  0  0  0  0  0  0  0  0  0  0  0
   25.8227  -17.7572  -18.6900 C   0  0  2  0  0  0  0  0  0  0  0  0
   26.3133  -16.5910  -18.0175 N   0  0  0  0  0  0  0  0  0  0  0  0
   25.1612  -18.7235  -17.7708 C   0  0  0  0  0  0  0  0  0  0  0  0
   24.7635  -19.8457  -18.1974 O   0  0  0  0  0  0  0  0  0  0  0  0
   26.2758  -20.1884   -9.0340 N   0  0  0  0  0  0  0  0  0  0  0  0
   24.9585  -20.6048   -9.3614 C   0  0  0  0  0  0  0  0  0  0  0  0
   24.1454  -20.9342   -8.4094 N   0  0  0  0  0  0  0  0  0  0  0  0
   24.4741  -20.6838  -10.6890 N   0  0  0  0  0  0  0  0  0  0  0  0
   25.0148  -19.9579  -11.8113 C   0  0  0  0  0  0  0  0  0  0  0  0
   24.2727  -20.1858  -13.0950 C   0  0  0  0  0  0  0  0  0  0  0  0
   24.9262  -19.3871  -14.1805 C   0  0  0  0  0  0  0  0  0  0  0  0
   24.2433  -19.4479  -15.5228 C   0  0  2  0  0  0  0  0  0  0  0  0
   24.9424  -18.4503  -16.3965 N   0  0  0  0  0  0  0  0  0  0  0  0
   22.8192  -19.0540  -15.4544 C   0  0  0  0  0  0  0  0  0  0  0  0
   22.5124  -17.8235  -15.6062 O   0  0  0  0  0  0  0  0  0  0  0  0
   23.1734  -21.2599   -8.5815 O   0  0  0  0  0  0  0  0  0  0  0  0
   19.6867  -18.2499  -17.5468 C   0  0  0  0  0  0  0  0  0  0  0  0
   20.5114  -19.3311  -17.2650 C   0  0  2  0  0  0  0  0  0  0  0  0
   20.4306  -19.6641  -15.7946 N   0  0  0  0  0  0  0  0  0  0  0  0
   21.7599  -19.9441  -15.2359 C   0  0  0  0  0  0  0  0  0  0  0  0
   19.5139  -20.8041  -15.5592 O   0  0  0  0  0  0  0  0  0  0  0  0
   19.9958  -21.9434  -15.4406 O   0  0  0  0  0  0  0  0  0  0  0  0
  2  1  1  6
  3  2  1  0
  4  2  1  0
  4  5  1  0
  5  6  1  1
  7  8  2  0
  7  5  1  0
  9 10  1  0
 10 12  1  0
 11 10  2  0
 12 13  1  0
 13 14  1  0
 14 15  1  0
 16 15  1  1
 16 17  1  0
 17  7  1  0
 18 16  1  0
 19 18  2  0
 21 20  1  0
 22 21  1  1
 22 23  1  0
 23 18  1  0
 24 22  1  0
 25 24  2  0
 26 24  1  0
M  END
$$$$
