LRS.pdb
     RDKit          3D

 26 25  0  0  1  0  0  0  0  0999 V2000
   14.7284  -14.4226  -16.2128 C   0  0  0  0  0  0  0  0  0  0  0  0
   15.4131  -13.3691  -17.0822 C   0  0  1  0  0  0  0  0  0  0  0  0
   14.4462  -12.2784  -17.4494 C   0  0  0  0  0  0  0  0  0  0  0  0
   16.5883  -12.8582  -16.2733 C   0  0  0  0  0  0  0  0  0  0  0  0
   17.2948  -11.7899  -17.0410 C   0  0  2  0  0  0  0  0  0  0  0  0
   17.6819  -12.2949  -18.3248 N   0  0  0  0  0  0  0  0  0  0  0  0
   18.4309  -11.1980  -16.2824 C   0  0  0  0  0  0  0  0  0  0  0  0
   18.2723  -10.8083  -15.0897 O   0  0  0  0  0  0  0  0  0  0  0  0
   27.1933  -12.6341  -17.0920 N   0  0  0  0  0  0  0  0  0  0  0  0
   27.0637  -11.4201  -16.3672 C   0  0  0  0  0  0  0  0  0  0  0  0
   28.1312  -10.7821  -16.0079 N   0  0  0  0  0  0  0  0  0  0  0  0
   25.8156  -10.8578  -16.0070 N   0  0  0  0  0  0  0  0  0  0  0  0
   24.5302  -11.3678  -16.4146 C   0  0  0  0  0  0  0  0  0  0  0  0
   23.3703  -10.5606  -15.9109 C   0  0  0  0  0  0  0  0  0  0  0  0
   22.1061  -11.1134  -16.4938 C   0  0  0  0  0  0  0  0  0  0  0  0
   20.8376  -10.4490  -16.0233 C   0  0  2  0  0  0  0  0  0  0  0  0
   19.7261  -11.0393  -16.8377 N   0  0  0  0  0  0  0  0  0  0  0  0
   20.8364   -8.9899  -16.2660 C   0  0  0  0  0  0  0  0  0  0  0  0
   20.8636   -8.5656  -17.4703 O   0  0  0  0  0  0  0  0  0  0  0  0
   28.1096   -9.9356  -15.4050 O   0  0  0  0  0  0  0  0  0  0  0  0
   18.6413   -6.2133  -14.7342 C   0  0  0  0  0  0  0  0  0  0  0  0
   19.4205   -6.0797  -15.8760 C   0  0  1  0  0  0  0  0  0  0  0  0
   20.8148   -6.5910  -15.6040 N   0  0  0  0  0  0  0  0  0  0  0  0
   20.8029   -8.0184  -15.2575 C   0  0  0  0  0  0  0  0  0  0  0  0
   21.4705   -5.7994  -14.5368 O   0  0  0  0  0  0  0  0  0  0  0  0
   21.8100   -6.3751  -13.4892 O   0  0  0  0  0  0  0  0  0  0  0  0
  2  1  1  1
  3  2  1  0
  4  2  1  0
  4  5  1  0
  5  6  1  6
  7  8  2  0
  7  5  1  0
  9 10  1  0
 10 12  1  0
 11 10  2  0
 12 13  1  0
 13 14  1  0
 14 15  1  0
 16 15  1  6
 16 17  1  0
 17  7  1  0
 18 16  1  0
 19 18  2  0
 21 20  1  0
 22 21  1  6
 22 23  1  0
 23 18  1  0
 24 22  1  0
 25 24  2  0
 26 24  1  0
M  END
$$$$
