AFV.pdb
     RDKit          3D

 24 24  0  0  1  0  0  0  0  0999 V2000
   28.7351  -19.6742  -13.6315 C   0  0  0  0  0  0  0  0  0  0  0  0
   29.3515  -20.9210  -13.0691 C   0  0  2  0  0  0  0  0  0  0  0  0
   29.2660  -22.0422  -13.9791 N   0  0  0  0  0  0  0  0  0  0  0  0
   28.6473  -21.2366  -11.7807 C   0  0  0  0  0  0  0  0  0  0  0  0
   27.6866  -22.0363  -11.7350 O   0  0  0  0  0  0  0  0  0  0  0  0
   29.0852  -20.6132  -10.6018 N   0  0  0  0  0  0  0  0  0  0  0  0
   28.4076  -20.7502   -9.3197 C   0  0  1  0  0  0  0  0  0  0  0  0
   29.3393  -20.1945   -8.2838 C   0  0  0  0  0  0  0  0  0  0  0  0
   28.7340  -20.0741   -6.9334 C   0  0  0  0  0  0  0  0  0  0  0  0
   28.1387  -18.9077   -6.5208 C   0  0  0  0  0  0  0  0  0  0  0  0
   27.5618  -18.7550   -5.2684 C   0  0  0  0  0  0  0  0  0  0  0  0
   27.5792  -19.8134   -4.3873 C   0  0  0  0  0  0  0  0  0  0  0  0
   28.1730  -20.9937   -4.7840 C   0  0  0  0  0  0  0  0  0  0  0  0
   28.7435  -21.1317   -6.0338 C   0  0  0  0  0  0  0  0  0  0  0  0
   27.0715  -20.1669   -9.3213 C   0  0  0  0  0  0  0  0  0  0  0  0
   26.9112  -18.9576   -9.6241 O   0  0  0  0  0  0  0  0  0  0  0  0
   24.3183  -21.8729  -11.3214 C   0  0  0  0  0  0  0  0  0  0  0  0
   24.3051  -20.4492  -10.8183 C   0  0  1  0  0  0  0  0  0  0  0  0
   22.9766  -19.8354  -11.1280 C   0  0  0  0  0  0  0  0  0  0  0  0
   24.5666  -20.3635   -9.3290 C   0  0  2  0  0  0  0  0  0  0  0  0
   25.8741  -20.8890   -8.9921 N   0  0  0  0  0  0  0  0  0  0  0  0
   23.5365  -21.1245   -8.6032 C   0  0  0  0  0  0  0  0  0  0  0  0
   23.8450  -22.1196   -7.9075 O   0  0  0  0  0  0  0  0  0  0  0  0
   22.1813  -20.7967   -8.6405 O   0  0  0  0  0  0  0  0  0  0  0  0
  2  1  1  6
  2  3  1  0
  4  2  1  0
  4  5  2  0
  6  4  1  0
  7  6  1  0
  7  8  1  1
  9 14  2  0
  9  8  1  0
 10  9  1  0
 11 10  2  0
 11 12  1  0
 12 13  2  0
 13 14  1  0
 15  7  1  0
 16 15  2  0
 18 17  1  1
 19 18  1  0
 20 18  1  0
 20 21  1  6
 21 15  1  0
 22 20  1  0
 22 24  1  0
 23 22  2  0
M  END
$$$$
