AFV.pdb
     RDKit          3D

 24 24  0  0  1  0  0  0  0  0999 V2000
   27.5771  -20.5698  -17.8614 C   0  0  0  0  0  0  0  0  0  0  0  0
   28.2468  -21.4871  -16.8813 C   0  0  2  0  0  0  0  0  0  0  0  0
   28.6124  -22.7572  -17.4694 N   0  0  0  0  0  0  0  0  0  0  0  0
   27.3024  -21.6940  -15.7319 C   0  0  0  0  0  0  0  0  0  0  0  0
   26.3525  -22.5050  -15.7991 O   0  0  0  0  0  0  0  0  0  0  0  0
   27.4985  -20.9538  -14.5556 N   0  0  0  0  0  0  0  0  0  0  0  0
   26.6462  -21.0706  -13.3801 C   0  0  1  0  0  0  0  0  0  0  0  0
   27.4514  -20.5686  -12.2185 C   0  0  0  0  0  0  0  0  0  0  0  0
   26.7014  -20.5331  -10.9376 C   0  0  0  0  0  0  0  0  0  0  0  0
   26.3936  -21.6867  -10.2598 C   0  0  0  0  0  0  0  0  0  0  0  0
   25.6954  -21.6962   -9.0610 C   0  0  0  0  0  0  0  0  0  0  0  0
   25.2855  -20.5011   -8.5130 C   0  0  0  0  0  0  0  0  0  0  0  0
   25.5855  -19.3311   -9.1796 C   0  0  0  0  0  0  0  0  0  0  0  0
   26.2812  -19.3365  -10.3722 C   0  0  0  0  0  0  0  0  0  0  0  0
   25.3505  -20.4254  -13.5549 C   0  0  0  0  0  0  0  0  0  0  0  0
   25.2808  -19.2763  -14.0593 O   0  0  0  0  0  0  0  0  0  0  0  0
   23.1092  -20.3211  -15.9069 C   0  0  0  0  0  0  0  0  0  0  0  0
   22.2329  -20.7093  -14.7402 C   0  0  1  0  0  0  0  0  0  0  0  0
   22.0019  -22.1868  -14.7749 C   0  0  0  0  0  0  0  0  0  0  0  0
   22.8442  -20.3244  -13.4091 C   0  0  2  0  0  0  0  0  0  0  0  0
   24.0959  -21.0183  -13.1834 N   0  0  0  0  0  0  0  0  0  0  0  0
   21.9059  -20.6514  -12.3230 C   0  0  0  0  0  0  0  0  0  0  0  0
   22.0666  -21.6784  -11.6238 O   0  0  0  0  0  0  0  0  0  0  0  0
   20.8022  -19.8591  -12.0072 O   0  0  0  0  0  0  0  0  0  0  0  0
  2  1  1  6
  2  3  1  0
  4  2  1  0
  4  5  2  0
  6  4  1  0
  7  6  1  0
  7  8  1  1
  9 14  2  0
  9  8  1  0
 10  9  1  0
 11 10  2  0
 11 12  1  0
 12 13  2  0
 13 14  1  0
 15  7  1  0
 16 15  2  0
 18 17  1  6
 19 18  1  0
 20 18  1  0
 20 21  1  1
 21 15  1  0
 22 20  1  0
 22 24  1  0
 23 22  2  0
M  END
$$$$
