AFV.pdb
     RDKit          3D

 24 24  0  0  1  0  0  0  0  0999 V2000
   23.8620  -20.1720  -11.6662 C   0  0  0  0  0  0  0  0  0  0  0  0
   25.3305  -20.4545  -11.7848 C   0  0  2  0  0  0  0  0  0  0  0  0
   25.6246  -21.4557  -12.7867 N   0  0  0  0  0  0  0  0  0  0  0  0
   25.8189  -20.9024  -10.4370 C   0  0  0  0  0  0  0  0  0  0  0  0
   25.4841  -22.0044   -9.9491 O   0  0  0  0  0  0  0  0  0  0  0  0
   26.6730  -20.0559   -9.7130 N   0  0  0  0  0  0  0  0  0  0  0  0
   27.1842  -20.3724   -8.3863 C   0  0  1  0  0  0  0  0  0  0  0  0
   28.4069  -19.5265   -8.1879 C   0  0  0  0  0  0  0  0  0  0  0  0
   28.9576  -19.5796   -6.8101 C   0  0  0  0  0  0  0  0  0  0  0  0
   28.8096  -18.5259   -5.9424 C   0  0  0  0  0  0  0  0  0  0  0  0
   29.3085  -18.5364   -4.6479 C   0  0  0  0  0  0  0  0  0  0  0  0
   29.9856  -19.6481   -4.1980 C   0  0  0  0  0  0  0  0  0  0  0  0
   30.1444  -20.7170   -5.0555 C   0  0  0  0  0  0  0  0  0  0  0  0
   29.6425  -20.6929   -6.3416 C   0  0  0  0  0  0  0  0  0  0  0  0
   26.1719  -20.2440   -7.3450 C   0  0  0  0  0  0  0  0  0  0  0  0
   25.3317  -19.3105   -7.3933 O   0  0  0  0  0  0  0  0  0  0  0  0
   23.0854  -21.9108   -3.9910 C   0  0  0  0  0  0  0  0  0  0  0  0
   24.0993  -22.0883   -5.0957 C   0  0  1  0  0  0  0  0  0  0  0  0
   23.3786  -22.2644   -6.3946 C   0  0  0  0  0  0  0  0  0  0  0  0
   25.0481  -20.9124   -5.1995 C   0  0  2  0  0  0  0  0  0  0  0  0
   26.0503  -21.1321   -6.2225 N   0  0  0  0  0  0  0  0  0  0  0  0
   25.7154  -20.7020   -3.9043 C   0  0  0  0  0  0  0  0  0  0  0  0
   26.6824  -21.4186   -3.5569 O   0  0  0  0  0  0  0  0  0  0  0  0
   25.3253  -19.7149   -2.9993 O   0  0  0  0  0  0  0  0  0  0  0  0
  2  1  1  1
  2  3  1  0
  4  2  1  0
  4  5  2  0
  6  4  1  0
  7  6  1  0
  7  8  1  1
  9 14  2  0
  9  8  1  0
 10  9  1  0
 11 10  2  0
 11 12  1  0
 12 13  2  0
 13 14  1  0
 15  7  1  0
 16 15  2  0
 18 17  1  1
 19 18  1  0
 20 18  1  0
 20 21  1  6
 21 15  1  0
 22 20  1  0
 22 24  1  0
 23 22  2  0
M  END
$$$$
