AFV.pdb
     RDKit          3D

 24 24  0  0  1  0  0  0  0  0999 V2000
   17.8274  -11.0354  -18.9391 C   0  0  0  0  0  0  0  0  0  0  0  0
   18.1192  -10.8309  -17.4819 C   0  0  2  0  0  0  0  0  0  0  0  0
   16.9453  -10.9928  -16.6522 N   0  0  0  0  0  0  0  0  0  0  0  0
   18.6892   -9.4509  -17.3203 C   0  0  0  0  0  0  0  0  0  0  0  0
   17.9769   -8.4284  -17.4285 O   0  0  0  0  0  0  0  0  0  0  0  0
   20.0579   -9.3143  -17.0407 N   0  0  0  0  0  0  0  0  0  0  0  0
   20.7325   -8.0278  -16.9327 C   0  0  1  0  0  0  0  0  0  0  0  0
   21.2713   -7.9454  -15.5353 C   0  0  0  0  0  0  0  0  0  0  0  0
   21.9755   -6.6728  -15.2366 C   0  0  0  0  0  0  0  0  0  0  0  0
   21.3122   -5.6026  -14.6893 C   0  0  0  0  0  0  0  0  0  0  0  0
   21.9335   -4.3977  -14.3952 C   0  0  0  0  0  0  0  0  0  0  0  0
   23.2775   -4.2531  -14.6587 C   0  0  0  0  0  0  0  0  0  0  0  0
   23.9613   -5.3176  -15.2087 C   0  0  0  0  0  0  0  0  0  0  0  0
   23.3300   -6.5114  -15.4964 C   0  0  0  0  0  0  0  0  0  0  0  0
   21.7187   -7.8165  -17.9855 C   0  0  0  0  0  0  0  0  0  0  0  0
   22.5511   -8.7172  -18.2605 O   0  0  0  0  0  0  0  0  0  0  0  0
   21.5470   -7.3715  -21.6818 C   0  0  0  0  0  0  0  0  0  0  0  0
   22.2938   -6.1815  -21.1285 C   0  0  1  0  0  0  0  0  0  0  0  0
   21.3635   -5.0122  -21.0583 C   0  0  0  0  0  0  0  0  0  0  0  0
   22.8695   -6.4525  -19.7542 C   0  0  2  0  0  0  0  0  0  0  0  0
   21.8221   -6.6152  -18.7664 N   0  0  0  0  0  0  0  0  0  0  0  0
   23.7418   -5.3355  -19.3563 C   0  0  0  0  0  0  0  0  0  0  0  0
   23.2735   -4.3342  -18.7667 O   0  0  0  0  0  0  0  0  0  0  0  0
   25.1145   -5.3174  -19.6030 O   0  0  0  0  0  0  0  0  0  0  0  0
  2  1  1  6
  2  3  1  0
  4  2  1  0
  4  5  2  0
  6  4  1  0
  7  6  1  0
  7  8  1  1
  9 14  2  0
  9  8  1  0
 10  9  1  0
 11 10  2  0
 11 12  1  0
 12 13  2  0
 13 14  1  0
 15  7  1  0
 16 15  2  0
 18 17  1  1
 19 18  1  0
 20 18  1  0
 20 21  1  1
 21 15  1  0
 22 20  1  0
 22 24  1  0
 23 22  2  0
M  END
$$$$
