AFV.pdb
     RDKit          3D

 24 24  0  0  1  0  0  0  0  0999 V2000
   28.3501  -19.7648  -13.6138 C   0  0  0  0  0  0  0  0  0  0  0  0
   29.1276  -20.9057  -13.0270 C   0  0  2  0  0  0  0  0  0  0  0  0
   29.1639  -22.0597  -13.8984 N   0  0  0  0  0  0  0  0  0  0  0  0
   28.4938  -21.2610  -11.7126 C   0  0  0  0  0  0  0  0  0  0  0  0
   27.6055  -22.1374  -11.6264 O   0  0  0  0  0  0  0  0  0  0  0  0
   28.9154  -20.5869  -10.5558 N   0  0  0  0  0  0  0  0  0  0  0  0
   28.2898  -20.7587   -9.2516 C   0  0  1  0  0  0  0  0  0  0  0  0
   29.2022  -20.1105   -8.2529 C   0  0  0  0  0  0  0  0  0  0  0  0
   28.6523  -20.0695   -6.8743 C   0  0  0  0  0  0  0  0  0  0  0  0
   28.7416  -21.1553   -6.0388 C   0  0  0  0  0  0  0  0  0  0  0  0
   28.2414  -21.1570   -4.7448 C   0  0  0  0  0  0  0  0  0  0  0  0
   27.6241  -20.0246   -4.2618 C   0  0  0  0  0  0  0  0  0  0  0  0
   27.5248  -18.9233   -5.0867 C   0  0  0  0  0  0  0  0  0  0  0  0
   28.0272  -18.9355   -6.3727 C   0  0  0  0  0  0  0  0  0  0  0  0
   26.9102  -20.2885   -9.2200 C   0  0  0  0  0  0  0  0  0  0  0  0
   26.6277  -19.1332   -9.6268 O   0  0  0  0  0  0  0  0  0  0  0  0
   22.4394  -20.5992  -10.4330 C   0  0  0  0  0  0  0  0  0  0  0  0
   23.8712  -21.0412  -10.2475 C   0  0  1  0  0  0  0  0  0  0  0  0
   24.7043  -20.4698  -11.3506 C   0  0  0  0  0  0  0  0  0  0  0  0
   24.4374  -20.6094   -8.9108 C   0  0  2  0  0  0  0  0  0  0  0  0
   25.8016  -21.0678   -8.7432 N   0  0  0  0  0  0  0  0  0  0  0  0
   23.6062  -21.1537   -7.8246 C   0  0  0  0  0  0  0  0  0  0  0  0
   23.9581  -22.1815   -7.2008 O   0  0  0  0  0  0  0  0  0  0  0  0
   22.4007  -20.5757   -7.4269 O   0  0  0  0  0  0  0  0  0  0  0  0
  2  1  1  6
  2  3  1  0
  4  2  1  0
  4  5  2  0
  6  4  1  0
  7  6  1  0
  7  8  1  1
  9 14  2  0
  9  8  1  0
 10  9  1  0
 11 10  2  0
 11 12  1  0
 12 13  2  0
 13 14  1  0
 15  7  1  0
 16 15  2  0
 18 17  1  6
 19 18  1  0
 20 18  1  0
 20 21  1  1
 21 15  1  0
 22 20  1  0
 22 24  1  0
 23 22  2  0
M  END
$$$$
