AFV.pdb
     RDKit          3D

 24 24  0  0  1  0  0  0  0  0999 V2000
   28.0570  -20.5990  -17.4057 C   0  0  0  0  0  0  0  0  0  0  0  0
   28.7989  -21.3541  -16.3428 C   0  0  2  0  0  0  0  0  0  0  0  0
   29.3003  -22.6270  -16.8128 N   0  0  0  0  0  0  0  0  0  0  0  0
   27.8610  -21.5546  -15.1870 C   0  0  0  0  0  0  0  0  0  0  0  0
   27.1545  -22.5816  -15.0839 O   0  0  0  0  0  0  0  0  0  0  0  0
   27.7816  -20.5582  -14.2015 N   0  0  0  0  0  0  0  0  0  0  0  0
   26.9346  -20.6602  -13.0209 C   0  0  1  0  0  0  0  0  0  0  0  0
   27.6956  -20.0259  -11.8946 C   0  0  0  0  0  0  0  0  0  0  0  0
   28.8854  -20.8012  -11.4612 C   0  0  0  0  0  0  0  0  0  0  0  0
   28.9276  -21.4153  -10.2340 C   0  0  0  0  0  0  0  0  0  0  0  0
   30.0193  -22.1486   -9.7924 C   0  0  0  0  0  0  0  0  0  0  0  0
   31.1190  -22.2755  -10.6117 C   0  0  0  0  0  0  0  0  0  0  0  0
   31.0953  -21.6655  -11.8488 C   0  0  0  0  0  0  0  0  0  0  0  0
   30.0018  -20.9385  -12.2755 C   0  0  0  0  0  0  0  0  0  0  0  0
   25.5962  -20.1243  -13.2373 C   0  0  0  0  0  0  0  0  0  0  0  0
   25.4258  -19.1420  -14.0028 O   0  0  0  0  0  0  0  0  0  0  0  0
   21.5648  -20.3795  -15.1184 C   0  0  0  0  0  0  0  0  0  0  0  0
   22.9104  -20.7700  -14.5555 C   0  0  1  0  0  0  0  0  0  0  0  0
   23.9862  -20.1825  -15.4128 C   0  0  0  0  0  0  0  0  0  0  0  0
   23.0925  -20.3043  -13.1259 C   0  0  2  0  0  0  0  0  0  0  0  0
   24.4074  -20.6470  -12.6231 N   0  0  0  0  0  0  0  0  0  0  0  0
   22.0689  -20.9271  -12.2707 C   0  0  0  0  0  0  0  0  0  0  0  0
   22.1553  -22.1326  -11.9408 O   0  0  0  0  0  0  0  0  0  0  0  0
   20.9615  -20.2338  -11.7823 O   0  0  0  0  0  0  0  0  0  0  0  0
  2  1  1  6
  2  3  1  0
  4  2  1  0
  4  5  2  0
  6  4  1  0
  7  6  1  0
  7  8  1  1
  9 14  2  0
  9  8  1  0
 10  9  1  0
 11 10  2  0
 11 12  1  0
 12 13  2  0
 13 14  1  0
 15  7  1  0
 16 15  2  0
 18 17  1  6
 19 18  1  0
 20 18  1  0
 20 21  1  1
 21 15  1  0
 22 20  1  0
 22 24  1  0
 23 22  2  0
M  END
$$$$
