AFV.pdb
     RDKit          3D

 24 24  0  0  1  0  0  0  0  0999 V2000
   27.1828  -20.8975  -18.0614 C   0  0  0  0  0  0  0  0  0  0  0  0
   27.9468  -21.6729  -17.0291 C   0  0  2  0  0  0  0  0  0  0  0  0
   28.3853  -22.9629  -17.5151 N   0  0  0  0  0  0  0  0  0  0  0  0
   27.0554  -21.8391  -15.8318 C   0  0  0  0  0  0  0  0  0  0  0  0
   26.1120  -22.6603  -15.8232 O   0  0  0  0  0  0  0  0  0  0  0  0
   27.2946  -21.0480  -14.6972 N   0  0  0  0  0  0  0  0  0  0  0  0
   26.4645  -21.0857  -13.5008 C   0  0  1  0  0  0  0  0  0  0  0  0
   27.3300  -20.6211  -12.3671 C   0  0  0  0  0  0  0  0  0  0  0  0
   26.6263  -20.5554  -11.0614 C   0  0  0  0  0  0  0  0  0  0  0  0
   26.4992  -19.3708  -10.3791 C   0  0  0  0  0  0  0  0  0  0  0  0
   25.8492  -19.2674   -9.1579 C   0  0  0  0  0  0  0  0  0  0  0  0
   25.3009  -20.3965   -8.5911 C   0  0  0  0  0  0  0  0  0  0  0  0
   25.4184  -21.5963   -9.2618 C   0  0  0  0  0  0  0  0  0  0  0  0
   26.0682  -21.6846  -10.4769 C   0  0  0  0  0  0  0  0  0  0  0  0
   25.2127  -20.3552  -13.6581 C   0  0  0  0  0  0  0  0  0  0  0  0
   25.2174  -19.1879  -14.1242 O   0  0  0  0  0  0  0  0  0  0  0  0
   23.0772  -19.7370  -15.9087 C   0  0  0  0  0  0  0  0  0  0  0  0
   22.1275  -20.2014  -14.8305 C   0  0  1  0  0  0  0  0  0  0  0  0
   21.7599  -21.6286  -15.0868 C   0  0  0  0  0  0  0  0  0  0  0  0
   22.7250  -20.0745  -13.4446 C   0  0  2  0  0  0  0  0  0  0  0  0
   23.9216  -20.8803  -13.3104 N   0  0  0  0  0  0  0  0  0  0  0  0
   21.7369  -20.5028  -12.4410 C   0  0  0  0  0  0  0  0  0  0  0  0
   20.6938  -19.8377  -12.2430 O   0  0  0  0  0  0  0  0  0  0  0  0
   21.8919  -21.6496  -11.6624 O   0  0  0  0  0  0  0  0  0  0  0  0
  2  1  1  6
  2  3  1  0
  4  2  1  0
  4  5  2  0
  6  4  1  0
  7  6  1  0
  7  8  1  1
  9 14  2  0
  9  8  1  0
 10  9  1  0
 11 10  2  0
 11 12  1  0
 12 13  2  0
 13 14  1  0
 15  7  1  0
 16 15  2  0
 18 17  1  6
 19 18  1  0
 20 18  1  0
 20 21  1  6
 21 15  1  0
 22 20  1  0
 22 24  1  0
 23 22  2  0
M  END
$$$$
