AFV.pdb
     RDKit          3D

 24 24  0  0  1  0  0  0  0  0999 V2000
   27.2625  -20.3611  -17.6586 C   0  0  0  0  0  0  0  0  0  0  0  0
   28.1721  -21.2098  -16.8202 C   0  0  2  0  0  0  0  0  0  0  0  0
   28.5822  -22.4208  -17.4969 N   0  0  0  0  0  0  0  0  0  0  0  0
   27.4438  -21.5405  -15.5491 C   0  0  0  0  0  0  0  0  0  0  0  0
   26.6956  -22.5389  -15.4605 O   0  0  0  0  0  0  0  0  0  0  0  0
   27.6130  -20.7017  -14.4364 N   0  0  0  0  0  0  0  0  0  0  0  0
   26.9283  -20.9019  -13.1665 C   0  0  1  0  0  0  0  0  0  0  0  0
   27.7772  -20.2476  -12.1170 C   0  0  0  0  0  0  0  0  0  0  0  0
   27.2234  -20.3540  -10.7435 C   0  0  0  0  0  0  0  0  0  0  0  0
   27.6524  -21.3274   -9.8755 C   0  0  0  0  0  0  0  0  0  0  0  0
   27.1609  -21.4600   -8.5850 C   0  0  0  0  0  0  0  0  0  0  0  0
   26.1978  -20.5821   -8.1396 C   0  0  0  0  0  0  0  0  0  0  0  0
   25.7540  -19.5971   -8.9975 C   0  0  0  0  0  0  0  0  0  0  0  0
   26.2521  -19.4768  -10.2796 C   0  0  0  0  0  0  0  0  0  0  0  0
   25.5393  -20.4600  -13.1974 C   0  0  0  0  0  0  0  0  0  0  0  0
   25.2410  -19.3514  -13.7089 O   0  0  0  0  0  0  0  0  0  0  0  0
   20.8402  -20.9910  -13.8428 C   0  0  0  0  0  0  0  0  0  0  0  0
   22.2809  -21.4413  -13.8036 C   0  0  1  0  0  0  0  0  0  0  0  0
   22.9011  -21.2070  -15.1445 C   0  0  0  0  0  0  0  0  0  0  0  0
   23.0814  -20.7152  -12.7426 C   0  0  2  0  0  0  0  0  0  0  0  0
   24.4385  -21.2175  -12.6701 N   0  0  0  0  0  0  0  0  0  0  0  0
   22.4312  -20.8845  -11.4329 C   0  0  0  0  0  0  0  0  0  0  0  0
   21.3854  -20.2554  -11.1497 O   0  0  0  0  0  0  0  0  0  0  0  0
   22.9236  -21.7356  -10.4436 O   0  0  0  0  0  0  0  0  0  0  0  0
  2  1  1  6
  2  3  1  0
  4  2  1  0
  4  5  2  0
  6  4  1  0
  7  6  1  0
  7  8  1  1
  9 14  2  0
  9  8  1  0
 10  9  1  0
 11 10  2  0
 11 12  1  0
 12 13  2  0
 13 14  1  0
 15  7  1  0
 16 15  2  0
 18 17  1  6
 19 18  1  0
 20 18  1  0
 20 21  1  1
 21 15  1  0
 22 20  1  0
 22 24  1  0
 23 22  2  0
M  END
$$$$
