WSR.pdb
     RDKit          3D

 32 33  0  0  1  0  0  0  0  0999 V2000
   26.2949  -22.6838  -11.5268 N   0  0  0  0  0  0  0  0  0  0  0  0
   25.6580  -21.4839  -11.0207 C   0  0  1  0  0  0  0  0  0  0  0  0
   26.5277  -20.2672  -11.2198 C   0  0  0  0  0  0  0  0  0  0  0  0
   27.7452  -20.2829  -10.3752 C   0  0  0  0  0  0  0  0  0  0  0  0
   29.0273  -20.6725  -10.6938 C   0  0  0  0  0  0  0  0  0  0  0  0
   29.7933  -20.5071   -9.6015 N   0  0  0  0  0  0  0  0  0  0  0  0
   29.0649  -20.0224   -8.5717 C   0  0  0  0  0  0  0  0  0  0  0  0
   29.4060  -19.6974   -7.2830 C   0  0  0  0  0  0  0  0  0  0  0  0
   28.4447  -19.2104   -6.4248 C   0  0  0  0  0  0  0  0  0  0  0  0
   27.1650  -19.0642   -6.8891 C   0  0  0  0  0  0  0  0  0  0  0  0
   26.8305  -19.3919   -8.1813 C   0  0  0  0  0  0  0  0  0  0  0  0
   27.7801  -19.8822   -9.0590 C   0  0  0  0  0  0  0  0  0  0  0  0
   24.3570  -21.2769  -11.6894 C   0  0  0  0  0  0  0  0  0  0  0  0
   24.1771  -21.3736  -12.9227 O   0  0  0  0  0  0  0  0  0  0  0  0
   21.1417  -19.3913   -9.8664 O   0  0  0  0  0  0  0  0  0  0  0  0
   20.7788  -20.5486  -10.5639 C   0  0  0  0  0  0  0  0  0  0  0  0
   21.8930  -20.8314  -11.5451 C   0  0  2  0  0  0  0  0  0  0  0  0
   23.1779  -20.9400  -10.9334 N   0  0  0  0  0  0  0  0  0  0  0  0
   21.8611  -19.8387  -12.6548 C   0  0  0  0  0  0  0  0  0  0  0  0
   22.5717  -18.8032  -12.6233 O   0  0  0  0  0  0  0  0  0  0  0  0
   23.5857  -23.3604  -17.9746 N   0  0  0  0  0  0  0  0  0  0  0  0
   23.4439  -22.2224  -18.8314 C   0  0  0  0  0  0  0  0  0  0  0  0
   23.2183  -22.3477  -20.0941 N   0  0  0  0  0  0  0  0  0  0  0  0
   23.5485  -20.8977  -18.3186 N   0  0  0  0  0  0  0  0  0  0  0  0
   23.8212  -20.5554  -16.9649 C   0  0  0  0  0  0  0  0  0  0  0  0
   22.6210  -20.4657  -16.0736 C   0  0  0  0  0  0  0  0  0  0  0  0
   22.2262  -19.0772  -15.7221 C   0  0  0  0  0  0  0  0  0  0  0  0
   21.0012  -18.9668  -14.8446 C   0  0  2  0  0  0  0  0  0  0  0  0
   21.0333  -20.0030  -13.8042 N   0  0  0  0  0  0  0  0  0  0  0  0
   19.7269  -19.1024  -15.5584 C   0  0  0  0  0  0  0  0  0  0  0  0
   18.9456  -20.0715  -15.3891 O   0  0  0  0  0  0  0  0  0  0  0  0
   19.3209  -18.1442  -16.4708 O   0  0  0  0  0  0  0  0  0  0  0  0
  2  1  1  6
  3  4  1  0
  3  2  1  0
  4  5  2  0
  6  5  1  0
  7  6  1  0
  8  7  2  0
  9  8  1  0
 10 11  1  0
 10  9  2  0
 11 12  2  0
 12  7  1  0
 12  4  1  0
 13  2  1  0
 13 14  2  0
 15 16  1  0
 17 16  1  1
 17 18  1  0
 18 13  1  0
 19 17  1  0
 20 19  2  0
 22 21  1  0
 22 23  2  0
 24 22  1  0
 25 24  1  0
 26 25  1  0
 27 26  1  0
 28 27  1  6
 28 29  1  0
 29 19  1  0
 30 32  1  0
 30 28  1  0
 31 30  2  0
M  END
$$$$
