WSR.pdb
     RDKit          3D

 32 33  0  0  1  0  0  0  0  0999 V2000
   28.0416  -20.9462   -9.0874 N   0  0  0  0  0  0  0  0  0  0  0  0
   26.6002  -21.0252   -8.9541 C   0  0  1  0  0  0  0  0  0  0  0  0
   26.1036  -20.1985   -7.7938 C   0  0  0  0  0  0  0  0  0  0  0  0
   27.2013  -19.5870   -7.0083 C   0  0  0  0  0  0  0  0  0  0  0  0
   27.9017  -18.4239   -7.2400 C   0  0  0  0  0  0  0  0  0  0  0  0
   28.8026  -18.2799   -6.2527 N   0  0  0  0  0  0  0  0  0  0  0  0
   28.7240  -19.3054   -5.3761 C   0  0  0  0  0  0  0  0  0  0  0  0
   29.4255  -19.5855   -4.2306 C   0  0  0  0  0  0  0  0  0  0  0  0
   29.1316  -20.7231   -3.5113 C   0  0  0  0  0  0  0  0  0  0  0  0
   28.1382  -21.5480   -3.9667 C   0  0  0  0  0  0  0  0  0  0  0  0
   27.4397  -21.2611   -5.1150 C   0  0  0  0  0  0  0  0  0  0  0  0
   27.7187  -20.1245   -5.8517 C   0  0  0  0  0  0  0  0  0  0  0  0
   25.9477  -20.5721  -10.1997 C   0  0  0  0  0  0  0  0  0  0  0  0
   24.7378  -20.2713  -10.2903 O   0  0  0  0  0  0  0  0  0  0  0  0
   27.7612  -21.1503  -13.9202 O   0  0  0  0  0  0  0  0  0  0  0  0
   27.0281  -19.9633  -13.8135 C   0  0  0  0  0  0  0  0  0  0  0  0
   26.0581  -20.1535  -12.6701 C   0  0  2  0  0  0  0  0  0  0  0  0
   26.6932  -20.4455  -11.4258 N   0  0  0  0  0  0  0  0  0  0  0  0
   25.0210  -21.1559  -13.0410 C   0  0  0  0  0  0  0  0  0  0  0  0
   25.0026  -22.2982  -12.5186 O   0  0  0  0  0  0  0  0  0  0  0  0
   18.3852  -23.2162  -10.8690 N   0  0  0  0  0  0  0  0  0  0  0  0
   19.2337  -22.8716   -9.7688 C   0  0  0  0  0  0  0  0  0  0  0  0
   19.2582  -23.5703   -8.6860 N   0  0  0  0  0  0  0  0  0  0  0  0
   20.0893  -21.7344   -9.8274 N   0  0  0  0  0  0  0  0  0  0  0  0
   20.1500  -20.8012  -10.8994 C   0  0  0  0  0  0  0  0  0  0  0  0
   20.6978  -21.3390  -12.1854 C   0  0  0  0  0  0  0  0  0  0  0  0
   22.0960  -20.9260  -12.4715 C   0  0  0  0  0  0  0  0  0  0  0  0
   22.6415  -21.4023  -13.7976 C   0  0  2  0  0  0  0  0  0  0  0  0
   24.0002  -20.8816  -13.9981 N   0  0  0  0  0  0  0  0  0  0  0  0
   21.8437  -21.0043  -14.9623 C   0  0  0  0  0  0  0  0  0  0  0  0
   21.7530  -19.8153  -15.3577 O   0  0  0  0  0  0  0  0  0  0  0  0
   21.1403  -21.9454  -15.6938 O   0  0  0  0  0  0  0  0  0  0  0  0
  2  1  1  6
  3  4  1  0
  3  2  1  0
  4  5  2  0
  6  5  1  0
  7  6  1  0
  8  7  2  0
  9  8  1  0
 10 11  1  0
 10  9  2  0
 11 12  2  0
 12  7  1  0
 12  4  1  0
 13  2  1  0
 13 14  2  0
 15 16  1  0
 17 16  1  6
 17 18  1  0
 18 13  1  0
 19 17  1  0
 20 19  2  0
 22 21  1  0
 22 23  2  0
 24 22  1  0
 25 24  1  0
 26 25  1  0
 27 26  1  0
 28 27  1  1
 28 29  1  0
 29 19  1  0
 30 32  1  0
 30 28  1  0
 31 30  2  0
M  END
$$$$
