WSR.pdb
     RDKit          3D

 32 33  0  0  1  0  0  0  0  0999 V2000
   28.2906  -19.3393  -16.4166 N   0  0  0  0  0  0  0  0  0  0  0  0
   27.2762  -18.8563  -15.5006 C   0  0  1  0  0  0  0  0  0  0  0  0
   26.2306  -18.0343  -16.2128 C   0  0  0  0  0  0  0  0  0  0  0  0
   26.7843  -16.8084  -16.8347 C   0  0  0  0  0  0  0  0  0  0  0  0
   26.9855  -16.5155  -18.1654 C   0  0  0  0  0  0  0  0  0  0  0  0
   27.5096  -15.2799  -18.2423 N   0  0  0  0  0  0  0  0  0  0  0  0
   27.6625  -14.7445  -17.0110 C   0  0  0  0  0  0  0  0  0  0  0  0
   28.1465  -13.5297  -16.5953 C   0  0  0  0  0  0  0  0  0  0  0  0
   28.1884  -13.2359  -15.2500 C   0  0  0  0  0  0  0  0  0  0  0  0
   27.7412  -14.1751  -14.3598 C   0  0  0  0  0  0  0  0  0  0  0  0
   27.2577  -15.3900  -14.7834 C   0  0  0  0  0  0  0  0  0  0  0  0
   27.2068  -15.7049  -16.1290 C   0  0  0  0  0  0  0  0  0  0  0  0
   26.6286  -19.9920  -14.8126 C   0  0  0  0  0  0  0  0  0  0  0  0
   26.3568  -21.0828  -15.3593 O   0  0  0  0  0  0  0  0  0  0  0  0
   25.4978  -19.6333  -10.8342 O   0  0  0  0  0  0  0  0  0  0  0  0
   25.6743  -20.9497  -11.2744 C   0  0  0  0  0  0  0  0  0  0  0  0
   25.5056  -20.9315  -12.7762 C   0  0  2  0  0  0  0  0  0  0  0  0
   26.2596  -19.9066  -13.4227 N   0  0  0  0  0  0  0  0  0  0  0  0
   24.0588  -20.8961  -13.1276 C   0  0  0  0  0  0  0  0  0  0  0  0
   23.5358  -19.8717  -13.6329 O   0  0  0  0  0  0  0  0  0  0  0  0
   17.4304  -27.0995  -13.8789 N   0  0  0  0  0  0  0  0  0  0  0  0
   16.8324  -25.7989  -13.8912 C   0  0  0  0  0  0  0  0  0  0  0  0
   15.5686  -25.6350  -14.0830 N   0  0  0  0  0  0  0  0  0  0  0  0
   17.6166  -24.6267  -13.6919 N   0  0  0  0  0  0  0  0  0  0  0  0
   19.0154  -24.6031  -13.4334 C   0  0  0  0  0  0  0  0  0  0  0  0
   19.6331  -23.2398  -13.3806 C   0  0  0  0  0  0  0  0  0  0  0  0
   21.1040  -23.2456  -13.1718 C   0  0  0  0  0  0  0  0  0  0  0  0
   21.7511  -21.8802  -13.1643 C   0  0  2  0  0  0  0  0  0  0  0  0
   23.1928  -22.0089  -12.9149 N   0  0  0  0  0  0  0  0  0  0  0  0
   21.2135  -20.9574  -12.1588 C   0  0  0  0  0  0  0  0  0  0  0  0
   21.7184  -20.8170  -11.0170 O   0  0  0  0  0  0  0  0  0  0  0  0
   20.1002  -20.1822  -12.4326 O   0  0  0  0  0  0  0  0  0  0  0  0
  2  1  1  6
  3  4  1  0
  3  2  1  0
  4  5  2  0
  6  5  1  0
  7  6  1  0
  8  7  2  0
  9  8  1  0
 10 11  1  0
 10  9  2  0
 11 12  2  0
 12  7  1  0
 12  4  1  0
 13  2  1  0
 13 14  2  0
 15 16  1  0
 17 16  1  1
 17 18  1  0
 18 13  1  0
 19 17  1  0
 20 19  2  0
 22 21  1  0
 22 23  2  0
 24 22  1  0
 25 24  1  0
 26 25  1  0
 27 26  1  0
 28 27  1  1
 28 29  1  0
 29 19  1  0
 30 32  1  0
 30 28  1  0
 31 30  2  0
M  END
$$$$
