WSR.pdb
     RDKit          3D

 32 33  0  0  1  0  0  0  0  0999 V2000
   20.2584  -22.6634  -14.2864 N   0  0  0  0  0  0  0  0  0  0  0  0
   20.8162  -23.6423  -13.3742 C   0  0  1  0  0  0  0  0  0  0  0  0
   22.0191  -23.0986  -12.6436 C   0  0  0  0  0  0  0  0  0  0  0  0
   23.1595  -22.8082  -13.5442 C   0  0  0  0  0  0  0  0  0  0  0  0
   23.5454  -21.6140  -14.1118 C   0  0  0  0  0  0  0  0  0  0  0  0
   24.6426  -21.8442  -14.8537 N   0  0  0  0  0  0  0  0  0  0  0  0
   24.9967  -23.1472  -14.7978 C   0  0  0  0  0  0  0  0  0  0  0  0
   26.0288  -23.8403  -15.3785 C   0  0  0  0  0  0  0  0  0  0  0  0
   26.1595  -25.1918  -15.1454 C   0  0  0  0  0  0  0  0  0  0  0  0
   25.2458  -25.8081  -14.3331 C   0  0  0  0  0  0  0  0  0  0  0  0
   24.2144  -25.1075  -13.7549 C   0  0  0  0  0  0  0  0  0  0  0  0
   24.0651  -23.7505  -13.9757 C   0  0  0  0  0  0  0  0  0  0  0  0
   19.7940  -24.0679  -12.3962 C   0  0  0  0  0  0  0  0  0  0  0  0
   18.9446  -23.3036  -11.8893 O   0  0  0  0  0  0  0  0  0  0  0  0
   19.7789  -27.9161  -10.5790 O   0  0  0  0  0  0  0  0  0  0  0  0
   18.5520  -27.3662  -10.9665 C   0  0  0  0  0  0  0  0  0  0  0  0
   18.7402  -25.8670  -11.0021 C   0  0  2  0  0  0  0  0  0  0  0  0
   19.7127  -25.4365  -11.9539 N   0  0  0  0  0  0  0  0  0  0  0  0
   19.0046  -25.3523   -9.6298 C   0  0  0  0  0  0  0  0  0  0  0  0
   20.1650  -25.3463   -9.1485 O   0  0  0  0  0  0  0  0  0  0  0  0
   12.1957  -22.2481   -8.4958 N   0  0  0  0  0  0  0  0  0  0  0  0
   12.2000  -23.2985   -7.5232 C   0  0  0  0  0  0  0  0  0  0  0  0
   11.1072  -23.7677   -7.0264 N   0  0  0  0  0  0  0  0  0  0  0  0
   13.4207  -23.8694   -7.0621 N   0  0  0  0  0  0  0  0  0  0  0  0
   14.7041  -23.2629   -7.1582 C   0  0  0  0  0  0  0  0  0  0  0  0
   15.8545  -24.1332   -6.7555 C   0  0  0  0  0  0  0  0  0  0  0  0
   17.1861  -23.4938   -6.9139 C   0  0  0  0  0  0  0  0  0  0  0  0
   18.2753  -24.4094   -7.4220 C   0  0  2  0  0  0  0  0  0  0  0  0
   17.9698  -24.8417   -8.7921 N   0  0  0  0  0  0  0  0  0  0  0  0
   18.4791  -25.6183   -6.6167 C   0  0  0  0  0  0  0  0  0  0  0  0
   18.9289  -25.5936   -5.4440 O   0  0  0  0  0  0  0  0  0  0  0  0
   18.1760  -26.8686   -7.1271 O   0  0  0  0  0  0  0  0  0  0  0  0
  2  1  1  6
  3  4  1  0
  3  2  1  0
  4  5  2  0
  6  5  1  0
  7  6  1  0
  8  7  2  0
  9  8  1  0
 10 11  1  0
 10  9  2  0
 11 12  2  0
 12  7  1  0
 12  4  1  0
 13  2  1  0
 13 14  2  0
 15 16  1  0
 17 16  1  1
 17 18  1  0
 18 13  1  0
 19 17  1  0
 20 19  2  0
 22 21  1  0
 22 23  2  0
 24 22  1  0
 25 24  1  0
 26 25  1  0
 27 26  1  0
 28 27  1  1
 28 29  1  0
 29 19  1  0
 30 32  1  0
 30 28  1  0
 31 30  2  0
M  END
$$$$
