WSR.pdb
     RDKit          3D

 32 33  0  0  1  0  0  0  0  0999 V2000
   25.7166  -19.1886   -9.8771 N   0  0  0  0  0  0  0  0  0  0  0  0
   26.5057  -19.9561  -10.8203 C   0  0  1  0  0  0  0  0  0  0  0  0
   26.7393  -21.3646  -10.3325 C   0  0  0  0  0  0  0  0  0  0  0  0
   27.6450  -21.4277   -9.1613 C   0  0  0  0  0  0  0  0  0  0  0  0
   27.3469  -21.3553   -7.8186 C   0  0  0  0  0  0  0  0  0  0  0  0
   28.4985  -21.4613   -7.1330 N   0  0  0  0  0  0  0  0  0  0  0  0
   29.5476  -21.6012   -7.9731 C   0  0  0  0  0  0  0  0  0  0  0  0
   30.8925  -21.7441   -7.7412 C   0  0  0  0  0  0  0  0  0  0  0  0
   31.7584  -21.8731   -8.8049 C   0  0  0  0  0  0  0  0  0  0  0  0
   31.2449  -21.8544  -10.0740 C   0  0  0  0  0  0  0  0  0  0  0  0
   29.8967  -21.7108  -10.2987 C   0  0  0  0  0  0  0  0  0  0  0  0
   29.0103  -21.5800   -9.2454 C   0  0  0  0  0  0  0  0  0  0  0  0
   25.8339  -19.9931  -12.1355 C   0  0  0  0  0  0  0  0  0  0  0  0
   24.5946  -20.0451  -12.2907 O   0  0  0  0  0  0  0  0  0  0  0  0
   28.0300  -20.3202  -15.5493 O   0  0  0  0  0  0  0  0  0  0  0  0
   26.9965  -19.3916  -15.7148 C   0  0  0  0  0  0  0  0  0  0  0  0
   25.9936  -19.6579  -14.6160 C   0  0  2  0  0  0  0  0  0  0  0  0
   26.5936  -19.9702  -13.3593 N   0  0  0  0  0  0  0  0  0  0  0  0
   25.0097  -20.6841  -15.0598 C   0  0  0  0  0  0  0  0  0  0  0  0
   25.1073  -21.8817  -14.6933 O   0  0  0  0  0  0  0  0  0  0  0  0
   19.4327  -21.7209  -11.4885 N   0  0  0  0  0  0  0  0  0  0  0  0
   19.4319  -23.0739  -11.9560 C   0  0  0  0  0  0  0  0  0  0  0  0
   18.5680  -23.9351  -11.5399 N   0  0  0  0  0  0  0  0  0  0  0  0
   20.3935  -23.5251  -12.9050 N   0  0  0  0  0  0  0  0  0  0  0  0
   20.6372  -22.9366  -14.1771 C   0  0  0  0  0  0  0  0  0  0  0  0
   21.4298  -21.6661  -14.1528 C   0  0  0  0  0  0  0  0  0  0  0  0
   21.6015  -21.0300  -15.4844 C   0  0  0  0  0  0  0  0  0  0  0  0
   22.8857  -21.3835  -16.1976 C   0  0  2  0  0  0  0  0  0  0  0  0
   23.9122  -20.3717  -15.9150 N   0  0  0  0  0  0  0  0  0  0  0  0
   22.7635  -21.4878  -17.6556 C   0  0  0  0  0  0  0  0  0  0  0  0
   21.9799  -22.2895  -18.2227 O   0  0  0  0  0  0  0  0  0  0  0  0
   23.5245  -20.6867  -18.4891 O   0  0  0  0  0  0  0  0  0  0  0  0
  2  1  1  1
  3  4  1  0
  3  2  1  0
  4  5  2  0
  6  5  1  0
  7  6  1  0
  8  7  2  0
  9  8  1  0
 10 11  1  0
 10  9  2  0
 11 12  2  0
 12  7  1  0
 12  4  1  0
 13  2  1  0
 13 14  2  0
 15 16  1  0
 17 16  1  6
 17 18  1  0
 18 13  1  0
 19 17  1  0
 20 19  2  0
 22 21  1  0
 22 23  2  0
 24 22  1  0
 25 24  1  0
 26 25  1  0
 27 26  1  0
 28 27  1  1
 28 29  1  0
 29 19  1  0
 30 32  1  0
 30 28  1  0
 31 30  2  0
M  END
$$$$
