WSR.pdb
     RDKit          3D

 32 33  0  0  1  0  0  0  0  0999 V2000
   25.0278  -18.7025  -11.2442 N   0  0  0  0  0  0  0  0  0  0  0  0
   25.5821  -20.0096  -11.5373 C   0  0  1  0  0  0  0  0  0  0  0  0
   25.4451  -20.9471  -10.3632 C   0  0  0  0  0  0  0  0  0  0  0  0
   26.1929  -20.4898   -9.1683 C   0  0  0  0  0  0  0  0  0  0  0  0
   25.7961  -19.6418   -8.1581 C   0  0  0  0  0  0  0  0  0  0  0  0
   26.8165  -19.5261   -7.2906 N   0  0  0  0  0  0  0  0  0  0  0  0
   27.8740  -20.2665   -7.6898 C   0  0  0  0  0  0  0  0  0  0  0  0
   29.1148  -20.4616   -7.1375 C   0  0  0  0  0  0  0  0  0  0  0  0
   30.0194  -21.2887   -7.7665 C   0  0  0  0  0  0  0  0  0  0  0  0
   29.6485  -21.8968   -8.9358 C   0  0  0  0  0  0  0  0  0  0  0  0
   28.4039  -21.6966   -9.4833 C   0  0  0  0  0  0  0  0  0  0  0  0
   27.4810  -20.8706   -8.8682 C   0  0  0  0  0  0  0  0  0  0  0  0
   24.9129  -20.5938  -12.7177 C   0  0  0  0  0  0  0  0  0  0  0  0
   23.6818  -20.5377  -12.9274 O   0  0  0  0  0  0  0  0  0  0  0  0
   26.7870  -23.3162  -15.3142 O   0  0  0  0  0  0  0  0  0  0  0  0
   26.0334  -22.3142  -15.9353 C   0  0  0  0  0  0  0  0  0  0  0  0
   25.0471  -21.8119  -14.9061 C   0  0  2  0  0  0  0  0  0  0  0  0
   25.6656  -21.2864  -13.7321 N   0  0  0  0  0  0  0  0  0  0  0  0
   24.0384  -22.8661  -14.6076 C   0  0  0  0  0  0  0  0  0  0  0  0
   24.3735  -23.9607  -14.0902 O   0  0  0  0  0  0  0  0  0  0  0  0
   18.9214  -24.2000   -8.5447 N   0  0  0  0  0  0  0  0  0  0  0  0
   18.9074  -25.4055   -9.3164 C   0  0  0  0  0  0  0  0  0  0  0  0
   18.5183  -26.5274   -8.8154 N   0  0  0  0  0  0  0  0  0  0  0  0
   19.3273  -25.4128  -10.6774 N   0  0  0  0  0  0  0  0  0  0  0  0
   19.3820  -24.2758  -11.5308 C   0  0  0  0  0  0  0  0  0  0  0  0
   19.9964  -24.5144  -12.8756 C   0  0  0  0  0  0  0  0  0  0  0  0
   21.0609  -23.5440  -13.2393 C   0  0  0  0  0  0  0  0  0  0  0  0
   21.7007  -23.7771  -14.5882 C   0  0  2  0  0  0  0  0  0  0  0  0
   22.6503  -22.6972  -14.8871 N   0  0  0  0  0  0  0  0  0  0  0  0
   20.7542  -23.8499  -15.7064 C   0  0  0  0  0  0  0  0  0  0  0  0
   20.4790  -22.8659  -16.4373 O   0  0  0  0  0  0  0  0  0  0  0  0
   20.1088  -25.0355  -16.0117 O   0  0  0  0  0  0  0  0  0  0  0  0
  2  1  1  1
  3  4  1  0
  3  2  1  0
  4  5  2  0
  6  5  1  0
  7  6  1  0
  8  7  2  0
  9  8  1  0
 10 11  1  0
 10  9  2  0
 11 12  2  0
 12  7  1  0
 12  4  1  0
 13  2  1  0
 13 14  2  0
 15 16  1  0
 17 16  1  6
 17 18  1  0
 18 13  1  0
 19 17  1  0
 20 19  2  0
 22 21  1  0
 22 23  2  0
 24 22  1  0
 25 24  1  0
 26 25  1  0
 27 26  1  0
 28 27  1  1
 28 29  1  0
 29 19  1  0
 30 32  1  0
 30 28  1  0
 31 30  2  0
M  END
$$$$
