WSR.pdb
     RDKit          3D

 32 33  0  0  1  0  0  0  0  0999 V2000
   28.1496  -20.5103   -9.8733 N   0  0  0  0  0  0  0  0  0  0  0  0
   26.8255  -21.0433   -9.6200 C   0  0  1  0  0  0  0  0  0  0  0  0
   26.2041  -20.4264   -8.3914 C   0  0  0  0  0  0  0  0  0  0  0  0
   27.2080  -19.8747   -7.4512 C   0  0  0  0  0  0  0  0  0  0  0  0
   28.0956  -18.8364   -7.6277 C   0  0  0  0  0  0  0  0  0  0  0  0
   28.8044  -18.7010   -6.4935 N   0  0  0  0  0  0  0  0  0  0  0  0
   28.4182  -19.6117   -5.5729 C   0  0  0  0  0  0  0  0  0  0  0  0
   28.8437  -19.8539   -4.2911 C   0  0  0  0  0  0  0  0  0  0  0  0
   28.2624  -20.8655   -3.5587 C   0  0  0  0  0  0  0  0  0  0  0  0
   27.2674  -21.6061   -4.1386 C   0  0  0  0  0  0  0  0  0  0  0  0
   26.8463  -21.3579   -5.4232 C   0  0  0  0  0  0  0  0  0  0  0  0
   27.4164  -20.3473   -6.1755 C   0  0  0  0  0  0  0  0  0  0  0  0
   25.9505  -20.8100  -10.7873 C   0  0  0  0  0  0  0  0  0  0  0  0
   25.2631  -19.7796  -10.9559 O   0  0  0  0  0  0  0  0  0  0  0  0
   27.2718  -21.0343  -13.9521 O   0  0  0  0  0  0  0  0  0  0  0  0
   26.0513  -21.6345  -14.2808 C   0  0  0  0  0  0  0  0  0  0  0  0
   25.1634  -21.5072  -13.0644 C   0  0  2  0  0  0  0  0  0  0  0  0
   25.8339  -21.7901  -11.8366 N   0  0  0  0  0  0  0  0  0  0  0  0
   23.9255  -22.3145  -13.2484 C   0  0  0  0  0  0  0  0  0  0  0  0
   23.8631  -23.5087  -12.8635 O   0  0  0  0  0  0  0  0  0  0  0  0
   17.8305  -22.0975   -9.3807 N   0  0  0  0  0  0  0  0  0  0  0  0
   17.2091  -22.5040  -10.6045 C   0  0  0  0  0  0  0  0  0  0  0  0
   15.9279  -22.5152  -10.7439 N   0  0  0  0  0  0  0  0  0  0  0  0
   17.9878  -22.9162  -11.7236 N   0  0  0  0  0  0  0  0  0  0  0  0
   19.4092  -22.9231  -11.7830 C   0  0  0  0  0  0  0  0  0  0  0  0
   20.0260  -21.7477  -12.4764 C   0  0  0  0  0  0  0  0  0  0  0  0
   20.3194  -21.9746  -13.9150 C   0  0  0  0  0  0  0  0  0  0  0  0
   21.6297  -22.6732  -14.1948 C   0  0  2  0  0  0  0  0  0  0  0  0
   22.7526  -21.7862  -13.8637 N   0  0  0  0  0  0  0  0  0  0  0  0
   21.8059  -23.1020  -15.5864 C   0  0  0  0  0  0  0  0  0  0  0  0
   22.5828  -22.5263  -16.3884 O   0  0  0  0  0  0  0  0  0  0  0  0
   21.1069  -24.1866  -16.0870 O   0  0  0  0  0  0  0  0  0  0  0  0
  2  1  1  6
  3  4  1  0
  3  2  1  0
  4  5  2  0
  6  5  1  0
  7  6  1  0
  8  7  2  0
  9  8  1  0
 10 11  1  0
 10  9  2  0
 11 12  2  0
 12  7  1  0
 12  4  1  0
 13  2  1  0
 13 14  2  0
 15 16  1  0
 17 16  1  6
 17 18  1  0
 18 13  1  0
 19 17  1  0
 20 19  2  0
 22 21  1  0
 22 23  2  0
 24 22  1  0
 25 24  1  0
 26 25  1  0
 27 26  1  0
 28 27  1  6
 28 29  1  0
 29 19  1  0
 30 32  1  0
 30 28  1  0
 31 30  2  0
M  END
$$$$
