WSR.pdb
     RDKit          3D

 32 33  0  0  1  0  0  0  0  0999 V2000
   26.6008  -22.8311  -13.8463 N   0  0  0  0  0  0  0  0  0  0  0  0
   25.7028  -22.0803  -12.9910 C   0  0  1  0  0  0  0  0  0  0  0  0
   26.2942  -20.7494  -12.5971 C   0  0  0  0  0  0  0  0  0  0  0  0
   27.4667  -20.8808  -11.7005 C   0  0  0  0  0  0  0  0  0  0  0  0
   28.8043  -20.9732  -12.0156 C   0  0  0  0  0  0  0  0  0  0  0  0
   29.4939  -21.0754  -10.8661 N   0  0  0  0  0  0  0  0  0  0  0  0
   28.6614  -21.0540   -9.8019 C   0  0  0  0  0  0  0  0  0  0  0  0
   28.8996  -21.1267   -8.4525 C   0  0  0  0  0  0  0  0  0  0  0  0
   27.8433  -21.0776   -7.5695 C   0  0  0  0  0  0  0  0  0  0  0  0
   26.5750  -20.9566   -8.0709 C   0  0  0  0  0  0  0  0  0  0  0  0
   26.3439  -20.8844   -9.4238 C   0  0  0  0  0  0  0  0  0  0  0  0
   27.3898  -20.9317  -10.3272 C   0  0  0  0  0  0  0  0  0  0  0  0
   24.4103  -21.8650  -13.6734 C   0  0  0  0  0  0  0  0  0  0  0  0
   24.2899  -21.3421  -14.8024 O   0  0  0  0  0  0  0  0  0  0  0  0
   21.5994  -24.4094  -13.2734 O   0  0  0  0  0  0  0  0  0  0  0  0
   20.9109  -23.1924  -13.3271 C   0  0  0  0  0  0  0  0  0  0  0  0
   21.9182  -22.1414  -13.7331 C   0  0  2  0  0  0  0  0  0  0  0  0
   23.1694  -22.2588  -13.0567 N   0  0  0  0  0  0  0  0  0  0  0  0
   21.3180  -20.7839  -13.6106 C   0  0  0  0  0  0  0  0  0  0  0  0
   21.4989  -20.0817  -12.5848 O   0  0  0  0  0  0  0  0  0  0  0  0
   19.0438  -13.7900  -18.2899 N   0  0  0  0  0  0  0  0  0  0  0  0
   20.3536  -14.3630  -18.2163 C   0  0  0  0  0  0  0  0  0  0  0  0
   21.4040  -13.7019  -18.5637 N   0  0  0  0  0  0  0  0  0  0  0  0
   20.5485  -15.6961  -17.7541 N   0  0  0  0  0  0  0  0  0  0  0  0
   19.7716  -16.3454  -16.7547 C   0  0  0  0  0  0  0  0  0  0  0  0
   20.0177  -17.8155  -16.6081 C   0  0  0  0  0  0  0  0  0  0  0  0
   19.1038  -18.4934  -15.6529 C   0  0  0  0  0  0  0  0  0  0  0  0
   19.7581  -18.9753  -14.3791 C   0  0  2  0  0  0  0  0  0  0  0  0
   20.5137  -20.2080  -14.6376 N   0  0  0  0  0  0  0  0  0  0  0  0
   18.8241  -19.2559  -13.2835 C   0  0  0  0  0  0  0  0  0  0  0  0
   18.1724  -20.3262  -13.1948 O   0  0  0  0  0  0  0  0  0  0  0  0
   18.6167  -18.3306  -12.2753 O   0  0  0  0  0  0  0  0  0  0  0  0
  2  1  1  6
  3  4  1  0
  3  2  1  0
  4  5  2  0
  6  5  1  0
  7  6  1  0
  8  7  2  0
  9  8  1  0
 10 11  1  0
 10  9  2  0
 11 12  2  0
 12  7  1  0
 12  4  1  0
 13  2  1  0
 13 14  2  0
 15 16  1  0
 17 16  1  1
 17 18  1  0
 18 13  1  0
 19 17  1  0
 20 19  2  0
 22 21  1  0
 22 23  2  0
 24 22  1  0
 25 24  1  0
 26 25  1  0
 27 26  1  0
 28 27  1  6
 28 29  1  0
 29 19  1  0
 30 32  1  0
 30 28  1  0
 31 30  2  0
M  END
$$$$
