ILR.pdb
     RDKit          3D

 28 27  0  0  1  0  0  0  0  0999 V2000
    7.2891  -11.6764   27.1413 C   0  0  0  0  0  0  0  0  0  0  0  0
    7.8255  -13.0667   26.8560 C   0  0  0  0  0  0  0  0  0  0  0  0
    7.0081  -13.6099   25.6588 C   0  0  2  0  0  0  0  0  0  0  0  0
    5.5509  -13.6757   26.0533 C   0  0  0  0  0  0  0  0  0  0  0  0
    7.5547  -14.9596   25.2860 C   0  0  2  0  0  0  0  0  0  0  0  0
    8.9992  -15.0133   25.6186 N   0  0  0  0  0  0  0  0  0  0  0  0
    7.4184  -15.3320   23.8721 C   0  0  0  0  0  0  0  0  0  0  0  0
    6.3092  -15.8382   23.4551 O   0  0  0  0  0  0  0  0  0  0  0  0
    6.5723  -13.2608   20.5717 C   0  0  0  0  0  0  0  0  0  0  0  0
    7.8999  -13.5030   19.8834 C   0  0  1  0  0  0  0  0  0  0  0  0
    8.4962  -12.2225   19.4155 C   0  0  0  0  0  0  0  0  0  0  0  0
    8.7901  -14.4174   20.6407 C   0  0  0  0  0  0  0  0  0  0  0  0
    8.1234  -15.4667   21.4641 C   0  0  2  0  0  0  0  0  0  0  0  0
    8.3958  -15.1941   22.8709 N   0  0  0  0  0  0  0  0  0  0  0  0
    8.7267  -16.8203   21.1711 C   0  0  0  0  0  0  0  0  0  0  0  0
    8.2330  -17.5887   20.3101 O   0  0  0  0  0  0  0  0  0  0  0  0
   11.5364  -18.5626   15.7483 N   0  0  0  0  0  0  0  0  0  0  0  0
   12.9242  -18.7841   16.0189 C   0  0  0  0  0  0  0  0  0  0  0  0
   13.6488  -19.5733   15.3272 N   0  0  0  0  0  0  0  0  0  0  0  0
   13.5591  -18.0965   17.1168 N   0  0  0  0  0  0  0  0  0  0  0  0
   12.7497  -17.2625   17.9823 C   0  0  0  0  0  0  0  0  0  0  0  0
   12.3751  -17.9794   19.2773 C   0  0  0  0  0  0  0  0  0  0  0  0
   11.3647  -17.2090   20.0585 C   0  0  0  0  0  0  0  0  0  0  0  0
   10.9205  -17.9812   21.2603 C   0  0  2  0  0  0  0  0  0  0  0  0
    9.8742  -17.1931   21.9053 N   0  0  0  0  0  0  0  0  0  0  0  0
   11.9958  -18.3218   22.1769 C   0  0  0  0  0  0  0  0  0  0  0  0
   12.4430  -17.5985   23.0907 O   0  0  0  0  0  0  0  0  0  0  0  0
   12.6065  -19.5796   22.0403 O   0  0  0  0  0  0  0  0  0  0  0  0
  2  3  1  0
  2  1  1  0
  3  5  1  0
  3  4  1  1
  5  7  1  0
  5  6  1  6
  7  8  2  0
 10  9  1  1
 10 12  1  0
 11 10  1  0
 13 12  1  6
 14 13  1  0
 14  7  1  0
 15 13  1  0
 15 16  2  0
 17 18  1  0
 18 20  1  0
 18 19  2  0
 20 21  1  0
 21 22  1  0
 22 23  1  0
 24 23  1  6
 24 25  1  0
 24 26  1  0
 25 15  1  0
 26 27  2  0
 26 28  1  0
M  END
$$$$
