ILR.pdb
     RDKit          3D

 28 27  0  0  1  0  0  0  0  0999 V2000
    7.5610  -15.4554   17.4390 C   0  0  0  0  0  0  0  0  0  0  0  0
    7.4123  -14.1998   18.2778 C   0  0  0  0  0  0  0  0  0  0  0  0
    7.8918  -14.5703   19.7024 C   0  0  2  0  0  0  0  0  0  0  0  0
    7.1135  -15.7738   20.1810 C   0  0  0  0  0  0  0  0  0  0  0  0
    7.6926  -13.3767   20.5941 C   0  0  2  0  0  0  0  0  0  0  0  0
    8.4293  -12.2173   20.0344 N   0  0  0  0  0  0  0  0  0  0  0  0
    8.1321  -13.5426   21.9854 C   0  0  0  0  0  0  0  0  0  0  0  0
    9.3924  -13.5911   22.2495 O   0  0  0  0  0  0  0  0  0  0  0  0
    5.2210  -11.9350   26.5191 C   0  0  0  0  0  0  0  0  0  0  0  0
    6.4506  -12.1519   25.6613 C   0  0  1  0  0  0  0  0  0  0  0  0
    7.5693  -11.2780   26.1072 C   0  0  0  0  0  0  0  0  0  0  0  0
    6.7668  -13.5862   25.4490 C   0  0  0  0  0  0  0  0  0  0  0  0
    7.8358  -13.8934   24.4558 C   0  0  2  0  0  0  0  0  0  0  0  0
    7.3061  -13.6574   23.1173 N   0  0  0  0  0  0  0  0  0  0  0  0
    8.1966  -15.3591   24.5154 C   0  0  0  0  0  0  0  0  0  0  0  0
    7.3897  -16.2508   24.1561 O   0  0  0  0  0  0  0  0  0  0  0  0
   14.3718  -19.5918   20.7941 N   0  0  0  0  0  0  0  0  0  0  0  0
   13.1231  -20.2765   20.9355 C   0  0  0  0  0  0  0  0  0  0  0  0
   12.7587  -21.2226   20.1619 N   0  0  0  0  0  0  0  0  0  0  0  0
   12.2158  -19.9015   21.9926 N   0  0  0  0  0  0  0  0  0  0  0  0
   12.5686  -18.7940   22.8579 C   0  0  0  0  0  0  0  0  0  0  0  0
   11.5545  -18.6042   23.9833 C   0  0  0  0  0  0  0  0  0  0  0  0
   11.0184  -17.2125   24.0102 C   0  0  0  0  0  0  0  0  0  0  0  0
    9.9095  -17.0892   25.0066 C   0  0  2  0  0  0  0  0  0  0  0  0
    9.4833  -15.6928   24.9930 N   0  0  0  0  0  0  0  0  0  0  0  0
   10.2590  -17.5440   26.3420 C   0  0  0  0  0  0  0  0  0  0  0  0
   10.4055  -16.8245   27.3515 O   0  0  0  0  0  0  0  0  0  0  0  0
   10.4570  -18.9207   26.5401 O   0  0  0  0  0  0  0  0  0  0  0  0
  2  3  1  0
  2  1  1  0
  3  5  1  0
  3  4  1  1
  5  7  1  0
  5  6  1  6
  7  8  2  0
 10  9  1  1
 10 12  1  0
 11 10  1  0
 13 12  1  1
 14 13  1  0
 14  7  1  0
 15 13  1  0
 15 16  2  0
 17 18  1  0
 18 20  1  0
 18 19  2  0
 20 21  1  0
 21 22  1  0
 22 23  1  0
 24 23  1  6
 24 25  1  0
 24 26  1  0
 25 15  1  0
 26 27  2  0
 26 28  1  0
M  END
$$$$
