ILR.pdb
     RDKit          3D

 28 27  0  0  1  0  0  0  0  0999 V2000
    7.6738  -11.9210   20.4624 C   0  0  0  0  0  0  0  0  0  0  0  0
    7.5602  -13.0989   21.4121 C   0  0  0  0  0  0  0  0  0  0  0  0
    8.5486  -14.1715   20.8932 C   0  0  2  0  0  0  0  0  0  0  0  0
    8.1947  -14.5095   19.4635 C   0  0  0  0  0  0  0  0  0  0  0  0
    8.4625  -15.3704   21.7958 C   0  0  2  0  0  0  0  0  0  0  0  0
    7.0828  -15.9139   21.7602 N   0  0  0  0  0  0  0  0  0  0  0  0
    8.8009  -15.1308   23.2045 C   0  0  0  0  0  0  0  0  0  0  0  0
    9.9887  -14.7373   23.5120 O   0  0  0  0  0  0  0  0  0  0  0  0
    5.3573  -12.6641   26.5808 C   0  0  0  0  0  0  0  0  0  0  0  0
    6.6679  -13.0622   25.9337 C   0  0  1  0  0  0  0  0  0  0  0  0
    7.6398  -11.9359   25.9675 C   0  0  0  0  0  0  0  0  0  0  0  0
    7.1629  -14.3857   26.3871 C   0  0  0  0  0  0  0  0  0  0  0  0
    8.3476  -14.9366   25.6684 C   0  0  2  0  0  0  0  0  0  0  0  0
    7.9452  -15.2829   24.3097 N   0  0  0  0  0  0  0  0  0  0  0  0
    8.7981  -16.2242   26.3172 C   0  0  0  0  0  0  0  0  0  0  0  0
    8.5870  -16.4582   27.5322 O   0  0  0  0  0  0  0  0  0  0  0  0
   14.2949  -18.9180   21.4647 N   0  0  0  0  0  0  0  0  0  0  0  0
   13.0094  -18.9393   20.8361 C   0  0  0  0  0  0  0  0  0  0  0  0
   12.8506  -19.1436   19.5874 N   0  0  0  0  0  0  0  0  0  0  0  0
   11.8216  -18.7241   21.6262 N   0  0  0  0  0  0  0  0  0  0  0  0
   11.6300  -19.5078   22.8299 C   0  0  0  0  0  0  0  0  0  0  0  0
   11.2806  -18.6320   24.0308 C   0  0  0  0  0  0  0  0  0  0  0  0
   10.3112  -19.3089   24.9401 C   0  0  0  0  0  0  0  0  0  0  0  0
    9.9417  -18.4164   26.0823 C   0  0  2  0  0  0  0  0  0  0  0  0
    9.4697  -17.1623   25.5024 N   0  0  0  0  0  0  0  0  0  0  0  0
   11.0123  -18.2088   27.0431 C   0  0  0  0  0  0  0  0  0  0  0  0
   11.6106  -17.1350   27.2604 O   0  0  0  0  0  0  0  0  0  0  0  0
   11.4322  -19.3074   27.8116 O   0  0  0  0  0  0  0  0  0  0  0  0
  2  3  1  0
  2  1  1  0
  3  5  1  0
  3  4  1  6
  5  7  1  0
  5  6  1  1
  7  8  2  0
 10  9  1  1
 10 12  1  0
 11 10  1  0
 13 12  1  1
 14 13  1  0
 14  7  1  0
 15 13  1  0
 15 16  2  0
 17 18  1  0
 18 20  1  0
 18 19  2  0
 20 21  1  0
 21 22  1  0
 22 23  1  0
 24 23  1  6
 24 25  1  0
 24 26  1  0
 25 15  1  0
 26 27  2  0
 26 28  1  0
M  END
$$$$
