ILR.pdb
     RDKit          3D

 28 27  0  0  1  0  0  0  0  0999 V2000
    7.3932  -15.3702   17.3420 C   0  0  0  0  0  0  0  0  0  0  0  0
    7.5328  -14.0996   18.1595 C   0  0  0  0  0  0  0  0  0  0  0  0
    7.8279  -14.5480   19.6115 C   0  0  2  0  0  0  0  0  0  0  0  0
    6.7308  -15.4827   20.0654 C   0  0  0  0  0  0  0  0  0  0  0  0
    7.9200  -13.3218   20.4760 C   0  0  2  0  0  0  0  0  0  0  0  0
    8.8776  -12.3647   19.8702 N   0  0  0  0  0  0  0  0  0  0  0  0
    8.3502  -13.5517   21.8610 C   0  0  0  0  0  0  0  0  0  0  0  0
    9.6005  -13.4601   22.1589 O   0  0  0  0  0  0  0  0  0  0  0  0
    8.3386  -11.7827   26.7622 C   0  0  0  0  0  0  0  0  0  0  0  0
    7.0914  -12.5913   26.4698 C   0  0  1  0  0  0  0  0  0  0  0  0
    5.9249  -12.0590   27.2249 C   0  0  0  0  0  0  0  0  0  0  0  0
    6.8897  -12.8475   25.0220 C   0  0  0  0  0  0  0  0  0  0  0  0
    7.9350  -13.6608   24.3368 C   0  0  2  0  0  0  0  0  0  0  0  0
    7.5245  -13.8718   22.9531 N   0  0  0  0  0  0  0  0  0  0  0  0
    8.0235  -15.0316   24.9654 C   0  0  0  0  0  0  0  0  0  0  0  0
    8.3087  -15.1824   26.1784 O   0  0  0  0  0  0  0  0  0  0  0  0
   11.6740  -18.2659   18.0994 N   0  0  0  0  0  0  0  0  0  0  0  0
   12.4364  -18.8523   19.1592 C   0  0  0  0  0  0  0  0  0  0  0  0
   13.4562  -19.5903   18.9546 N   0  0  0  0  0  0  0  0  0  0  0  0
   12.0582  -18.6144   20.5309 N   0  0  0  0  0  0  0  0  0  0  0  0
   10.8915  -17.7995   20.8041 C   0  0  0  0  0  0  0  0  0  0  0  0
   10.5814  -17.7302   22.2975 C   0  0  0  0  0  0  0  0  0  0  0  0
    9.4288  -16.8258   22.5773 C   0  0  0  0  0  0  0  0  0  0  0  0
    8.8238  -17.1328   23.9105 C   0  0  2  0  0  0  0  0  0  0  0  0
    7.7718  -16.1453   24.1340 N   0  0  0  0  0  0  0  0  0  0  0  0
    9.7825  -17.1709   25.0022 C   0  0  0  0  0  0  0  0  0  0  0  0
   10.7846  -16.4376   25.1298 O   0  0  0  0  0  0  0  0  0  0  0  0
    9.5841  -18.1159   26.0227 O   0  0  0  0  0  0  0  0  0  0  0  0
  2  3  1  0
  2  1  1  0
  3  5  1  0
  3  4  1  1
  5  7  1  0
  5  6  1  6
  7  8  2  0
 10  9  1  6
 10 12  1  0
 11 10  1  0
 13 12  1  1
 14 13  1  0
 14  7  1  0
 15 13  1  0
 15 16  2  0
 17 18  1  0
 18 20  1  0
 18 19  2  0
 20 21  1  0
 21 22  1  0
 22 23  1  0
 24 23  1  6
 24 25  1  0
 24 26  1  0
 25 15  1  0
 26 27  2  0
 26 28  1  0
M  END
$$$$
