ILR.pdb
     RDKit          3D

 28 27  0  0  1  0  0  0  0  0999 V2000
    6.3034  -21.7791   24.2902 C   0  0  0  0  0  0  0  0  0  0  0  0
    5.8842  -20.4539   23.6817 C   0  0  0  0  0  0  0  0  0  0  0  0
    6.8547  -19.3896   24.2490 C   0  0  2  0  0  0  0  0  0  0  0  0
    6.8282  -19.4609   25.7582 C   0  0  0  0  0  0  0  0  0  0  0  0
    6.4290  -18.0412   23.7389 C   0  0  2  0  0  0  0  0  0  0  0  0
    6.2380  -18.1100   22.2696 N   0  0  0  0  0  0  0  0  0  0  0  0
    7.3601  -16.9377   24.0067 C   0  0  0  0  0  0  0  0  0  0  0  0
    8.2915  -16.6748   23.1559 O   0  0  0  0  0  0  0  0  0  0  0  0
    6.0893  -12.1698   26.7725 C   0  0  0  0  0  0  0  0  0  0  0  0
    6.7949  -12.9732   25.6994 C   0  0  1  0  0  0  0  0  0  0  0  0
    7.3510  -12.0798   24.6474 C   0  0  0  0  0  0  0  0  0  0  0  0
    7.7077  -14.0054   26.2505 C   0  0  0  0  0  0  0  0  0  0  0  0
    8.2838  -14.9752   25.2752 C   0  0  2  0  0  0  0  0  0  0  0  0
    7.3567  -16.0919   25.1298 N   0  0  0  0  0  0  0  0  0  0  0  0
    9.5672  -15.5590   25.8175 C   0  0  0  0  0  0  0  0  0  0  0  0
   10.6163  -14.8753   25.9044 O   0  0  0  0  0  0  0  0  0  0  0  0
    6.3906  -20.7303   28.5310 N   0  0  0  0  0  0  0  0  0  0  0  0
    7.0865  -21.7725   27.8397 C   0  0  0  0  0  0  0  0  0  0  0  0
    6.4891  -22.7159   27.2237 N   0  0  0  0  0  0  0  0  0  0  0  0
    8.5289  -21.7813   27.8212 N   0  0  0  0  0  0  0  0  0  0  0  0
    9.2428  -20.6336   28.3437 C   0  0  0  0  0  0  0  0  0  0  0  0
    9.6393  -19.6573   27.2388 C   0  0  0  0  0  0  0  0  0  0  0  0
   10.3920  -18.4898   27.7822 C   0  0  0  0  0  0  0  0  0  0  0  0
   10.7757  -17.5477   26.6854 C   0  0  2  0  0  0  0  0  0  0  0  0
    9.5446  -16.9108   26.2263 N   0  0  0  0  0  0  0  0  0  0  0  0
   11.5101  -18.1717   25.5975 C   0  0  0  0  0  0  0  0  0  0  0  0
   12.6514  -18.6721   25.6696 O   0  0  0  0  0  0  0  0  0  0  0  0
   10.8981  -18.2279   24.3342 O   0  0  0  0  0  0  0  0  0  0  0  0
  2  3  1  0
  2  1  1  0
  3  5  1  0
  3  4  1  1
  5  7  1  0
  5  6  1  6
  7  8  2  0
 10  9  1  1
 10 12  1  0
 11 10  1  0
 13 12  1  1
 14 13  1  0
 14  7  1  0
 15 13  1  0
 15 16  2  0
 17 18  1  0
 18 20  1  0
 18 19  2  0
 20 21  1  0
 21 22  1  0
 22 23  1  0
 24 23  1  1
 24 25  1  0
 24 26  1  0
 25 15  1  0
 26 27  2  0
 26 28  1  0
M  END
$$$$
