ILR.pdb
     RDKit          3D

 28 27  0  0  1  0  0  0  0  0999 V2000
    7.1416  -11.9396   20.1637 C   0  0  0  0  0  0  0  0  0  0  0  0
    7.1467  -13.3387   20.7508 C   0  0  0  0  0  0  0  0  0  0  0  0
    8.6076  -13.8426   20.6585 C   0  0  2  0  0  0  0  0  0  0  0  0
    9.0357  -13.8334   19.2094 C   0  0  0  0  0  0  0  0  0  0  0  0
    8.6720  -15.2193   21.2586 C   0  0  2  0  0  0  0  0  0  0  0  0
    7.7588  -16.1219   20.5161 N   0  0  0  0  0  0  0  0  0  0  0  0
    8.3149  -15.3102   22.6801 C   0  0  0  0  0  0  0  0  0  0  0  0
    7.2427  -15.9365   23.0245 O   0  0  0  0  0  0  0  0  0  0  0  0
    5.9957  -12.1432   25.8602 C   0  0  0  0  0  0  0  0  0  0  0  0
    7.3584  -12.7609   25.6230 C   0  0  1  0  0  0  0  0  0  0  0  0
    8.3184  -12.3509   26.6834 C   0  0  0  0  0  0  0  0  0  0  0  0
    7.2938  -14.2086   25.3035 C   0  0  0  0  0  0  0  0  0  0  0  0
    8.5973  -14.9154   25.1455 C   0  0  2  0  0  0  0  0  0  0  0  0
    9.0360  -14.7741   23.7615 N   0  0  0  0  0  0  0  0  0  0  0  0
    8.4191  -16.3964   25.3835 C   0  0  0  0  0  0  0  0  0  0  0  0
    7.6856  -17.0983   24.6453 O   0  0  0  0  0  0  0  0  0  0  0  0
   10.2922  -18.2765   20.7427 N   0  0  0  0  0  0  0  0  0  0  0  0
   11.1648  -19.4058   20.8499 C   0  0  0  0  0  0  0  0  0  0  0  0
   11.2407  -20.3117   19.9556 N   0  0  0  0  0  0  0  0  0  0  0  0
   12.0090  -19.5516   22.0107 N   0  0  0  0  0  0  0  0  0  0  0  0
   11.9754  -18.5261   23.0340 C   0  0  0  0  0  0  0  0  0  0  0  0
   11.0070  -18.8767   24.1610 C   0  0  0  0  0  0  0  0  0  0  0  0
   10.9207  -17.7824   25.1709 C   0  0  0  0  0  0  0  0  0  0  0  0
    9.9580  -18.1381   26.2592 C   0  0  2  0  0  0  0  0  0  0  0  0
    9.1121  -16.9675   26.4737 N   0  0  0  0  0  0  0  0  0  0  0  0
   10.5914  -18.5906   27.4866 C   0  0  0  0  0  0  0  0  0  0  0  0
   11.0524  -17.8633   28.3903 O   0  0  0  0  0  0  0  0  0  0  0  0
   10.7085  -19.9746   27.6980 O   0  0  0  0  0  0  0  0  0  0  0  0
  2  3  1  0
  2  1  1  0
  3  5  1  0
  3  4  1  6
  5  7  1  0
  5  6  1  6
  7  8  2  0
 10  9  1  1
 10 12  1  0
 11 10  1  0
 13 12  1  6
 14 13  1  0
 14  7  1  0
 15 13  1  0
 15 16  2  0
 17 18  1  0
 18 20  1  0
 18 19  2  0
 20 21  1  0
 21 22  1  0
 22 23  1  0
 24 23  1  6
 24 25  1  0
 24 26  1  0
 25 15  1  0
 26 27  2  0
 26 28  1  0
M  END
$$$$
