ILR.pdb
     RDKit          3D

 28 27  0  0  1  0  0  0  0  0999 V2000
    4.7533  -22.4068   25.2568 C   0  0  0  0  0  0  0  0  0  0  0  0
    5.9458  -21.6189   25.7662 C   0  0  0  0  0  0  0  0  0  0  0  0
    5.9195  -20.2620   25.0215 C   0  0  2  0  0  0  0  0  0  0  0  0
    5.9313  -20.5225   23.5331 C   0  0  0  0  0  0  0  0  0  0  0  0
    7.1086  -19.4561   25.4642 C   0  0  2  0  0  0  0  0  0  0  0  0
    7.2081  -19.4996   26.9435 N   0  0  0  0  0  0  0  0  0  0  0  0
    7.1006  -18.0419   25.0688 C   0  0  0  0  0  0  0  0  0  0  0  0
    6.9975  -17.7340   23.8218 O   0  0  0  0  0  0  0  0  0  0  0  0
    6.0802  -12.5482   25.6198 C   0  0  0  0  0  0  0  0  0  0  0  0
    7.2726  -13.1856   26.3030 C   0  0  1  0  0  0  0  0  0  0  0  0
    7.7484  -12.3438   27.4340 C   0  0  0  0  0  0  0  0  0  0  0  0
    7.0809  -14.6309   26.5802 C   0  0  0  0  0  0  0  0  0  0  0  0
    7.2735  -15.5615   25.4311 C   0  0  2  0  0  0  0  0  0  0  0  0
    7.1932  -16.9313   25.9259 N   0  0  0  0  0  0  0  0  0  0  0  0
    8.6614  -15.3999   24.8569 C   0  0  0  0  0  0  0  0  0  0  0  0
    9.6878  -15.5495   25.5638 O   0  0  0  0  0  0  0  0  0  0  0  0
   14.2133  -17.9530   21.5117 N   0  0  0  0  0  0  0  0  0  0  0  0
   13.8537  -19.1409   22.2245 C   0  0  0  0  0  0  0  0  0  0  0  0
   14.7146  -19.9330   22.7323 N   0  0  0  0  0  0  0  0  0  0  0  0
   12.4622  -19.4823   22.3928 N   0  0  0  0  0  0  0  0  0  0  0  0
   11.4566  -18.6553   21.7566 C   0  0  0  0  0  0  0  0  0  0  0  0
   11.5302  -17.2047   22.2272 C   0  0  0  0  0  0  0  0  0  0  0  0
   10.3007  -16.8062   22.9716 C   0  0  0  0  0  0  0  0  0  0  0  0
   10.0026  -15.3546   22.7670 C   0  0  2  0  0  0  0  0  0  0  0  0
    8.7639  -15.0726   23.4868 N   0  0  0  0  0  0  0  0  0  0  0  0
    9.9302  -14.9551   21.3714 C   0  0  0  0  0  0  0  0  0  0  0  0
   10.8992  -14.7516   20.6112 O   0  0  0  0  0  0  0  0  0  0  0  0
    8.6590  -14.7730   20.8016 O   0  0  0  0  0  0  0  0  0  0  0  0
  2  3  1  0
  2  1  1  0
  3  5  1  0
  3  4  1  6
  5  7  1  0
  5  6  1  1
  7  8  2  0
 10  9  1  1
 10 12  1  0
 11 10  1  0
 13 12  1  1
 14 13  1  0
 14  7  1  0
 15 13  1  0
 15 16  2  0
 17 18  1  0
 18 20  1  0
 18 19  2  0
 20 21  1  0
 21 22  1  0
 22 23  1  0
 24 23  1  6
 24 25  1  0
 24 26  1  0
 25 15  1  0
 26 27  2  0
 26 28  1  0
M  END
$$$$
