VGL.pdb
     RDKit          3D

 20 19  0  0  1  0  0  0  0  0999 V2000
    5.5831  -20.1787   23.9719 C   0  0  0  0  0  0  0  0  0  0  0  0
    6.5779  -19.0486   23.8772 C   0  0  1  0  0  0  0  0  0  0  0  0
    7.7566  -19.4075   24.7650 C   0  0  0  0  0  0  0  0  0  0  0  0
    7.0743  -18.9564   22.4591 C   0  0  2  0  0  0  0  0  0  0  0  0
    7.5152  -20.2038   21.9221 N   0  0  0  0  0  0  0  0  0  0  0  0
    8.2148  -17.9717   22.4625 C   0  0  0  0  0  0  0  0  0  0  0  0
    9.3802  -18.3321   22.7707 O   0  0  0  0  0  0  0  0  0  0  0  0
    8.0220  -16.6090   22.1210 N   0  0  0  0  0  0  0  0  0  0  0  0
    9.1063  -15.6912   22.1911 C   0  0  0  0  0  0  0  0  0  0  0  0
    9.3641  -15.1643   23.5414 C   0  0  0  0  0  0  0  0  0  0  0  0
   10.4515  -14.5758   23.7599 O   0  0  0  0  0  0  0  0  0  0  0  0
    5.4706  -12.8604   26.2456 C   0  0  0  0  0  0  0  0  0  0  0  0
    6.8229  -13.2175   25.6822 C   0  0  1  0  0  0  0  0  0  0  0  0
    7.6855  -11.9550   25.6266 C   0  0  0  0  0  0  0  0  0  0  0  0
    7.4456  -14.2718   26.5192 C   0  0  0  0  0  0  0  0  0  0  0  0
    8.7264  -14.7722   25.9614 C   0  0  2  0  0  0  0  0  0  0  0  0
    8.4450  -15.2879   24.6103 N   0  0  0  0  0  0  0  0  0  0  0  0
    9.2857  -15.8582   26.7702 C   0  0  0  0  0  0  0  0  0  0  0  0
    9.1524  -17.0433   26.3778 O   0  0  0  0  0  0  0  0  0  0  0  0
    9.9625  -15.6674   27.9524 O   0  0  0  0  0  0  0  0  0  0  0  0
  2  1  1  6
  3  2  1  0
  4  5  1  1
  4  2  1  0
  6  4  1  0
  6  7  2  0
  8  6  1  0
  9  8  1  0
  9 10  1  0
 10 17  1  0
 10 11  2  0
 13 15  1  0
 13 12  1  1
 14 13  1  0
 16 15  1  1
 16 18  1  0
 17 16  1  0
 18 20  1  0
 19 18  2  0
M  END
$$$$
