VGL.pdb
     RDKit          3D

 20 19  0  0  1  0  0  0  0  0999 V2000
    7.6993  -12.6573   19.7847 C   0  0  0  0  0  0  0  0  0  0  0  0
    7.7625  -13.6379   18.6401 C   0  0  1  0  0  0  0  0  0  0  0  0
    8.3234  -12.8965   17.4393 C   0  0  0  0  0  0  0  0  0  0  0  0
    8.7237  -14.7399   18.9974 C   0  0  2  0  0  0  0  0  0  0  0  0
    8.9673  -15.6584   17.9317 N   0  0  0  0  0  0  0  0  0  0  0  0
    8.1277  -15.4703   20.1729 C   0  0  0  0  0  0  0  0  0  0  0  0
    7.8411  -16.6931   20.0976 O   0  0  0  0  0  0  0  0  0  0  0  0
    7.8677  -14.8136   21.4026 N   0  0  0  0  0  0  0  0  0  0  0  0
    7.4186  -15.5542   22.5308 C   0  0  0  0  0  0  0  0  0  0  0  0
    8.1941  -15.3123   23.7585 C   0  0  0  0  0  0  0  0  0  0  0  0
    9.4421  -15.2058   23.6704 O   0  0  0  0  0  0  0  0  0  0  0  0
    5.8493  -12.1036   27.1693 C   0  0  0  0  0  0  0  0  0  0  0  0
    6.8102  -12.8509   26.2795 C   0  0  1  0  0  0  0  0  0  0  0  0
    7.8312  -11.8625   25.7125 C   0  0  0  0  0  0  0  0  0  0  0  0
    7.4647  -13.9324   27.0551 C   0  0  0  0  0  0  0  0  0  0  0  0
    8.3641  -14.7747   26.2282 C   0  0  2  0  0  0  0  0  0  0  0  0
    7.6024  -15.1932   25.0385 N   0  0  0  0  0  0  0  0  0  0  0  0
    8.8035  -15.9725   26.9482 C   0  0  0  0  0  0  0  0  0  0  0  0
    8.2760  -17.0782   26.6739 O   0  0  0  0  0  0  0  0  0  0  0  0
    9.7749  -15.9718   27.9221 O   0  0  0  0  0  0  0  0  0  0  0  0
  2  1  1  1
  3  2  1  0
  4  5  1  6
  4  2  1  0
  6  4  1  0
  6  7  2  0
  8  6  1  0
  9  8  1  0
  9 10  1  0
 10 17  1  0
 10 11  2  0
 13 15  1  0
 13 12  1  1
 14 13  1  0
 16 15  1  1
 16 18  1  0
 17 16  1  0
 18 20  1  0
 19 18  2  0
M  END
$$$$
