VGL.pdb
     RDKit          3D

 20 19  0  0  1  0  0  0  0  0999 V2000
    8.8740  -12.7970   17.9120 C   0  0  0  0  0  0  0  0  0  0  0  0
    8.5815  -13.3257   19.2943 C   0  0  1  0  0  0  0  0  0  0  0  0
    7.2618  -12.7211   19.7403 C   0  0  0  0  0  0  0  0  0  0  0  0
    8.4067  -14.8188   19.2160 C   0  0  2  0  0  0  0  0  0  0  0  0
    7.5988  -15.2463   18.1191 N   0  0  0  0  0  0  0  0  0  0  0  0
    7.7732  -15.2494   20.5134 C   0  0  0  0  0  0  0  0  0  0  0  0
    6.5912  -14.9236   20.7961 O   0  0  0  0  0  0  0  0  0  0  0  0
    8.4783  -16.0337   21.4613 N   0  0  0  0  0  0  0  0  0  0  0  0
    7.8755  -16.3708   22.7047 C   0  0  0  0  0  0  0  0  0  0  0  0
    8.4716  -15.6926   23.8674 C   0  0  0  0  0  0  0  0  0  0  0  0
    9.6954  -15.4129   23.8384 O   0  0  0  0  0  0  0  0  0  0  0  0
    5.6053  -12.3979   27.2110 C   0  0  0  0  0  0  0  0  0  0  0  0
    6.6873  -12.9875   26.3420 C   0  0  1  0  0  0  0  0  0  0  0  0
    7.7152  -11.8996   26.0241 C   0  0  0  0  0  0  0  0  0  0  0  0
    7.3066  -14.1422   27.0369 C   0  0  0  0  0  0  0  0  0  0  0  0
    8.3692  -14.7980   26.2352 C   0  0  2  0  0  0  0  0  0  0  0  0
    7.7328  -15.3383   25.0212 N   0  0  0  0  0  0  0  0  0  0  0  0
    8.9993  -15.9014   26.9643 C   0  0  0  0  0  0  0  0  0  0  0  0
    8.5937  -17.0734   26.7689 O   0  0  0  0  0  0  0  0  0  0  0  0
   10.0266  -15.7414   27.8650 O   0  0  0  0  0  0  0  0  0  0  0  0
  2  1  1  6
  3  2  1  0
  4  5  1  6
  4  2  1  0
  6  4  1  0
  6  7  2  0
  8  6  1  0
  9  8  1  0
  9 10  1  0
 10 17  1  0
 10 11  2  0
 13 15  1  0
 13 12  1  1
 14 13  1  0
 16 15  1  1
 16 18  1  0
 17 16  1  0
 18 20  1  0
 19 18  2  0
M  END
$$$$
