VGL.pdb
     RDKit          3D

 20 19  0  0  1  0  0  0  0  0999 V2000
    9.1165  -12.3540   18.2597 C   0  0  0  0  0  0  0  0  0  0  0  0
    8.6536  -13.2075   19.4143 C   0  0  1  0  0  0  0  0  0  0  0  0
    7.1763  -12.9238   19.6231 C   0  0  0  0  0  0  0  0  0  0  0  0
    8.8003  -14.6570   19.0359 C   0  0  2  0  0  0  0  0  0  0  0  0
    8.1726  -14.9946   17.7987 N   0  0  0  0  0  0  0  0  0  0  0  0
    8.1878  -15.4606   20.1536 C   0  0  0  0  0  0  0  0  0  0  0  0
    7.2497  -16.2691   19.9310 O   0  0  0  0  0  0  0  0  0  0  0  0
    8.6405  -15.3390   21.4920 N   0  0  0  0  0  0  0  0  0  0  0  0
    8.1249  -16.1943   22.5047 C   0  0  0  0  0  0  0  0  0  0  0  0
    8.5544  -15.8418   23.8680 C   0  0  0  0  0  0  0  0  0  0  0  0
    9.7416  -16.0749   24.2037 O   0  0  0  0  0  0  0  0  0  0  0  0
    5.4662  -12.2376   26.6327 C   0  0  0  0  0  0  0  0  0  0  0  0
    6.6307  -12.9290   25.9697 C   0  0  1  0  0  0  0  0  0  0  0  0
    7.7618  -11.9173   25.7746 C   0  0  0  0  0  0  0  0  0  0  0  0
    7.0608  -14.0806   26.7995 C   0  0  0  0  0  0  0  0  0  0  0  0
    8.1487  -14.8713   26.1725 C   0  0  2  0  0  0  0  0  0  0  0  0
    7.6938  -15.2511   24.8235 N   0  0  0  0  0  0  0  0  0  0  0  0
    8.4413  -16.0913   26.9289 C   0  0  0  0  0  0  0  0  0  0  0  0
    7.8454  -17.1546   26.6278 O   0  0  0  0  0  0  0  0  0  0  0  0
    9.3429  -16.1564   27.9657 O   0  0  0  0  0  0  0  0  0  0  0  0
  2  1  1  6
  3  2  1  0
  4  5  1  6
  4  2  1  0
  6  4  1  0
  6  7  2  0
  8  6  1  0
  9  8  1  0
  9 10  1  0
 10 17  1  0
 10 11  2  0
 13 15  1  0
 13 12  1  1
 14 13  1  0
 16 15  1  1
 16 18  1  0
 17 16  1  0
 18 20  1  0
 19 18  2  0
M  END
$$$$
