VGL.pdb
     RDKit          3D

 20 19  0  0  1  0  0  0  0  0999 V2000
    8.4559  -12.1517   19.7894 C   0  0  0  0  0  0  0  0  0  0  0  0
    7.6861  -13.1212   20.6516 C   0  0  1  0  0  0  0  0  0  0  0  0
    6.4931  -13.5983   19.8419 C   0  0  0  0  0  0  0  0  0  0  0  0
    8.5592  -14.3129   20.9405 C   0  0  2  0  0  0  0  0  0  0  0  0
    8.9108  -15.0634   19.7779 N   0  0  0  0  0  0  0  0  0  0  0  0
    7.7943  -15.1878   21.8995 C   0  0  0  0  0  0  0  0  0  0  0  0
    7.3459  -16.3066   21.5382 O   0  0  0  0  0  0  0  0  0  0  0  0
    7.5508  -14.7887   23.2383 N   0  0  0  0  0  0  0  0  0  0  0  0
    6.8217  -15.6354   24.1184 C   0  0  0  0  0  0  0  0  0  0  0  0
    7.6491  -16.6278   24.8237 C   0  0  0  0  0  0  0  0  0  0  0  0
    7.0853  -17.4398   25.5979 O   0  0  0  0  0  0  0  0  0  0  0  0
   12.1723  -17.4286   22.3893 C   0  0  0  0  0  0  0  0  0  0  0  0
   10.9254  -17.9174   23.0820 C   0  0  1  0  0  0  0  0  0  0  0  0
   10.6069  -19.3307   22.5899 C   0  0  0  0  0  0  0  0  0  0  0  0
   11.1275  -17.8797   24.5508 C   0  0  0  0  0  0  0  0  0  0  0  0
    9.8554  -17.7748   25.3075 C   0  0  2  0  0  0  0  0  0  0  0  0
    9.0536  -16.7139   24.6731 N   0  0  0  0  0  0  0  0  0  0  0  0
   10.0831  -17.4149   26.7092 C   0  0  0  0  0  0  0  0  0  0  0  0
   10.6394  -18.2441   27.4703 O   0  0  0  0  0  0  0  0  0  0  0  0
    9.7254  -16.2070   27.2615 O   0  0  0  0  0  0  0  0  0  0  0  0
  2  1  1  6
  3  2  1  0
  4  5  1  6
  4  2  1  0
  6  4  1  0
  6  7  2  0
  8  6  1  0
  9  8  1  0
  9 10  1  0
 10 17  1  0
 10 11  2  0
 13 15  1  0
 13 12  1  6
 14 13  1  0
 16 15  1  6
 16 18  1  0
 17 16  1  0
 18 20  1  0
 19 18  2  0
M  END
$$$$
