VGL.pdb
     RDKit          3D

 20 19  0  0  1  0  0  0  0  0999 V2000
    7.9406  -12.0863   18.9730 C   0  0  0  0  0  0  0  0  0  0  0  0
    8.0708  -13.1511   20.0337 C   0  0  1  0  0  0  0  0  0  0  0  0
    6.6930  -13.7556   20.2397 C   0  0  0  0  0  0  0  0  0  0  0  0
    8.9832  -14.2346   19.5244 C   0  0  2  0  0  0  0  0  0  0  0  0
    8.6439  -14.7059   18.2200 N   0  0  0  0  0  0  0  0  0  0  0  0
    8.9023  -15.3691   20.5127 C   0  0  0  0  0  0  0  0  0  0  0  0
    8.6628  -16.5440   20.1315 O   0  0  0  0  0  0  0  0  0  0  0  0
    9.0915  -15.1598   21.9025 N   0  0  0  0  0  0  0  0  0  0  0  0
    9.4154  -16.2511   22.7551 C   0  0  0  0  0  0  0  0  0  0  0  0
    9.5592  -15.8858   24.1740 C   0  0  0  0  0  0  0  0  0  0  0  0
   10.6379  -16.1545   24.7578 O   0  0  0  0  0  0  0  0  0  0  0  0
    5.9328  -12.3393   26.3599 C   0  0  0  0  0  0  0  0  0  0  0  0
    7.2043  -13.0164   25.9143 C   0  0  1  0  0  0  0  0  0  0  0  0
    8.3538  -12.0095   25.9876 C   0  0  0  0  0  0  0  0  0  0  0  0
    7.4584  -14.2033   26.7666 C   0  0  0  0  0  0  0  0  0  0  0  0
    8.6663  -14.9618   26.3571 C   0  0  2  0  0  0  0  0  0  0  0  0
    8.5395  -15.2446   24.9167 N   0  0  0  0  0  0  0  0  0  0  0  0
    8.7810  -16.2333   27.0757 C   0  0  0  0  0  0  0  0  0  0  0  0
    8.3027  -17.2726   26.5587 O   0  0  0  0  0  0  0  0  0  0  0  0
    9.3901  -16.3725   28.3012 O   0  0  0  0  0  0  0  0  0  0  0  0
  2  1  1  6
  3  2  1  0
  4  5  1  6
  4  2  1  0
  6  4  1  0
  6  7  2  0
  8  6  1  0
  9  8  1  0
  9 10  1  0
 10 17  1  0
 10 11  2  0
 13 15  1  0
 13 12  1  1
 14 13  1  0
 16 15  1  1
 16 18  1  0
 17 16  1  0
 18 20  1  0
 19 18  2  0
M  END
$$$$
