SNY.pdb
     RDKit          3D

 27 27  0  0  1  0  0  0  0  0999 V2000
    6.9513  -15.8407   20.0356 O   0  0  0  0  0  0  0  0  0  0  0  0
    7.5896  -16.7396   20.8732 C   0  0  0  0  0  0  0  0  0  0  0  0
    7.3515  -16.3247   22.3124 C   0  0  2  0  0  0  0  0  0  0  0  0
    7.8918  -15.0138   22.4971 N   0  0  0  0  0  0  0  0  0  0  0  0
    7.9770  -17.3347   23.2027 C   0  0  0  0  0  0  0  0  0  0  0  0
    7.8380  -18.5614   22.9743 O   0  0  0  0  0  0  0  0  0  0  0  0
   12.9958  -17.0514   22.4474 N   0  0  0  0  0  0  0  0  0  0  0  0
   12.2092  -16.0815   23.1020 C   0  0  0  0  0  0  0  0  0  0  0  0
   12.7949  -15.1182   23.6517 O   0  0  0  0  0  0  0  0  0  0  0  0
   10.7545  -16.1355   23.1758 C   0  0  0  0  0  0  0  0  0  0  0  0
   10.1867  -16.9007   24.3298 C   0  0  2  0  0  0  0  0  0  0  0  0
    8.7620  -16.9765   24.3540 N   0  0  0  0  0  0  0  0  0  0  0  0
   10.7504  -16.3810   25.6156 C   0  0  0  0  0  0  0  0  0  0  0  0
   11.9923  -16.4055   25.8125 O   0  0  0  0  0  0  0  0  0  0  0  0
    6.3453  -11.9477   24.1716 O   0  0  0  0  0  0  0  0  0  0  0  0
    7.1124  -12.5111   25.1991 C   0  0  0  0  0  0  0  0  0  0  0  0
    8.4786  -12.6516   25.0838 C   0  0  0  0  0  0  0  0  0  0  0  0
    9.2384  -13.2061   26.0933 C   0  0  0  0  0  0  0  0  0  0  0  0
    8.6665  -13.6517   27.2785 C   0  0  0  0  0  0  0  0  0  0  0  0
    9.4860  -14.2384   28.3407 C   0  0  0  0  0  0  0  0  0  0  0  0
   10.4870  -15.2546   27.8631 C   0  0  2  0  0  0  0  0  0  0  0  0
    9.9459  -15.8481   26.6549 N   0  0  0  0  0  0  0  0  0  0  0  0
   10.8152  -16.2825   28.8493 C   0  0  0  0  0  0  0  0  0  0  0  0
   10.6176  -17.6395   28.6502 O   0  0  0  0  0  0  0  0  0  0  0  0
    7.2988  -13.5022   27.3737 C   0  0  0  0  0  0  0  0  0  0  0  0
    6.5342  -12.9501   26.3710 C   0  0  0  0  0  0  0  0  0  0  0  0
   11.3075  -15.9318   29.9505 O   0  0  0  0  0  0  0  0  0  0  0  0
  1  2  1  0
  3  2  1  0
  3  4  1  6
  5  3  1  0
  5  6  2  0
  7  8  1  0
  8 10  1  0
  8  9  2  0
 11 10  1  6
 11 12  1  0
 12  5  1  0
 13 11  1  0
 13 22  1  0
 14 13  2  0
 15 16  1  0
 16 26  2  0
 17 18  2  0
 17 16  1  0
 18 19  1  0
 19 20  1  0
 19 25  2  0
 21 20  1  1
 21 22  1  0
 21 23  1  0
 23 27  2  0
 23 24  1  0
 26 25  1  0
M  END
$$$$
