SNY.pdb
     RDKit          3D

 27 27  0  0  1  0  0  0  0  0999 V2000
    8.5843  -18.5117   18.5104 O   0  0  0  0  0  0  0  0  0  0  0  0
    9.3486  -19.3816   19.2695 C   0  0  0  0  0  0  0  0  0  0  0  0
    9.1174  -19.0850   20.7388 C   0  0  2  0  0  0  0  0  0  0  0  0
    7.7318  -19.2906   21.0258 N   0  0  0  0  0  0  0  0  0  0  0  0
    9.5610  -17.6953   21.0137 C   0  0  0  0  0  0  0  0  0  0  0  0
   10.7603  -17.3626   20.8476 O   0  0  0  0  0  0  0  0  0  0  0  0
    6.3240  -14.4112   19.8296 N   0  0  0  0  0  0  0  0  0  0  0  0
    7.6968  -14.3066   20.1332 C   0  0  0  0  0  0  0  0  0  0  0  0
    8.5112  -14.2625   19.1803 O   0  0  0  0  0  0  0  0  0  0  0  0
    8.2225  -14.2469   21.4913 C   0  0  0  0  0  0  0  0  0  0  0  0
    9.1088  -15.3818   21.8994 C   0  0  2  0  0  0  0  0  0  0  0  0
    8.6641  -16.6698   21.4761 N   0  0  0  0  0  0  0  0  0  0  0  0
    9.3671  -15.3252   23.3730 C   0  0  0  0  0  0  0  0  0  0  0  0
    9.8944  -14.3020   23.8795 O   0  0  0  0  0  0  0  0  0  0  0  0
    6.4861  -10.6999   27.1258 O   0  0  0  0  0  0  0  0  0  0  0  0
    6.8396  -12.0417   26.9354 C   0  0  0  0  0  0  0  0  0  0  0  0
    8.1584  -12.4392   26.8876 C   0  0  0  0  0  0  0  0  0  0  0  0
    8.5114  -13.7599   26.7002 C   0  0  0  0  0  0  0  0  0  0  0  0
    7.5565  -14.7579   26.5500 C   0  0  0  0  0  0  0  0  0  0  0  0
    7.9467  -16.1551   26.3515 C   0  0  0  0  0  0  0  0  0  0  0  0
    9.2839  -16.3381   25.6874 C   0  0  2  0  0  0  0  0  0  0  0  0
    9.0445  -16.3860   24.2573 N   0  0  0  0  0  0  0  0  0  0  0  0
   10.0191  -17.5197   26.1347 C   0  0  0  0  0  0  0  0  0  0  0  0
   10.6622  -17.6157   27.3583 O   0  0  0  0  0  0  0  0  0  0  0  0
    6.2434  -14.3392   26.6010 C   0  0  0  0  0  0  0  0  0  0  0  0
    5.8835  -13.0238   26.7875 C   0  0  0  0  0  0  0  0  0  0  0  0
   10.0818  -18.5187   25.3758 O   0  0  0  0  0  0  0  0  0  0  0  0
  1  2  1  0
  3  2  1  0
  3  4  1  6
  5  3  1  0
  5  6  2  0
  7  8  1  0
  8 10  1  0
  8  9  2  0
 11 10  1  1
 11 12  1  0
 12  5  1  0
 13 11  1  0
 13 22  1  0
 14 13  2  0
 15 16  1  0
 16 26  2  0
 17 18  2  0
 17 16  1  0
 18 19  1  0
 19 20  1  0
 19 25  2  0
 21 20  1  1
 21 22  1  0
 21 23  1  0
 23 27  2  0
 23 24  1  0
 26 25  1  0
M  END
$$$$
