SNY.pdb
     RDKit          3D

 27 27  0  0  1  0  0  0  0  0999 V2000
    6.1855  -18.7999   21.9500 O   0  0  0  0  0  0  0  0  0  0  0  0
    5.6921  -17.6123   21.4372 C   0  0  0  0  0  0  0  0  0  0  0  0
    6.3776  -17.3252   20.1151 C   0  0  2  0  0  0  0  0  0  0  0  0
    5.9084  -18.2715   19.1513 N   0  0  0  0  0  0  0  0  0  0  0  0
    7.8460  -17.3954   20.3217 C   0  0  0  0  0  0  0  0  0  0  0  0
    8.5654  -18.0912   19.5636 O   0  0  0  0  0  0  0  0  0  0  0  0
   10.9027  -12.7116   19.8021 N   0  0  0  0  0  0  0  0  0  0  0  0
   10.8454  -14.1180   19.8839 C   0  0  0  0  0  0  0  0  0  0  0  0
   11.9092  -14.7631   19.7248 O   0  0  0  0  0  0  0  0  0  0  0  0
    9.6202  -14.8638   20.1430 C   0  0  0  0  0  0  0  0  0  0  0  0
    9.7182  -15.9434   21.1748 C   0  0  2  0  0  0  0  0  0  0  0  0
    8.5173  -16.6866   21.3785 N   0  0  0  0  0  0  0  0  0  0  0  0
   10.2639  -15.3834   22.4514 C   0  0  0  0  0  0  0  0  0  0  0  0
   10.5000  -14.1519   22.5470 O   0  0  0  0  0  0  0  0  0  0  0  0
    6.4965  -10.8903   26.9667 O   0  0  0  0  0  0  0  0  0  0  0  0
    6.9830  -12.0779   26.4060 C   0  0  0  0  0  0  0  0  0  0  0  0
    7.8508  -12.8972   27.0954 C   0  0  0  0  0  0  0  0  0  0  0  0
    8.3327  -14.0681   26.5472 C   0  0  0  0  0  0  0  0  0  0  0  0
    7.9687  -14.4826   25.2720 C   0  0  0  0  0  0  0  0  0  0  0  0
    8.4889  -15.7277   24.7035 C   0  0  0  0  0  0  0  0  0  0  0  0
    9.9661  -15.9310   24.9011 C   0  0  2  0  0  0  0  0  0  0  0  0
   10.5391  -16.1804   23.5918 N   0  0  0  0  0  0  0  0  0  0  0  0
   10.3043  -17.0049   25.8334 C   0  0  0  0  0  0  0  0  0  0  0  0
   10.7787  -18.2477   25.4457 O   0  0  0  0  0  0  0  0  0  0  0  0
    7.1000  -13.6489   24.5994 C   0  0  0  0  0  0  0  0  0  0  0  0
    6.6151  -12.4795   25.1396 C   0  0  0  0  0  0  0  0  0  0  0  0
   10.1620  -16.8060   27.0656 O   0  0  0  0  0  0  0  0  0  0  0  0
  1  2  1  0
  3  2  1  0
  3  4  1  6
  5  3  1  0
  5  6  2  0
  7  8  1  0
  8 10  1  0
  8  9  2  0
 11 10  1  6
 11 12  1  0
 12  5  1  0
 13 11  1  0
 13 22  1  0
 14 13  2  0
 15 16  1  0
 16 26  2  0
 17 18  2  0
 17 16  1  0
 18 19  1  0
 19 20  1  0
 19 25  2  0
 21 20  1  6
 21 22  1  0
 21 23  1  0
 23 27  2  0
 23 24  1  0
 26 25  1  0
M  END
$$$$
