SNY.pdb
     RDKit          3D

 27 27  0  0  1  0  0  0  0  0999 V2000
    7.3220  -15.2581   18.7168 O   0  0  0  0  0  0  0  0  0  0  0  0
    8.3883  -15.6667   17.9339 C   0  0  0  0  0  0  0  0  0  0  0  0
    8.5491  -17.1689   18.0675 C   0  0  2  0  0  0  0  0  0  0  0  0
    7.3356  -17.7904   17.6365 N   0  0  0  0  0  0  0  0  0  0  0  0
    8.8853  -17.4822   19.4790 C   0  0  0  0  0  0  0  0  0  0  0  0
    7.9800  -17.7439   20.3086 O   0  0  0  0  0  0  0  0  0  0  0  0
   13.3526  -19.3268   19.6836 N   0  0  0  0  0  0  0  0  0  0  0  0
   12.3406  -19.4309   20.6596 C   0  0  0  0  0  0  0  0  0  0  0  0
   11.7460  -20.5287   20.7798 O   0  0  0  0  0  0  0  0  0  0  0  0
   11.9467  -18.3352   21.5363 C   0  0  0  0  0  0  0  0  0  0  0  0
   10.5668  -17.7948   21.3274 C   0  0  2  0  0  0  0  0  0  0  0  0
   10.2376  -17.5043   19.9697 N   0  0  0  0  0  0  0  0  0  0  0  0
   10.3326  -16.6252   22.2321 C   0  0  0  0  0  0  0  0  0  0  0  0
   10.9769  -15.5590   22.0601 O   0  0  0  0  0  0  0  0  0  0  0  0
    6.0480  -10.8649   27.4143 O   0  0  0  0  0  0  0  0  0  0  0  0
    6.4719  -11.8909   26.5605 C   0  0  0  0  0  0  0  0  0  0  0  0
    6.1108  -13.2033   26.7772 C   0  0  0  0  0  0  0  0  0  0  0  0
    6.5260  -14.2176   25.9388 C   0  0  0  0  0  0  0  0  0  0  0  0
    7.3294  -13.9694   24.8328 C   0  0  0  0  0  0  0  0  0  0  0  0
    7.7623  -15.0564   23.9524 C   0  0  0  0  0  0  0  0  0  0  0  0
    9.1728  -15.5223   24.1886 C   0  0  2  0  0  0  0  0  0  0  0  0
    9.4022  -16.6477   23.3022 N   0  0  0  0  0  0  0  0  0  0  0  0
    9.4614  -15.8816   25.5759 C   0  0  0  0  0  0  0  0  0  0  0  0
    9.4979  -17.1838   26.0482 O   0  0  0  0  0  0  0  0  0  0  0  0
    7.6792  -12.6502   24.6340 C   0  0  0  0  0  0  0  0  0  0  0  0
    7.2690  -11.6331   25.4658 C   0  0  0  0  0  0  0  0  0  0  0  0
    9.6928  -14.9661   26.4043 O   0  0  0  0  0  0  0  0  0  0  0  0
  1  2  1  0
  3  2  1  0
  3  4  1  1
  5  3  1  0
  5  6  2  0
  7  8  1  0
  8 10  1  0
  8  9  2  0
 11 10  1  6
 11 12  1  0
 12  5  1  0
 13 11  1  0
 13 22  1  0
 14 13  2  0
 15 16  1  0
 16 26  2  0
 17 18  2  0
 17 16  1  0
 18 19  1  0
 19 20  1  0
 19 25  2  0
 21 20  1  1
 21 22  1  0
 21 23  1  0
 23 27  2  0
 23 24  1  0
 26 25  1  0
M  END
$$$$
