SNY.pdb
     RDKit          3D

 27 27  0  0  1  0  0  0  0  0999 V2000
    7.7646  -13.7731   17.5746 O   0  0  0  0  0  0  0  0  0  0  0  0
    7.0282  -13.2164   18.6065 C   0  0  0  0  0  0  0  0  0  0  0  0
    7.8843  -13.1807   19.8579 C   0  0  2  0  0  0  0  0  0  0  0  0
    9.1325  -12.5646   19.5306 N   0  0  0  0  0  0  0  0  0  0  0  0
    8.0428  -14.5690   20.3591 C   0  0  0  0  0  0  0  0  0  0  0  0
    7.0450  -15.2281   20.7418 O   0  0  0  0  0  0  0  0  0  0  0  0
    9.6229  -19.7891   20.6733 N   0  0  0  0  0  0  0  0  0  0  0  0
   10.5956  -18.7694   20.7164 C   0  0  0  0  0  0  0  0  0  0  0  0
   11.7011  -19.0292   21.2490 O   0  0  0  0  0  0  0  0  0  0  0  0
   10.3888  -17.4312   20.1772 C   0  0  0  0  0  0  0  0  0  0  0  0
    9.4872  -16.5388   20.9714 C   0  0  2  0  0  0  0  0  0  0  0  0
    9.3198  -15.2274   20.4346 N   0  0  0  0  0  0  0  0  0  0  0  0
    9.9219  -16.5159   22.4038 C   0  0  0  0  0  0  0  0  0  0  0  0
    9.9877  -17.5881   23.0576 O   0  0  0  0  0  0  0  0  0  0  0  0
   10.3444  -15.1057   30.9343 O   0  0  0  0  0  0  0  0  0  0  0  0
   10.1216  -15.1300   29.5518 C   0  0  0  0  0  0  0  0  0  0  0  0
   10.0524  -13.9685   28.8130 C   0  0  0  0  0  0  0  0  0  0  0  0
    9.8331  -13.9874   27.4508 C   0  0  0  0  0  0  0  0  0  0  0  0
    9.6706  -15.1777   26.7527 C   0  0  0  0  0  0  0  0  0  0  0  0
    9.4381  -15.1816   25.3071 C   0  0  0  0  0  0  0  0  0  0  0  0
   10.6881  -15.2902   24.4774 C   0  0  2  0  0  0  0  0  0  0  0  0
   10.2735  -15.3242   23.0876 N   0  0  0  0  0  0  0  0  0  0  0  0
   11.5250  -16.4439   24.8022 C   0  0  0  0  0  0  0  0  0  0  0  0
   11.0610  -17.7485   24.8542 O   0  0  0  0  0  0  0  0  0  0  0  0
    9.7432  -16.3278   27.5103 C   0  0  0  0  0  0  0  0  0  0  0  0
    9.9617  -16.3170   28.8692 C   0  0  0  0  0  0  0  0  0  0  0  0
   12.7422  -16.2594   25.0521 O   0  0  0  0  0  0  0  0  0  0  0  0
  1  2  1  0
  3  2  1  0
  3  4  1  6
  5  3  1  0
  5  6  2  0
  7  8  1  0
  8 10  1  0
  8  9  2  0
 11 10  1  6
 11 12  1  0
 12  5  1  0
 13 11  1  0
 13 22  1  0
 14 13  2  0
 15 16  1  0
 16 26  2  0
 17 18  2  0
 17 16  1  0
 18 19  1  0
 19 20  1  0
 19 25  2  0
 21 20  1  1
 21 22  1  0
 21 23  1  0
 23 27  2  0
 23 24  1  0
 26 25  1  0
M  END
$$$$
