SNY.pdb
     RDKit          3D

 27 27  0  0  1  0  0  0  0  0999 V2000
   14.4193  -18.8837   20.1504 O   0  0  0  0  0  0  0  0  0  0  0  0
   13.4318  -18.9999   19.1868 C   0  0  0  0  0  0  0  0  0  0  0  0
   13.1221  -17.6229   18.6318 C   0  0  2  0  0  0  0  0  0  0  0  0
   14.3570  -16.9286   18.4383 N   0  0  0  0  0  0  0  0  0  0  0  0
   12.2142  -16.9275   19.5783 C   0  0  0  0  0  0  0  0  0  0  0  0
   12.5702  -15.8624   20.1395 O   0  0  0  0  0  0  0  0  0  0  0  0
    6.8785  -18.8648   21.0590 N   0  0  0  0  0  0  0  0  0  0  0  0
    8.1763  -18.4420   20.7056 C   0  0  0  0  0  0  0  0  0  0  0  0
    9.0456  -19.3198   20.4894 O   0  0  0  0  0  0  0  0  0  0  0  0
    8.5641  -17.0428   20.5774 C   0  0  0  0  0  0  0  0  0  0  0  0
   10.0150  -16.7446   20.7914 C   0  0  2  0  0  0  0  0  0  0  0  0
   10.9020  -17.4212   19.9017 N   0  0  0  0  0  0  0  0  0  0  0  0
   10.3757  -16.9616   22.2281 C   0  0  0  0  0  0  0  0  0  0  0  0
   10.8850  -18.0530   22.5901 O   0  0  0  0  0  0  0  0  0  0  0  0
   10.8481  -15.2175   31.0106 O   0  0  0  0  0  0  0  0  0  0  0  0
   10.6870  -15.1394   29.6215 C   0  0  0  0  0  0  0  0  0  0  0  0
   11.5824  -15.7330   28.7582 C   0  0  0  0  0  0  0  0  0  0  0  0
   11.4278  -15.6588   27.3891 C   0  0  0  0  0  0  0  0  0  0  0  0
   10.3620  -14.9820   26.8091 C   0  0  0  0  0  0  0  0  0  0  0  0
   10.2116  -14.9115   25.3543 C   0  0  0  0  0  0  0  0  0  0  0  0
   10.4058  -16.2241   24.6457 C   0  0  2  0  0  0  0  0  0  0  0  0
   10.1714  -15.9833   23.2343 N   0  0  0  0  0  0  0  0  0  0  0  0
    9.5545  -17.3045   25.1406 C   0  0  0  0  0  0  0  0  0  0  0  0
    8.1962  -17.4010   24.8842 O   0  0  0  0  0  0  0  0  0  0  0  0
    9.4779  -14.3953   27.6901 C   0  0  0  0  0  0  0  0  0  0  0  0
    9.6254  -14.4651   29.0569 C   0  0  0  0  0  0  0  0  0  0  0  0
   10.0695  -18.2096   25.8432 O   0  0  0  0  0  0  0  0  0  0  0  0
  1  2  1  0
  3  2  1  0
  3  4  1  1
  5  3  1  0
  5  6  2  0
  7  8  1  0
  8 10  1  0
  8  9  2  0
 11 10  1  1
 11 12  1  0
 12  5  1  0
 13 11  1  0
 13 22  1  0
 14 13  2  0
 15 16  1  0
 16 26  2  0
 17 18  2  0
 17 16  1  0
 18 19  1  0
 19 20  1  0
 19 25  2  0
 21 20  1  1
 21 22  1  0
 21 23  1  0
 23 27  2  0
 23 24  1  0
 26 25  1  0
M  END
$$$$
