SNY.pdb
     RDKit          3D

 27 27  0  0  1  0  0  0  0  0999 V2000
    9.5108  -18.1750   18.5539 O   0  0  0  0  0  0  0  0  0  0  0  0
    8.6933  -19.1852   18.0763 C   0  0  0  0  0  0  0  0  0  0  0  0
    7.3016  -18.6261   17.8507 C   0  0  2  0  0  0  0  0  0  0  0  0
    7.3669  -17.6762   16.7839 N   0  0  0  0  0  0  0  0  0  0  0  0
    6.8225  -18.0295   19.1227 C   0  0  0  0  0  0  0  0  0  0  0  0
    6.6039  -16.7961   19.2077 O   0  0  0  0  0  0  0  0  0  0  0  0
    3.3331  -18.7152   21.1882 N   0  0  0  0  0  0  0  0  0  0  0  0
    4.0363  -19.3568   22.2283 C   0  0  0  0  0  0  0  0  0  0  0  0
    3.3973  -20.1218   22.9897 O   0  0  0  0  0  0  0  0  0  0  0  0
    5.4632  -19.1812   22.4681 C   0  0  0  0  0  0  0  0  0  0  0  0
    6.1695  -18.2375   21.5459 C   0  0  2  0  0  0  0  0  0  0  0  0
    6.5853  -18.8109   20.3073 N   0  0  0  0  0  0  0  0  0  0  0  0
    7.2952  -17.5636   22.2670 C   0  0  0  0  0  0  0  0  0  0  0  0
    8.4391  -18.0862   22.2741 O   0  0  0  0  0  0  0  0  0  0  0  0
    8.0923  -12.6682   17.8626 O   0  0  0  0  0  0  0  0  0  0  0  0
    8.0845  -13.0370   19.2136 C   0  0  0  0  0  0  0  0  0  0  0  0
    6.9121  -13.3465   19.8688 C   0  0  0  0  0  0  0  0  0  0  0  0
    6.8993  -13.7104   21.1997 C   0  0  0  0  0  0  0  0  0  0  0  0
    8.0671  -13.7839   21.9490 C   0  0  0  0  0  0  0  0  0  0  0  0
    8.0375  -14.1713   23.3608 C   0  0  0  0  0  0  0  0  0  0  0  0
    8.2440  -15.6409   23.6059 C   0  0  2  0  0  0  0  0  0  0  0  0
    7.1454  -16.3370   22.9629 N   0  0  0  0  0  0  0  0  0  0  0  0
    8.3395  -16.0058   25.0182 C   0  0  0  0  0  0  0  0  0  0  0  0
    7.4377  -16.8329   25.6682 O   0  0  0  0  0  0  0  0  0  0  0  0
    9.2287  -13.4705   21.2749 C   0  0  0  0  0  0  0  0  0  0  0  0
    9.2494  -13.1067   19.9475 C   0  0  0  0  0  0  0  0  0  0  0  0
    9.2916  -15.5504   25.6995 O   0  0  0  0  0  0  0  0  0  0  0  0
  1  2  1  0
  3  2  1  0
  3  4  1  6
  5  3  1  0
  5  6  2  0
  7  8  1  0
  8 10  1  0
  8  9  2  0
 11 10  1  1
 11 12  1  0
 12  5  1  0
 13 11  1  0
 13 22  1  0
 14 13  2  0
 15 16  1  0
 16 26  2  0
 17 18  2  0
 17 16  1  0
 18 19  1  0
 19 20  1  0
 19 25  2  0
 21 20  1  1
 21 22  1  0
 21 23  1  0
 23 27  2  0
 23 24  1  0
 26 25  1  0
M  END
$$$$
