SNY.pdb
     RDKit          3D

 27 27  0  0  1  0  0  0  0  0999 V2000
    7.5546  -17.4881   15.1887 O   0  0  0  0  0  0  0  0  0  0  0  0
    7.8047  -18.5727   16.0121 C   0  0  0  0  0  0  0  0  0  0  0  0
    6.6578  -18.7197   16.9936 C   0  0  2  0  0  0  0  0  0  0  0  0
    6.9291  -17.8929   18.1282 N   0  0  0  0  0  0  0  0  0  0  0  0
    6.5225  -20.1549   17.3475 C   0  0  0  0  0  0  0  0  0  0  0  0
    5.9389  -20.5003   18.4041 O   0  0  0  0  0  0  0  0  0  0  0  0
    6.1966  -23.4833   13.3012 N   0  0  0  0  0  0  0  0  0  0  0  0
    5.9668  -23.2343   14.6697 C   0  0  0  0  0  0  0  0  0  0  0  0
    4.8711  -22.7218   15.0014 O   0  0  0  0  0  0  0  0  0  0  0  0
    6.9303  -23.5387   15.7201 C   0  0  0  0  0  0  0  0  0  0  0  0
    6.9561  -22.5907   16.8780 C   0  0  2  0  0  0  0  0  0  0  0  0
    7.0403  -21.2120   16.5201 N   0  0  0  0  0  0  0  0  0  0  0  0
    8.0252  -22.9934   17.8455 C   0  0  0  0  0  0  0  0  0  0  0  0
    8.0084  -24.1416   18.3582 O   0  0  0  0  0  0  0  0  0  0  0  0
   15.9628  -23.5892   21.7236 O   0  0  0  0  0  0  0  0  0  0  0  0
   14.8503  -23.2919   20.9264 C   0  0  0  0  0  0  0  0  0  0  0  0
   14.2080  -24.2669   20.1939 C   0  0  0  0  0  0  0  0  0  0  0  0
   13.1116  -23.9788   19.4072 C   0  0  0  0  0  0  0  0  0  0  0  0
   12.5978  -22.6915   19.3121 C   0  0  0  0  0  0  0  0  0  0  0  0
   11.4337  -22.4012   18.4725 C   0  0  0  0  0  0  0  0  0  0  0  0
   10.1129  -22.5061   19.1846 C   0  0  2  0  0  0  0  0  0  0  0  0
    9.0855  -22.1339   18.2303 N   0  0  0  0  0  0  0  0  0  0  0  0
   10.0193  -21.6952   20.3973 C   0  0  0  0  0  0  0  0  0  0  0  0
   10.5118  -22.0867   21.6319 O   0  0  0  0  0  0  0  0  0  0  0  0
   13.2547  -21.7311   20.0525 C   0  0  0  0  0  0  0  0  0  0  0  0
   14.3488  -22.0108   20.8395 C   0  0  0  0  0  0  0  0  0  0  0  0
    9.4611  -20.5716   20.3344 O   0  0  0  0  0  0  0  0  0  0  0  0
  1  2  1  0
  3  2  1  0
  3  4  1  1
  5  3  1  0
  5  6  2  0
  7  8  1  0
  8 10  1  0
  8  9  2  0
 11 10  1  6
 11 12  1  0
 12  5  1  0
 13 11  1  0
 13 22  1  0
 14 13  2  0
 15 16  1  0
 16 26  2  0
 17 18  2  0
 17 16  1  0
 18 19  1  0
 19 20  1  0
 19 25  2  0
 21 20  1  6
 21 22  1  0
 21 23  1  0
 23 27  2  0
 23 24  1  0
 26 25  1  0
M  END
$$$$
