SNY.pdb
     RDKit          3D

 27 27  0  0  1  0  0  0  0  0999 V2000
    5.5513  -18.7119   23.2357 O   0  0  0  0  0  0  0  0  0  0  0  0
    4.9300  -17.9463   22.2637 C   0  0  0  0  0  0  0  0  0  0  0  0
    5.7006  -18.0814   20.9644 C   0  0  2  0  0  0  0  0  0  0  0  0
    5.7485  -19.4665   20.6127 N   0  0  0  0  0  0  0  0  0  0  0  0
    7.0489  -17.4897   21.1534 C   0  0  0  0  0  0  0  0  0  0  0  0
    8.0592  -18.2258   21.2702 O   0  0  0  0  0  0  0  0  0  0  0  0
    8.5993  -15.5816   18.5401 N   0  0  0  0  0  0  0  0  0  0  0  0
    8.6971  -14.3554   19.2290 C   0  0  0  0  0  0  0  0  0  0  0  0
    8.6558  -13.2960   18.5590 O   0  0  0  0  0  0  0  0  0  0  0  0
    8.8435  -14.2499   20.6754 C   0  0  0  0  0  0  0  0  0  0  0  0
    8.5574  -15.4958   21.4537 C   0  0  2  0  0  0  0  0  0  0  0  0
    7.2735  -16.0698   21.2128 N   0  0  0  0  0  0  0  0  0  0  0  0
    8.8102  -15.2588   22.9102 C   0  0  0  0  0  0  0  0  0  0  0  0
    8.4094  -14.1975   23.4528 O   0  0  0  0  0  0  0  0  0  0  0  0
    6.1131  -11.0559   27.3381 O   0  0  0  0  0  0  0  0  0  0  0  0
    6.6028  -12.3032   26.9310 C   0  0  0  0  0  0  0  0  0  0  0  0
    7.9482  -12.5141   26.7183 C   0  0  0  0  0  0  0  0  0  0  0  0
    8.4354  -13.7412   26.3173 C   0  0  0  0  0  0  0  0  0  0  0  0
    7.5959  -14.8281   26.1070 C   0  0  0  0  0  0  0  0  0  0  0  0
    8.1278  -16.1241   25.6810 C   0  0  0  0  0  0  0  0  0  0  0  0
    9.5470  -16.0799   25.1844 C   0  0  2  0  0  0  0  0  0  0  0  0
    9.4942  -16.1848   23.7384 N   0  0  0  0  0  0  0  0  0  0  0  0
   10.4135  -17.1111   25.7526 C   0  0  0  0  0  0  0  0  0  0  0  0
   10.9917  -18.1313   25.0144 O   0  0  0  0  0  0  0  0  0  0  0  0
    6.2540  -14.5961   26.3252 C   0  0  0  0  0  0  0  0  0  0  0  0
    5.7606  -13.3750   26.7253 C   0  0  0  0  0  0  0  0  0  0  0  0
   10.6597  -17.0859   26.9842 O   0  0  0  0  0  0  0  0  0  0  0  0
  1  2  1  0
  3  2  1  0
  3  4  1  1
  5  3  1  0
  5  6  2  0
  7  8  1  0
  8 10  1  0
  8  9  2  0
 11 10  1  6
 11 12  1  0
 12  5  1  0
 13 11  1  0
 13 22  1  0
 14 13  2  0
 15 16  1  0
 16 26  2  0
 17 18  2  0
 17 16  1  0
 18 19  1  0
 19 20  1  0
 19 25  2  0
 21 20  1  1
 21 22  1  0
 21 23  1  0
 23 27  2  0
 23 24  1  0
 26 25  1  0
M  END
$$$$
