DGS.pdb
     RDKit          3D

 19 18  0  0  1  0  0  0  0  0999 V2000
    9.9644  -18.8908   21.7335 N   0  0  0  0  0  0  0  0  0  0  0  0
   10.1901  -17.5374   21.3486 C   0  0  1  0  0  0  0  0  0  0  0  0
    9.8254  -17.3620   19.9044 C   0  0  0  0  0  0  0  0  0  0  0  0
   10.9247  -17.7698   18.9918 C   0  0  0  0  0  0  0  0  0  0  0  0
   12.0415  -18.2075   19.4099 O   0  0  0  0  0  0  0  0  0  0  0  0
    9.5548  -16.5474   22.2559 C   0  0  0  0  0  0  0  0  0  0  0  0
    9.8295  -15.3284   22.1210 O   0  0  0  0  0  0  0  0  0  0  0  0
   10.7976  -17.6970   17.6104 O   0  0  0  0  0  0  0  0  0  0  0  0
    8.6445  -16.9113   23.2752 N   0  0  0  0  0  0  0  0  0  0  0  0
    7.9711  -16.0372   24.1672 C   0  0  0  0  0  0  0  0  0  0  0  0
    8.7921  -15.3366   25.1570 C   0  0  0  0  0  0  0  0  0  0  0  0
   10.0470  -15.5970   25.2496 O   0  0  0  0  0  0  0  0  0  0  0  0
    7.5868  -12.0355   26.8744 O   0  0  0  0  0  0  0  0  0  0  0  0
    8.6169  -12.5091   27.6884 C   0  0  0  0  0  0  0  0  0  0  0  0
    9.2510  -13.6677   26.9838 C   0  0  2  0  0  0  0  0  0  0  0  0
    8.3524  -14.3492   26.0773 N   0  0  0  0  0  0  0  0  0  0  0  0
    9.7975  -14.5936   28.0145 C   0  0  0  0  0  0  0  0  0  0  0  0
    9.4394  -15.9126   28.0979 O   0  0  0  0  0  0  0  0  0  0  0  0
   10.6241  -14.1149   28.8331 O   0  0  0  0  0  0  0  0  0  0  0  0
  2  1  1  1
  2  3  1  0
  3  4  1  0
  4  5  2  0
  6  2  1  0
  6  7  2  0
  8  4  1  0
  9  6  1  0
 10 11  1  0
 10  9  1  0
 11 16  1  0
 12 11  2  0
 14 13  1  0
 15 14  1  1
 15 17  1  0
 16 15  1  0
 17 19  2  0
 17 18  1  0
M  END
$$$$
