DGS.pdb
     RDKit          3D

 19 18  0  0  1  0  0  0  0  0999 V2000
   -0.9482  -27.6288   29.4014 N   0  0  0  0  0  0  0  0  0  0  0  0
   -0.8376  -26.3632   28.7559 C   0  0  1  0  0  0  0  0  0  0  0  0
    0.2792  -26.4090   27.7558 C   0  0  0  0  0  0  0  0  0  0  0  0
    1.6111  -26.5289   28.4033 C   0  0  0  0  0  0  0  0  0  0  0  0
    2.1532  -27.6478   28.6635 O   0  0  0  0  0  0  0  0  0  0  0  0
   -2.1227  -25.8636   28.2028 C   0  0  0  0  0  0  0  0  0  0  0  0
   -2.3635  -26.0168   26.9787 O   0  0  0  0  0  0  0  0  0  0  0  0
    2.3535  -25.4128   28.7680 O   0  0  0  0  0  0  0  0  0  0  0  0
   -3.1014  -25.2180   28.9935 N   0  0  0  0  0  0  0  0  0  0  0  0
   -4.3265  -24.6603   28.5447 C   0  0  0  0  0  0  0  0  0  0  0  0
   -5.2442  -24.1607   29.5707 C   0  0  0  0  0  0  0  0  0  0  0  0
   -5.0140  -24.4048   30.8111 O   0  0  0  0  0  0  0  0  0  0  0  0
   -7.2459  -20.8357   29.4059 O   0  0  0  0  0  0  0  0  0  0  0  0
   -8.0808  -21.7300   30.0775 C   0  0  0  0  0  0  0  0  0  0  0  0
   -7.2594  -22.9283   30.4385 C   0  0  2  0  0  0  0  0  0  0  0  0
   -6.4209  -23.3960   29.3561 N   0  0  0  0  0  0  0  0  0  0  0  0
   -8.1821  -23.9946   30.9184 C   0  0  0  0  0  0  0  0  0  0  0  0
   -8.6887  -24.0264   32.1901 O   0  0  0  0  0  0  0  0  0  0  0  0
   -8.4933  -24.8945   30.0963 O   0  0  0  0  0  0  0  0  0  0  0  0
  2  1  1  6
  2  3  1  0
  3  4  1  0
  4  5  2  0
  6  2  1  0
  6  7  2  0
  8  4  1  0
  9  6  1  0
 10 11  1  0
 10  9  1  0
 11 16  1  0
 12 11  2  0
 14 13  1  0
 15 14  1  6
 15 17  1  0
 16 15  1  0
 17 19  2  0
 17 18  1  0
M  END
$$$$
