DGS.pdb
     RDKit          3D

 19 18  0  0  1  0  0  0  0  0999 V2000
   10.0413  -18.8980   20.7506 N   0  0  0  0  0  0  0  0  0  0  0  0
   10.8699  -17.8821   21.3094 C   0  0  1  0  0  0  0  0  0  0  0  0
   11.7091  -17.2712   20.2267 C   0  0  0  0  0  0  0  0  0  0  0  0
   12.9321  -18.0664   19.9450 C   0  0  0  0  0  0  0  0  0  0  0  0
   13.4235  -18.8931   20.7749 O   0  0  0  0  0  0  0  0  0  0  0  0
   10.1252  -16.8907   22.1275 C   0  0  0  0  0  0  0  0  0  0  0  0
    9.7383  -15.8215   21.5919 O   0  0  0  0  0  0  0  0  0  0  0  0
   13.6209  -17.9538   18.7440 O   0  0  0  0  0  0  0  0  0  0  0  0
    9.8244  -17.0920   23.4946 N   0  0  0  0  0  0  0  0  0  0  0  0
    9.0832  -16.2262   24.3398 C   0  0  0  0  0  0  0  0  0  0  0  0
    9.7670  -15.7130   25.5288 C   0  0  0  0  0  0  0  0  0  0  0  0
   10.9624  -16.0996   25.7983 O   0  0  0  0  0  0  0  0  0  0  0  0
    8.9457  -12.3170   27.4740 O   0  0  0  0  0  0  0  0  0  0  0  0
    9.3182  -13.2792   28.4139 C   0  0  0  0  0  0  0  0  0  0  0  0
    9.9631  -14.4079   27.6715 C   0  0  2  0  0  0  0  0  0  0  0  0
    9.2475  -14.7891   26.4731 N   0  0  0  0  0  0  0  0  0  0  0  0
   10.1119  -15.5545   28.6103 C   0  0  0  0  0  0  0  0  0  0  0  0
   10.8718  -15.4942   29.7477 O   0  0  0  0  0  0  0  0  0  0  0  0
    9.5000  -16.6147   28.3201 O   0  0  0  0  0  0  0  0  0  0  0  0
  2  1  1  6
  2  3  1  0
  3  4  1  0
  4  5  2  0
  6  2  1  0
  6  7  2  0
  8  4  1  0
  9  6  1  0
 10 11  1  0
 10  9  1  0
 11 16  1  0
 12 11  2  0
 14 13  1  0
 15 14  1  1
 15 17  1  0
 16 15  1  0
 17 19  2  0
 17 18  1  0
M  END
$$$$
