DGS.pdb
     RDKit          3D

 19 18  0  0  1  0  0  0  0  0999 V2000
   10.2461  -17.7542   21.1747 N   0  0  0  0  0  0  0  0  0  0  0  0
    9.5367  -16.9078   20.2741 C   0  0  1  0  0  0  0  0  0  0  0  0
    9.0942  -17.7055   19.0835 C   0  0  0  0  0  0  0  0  0  0  0  0
   10.2374  -18.3188   18.3594 C   0  0  0  0  0  0  0  0  0  0  0  0
   11.1618  -17.6325   17.8226 O   0  0  0  0  0  0  0  0  0  0  0  0
    8.4464  -16.1329   20.9203 C   0  0  0  0  0  0  0  0  0  0  0  0
    7.3004  -16.1410   20.4044 O   0  0  0  0  0  0  0  0  0  0  0  0
   10.3674  -19.6951   18.2233 O   0  0  0  0  0  0  0  0  0  0  0  0
    8.6344  -15.3786   22.1017 N   0  0  0  0  0  0  0  0  0  0  0  0
    7.6363  -14.6958   22.8439 C   0  0  0  0  0  0  0  0  0  0  0  0
    8.0526  -14.0774   24.1044 C   0  0  0  0  0  0  0  0  0  0  0  0
    9.2446  -14.2627   24.5470 O   0  0  0  0  0  0  0  0  0  0  0  0
    5.5305  -12.4703   26.8514 O   0  0  0  0  0  0  0  0  0  0  0  0
    6.7626  -11.8154   26.8794 C   0  0  0  0  0  0  0  0  0  0  0  0
    7.7559  -12.6951   26.1863 C   0  0  2  0  0  0  0  0  0  0  0  0
    7.2617  -13.2510   24.9452 N   0  0  0  0  0  0  0  0  0  0  0  0
    8.1731  -13.7619   27.1382 C   0  0  0  0  0  0  0  0  0  0  0  0
    8.9312  -13.5144   28.2512 O   0  0  0  0  0  0  0  0  0  0  0  0
    7.7976  -14.9352   26.8831 O   0  0  0  0  0  0  0  0  0  0  0  0
  2  1  1  1
  2  3  1  0
  3  4  1  0
  4  5  2  0
  6  2  1  0
  6  7  2  0
  8  4  1  0
  9  6  1  0
 10 11  1  0
 10  9  1  0
 11 16  1  0
 12 11  2  0
 14 13  1  0
 15 14  1  1
 15 17  1  0
 16 15  1  0
 17 19  2  0
 17 18  1  0
M  END
$$$$
