DGS.pdb
     RDKit          3D

 19 18  0  0  1  0  0  0  0  0999 V2000
   10.7340  -16.7498   21.0960 N   0  0  0  0  0  0  0  0  0  0  0  0
    9.6127  -16.6078   20.2281 C   0  0  1  0  0  0  0  0  0  0  0  0
    9.2141  -17.9552   19.7033 C   0  0  0  0  0  0  0  0  0  0  0  0
   10.2695  -18.5636   18.8528 C   0  0  0  0  0  0  0  0  0  0  0  0
   11.0255  -19.5011   19.2568 O   0  0  0  0  0  0  0  0  0  0  0  0
    8.4920  -15.8374   20.8260 C   0  0  0  0  0  0  0  0  0  0  0  0
    7.4386  -15.6722   20.1605 O   0  0  0  0  0  0  0  0  0  0  0  0
   10.4971  -18.1402   17.5495 O   0  0  0  0  0  0  0  0  0  0  0  0
    8.5503  -15.2749   22.1222 N   0  0  0  0  0  0  0  0  0  0  0  0
    7.5017  -14.6119   22.8107 C   0  0  0  0  0  0  0  0  0  0  0  0
    7.8169  -14.0636   24.1315 C   0  0  0  0  0  0  0  0  0  0  0  0
    8.9675  -14.2834   24.6595 O   0  0  0  0  0  0  0  0  0  0  0  0
    5.1985  -12.3289   26.7568 O   0  0  0  0  0  0  0  0  0  0  0  0
    6.4162  -11.6485   26.7103 C   0  0  0  0  0  0  0  0  0  0  0  0
    7.4317  -12.5822   26.1290 C   0  0  2  0  0  0  0  0  0  0  0  0
    6.9646  -13.2739   24.9472 N   0  0  0  0  0  0  0  0  0  0  0  0
    7.8477  -13.5357   27.1949 C   0  0  0  0  0  0  0  0  0  0  0  0
    8.5663  -13.1562   28.2969 O   0  0  0  0  0  0  0  0  0  0  0  0
    7.5095  -14.7388   27.0501 O   0  0  0  0  0  0  0  0  0  0  0  0
  2  1  1  1
  2  3  1  0
  3  4  1  0
  4  5  2  0
  6  2  1  0
  6  7  2  0
  8  4  1  0
  9  6  1  0
 10 11  1  0
 10  9  1  0
 11 16  1  0
 12 11  2  0
 14 13  1  0
 15 14  1  1
 15 17  1  0
 16 15  1  0
 17 19  2  0
 17 18  1  0
M  END
$$$$
