DGS.pdb
     RDKit          3D

 19 18  0  0  1  0  0  0  0  0999 V2000
   10.4187  -19.9150   26.4485 N   0  0  0  0  0  0  0  0  0  0  0  0
    9.5025  -19.7349   27.5250 C   0  0  1  0  0  0  0  0  0  0  0  0
   10.2576  -19.3601   28.7655 C   0  0  0  0  0  0  0  0  0  0  0  0
   10.7615  -20.5495   29.4996 C   0  0  0  0  0  0  0  0  0  0  0  0
   10.8703  -20.5841   30.7647 O   0  0  0  0  0  0  0  0  0  0  0  0
    8.3789  -18.8182   27.2024 C   0  0  0  0  0  0  0  0  0  0  0  0
    7.5373  -18.5432   28.0945 O   0  0  0  0  0  0  0  0  0  0  0  0
   11.1489  -21.7095   28.8407 O   0  0  0  0  0  0  0  0  0  0  0  0
    8.2069  -18.2309   25.9275 N   0  0  0  0  0  0  0  0  0  0  0  0
    7.2236  -17.2783   25.5544 C   0  0  0  0  0  0  0  0  0  0  0  0
    7.5912  -15.8653   25.6675 C   0  0  0  0  0  0  0  0  0  0  0  0
    8.7329  -15.5365   26.1569 O   0  0  0  0  0  0  0  0  0  0  0  0
    6.7301  -13.2753   23.1270 O   0  0  0  0  0  0  0  0  0  0  0  0
    7.6140  -12.7641   24.0784 C   0  0  0  0  0  0  0  0  0  0  0  0
    7.2662  -13.3847   25.3955 C   0  0  2  0  0  0  0  0  0  0  0  0
    6.8020  -14.7503   25.2812 N   0  0  0  0  0  0  0  0  0  0  0  0
    6.2579  -12.5163   26.0647 C   0  0  0  0  0  0  0  0  0  0  0  0
    6.5198  -11.2285   26.4492 O   0  0  0  0  0  0  0  0  0  0  0  0
    5.1220  -13.0148   26.2738 O   0  0  0  0  0  0  0  0  0  0  0  0
  2  1  1  6
  2  3  1  0
  3  4  1  0
  4  5  2  0
  6  2  1  0
  6  7  2  0
  8  4  1  0
  9  6  1  0
 10 11  1  0
 10  9  1  0
 11 16  1  0
 12 11  2  0
 14 13  1  0
 15 14  1  6
 15 17  1  0
 16 15  1  0
 17 19  2  0
 17 18  1  0
M  END
$$$$
