DGS.pdb
     RDKit          3D

 19 18  0  0  1  0  0  0  0  0999 V2000
    9.0487  -18.0314   20.9220 N   0  0  0  0  0  0  0  0  0  0  0  0
    8.8302  -16.8136   20.2149 C   0  0  1  0  0  0  0  0  0  0  0  0
    8.5165  -17.1191   18.7803 C   0  0  0  0  0  0  0  0  0  0  0  0
    9.7234  -17.5206   18.0125 C   0  0  0  0  0  0  0  0  0  0  0  0
   10.8296  -16.9014   18.0930 O   0  0  0  0  0  0  0  0  0  0  0  0
    7.8456  -15.9144   20.8697 C   0  0  0  0  0  0  0  0  0  0  0  0
    6.8240  -15.5562   20.2312 O   0  0  0  0  0  0  0  0  0  0  0  0
    9.7165  -18.6096   17.1501 O   0  0  0  0  0  0  0  0  0  0  0  0
    8.0006  -15.4362   22.1915 N   0  0  0  0  0  0  0  0  0  0  0  0
    7.0647  -14.6726   22.9361 C   0  0  0  0  0  0  0  0  0  0  0  0
    7.4919  -14.2009   24.2550 C   0  0  0  0  0  0  0  0  0  0  0  0
    8.6413  -14.5420   24.7171 O   0  0  0  0  0  0  0  0  0  0  0  0
    5.1342  -12.0642   26.5295 O   0  0  0  0  0  0  0  0  0  0  0  0
    6.4249  -11.6919   26.9080 C   0  0  0  0  0  0  0  0  0  0  0  0
    7.3824  -12.5814   26.1781 C   0  0  2  0  0  0  0  0  0  0  0  0
    6.7559  -13.3658   25.1361 N   0  0  0  0  0  0  0  0  0  0  0  0
    8.0669  -13.4456   27.1795 C   0  0  0  0  0  0  0  0  0  0  0  0
    8.8555  -12.9464   28.1814 O   0  0  0  0  0  0  0  0  0  0  0  0
    7.8950  -14.6876   27.0763 O   0  0  0  0  0  0  0  0  0  0  0  0
  2  1  1  1
  2  3  1  0
  3  4  1  0
  4  5  2  0
  6  2  1  0
  6  7  2  0
  8  4  1  0
  9  6  1  0
 10 11  1  0
 10  9  1  0
 11 16  1  0
 12 11  2  0
 14 13  1  0
 15 14  1  1
 15 17  1  0
 16 15  1  0
 17 19  2  0
 17 18  1  0
M  END
$$$$
