DGS.pdb
     RDKit          3D

 19 18  0  0  1  0  0  0  0  0999 V2000
   10.1816  -16.4119   19.9516 N   0  0  0  0  0  0  0  0  0  0  0  0
   10.0864  -17.1672   21.1563 C   0  0  1  0  0  0  0  0  0  0  0  0
   11.4625  -17.4188   21.6974 C   0  0  0  0  0  0  0  0  0  0  0  0
   12.3815  -17.9680   20.6672 C   0  0  0  0  0  0  0  0  0  0  0  0
   12.2176  -19.1096   20.1349 O   0  0  0  0  0  0  0  0  0  0  0  0
    9.1445  -16.5880   22.1483 C   0  0  0  0  0  0  0  0  0  0  0  0
    8.9905  -17.1632   23.2551 O   0  0  0  0  0  0  0  0  0  0  0  0
   13.4886  -17.2593   20.2180 O   0  0  0  0  0  0  0  0  0  0  0  0
    8.4044  -15.4070   21.9082 N   0  0  0  0  0  0  0  0  0  0  0  0
    7.3812  -14.8622   22.7264 C   0  0  0  0  0  0  0  0  0  0  0  0
    7.8002  -14.2163   23.9721 C   0  0  0  0  0  0  0  0  0  0  0  0
    9.0496  -14.1206   24.2564 O   0  0  0  0  0  0  0  0  0  0  0  0
    5.2264  -12.3730   26.5905 O   0  0  0  0  0  0  0  0  0  0  0  0
    6.4738  -11.7605   26.4616 C   0  0  0  0  0  0  0  0  0  0  0  0
    7.4489  -12.8113   26.0301 C   0  0  2  0  0  0  0  0  0  0  0  0
    6.9529  -13.6490   24.9597 N   0  0  0  0  0  0  0  0  0  0  0  0
    7.8240  -13.6144   27.2270 C   0  0  0  0  0  0  0  0  0  0  0  0
    8.4731  -13.0828   28.3091 O   0  0  0  0  0  0  0  0  0  0  0  0
    7.5179  -14.8346   27.2162 O   0  0  0  0  0  0  0  0  0  0  0  0
  2  1  1  6
  2  3  1  0
  3  4  1  0
  4  5  2  0
  6  2  1  0
  6  7  2  0
  8  4  1  0
  9  6  1  0
 10 11  1  0
 10  9  1  0
 11 16  1  0
 12 11  2  0
 14 13  1  0
 15 14  1  1
 15 17  1  0
 16 15  1  0
 17 19  2  0
 17 18  1  0
M  END
$$$$
