DGS.pdb
     RDKit          3D

 19 18  0  0  1  0  0  0  0  0999 V2000
   10.9906  -17.3108   21.6376 N   0  0  0  0  0  0  0  0  0  0  0  0
    9.7508  -16.8881   21.0763 C   0  0  1  0  0  0  0  0  0  0  0  0
    9.0955  -18.0465   20.3848 C   0  0  0  0  0  0  0  0  0  0  0  0
    9.7989  -18.4267   19.1325 C   0  0  0  0  0  0  0  0  0  0  0  0
   11.0453  -18.6676   19.0875 O   0  0  0  0  0  0  0  0  0  0  0  0
    8.8691  -16.1854   22.0436 C   0  0  0  0  0  0  0  0  0  0  0  0
    8.7030  -16.6755   23.1889 O   0  0  0  0  0  0  0  0  0  0  0  0
    9.1298  -18.5433   17.9207 O   0  0  0  0  0  0  0  0  0  0  0  0
    8.2002  -14.9774   21.7379 N   0  0  0  0  0  0  0  0  0  0  0  0
    7.3044  -14.2644   22.5760 C   0  0  0  0  0  0  0  0  0  0  0  0
    7.8121  -13.8412   23.8829 C   0  0  0  0  0  0  0  0  0  0  0  0
    9.0293  -14.0912   24.2099 O   0  0  0  0  0  0  0  0  0  0  0  0
    5.5675  -12.0408   26.7904 O   0  0  0  0  0  0  0  0  0  0  0  0
    6.8939  -11.6066   26.7960 C   0  0  0  0  0  0  0  0  0  0  0  0
    7.7112  -12.6472   26.0958 C   0  0  2  0  0  0  0  0  0  0  0  0
    7.0892  -13.1491   24.8897 N   0  0  0  0  0  0  0  0  0  0  0  0
    7.9943  -13.7427   27.0643 C   0  0  0  0  0  0  0  0  0  0  0  0
    8.7106  -13.5541   28.2159 O   0  0  0  0  0  0  0  0  0  0  0  0
    7.5426  -14.8833   26.7862 O   0  0  0  0  0  0  0  0  0  0  0  0
  2  1  1  1
  2  3  1  0
  3  4  1  0
  4  5  2  0
  6  2  1  0
  6  7  2  0
  8  4  1  0
  9  6  1  0
 10 11  1  0
 10  9  1  0
 11 16  1  0
 12 11  2  0
 14 13  1  0
 15 14  1  1
 15 17  1  0
 16 15  1  0
 17 19  2  0
 17 18  1  0
M  END
$$$$
