DGS.pdb
     RDKit          3D

 19 18  0  0  1  0  0  0  0  0999 V2000
    5.6990  -19.9906   21.7870 N   0  0  0  0  0  0  0  0  0  0  0  0
    5.4125  -18.9651   22.7342 C   0  0  1  0  0  0  0  0  0  0  0  0
    6.1279  -19.2588   24.0193 C   0  0  0  0  0  0  0  0  0  0  0  0
    7.3881  -20.0155   23.8027 C   0  0  0  0  0  0  0  0  0  0  0  0
    7.4816  -20.9782   22.9793 O   0  0  0  0  0  0  0  0  0  0  0  0
    5.6455  -17.5933   22.2138 C   0  0  0  0  0  0  0  0  0  0  0  0
    4.7872  -16.7015   22.4321 O   0  0  0  0  0  0  0  0  0  0  0  0
    8.5542  -19.7135   24.4946 O   0  0  0  0  0  0  0  0  0  0  0  0
    6.7987  -17.2351   21.4777 N   0  0  0  0  0  0  0  0  0  0  0  0
    7.1471  -15.9386   21.0184 C   0  0  0  0  0  0  0  0  0  0  0  0
    7.6586  -14.9960   22.0157 C   0  0  0  0  0  0  0  0  0  0  0  0
    8.1268  -13.8590   21.6429 O   0  0  0  0  0  0  0  0  0  0  0  0
    6.3879  -13.9122   25.4081 O   0  0  0  0  0  0  0  0  0  0  0  0
    7.5315  -13.2630   24.9408 C   0  0  0  0  0  0  0  0  0  0  0  0
    8.4122  -14.2980   24.3130 C   0  0  2  0  0  0  0  0  0  0  0  0
    7.7030  -15.1899   23.4213 N   0  0  0  0  0  0  0  0  0  0  0  0
    9.0995  -15.0442   25.4035 C   0  0  0  0  0  0  0  0  0  0  0  0
    9.9662  -14.4514   26.2822 O   0  0  0  0  0  0  0  0  0  0  0  0
    8.8538  -16.2744   25.4982 O   0  0  0  0  0  0  0  0  0  0  0  0
  2  1  1  6
  2  3  1  0
  3  4  1  0
  4  5  2  0
  6  2  1  0
  6  7  2  0
  8  4  1  0
  9  6  1  0
 10 11  1  0
 10  9  1  0
 11 16  1  0
 12 11  2  0
 14 13  1  0
 15 14  1  1
 15 17  1  0
 16 15  1  0
 17 19  2  0
 17 18  1  0
M  END
$$$$
