DGS.pdb
     RDKit          3D

 19 18  0  0  1  0  0  0  0  0999 V2000
    9.0840  -18.5543   21.5524 N   0  0  0  0  0  0  0  0  0  0  0  0
    9.4783  -17.3357   20.9276 C   0  0  1  0  0  0  0  0  0  0  0  0
    9.4316  -17.5011   19.4376 C   0  0  0  0  0  0  0  0  0  0  0  0
   10.7826  -17.6912   18.8490 C   0  0  0  0  0  0  0  0  0  0  0  0
   11.8537  -17.4842   19.4998 O   0  0  0  0  0  0  0  0  0  0  0  0
    8.7408  -16.1463   21.4260 C   0  0  0  0  0  0  0  0  0  0  0  0
    9.0983  -15.0018   21.0493 O   0  0  0  0  0  0  0  0  0  0  0  0
   10.9595  -18.1115   17.5369 O   0  0  0  0  0  0  0  0  0  0  0  0
    7.6427  -16.2377   22.3125 N   0  0  0  0  0  0  0  0  0  0  0  0
    6.9086  -15.1604   22.8727 C   0  0  0  0  0  0  0  0  0  0  0  0
    7.5225  -14.4526   23.9982 C   0  0  0  0  0  0  0  0  0  0  0  0
    8.7557  -14.6621   24.2921 O   0  0  0  0  0  0  0  0  0  0  0  0
    5.5199  -12.0956   26.6438 O   0  0  0  0  0  0  0  0  0  0  0  0
    6.8181  -11.6278   26.4346 C   0  0  0  0  0  0  0  0  0  0  0  0
    7.6143  -12.7542   25.8530 C   0  0  2  0  0  0  0  0  0  0  0  0
    6.8923  -13.5098   24.8523 N   0  0  0  0  0  0  0  0  0  0  0  0
    8.0730  -13.6233   26.9722 C   0  0  0  0  0  0  0  0  0  0  0  0
    8.9341  -13.1936   27.9462 O   0  0  0  0  0  0  0  0  0  0  0  0
    7.6332  -14.8016   26.9989 O   0  0  0  0  0  0  0  0  0  0  0  0
  2  1  1  1
  2  3  1  0
  3  4  1  0
  4  5  2  0
  6  2  1  0
  6  7  2  0
  8  4  1  0
  9  6  1  0
 10 11  1  0
 10  9  1  0
 11 16  1  0
 12 11  2  0
 14 13  1  0
 15 14  1  1
 15 17  1  0
 16 15  1  0
 17 19  2  0
 17 18  1  0
M  END
$$$$
