HFQ.pdb
     RDKit          3D

 31 32  0  0  1  0  0  0  0  0999 V2000
   28.2890  -22.5343  -16.9690 N   0  0  0  0  0  0  0  0  0  0  0  0
   27.5106  -21.3711  -16.6855 C   0  0  1  0  0  0  0  0  0  0  0  0
   26.6854  -20.9443  -17.8815 C   0  0  0  0  0  0  0  0  0  0  0  0
   27.5519  -20.1545  -18.7769 C   0  0  0  0  0  0  0  0  0  0  0  0
   28.3366  -20.6838  -19.7717 C   0  0  0  0  0  0  0  0  0  0  0  0
   28.9790  -19.6607  -20.3709 N   0  0  0  0  0  0  0  0  0  0  0  0
   28.6232  -18.5135  -19.7859 C   0  0  0  0  0  0  0  0  0  0  0  0
   27.7480  -18.8329  -18.8108 N   0  0  0  0  0  0  0  0  0  0  0  0
   26.6228  -21.6200  -15.4989 C   0  0  0  0  0  0  0  0  0  0  0  0
   26.1244  -22.7310  -15.2645 O   0  0  0  0  0  0  0  0  0  0  0  0
   26.3210  -20.5720  -14.5920 N   0  0  0  0  0  0  0  0  0  0  0  0
   25.5871  -20.7010  -13.3941 C   0  0  1  0  0  0  0  0  0  0  0  0
   26.0988  -19.9409  -12.2047 C   0  0  0  0  0  0  0  0  0  0  0  0
   27.3994  -20.4950  -11.7674 C   0  0  0  0  0  0  0  0  0  0  0  0
   27.6146  -21.2222  -10.6283 C   0  0  0  0  0  0  0  0  0  0  0  0
   28.9083  -21.6655  -10.3462 C   0  0  0  0  0  0  0  0  0  0  0  0
   29.9598  -21.3874  -11.1844 C   0  0  0  0  0  0  0  0  0  0  0  0
   29.7600  -20.6559  -12.3368 C   0  0  0  0  0  0  0  0  0  0  0  0
   28.4883  -20.2353  -12.5884 C   0  0  0  0  0  0  0  0  0  0  0  0
   24.1381  -20.5104  -13.5322 C   0  0  0  0  0  0  0  0  0  0  0  0
   23.7423  -19.4221  -14.0308 O   0  0  0  0  0  0  0  0  0  0  0  0
   22.5873  -23.0985  -15.7579 N   0  0  0  0  0  0  0  0  0  0  0  0
   21.2069  -22.8430  -15.9593 C   0  0  0  0  0  0  0  0  0  0  0  0
   20.7336  -22.8735  -17.1123 O   0  0  0  0  0  0  0  0  0  0  0  0
   20.3477  -22.5442  -14.8014 C   0  0  0  0  0  0  0  0  0  0  0  0
   21.1788  -22.6272  -13.5350 C   0  0  0  0  0  0  0  0  0  0  0  0
   21.8266  -21.2764  -13.2801 C   0  0  2  0  0  0  0  0  0  0  0  0
   23.2483  -21.5280  -13.1137 N   0  0  0  0  0  0  0  0  0  0  0  0
   21.3276  -20.7018  -12.0241 C   0  0  0  0  0  0  0  0  0  0  0  0
   20.1648  -19.9700  -11.9262 O   0  0  0  0  0  0  0  0  0  0  0  0
   22.0143  -20.8969  -10.9765 O   0  0  0  0  0  0  0  0  0  0  0  0
  2  3  1  0
  2  1  1  6
  3  4  1  0
  4  8  1  0
  4  5  2  0
  5  6  1  0
  7  6  1  0
  8  7  2  0
  9  2  1  0
 10  9  2  0
 11  9  1  0
 12 11  1  0
 12 13  1  1
 13 14  1  0
 14 15  2  0
 15 16  1  0
 17 16  2  0
 18 17  1  0
 19 14  1  0
 19 18  2  0
 20 28  1  0
 20 12  1  0
 21 20  2  0
 23 22  1  0
 24 23  2  0
 25 23  1  0
 27 26  1  1
 26 25  1  0
 27 29  1  0
 27 28  1  0
 29 30  1  0
 31 29  2  0
M  END
$$$$
