HFQ.pdb
     RDKit          3D

 31 32  0  0  1  0  0  0  0  0999 V2000
   16.0947  -11.1870  -14.7635 N   0  0  0  0  0  0  0  0  0  0  0  0
   17.1649  -10.5228  -14.0907 C   0  0  1  0  0  0  0  0  0  0  0  0
   18.2014  -10.0023  -15.0645 C   0  0  0  0  0  0  0  0  0  0  0  0
   18.8196  -11.1606  -15.7372 C   0  0  0  0  0  0  0  0  0  0  0  0
   18.2605  -11.8431  -16.7894 C   0  0  0  0  0  0  0  0  0  0  0  0
   19.1122  -12.8307  -17.1323 N   0  0  0  0  0  0  0  0  0  0  0  0
   20.1815  -12.7885  -16.3323 C   0  0  0  0  0  0  0  0  0  0  0  0
   19.9871  -11.7594  -15.4827 N   0  0  0  0  0  0  0  0  0  0  0  0
   16.6281   -9.4004  -13.2480 C   0  0  0  0  0  0  0  0  0  0  0  0
   15.7396   -8.6347  -13.6507 O   0  0  0  0  0  0  0  0  0  0  0  0
   17.1302   -9.1767  -11.9404 N   0  0  0  0  0  0  0  0  0  0  0  0
   16.7004   -8.1698  -11.0507 C   0  0  1  0  0  0  0  0  0  0  0  0
   16.3099   -8.6118   -9.6701 C   0  0  0  0  0  0  0  0  0  0  0  0
   15.0740   -9.4238   -9.7259 C   0  0  0  0  0  0  0  0  0  0  0  0
   15.0114  -10.7643   -9.9941 C   0  0  0  0  0  0  0  0  0  0  0  0
   13.7622  -11.3876  -10.0248 C   0  0  0  0  0  0  0  0  0  0  0  0
   12.6052  -10.6856   -9.7924 C   0  0  0  0  0  0  0  0  0  0  0  0
   12.6508   -9.3340   -9.5203 C   0  0  0  0  0  0  0  0  0  0  0  0
   13.8821   -8.7503   -9.4964 C   0  0  0  0  0  0  0  0  0  0  0  0
   17.5756   -6.9934  -10.9777 C   0  0  0  0  0  0  0  0  0  0  0  0
   18.5150   -7.0221  -10.1373 O   0  0  0  0  0  0  0  0  0  0  0  0
   21.7868   -6.2349  -13.7476 N   0  0  0  0  0  0  0  0  0  0  0  0
   20.5887   -6.2364  -14.5064 C   0  0  0  0  0  0  0  0  0  0  0  0
   20.6069   -6.6242  -15.6911 O   0  0  0  0  0  0  0  0  0  0  0  0
   19.3350   -5.7788  -13.8840 C   0  0  0  0  0  0  0  0  0  0  0  0
   19.6038   -5.4255  -12.4334 C   0  0  0  0  0  0  0  0  0  0  0  0
   18.3433   -4.8301  -11.8285 C   0  0  2  0  0  0  0  0  0  0  0  0
   17.3473   -5.8885  -11.8317 N   0  0  0  0  0  0  0  0  0  0  0  0
   17.8376   -3.7422  -12.6755 C   0  0  0  0  0  0  0  0  0  0  0  0
   18.4447   -2.5105  -12.7827 O   0  0  0  0  0  0  0  0  0  0  0  0
   16.7812   -3.9605  -13.3416 O   0  0  0  0  0  0  0  0  0  0  0  0
  2  3  1  0
  2  1  1  6
  3  4  1  0
  4  8  1  0
  4  5  2  0
  5  6  1  0
  7  6  1  0
  8  7  2  0
  9  2  1  0
 10  9  2  0
 11  9  1  0
 12 11  1  0
 12 13  1  1
 13 14  1  0
 14 15  2  0
 15 16  1  0
 17 16  2  0
 18 17  1  0
 19 14  1  0
 19 18  2  0
 20 28  1  0
 20 12  1  0
 21 20  2  0
 23 22  1  0
 24 23  2  0
 25 23  1  0
 27 26  1  6
 26 25  1  0
 27 29  1  0
 27 28  1  0
 29 30  1  0
 31 29  2  0
M  END
$$$$
