HFQ.pdb
     RDKit          3D

 31 32  0  0  1  0  0  0  0  0999 V2000
   27.5477  -20.1775  -18.9094 N   0  0  0  0  0  0  0  0  0  0  0  0
   27.4949  -19.3125  -17.7744 C   0  0  1  0  0  0  0  0  0  0  0  0
   26.8051  -18.0040  -18.0991 C   0  0  0  0  0  0  0  0  0  0  0  0
   27.6802  -17.2384  -19.0070 C   0  0  0  0  0  0  0  0  0  0  0  0
   27.3994  -16.9749  -20.3251 C   0  0  0  0  0  0  0  0  0  0  0  0
   28.4255  -16.2562  -20.8239 N   0  0  0  0  0  0  0  0  0  0  0  0
   29.3353  -16.0622  -19.8649 C   0  0  0  0  0  0  0  0  0  0  0  0
   28.8639  -16.6702  -18.7574 N   0  0  0  0  0  0  0  0  0  0  0  0
   26.8018  -20.0003  -16.6322 C   0  0  0  0  0  0  0  0  0  0  0  0
   25.7150  -20.5818  -16.7689 O   0  0  0  0  0  0  0  0  0  0  0  0
   27.3796  -20.0064  -15.3369 N   0  0  0  0  0  0  0  0  0  0  0  0
   26.7106  -20.3181  -14.1346 C   0  0  1  0  0  0  0  0  0  0  0  0
   27.5144  -20.2187  -12.8704 C   0  0  0  0  0  0  0  0  0  0  0  0
   26.6599  -20.5150  -11.6991 C   0  0  0  0  0  0  0  0  0  0  0  0
   26.0886  -21.7254  -11.4138 C   0  0  0  0  0  0  0  0  0  0  0  0
   25.2930  -21.8426  -10.2723 C   0  0  0  0  0  0  0  0  0  0  0  0
   25.0756  -20.7742   -9.4376 C   0  0  0  0  0  0  0  0  0  0  0  0
   25.6442  -19.5474   -9.7105 C   0  0  0  0  0  0  0  0  0  0  0  0
   26.4159  -19.4600  -10.8305 C   0  0  0  0  0  0  0  0  0  0  0  0
   25.4099  -19.6599  -13.9613 C   0  0  0  0  0  0  0  0  0  0  0  0
   25.4004  -18.3999  -13.9149 O   0  0  0  0  0  0  0  0  0  0  0  0
   21.9763  -18.6378  -17.4322 N   0  0  0  0  0  0  0  0  0  0  0  0
   21.7500  -19.9912  -17.0739 C   0  0  0  0  0  0  0  0  0  0  0  0
   21.3804  -20.8075  -17.9408 O   0  0  0  0  0  0  0  0  0  0  0  0
   21.9549  -20.4166  -15.6791 C   0  0  0  0  0  0  0  0  0  0  0  0
   22.4472  -19.2324  -14.8687 C   0  0  0  0  0  0  0  0  0  0  0  0
   22.9987  -19.7352  -13.5449 C   0  0  2  0  0  0  0  0  0  0  0  0
   24.2326  -20.4377  -13.8548 N   0  0  0  0  0  0  0  0  0  0  0  0
   22.0743  -20.7057  -12.9446 C   0  0  0  0  0  0  0  0  0  0  0  0
   22.3018  -22.0639  -12.9181 O   0  0  0  0  0  0  0  0  0  0  0  0
   21.0093  -20.2564  -12.4239 O   0  0  0  0  0  0  0  0  0  0  0  0
  2  3  1  0
  2  1  1  6
  3  4  1  0
  4  8  1  0
  4  5  2  0
  5  6  1  0
  7  6  1  0
  8  7  2  0
  9  2  1  0
 10  9  2  0
 11  9  1  0
 12 11  1  0
 12 13  1  1
 13 14  1  0
 14 15  2  0
 15 16  1  0
 17 16  2  0
 18 17  1  0
 19 14  1  0
 19 18  2  0
 20 28  1  0
 20 12  1  0
 21 20  2  0
 23 22  1  0
 24 23  2  0
 25 23  1  0
 27 26  1  6
 26 25  1  0
 27 29  1  0
 27 28  1  0
 29 30  1  0
 31 29  2  0
M  END
$$$$
