HFQ.pdb
     RDKit          3D

 31 32  0  0  1  0  0  0  0  0999 V2000
   26.7383  -21.9215  -16.7604 N   0  0  0  0  0  0  0  0  0  0  0  0
   26.7895  -20.8190  -15.8542 C   0  0  1  0  0  0  0  0  0  0  0  0
   26.1339  -19.5844  -16.4368 C   0  0  0  0  0  0  0  0  0  0  0  0
   26.9715  -19.1046  -17.5524 C   0  0  0  0  0  0  0  0  0  0  0  0
   26.6113  -19.1522  -18.8766 C   0  0  0  0  0  0  0  0  0  0  0  0
   27.6256  -18.6271  -19.5933 N   0  0  0  0  0  0  0  0  0  0  0  0
   28.6046  -18.2541  -18.7641 C   0  0  0  0  0  0  0  0  0  0  0  0
   28.1885  -18.5534  -17.5168 N   0  0  0  0  0  0  0  0  0  0  0  0
   26.1406  -21.1907  -14.5509 C   0  0  0  0  0  0  0  0  0  0  0  0
   25.0590  -21.7948  -14.4966 O   0  0  0  0  0  0  0  0  0  0  0  0
   26.7564  -20.8561  -13.3177 N   0  0  0  0  0  0  0  0  0  0  0  0
   26.1730  -20.9870  -12.0399 C   0  0  1  0  0  0  0  0  0  0  0  0
   27.0922  -20.8446  -10.8613 C   0  0  0  0  0  0  0  0  0  0  0  0
   26.3063  -20.6344   -9.6252 C   0  0  0  0  0  0  0  0  0  0  0  0
   25.4294  -21.5295   -9.0751 C   0  0  0  0  0  0  0  0  0  0  0  0
   24.7501  -21.1765   -7.9073 C   0  0  0  0  0  0  0  0  0  0  0  0
   24.9448  -19.9576   -7.3057 C   0  0  0  0  0  0  0  0  0  0  0  0
   25.8253  -19.0441   -7.8470 C   0  0  0  0  0  0  0  0  0  0  0  0
   26.4750  -19.4134   -8.9867 C   0  0  0  0  0  0  0  0  0  0  0  0
   24.9550  -20.1945  -11.8313 C   0  0  0  0  0  0  0  0  0  0  0  0
   25.0281  -18.9539  -12.0437 O   0  0  0  0  0  0  0  0  0  0  0  0
   20.8450  -21.5397  -15.1680 N   0  0  0  0  0  0  0  0  0  0  0  0
   20.1489  -20.4910  -14.5147 C   0  0  0  0  0  0  0  0  0  0  0  0
   19.0037  -20.1773  -14.8949 O   0  0  0  0  0  0  0  0  0  0  0  0
   20.7888  -19.7838  -13.3927 C   0  0  0  0  0  0  0  0  0  0  0  0
   22.1227  -20.4405  -13.0912 C   0  0  0  0  0  0  0  0  0  0  0  0
   22.5141  -20.1272  -11.6566 C   0  0  2  0  0  0  0  0  0  0  0  0
   23.7626  -20.8289  -11.4094 N   0  0  0  0  0  0  0  0  0  0  0  0
   21.5118  -20.6641  -10.7272 C   0  0  0  0  0  0  0  0  0  0  0  0
   21.6016  -21.9062  -10.1387 O   0  0  0  0  0  0  0  0  0  0  0  0
   20.5109  -19.9338  -10.4583 O   0  0  0  0  0  0  0  0  0  0  0  0
  2  3  1  0
  2  1  1  6
  3  4  1  0
  4  8  1  0
  4  5  2  0
  5  6  1  0
  7  6  1  0
  8  7  2  0
  9  2  1  0
 10  9  2  0
 11  9  1  0
 12 11  1  0
 12 13  1  1
 13 14  1  0
 14 15  2  0
 15 16  1  0
 17 16  2  0
 18 17  1  0
 19 14  1  0
 19 18  2  0
 20 28  1  0
 20 12  1  0
 21 20  2  0
 23 22  1  0
 24 23  2  0
 25 23  1  0
 27 26  1  6
 26 25  1  0
 27 29  1  0
 27 28  1  0
 29 30  1  0
 31 29  2  0
M  END
$$$$
