HFQ.pdb
     RDKit          3D

 31 32  0  0  1  0  0  0  0  0999 V2000
   22.2740  -16.4040  -18.4468 N   0  0  0  0  0  0  0  0  0  0  0  0
   22.3149  -15.0178  -18.7877 C   0  0  1  0  0  0  0  0  0  0  0  0
   21.0951  -14.6003  -19.5823 C   0  0  0  0  0  0  0  0  0  0  0  0
   21.1354  -15.2967  -20.8822 C   0  0  0  0  0  0  0  0  0  0  0  0
   21.7550  -14.8138  -22.0085 C   0  0  0  0  0  0  0  0  0  0  0  0
   21.5799  -15.7216  -22.9901 N   0  0  0  0  0  0  0  0  0  0  0  0
   20.8739  -16.7524  -22.5167 C   0  0  0  0  0  0  0  0  0  0  0  0
   20.6091  -16.4769  -21.2233 N   0  0  0  0  0  0  0  0  0  0  0  0
   22.4405  -14.1834  -17.5443 C   0  0  0  0  0  0  0  0  0  0  0  0
   21.7324  -14.3724  -16.5440 O   0  0  0  0  0  0  0  0  0  0  0  0
   23.3912  -13.1331  -17.4740 N   0  0  0  0  0  0  0  0  0  0  0  0
   23.6336  -12.3110  -16.3535 C   0  0  1  0  0  0  0  0  0  0  0  0
   25.0602  -12.1915  -15.9009 C   0  0  0  0  0  0  0  0  0  0  0  0
   25.6588  -13.5357  -15.7441 C   0  0  0  0  0  0  0  0  0  0  0  0
   26.4058  -14.1914  -16.6848 C   0  0  0  0  0  0  0  0  0  0  0  0
   26.8916  -15.4669  -16.3902 C   0  0  0  0  0  0  0  0  0  0  0  0
   26.6357  -16.0701  -15.1836 C   0  0  0  0  0  0  0  0  0  0  0  0
   25.8848  -15.4229  -14.2243 C   0  0  0  0  0  0  0  0  0  0  0  0
   25.4227  -14.1795  -14.5371 C   0  0  0  0  0  0  0  0  0  0  0  0
   23.0077  -10.9844  -16.4119 C   0  0  0  0  0  0  0  0  0  0  0  0
   23.2162  -10.2908  -17.4440 O   0  0  0  0  0  0  0  0  0  0  0  0
   17.3934   -9.8547  -15.4641 N   0  0  0  0  0  0  0  0  0  0  0  0
   17.8437   -8.5136  -15.5649 C   0  0  0  0  0  0  0  0  0  0  0  0
   17.0139   -7.5859  -15.6362 O   0  0  0  0  0  0  0  0  0  0  0  0
   19.2891   -8.2330  -15.5843 C   0  0  0  0  0  0  0  0  0  0  0  0
   20.0480   -9.5446  -15.5127 C   0  0  0  0  0  0  0  0  0  0  0  0
   21.5392   -9.2520  -15.4979 C   0  0  2  0  0  0  0  0  0  0  0  0
   22.2070  -10.5326  -15.3362 N   0  0  0  0  0  0  0  0  0  0  0  0
   21.8831   -8.4223  -14.3360 C   0  0  0  0  0  0  0  0  0  0  0  0
   21.8248   -7.0461  -14.3343 O   0  0  0  0  0  0  0  0  0  0  0  0
   22.2536   -9.0174  -13.2797 O   0  0  0  0  0  0  0  0  0  0  0  0
  2  3  1  0
  2  1  1  1
  3  4  1  0
  4  8  1  0
  4  5  2  0
  5  6  1  0
  7  6  1  0
  8  7  2  0
  9  2  1  0
 10  9  2  0
 11  9  1  0
 12 11  1  0
 12 13  1  6
 13 14  1  0
 14 15  2  0
 15 16  1  0
 17 16  2  0
 18 17  1  0
 19 14  1  0
 19 18  2  0
 20 28  1  0
 20 12  1  0
 21 20  2  0
 23 22  1  0
 24 23  2  0
 25 23  1  0
 27 26  1  1
 26 25  1  0
 27 29  1  0
 27 28  1  0
 29 30  1  0
 31 29  2  0
M  END
$$$$
