HFQ.pdb
     RDKit          3D

 31 32  0  0  1  0  0  0  0  0999 V2000
   28.3039  -23.0985  -17.0119 N   0  0  0  0  0  0  0  0  0  0  0  0
   27.4790  -21.9331  -16.9808 C   0  0  1  0  0  0  0  0  0  0  0  0
   26.6345  -21.8112  -18.2319 C   0  0  0  0  0  0  0  0  0  0  0  0
   27.5219  -21.4330  -19.3480 C   0  0  0  0  0  0  0  0  0  0  0  0
   27.9148  -22.2796  -20.3553 C   0  0  0  0  0  0  0  0  0  0  0  0
   28.7171  -21.5812  -21.1840 N   0  0  0  0  0  0  0  0  0  0  0  0
   28.8385  -20.3306  -20.7300 C   0  0  0  0  0  0  0  0  0  0  0  0
   28.1000  -20.2556  -19.6041 N   0  0  0  0  0  0  0  0  0  0  0  0
   26.6049  -21.9512  -15.7587 C   0  0  0  0  0  0  0  0  0  0  0  0
   26.1184  -22.9983  -15.3063 O   0  0  0  0  0  0  0  0  0  0  0  0
   26.3025  -20.7482  -15.0707 N   0  0  0  0  0  0  0  0  0  0  0  0
   25.5504  -20.6423  -13.8819 C   0  0  1  0  0  0  0  0  0  0  0  0
   26.0590  -19.6821  -12.8457 C   0  0  0  0  0  0  0  0  0  0  0  0
   27.2680  -20.2312  -12.1925 C   0  0  0  0  0  0  0  0  0  0  0  0
   28.5379  -20.1904  -12.7008 C   0  0  0  0  0  0  0  0  0  0  0  0
   29.5762  -20.7675  -11.9670 C   0  0  0  0  0  0  0  0  0  0  0  0
   29.3481  -21.3700  -10.7545 C   0  0  0  0  0  0  0  0  0  0  0  0
   28.0741  -21.4195  -10.2277 C   0  0  0  0  0  0  0  0  0  0  0  0
   27.0790  -20.8491  -10.9639 C   0  0  0  0  0  0  0  0  0  0  0  0
   24.1069  -20.4600  -14.0767 C   0  0  0  0  0  0  0  0  0  0  0  0
   23.7412  -19.6389  -14.9608 O   0  0  0  0  0  0  0  0  0  0  0  0
   19.7294  -24.4510  -12.2363 N   0  0  0  0  0  0  0  0  0  0  0  0
   18.9518  -23.4365  -12.8507 C   0  0  0  0  0  0  0  0  0  0  0  0
   17.7125  -23.5579  -12.9113 O   0  0  0  0  0  0  0  0  0  0  0  0
   19.6195  -22.2496  -13.4109 C   0  0  0  0  0  0  0  0  0  0  0  0
   21.1026  -22.3245  -13.1005 C   0  0  0  0  0  0  0  0  0  0  0  0
   21.7797  -21.0669  -13.6195 C   0  0  2  0  0  0  0  0  0  0  0  0
   23.1890  -21.1931  -13.2877 N   0  0  0  0  0  0  0  0  0  0  0  0
   21.2628  -19.8847  -12.9183 C   0  0  0  0  0  0  0  0  0  0  0  0
   20.2024  -19.1302  -13.3695 O   0  0  0  0  0  0  0  0  0  0  0  0
   21.8328  -19.5485  -11.8369 O   0  0  0  0  0  0  0  0  0  0  0  0
  2  3  1  0
  2  1  1  6
  3  4  1  0
  4  8  1  0
  4  5  2  0
  5  6  1  0
  7  6  1  0
  8  7  2  0
  9  2  1  0
 10  9  2  0
 11  9  1  0
 12 11  1  0
 12 13  1  6
 13 14  1  0
 14 15  2  0
 15 16  1  0
 17 16  2  0
 18 17  1  0
 19 14  1  0
 19 18  2  0
 20 28  1  0
 20 12  1  0
 21 20  2  0
 23 22  1  0
 24 23  2  0
 25 23  1  0
 27 26  1  1
 26 25  1  0
 27 29  1  0
 27 28  1  0
 29 30  1  0
 31 29  2  0
M  END
$$$$
