HFQ.pdb
     RDKit          3D

 31 32  0  0  1  0  0  0  0  0999 V2000
   25.6900  -21.6185  -13.6442 N   0  0  0  0  0  0  0  0  0  0  0  0
   25.4292  -20.5338  -12.7526 C   0  0  1  0  0  0  0  0  0  0  0  0
   24.0432  -19.9597  -12.9596 C   0  0  0  0  0  0  0  0  0  0  0  0
   23.9807  -19.3942  -14.3207 C   0  0  0  0  0  0  0  0  0  0  0  0
   23.0538  -19.7455  -15.2710 C   0  0  0  0  0  0  0  0  0  0  0  0
   23.3134  -19.0227  -16.3794 N   0  0  0  0  0  0  0  0  0  0  0  0
   24.3681  -18.2340  -16.1544 C   0  0  0  0  0  0  0  0  0  0  0  0
   24.7657  -18.4733  -14.8882 N   0  0  0  0  0  0  0  0  0  0  0  0
   25.6029  -20.9820  -11.3289 C   0  0  0  0  0  0  0  0  0  0  0  0
   25.0670  -22.0090  -10.8864 O   0  0  0  0  0  0  0  0  0  0  0  0
   26.4007  -20.2302  -10.4288 N   0  0  0  0  0  0  0  0  0  0  0  0
   26.6372  -20.5436   -9.0738 C   0  0  1  0  0  0  0  0  0  0  0  0
   27.9269  -20.0517   -8.4832 C   0  0  0  0  0  0  0  0  0  0  0  0
   27.8192  -19.9856   -7.0088 C   0  0  0  0  0  0  0  0  0  0  0  0
   27.4001  -18.9010   -6.2871 C   0  0  0  0  0  0  0  0  0  0  0  0
   27.3665  -18.9908   -4.8940 C   0  0  0  0  0  0  0  0  0  0  0  0
   27.7428  -20.1384   -4.2406 C   0  0  0  0  0  0  0  0  0  0  0  0
   28.1673  -21.2407   -4.9531 C   0  0  0  0  0  0  0  0  0  0  0  0
   28.1909  -21.1266   -6.3109 C   0  0  0  0  0  0  0  0  0  0  0  0
   25.5205  -20.2515   -8.1667 C   0  0  0  0  0  0  0  0  0  0  0  0
   25.0073  -19.1016   -8.2319 O   0  0  0  0  0  0  0  0  0  0  0  0
   20.3794  -23.7131   -5.7017 N   0  0  0  0  0  0  0  0  0  0  0  0
   20.5733  -22.7577   -6.7316 C   0  0  0  0  0  0  0  0  0  0  0  0
   20.0118  -22.9132   -7.8339 O   0  0  0  0  0  0  0  0  0  0  0  0
   21.4376  -21.5910   -6.4858 C   0  0  0  0  0  0  0  0  0  0  0  0
   22.7408  -21.7739   -7.2406 C   0  0  0  0  0  0  0  0  0  0  0  0
   23.8288  -20.9691   -6.5493 C   0  0  2  0  0  0  0  0  0  0  0  0
   25.0617  -21.2436   -7.2681 N   0  0  0  0  0  0  0  0  0  0  0  0
   24.0069  -21.4358   -5.1683 C   0  0  0  0  0  0  0  0  0  0  0  0
   23.3323  -20.9085   -4.0893 O   0  0  0  0  0  0  0  0  0  0  0  0
   24.8311  -22.3784   -4.9697 O   0  0  0  0  0  0  0  0  0  0  0  0
  2  3  1  0
  2  1  1  6
  3  4  1  0
  4  8  1  0
  4  5  2  0
  5  6  1  0
  7  6  1  0
  8  7  2  0
  9  2  1  0
 10  9  2  0
 11  9  1  0
 12 11  1  0
 12 13  1  1
 13 14  1  0
 14 15  2  0
 15 16  1  0
 17 16  2  0
 18 17  1  0
 19 14  1  0
 19 18  2  0
 20 28  1  0
 20 12  1  0
 21 20  2  0
 23 22  1  0
 24 23  2  0
 25 23  1  0
 27 26  1  6
 26 25  1  0
 27 29  1  0
 27 28  1  0
 29 30  1  0
 31 29  2  0
M  END
$$$$
