HFQ.pdb
     RDKit          3D

 31 32  0  0  1  0  0  0  0  0999 V2000
   27.8047  -21.7050  -17.6622 N   0  0  0  0  0  0  0  0  0  0  0  0
   27.6730  -20.6342  -16.7264 C   0  0  1  0  0  0  0  0  0  0  0  0
   26.9504  -19.4483  -17.3304 C   0  0  0  0  0  0  0  0  0  0  0  0
   27.8519  -18.8140  -18.3108 C   0  0  0  0  0  0  0  0  0  0  0  0
   29.0507  -18.2207  -18.0004 C   0  0  0  0  0  0  0  0  0  0  0  0
   29.5847  -17.7570  -19.1485 N   0  0  0  0  0  0  0  0  0  0  0  0
   28.7624  -18.0396  -20.1629 C   0  0  0  0  0  0  0  0  0  0  0  0
   27.7049  -18.6875  -19.6332 N   0  0  0  0  0  0  0  0  0  0  0  0
   26.9581  -21.1104  -15.4935 C   0  0  0  0  0  0  0  0  0  0  0  0
   25.9293  -21.8007  -15.5479 O   0  0  0  0  0  0  0  0  0  0  0  0
   27.4465  -20.7792  -14.2037 N   0  0  0  0  0  0  0  0  0  0  0  0
   26.7353  -20.9078  -12.9921 C   0  0  1  0  0  0  0  0  0  0  0  0
   27.4288  -20.4296  -11.7493 C   0  0  0  0  0  0  0  0  0  0  0  0
   26.4987  -20.4716  -10.5991 C   0  0  0  0  0  0  0  0  0  0  0  0
   25.9599  -19.3832   -9.9684 C   0  0  0  0  0  0  0  0  0  0  0  0
   25.1050  -19.5879   -8.8834 C   0  0  0  0  0  0  0  0  0  0  0  0
   24.7975  -20.8511   -8.4418 C   0  0  0  0  0  0  0  0  0  0  0  0
   25.3318  -21.9589   -9.0666 C   0  0  0  0  0  0  0  0  0  0  0  0
   26.1630  -21.7314  -10.1224 C   0  0  0  0  0  0  0  0  0  0  0  0
   25.3561  -20.4064  -13.0276 C   0  0  0  0  0  0  0  0  0  0  0  0
   25.1881  -19.1953  -13.3353 O   0  0  0  0  0  0  0  0  0  0  0  0
   21.2403  -24.0192  -15.3515 N   0  0  0  0  0  0  0  0  0  0  0  0
   20.4250  -22.8824  -15.1183 C   0  0  0  0  0  0  0  0  0  0  0  0
   19.2633  -22.8508  -15.5698 O   0  0  0  0  0  0  0  0  0  0  0  0
   20.9620  -21.7508  -14.3439 C   0  0  0  0  0  0  0  0  0  0  0  0
   22.3883  -22.0653  -13.9339 C   0  0  0  0  0  0  0  0  0  0  0  0
   22.9583  -20.8765  -13.1781 C   0  0  2  0  0  0  0  0  0  0  0  0
   24.2804  -21.2744  -12.7245 N   0  0  0  0  0  0  0  0  0  0  0  0
   22.1467  -20.5945  -11.9871 C   0  0  0  0  0  0  0  0  0  0  0  0
   22.2437  -21.3028  -10.8098 O   0  0  0  0  0  0  0  0  0  0  0  0
   21.3125  -19.6425  -12.0581 O   0  0  0  0  0  0  0  0  0  0  0  0
  2  3  1  0
  2  1  1  6
  3  4  1  0
  4  8  1  0
  4  5  2  0
  5  6  1  0
  7  6  1  0
  8  7  2  0
  9  2  1  0
 10  9  2  0
 11  9  1  0
 12 11  1  0
 12 13  1  1
 13 14  1  0
 14 15  2  0
 15 16  1  0
 17 16  2  0
 18 17  1  0
 19 14  1  0
 19 18  2  0
 20 28  1  0
 20 12  1  0
 21 20  2  0
 23 22  1  0
 24 23  2  0
 25 23  1  0
 27 26  1  1
 26 25  1  0
 27 29  1  0
 27 28  1  0
 29 30  1  0
 31 29  2  0
M  END
$$$$
