QKA.pdb
     RDKit          3D

 24 23  0  0  1  0  0  0  0  0999 V2000
   12.2658  -15.5562   18.9868 N   0  0  0  0  0  0  0  0  0  0  0  0
   12.0452  -14.3331   19.6504 C   0  0  0  0  0  0  0  0  0  0  0  0
   12.9217  -13.9132   20.4499 O   0  0  0  0  0  0  0  0  0  0  0  0
   10.7807  -13.5523   19.3996 C   0  0  0  0  0  0  0  0  0  0  0  0
    9.9597  -14.2888   18.3779 C   0  0  0  0  0  0  0  0  0  0  0  0
    8.4931  -14.1062   18.5046 C   0  0  2  0  0  0  0  0  0  0  0  0
    8.1997  -12.6944   18.3451 N   0  0  0  0  0  0  0  0  0  0  0  0
    7.9069  -14.5658   19.7787 C   0  0  0  0  0  0  0  0  0  0  0  0
    7.3770  -13.7852   20.6110 O   0  0  0  0  0  0  0  0  0  0  0  0
    7.9047  -15.9534   20.1537 N   0  0  0  0  0  0  0  0  0  0  0  0
    7.1926  -16.4827   21.2709 C   0  0  1  0  0  0  0  0  0  0  0  0
    7.0064  -17.9851   21.2078 C   0  0  0  0  0  0  0  0  0  0  0  0
    6.4271  -18.5485   22.4799 C   0  0  0  0  0  0  0  0  0  0  0  0
    6.1977  -20.0336   22.2248 C   0  0  0  0  0  0  0  0  0  0  0  0
    5.5140  -20.6965   23.3956 C   0  0  0  0  0  0  0  0  0  0  0  0
    5.3475  -22.1025   23.0776 N   0  0  0  0  0  0  0  0  0  0  0  0
    8.0399  -16.2277   22.4910 C   0  0  0  0  0  0  0  0  0  0  0  0
    9.2743  -16.4292   22.4031 O   0  0  0  0  0  0  0  0  0  0  0  0
    7.7230  -14.3510   25.6714 C   0  0  0  0  0  0  0  0  0  0  0  0
    8.3713  -15.4016   24.8014 C   0  0  2  0  0  0  0  0  0  0  0  0
    7.5012  -15.7787   23.7049 N   0  0  0  0  0  0  0  0  0  0  0  0
    8.7319  -16.6148   25.5724 C   0  0  0  0  0  0  0  0  0  0  0  0
    9.6170  -16.5625   26.4624 O   0  0  0  0  0  0  0  0  0  0  0  0
    8.1220  -17.8410   25.3528 O   0  0  0  0  0  0  0  0  0  0  0  0
  2  1  1  0
  2  3  2  0
  4  2  1  0
  5  4  1  0
  6  5  1  0
  6  8  1  0
  6  7  1  1
  8  9  2  0
 10  8  1  0
 10 11  1  0
 11 17  1  0
 11 12  1  6
 12 13  1  0
 13 14  1  0
 14 15  1  0
 16 15  1  0
 17 18  2  0
 20 19  1  1
 21 20  1  0
 21 17  1  0
 22 24  1  0
 22 20  1  0
 23 22  2  0
M  END
$$$$
