QKA.pdb
     RDKit          3D

 24 23  0  0  1  0  0  0  0  0999 V2000
   13.7717  -20.9831   16.2037 N   0  0  0  0  0  0  0  0  0  0  0  0
   13.9117  -19.6015   16.4412 C   0  0  0  0  0  0  0  0  0  0  0  0
   14.7773  -19.2158   17.2693 O   0  0  0  0  0  0  0  0  0  0  0  0
   13.0364  -18.6148   15.7120 C   0  0  0  0  0  0  0  0  0  0  0  0
   12.1428  -17.9381   16.7141 C   0  0  0  0  0  0  0  0  0  0  0  0
   10.7553  -18.4598   16.7673 C   0  0  2  0  0  0  0  0  0  0  0  0
   10.0396  -17.9549   15.6108 N   0  0  0  0  0  0  0  0  0  0  0  0
    9.9935  -18.1064   17.9811 C   0  0  0  0  0  0  0  0  0  0  0  0
    9.1069  -17.2140   17.9988 O   0  0  0  0  0  0  0  0  0  0  0  0
   10.2201  -18.7690   19.2363 N   0  0  0  0  0  0  0  0  0  0  0  0
    9.4489  -18.5427   20.4150 C   0  0  1  0  0  0  0  0  0  0  0  0
    9.0556  -19.8194   21.1301 C   0  0  0  0  0  0  0  0  0  0  0  0
    9.4142  -21.0545   20.3445 C   0  0  0  0  0  0  0  0  0  0  0  0
    8.9476  -22.2423   21.1779 C   0  0  0  0  0  0  0  0  0  0  0  0
    9.1543  -23.5462   20.4465 C   0  0  0  0  0  0  0  0  0  0  0  0
    8.7009  -24.6197   21.3112 N   0  0  0  0  0  0  0  0  0  0  0  0
   10.3313  -17.7910   21.3783 C   0  0  0  0  0  0  0  0  0  0  0  0
   11.5663  -18.0035   21.3339 O   0  0  0  0  0  0  0  0  0  0  0  0
    9.9837  -14.9715   23.8293 C   0  0  0  0  0  0  0  0  0  0  0  0
   10.7228  -16.0907   23.1350 C   0  0  2  0  0  0  0  0  0  0  0  0
    9.8245  -16.8744   22.3100 N   0  0  0  0  0  0  0  0  0  0  0  0
   11.4020  -16.9886   24.0987 C   0  0  0  0  0  0  0  0  0  0  0  0
   10.8805  -18.0848   24.4222 O   0  0  0  0  0  0  0  0  0  0  0  0
   12.6209  -16.6682   24.6779 O   0  0  0  0  0  0  0  0  0  0  0  0
  2  1  1  0
  2  3  2  0
  4  2  1  0
  5  4  1  0
  6  5  1  0
  6  8  1  0
  6  7  1  6
  8  9  2  0
 10  8  1  0
 10 11  1  0
 11 17  1  0
 11 12  1  1
 12 13  1  0
 13 14  1  0
 14 15  1  0
 16 15  1  0
 17 18  2  0
 20 19  1  1
 21 20  1  0
 21 17  1  0
 22 24  1  0
 22 20  1  0
 23 22  2  0
M  END
$$$$
