QKA.pdb
     RDKit          3D

 24 23  0  0  1  0  0  0  0  0999 V2000
   10.5284  -15.8847   14.4400 N   0  0  0  0  0  0  0  0  0  0  0  0
   10.3482  -17.2327   14.0722 C   0  0  0  0  0  0  0  0  0  0  0  0
   10.8486  -17.6354   12.9899 O   0  0  0  0  0  0  0  0  0  0  0  0
    9.5698  -18.1644   14.9653 C   0  0  0  0  0  0  0  0  0  0  0  0
   10.4853  -19.2679   15.4174 C   0  0  0  0  0  0  0  0  0  0  0  0
   10.5179  -19.4923   16.8833 C   0  0  2  0  0  0  0  0  0  0  0  0
    9.1770  -19.8378   17.3158 N   0  0  0  0  0  0  0  0  0  0  0  0
   10.9896  -18.3480   17.6872 C   0  0  0  0  0  0  0  0  0  0  0  0
   12.1653  -17.9043   17.6249 O   0  0  0  0  0  0  0  0  0  0  0  0
   10.1234  -17.6594   18.6046 N   0  0  0  0  0  0  0  0  0  0  0  0
   10.5226  -16.5499   19.4076 C   0  0  1  0  0  0  0  0  0  0  0  0
    9.3720  -15.6429   19.7941 C   0  0  0  0  0  0  0  0  0  0  0  0
    9.0436  -14.6382   18.7199 C   0  0  0  0  0  0  0  0  0  0  0  0
    7.8429  -13.8475   19.2261 C   0  0  0  0  0  0  0  0  0  0  0  0
    7.4251  -12.7845   18.2396 C   0  0  0  0  0  0  0  0  0  0  0  0
    6.2570  -12.1116   18.7765 N   0  0  0  0  0  0  0  0  0  0  0  0
   11.0502  -17.1135   20.7021 C   0  0  0  0  0  0  0  0  0  0  0  0
   10.2606  -17.7660   21.4252 O   0  0  0  0  0  0  0  0  0  0  0  0
   13.5707  -18.8275   22.0925 C   0  0  0  0  0  0  0  0  0  0  0  0
   12.8454  -17.5292   22.3558 C   0  0  2  0  0  0  0  0  0  0  0  0
   12.3766  -16.9350   21.1194 N   0  0  0  0  0  0  0  0  0  0  0  0
   13.7002  -16.5511   23.0692 C   0  0  0  0  0  0  0  0  0  0  0  0
   14.1438  -15.5395   22.4708 O   0  0  0  0  0  0  0  0  0  0  0  0
   14.0443  -16.7026   24.4042 O   0  0  0  0  0  0  0  0  0  0  0  0
  2  1  1  0
  2  3  2  0
  4  2  1  0
  5  4  1  0
  6  5  1  0
  6  8  1  0
  6  7  1  1
  8  9  2  0
 10  8  1  0
 10 11  1  0
 11 17  1  0
 11 12  1  1
 12 13  1  0
 13 14  1  0
 14 15  1  0
 16 15  1  0
 17 18  2  0
 20 19  1  6
 21 20  1  0
 21 17  1  0
 22 24  1  0
 22 20  1  0
 23 22  2  0
M  END
$$$$
