QKA.pdb
     RDKit          3D

 24 23  0  0  1  0  0  0  0  0999 V2000
   13.5594  -21.2975   20.4265 N   0  0  0  0  0  0  0  0  0  0  0  0
   13.2556  -20.2386   19.5482 C   0  0  0  0  0  0  0  0  0  0  0  0
   14.2002  -19.6586   18.9522 O   0  0  0  0  0  0  0  0  0  0  0  0
   11.8242  -19.8179   19.3349 C   0  0  0  0  0  0  0  0  0  0  0  0
   10.9419  -20.6686   20.2058 C   0  0  0  0  0  0  0  0  0  0  0  0
    9.4858  -20.4683   20.0058 C   0  0  2  0  0  0  0  0  0  0  0  0
    9.3030  -19.2949   19.1725 N   0  0  0  0  0  0  0  0  0  0  0  0
    8.6966  -20.2939   21.2407 C   0  0  0  0  0  0  0  0  0  0  0  0
    8.4207  -19.1659   21.7248 O   0  0  0  0  0  0  0  0  0  0  0  0
    8.1866  -21.4175   21.9778 N   0  0  0  0  0  0  0  0  0  0  0  0
    7.3180  -21.3119   23.1046 C   0  0  1  0  0  0  0  0  0  0  0  0
    6.3498  -22.4710   23.2277 C   0  0  0  0  0  0  0  0  0  0  0  0
    5.4265  -22.3282   24.4103 C   0  0  0  0  0  0  0  0  0  0  0  0
    4.5406  -23.5685   24.4138 C   0  0  0  0  0  0  0  0  0  0  0  0
    3.5539  -23.5399   25.5555 C   0  0  0  0  0  0  0  0  0  0  0  0
    2.7423  -24.7400   25.4741 N   0  0  0  0  0  0  0  0  0  0  0  0
    8.1867  -21.3739   24.3347 C   0  0  0  0  0  0  0  0  0  0  0  0
    7.6214  -21.4179   25.4530 O   0  0  0  0  0  0  0  0  0  0  0  0
   10.3382  -22.8885   26.0395 C   0  0  0  0  0  0  0  0  0  0  0  0
   10.3779  -21.4854   25.4821 C   0  0  2  0  0  0  0  0  0  0  0  0
    9.5871  -21.3838   24.2714 N   0  0  0  0  0  0  0  0  0  0  0  0
   11.7624  -21.0418   25.1946 C   0  0  0  0  0  0  0  0  0  0  0  0
   12.2739  -21.2471   24.0657 O   0  0  0  0  0  0  0  0  0  0  0  0
   12.5436  -20.3920   26.1386 O   0  0  0  0  0  0  0  0  0  0  0  0
  2  1  1  0
  2  3  2  0
  4  2  1  0
  5  4  1  0
  6  5  1  0
  6  8  1  0
  6  7  1  6
  8  9  2  0
 10  8  1  0
 10 11  1  0
 11 17  1  0
 11 12  1  1
 12 13  1  0
 13 14  1  0
 14 15  1  0
 16 15  1  0
 17 18  2  0
 20 19  1  6
 21 20  1  0
 21 17  1  0
 22 24  1  0
 22 20  1  0
 23 22  2  0
M  END
$$$$
