QKA.pdb
     RDKit          3D

 24 23  0  0  1  0  0  0  0  0999 V2000
   11.3613  -16.6875   17.0825 N   0  0  0  0  0  0  0  0  0  0  0  0
   11.3252  -18.0400   16.6897 C   0  0  0  0  0  0  0  0  0  0  0  0
   12.1721  -18.4487   15.8533 O   0  0  0  0  0  0  0  0  0  0  0  0
   10.2884  -18.9693   17.2667 C   0  0  0  0  0  0  0  0  0  0  0  0
    9.5242  -18.2305   18.3301 C   0  0  0  0  0  0  0  0  0  0  0  0
    8.5396  -19.0510   19.0767 C   0  0  2  0  0  0  0  0  0  0  0  0
    7.5404  -19.5218   18.1363 N   0  0  0  0  0  0  0  0  0  0  0  0
    7.8519  -18.3598   20.1846 C   0  0  0  0  0  0  0  0  0  0  0  0
    7.8548  -17.1089   20.3197 O   0  0  0  0  0  0  0  0  0  0  0  0
    7.1256  -19.0825   21.1927 N   0  0  0  0  0  0  0  0  0  0  0  0
    6.3908  -18.4676   22.2498 C   0  0  1  0  0  0  0  0  0  0  0  0
    5.0767  -19.1597   22.5500 C   0  0  0  0  0  0  0  0  0  0  0  0
    4.0512  -18.9454   21.4666 C   0  0  0  0  0  0  0  0  0  0  0  0
    2.8169  -19.7367   21.8831 C   0  0  0  0  0  0  0  0  0  0  0  0
    1.6808  -19.5424   20.9088 C   0  0  0  0  0  0  0  0  0  0  0  0
    0.5655  -20.3559   21.3558 N   0  0  0  0  0  0  0  0  0  0  0  0
    7.2208  -18.6085   23.4998 C   0  0  0  0  0  0  0  0  0  0  0  0
    7.9050  -19.6502   23.6379 O   0  0  0  0  0  0  0  0  0  0  0  0
    8.2452  -16.5503   26.4526 C   0  0  0  0  0  0  0  0  0  0  0  0
    7.9932  -17.8506   25.7268 C   0  0  2  0  0  0  0  0  0  0  0  0
    7.2533  -17.6271   24.5003 N   0  0  0  0  0  0  0  0  0  0  0  0
    7.2537  -18.8211   26.5681 C   0  0  0  0  0  0  0  0  0  0  0  0
    6.0196  -18.9913   26.4063 O   0  0  0  0  0  0  0  0  0  0  0  0
    7.8760  -19.5724   27.5539 O   0  0  0  0  0  0  0  0  0  0  0  0
  2  1  1  0
  2  3  2  0
  4  2  1  0
  5  4  1  0
  6  5  1  0
  6  8  1  0
  6  7  1  6
  8  9  2  0
 10  8  1  0
 10 11  1  0
 11 17  1  0
 11 12  1  1
 12 13  1  0
 13 14  1  0
 14 15  1  0
 16 15  1  0
 17 18  2  0
 20 19  1  1
 21 20  1  0
 21 17  1  0
 22 24  1  0
 22 20  1  0
 23 22  2  0
M  END
$$$$
