QKA.pdb
     RDKit          3D

 24 23  0  0  1  0  0  0  0  0999 V2000
    6.8542  -13.2908   19.8240 N   0  0  0  0  0  0  0  0  0  0  0  0
    7.9498  -13.4517   18.9530 C   0  0  0  0  0  0  0  0  0  0  0  0
    8.3711  -12.4482   18.3209 O   0  0  0  0  0  0  0  0  0  0  0  0
    8.5960  -14.8034   18.7895 C   0  0  0  0  0  0  0  0  0  0  0  0
    7.8530  -15.7938   19.6424 C   0  0  0  0  0  0  0  0  0  0  0  0
    8.6991  -16.8393   20.2678 C   0  0  2  0  0  0  0  0  0  0  0  0
    7.8234  -17.8323   20.8608 N   0  0  0  0  0  0  0  0  0  0  0  0
    9.6335  -16.3594   21.3046 C   0  0  0  0  0  0  0  0  0  0  0  0
   10.5775  -15.5639   21.0619 O   0  0  0  0  0  0  0  0  0  0  0  0
    9.5218  -16.7765   22.6756 N   0  0  0  0  0  0  0  0  0  0  0  0
   10.4536  -16.4306   23.6991 C   0  0  1  0  0  0  0  0  0  0  0  0
   10.1416  -17.0702   25.0368 C   0  0  0  0  0  0  0  0  0  0  0  0
   11.1701  -16.7401   26.0878 C   0  0  0  0  0  0  0  0  0  0  0  0
   10.7926  -17.5471   27.3245 C   0  0  0  0  0  0  0  0  0  0  0  0
   11.6989  -17.2307   28.4891 C   0  0  0  0  0  0  0  0  0  0  0  0
   11.3759  -18.1463   29.5675 N   0  0  0  0  0  0  0  0  0  0  0  0
   11.7898  -16.9890   23.2818 C   0  0  0  0  0  0  0  0  0  0  0  0
   11.8026  -18.0592   22.6285 O   0  0  0  0  0  0  0  0  0  0  0  0
   14.1782  -16.6566   21.4775 C   0  0  0  0  0  0  0  0  0  0  0  0
   14.2400  -16.7992   22.9798 C   0  0  2  0  0  0  0  0  0  0  0  0
   13.0030  -16.3604   23.5954 N   0  0  0  0  0  0  0  0  0  0  0  0
   15.3684  -16.0361   23.5635 C   0  0  0  0  0  0  0  0  0  0  0  0
   15.1544  -15.1342   24.4114 O   0  0  0  0  0  0  0  0  0  0  0  0
   16.6876  -16.2763   23.2089 O   0  0  0  0  0  0  0  0  0  0  0  0
  2  1  1  0
  2  3  2  0
  4  2  1  0
  5  4  1  0
  6  5  1  0
  6  8  1  0
  6  7  1  1
  8  9  2  0
 10  8  1  0
 10 11  1  0
 11 17  1  0
 11 12  1  1
 12 13  1  0
 13 14  1  0
 14 15  1  0
 16 15  1  0
 17 18  2  0
 20 19  1  6
 21 20  1  0
 21 17  1  0
 22 24  1  0
 22 20  1  0
 23 22  2  0
M  END
$$$$
