QKA.pdb
     RDKit          3D

 24 23  0  0  1  0  0  0  0  0999 V2000
   13.1750  -20.3208   13.7871 N   0  0  0  0  0  0  0  0  0  0  0  0
   12.4566  -21.2367   14.5808 C   0  0  0  0  0  0  0  0  0  0  0  0
   12.0070  -22.2809   14.0408 O   0  0  0  0  0  0  0  0  0  0  0  0
   12.2372  -20.9605   16.0461 C   0  0  0  0  0  0  0  0  0  0  0  0
   13.5690  -20.6742   16.6824 C   0  0  0  0  0  0  0  0  0  0  0  0
   13.5258  -20.4454   18.1473 C   0  0  2  0  0  0  0  0  0  0  0  0
   13.0702  -21.6684   18.7808 N   0  0  0  0  0  0  0  0  0  0  0  0
   12.6567  -19.3370   18.5884 C   0  0  0  0  0  0  0  0  0  0  0  0
   12.8441  -18.1408   18.2465 O   0  0  0  0  0  0  0  0  0  0  0  0
   11.5262  -19.5580   19.4480 N   0  0  0  0  0  0  0  0  0  0  0  0
   10.6403  -18.5309   19.8904 C   0  0  1  0  0  0  0  0  0  0  0  0
    9.1820  -18.9409   19.8602 C   0  0  0  0  0  0  0  0  0  0  0  0
    8.5852  -18.8485   18.4795 C   0  0  0  0  0  0  0  0  0  0  0  0
    7.1252  -19.2642   18.6154 C   0  0  0  0  0  0  0  0  0  0  0  0
    6.4106  -19.2165   17.2870 C   0  0  0  0  0  0  0  0  0  0  0  0
    5.0545  -19.6902   17.4923 N   0  0  0  0  0  0  0  0  0  0  0  0
   10.9608  -18.2705   21.3399 C   0  0  0  0  0  0  0  0  0  0  0  0
   11.2306  -19.2543   22.0691 O   0  0  0  0  0  0  0  0  0  0  0  0
   11.6789  -15.3707   23.5815 C   0  0  0  0  0  0  0  0  0  0  0  0
   11.2392  -16.7886   23.3038 C   0  0  2  0  0  0  0  0  0  0  0  0
   10.9673  -16.9824   21.8931 N   0  0  0  0  0  0  0  0  0  0  0  0
   10.0349  -17.1588   24.0842 C   0  0  0  0  0  0  0  0  0  0  0  0
   10.0893  -17.2397   25.3366 O   0  0  0  0  0  0  0  0  0  0  0  0
    8.8151  -17.4280   23.4814 O   0  0  0  0  0  0  0  0  0  0  0  0
  2  1  1  0
  2  3  2  0
  4  2  1  0
  5  4  1  0
  6  5  1  0
  6  8  1  0
  6  7  1  1
  8  9  2  0
 10  8  1  0
 10 11  1  0
 11 17  1  0
 11 12  1  1
 12 13  1  0
 13 14  1  0
 14 15  1  0
 16 15  1  0
 17 18  2  0
 20 19  1  6
 21 20  1  0
 21 17  1  0
 22 24  1  0
 22 20  1  0
 23 22  2  0
M  END
$$$$
