QKA.pdb
     RDKit          3D

 24 23  0  0  1  0  0  0  0  0999 V2000
   11.8538  -14.6397   20.9080 N   0  0  0  0  0  0  0  0  0  0  0  0
   11.9535  -14.0763   19.6206 C   0  0  0  0  0  0  0  0  0  0  0  0
   12.9959  -14.2879   18.9478 O   0  0  0  0  0  0  0  0  0  0  0  0
   10.8276  -13.2387   19.0707 C   0  0  0  0  0  0  0  0  0  0  0  0
    9.7337  -13.1746   20.1000 C   0  0  0  0  0  0  0  0  0  0  0  0
    8.7514  -14.2843   20.0386 C   0  0  2  0  0  0  0  0  0  0  0  0
    7.8415  -14.0199   18.9400 N   0  0  0  0  0  0  0  0  0  0  0  0
    7.9573  -14.4939   21.2648 C   0  0  0  0  0  0  0  0  0  0  0  0
    6.8816  -13.8844   21.4979 O   0  0  0  0  0  0  0  0  0  0  0  0
    8.3689  -15.4203   22.2838 N   0  0  0  0  0  0  0  0  0  0  0  0
    7.6348  -15.6778   23.4797 C   0  0  1  0  0  0  0  0  0  0  0  0
    7.3630  -17.1501   23.7127 C   0  0  0  0  0  0  0  0  0  0  0  0
    6.3361  -17.7051   22.7593 C   0  0  0  0  0  0  0  0  0  0  0  0
    6.2684  -19.2038   23.0281 C   0  0  0  0  0  0  0  0  0  0  0  0
    5.2855  -19.8866   22.1086 C   0  0  0  0  0  0  0  0  0  0  0  0
    5.3793  -21.3164   22.3374 N   0  0  0  0  0  0  0  0  0  0  0  0
    8.5028  -15.2363   24.6300 C   0  0  0  0  0  0  0  0  0  0  0  0
    9.7088  -15.5792   24.6229 O   0  0  0  0  0  0  0  0  0  0  0  0
    8.2630  -12.9029   27.5514 C   0  0  0  0  0  0  0  0  0  0  0  0
    8.9059  -14.0007   26.7374 C   0  0  2  0  0  0  0  0  0  0  0  0
    8.0134  -14.4654   25.6938 N   0  0  0  0  0  0  0  0  0  0  0  0
    9.3076  -15.1526   27.5790 C   0  0  0  0  0  0  0  0  0  0  0  0
    8.6323  -16.2118   27.5706 O   0  0  0  0  0  0  0  0  0  0  0  0
   10.4253  -15.1169   28.3994 O   0  0  0  0  0  0  0  0  0  0  0  0
  2  1  1  0
  2  3  2  0
  4  2  1  0
  5  4  1  0
  6  5  1  0
  6  8  1  0
  6  7  1  6
  8  9  2  0
 10  8  1  0
 10 11  1  0
 11 17  1  0
 11 12  1  1
 12 13  1  0
 13 14  1  0
 14 15  1  0
 16 15  1  0
 17 18  2  0
 20 19  1  1
 21 20  1  0
 21 17  1  0
 22 24  1  0
 22 20  1  0
 23 22  2  0
M  END
$$$$
