GQR.pdb
     RDKit          3D

 25 24  0  0  1  0  0  0  0  0999 V2000
    6.7399  -20.0427   20.1755 N   0  0  0  0  0  0  0  0  0  0  0  0
    6.1185  -18.7531   20.4952 C   0  0  0  0  0  0  0  0  0  0  0  0
    7.1715  -17.8103   20.9828 C   0  0  0  0  0  0  0  0  0  0  0  0
    8.3142  -18.2300   21.2195 O   0  0  0  0  0  0  0  0  0  0  0  0
    7.2879  -11.7836   19.7338 N   0  0  0  0  0  0  0  0  0  0  0  0
    7.6440  -12.8426   18.8846 C   0  0  0  0  0  0  0  0  0  0  0  0
    7.7547  -12.7011   17.6604 O   0  0  0  0  0  0  0  0  0  0  0  0
    7.8974  -14.1947   19.4993 C   0  0  0  0  0  0  0  0  0  0  0  0
    7.5576  -14.1593   20.9497 C   0  0  0  0  0  0  0  0  0  0  0  0
    7.7959  -15.4451   21.6572 C   0  0  2  0  0  0  0  0  0  0  0  0
    6.8406  -16.4537   21.1649 N   0  0  0  0  0  0  0  0  0  0  0  0
    7.6670  -15.4268   23.1194 C   0  0  0  0  0  0  0  0  0  0  0  0
    6.4959  -15.3909   23.6366 O   0  0  0  0  0  0  0  0  0  0  0  0
    6.2344  -22.2838   26.2675 N   0  0  0  0  0  0  0  0  0  0  0  0
    6.4893  -21.5894   27.5071 C   0  0  0  0  0  0  0  0  0  0  0  0
    6.1789  -22.1311   28.6118 N   0  0  0  0  0  0  0  0  0  0  0  0
    7.0859  -20.3068   27.4270 N   0  0  0  0  0  0  0  0  0  0  0  0
    7.2707  -19.6284   26.1549 C   0  0  0  0  0  0  0  0  0  0  0  0
    7.8300  -18.2766   26.3392 C   0  0  0  0  0  0  0  0  0  0  0  0
    8.0428  -17.3585   25.2313 C   0  0  0  0  0  0  0  0  0  0  0  0
    8.5302  -15.9629   25.4257 C   0  0  2  0  0  0  0  0  0  0  0  0
    8.7417  -15.4534   24.0161 N   0  0  0  0  0  0  0  0  0  0  0  0
    9.8288  -15.7944   26.0980 C   0  0  0  0  0  0  0  0  0  0  0  0
   10.9115  -15.7083   25.5054 O   0  0  0  0  0  0  0  0  0  0  0  0
    9.8726  -15.7221   27.5030 O   0  0  0  0  0  0  0  0  0  0  0  0
  2  1  1  0
  3  4  2  0
  3  2  1  0
  5  6  1  0
  6  7  2  0
  8  6  1  0
  8  9  1  0
 10  9  1  6
 10 12  1  0
 10 11  1  0
 11  3  1  0
 12 22  1  0
 13 12  2  0
 15 14  1  0
 16 15  2  0
 17 15  1  0
 18 19  1  0
 18 17  1  0
 20 19  1  0
 21 20  1  6
 22 21  1  0
 23 25  1  0
 23 21  1  0
 24 23  2  0
M  END
$$$$
