GQR.pdb
     RDKit          3D

 25 24  0  0  1  0  0  0  0  0999 V2000
   10.0318  -17.2823   17.0897 N   0  0  0  0  0  0  0  0  0  0  0  0
   10.2415  -17.9338   18.3870 C   0  0  0  0  0  0  0  0  0  0  0  0
   10.6994  -16.9128   19.3787 C   0  0  0  0  0  0  0  0  0  0  0  0
   11.0237  -15.7797   18.9930 O   0  0  0  0  0  0  0  0  0  0  0  0
   12.7313  -16.9625   26.2100 N   0  0  0  0  0  0  0  0  0  0  0  0
   11.5396  -16.9780   25.4691 C   0  0  0  0  0  0  0  0  0  0  0  0
   10.5776  -17.6926   25.7774 O   0  0  0  0  0  0  0  0  0  0  0  0
   11.4421  -16.0879   24.2574 C   0  0  0  0  0  0  0  0  0  0  0  0
   10.8617  -16.8522   23.1175 C   0  0  0  0  0  0  0  0  0  0  0  0
   11.3189  -16.3849   21.7821 C   0  0  2  0  0  0  0  0  0  0  0  0
   10.7538  -17.2627   20.7416 N   0  0  0  0  0  0  0  0  0  0  0  0
   12.7691  -16.3505   21.5566 C   0  0  0  0  0  0  0  0  0  0  0  0
   13.3893  -17.4519   21.3509 O   0  0  0  0  0  0  0  0  0  0  0  0
   18.3336  -12.3295   18.4130 N   0  0  0  0  0  0  0  0  0  0  0  0
   17.9638  -12.9637   17.1700 C   0  0  0  0  0  0  0  0  0  0  0  0
   18.8479  -13.1954   16.2897 N   0  0  0  0  0  0  0  0  0  0  0  0
   16.6000  -13.3026   16.9896 N   0  0  0  0  0  0  0  0  0  0  0  0
   15.6389  -13.2064   18.0757 C   0  0  0  0  0  0  0  0  0  0  0  0
   16.0686  -13.9891   19.2490 C   0  0  0  0  0  0  0  0  0  0  0  0
   15.3150  -14.0152   20.4929 C   0  0  0  0  0  0  0  0  0  0  0  0
   15.0263  -15.2775   21.2319 C   0  0  2  0  0  0  0  0  0  0  0  0
   13.5471  -15.1867   21.5398 N   0  0  0  0  0  0  0  0  0  0  0  0
   15.6840  -15.4553   22.5366 C   0  0  0  0  0  0  0  0  0  0  0  0
   15.1388  -15.2340   23.6250 O   0  0  0  0  0  0  0  0  0  0  0  0
   17.0168  -15.9057   22.5803 O   0  0  0  0  0  0  0  0  0  0  0  0
  2  1  1  0
  3  4  2  0
  3  2  1  0
  5  6  1  0
  6  7  2  0
  8  6  1  0
  8  9  1  0
 10  9  1  1
 10 12  1  0
 10 11  1  0
 11  3  1  0
 12 22  1  0
 13 12  2  0
 15 14  1  0
 16 15  2  0
 17 15  1  0
 18 19  1  0
 18 17  1  0
 20 19  1  0
 21 20  1  1
 22 21  1  0
 23 25  1  0
 23 21  1  0
 24 23  2  0
M  END
$$$$
