GQR.pdb
     RDKit          3D

 25 24  0  0  1  0  0  0  0  0999 V2000
    8.0573  -13.0211   19.0118 N   0  0  0  0  0  0  0  0  0  0  0  0
    7.2818  -13.6768   20.0701 C   0  0  0  0  0  0  0  0  0  0  0  0
    8.1269  -13.7877   21.2985 C   0  0  0  0  0  0  0  0  0  0  0  0
    9.3522  -13.6123   21.2227 O   0  0  0  0  0  0  0  0  0  0  0  0
    6.5298  -10.9032   26.8467 N   0  0  0  0  0  0  0  0  0  0  0  0
    6.2515  -12.1637   26.2960 C   0  0  0  0  0  0  0  0  0  0  0  0
    5.5636  -13.0065   26.8855 O   0  0  0  0  0  0  0  0  0  0  0  0
    6.8174  -12.4888   24.9380 C   0  0  0  0  0  0  0  0  0  0  0  0
    7.3155  -13.8930   24.9239 C   0  0  0  0  0  0  0  0  0  0  0  0
    8.2420  -14.1938   23.8006 C   0  0  2  0  0  0  0  0  0  0  0  0
    7.5083  -14.0920   22.5264 N   0  0  0  0  0  0  0  0  0  0  0  0
    8.8818  -15.5150   23.8094 C   0  0  0  0  0  0  0  0  0  0  0  0
    8.1495  -16.5576   23.6788 O   0  0  0  0  0  0  0  0  0  0  0  0
   13.2694  -13.8394   20.5407 N   0  0  0  0  0  0  0  0  0  0  0  0
   13.4951  -14.8264   19.5118 C   0  0  0  0  0  0  0  0  0  0  0  0
   13.5598  -14.4700   18.2957 N   0  0  0  0  0  0  0  0  0  0  0  0
   13.6349  -16.1759   19.9202 N   0  0  0  0  0  0  0  0  0  0  0  0
   13.7080  -16.5456   21.3239 C   0  0  0  0  0  0  0  0  0  0  0  0
   12.3652  -16.7096   21.9105 C   0  0  0  0  0  0  0  0  0  0  0  0
   12.1558  -17.0008   23.3201 C   0  0  0  0  0  0  0  0  0  0  0  0
   10.7977  -17.1488   23.9175 C   0  0  2  0  0  0  0  0  0  0  0  0
   10.2577  -15.7350   23.9442 N   0  0  0  0  0  0  0  0  0  0  0  0
   10.7263  -17.6178   25.3109 C   0  0  0  0  0  0  0  0  0  0  0  0
   10.4893  -16.8848   26.2790 O   0  0  0  0  0  0  0  0  0  0  0  0
   10.9351  -18.9815   25.5901 O   0  0  0  0  0  0  0  0  0  0  0  0
  2  1  1  0
  3  4  2  0
  3  2  1  0
  5  6  1  0
  6  7  2  0
  8  6  1  0
  8  9  1  0
 10  9  1  1
 10 12  1  0
 10 11  1  0
 11  3  1  0
 12 22  1  0
 13 12  2  0
 15 14  1  0
 16 15  2  0
 17 15  1  0
 18 19  1  0
 18 17  1  0
 20 19  1  0
 21 20  1  1
 22 21  1  0
 23 25  1  0
 23 21  1  0
 24 23  2  0
M  END
$$$$
