GQR.pdb
     RDKit          3D

 25 24  0  0  1  0  0  0  0  0999 V2000
   -7.4274  -78.8025  -13.6206 N   0  0  0  0  0  0  0  0  0  0  0  0
   -6.5326  -79.3079  -14.6672 C   0  0  0  0  0  0  0  0  0  0  0  0
   -7.2837  -80.2711  -15.5295 C   0  0  0  0  0  0  0  0  0  0  0  0
   -8.4550  -80.5667  -15.2495 O   0  0  0  0  0  0  0  0  0  0  0  0
  -11.3687  -82.0571  -17.5631 N   0  0  0  0  0  0  0  0  0  0  0  0
  -10.4114  -81.2839  -16.8884 C   0  0  0  0  0  0  0  0  0  0  0  0
  -10.5054  -80.0544  -16.7869 O   0  0  0  0  0  0  0  0  0  0  0  0
   -9.2322  -81.9895  -16.2706 C   0  0  0  0  0  0  0  0  0  0  0  0
   -8.2981  -82.4393  -17.3409 C   0  0  0  0  0  0  0  0  0  0  0  0
   -7.3627  -81.3827  -17.8092 C   0  0  2  0  0  0  0  0  0  0  0  0
   -6.6393  -80.8276  -16.6512 N   0  0  0  0  0  0  0  0  0  0  0  0
   -7.9574  -80.2417  -18.5158 C   0  0  0  0  0  0  0  0  0  0  0  0
   -8.6664  -80.4618  -19.5594 O   0  0  0  0  0  0  0  0  0  0  0  0
  -11.8182  -76.3658  -22.5996 N   0  0  0  0  0  0  0  0  0  0  0  0
  -12.9877  -77.0962  -22.1719 C   0  0  0  0  0  0  0  0  0  0  0  0
  -14.1388  -76.7343  -22.5643 N   0  0  0  0  0  0  0  0  0  0  0  0
  -12.7876  -78.2060  -21.3141 N   0  0  0  0  0  0  0  0  0  0  0  0
  -12.0683  -78.0802  -20.0575 C   0  0  0  0  0  0  0  0  0  0  0  0
  -10.6527  -77.7309  -20.2772 C   0  0  0  0  0  0  0  0  0  0  0  0
   -9.5587  -78.4753  -19.6732 C   0  0  0  0  0  0  0  0  0  0  0  0
   -8.4128  -77.8088  -18.9907 C   0  0  2  0  0  0  0  0  0  0  0  0
   -7.8172  -78.9030  -18.1310 N   0  0  0  0  0  0  0  0  0  0  0  0
   -8.7323  -76.7144  -18.0597 C   0  0  0  0  0  0  0  0  0  0  0  0
   -8.4554  -75.5260  -18.2639 O   0  0  0  0  0  0  0  0  0  0  0  0
   -9.3958  -77.0079  -16.8536 O   0  0  0  0  0  0  0  0  0  0  0  0
  2  1  1  0
  3  4  2  0
  3  2  1  0
  5  6  1  0
  6  7  2  0
  8  6  1  0
  8  9  1  0
 10  9  1  1
 10 12  1  0
 10 11  1  0
 11  3  1  0
 12 22  1  0
 13 12  2  0
 15 14  1  0
 16 15  2  0
 17 15  1  0
 18 19  1  0
 18 17  1  0
 20 19  1  0
 21 20  1  1
 22 21  1  0
 23 25  1  0
 23 21  1  0
 24 23  2  0
M  END
$$$$
