GQR.pdb
     RDKit          3D

 25 24  0  0  1  0  0  0  0  0999 V2000
    6.7131  -18.4205   17.6424 N   0  0  0  0  0  0  0  0  0  0  0  0
    6.2516  -17.7679   18.8723 C   0  0  0  0  0  0  0  0  0  0  0  0
    7.3959  -17.0353   19.4962 C   0  0  0  0  0  0  0  0  0  0  0  0
    8.5508  -17.4673   19.3645 O   0  0  0  0  0  0  0  0  0  0  0  0
    8.4765  -13.2538   17.5162 N   0  0  0  0  0  0  0  0  0  0  0  0
    8.6501  -12.9828   18.8821 C   0  0  0  0  0  0  0  0  0  0  0  0
    9.7651  -12.7886   19.3821 O   0  0  0  0  0  0  0  0  0  0  0  0
    7.4262  -12.9296   19.7593 C   0  0  0  0  0  0  0  0  0  0  0  0
    7.6897  -13.6541   21.0344 C   0  0  0  0  0  0  0  0  0  0  0  0
    8.1920  -15.0411   20.8483 C   0  0  2  0  0  0  0  0  0  0  0  0
    7.1357  -15.8600   20.2269 N   0  0  0  0  0  0  0  0  0  0  0  0
    8.6173  -15.7561   22.0577 C   0  0  0  0  0  0  0  0  0  0  0  0
    7.7237  -16.1882   22.8671 O   0  0  0  0  0  0  0  0  0  0  0  0
   12.9808  -21.4845   22.6522 N   0  0  0  0  0  0  0  0  0  0  0  0
   13.5460  -21.0200   21.4077 C   0  0  0  0  0  0  0  0  0  0  0  0
   14.5281  -21.6345   20.8899 N   0  0  0  0  0  0  0  0  0  0  0  0
   12.9637  -19.8734   20.8130 N   0  0  0  0  0  0  0  0  0  0  0  0
   12.9396  -18.5890   21.4929 C   0  0  0  0  0  0  0  0  0  0  0  0
   11.9325  -18.5659   22.5696 C   0  0  0  0  0  0  0  0  0  0  0  0
   11.6434  -17.3710   23.3471 C   0  0  0  0  0  0  0  0  0  0  0  0
   10.2539  -16.8932   23.6005 C   0  0  2  0  0  0  0  0  0  0  0  0
    9.9482  -16.0176   22.4043 N   0  0  0  0  0  0  0  0  0  0  0  0
   10.0457  -16.0315   24.7755 C   0  0  0  0  0  0  0  0  0  0  0  0
   10.0044  -14.7957   24.7316 O   0  0  0  0  0  0  0  0  0  0  0  0
    9.8786  -16.6224   26.0420 O   0  0  0  0  0  0  0  0  0  0  0  0
  2  1  1  0
  3  4  2  0
  3  2  1  0
  5  6  1  0
  6  7  2  0
  8  6  1  0
  8  9  1  0
 10  9  1  1
 10 12  1  0
 10 11  1  0
 11  3  1  0
 12 22  1  0
 13 12  2  0
 15 14  1  0
 16 15  2  0
 17 15  1  0
 18 19  1  0
 18 17  1  0
 20 19  1  0
 21 20  1  6
 22 21  1  0
 23 25  1  0
 23 21  1  0
 24 23  2  0
M  END
$$$$
