GQR.pdb
     RDKit          3D

 25 24  0  0  1  0  0  0  0  0999 V2000
    7.9729  -13.1163   18.3575 N   0  0  0  0  0  0  0  0  0  0  0  0
    7.1343  -13.4392   19.5167 C   0  0  0  0  0  0  0  0  0  0  0  0
    7.9929  -13.5022   20.7391 C   0  0  0  0  0  0  0  0  0  0  0  0
    9.2274  -13.4593   20.6293 O   0  0  0  0  0  0  0  0  0  0  0  0
    5.6675  -12.3988   26.3734 N   0  0  0  0  0  0  0  0  0  0  0  0
    6.9859  -12.6891   26.7567 C   0  0  0  0  0  0  0  0  0  0  0  0
    7.3884  -12.5309   27.9160 O   0  0  0  0  0  0  0  0  0  0  0  0
    7.9342  -13.2112   25.7087 C   0  0  0  0  0  0  0  0  0  0  0  0
    7.2699  -13.1921   24.3751 C   0  0  0  0  0  0  0  0  0  0  0  0
    8.1274  -13.6878   23.2662 C   0  0  2  0  0  0  0  0  0  0  0  0
    7.3762  -13.6101   22.0005 N   0  0  0  0  0  0  0  0  0  0  0  0
    8.6166  -15.0674   23.3773 C   0  0  0  0  0  0  0  0  0  0  0  0
    7.7818  -16.0312   23.2570 O   0  0  0  0  0  0  0  0  0  0  0  0
   14.8123  -15.9374   20.8328 N   0  0  0  0  0  0  0  0  0  0  0  0
   14.1016  -15.2521   19.7796 C   0  0  0  0  0  0  0  0  0  0  0  0
   14.6924  -14.3663   19.0894 N   0  0  0  0  0  0  0  0  0  0  0  0
   12.7476  -15.6099   19.5648 N   0  0  0  0  0  0  0  0  0  0  0  0
   12.1410  -16.7449   20.2402 C   0  0  0  0  0  0  0  0  0  0  0  0
   11.6583  -16.3793   21.5846 C   0  0  0  0  0  0  0  0  0  0  0  0
   10.8158  -17.2580   22.3808 C   0  0  0  0  0  0  0  0  0  0  0  0
   10.3230  -16.8866   23.7382 C   0  0  2  0  0  0  0  0  0  0  0  0
    9.9512  -15.4257   23.6014 N   0  0  0  0  0  0  0  0  0  0  0  0
   11.2962  -16.9377   24.8413 C   0  0  0  0  0  0  0  0  0  0  0  0
   11.5855  -15.9711   25.5573 O   0  0  0  0  0  0  0  0  0  0  0  0
   11.9539  -18.1496   25.1238 O   0  0  0  0  0  0  0  0  0  0  0  0
  2  1  1  0
  3  4  2  0
  3  2  1  0
  5  6  1  0
  6  7  2  0
  8  6  1  0
  8  9  1  0
 10  9  1  1
 10 12  1  0
 10 11  1  0
 11  3  1  0
 12 22  1  0
 13 12  2  0
 15 14  1  0
 16 15  2  0
 17 15  1  0
 18 19  1  0
 18 17  1  0
 20 19  1  0
 21 20  1  6
 22 21  1  0
 23 25  1  0
 23 21  1  0
 24 23  2  0
M  END
$$$$
