GQR.pdb
     RDKit          3D

 25 24  0  0  1  0  0  0  0  0999 V2000
   10.9600  -19.1710   16.7964 N   0  0  0  0  0  0  0  0  0  0  0  0
   12.2674  -19.1751   17.4614 C   0  0  0  0  0  0  0  0  0  0  0  0
   12.0644  -19.2848   18.9386 C   0  0  0  0  0  0  0  0  0  0  0  0
   10.9173  -19.2495   19.4084 O   0  0  0  0  0  0  0  0  0  0  0  0
   15.6708  -20.1455   25.1993 N   0  0  0  0  0  0  0  0  0  0  0  0
   15.6340  -20.2467   23.8001 C   0  0  0  0  0  0  0  0  0  0  0  0
   16.6234  -20.0172   23.0934 O   0  0  0  0  0  0  0  0  0  0  0  0
   14.3366  -20.6500   23.1486 C   0  0  0  0  0  0  0  0  0  0  0  0
   14.3592  -20.2726   21.7073 C   0  0  0  0  0  0  0  0  0  0  0  0
   13.0988  -19.6467   21.2272 C   0  0  2  0  0  0  0  0  0  0  0  0
   13.1901  -19.4269   19.7726 N   0  0  0  0  0  0  0  0  0  0  0  0
   12.7359  -18.3548   21.8226 C   0  0  0  0  0  0  0  0  0  0  0  0
   13.0802  -17.2780   21.2209 O   0  0  0  0  0  0  0  0  0  0  0  0
    7.0498  -13.9964   19.1077 N   0  0  0  0  0  0  0  0  0  0  0  0
    7.8364  -13.0327   19.8402 C   0  0  0  0  0  0  0  0  0  0  0  0
    7.6852  -11.7924   19.6188 N   0  0  0  0  0  0  0  0  0  0  0  0
    8.7610  -13.5312   20.7910 N   0  0  0  0  0  0  0  0  0  0  0  0
    9.0728  -14.9477   20.8835 C   0  0  0  0  0  0  0  0  0  0  0  0
    9.9890  -15.2278   22.0043 C   0  0  0  0  0  0  0  0  0  0  0  0
   10.4559  -16.5690   22.3189 C   0  0  0  0  0  0  0  0  0  0  0  0
   11.4631  -16.8406   23.3842 C   0  0  2  0  0  0  0  0  0  0  0  0
   12.0219  -18.1984   23.0166 N   0  0  0  0  0  0  0  0  0  0  0  0
   10.9603  -16.9873   24.7598 C   0  0  0  0  0  0  0  0  0  0  0  0
   10.5879  -18.0595   25.2522 O   0  0  0  0  0  0  0  0  0  0  0  0
   10.8886  -15.8541   25.5914 O   0  0  0  0  0  0  0  0  0  0  0  0
  2  1  1  0
  3  4  2  0
  3  2  1  0
  5  6  1  0
  6  7  2  0
  8  6  1  0
  8  9  1  0
 10  9  1  1
 10 12  1  0
 10 11  1  0
 11  3  1  0
 12 22  1  0
 13 12  2  0
 15 14  1  0
 16 15  2  0
 17 15  1  0
 18 19  1  0
 18 17  1  0
 20 19  1  0
 21 20  1  6
 22 21  1  0
 23 25  1  0
 23 21  1  0
 24 23  2  0
M  END
$$$$
