GQR.pdb
     RDKit          3D

 25 24  0  0  1  0  0  0  0  0999 V2000
    3.8696  -19.4891   21.5021 N   0  0  0  0  0  0  0  0  0  0  0  0
    3.9752  -18.0480   21.7543 C   0  0  0  0  0  0  0  0  0  0  0  0
    5.4195  -17.6639   21.7990 C   0  0  0  0  0  0  0  0  0  0  0  0
    6.2829  -18.5308   22.0015 O   0  0  0  0  0  0  0  0  0  0  0  0
    7.3605  -12.2797   19.3829 N   0  0  0  0  0  0  0  0  0  0  0  0
    7.5298  -13.4364   18.6065 C   0  0  0  0  0  0  0  0  0  0  0  0
    7.6962  -13.3929   17.3812 O   0  0  0  0  0  0  0  0  0  0  0  0
    7.5055  -14.7722   19.3031 C   0  0  0  0  0  0  0  0  0  0  0  0
    7.2138  -14.5787   20.7515 C   0  0  0  0  0  0  0  0  0  0  0  0
    7.1667  -15.8432   21.5322 C   0  0  2  0  0  0  0  0  0  0  0  0
    5.7721  -16.3139   21.6089 N   0  0  0  0  0  0  0  0  0  0  0  0
    7.6640  -15.7851   22.9121 C   0  0  0  0  0  0  0  0  0  0  0  0
    6.8279  -15.5953   23.8634 O   0  0  0  0  0  0  0  0  0  0  0  0
   12.5563  -19.9660   28.9807 N   0  0  0  0  0  0  0  0  0  0  0  0
   11.1816  -19.5302   28.9150 C   0  0  0  0  0  0  0  0  0  0  0  0
   10.3088  -20.0741   29.6584 N   0  0  0  0  0  0  0  0  0  0  0  0
   10.8675  -18.4939   28.0014 N   0  0  0  0  0  0  0  0  0  0  0  0
   10.6832  -18.7552   26.5836 C   0  0  0  0  0  0  0  0  0  0  0  0
    9.3306  -18.3762   26.1352 C   0  0  0  0  0  0  0  0  0  0  0  0
    9.0881  -17.6654   24.8895 C   0  0  0  0  0  0  0  0  0  0  0  0
    9.3578  -16.2077   24.7298 C   0  0  2  0  0  0  0  0  0  0  0  0
    9.0058  -15.9306   23.2840 N   0  0  0  0  0  0  0  0  0  0  0  0
   10.7531  -15.7641   24.8814 C   0  0  0  0  0  0  0  0  0  0  0  0
   11.2272  -15.3097   25.9300 O   0  0  0  0  0  0  0  0  0  0  0  0
   11.6270  -15.8518   23.7815 O   0  0  0  0  0  0  0  0  0  0  0  0
  2  1  1  0
  3  4  2  0
  3  2  1  0
  5  6  1  0
  6  7  2  0
  8  6  1  0
  8  9  1  0
 10  9  1  1
 10 12  1  0
 10 11  1  0
 11  3  1  0
 12 22  1  0
 13 12  2  0
 15 14  1  0
 16 15  2  0
 17 15  1  0
 18 19  1  0
 18 17  1  0
 20 19  1  0
 21 20  1  6
 22 21  1  0
 23 25  1  0
 23 21  1  0
 24 23  2  0
M  END
$$$$
