GQR.pdb
     RDKit          3D

 25 24  0  0  1  0  0  0  0  0999 V2000
    7.3843  -20.0363   17.7013 N   0  0  0  0  0  0  0  0  0  0  0  0
    8.8218  -19.8442   17.9204 C   0  0  0  0  0  0  0  0  0  0  0  0
    9.0592  -19.5320   19.3632 C   0  0  0  0  0  0  0  0  0  0  0  0
    8.3220  -18.7255   19.9498 O   0  0  0  0  0  0  0  0  0  0  0  0
   11.5289  -24.6611   22.4135 N   0  0  0  0  0  0  0  0  0  0  0  0
   11.4380  -23.3578   22.9260 C   0  0  0  0  0  0  0  0  0  0  0  0
   12.0827  -22.9891   23.9157 O   0  0  0  0  0  0  0  0  0  0  0  0
   10.5183  -22.3835   22.2368 C   0  0  0  0  0  0  0  0  0  0  0  0
   11.2545  -21.1231   21.9371 C   0  0  0  0  0  0  0  0  0  0  0  0
   10.3835  -20.0106   21.4742 C   0  0  2  0  0  0  0  0  0  0  0  0
   10.1244  -20.1657   20.0315 N   0  0  0  0  0  0  0  0  0  0  0  0
   10.8981  -18.6486   21.6617 C   0  0  0  0  0  0  0  0  0  0  0  0
   11.7927  -18.2092   20.8573 O   0  0  0  0  0  0  0  0  0  0  0  0
    7.3681  -13.4866   17.8702 N   0  0  0  0  0  0  0  0  0  0  0  0
    7.6170  -13.2529   19.2728 C   0  0  0  0  0  0  0  0  0  0  0  0
    8.2004  -12.1889   19.6437 N   0  0  0  0  0  0  0  0  0  0  0  0
    7.1888  -14.2470   20.1870 N   0  0  0  0  0  0  0  0  0  0  0  0
    7.7733  -14.3691   21.5121 C   0  0  0  0  0  0  0  0  0  0  0  0
    8.9880  -15.2048   21.4924 C   0  0  0  0  0  0  0  0  0  0  0  0
    9.7428  -15.5192   22.6954 C   0  0  0  0  0  0  0  0  0  0  0  0
   10.9863  -16.3416   22.6725 C   0  0  2  0  0  0  0  0  0  0  0  0
   10.4775  -17.7672   22.6647 N   0  0  0  0  0  0  0  0  0  0  0  0
   11.8706  -16.2516   23.8457 C   0  0  0  0  0  0  0  0  0  0  0  0
   11.8045  -17.0055   24.8245 O   0  0  0  0  0  0  0  0  0  0  0  0
   12.8647  -15.2559   23.8841 O   0  0  0  0  0  0  0  0  0  0  0  0
  2  1  1  0
  3  4  2  0
  3  2  1  0
  5  6  1  0
  6  7  2  0
  8  6  1  0
  8  9  1  0
 10  9  1  6
 10 12  1  0
 10 11  1  0
 11  3  1  0
 12 22  1  0
 13 12  2  0
 15 14  1  0
 16 15  2  0
 17 15  1  0
 18 19  1  0
 18 17  1  0
 20 19  1  0
 21 20  1  1
 22 21  1  0
 23 25  1  0
 23 21  1  0
 24 23  2  0
M  END
$$$$
