GQR.pdb
     RDKit          3D

 25 24  0  0  1  0  0  0  0  0999 V2000
    4.5394  -18.5723   22.1221 N   0  0  0  0  0  0  0  0  0  0  0  0
    4.7208  -17.1254   22.2810 C   0  0  0  0  0  0  0  0  0  0  0  0
    5.9184  -16.6937   21.4969 C   0  0  0  0  0  0  0  0  0  0  0  0
    6.6053  -17.5388   20.9036 O   0  0  0  0  0  0  0  0  0  0  0  0
    7.1117  -14.0139   17.1758 N   0  0  0  0  0  0  0  0  0  0  0  0
    8.2183  -13.7218   17.9879 C   0  0  0  0  0  0  0  0  0  0  0  0
    9.3530  -14.1479   17.7392 O   0  0  0  0  0  0  0  0  0  0  0  0
    8.0021  -12.8576   19.2030 C   0  0  0  0  0  0  0  0  0  0  0  0
    6.9658  -13.4725   20.0795 C   0  0  0  0  0  0  0  0  0  0  0  0
    7.3626  -14.7850   20.6545 C   0  0  2  0  0  0  0  0  0  0  0  0
    6.2442  -15.3246   21.4484 N   0  0  0  0  0  0  0  0  0  0  0  0
    8.5390  -14.7914   21.5326 C   0  0  0  0  0  0  0  0  0  0  0  0
    8.6285  -13.9055   22.4532 O   0  0  0  0  0  0  0  0  0  0  0  0
    9.3374  -16.0997   29.0447 N   0  0  0  0  0  0  0  0  0  0  0  0
    9.6042  -14.8663   28.3436 C   0  0  0  0  0  0  0  0  0  0  0  0
    9.2825  -13.7569   28.8690 N   0  0  0  0  0  0  0  0  0  0  0  0
   10.2250  -14.9577   27.0733 N   0  0  0  0  0  0  0  0  0  0  0  0
   10.2070  -16.1889   26.3011 C   0  0  0  0  0  0  0  0  0  0  0  0
   10.8502  -16.0119   24.9861 C   0  0  0  0  0  0  0  0  0  0  0  0
   10.0898  -15.8288   23.7597 C   0  0  0  0  0  0  0  0  0  0  0  0
   10.7398  -15.6263   22.4332 C   0  0  2  0  0  0  0  0  0  0  0  0
    9.5916  -15.7107   21.4506 N   0  0  0  0  0  0  0  0  0  0  0  0
   11.7015  -16.6508   21.9952 C   0  0  0  0  0  0  0  0  0  0  0  0
   11.4022  -17.6362   21.3094 O   0  0  0  0  0  0  0  0  0  0  0  0
   13.0545  -16.5277   22.3633 O   0  0  0  0  0  0  0  0  0  0  0  0
  2  1  1  0
  3  4  2  0
  3  2  1  0
  5  6  1  0
  6  7  2  0
  8  6  1  0
  8  9  1  0
 10  9  1  1
 10 12  1  0
 10 11  1  0
 11  3  1  0
 12 22  1  0
 13 12  2  0
 15 14  1  0
 16 15  2  0
 17 15  1  0
 18 19  1  0
 18 17  1  0
 20 19  1  0
 21 20  1  1
 22 21  1  0
 23 25  1  0
 23 21  1  0
 24 23  2  0
M  END
$$$$
