YDA.pdb
     RDKit          3D

 26 26  0  0  1  0  0  0  0  0999 V2000
    9.3561  -19.1905   12.2022 O   0  0  0  0  0  0  0  0  0  0  0  0
   10.5116  -18.9253   12.9452 C   0  0  0  0  0  0  0  0  0  0  0  0
   11.6762  -19.6374   12.7486 C   0  0  0  0  0  0  0  0  0  0  0  0
   12.8176  -19.3769   13.4808 C   0  0  0  0  0  0  0  0  0  0  0  0
   12.8500  -18.3889   14.4478 C   0  0  0  0  0  0  0  0  0  0  0  0
   14.0934  -18.1292   15.2197 C   0  0  0  0  0  0  0  0  0  0  0  0
   14.7022  -16.7898   14.8685 C   0  0  2  0  0  0  0  0  0  0  0  0
   15.1337  -16.7648   13.4993 N   0  0  0  0  0  0  0  0  0  0  0  0
   15.8491  -16.5883   15.8156 C   0  0  0  0  0  0  0  0  0  0  0  0
   16.8638  -17.3189   15.6718 O   0  0  0  0  0  0  0  0  0  0  0  0
   11.6885  -17.6754   14.6473 C   0  0  0  0  0  0  0  0  0  0  0  0
   10.5357  -17.9383   13.9081 C   0  0  0  0  0  0  0  0  0  0  0  0
   15.8400  -15.6357   16.8389 N   0  0  0  0  0  0  0  0  0  0  0  0
   17.0440  -15.4102   17.6766 C   0  0  1  0  0  0  0  0  0  0  0  0
   17.0009  -13.9303   17.9664 C   0  0  0  0  0  0  0  0  0  0  0  0
   17.5949  -13.0804   16.9385 C   0  0  0  0  0  0  0  0  0  0  0  0
   18.1650  -13.5969   15.9492 O   0  0  0  0  0  0  0  0  0  0  0  0
   16.9201  -16.2113   18.8909 C   0  0  0  0  0  0  0  0  0  0  0  0
   15.8260  -16.2127   19.5281 O   0  0  0  0  0  0  0  0  0  0  0  0
   17.5259  -11.7007   17.0607 O   0  0  0  0  0  0  0  0  0  0  0  0
   18.5975  -19.0832   20.5507 C   0  0  0  0  0  0  0  0  0  0  0  0
   17.7142  -17.8422   20.6072 C   0  0  2  0  0  0  0  0  0  0  0  0
   17.9549  -17.0120   19.4228 N   0  0  0  0  0  0  0  0  0  0  0  0
   18.0070  -17.1408   21.8404 C   0  0  0  0  0  0  0  0  0  0  0  0
   17.7680  -17.7239   22.9463 O   0  0  0  0  0  0  0  0  0  0  0  0
   18.5330  -15.8723   21.9282 O   0  0  0  0  0  0  0  0  0  0  0  0
  2  1  1  0
  2  3  2  0
  4  3  1  0
  5  4  2  0
  6  5  1  0
  7  6  1  0
  7  9  1  0
  7  8  1  6
  9 10  2  0
  9 13  1  0
 11 12  2  0
 11  5  1  0
 12  2  1  0
 13 14  1  0
 14 15  1  1
 15 16  1  0
 16 17  2  0
 16 20  1  0
 18 14  1  0
 18 23  1  0
 19 18  2  0
 22 21  1  6
 22 23  1  0
 22 24  1  0
 24 26  1  0
 25 24  2  0
M  END
$$$$
