YDA.pdb
     RDKit          3D

 26 26  0  0  1  0  0  0  0  0999 V2000
    8.4080  -12.2834   18.2634 O   0  0  0  0  0  0  0  0  0  0  0  0
    8.0949  -12.9578   19.4486 C   0  0  0  0  0  0  0  0  0  0  0  0
    9.0344  -13.1505   20.4397 C   0  0  0  0  0  0  0  0  0  0  0  0
    8.7273  -13.8156   21.6103 C   0  0  0  0  0  0  0  0  0  0  0  0
    7.4623  -14.3216   21.8472 C   0  0  0  0  0  0  0  0  0  0  0  0
    7.1596  -15.0319   23.1173 C   0  0  0  0  0  0  0  0  0  0  0  0
    7.4351  -16.5154   23.0098 C   0  0  2  0  0  0  0  0  0  0  0  0
    6.2277  -17.2752   23.1722 N   0  0  0  0  0  0  0  0  0  0  0  0
    8.4398  -16.8345   24.0783 C   0  0  0  0  0  0  0  0  0  0  0  0
    8.0051  -17.1559   25.2149 O   0  0  0  0  0  0  0  0  0  0  0  0
    6.5210  -14.1312   20.8594 C   0  0  0  0  0  0  0  0  0  0  0  0
    6.8310  -13.4597   19.6772 C   0  0  0  0  0  0  0  0  0  0  0  0
    9.8214  -16.7911   23.8691 N   0  0  0  0  0  0  0  0  0  0  0  0
   10.7651  -17.1662   24.9512 C   0  0  1  0  0  0  0  0  0  0  0  0
   12.0620  -17.4104   24.2204 C   0  0  0  0  0  0  0  0  0  0  0  0
   12.0234  -18.4845   23.2322 C   0  0  0  0  0  0  0  0  0  0  0  0
   11.5566  -19.6056   23.5416 O   0  0  0  0  0  0  0  0  0  0  0  0
   10.8639  -16.0500   25.8871 C   0  0  0  0  0  0  0  0  0  0  0  0
   11.8946  -15.3147   25.8741 O   0  0  0  0  0  0  0  0  0  0  0  0
   12.5044  -18.2597   21.9510 O   0  0  0  0  0  0  0  0  0  0  0  0
    9.0146  -13.6807   27.8850 C   0  0  0  0  0  0  0  0  0  0  0  0
   10.1368  -14.7120   27.8664 C   0  0  2  0  0  0  0  0  0  0  0  0
    9.8677  -15.7141   26.8303 N   0  0  0  0  0  0  0  0  0  0  0  0
   10.2280  -15.2973   29.1884 C   0  0  0  0  0  0  0  0  0  0  0  0
   10.5087  -14.5411   30.1731 O   0  0  0  0  0  0  0  0  0  0  0  0
   10.0338  -16.6269   29.4847 O   0  0  0  0  0  0  0  0  0  0  0  0
  2  1  1  0
  2  3  2  0
  4  3  1  0
  5  4  2  0
  6  5  1  0
  7  6  1  0
  7  9  1  0
  7  8  1  1
  9 10  2  0
  9 13  1  0
 11 12  2  0
 11  5  1  0
 12  2  1  0
 13 14  1  0
 14 15  1  6
 15 16  1  0
 16 17  2  0
 16 20  1  0
 18 14  1  0
 18 23  1  0
 19 18  2  0
 22 21  1  1
 22 23  1  0
 22 24  1  0
 24 26  1  0
 25 24  2  0
M  END
$$$$
