YDA.pdb
     RDKit          3D

 26 26  0  0  1  0  0  0  0  0999 V2000
    5.8253  -11.0093   27.3241 O   0  0  0  0  0  0  0  0  0  0  0  0
    6.2823  -11.8813   26.3299 C   0  0  0  0  0  0  0  0  0  0  0  0
    7.2135  -11.4843   25.3933 C   0  0  0  0  0  0  0  0  0  0  0  0
    7.6660  -12.3436   24.4116 C   0  0  0  0  0  0  0  0  0  0  0  0
    7.2080  -13.6451   24.3186 C   0  0  0  0  0  0  0  0  0  0  0  0
    7.7140  -14.5486   23.2523 C   0  0  0  0  0  0  0  0  0  0  0  0
    7.5648  -16.0048   23.6334 C   0  0  2  0  0  0  0  0  0  0  0  0
    7.2808  -16.1427   25.0341 N   0  0  0  0  0  0  0  0  0  0  0  0
    8.8572  -16.6711   23.2609 C   0  0  0  0  0  0  0  0  0  0  0  0
    9.2267  -16.6039   22.0597 O   0  0  0  0  0  0  0  0  0  0  0  0
    6.2775  -14.0454   25.2524 C   0  0  0  0  0  0  0  0  0  0  0  0
    5.8204  -13.1778   26.2438 C   0  0  0  0  0  0  0  0  0  0  0  0
    9.6595  -17.3551   24.1791 N   0  0  0  0  0  0  0  0  0  0  0  0
   11.1200  -17.1011   24.2478 C   0  0  1  0  0  0  0  0  0  0  0  0
   11.3889  -16.2520   23.0302 C   0  0  0  0  0  0  0  0  0  0  0  0
   12.5949  -16.6017   22.2853 C   0  0  0  0  0  0  0  0  0  0  0  0
   12.5953  -17.5959   21.5223 O   0  0  0  0  0  0  0  0  0  0  0  0
   11.4083  -16.3882   25.4889 C   0  0  0  0  0  0  0  0  0  0  0  0
   12.5874  -15.9885   25.7190 O   0  0  0  0  0  0  0  0  0  0  0  0
   13.7390  -15.8303   22.4248 O   0  0  0  0  0  0  0  0  0  0  0  0
    9.9644  -14.1755   27.9120 C   0  0  0  0  0  0  0  0  0  0  0  0
   10.8362  -15.4102   27.7143 C   0  0  2  0  0  0  0  0  0  0  0  0
   10.4446  -16.0971   26.4795 N   0  0  0  0  0  0  0  0  0  0  0  0
   10.6898  -16.2527   28.8836 C   0  0  0  0  0  0  0  0  0  0  0  0
   10.2423  -17.4347   28.7326 O   0  0  0  0  0  0  0  0  0  0  0  0
   10.9980  -15.8842   30.1730 O   0  0  0  0  0  0  0  0  0  0  0  0
  2  1  1  0
  2  3  2  0
  4  3  1  0
  5  4  2  0
  6  5  1  0
  7  6  1  0
  7  9  1  0
  7  8  1  1
  9 10  2  0
  9 13  1  0
 11 12  2  0
 11  5  1  0
 12  2  1  0
 13 14  1  0
 14 15  1  6
 15 16  1  0
 16 17  2  0
 16 20  1  0
 18 14  1  0
 18 23  1  0
 19 18  2  0
 22 21  1  1
 22 23  1  0
 22 24  1  0
 24 26  1  0
 25 24  2  0
M  END
$$$$
