YDA.pdb
     RDKit          3D

 26 26  0  0  1  0  0  0  0  0999 V2000
    7.5799  -11.9449   17.3126 O   0  0  0  0  0  0  0  0  0  0  0  0
    7.7401  -12.6298   18.5220 C   0  0  0  0  0  0  0  0  0  0  0  0
    6.6676  -12.9034   19.3448 C   0  0  0  0  0  0  0  0  0  0  0  0
    6.8238  -13.5796   20.5387 C   0  0  0  0  0  0  0  0  0  0  0  0
    8.0634  -14.0161   20.9689 C   0  0  0  0  0  0  0  0  0  0  0  0
    8.2016  -14.7431   22.2580 C   0  0  0  0  0  0  0  0  0  0  0  0
    8.6118  -16.1838   22.0483 C   0  0  2  0  0  0  0  0  0  0  0  0
    7.5110  -16.9655   21.5598 N   0  0  0  0  0  0  0  0  0  0  0  0
    9.0978  -16.6802   23.3788 C   0  0  0  0  0  0  0  0  0  0  0  0
    8.2340  -17.0068   24.2340 O   0  0  0  0  0  0  0  0  0  0  0  0
    9.1374  -13.7445   20.1498 C   0  0  0  0  0  0  0  0  0  0  0  0
    8.9799  -13.0617   18.9442 C   0  0  0  0  0  0  0  0  0  0  0  0
   10.4521  -16.7945   23.7064 N   0  0  0  0  0  0  0  0  0  0  0  0
   10.8710  -17.2622   25.0510 C   0  0  1  0  0  0  0  0  0  0  0  0
   12.1936  -17.9405   24.7933 C   0  0  0  0  0  0  0  0  0  0  0  0
   12.1011  -19.2831   24.2270 C   0  0  0  0  0  0  0  0  0  0  0  0
   11.1429  -20.0297   24.5350 O   0  0  0  0  0  0  0  0  0  0  0  0
   11.0108  -16.0996   25.9229 C   0  0  0  0  0  0  0  0  0  0  0  0
   12.0395  -15.3678   25.8263 O   0  0  0  0  0  0  0  0  0  0  0  0
   13.0766  -19.7287   23.3476 O   0  0  0  0  0  0  0  0  0  0  0  0
    9.1635  -13.6975   27.9447 C   0  0  0  0  0  0  0  0  0  0  0  0
   10.3592  -14.6371   27.8394 C   0  0  2  0  0  0  0  0  0  0  0  0
   10.0574  -15.7139   26.8910 N   0  0  0  0  0  0  0  0  0  0  0  0
   10.6522  -15.1381   29.1667 C   0  0  0  0  0  0  0  0  0  0  0  0
   10.4391  -16.3680   29.4161 O   0  0  0  0  0  0  0  0  0  0  0  0
   11.1523  -14.3892   30.2071 O   0  0  0  0  0  0  0  0  0  0  0  0
  2  1  1  0
  2  3  2  0
  4  3  1  0
  5  4  2  0
  6  5  1  0
  7  6  1  0
  7  9  1  0
  7  8  1  1
  9 10  2  0
  9 13  1  0
 11 12  2  0
 11  5  1  0
 12  2  1  0
 13 14  1  0
 14 15  1  6
 15 16  1  0
 16 17  2  0
 16 20  1  0
 18 14  1  0
 18 23  1  0
 19 18  2  0
 22 21  1  1
 22 23  1  0
 22 24  1  0
 24 26  1  0
 25 24  2  0
M  END
$$$$
