YDA.pdb
     RDKit          3D

 26 26  0  0  1  0  0  0  0  0999 V2000
    5.4150  -10.4641   26.9533 O   0  0  0  0  0  0  0  0  0  0  0  0
    6.1804  -11.5613   26.5434 C   0  0  0  0  0  0  0  0  0  0  0  0
    5.9958  -12.8147   27.0882 C   0  0  0  0  0  0  0  0  0  0  0  0
    6.7500  -13.8988   26.6847 C   0  0  0  0  0  0  0  0  0  0  0  0
    7.7280  -13.7818   25.7141 C   0  0  0  0  0  0  0  0  0  0  0  0
    8.5236  -14.9664   25.2981 C   0  0  0  0  0  0  0  0  0  0  0  0
    7.8944  -15.6799   24.1221 C   0  0  2  0  0  0  0  0  0  0  0  0
    6.6970  -16.3661   24.5183 N   0  0  0  0  0  0  0  0  0  0  0  0
    8.9332  -16.6308   23.6029 C   0  0  0  0  0  0  0  0  0  0  0  0
    8.9354  -17.8035   24.0598 O   0  0  0  0  0  0  0  0  0  0  0  0
    7.9156  -12.5312   25.1675 C   0  0  0  0  0  0  0  0  0  0  0  0
    7.1542  -11.4363   25.5749 C   0  0  0  0  0  0  0  0  0  0  0  0
    9.8874  -16.2754   22.6450 N   0  0  0  0  0  0  0  0  0  0  0  0
   10.9156  -17.2488   22.2003 C   0  0  1  0  0  0  0  0  0  0  0  0
   11.5762  -16.5570   21.0338 C   0  0  0  0  0  0  0  0  0  0  0  0
   12.2240  -17.4453   20.0729 C   0  0  0  0  0  0  0  0  0  0  0  0
   12.4142  -18.6500   20.3610 O   0  0  0  0  0  0  0  0  0  0  0  0
   11.8457  -17.4760   23.3024 C   0  0  0  0  0  0  0  0  0  0  0  0
   12.5288  -16.5091   23.7513 O   0  0  0  0  0  0  0  0  0  0  0  0
   12.6274  -16.9515   18.8413 O   0  0  0  0  0  0  0  0  0  0  0  0
   12.6451  -20.0111   25.9193 C   0  0  0  0  0  0  0  0  0  0  0  0
   13.0465  -18.8721   24.9892 C   0  0  2  0  0  0  0  0  0  0  0  0
   12.0449  -18.7264   23.9283 N   0  0  0  0  0  0  0  0  0  0  0  0
   14.3648  -19.1660   24.4656 C   0  0  0  0  0  0  0  0  0  0  0  0
   14.4713  -19.5391   23.2533 O   0  0  0  0  0  0  0  0  0  0  0  0
   15.5405  -19.0760   25.1748 O   0  0  0  0  0  0  0  0  0  0  0  0
  2  1  1  0
  2  3  2  0
  4  3  1  0
  5  4  2  0
  6  5  1  0
  7  6  1  0
  7  9  1  0
  7  8  1  1
  9 10  2  0
  9 13  1  0
 11 12  2  0
 11  5  1  0
 12  2  1  0
 13 14  1  0
 14 15  1  6
 15 16  1  0
 16 17  2  0
 16 20  1  0
 18 14  1  0
 18 23  1  0
 19 18  2  0
 22 21  1  1
 22 23  1  0
 22 24  1  0
 24 26  1  0
 25 24  2  0
M  END
$$$$
