YDA.pdb
     RDKit          3D

 26 26  0  0  1  0  0  0  0  0999 V2000
    5.4760  -12.0647   28.6506 O   0  0  0  0  0  0  0  0  0  0  0  0
    6.0927  -12.4856   27.4673 C   0  0  0  0  0  0  0  0  0  0  0  0
    6.6930  -11.5899   26.6075 C   0  0  0  0  0  0  0  0  0  0  0  0
    7.3024  -12.0034   25.4393 C   0  0  0  0  0  0  0  0  0  0  0  0
    7.3411  -13.3364   25.0734 C   0  0  0  0  0  0  0  0  0  0  0  0
    8.0056  -13.7531   23.8108 C   0  0  0  0  0  0  0  0  0  0  0  0
    8.6565  -15.1123   23.9415 C   0  0  2  0  0  0  0  0  0  0  0  0
    9.5521  -15.1472   25.0632 N   0  0  0  0  0  0  0  0  0  0  0  0
    9.3770  -15.3592   22.6481 C   0  0  0  0  0  0  0  0  0  0  0  0
   10.1938  -14.4857   22.2558 O   0  0  0  0  0  0  0  0  0  0  0  0
    6.7424  -14.2343   25.9297 C   0  0  0  0  0  0  0  0  0  0  0  0
    6.1269  -13.8169   27.1093 C   0  0  0  0  0  0  0  0  0  0  0  0
    9.1829  -16.5036   21.8688 N   0  0  0  0  0  0  0  0  0  0  0  0
    9.7461  -16.5934   20.4988 C   0  0  1  0  0  0  0  0  0  0  0  0
    9.9044  -18.0774   20.2782 C   0  0  0  0  0  0  0  0  0  0  0  0
   11.0494  -18.6848   20.9504 C   0  0  0  0  0  0  0  0  0  0  0  0
   12.1628  -18.1097   20.9370 O   0  0  0  0  0  0  0  0  0  0  0  0
    8.7933  -15.9983   19.5664 C   0  0  0  0  0  0  0  0  0  0  0  0
    7.5827  -16.3683   19.5908 O   0  0  0  0  0  0  0  0  0  0  0  0
   10.9005  -19.8993   21.6033 O   0  0  0  0  0  0  0  0  0  0  0  0
    8.1693  -12.9403   17.7317 C   0  0  0  0  0  0  0  0  0  0  0  0
    8.0972  -14.4629   17.7240 C   0  0  2  0  0  0  0  0  0  0  0  0
    9.1260  -15.0092   18.6146 N   0  0  0  0  0  0  0  0  0  0  0  0
    8.2584  -14.9111   16.3559 C   0  0  0  0  0  0  0  0  0  0  0  0
    9.2856  -15.6004   16.0560 O   0  0  0  0  0  0  0  0  0  0  0  0
    7.3820  -14.6548   15.3265 O   0  0  0  0  0  0  0  0  0  0  0  0
  2  1  1  0
  2  3  2  0
  4  3  1  0
  5  4  2  0
  6  5  1  0
  7  6  1  0
  7  9  1  0
  7  8  1  1
  9 10  2  0
  9 13  1  0
 11 12  2  0
 11  5  1  0
 12  2  1  0
 13 14  1  0
 14 15  1  6
 15 16  1  0
 16 17  2  0
 16 20  1  0
 18 14  1  0
 18 23  1  0
 19 18  2  0
 22 21  1  6
 22 23  1  0
 22 24  1  0
 24 26  1  0
 25 24  2  0
M  END
$$$$
