TSV.pdb
     RDKit          3D

 21 20  0  0  1  0  0  0  0  0999 V2000
   17.3097  -12.2346  -14.6668 C   0  0  0  0  0  0  0  0  0  0  0  0
   18.4634  -12.6897  -15.5208 C   0  0  1  0  0  0  0  0  0  0  0  0
   18.5311  -14.0705  -15.5105 O   0  0  0  0  0  0  0  0  0  0  0  0
   18.3564  -12.1783  -16.9440 C   0  0  2  0  0  0  0  0  0  0  0  0
   19.2930  -12.8609  -17.8078 N   0  0  0  0  0  0  0  0  0  0  0  0
   18.6515  -10.7099  -16.8844 C   0  0  0  0  0  0  0  0  0  0  0  0
   19.8292  -10.3291  -17.0546 O   0  0  0  0  0  0  0  0  0  0  0  0
   15.8254   -7.8959  -15.5836 O   0  0  0  0  0  0  0  0  0  0  0  0
   16.5458   -7.5532  -16.7004 C   0  0  0  0  0  0  0  0  0  0  0  0
   17.8359   -8.3316  -16.7299 C   0  0  2  0  0  0  0  0  0  0  0  0
   17.6663   -9.7423  -16.6461 N   0  0  0  0  0  0  0  0  0  0  0  0
   18.8153   -7.8129  -15.7393 C   0  0  0  0  0  0  0  0  0  0  0  0
   18.8094   -8.3333  -14.5960 O   0  0  0  0  0  0  0  0  0  0  0  0
   23.0867   -5.5285  -14.9431 C   0  0  0  0  0  0  0  0  0  0  0  0
   22.0155   -6.1462  -15.7747 C   0  0  1  0  0  0  0  0  0  0  0  0
   22.4044   -7.5431  -16.2206 C   0  0  0  0  0  0  0  0  0  0  0  0
   20.6886   -6.2645  -15.0683 C   0  0  2  0  0  0  0  0  0  0  0  0
   19.7327   -6.7859  -16.0137 N   0  0  0  0  0  0  0  0  0  0  0  0
   20.2427   -4.9327  -14.5315 C   0  0  0  0  0  0  0  0  0  0  0  0
   20.6901   -4.4622  -13.4537 O   0  0  0  0  0  0  0  0  0  0  0  0
   19.3104   -4.1625  -15.2114 O   0  0  0  0  0  0  0  0  0  0  0  0
  2  4  1  0
  2  1  1  1
  3  2  1  0
  4  6  1  0
  4  5  1  6
  6 11  1  0
  7  6  2  0
  9  8  1  0
 10 12  1  0
 10  9  1  1
 11 10  1  0
 12 13  2  0
 15 14  1  1
 16 15  1  0
 17 15  1  0
 18 12  1  0
 17 18  1  6
 19 21  1  0
 19 17  1  0
 20 19  2  0
M  END
$$$$
