TSV.pdb
     RDKit          3D

 21 20  0  0  1  0  0  0  0  0999 V2000
   21.7551   -9.4474  -19.2611 C   0  0  0  0  0  0  0  0  0  0  0  0
   20.3461   -9.9777  -19.2311 C   0  0  1  0  0  0  0  0  0  0  0  0
   20.1022  -10.7106  -20.3776 O   0  0  0  0  0  0  0  0  0  0  0  0
   20.0802  -10.8213  -17.9999 C   0  0  2  0  0  0  0  0  0  0  0  0
   18.7819  -11.4521  -18.0791 N   0  0  0  0  0  0  0  0  0  0  0  0
   20.1543   -9.8884  -16.8291 C   0  0  0  0  0  0  0  0  0  0  0  0
   19.2854   -8.9975  -16.7182 O   0  0  0  0  0  0  0  0  0  0  0  0
   21.3985  -10.5990  -12.9482 O   0  0  0  0  0  0  0  0  0  0  0  0
   22.1399   -9.6586  -13.6186 C   0  0  0  0  0  0  0  0  0  0  0  0
   21.3264   -9.0839  -14.7497 C   0  0  2  0  0  0  0  0  0  0  0  0
   21.1546   -9.9689  -15.8509 N   0  0  0  0  0  0  0  0  0  0  0  0
   21.8251   -7.7459  -15.1629 C   0  0  0  0  0  0  0  0  0  0  0  0
   22.6933   -7.7091  -16.0699 O   0  0  0  0  0  0  0  0  0  0  0  0
   20.9888   -3.0106  -15.7643 C   0  0  0  0  0  0  0  0  0  0  0  0
   20.6737   -4.4364  -15.4671 C   0  0  1  0  0  0  0  0  0  0  0  0
   20.1431   -5.1485  -16.6971 C   0  0  0  0  0  0  0  0  0  0  0  0
   21.8568   -5.2317  -14.9759 C   0  0  2  0  0  0  0  0  0  0  0  0
   21.3807   -6.5394  -14.5983 N   0  0  0  0  0  0  0  0  0  0  0  0
   22.5233   -4.5461  -13.8155 C   0  0  0  0  0  0  0  0  0  0  0  0
   22.1651   -4.7448  -12.6258 O   0  0  0  0  0  0  0  0  0  0  0  0
   23.5704   -3.6581  -14.0140 O   0  0  0  0  0  0  0  0  0  0  0  0
  2  4  1  0
  2  1  1  6
  3  2  1  0
  4  6  1  0
  4  5  1  6
  6 11  1  0
  7  6  2  0
  9  8  1  0
 10 12  1  0
 10  9  1  1
 11 10  1  0
 12 13  2  0
 15 14  1  6
 16 15  1  0
 17 15  1  0
 18 12  1  0
 17 18  1  1
 19 21  1  0
 19 17  1  0
 20 19  2  0
M  END
$$$$
