TSV.pdb
     RDKit          3D

 21 20  0  0  1  0  0  0  0  0999 V2000
   20.1206  -13.0535  -18.9320 C   0  0  0  0  0  0  0  0  0  0  0  0
   19.5831  -11.8216  -18.2532 C   0  0  1  0  0  0  0  0  0  0  0  0
   18.5000  -11.3370  -18.9625 O   0  0  0  0  0  0  0  0  0  0  0  0
   19.1929  -12.0881  -16.8127 C   0  0  2  0  0  0  0  0  0  0  0  0
   18.0741  -13.0009  -16.7433 N   0  0  0  0  0  0  0  0  0  0  0  0
   18.8384  -10.7570  -16.2218 C   0  0  0  0  0  0  0  0  0  0  0  0
   17.6487  -10.3787  -16.2704 O   0  0  0  0  0  0  0  0  0  0  0  0
   19.9829   -9.2955  -12.7857 O   0  0  0  0  0  0  0  0  0  0  0  0
   19.0080   -8.7576  -13.5882 C   0  0  0  0  0  0  0  0  0  0  0  0
   19.5147   -8.6582  -15.0040 C   0  0  2  0  0  0  0  0  0  0  0  0
   19.7810   -9.9152  -15.6162 N   0  0  0  0  0  0  0  0  0  0  0  0
   20.6571   -7.7137  -15.1155 C   0  0  0  0  0  0  0  0  0  0  0  0
   21.7844   -8.2010  -15.3794 O   0  0  0  0  0  0  0  0  0  0  0  0
   20.3300   -4.1759  -16.8292 C   0  0  0  0  0  0  0  0  0  0  0  0
   21.6152   -4.8322  -16.4578 C   0  0  1  0  0  0  0  0  0  0  0  0
   22.7764   -3.8615  -16.5608 C   0  0  0  0  0  0  0  0  0  0  0  0
   21.6317   -5.3891  -15.0566 C   0  0  2  0  0  0  0  0  0  0  0  0
   20.5406   -6.3250  -14.9430 N   0  0  0  0  0  0  0  0  0  0  0  0
   21.5061   -4.2903  -14.0381 C   0  0  0  0  0  0  0  0  0  0  0  0
   20.3902   -3.9111  -13.5973 O   0  0  0  0  0  0  0  0  0  0  0  0
   22.6283   -3.6448  -13.5392 O   0  0  0  0  0  0  0  0  0  0  0  0
  2  4  1  0
  2  1  1  6
  3  2  1  0
  4  6  1  0
  4  5  1  6
  6 11  1  0
  7  6  2  0
  9  8  1  0
 10 12  1  0
 10  9  1  1
 11 10  1  0
 12 13  2  0
 15 14  1  1
 16 15  1  0
 17 15  1  0
 18 12  1  0
 17 18  1  6
 19 21  1  0
 19 17  1  0
 20 19  2  0
M  END
$$$$
