TSV.pdb
     RDKit          3D

 21 20  0  0  1  0  0  0  0  0999 V2000
   13.7153  -14.0723  -16.5026 C   0  0  0  0  0  0  0  0  0  0  0  0
   14.6907  -13.1485  -15.8224 C   0  0  1  0  0  0  0  0  0  0  0  0
   14.3282  -12.9853  -14.4984 O   0  0  0  0  0  0  0  0  0  0  0  0
   16.1170  -13.6528  -15.9199 C   0  0  2  0  0  0  0  0  0  0  0  0
   16.2633  -14.9177  -15.2355 N   0  0  0  0  0  0  0  0  0  0  0  0
   16.9776  -12.5986  -15.2914 C   0  0  0  0  0  0  0  0  0  0  0  0
   17.7517  -12.9302  -14.3685 O   0  0  0  0  0  0  0  0  0  0  0  0
   20.0664   -9.5192  -14.9698 O   0  0  0  0  0  0  0  0  0  0  0  0
   19.2995  -10.5644  -15.4207 C   0  0  0  0  0  0  0  0  0  0  0  0
   17.8394  -10.2321  -15.2504 C   0  0  2  0  0  0  0  0  0  0  0  0
   16.9545  -11.2558  -15.6915 N   0  0  0  0  0  0  0  0  0  0  0  0
   17.5066   -8.9015  -15.8236 C   0  0  0  0  0  0  0  0  0  0  0  0
   17.5276   -8.7911  -17.0746 O   0  0  0  0  0  0  0  0  0  0  0  0
   14.5070   -7.4409  -15.9781 C   0  0  0  0  0  0  0  0  0  0  0  0
   15.3121   -6.3332  -15.3905 C   0  0  1  0  0  0  0  0  0  0  0  0
   15.0702   -6.2115  -13.8978 C   0  0  0  0  0  0  0  0  0  0  0  0
   16.7992   -6.4935  -15.5823 C   0  0  2  0  0  0  0  0  0  0  0  0
   17.1749   -7.7790  -15.0478 N   0  0  0  0  0  0  0  0  0  0  0  0
   17.5534   -5.3861  -14.9002 C   0  0  0  0  0  0  0  0  0  0  0  0
   18.0909   -5.5384  -13.7727 O   0  0  0  0  0  0  0  0  0  0  0  0
   17.6874   -4.1395  -15.4942 O   0  0  0  0  0  0  0  0  0  0  0  0
  2  4  1  0
  2  1  1  1
  3  2  1  0
  4  6  1  0
  4  5  1  1
  6 11  1  0
  7  6  2  0
  9  8  1  0
 10 12  1  0
 10  9  1  6
 11 10  1  0
 12 13  2  0
 15 14  1  1
 16 15  1  0
 17 15  1  0
 18 12  1  0
 17 18  1  1
 19 21  1  0
 19 17  1  0
 20 19  2  0
M  END
$$$$
