TSV.pdb
     RDKit          3D

 21 20  0  0  1  0  0  0  0  0999 V2000
   21.1078   -7.2735  -18.8940 C   0  0  0  0  0  0  0  0  0  0  0  0
   19.8014   -7.9170  -18.5109 C   0  0  1  0  0  0  0  0  0  0  0  0
   19.5055   -8.9312  -19.4025 O   0  0  0  0  0  0  0  0  0  0  0  0
   19.8234   -8.4522  -17.0926 C   0  0  2  0  0  0  0  0  0  0  0  0
   18.6365   -9.2305  -16.8181 N   0  0  0  0  0  0  0  0  0  0  0  0
   19.9009   -7.2547  -16.1945 C   0  0  0  0  0  0  0  0  0  0  0  0
   18.9110   -6.4959  -16.1224 O   0  0  0  0  0  0  0  0  0  0  0  0
   22.5344   -4.6507  -13.0473 O   0  0  0  0  0  0  0  0  0  0  0  0
   22.3092   -5.8786  -13.6175 C   0  0  0  0  0  0  0  0  0  0  0  0
   21.2382   -5.7594  -14.6711 C   0  0  2  0  0  0  0  0  0  0  0  0
   21.0342   -6.9459  -15.4302 N   0  0  0  0  0  0  0  0  0  0  0  0
   21.4373   -4.5598  -15.5261 C   0  0  0  0  0  0  0  0  0  0  0  0
   22.2160   -4.6726  -16.5053 O   0  0  0  0  0  0  0  0  0  0  0  0
   18.4707   -2.1122  -16.4498 C   0  0  0  0  0  0  0  0  0  0  0  0
   19.8098   -2.1339  -17.1031 C   0  0  1  0  0  0  0  0  0  0  0  0
   20.0072   -0.9190  -17.9899 C   0  0  0  0  0  0  0  0  0  0  0  0
   20.9615   -2.1586  -16.1300 C   0  0  2  0  0  0  0  0  0  0  0  0
   20.8078   -3.3257  -15.2971 N   0  0  0  0  0  0  0  0  0  0  0  0
   20.9929   -0.9055  -15.2997 C   0  0  0  0  0  0  0  0  0  0  0  0
   20.3903   -0.8174  -14.1986 O   0  0  0  0  0  0  0  0  0  0  0  0
   21.6953    0.2145  -15.7202 O   0  0  0  0  0  0  0  0  0  0  0  0
  2  4  1  0
  2  1  1  6
  3  2  1  0
  4  6  1  0
  4  5  1  1
  6 11  1  0
  7  6  2  0
  9  8  1  0
 10 12  1  0
 10  9  1  6
 11 10  1  0
 12 13  2  0
 15 14  1  1
 16 15  1  0
 17 15  1  0
 18 12  1  0
 17 18  1  1
 19 21  1  0
 19 17  1  0
 20 19  2  0
M  END
$$$$
