TSV.pdb
     RDKit          3D

 21 20  0  0  1  0  0  0  0  0999 V2000
   21.5322  -10.5797  -18.7814 C   0  0  0  0  0  0  0  0  0  0  0  0
   20.2139  -11.2197  -19.1276 C   0  0  1  0  0  0  0  0  0  0  0  0
   20.4372  -12.3995  -19.8127 O   0  0  0  0  0  0  0  0  0  0  0  0
   19.3643  -11.4769  -17.8987 C   0  0  2  0  0  0  0  0  0  0  0  0
   18.1678  -12.2107  -18.2447 N   0  0  0  0  0  0  0  0  0  0  0  0
   19.0250  -10.1300  -17.3350 C   0  0  0  0  0  0  0  0  0  0  0  0
   18.4261   -9.3104  -18.0633 O   0  0  0  0  0  0  0  0  0  0  0  0
   19.2289   -9.2333  -13.2140 O   0  0  0  0  0  0  0  0  0  0  0  0
   18.4367   -8.5345  -14.0902 C   0  0  0  0  0  0  0  0  0  0  0  0
   19.1052   -8.4730  -15.4395 C   0  0  2  0  0  0  0  0  0  0  0  0
   19.3486   -9.7465  -16.0266 N   0  0  0  0  0  0  0  0  0  0  0  0
   20.3171   -7.6126  -15.4154 C   0  0  0  0  0  0  0  0  0  0  0  0
   21.4280   -8.1848  -15.2879 O   0  0  0  0  0  0  0  0  0  0  0  0
   22.3199   -3.2163  -16.4360 C   0  0  0  0  0  0  0  0  0  0  0  0
   21.2716   -4.2737  -16.4946 C   0  0  1  0  0  0  0  0  0  0  0  0
   21.2587   -4.9587  -17.8481 C   0  0  0  0  0  0  0  0  0  0  0  0
   21.4391   -5.3551  -15.4571 C   0  0  2  0  0  0  0  0  0  0  0  0
   20.2823   -6.2132  -15.5264 N   0  0  0  0  0  0  0  0  0  0  0  0
   21.5895   -4.7649  -14.0824 C   0  0  0  0  0  0  0  0  0  0  0  0
   22.6924   -4.3344  -13.6563 O   0  0  0  0  0  0  0  0  0  0  0  0
   20.5061   -4.6712  -13.2211 O   0  0  0  0  0  0  0  0  0  0  0  0
  2  4  1  0
  2  1  1  1
  3  2  1  0
  4  6  1  0
  4  5  1  6
  6 11  1  0
  7  6  2  0
  9  8  1  0
 10 12  1  0
 10  9  1  1
 11 10  1  0
 12 13  2  0
 15 14  1  6
 16 15  1  0
 17 15  1  0
 18 12  1  0
 17 18  1  1
 19 21  1  0
 19 17  1  0
 20 19  2  0
M  END
$$$$
