TSV.pdb
     RDKit          3D

 21 20  0  0  1  0  0  0  0  0999 V2000
   21.1058  -11.5065  -16.4796 C   0  0  0  0  0  0  0  0  0  0  0  0
   19.8144  -11.5875  -17.2498 C   0  0  1  0  0  0  0  0  0  0  0  0
   19.7112  -12.8274  -17.8523 O   0  0  0  0  0  0  0  0  0  0  0  0
   18.6079  -11.3275  -16.3694 C   0  0  2  0  0  0  0  0  0  0  0  0
   17.3809  -11.5842  -17.0893 N   0  0  0  0  0  0  0  0  0  0  0  0
   18.6960   -9.8905  -15.9521 C   0  0  0  0  0  0  0  0  0  0  0  0
   19.0187   -9.0382  -16.8067 O   0  0  0  0  0  0  0  0  0  0  0  0
   18.3529   -8.6999  -11.8889 O   0  0  0  0  0  0  0  0  0  0  0  0
   17.8335   -7.8781  -12.8577 C   0  0  0  0  0  0  0  0  0  0  0  0
   18.5438   -8.1227  -14.1641 C   0  0  2  0  0  0  0  0  0  0  0  0
   18.4328   -9.4575  -14.6456 N   0  0  0  0  0  0  0  0  0  0  0  0
   19.9504   -7.6435  -14.1248 C   0  0  0  0  0  0  0  0  0  0  0  0
   20.8326   -8.4722  -13.7891 O   0  0  0  0  0  0  0  0  0  0  0  0
   22.1376   -6.7085  -16.7133 C   0  0  0  0  0  0  0  0  0  0  0  0
   22.1074   -5.5217  -15.8128 C   0  0  1  0  0  0  0  0  0  0  0  0
   21.1465   -4.4668  -16.3279 C   0  0  0  0  0  0  0  0  0  0  0  0
   21.6918   -5.8408  -14.3988 C   0  0  2  0  0  0  0  0  0  0  0  0
   20.3361   -6.3305  -14.4395 N   0  0  0  0  0  0  0  0  0  0  0  0
   21.7992   -4.6270  -13.5181 C   0  0  0  0  0  0  0  0  0  0  0  0
   22.9054   -4.2062  -13.0911 O   0  0  0  0  0  0  0  0  0  0  0  0
   20.6701   -3.9160  -13.1382 O   0  0  0  0  0  0  0  0  0  0  0  0
  2  4  1  0
  2  1  1  1
  3  2  1  0
  4  6  1  0
  4  5  1  6
  6 11  1  0
  7  6  2  0
  9  8  1  0
 10 12  1  0
 10  9  1  1
 11 10  1  0
 12 13  2  0
 15 14  1  6
 16 15  1  0
 17 15  1  0
 18 12  1  0
 17 18  1  6
 19 21  1  0
 19 17  1  0
 20 19  2  0
M  END
$$$$
