TSV.pdb
     RDKit          3D

 21 20  0  0  1  0  0  0  0  0999 V2000
   17.7278  -16.9830  -17.0655 C   0  0  0  0  0  0  0  0  0  0  0  0
   18.1862  -15.5649  -17.2807 C   0  0  1  0  0  0  0  0  0  0  0  0
   17.6341  -15.0717  -18.4482 O   0  0  0  0  0  0  0  0  0  0  0  0
   17.8333  -14.6675  -16.1109 C   0  0  2  0  0  0  0  0  0  0  0  0
   16.4015  -14.4988  -16.0054 N   0  0  0  0  0  0  0  0  0  0  0  0
   18.5118  -13.3562  -16.3697 C   0  0  0  0  0  0  0  0  0  0  0  0
   19.7605  -13.3234  -16.3942 O   0  0  0  0  0  0  0  0  0  0  0  0
   16.3994   -9.6863  -16.4517 O   0  0  0  0  0  0  0  0  0  0  0  0
   17.3967   -9.8706  -17.3765 C   0  0  0  0  0  0  0  0  0  0  0  0
   18.3815  -10.8896  -16.8636 C   0  0  2  0  0  0  0  0  0  0  0  0
   17.8095  -12.1630  -16.5859 N   0  0  0  0  0  0  0  0  0  0  0  0
   19.1802  -10.3606  -15.7270 C   0  0  0  0  0  0  0  0  0  0  0  0
   18.7833  -10.6338  -14.5669 O   0  0  0  0  0  0  0  0  0  0  0  0
   23.4498   -8.7329  -13.9907 C   0  0  0  0  0  0  0  0  0  0  0  0
   22.5423   -9.3233  -15.0146 C   0  0  1  0  0  0  0  0  0  0  0  0
   22.6556  -10.8358  -15.0409 C   0  0  0  0  0  0  0  0  0  0  0  0
   21.0862   -8.9961  -14.7986 C   0  0  2  0  0  0  0  0  0  0  0  0
   20.3387   -9.5826  -15.8832 N   0  0  0  0  0  0  0  0  0  0  0  0
   20.8707   -7.5093  -14.7388 C   0  0  0  0  0  0  0  0  0  0  0  0
   20.6009   -6.8308  -15.7636 O   0  0  0  0  0  0  0  0  0  0  0  0
   20.9619   -6.8203  -13.5382 O   0  0  0  0  0  0  0  0  0  0  0  0
  2  4  1  0
  2  1  1  1
  3  2  1  0
  4  6  1  0
  4  5  1  6
  6 11  1  0
  7  6  2  0
  9  8  1  0
 10 12  1  0
 10  9  1  1
 11 10  1  0
 12 13  2  0
 15 14  1  1
 16 15  1  0
 17 15  1  0
 18 12  1  0
 17 18  1  6
 19 21  1  0
 19 17  1  0
 20 19  2  0
M  END
$$$$
