MVF.pdb
     RDKit          3D

 27 27  0  0  1  0  0  0  0  0999 V2000
   35.1895  -21.4913  -11.0411 C   0  0  0  0  0  0  0  0  0  0  0  0
   35.0587  -23.0630  -11.8747 S   0  0  0  0  0  0  0  0  0  0  0  0
   33.4020  -23.4097  -12.4284 C   0  0  0  0  0  0  0  0  0  0  0  0
   32.3749  -22.3612  -12.1104 C   0  0  0  0  0  0  0  0  0  0  0  0
   30.9667  -22.7112  -12.4769 C   0  0  2  0  0  0  0  0  0  0  0  0
   30.9145  -23.0883  -13.8807 N   0  0  0  0  0  0  0  0  0  0  0  0
   30.1214  -21.4813  -12.2746 C   0  0  0  0  0  0  0  0  0  0  0  0
   30.4521  -20.6975  -11.3808 O   0  0  0  0  0  0  0  0  0  0  0  0
   26.9545  -18.4028  -14.4413 C   0  0  0  0  0  0  0  0  0  0  0  0
   27.9568  -19.5233  -14.2991 C   0  0  2  0  0  0  0  0  0  0  0  0
   27.9187  -20.4464  -15.5033 C   0  0  0  0  0  0  0  0  0  0  0  0
   28.0651  -20.1665  -12.9909 C   0  0  2  0  0  0  0  0  0  0  0  0
   29.0015  -21.2675  -13.0965 N   0  0  0  0  0  0  0  0  0  0  0  0
   26.8856  -20.5874  -12.2541 C   0  0  0  0  0  0  0  0  0  0  0  0
   26.5081  -21.8043  -12.4170 O   0  0  0  0  0  0  0  0  0  0  0  0
   26.1071  -19.8213  -11.3812 N   0  0  0  0  0  0  0  0  0  0  0  0
   24.9556  -20.4070  -10.6808 C   0  0  1  0  0  0  0  0  0  0  0  0
   24.7553  -19.7363   -9.3659 C   0  0  0  0  0  0  0  0  0  0  0  0
   25.9125  -19.9372   -8.4847 C   0  0  0  0  0  0  0  0  0  0  0  0
   26.6587  -18.8919   -7.9889 C   0  0  0  0  0  0  0  0  0  0  0  0
   27.7488  -19.0802   -7.1508 C   0  0  0  0  0  0  0  0  0  0  0  0
   28.1152  -20.3643   -6.7885 C   0  0  0  0  0  0  0  0  0  0  0  0
   27.3940  -21.4308   -7.2642 C   0  0  0  0  0  0  0  0  0  0  0  0
   26.3166  -21.2184   -8.0940 C   0  0  0  0  0  0  0  0  0  0  0  0
   23.7517  -20.2710  -11.5172 C   0  0  0  0  0  0  0  0  0  0  0  0
   22.5788  -20.8836  -11.1096 O   0  0  0  0  0  0  0  0  0  0  0  0
   23.7555  -19.6254  -12.5743 O   0  0  0  0  0  0  0  0  0  0  0  0
  2  3  1  0
  2  1  1  0
  4  3  1  0
  4  5  1  0
  5  6  1  6
  7  5  1  0
  7  8  2  0
 10  9  1  1
 11 10  1  0
 12 10  1  0
 12 13  1  6
 13  7  1  0
 14 12  1  0
 15 14  2  0
 16 14  1  0
 17 18  1  1
 17 16  1  0
 18 19  1  0
 19 24  2  0
 20 21  2  0
 20 19  1  0
 21 22  1  0
 22 23  2  0
 24 23  1  0
 25 26  1  0
 25 17  1  0
 27 25  2  0
M  END
$$$$
