MVF.pdb
     RDKit          3D

 27 27  0  0  1  0  0  0  0  0999 V2000
   23.8416  -17.6895  -18.5757 C   0  0  0  0  0  0  0  0  0  0  0  0
   25.5843  -17.6151  -18.9495 S   0  0  0  0  0  0  0  0  0  0  0  0
   26.4582  -19.0805  -18.4394 C   0  0  0  0  0  0  0  0  0  0  0  0
   25.8207  -19.8675  -17.3304 C   0  0  0  0  0  0  0  0  0  0  0  0
   26.7423  -20.2816  -16.2263 C   0  0  2  0  0  0  0  0  0  0  0  0
   27.7210  -21.2247  -16.7447 N   0  0  0  0  0  0  0  0  0  0  0  0
   25.9154  -20.9720  -15.1739 C   0  0  0  0  0  0  0  0  0  0  0  0
   25.3716  -22.0372  -15.4779 O   0  0  0  0  0  0  0  0  0  0  0  0
   27.1821  -21.4950  -11.6336 C   0  0  0  0  0  0  0  0  0  0  0  0
   25.8130  -20.8598  -11.5843 C   0  0  2  0  0  0  0  0  0  0  0  0
   25.1020  -21.1944  -10.2857 C   0  0  0  0  0  0  0  0  0  0  0  0
   25.0033  -20.9123  -12.8001 C   0  0  2  0  0  0  0  0  0  0  0  0
   25.7913  -20.3922  -13.8996 N   0  0  0  0  0  0  0  0  0  0  0  0
   23.6630  -20.3526  -12.8422 C   0  0  0  0  0  0  0  0  0  0  0  0
   23.5678  -19.0762  -12.7338 O   0  0  0  0  0  0  0  0  0  0  0  0
   22.4554  -21.0418  -12.9891 N   0  0  0  0  0  0  0  0  0  0  0  0
   21.1753  -20.3227  -13.0494 C   0  0  1  0  0  0  0  0  0  0  0  0
   21.1679  -19.3774  -14.2007 C   0  0  0  0  0  0  0  0  0  0  0  0
   21.2312  -20.0963  -15.4794 C   0  0  0  0  0  0  0  0  0  0  0  0
   22.3809  -20.1715  -16.2329 C   0  0  0  0  0  0  0  0  0  0  0  0
   22.4437  -20.8561  -17.4385 C   0  0  0  0  0  0  0  0  0  0  0  0
   21.3140  -21.4948  -17.9183 C   0  0  0  0  0  0  0  0  0  0  0  0
   20.1497  -21.4407  -17.1935 C   0  0  0  0  0  0  0  0  0  0  0  0
   20.1126  -20.7555  -16.0004 C   0  0  0  0  0  0  0  0  0  0  0  0
   20.0736  -21.2916  -13.1714 C   0  0  0  0  0  0  0  0  0  0  0  0
   20.3749  -22.6314  -13.3485 O   0  0  0  0  0  0  0  0  0  0  0  0
   18.8854  -20.9454  -13.1203 O   0  0  0  0  0  0  0  0  0  0  0  0
  2  3  1  0
  2  1  1  0
  4  3  1  0
  4  5  1  0
  5  6  1  6
  7  5  1  0
  7  8  2  0
 10  9  1  6
 11 10  1  0
 12 10  1  0
 12 13  1  6
 13  7  1  0
 14 12  1  0
 15 14  2  0
 16 14  1  0
 17 18  1  6
 17 16  1  0
 18 19  1  0
 19 24  2  0
 20 21  2  0
 20 19  1  0
 21 22  1  0
 22 23  2  0
 24 23  1  0
 25 26  1  0
 25 17  1  0
 27 25  2  0
M  END
$$$$
