MVF.pdb
     RDKit          3D

 27 27  0  0  1  0  0  0  0  0999 V2000
   29.0735  -19.9184  -16.9766 C   0  0  0  0  0  0  0  0  0  0  0  0
   28.8112  -18.4595  -17.9692 S   0  0  0  0  0  0  0  0  0  0  0  0
   28.7562  -16.9689  -16.9963 C   0  0  0  0  0  0  0  0  0  0  0  0
   27.7139  -16.9332  -15.9156 C   0  0  0  0  0  0  0  0  0  0  0  0
   26.3266  -17.2875  -16.3511 C   0  0  2  0  0  0  0  0  0  0  0  0
   25.7572  -16.1751  -17.0956 N   0  0  0  0  0  0  0  0  0  0  0  0
   25.5010  -17.5132  -15.1119 C   0  0  0  0  0  0  0  0  0  0  0  0
   25.0868  -16.5196  -14.5086 O   0  0  0  0  0  0  0  0  0  0  0  0
   22.9587  -20.9839  -14.4274 C   0  0  0  0  0  0  0  0  0  0  0  0
   23.1516  -19.5927  -13.8729 C   0  0  2  0  0  0  0  0  0  0  0  0
   22.3556  -18.5730  -14.6667 C   0  0  0  0  0  0  0  0  0  0  0  0
   24.5078  -19.2033  -13.4910 C   0  0  2  0  0  0  0  0  0  0  0  0
   25.2318  -18.8260  -14.6884 N   0  0  0  0  0  0  0  0  0  0  0  0
   25.3361  -20.0602  -12.6598 C   0  0  0  0  0  0  0  0  0  0  0  0
   26.0502  -20.9375  -13.2685 O   0  0  0  0  0  0  0  0  0  0  0  0
   25.4511  -20.0435  -11.2665 N   0  0  0  0  0  0  0  0  0  0  0  0
   26.0761  -21.1606  -10.5445 C   0  0  1  0  0  0  0  0  0  0  0  0
   27.4883  -20.8301  -10.2047 C   0  0  0  0  0  0  0  0  0  0  0  0
   27.5749  -20.1248   -8.9198 C   0  0  0  0  0  0  0  0  0  0  0  0
   26.9317  -18.9309   -8.6830 C   0  0  0  0  0  0  0  0  0  0  0  0
   27.0076  -18.2666   -7.4668 C   0  0  0  0  0  0  0  0  0  0  0  0
   27.7562  -18.8119   -6.4389 C   0  0  0  0  0  0  0  0  0  0  0  0
   28.4114  -20.0012   -6.6393 C   0  0  0  0  0  0  0  0  0  0  0  0
   28.3206  -20.6411   -7.8545 C   0  0  0  0  0  0  0  0  0  0  0  0
   25.3059  -21.4473   -9.3231 C   0  0  0  0  0  0  0  0  0  0  0  0
   25.6811  -22.5178   -8.5291 O   0  0  0  0  0  0  0  0  0  0  0  0
   24.3325  -20.7606   -8.9836 O   0  0  0  0  0  0  0  0  0  0  0  0
  2  3  1  0
  2  1  1  0
  4  3  1  0
  4  5  1  0
  5  6  1  1
  7  5  1  0
  7  8  2  0
 10  9  1  6
 11 10  1  0
 12 10  1  0
 12 13  1  6
 13  7  1  0
 14 12  1  0
 15 14  2  0
 16 14  1  0
 17 18  1  1
 17 16  1  0
 18 19  1  0
 19 24  2  0
 20 21  2  0
 20 19  1  0
 21 22  1  0
 22 23  2  0
 24 23  1  0
 25 26  1  0
 25 17  1  0
 27 25  2  0
M  END
$$$$
