MVF.pdb
     RDKit          3D

 27 27  0  0  1  0  0  0  0  0999 V2000
   23.3503  -15.1266  -14.9911 C   0  0  0  0  0  0  0  0  0  0  0  0
   22.2521  -16.4876  -15.3430 S   0  0  0  0  0  0  0  0  0  0  0  0
   21.0358  -16.0851  -16.5800 C   0  0  0  0  0  0  0  0  0  0  0  0
   21.0238  -14.6563  -17.0426 C   0  0  0  0  0  0  0  0  0  0  0  0
   19.9742  -14.3190  -18.0548 C   0  0  2  0  0  0  0  0  0  0  0  0
   20.2374  -15.0519  -19.2834 N   0  0  0  0  0  0  0  0  0  0  0  0
   20.0714  -12.8437  -18.3414 C   0  0  0  0  0  0  0  0  0  0  0  0
   20.9124  -12.4726  -19.1646 O   0  0  0  0  0  0  0  0  0  0  0  0
   16.6243  -10.4024  -17.7997 C   0  0  0  0  0  0  0  0  0  0  0  0
   17.9118  -10.1909  -18.5598 C   0  0  2  0  0  0  0  0  0  0  0  0
   17.7860  -10.6751  -19.9928 C   0  0  0  0  0  0  0  0  0  0  0  0
   19.1599  -10.5159  -17.8718 C   0  0  2  0  0  0  0  0  0  0  0  0
   19.2155  -11.9505  -17.6743 N   0  0  0  0  0  0  0  0  0  0  0  0
   19.5522   -9.8316  -16.6515 C   0  0  0  0  0  0  0  0  0  0  0  0
   19.1652  -10.3581  -15.5456 O   0  0  0  0  0  0  0  0  0  0  0  0
   20.3076   -8.6607  -16.5356 N   0  0  0  0  0  0  0  0  0  0  0  0
   20.5648   -8.0521  -15.2230 C   0  0  1  0  0  0  0  0  0  0  0  0
   22.0305   -7.9737  -14.9686 C   0  0  0  0  0  0  0  0  0  0  0  0
   22.6410   -9.3090  -14.9605 C   0  0  0  0  0  0  0  0  0  0  0  0
   23.2236   -9.8660  -16.0765 C   0  0  0  0  0  0  0  0  0  0  0  0
   23.8066  -11.1255  -16.0685 C   0  0  0  0  0  0  0  0  0  0  0  0
   23.8114  -11.8659  -14.8996 C   0  0  0  0  0  0  0  0  0  0  0  0
   23.2393  -11.3422  -13.7673 C   0  0  0  0  0  0  0  0  0  0  0  0
   22.6674  -10.0907  -13.8004 C   0  0  0  0  0  0  0  0  0  0  0  0
   19.9616   -6.7098  -15.1780 C   0  0  0  0  0  0  0  0  0  0  0  0
   19.8843   -6.0494  -13.9635 O   0  0  0  0  0  0  0  0  0  0  0  0
   19.5212   -6.1530  -16.1930 O   0  0  0  0  0  0  0  0  0  0  0  0
  2  3  1  0
  2  1  1  0
  4  3  1  0
  4  5  1  0
  5  6  1  6
  7  5  1  0
  7  8  2  0
 10  9  1  1
 11 10  1  0
 12 10  1  0
 12 13  1  1
 13  7  1  0
 14 12  1  0
 15 14  2  0
 16 14  1  0
 17 18  1  6
 17 16  1  0
 18 19  1  0
 19 24  2  0
 20 21  2  0
 20 19  1  0
 21 22  1  0
 22 23  2  0
 24 23  1  0
 25 26  1  0
 25 17  1  0
 27 25  2  0
M  END
$$$$
