MVF.pdb
     RDKit          3D

 27 27  0  0  1  0  0  0  0  0999 V2000
   19.9590  -19.4725  -10.7567 C   0  0  0  0  0  0  0  0  0  0  0  0
   19.4093  -19.4919  -12.4537 S   0  0  0  0  0  0  0  0  0  0  0  0
   20.7616  -19.4993  -13.6125 C   0  0  0  0  0  0  0  0  0  0  0  0
   21.9930  -20.2386  -13.1735 C   0  0  0  0  0  0  0  0  0  0  0  0
   23.1688  -20.1282  -14.0927 C   0  0  2  0  0  0  0  0  0  0  0  0
   22.8199  -20.6869  -15.3895 N   0  0  0  0  0  0  0  0  0  0  0  0
   24.2903  -20.9412  -13.5016 C   0  0  0  0  0  0  0  0  0  0  0  0
   24.2645  -22.1634  -13.6699 O   0  0  0  0  0  0  0  0  0  0  0  0
   28.9604  -21.1582  -12.3743 C   0  0  0  0  0  0  0  0  0  0  0  0
   27.6617  -20.5527  -12.8507 C   0  0  2  0  0  0  0  0  0  0  0  0
   27.8273  -19.0750  -13.1552 C   0  0  0  0  0  0  0  0  0  0  0  0
   26.4413  -20.9373  -12.1439 C   0  0  2  0  0  0  0  0  0  0  0  0
   25.3145  -20.2939  -12.7894 N   0  0  0  0  0  0  0  0  0  0  0  0
   26.3282  -20.8056  -10.7013 C   0  0  0  0  0  0  0  0  0  0  0  0
   25.7931  -19.7238  -10.2616 O   0  0  0  0  0  0  0  0  0  0  0  0
   26.7337  -21.7227   -9.7269 N   0  0  0  0  0  0  0  0  0  0  0  0
   26.9726  -21.2987   -8.3403 C   0  0  1  0  0  0  0  0  0  0  0  0
   28.1064  -20.3341   -8.2835 C   0  0  0  0  0  0  0  0  0  0  0  0
   28.3990  -19.9384   -6.9001 C   0  0  0  0  0  0  0  0  0  0  0  0
   28.2930  -18.6379   -6.4615 C   0  0  0  0  0  0  0  0  0  0  0  0
   28.5632  -18.2636   -5.1526 C   0  0  0  0  0  0  0  0  0  0  0  0
   28.9567  -19.2239   -4.2375 C   0  0  0  0  0  0  0  0  0  0  0  0
   29.0734  -20.5310   -4.6397 C   0  0  0  0  0  0  0  0  0  0  0  0
   28.7997  -20.8773   -5.9434 C   0  0  0  0  0  0  0  0  0  0  0  0
   25.7486  -20.6876   -7.7964 C   0  0  0  0  0  0  0  0  0  0  0  0
   25.5024  -19.3471   -8.0403 O   0  0  0  0  0  0  0  0  0  0  0  0
   24.9321  -21.3356   -7.1274 O   0  0  0  0  0  0  0  0  0  0  0  0
  2  3  1  0
  2  1  1  0
  4  3  1  0
  4  5  1  0
  5  6  1  6
  7  5  1  0
  7  8  2  0
 10  9  1  1
 11 10  1  0
 12 10  1  0
 12 13  1  6
 13  7  1  0
 14 12  1  0
 15 14  2  0
 16 14  1  0
 17 18  1  6
 17 16  1  0
 18 19  1  0
 19 24  2  0
 20 21  2  0
 20 19  1  0
 21 22  1  0
 22 23  2  0
 24 23  1  0
 25 26  1  0
 25 17  1  0
 27 25  2  0
M  END
$$$$
