MVF.pdb
     RDKit          3D

 27 27  0  0  1  0  0  0  0  0999 V2000
   18.3783  -19.2142  -10.7205 C   0  0  0  0  0  0  0  0  0  0  0  0
   17.1656  -18.4826  -11.8052 S   0  0  0  0  0  0  0  0  0  0  0  0
   17.8460  -18.0274  -13.3867 C   0  0  0  0  0  0  0  0  0  0  0  0
   19.2460  -18.5002  -13.6551 C   0  0  0  0  0  0  0  0  0  0  0  0
   19.3754  -19.5555  -14.7084 C   0  0  2  0  0  0  0  0  0  0  0  0
   19.0268  -20.8481  -14.1398 N   0  0  0  0  0  0  0  0  0  0  0  0
   20.8161  -19.5921  -15.1456 C   0  0  0  0  0  0  0  0  0  0  0  0
   21.5412  -20.4658  -14.6622 O   0  0  0  0  0  0  0  0  0  0  0  0
   21.9515  -20.9020  -17.8971 C   0  0  0  0  0  0  0  0  0  0  0  0
   22.3527  -19.4515  -18.0212 C   0  0  2  0  0  0  0  0  0  0  0  0
   23.4103  -19.2672  -19.0941 C   0  0  0  0  0  0  0  0  0  0  0  0
   22.5459  -18.6991  -16.7829 C   0  0  2  0  0  0  0  0  0  0  0  0
   21.2822  -18.6468  -16.0754 N   0  0  0  0  0  0  0  0  0  0  0  0
   23.1687  -17.3864  -16.7838 C   0  0  0  0  0  0  0  0  0  0  0  0
   22.4422  -16.4041  -17.1803 O   0  0  0  0  0  0  0  0  0  0  0  0
   24.4735  -17.0613  -16.4005 N   0  0  0  0  0  0  0  0  0  0  0  0
   24.9822  -15.6890  -16.5328 C   0  0  1  0  0  0  0  0  0  0  0  0
   25.8815  -15.3595  -15.3919 C   0  0  0  0  0  0  0  0  0  0  0  0
   26.8036  -16.4657  -15.1051 C   0  0  0  0  0  0  0  0  0  0  0  0
   26.5547  -17.4064  -14.1313 C   0  0  0  0  0  0  0  0  0  0  0  0
   27.4223  -18.4560  -13.8635 C   0  0  0  0  0  0  0  0  0  0  0  0
   28.5902  -18.5774  -14.5954 C   0  0  0  0  0  0  0  0  0  0  0  0
   28.8712  -17.6573  -15.5744 C   0  0  0  0  0  0  0  0  0  0  0  0
   27.9948  -16.6252  -15.8213 C   0  0  0  0  0  0  0  0  0  0  0  0
   25.7003  -15.5531  -17.8108 C   0  0  0  0  0  0  0  0  0  0  0  0
   25.9945  -14.2854  -18.2836 O   0  0  0  0  0  0  0  0  0  0  0  0
   26.0496  -16.5378  -18.4762 O   0  0  0  0  0  0  0  0  0  0  0  0
  2  3  1  0
  2  1  1  0
  4  3  1  0
  4  5  1  0
  5  6  1  1
  7  5  1  0
  7  8  2  0
 10  9  1  1
 11 10  1  0
 12 10  1  0
 12 13  1  6
 13  7  1  0
 14 12  1  0
 15 14  2  0
 16 14  1  0
 17 18  1  1
 17 16  1  0
 18 19  1  0
 19 24  2  0
 20 21  2  0
 20 19  1  0
 21 22  1  0
 22 23  2  0
 24 23  1  0
 25 26  1  0
 25 17  1  0
 27 25  2  0
M  END
$$$$
