MVF.pdb
     RDKit          3D

 27 27  0  0  1  0  0  0  0  0999 V2000
   33.0912  -22.8495   -7.9437 C   0  0  0  0  0  0  0  0  0  0  0  0
   34.0226  -23.1208   -9.4408 S   0  0  0  0  0  0  0  0  0  0  0  0
   32.9928  -23.1500  -10.8934 C   0  0  0  0  0  0  0  0  0  0  0  0
   31.8882  -22.1331  -10.9307 C   0  0  0  0  0  0  0  0  0  0  0  0
   31.0224  -22.1714  -12.1507 C   0  0  2  0  0  0  0  0  0  0  0  0
   31.8421  -21.9398  -13.3299 N   0  0  0  0  0  0  0  0  0  0  0  0
   30.0167  -21.0565  -12.0341 C   0  0  0  0  0  0  0  0  0  0  0  0
   30.4294  -19.8978  -12.1329 O   0  0  0  0  0  0  0  0  0  0  0  0
   27.6008  -19.8072  -14.0465 C   0  0  0  0  0  0  0  0  0  0  0  0
   26.8388  -20.2413  -12.8171 C   0  0  2  0  0  0  0  0  0  0  0  0
   25.5195  -19.4999  -12.7021 C   0  0  0  0  0  0  0  0  0  0  0  0
   27.5988  -20.4101  -11.5799 C   0  0  2  0  0  0  0  0  0  0  0  0
   28.6622  -21.3649  -11.8207 N   0  0  0  0  0  0  0  0  0  0  0  0
   26.9388  -20.7098  -10.3207 C   0  0  0  0  0  0  0  0  0  0  0  0
   26.6608  -21.9435  -10.0950 O   0  0  0  0  0  0  0  0  0  0  0  0
   26.5684  -19.8100   -9.3167 N   0  0  0  0  0  0  0  0  0  0  0  0
   25.8530  -20.2661   -8.1168 C   0  0  1  0  0  0  0  0  0  0  0  0
   26.1056  -19.3366   -6.9805 C   0  0  0  0  0  0  0  0  0  0  0  0
   27.3269  -19.7052   -6.2534 C   0  0  0  0  0  0  0  0  0  0  0  0
   27.4820  -20.9237   -5.6320 C   0  0  0  0  0  0  0  0  0  0  0  0
   28.6383  -21.2757   -4.9499 C   0  0  0  0  0  0  0  0  0  0  0  0
   29.6883  -20.3773   -4.8812 C   0  0  0  0  0  0  0  0  0  0  0  0
   29.5687  -19.1526   -5.4891 C   0  0  0  0  0  0  0  0  0  0  0  0
   28.4118  -18.8268   -6.1598 C   0  0  0  0  0  0  0  0  0  0  0  0
   24.4117  -20.3466   -8.4059 C   0  0  0  0  0  0  0  0  0  0  0  0
   23.5906  -21.0434   -7.5356 O   0  0  0  0  0  0  0  0  0  0  0  0
   23.9107  -19.8101   -9.4037 O   0  0  0  0  0  0  0  0  0  0  0  0
  2  3  1  0
  2  1  1  0
  4  3  1  0
  4  5  1  0
  5  6  1  6
  7  5  1  0
  7  8  2  0
 10  9  1  6
 11 10  1  0
 12 10  1  0
 12 13  1  6
 13  7  1  0
 14 12  1  0
 15 14  2  0
 16 14  1  0
 17 18  1  1
 17 16  1  0
 18 19  1  0
 19 24  2  0
 20 21  2  0
 20 19  1  0
 21 22  1  0
 22 23  2  0
 24 23  1  0
 25 26  1  0
 25 17  1  0
 27 25  2  0
M  END
$$$$
