MVF.pdb
     RDKit          3D

 27 27  0  0  1  0  0  0  0  0999 V2000
   31.8232  -20.4672   -9.3349 C   0  0  0  0  0  0  0  0  0  0  0  0
   30.5183  -21.6508   -9.6155 S   0  0  0  0  0  0  0  0  0  0  0  0
   30.4494  -22.2076  -11.3057 C   0  0  0  0  0  0  0  0  0  0  0  0
   29.5498  -21.4212  -12.2155 C   0  0  0  0  0  0  0  0  0  0  0  0
   29.4880  -21.9048  -13.6305 C   0  0  2  0  0  0  0  0  0  0  0  0
   30.8026  -21.7784  -14.2400 N   0  0  0  0  0  0  0  0  0  0  0  0
   28.5226  -21.0206  -14.3751 C   0  0  0  0  0  0  0  0  0  0  0  0
   28.8339  -19.8374  -14.5357 O   0  0  0  0  0  0  0  0  0  0  0  0
   24.6354  -20.6482  -17.3199 C   0  0  0  0  0  0  0  0  0  0  0  0
   25.9613  -21.0558  -16.7230 C   0  0  2  0  0  0  0  0  0  0  0  0
   26.3972  -22.4154  -17.2380 C   0  0  0  0  0  0  0  0  0  0  0  0
   26.1614  -20.8069  -15.2966 C   0  0  2  0  0  0  0  0  0  0  0  0
   27.3179  -21.5613  -14.8565 N   0  0  0  0  0  0  0  0  0  0  0  0
   25.0768  -20.9597  -14.3418 C   0  0  0  0  0  0  0  0  0  0  0  0
   24.8841  -22.1398  -13.8726 O   0  0  0  0  0  0  0  0  0  0  0  0
   24.2121  -19.9685  -13.8677 N   0  0  0  0  0  0  0  0  0  0  0  0
   23.0915  -20.3032  -12.9779 C   0  0  1  0  0  0  0  0  0  0  0  0
   23.1129  -19.4312  -11.7704 C   0  0  0  0  0  0  0  0  0  0  0  0
   21.9305  -19.6580  -10.9298 C   0  0  0  0  0  0  0  0  0  0  0  0
   20.7072  -19.0869  -11.1992 C   0  0  0  0  0  0  0  0  0  0  0  0
   19.5873  -19.3056  -10.4091 C   0  0  0  0  0  0  0  0  0  0  0  0
   19.6861  -20.1282   -9.3010 C   0  0  0  0  0  0  0  0  0  0  0  0
   20.8906  -20.7145   -9.0017 C   0  0  0  0  0  0  0  0  0  0  0  0
   21.9869  -20.4823   -9.8008 C   0  0  0  0  0  0  0  0  0  0  0  0
   21.8222  -20.1433  -13.7064 C   0  0  0  0  0  0  0  0  0  0  0  0
   21.7191  -19.1494  -14.6648 O   0  0  0  0  0  0  0  0  0  0  0  0
   20.8434  -20.8706  -13.4886 O   0  0  0  0  0  0  0  0  0  0  0  0
  2  3  1  0
  2  1  1  0
  4  3  1  0
  4  5  1  0
  5  6  1  6
  7  5  1  0
  7  8  2  0
 10  9  1  1
 11 10  1  0
 12 10  1  0
 12 13  1  1
 13  7  1  0
 14 12  1  0
 15 14  2  0
 16 14  1  0
 17 18  1  1
 17 16  1  0
 18 19  1  0
 19 24  2  0
 20 21  2  0
 20 19  1  0
 21 22  1  0
 22 23  2  0
 24 23  1  0
 25 26  1  0
 25 17  1  0
 27 25  2  0
M  END
$$$$
