MVF.pdb
     RDKit          3D

 27 27  0  0  1  0  0  0  0  0999 V2000
   24.1097  -14.4122  -16.1055 C   0  0  0  0  0  0  0  0  0  0  0  0
   25.8655  -14.2978  -16.3994 S   0  0  0  0  0  0  0  0  0  0  0  0
   26.7443  -15.7568  -15.8795 C   0  0  0  0  0  0  0  0  0  0  0  0
   26.2085  -16.4390  -14.6534 C   0  0  0  0  0  0  0  0  0  0  0  0
   26.9567  -17.6608  -14.2210 C   0  0  2  0  0  0  0  0  0  0  0  0
   27.1606  -18.5314  -15.3684 N   0  0  0  0  0  0  0  0  0  0  0  0
   26.1071  -18.3845  -13.2098 C   0  0  0  0  0  0  0  0  0  0  0  0
   25.0626  -17.8399  -12.8421 O   0  0  0  0  0  0  0  0  0  0  0  0
   26.4874  -22.6760  -12.9211 C   0  0  0  0  0  0  0  0  0  0  0  0
   25.3892  -21.7029  -12.5647 C   0  0  2  0  0  0  0  0  0  0  0  0
   24.4305  -21.5119  -13.7258 C   0  0  0  0  0  0  0  0  0  0  0  0
   25.7712  -20.4966  -11.8327 C   0  0  2  0  0  0  0  0  0  0  0  0
   26.5225  -19.6365  -12.7249 N   0  0  0  0  0  0  0  0  0  0  0  0
   26.4337  -20.5721  -10.5418 C   0  0  0  0  0  0  0  0  0  0  0  0
   27.7136  -20.6795  -10.5563 O   0  0  0  0  0  0  0  0  0  0  0  0
   25.8409  -20.5401   -9.2759 N   0  0  0  0  0  0  0  0  0  0  0  0
   26.6413  -20.7376   -8.0594 C   0  0  1  0  0  0  0  0  0  0  0  0
   27.3648  -19.4837   -7.7081 C   0  0  0  0  0  0  0  0  0  0  0  0
   28.0822  -19.6227   -6.4346 C   0  0  0  0  0  0  0  0  0  0  0  0
   27.7098  -18.9465   -5.2948 C   0  0  0  0  0  0  0  0  0  0  0  0
   28.3832  -19.0820   -4.0888 C   0  0  0  0  0  0  0  0  0  0  0  0
   29.4762  -19.9268   -4.0106 C   0  0  0  0  0  0  0  0  0  0  0  0
   29.8762  -20.6170   -5.1275 C   0  0  0  0  0  0  0  0  0  0  0  0
   29.1918  -20.4660   -6.3121 C   0  0  0  0  0  0  0  0  0  0  0  0
   25.7605  -21.1509   -6.9544 C   0  0  0  0  0  0  0  0  0  0  0  0
   26.3270  -21.6759   -5.8052 O   0  0  0  0  0  0  0  0  0  0  0  0
   24.5283  -21.0436   -7.0210 O   0  0  0  0  0  0  0  0  0  0  0  0
  2  3  1  0
  2  1  1  0
  4  3  1  0
  4  5  1  0
  5  6  1  6
  7  5  1  0
  7  8  2  0
 10  9  1  6
 11 10  1  0
 12 10  1  0
 12 13  1  6
 13  7  1  0
 14 12  1  0
 15 14  2  0
 16 14  1  0
 17 18  1  1
 17 16  1  0
 18 19  1  0
 19 24  2  0
 20 21  2  0
 20 19  1  0
 21 22  1  0
 22 23  2  0
 24 23  1  0
 25 26  1  0
 25 17  1  0
 27 25  2  0
M  END
$$$$
