PEM.pdb
     RDKit          3D

 25 25  0  0  1  0  0  0  0  0999 V2000
   29.1158  -21.8792  -11.6483 N   0  0  0  0  0  0  0  0  0  0  0  0
   29.7423  -21.3965  -12.8482 C   0  0  0  0  0  0  0  0  0  0  0  0
   30.0131  -19.9369  -12.4677 C   0  0  0  0  0  0  0  0  0  0  0  0
   28.6689  -19.5705  -11.8484 C   0  0  0  0  0  0  0  0  0  0  0  0
   28.1452  -20.8993  -11.3053 C   0  0  1  0  0  0  0  0  0  0  0  0
   26.8053  -21.0960  -11.8634 C   0  0  0  0  0  0  0  0  0  0  0  0
   26.5749  -21.8436  -12.8619 O   0  0  0  0  0  0  0  0  0  0  0  0
   25.7035  -20.4469  -11.2962 N   0  0  0  0  0  0  0  0  0  0  0  0
   24.3357  -20.6151  -11.8150 C   0  0  1  0  0  0  0  0  0  0  0  0
   23.4338  -19.9834  -10.7987 C   0  0  0  0  0  0  0  0  0  0  0  0
   21.9803  -20.0077  -11.1745 C   0  0  0  0  0  0  0  0  0  0  0  0
   21.3832  -21.3627  -11.0026 C   0  0  0  0  0  0  0  0  0  0  0  0
   21.1101  -21.7278   -9.8219 O   0  0  0  0  0  0  0  0  0  0  0  0
   24.2680  -19.7881  -13.0612 C   0  0  0  0  0  0  0  0  0  0  0  0
   24.7738  -18.6179  -13.0796 O   0  0  0  0  0  0  0  0  0  0  0  0
   21.1292  -22.2083  -12.0945 O   0  0  0  0  0  0  0  0  0  0  0  0
   27.6784  -18.4143  -18.0680 C   0  0  0  0  0  0  0  0  0  0  0  0
   26.2588  -19.3711  -18.6055 S   0  0  0  0  0  0  0  0  0  0  0  0
   24.7699  -18.9750  -17.6352 C   0  0  0  0  0  0  0  0  0  0  0  0
   24.8095  -19.7418  -16.3489 C   0  0  0  0  0  0  0  0  0  0  0  0
   23.6381  -19.4333  -15.4931 C   0  0  2  0  0  0  0  0  0  0  0  0
   23.6576  -20.2374  -14.2623 N   0  0  0  0  0  0  0  0  0  0  0  0
   22.3679  -19.5998  -16.1997 C   0  0  0  0  0  0  0  0  0  0  0  0
   21.4340  -20.3790  -15.9246 O   0  0  0  0  0  0  0  0  0  0  0  0
   22.1326  -18.7940  -17.3432 O   0  0  0  0  0  0  0  0  0  0  0  0
  1  2  1  0
  3  2  1  0
  4  3  1  0
  5  4  1  0
  5  1  1  0
  5  6  1  6
  6  7  2  0
  8  6  1  0
  9  8  1  0
  9 10  1  1
 11 10  1  0
 12 11  1  0
 13 12  2  0
 14  9  1  0
 15 14  2  0
 16 12  1  0
 18 17  1  0
 19 18  1  0
 20 19  1  0
 21 22  1  0
 21 20  1  6
 22 14  1  0
 23 21  1  0
 24 23  2  0
 25 23  1  0
M  END
$$$$
