PEM.pdb
     RDKit          3D

 25 25  0  0  1  0  0  0  0  0999 V2000
   27.7901  -21.4365  -15.4046 N   0  0  0  0  0  0  0  0  0  0  0  0
   27.1049  -20.8602  -16.5287 C   0  0  0  0  0  0  0  0  0  0  0  0
   28.1328  -19.8242  -16.9958 C   0  0  0  0  0  0  0  0  0  0  0  0
   28.5116  -19.2035  -15.6558 C   0  0  0  0  0  0  0  0  0  0  0  0
   28.2833  -20.3347  -14.6543 C   0  0  1  0  0  0  0  0  0  0  0  0
   27.3954  -19.8157  -13.6113 C   0  0  0  0  0  0  0  0  0  0  0  0
   27.6090  -18.7241  -13.0016 O   0  0  0  0  0  0  0  0  0  0  0  0
   26.2491  -20.5280  -13.2432 N   0  0  0  0  0  0  0  0  0  0  0  0
   25.3174  -20.0441  -12.2107 C   0  0  1  0  0  0  0  0  0  0  0  0
   23.9616  -20.5288  -12.6258 C   0  0  0  0  0  0  0  0  0  0  0  0
   22.8581  -20.1290  -11.6892 C   0  0  0  0  0  0  0  0  0  0  0  0
   21.5305  -20.6285  -12.1474 C   0  0  0  0  0  0  0  0  0  0  0  0
   20.5117  -20.2246  -11.5143 O   0  0  0  0  0  0  0  0  0  0  0  0
   25.6935  -20.7641  -10.9529 C   0  0  0  0  0  0  0  0  0  0  0  0
   25.8263  -22.0321  -10.9580 O   0  0  0  0  0  0  0  0  0  0  0  0
   21.4008  -21.5094  -13.2332 O   0  0  0  0  0  0  0  0  0  0  0  0
   29.5107  -19.2669   -5.7269 C   0  0  0  0  0  0  0  0  0  0  0  0
   27.9112  -19.7283   -5.0576 S   0  0  0  0  0  0  0  0  0  0  0  0
   26.6068  -19.6770   -6.3269 C   0  0  0  0  0  0  0  0  0  0  0  0
   27.1840  -20.1230   -7.6355 C   0  0  0  0  0  0  0  0  0  0  0  0
   26.1773  -20.8308   -8.4633 C   0  0  2  0  0  0  0  0  0  0  0  0
   25.9192  -20.1047   -9.7154 N   0  0  0  0  0  0  0  0  0  0  0  0
   24.9291  -21.0758   -7.7406 C   0  0  0  0  0  0  0  0  0  0  0  0
   23.8455  -20.4693   -7.8547 O   0  0  0  0  0  0  0  0  0  0  0  0
   24.9090  -22.1233   -6.7843 O   0  0  0  0  0  0  0  0  0  0  0  0
  1  2  1  0
  3  2  1  0
  4  3  1  0
  5  4  1  0
  5  1  1  0
  5  6  1  1
  6  7  2  0
  8  6  1  0
  9  8  1  0
  9 10  1  6
 11 10  1  0
 12 11  1  0
 13 12  2  0
 14  9  1  0
 15 14  2  0
 16 12  1  0
 18 17  1  0
 19 18  1  0
 20 19  1  0
 21 22  1  0
 21 20  1  1
 22 14  1  0
 23 21  1  0
 24 23  2  0
 25 23  1  0
M  END
$$$$
