PEM.pdb
     RDKit          3D

 25 25  0  0  1  0  0  0  0  0999 V2000
   21.4945  -13.7555  -16.9104 N   0  0  0  0  0  0  0  0  0  0  0  0
   20.2803  -14.5188  -16.8194 C   0  0  0  0  0  0  0  0  0  0  0  0
   20.2344  -15.1592  -18.2108 C   0  0  0  0  0  0  0  0  0  0  0  0
   20.5670  -13.9460  -19.0722 C   0  0  0  0  0  0  0  0  0  0  0  0
   21.4221  -13.0730  -18.1549 C   0  0  1  0  0  0  0  0  0  0  0  0
   20.8069  -11.7440  -18.1267 C   0  0  0  0  0  0  0  0  0  0  0  0
   20.6781  -11.0195  -19.1600 O   0  0  0  0  0  0  0  0  0  0  0  0
   20.3270  -11.2151  -16.9239 N   0  0  0  0  0  0  0  0  0  0  0  0
   19.7123   -9.8798  -16.8389 C   0  0  1  0  0  0  0  0  0  0  0  0
   18.5562  -10.0226  -15.8962 C   0  0  0  0  0  0  0  0  0  0  0  0
   17.8424   -8.7336  -15.6072 C   0  0  0  0  0  0  0  0  0  0  0  0
   16.7123   -8.9245  -14.6541 C   0  0  0  0  0  0  0  0  0  0  0  0
   16.9361   -8.6703  -13.4346 O   0  0  0  0  0  0  0  0  0  0  0  0
   20.7317   -9.0030  -16.1804 C   0  0  0  0  0  0  0  0  0  0  0  0
   21.3635   -9.4180  -15.1536 O   0  0  0  0  0  0  0  0  0  0  0  0
   15.4483   -9.3666  -15.0770 O   0  0  0  0  0  0  0  0  0  0  0  0
   25.9600   -3.1639  -17.0657 C   0  0  0  0  0  0  0  0  0  0  0  0
   24.6072   -4.1506  -17.7105 S   0  0  0  0  0  0  0  0  0  0  0  0
   23.8128   -5.1429  -16.4069 C   0  0  0  0  0  0  0  0  0  0  0  0
   22.7472   -5.9950  -17.0256 C   0  0  0  0  0  0  0  0  0  0  0  0
   22.0957   -6.8698  -16.0206 C   0  0  2  0  0  0  0  0  0  0  0  0
   21.0507   -7.6978  -16.6404 N   0  0  0  0  0  0  0  0  0  0  0  0
   21.5557   -6.1173  -14.8881 C   0  0  0  0  0  0  0  0  0  0  0  0
   20.4004   -5.6700  -14.7458 O   0  0  0  0  0  0  0  0  0  0  0  0
   22.4217   -5.8427  -13.7987 O   0  0  0  0  0  0  0  0  0  0  0  0
  1  2  1  0
  3  2  1  0
  4  3  1  0
  5  4  1  0
  5  1  1  0
  5  6  1  1
  6  7  2  0
  8  6  1  0
  9  8  1  0
  9 10  1  1
 11 10  1  0
 12 11  1  0
 13 12  2  0
 14  9  1  0
 15 14  2  0
 16 12  1  0
 18 17  1  0
 19 18  1  0
 20 19  1  0
 21 22  1  0
 21 20  1  6
 22 14  1  0
 23 21  1  0
 24 23  2  0
 25 23  1  0
M  END
$$$$
