PEM.pdb
     RDKit          3D

 25 25  0  0  1  0  0  0  0  0999 V2000
   28.0165  -20.8560  -15.0991 N   0  0  0  0  0  0  0  0  0  0  0  0
   27.3424  -20.2207  -16.1978 C   0  0  0  0  0  0  0  0  0  0  0  0
   28.2715  -19.0306  -16.4600 C   0  0  0  0  0  0  0  0  0  0  0  0
   28.4900  -18.5449  -15.0314 C   0  0  0  0  0  0  0  0  0  0  0  0
   28.3304  -19.8100  -14.1895 C   0  0  1  0  0  0  0  0  0  0  0  0
   27.3239  -19.5228  -13.1648 C   0  0  0  0  0  0  0  0  0  0  0  0
   27.3127  -18.4502  -12.4878 O   0  0  0  0  0  0  0  0  0  0  0  0
   26.3121  -20.4495  -12.8917 N   0  0  0  0  0  0  0  0  0  0  0  0
   25.2858  -20.2162  -11.8619 C   0  0  1  0  0  0  0  0  0  0  0  0
   24.0925  -21.0166  -12.2872 C   0  0  0  0  0  0  0  0  0  0  0  0
   23.2030  -20.3102  -13.2692 C   0  0  0  0  0  0  0  0  0  0  0  0
   21.7595  -20.5592  -12.9924 C   0  0  0  0  0  0  0  0  0  0  0  0
   21.1651  -19.7332  -12.2399 O   0  0  0  0  0  0  0  0  0  0  0  0
   25.8220  -20.8297  -10.6059 C   0  0  0  0  0  0  0  0  0  0  0  0
   26.1912  -22.0500  -10.5981 O   0  0  0  0  0  0  0  0  0  0  0  0
   21.0761  -21.6586  -13.5364 O   0  0  0  0  0  0  0  0  0  0  0  0
   29.5305  -18.5849   -5.7906 C   0  0  0  0  0  0  0  0  0  0  0  0
   28.2330  -19.3827   -4.8422 S   0  0  0  0  0  0  0  0  0  0  0  0
   27.2468  -20.5186   -5.8680 C   0  0  0  0  0  0  0  0  0  0  0  0
   27.0172  -19.8889   -7.2078 C   0  0  0  0  0  0  0  0  0  0  0  0
   26.2414  -20.7801   -8.1042 C   0  0  2  0  0  0  0  0  0  0  0  0
   25.9503  -20.1173   -9.3839 N   0  0  0  0  0  0  0  0  0  0  0  0
   25.0102  -21.2674   -7.4821 C   0  0  0  0  0  0  0  0  0  0  0  0
   24.8959  -21.9981   -6.4780 O   0  0  0  0  0  0  0  0  0  0  0  0
   23.7745  -20.8835   -8.0632 O   0  0  0  0  0  0  0  0  0  0  0  0
  1  2  1  0
  3  2  1  0
  4  3  1  0
  5  4  1  0
  5  1  1  0
  5  6  1  1
  6  7  2  0
  8  6  1  0
  9  8  1  0
  9 10  1  6
 11 10  1  0
 12 11  1  0
 13 12  2  0
 14  9  1  0
 15 14  2  0
 16 12  1  0
 18 17  1  0
 19 18  1  0
 20 19  1  0
 21 22  1  0
 21 20  1  1
 22 14  1  0
 23 21  1  0
 24 23  2  0
 25 23  1  0
M  END
$$$$
