PEM.pdb
     RDKit          3D

 25 25  0  0  1  0  0  0  0  0999 V2000
   24.1061  -24.5440  -16.4613 N   0  0  0  0  0  0  0  0  0  0  0  0
   24.3515  -24.0802  -17.7991 C   0  0  0  0  0  0  0  0  0  0  0  0
   25.2374  -25.2076  -18.3398 C   0  0  0  0  0  0  0  0  0  0  0  0
   26.1992  -25.3742  -17.1685 C   0  0  0  0  0  0  0  0  0  0  0  0
   25.3748  -24.9401  -15.9574 C   0  0  1  0  0  0  0  0  0  0  0  0
   26.1430  -23.9061  -15.2601 C   0  0  0  0  0  0  0  0  0  0  0  0
   27.2847  -24.1188  -14.7500 O   0  0  0  0  0  0  0  0  0  0  0  0
   25.6273  -22.6122  -15.1305 N   0  0  0  0  0  0  0  0  0  0  0  0
   26.3565  -21.5384  -14.4352 C   0  0  1  0  0  0  0  0  0  0  0  0
   25.9758  -20.2686  -15.1339 C   0  0  0  0  0  0  0  0  0  0  0  0
   26.6180  -19.0396  -14.5580 C   0  0  0  0  0  0  0  0  0  0  0  0
   26.2565  -17.8121  -15.3225 C   0  0  0  0  0  0  0  0  0  0  0  0
   25.4154  -17.9420  -16.2592 O   0  0  0  0  0  0  0  0  0  0  0  0
   25.7850  -21.4868  -13.0524 C   0  0  0  0  0  0  0  0  0  0  0  0
   24.5503  -21.7413  -12.8616 O   0  0  0  0  0  0  0  0  0  0  0  0
   26.8171  -16.5590  -15.0269 O   0  0  0  0  0  0  0  0  0  0  0  0
   26.9954  -19.1842   -5.5199 C   0  0  0  0  0  0  0  0  0  0  0  0
   27.5958  -19.3877   -7.1984 S   0  0  0  0  0  0  0  0  0  0  0  0
   26.3546  -20.1806   -8.2690 C   0  0  0  0  0  0  0  0  0  0  0  0
   26.9494  -20.3944   -9.6273 C   0  0  0  0  0  0  0  0  0  0  0  0
   25.9506  -20.9335  -10.5819 C   0  0  2  0  0  0  0  0  0  0  0  0
   26.5537  -21.1627  -11.9030 N   0  0  0  0  0  0  0  0  0  0  0  0
   24.7660  -20.0823  -10.6945 C   0  0  0  0  0  0  0  0  0  0  0  0
   24.5824  -19.1229  -11.4697 O   0  0  0  0  0  0  0  0  0  0  0  0
   23.6709  -20.3494   -9.8333 O   0  0  0  0  0  0  0  0  0  0  0  0
  1  2  1  0
  3  2  1  0
  4  3  1  0
  5  4  1  0
  5  1  1  0
  5  6  1  6
  6  7  2  0
  8  6  1  0
  9  8  1  0
  9 10  1  6
 11 10  1  0
 12 11  1  0
 13 12  2  0
 14  9  1  0
 15 14  2  0
 16 12  1  0
 18 17  1  0
 19 18  1  0
 20 19  1  0
 21 22  1  0
 21 20  1  1
 22 14  1  0
 23 21  1  0
 24 23  2  0
 25 23  1  0
M  END
$$$$
