PEM.pdb
     RDKit          3D

 25 25  0  0  1  0  0  0  0  0999 V2000
   21.8083  -19.5007  -12.8616 N   0  0  0  0  0  0  0  0  0  0  0  0
   22.2364  -19.3831  -14.2284 C   0  0  0  0  0  0  0  0  0  0  0  0
   21.3700  -20.4553  -14.8977 C   0  0  0  0  0  0  0  0  0  0  0  0
   21.5540  -21.6007  -13.9083 C   0  0  0  0  0  0  0  0  0  0  0  0
   21.8160  -20.8937  -12.5793 C   0  0  1  0  0  0  0  0  0  0  0  0
   23.0657  -21.4356  -12.0407 C   0  0  0  0  0  0  0  0  0  0  0  0
   23.2275  -22.6647  -11.7721 O   0  0  0  0  0  0  0  0  0  0  0  0
   24.1536  -20.5902  -11.7982 N   0  0  0  0  0  0  0  0  0  0  0  0
   25.4395  -21.0880  -11.2816 C   0  0  1  0  0  0  0  0  0  0  0  0
   26.4872  -20.5461  -12.2058 C   0  0  0  0  0  0  0  0  0  0  0  0
   26.7778  -21.4309  -13.3837 C   0  0  0  0  0  0  0  0  0  0  0  0
   27.8463  -20.8646  -14.2554 C   0  0  0  0  0  0  0  0  0  0  0  0
   28.2464  -21.5819  -15.2183 O   0  0  0  0  0  0  0  0  0  0  0  0
   25.6244  -20.4322   -9.9485 C   0  0  0  0  0  0  0  0  0  0  0  0
   25.1146  -19.2852   -9.7246 O   0  0  0  0  0  0  0  0  0  0  0  0
   28.3943  -19.5916  -14.0297 O   0  0  0  0  0  0  0  0  0  0  0  0
   30.6124  -21.6698   -5.9414 C   0  0  0  0  0  0  0  0  0  0  0  0
   29.3930  -21.1233   -4.7440 S   0  0  0  0  0  0  0  0  0  0  0  0
   27.9648  -20.3296   -5.5475 C   0  0  0  0  0  0  0  0  0  0  0  0
   27.7203  -20.9919   -6.8689 C   0  0  0  0  0  0  0  0  0  0  0  0
   26.6362  -20.3186   -7.6247 C   0  0  2  0  0  0  0  0  0  0  0  0
   26.3538  -21.0241   -8.8833 N   0  0  0  0  0  0  0  0  0  0  0  0
   26.9217  -18.9059   -7.8762 C   0  0  0  0  0  0  0  0  0  0  0  0
   27.4781  -18.4018   -8.8718 O   0  0  0  0  0  0  0  0  0  0  0  0
   26.5333  -17.9632   -6.8900 O   0  0  0  0  0  0  0  0  0  0  0  0
  1  2  1  0
  3  2  1  0
  4  3  1  0
  5  4  1  0
  5  1  1  0
  5  6  1  6
  6  7  2  0
  8  6  1  0
  9  8  1  0
  9 10  1  6
 11 10  1  0
 12 11  1  0
 13 12  2  0
 14  9  1  0
 15 14  2  0
 16 12  1  0
 18 17  1  0
 19 18  1  0
 20 19  1  0
 21 22  1  0
 21 20  1  6
 22 14  1  0
 23 21  1  0
 24 23  2  0
 25 23  1  0
M  END
$$$$
