PEM.pdb
     RDKit          3D

 25 25  0  0  1  0  0  0  0  0999 V2000
   13.3517  -21.8691    1.2840 N   0  0  0  0  0  0  0  0  0  0  0  0
   12.7375  -22.9647    1.9824 C   0  0  0  0  0  0  0  0  0  0  0  0
   11.2568  -22.7056    1.6848 C   0  0  0  0  0  0  0  0  0  0  0  0
   11.1893  -21.2074    1.9593 C   0  0  0  0  0  0  0  0  0  0  0  0
   12.6031  -20.7176    1.6497 C   0  0  1  0  0  0  0  0  0  0  0  0
   13.0759  -19.9890    2.8291 C   0  0  0  0  0  0  0  0  0  0  0  0
   12.4752  -18.9776    3.3039 O   0  0  0  0  0  0  0  0  0  0  0  0
   14.2393  -20.3971    3.4900 N   0  0  0  0  0  0  0  0  0  0  0  0
   14.7338  -19.7259    4.7037 C   0  0  1  0  0  0  0  0  0  0  0  0
   15.1187  -20.8236    5.6484 C   0  0  0  0  0  0  0  0  0  0  0  0
   14.6691  -20.5963    7.0629 C   0  0  0  0  0  0  0  0  0  0  0  0
   15.6248  -21.1737    8.0505 C   0  0  0  0  0  0  0  0  0  0  0  0
   15.6849  -22.4356    8.1262 O   0  0  0  0  0  0  0  0  0  0  0  0
   15.9870  -19.0160    4.2949 C   0  0  0  0  0  0  0  0  0  0  0  0
   16.7114  -19.4873    3.3575 O   0  0  0  0  0  0  0  0  0  0  0  0
   16.4299  -20.3643    8.8681 O   0  0  0  0  0  0  0  0  0  0  0  0
   16.9020  -12.7024    4.0882 C   0  0  0  0  0  0  0  0  0  0  0  0
   18.2804  -13.3559    3.1435 S   0  0  0  0  0  0  0  0  0  0  0  0
   18.6758  -15.0680    3.6207 C   0  0  0  0  0  0  0  0  0  0  0  0
   17.4282  -15.7365    4.1115 C   0  0  0  0  0  0  0  0  0  0  0  0
   17.6830  -17.1417    4.5118 C   0  0  2  0  0  0  0  0  0  0  0  0
   16.4350  -17.8133    4.9030 N   0  0  0  0  0  0  0  0  0  0  0  0
   18.6836  -17.2497    5.5737 C   0  0  0  0  0  0  0  0  0  0  0  0
   18.5057  -17.1710    6.8054 O   0  0  0  0  0  0  0  0  0  0  0  0
   20.0329  -17.4709    5.1959 O   0  0  0  0  0  0  0  0  0  0  0  0
  1  2  1  0
  3  2  1  0
  4  3  1  0
  5  4  1  0
  5  1  1  0
  5  6  1  1
  6  7  2  0
  8  6  1  0
  9  8  1  0
  9 10  1  1
 11 10  1  0
 12 11  1  0
 13 12  2  0
 14  9  1  0
 15 14  2  0
 16 12  1  0
 18 17  1  0
 19 18  1  0
 20 19  1  0
 21 22  1  0
 21 20  1  1
 22 14  1  0
 23 21  1  0
 24 23  2  0
 25 23  1  0
M  END
$$$$
