PEM.pdb
     RDKit          3D

 25 25  0  0  1  0  0  0  0  0999 V2000
   17.8178  -14.6188  -16.6505 N   0  0  0  0  0  0  0  0  0  0  0  0
   16.5833  -14.6699  -17.3844 C   0  0  0  0  0  0  0  0  0  0  0  0
   17.0410  -15.3564  -18.6758 C   0  0  0  0  0  0  0  0  0  0  0  0
   18.3163  -14.5694  -18.9568 C   0  0  0  0  0  0  0  0  0  0  0  0
   18.7870  -14.1337  -17.5700 C   0  0  1  0  0  0  0  0  0  0  0  0
   18.9659  -12.6805  -17.6114 C   0  0  0  0  0  0  0  0  0  0  0  0
   19.7901  -12.1070  -18.3867 O   0  0  0  0  0  0  0  0  0  0  0  0
   18.2112  -11.8534  -16.7728 N   0  0  0  0  0  0  0  0  0  0  0  0
   18.3153  -10.3851  -16.8113 C   0  0  1  0  0  0  0  0  0  0  0  0
   17.0726   -9.8710  -16.1505 C   0  0  0  0  0  0  0  0  0  0  0  0
   15.9258   -9.6524  -17.0948 C   0  0  0  0  0  0  0  0  0  0  0  0
   14.6950   -9.2059  -16.3821 C   0  0  0  0  0  0  0  0  0  0  0  0
   13.6748   -8.9607  -17.0899 O   0  0  0  0  0  0  0  0  0  0  0  0
   19.4765  -10.0357  -15.9331 C   0  0  0  0  0  0  0  0  0  0  0  0
   19.6022  -10.5877  -14.7907 O   0  0  0  0  0  0  0  0  0  0  0  0
   14.6548   -9.0595  -14.9861 O   0  0  0  0  0  0  0  0  0  0  0  0
   26.8613  -10.2657  -14.6489 C   0  0  0  0  0  0  0  0  0  0  0  0
   25.4201  -10.3662  -15.7131 S   0  0  0  0  0  0  0  0  0  0  0  0
   24.0189   -9.4143  -15.0454 C   0  0  0  0  0  0  0  0  0  0  0  0
   22.8110   -9.6664  -15.8949 C   0  0  0  0  0  0  0  0  0  0  0  0
   21.6611   -8.8315  -15.4703 C   0  0  2  0  0  0  0  0  0  0  0  0
   20.4788   -9.0997  -16.3022 N   0  0  0  0  0  0  0  0  0  0  0  0
   21.9768   -7.4030  -15.4653 C   0  0  0  0  0  0  0  0  0  0  0  0
   21.8009   -6.5758  -16.3817 O   0  0  0  0  0  0  0  0  0  0  0  0
   22.5554   -6.8540  -14.2922 O   0  0  0  0  0  0  0  0  0  0  0  0
  1  2  1  0
  3  2  1  0
  4  3  1  0
  5  4  1  0
  5  1  1  0
  5  6  1  6
  6  7  2  0
  8  6  1  0
  9  8  1  0
  9 10  1  1
 11 10  1  0
 12 11  1  0
 13 12  2  0
 14  9  1  0
 15 14  2  0
 16 12  1  0
 18 17  1  0
 19 18  1  0
 20 19  1  0
 21 22  1  0
 21 20  1  6
 22 14  1  0
 23 21  1  0
 24 23  2  0
 25 23  1  0
M  END
$$$$
