LKQ.pdb
     RDKit          3D

 27 26  0  0  1  0  0  0  0  0999 V2000
   29.4569  -19.9971   -5.2874 C   0  0  0  0  0  0  0  0  0  0  0  0
   27.9793  -19.9407   -5.0786 C   0  0  2  0  0  0  0  0  0  0  0  0
   27.5849  -20.8167   -3.9032 C   0  0  0  0  0  0  0  0  0  0  0  0
   27.1633  -20.2436   -6.3025 C   0  0  0  0  0  0  0  0  0  0  0  0
   27.6104  -19.3963   -7.4647 C   0  0  2  0  0  0  0  0  0  0  0  0
   27.4184  -17.9977   -7.1429 N   0  0  0  0  0  0  0  0  0  0  0  0
   26.9029  -19.7280   -8.7160 C   0  0  0  0  0  0  0  0  0  0  0  0
   25.7626  -19.2310   -8.8998 O   0  0  0  0  0  0  0  0  0  0  0  0
   27.4108  -20.5622   -9.7228 N   0  0  0  0  0  0  0  0  0  0  0  0
   26.8929  -20.4508  -11.0990 C   0  0  1  0  0  0  0  0  0  0  0  0
   27.9266  -20.8924  -12.0784 C   0  0  0  0  0  0  0  0  0  0  0  0
   27.3884  -20.8558  -13.4788 C   0  0  0  0  0  0  0  0  0  0  0  0
   28.3630  -21.4292  -14.4801 C   0  0  0  0  0  0  0  0  0  0  0  0
   27.8616  -21.2514  -15.9032 C   0  0  0  0  0  0  0  0  0  0  0  0
   26.9365  -22.2856  -16.2599 N   0  0  0  0  0  0  0  0  0  0  0  0
   25.6199  -21.2113  -11.2012 C   0  0  0  0  0  0  0  0  0  0  0  0
   25.4549  -22.3267  -10.6896 O   0  0  0  0  0  0  0  0  0  0  0  0
   19.9312  -19.2937  -10.5177 N   0  0  0  0  0  0  0  0  0  0  0  0
   19.6640  -20.5661  -11.0929 C   0  0  0  0  0  0  0  0  0  0  0  0
   18.4801  -20.9883  -11.0853 O   0  0  0  0  0  0  0  0  0  0  0  0
   20.7775  -21.3575  -11.6824 C   0  0  0  0  0  0  0  0  0  0  0  0
   22.0874  -20.6022  -11.4337 C   0  0  0  0  0  0  0  0  0  0  0  0
   23.2415  -21.4017  -12.0077 C   0  0  2  0  0  0  0  0  0  0  0  0
   24.4906  -20.6795  -11.9147 N   0  0  0  0  0  0  0  0  0  0  0  0
   22.9565  -21.6551  -13.4364 C   0  0  0  0  0  0  0  0  0  0  0  0
   22.0333  -22.6221  -13.7926 O   0  0  0  0  0  0  0  0  0  0  0  0
   23.5253  -21.0203  -14.3557 O   0  0  0  0  0  0  0  0  0  0  0  0
  2  1  1  6
  3  2  1  0
  4  5  1  0
  4  2  1  0
  5  7  1  0
  5  6  1  1
  7  8  2  0
  9 10  1  0
  9  7  1  0
 10 11  1  6
 12 11  1  0
 13 14  1  0
 13 12  1  0
 15 14  1  0
 16 10  1  0
 16 17  2  0
 18 19  1  0
 19 21  1  0
 20 19  2  0
 21 22  1  0
 23 22  1  6
 23 24  1  0
 23 25  1  0
 24 16  1  0
 25 26  1  0
 27 25  2  0
M  END
$$$$
