LKQ.pdb
     RDKit          3D

 27 26  0  0  1  0  0  0  0  0999 V2000
   26.0885  -11.9066  -14.8380 C   0  0  0  0  0  0  0  0  0  0  0  0
   26.2475  -11.0759  -16.0687 C   0  0  2  0  0  0  0  0  0  0  0  0
   27.5869  -10.3619  -16.0467 C   0  0  0  0  0  0  0  0  0  0  0  0
   25.1119  -10.1298  -16.3349 C   0  0  0  0  0  0  0  0  0  0  0  0
   23.7936  -10.8578  -16.3075 C   0  0  2  0  0  0  0  0  0  0  0  0
   23.7378  -11.7944  -17.4102 N   0  0  0  0  0  0  0  0  0  0  0  0
   22.6375   -9.9432  -16.3632 C   0  0  0  0  0  0  0  0  0  0  0  0
   22.4558   -9.2837  -17.4183 O   0  0  0  0  0  0  0  0  0  0  0  0
   21.7194   -9.7531  -15.3199 N   0  0  0  0  0  0  0  0  0  0  0  0
   20.5728   -8.8450  -15.5074 C   0  0  1  0  0  0  0  0  0  0  0  0
   19.3160   -9.4940  -15.0360 C   0  0  0  0  0  0  0  0  0  0  0  0
   18.1318   -8.6027  -15.2711 C   0  0  0  0  0  0  0  0  0  0  0  0
   16.8545   -9.1943  -14.7237 C   0  0  0  0  0  0  0  0  0  0  0  0
   15.6369   -8.4289  -15.2135 C   0  0  0  0  0  0  0  0  0  0  0  0
   14.4509   -8.8471  -14.5270 N   0  0  0  0  0  0  0  0  0  0  0  0
   20.8605   -7.5540  -14.8294 C   0  0  0  0  0  0  0  0  0  0  0  0
   21.2494   -7.4774  -13.6563 O   0  0  0  0  0  0  0  0  0  0  0  0
   24.5299   -3.4098  -16.6139 N   0  0  0  0  0  0  0  0  0  0  0  0
   23.4382   -3.6399  -17.4951 C   0  0  0  0  0  0  0  0  0  0  0  0
   23.5815   -3.3544  -18.7109 O   0  0  0  0  0  0  0  0  0  0  0  0
   22.1686   -4.2057  -16.9645 C   0  0  0  0  0  0  0  0  0  0  0  0
   22.3598   -4.4975  -15.4723 C   0  0  0  0  0  0  0  0  0  0  0  0
   21.0658   -5.0447  -14.9007 C   0  0  2  0  0  0  0  0  0  0  0  0
   20.6988   -6.3008  -15.5155 N   0  0  0  0  0  0  0  0  0  0  0  0
   19.9940   -4.0631  -15.1737 C   0  0  0  0  0  0  0  0  0  0  0  0
   20.0161   -2.8291  -14.5484 O   0  0  0  0  0  0  0  0  0  0  0  0
   19.0491   -4.3047  -15.9613 O   0  0  0  0  0  0  0  0  0  0  0  0
  2  1  1  1
  3  2  1  0
  4  5  1  0
  4  2  1  0
  5  7  1  0
  5  6  1  6
  7  8  2  0
  9 10  1  0
  9  7  1  0
 10 11  1  1
 12 11  1  0
 13 14  1  0
 13 12  1  0
 15 14  1  0
 16 10  1  0
 16 17  2  0
 18 19  1  0
 19 21  1  0
 20 19  2  0
 21 22  1  0
 23 22  1  6
 23 24  1  0
 23 25  1  0
 24 16  1  0
 25 26  1  0
 27 25  2  0
M  END
$$$$
