LKQ.pdb
     RDKit          3D

 27 26  0  0  1  0  0  0  0  0999 V2000
   24.5816  -22.0685   -7.3093 C   0  0  0  0  0  0  0  0  0  0  0  0
   23.8543  -20.8041   -7.6290 C   0  0  2  0  0  0  0  0  0  0  0  0
   22.4581  -20.8408   -7.0342 C   0  0  0  0  0  0  0  0  0  0  0  0
   23.8333  -20.4472   -9.0877 C   0  0  0  0  0  0  0  0  0  0  0  0
   25.2336  -20.3578   -9.6351 C   0  0  2  0  0  0  0  0  0  0  0  0
   25.9514  -19.3025   -8.9514 N   0  0  0  0  0  0  0  0  0  0  0  0
   25.2612  -20.1253  -11.0917 C   0  0  0  0  0  0  0  0  0  0  0  0
   24.6833  -19.1015  -11.5378 O   0  0  0  0  0  0  0  0  0  0  0  0
   25.8883  -20.9668  -12.0223 N   0  0  0  0  0  0  0  0  0  0  0  0
   25.8259  -20.6463  -13.4604 C   0  0  1  0  0  0  0  0  0  0  0  0
   26.8961  -21.3749  -14.1999 C   0  0  0  0  0  0  0  0  0  0  0  0
   26.9782  -20.9063  -15.6232 C   0  0  0  0  0  0  0  0  0  0  0  0
   28.0905  -21.5872  -16.3850 C   0  0  0  0  0  0  0  0  0  0  0  0
   28.2577  -20.9883  -17.7712 C   0  0  0  0  0  0  0  0  0  0  0  0
   29.3268  -21.6219  -18.4842 N   0  0  0  0  0  0  0  0  0  0  0  0
   24.4579  -20.9376  -13.9633 C   0  0  0  0  0  0  0  0  0  0  0  0
   23.6364  -21.6185  -13.3351 O   0  0  0  0  0  0  0  0  0  0  0  0
   20.4121  -17.6943  -13.1986 N   0  0  0  0  0  0  0  0  0  0  0  0
   19.6707  -18.4373  -14.1575 C   0  0  0  0  0  0  0  0  0  0  0  0
   18.4383  -18.2137  -14.2634 O   0  0  0  0  0  0  0  0  0  0  0  0
   20.3620  -19.4485  -15.0020 C   0  0  0  0  0  0  0  0  0  0  0  0
   21.8382  -19.4874  -14.5927 C   0  0  0  0  0  0  0  0  0  0  0  0
   22.6039  -20.3613  -15.5677 C   0  0  2  0  0  0  0  0  0  0  0  0
   24.0085  -20.4326  -15.2323 N   0  0  0  0  0  0  0  0  0  0  0  0
   22.4774  -19.7635  -16.9144 C   0  0  0  0  0  0  0  0  0  0  0  0
   21.4444  -20.1559  -17.7468 O   0  0  0  0  0  0  0  0  0  0  0  0
   23.2801  -18.9009  -17.3423 O   0  0  0  0  0  0  0  0  0  0  0  0
  2  1  1  6
  3  2  1  0
  4  5  1  0
  4  2  1  0
  5  7  1  0
  5  6  1  1
  7  8  2  0
  9 10  1  0
  9  7  1  0
 10 11  1  6
 12 11  1  0
 13 14  1  0
 13 12  1  0
 15 14  1  0
 16 10  1  0
 16 17  2  0
 18 19  1  0
 19 21  1  0
 20 19  2  0
 21 22  1  0
 23 22  1  1
 23 24  1  0
 23 25  1  0
 24 16  1  0
 25 26  1  0
 27 25  2  0
M  END
$$$$
