LKQ.pdb
     RDKit          3D

 27 26  0  0  1  0  0  0  0  0999 V2000
   27.3364  -14.5837  -15.8077 C   0  0  0  0  0  0  0  0  0  0  0  0
   26.1534  -14.2615  -16.6601 C   0  0  2  0  0  0  0  0  0  0  0  0
   25.5081  -12.9703  -16.1903 C   0  0  0  0  0  0  0  0  0  0  0  0
   25.1531  -15.3746  -16.7871 C   0  0  0  0  0  0  0  0  0  0  0  0
   25.8439  -16.6826  -17.0708 C   0  0  2  0  0  0  0  0  0  0  0  0
   26.2773  -16.7085  -18.4521 N   0  0  0  0  0  0  0  0  0  0  0  0
   24.9883  -17.8507  -16.7883 C   0  0  0  0  0  0  0  0  0  0  0  0
   23.9831  -18.0379  -17.5202 O   0  0  0  0  0  0  0  0  0  0  0  0
   25.2141  -18.7744  -15.7572 N   0  0  0  0  0  0  0  0  0  0  0  0
   24.3047  -19.9230  -15.5885 C   0  0  1  0  0  0  0  0  0  0  0  0
   25.0183  -21.0564  -14.9336 C   0  0  0  0  0  0  0  0  0  0  0  0
   24.0760  -22.1883  -14.6456 C   0  0  0  0  0  0  0  0  0  0  0  0
   24.6469  -23.5249  -15.0562 C   0  0  0  0  0  0  0  0  0  0  0  0
   23.6636  -24.6516  -14.7878 C   0  0  0  0  0  0  0  0  0  0  0  0
   24.1580  -25.9008  -15.2856 N   0  0  0  0  0  0  0  0  0  0  0  0
   23.0956  -19.4793  -14.8465 C   0  0  0  0  0  0  0  0  0  0  0  0
   23.1441  -18.9479  -13.7291 O   0  0  0  0  0  0  0  0  0  0  0  0
   18.6628  -15.9028  -16.1748 N   0  0  0  0  0  0  0  0  0  0  0  0
   18.9493  -16.9414  -17.1023 C   0  0  0  0  0  0  0  0  0  0  0  0
   18.6858  -16.7478  -18.3161 O   0  0  0  0  0  0  0  0  0  0  0  0
   19.5464  -18.2163  -16.6208 C   0  0  0  0  0  0  0  0  0  0  0  0
   19.9503  -18.0333  -15.1540 C   0  0  0  0  0  0  0  0  0  0  0  0
   20.5903  -19.3124  -14.6490 C   0  0  2  0  0  0  0  0  0  0  0  0
   21.7793  -19.6478  -15.4000 N   0  0  0  0  0  0  0  0  0  0  0  0
   19.6120  -20.4091  -14.8133 C   0  0  0  0  0  0  0  0  0  0  0  0
   18.4630  -20.4270  -14.0428 O   0  0  0  0  0  0  0  0  0  0  0  0
   19.7815  -21.3402  -15.6353 O   0  0  0  0  0  0  0  0  0  0  0  0
  2  1  1  1
  3  2  1  0
  4  5  1  0
  4  2  1  0
  5  7  1  0
  5  6  1  6
  7  8  2  0
  9 10  1  0
  9  7  1  0
 10 11  1  1
 12 11  1  0
 13 14  1  0
 13 12  1  0
 15 14  1  0
 16 10  1  0
 16 17  2  0
 18 19  1  0
 19 21  1  0
 20 19  2  0
 21 22  1  0
 23 22  1  6
 23 24  1  0
 23 25  1  0
 24 16  1  0
 25 26  1  0
 27 25  2  0
M  END
$$$$
