LKQ.pdb
     RDKit          3D

 27 26  0  0  1  0  0  0  0  0999 V2000
   24.9286  -15.1073  -14.8200 C   0  0  0  0  0  0  0  0  0  0  0  0
   25.3100  -14.3717  -16.0624 C   0  0  2  0  0  0  0  0  0  0  0  0
   26.7743  -13.9757  -16.0054 C   0  0  0  0  0  0  0  0  0  0  0  0
   24.4256  -13.2039  -16.3934 C   0  0  0  0  0  0  0  0  0  0  0  0
   22.9769  -13.6162  -16.3972 C   0  0  2  0  0  0  0  0  0  0  0  0
   22.7408  -14.5350  -17.4910 N   0  0  0  0  0  0  0  0  0  0  0  0
   22.0585  -12.4661  -16.4970 C   0  0  0  0  0  0  0  0  0  0  0  0
   22.2114  -11.6691  -17.4575 O   0  0  0  0  0  0  0  0  0  0  0  0
   21.0202  -12.1934  -15.5941 N   0  0  0  0  0  0  0  0  0  0  0  0
   20.0714  -11.1000  -15.8750 C   0  0  1  0  0  0  0  0  0  0  0  0
   18.6681  -11.5840  -15.7362 C   0  0  0  0  0  0  0  0  0  0  0  0
   18.2601  -12.3948  -16.9313 C   0  0  0  0  0  0  0  0  0  0  0  0
   16.8144  -12.8264  -16.8617 C   0  0  0  0  0  0  0  0  0  0  0  0
   16.4601  -13.7577  -18.0087 C   0  0  0  0  0  0  0  0  0  0  0  0
   15.0821  -14.1460  -17.9545 N   0  0  0  0  0  0  0  0  0  0  0  0
   20.3873   -9.9454  -14.9940 C   0  0  0  0  0  0  0  0  0  0  0  0
   20.6603  -10.0657  -13.7922 O   0  0  0  0  0  0  0  0  0  0  0  0
   23.1033   -4.5812  -16.5676 N   0  0  0  0  0  0  0  0  0  0  0  0
   22.7383   -4.3106  -15.2205 C   0  0  0  0  0  0  0  0  0  0  0  0
   23.1367   -3.2394  -14.6973 O   0  0  0  0  0  0  0  0  0  0  0  0
   21.9042   -5.2890  -14.4716 C   0  0  0  0  0  0  0  0  0  0  0  0
   21.6212   -6.4816  -15.3912 C   0  0  0  0  0  0  0  0  0  0  0  0
   20.7313   -7.4721  -14.6649 C   0  0  2  0  0  0  0  0  0  0  0  0
   20.3923   -8.6006  -15.5028 N   0  0  0  0  0  0  0  0  0  0  0  0
   19.4802   -6.7764  -14.2939 C   0  0  0  0  0  0  0  0  0  0  0  0
   19.4095   -6.0772  -13.1020 O   0  0  0  0  0  0  0  0  0  0  0  0
   18.4624   -6.7927  -15.0255 O   0  0  0  0  0  0  0  0  0  0  0  0
  2  1  1  1
  3  2  1  0
  4  5  1  0
  4  2  1  0
  5  7  1  0
  5  6  1  6
  7  8  2  0
  9 10  1  0
  9  7  1  0
 10 11  1  1
 12 11  1  0
 13 14  1  0
 13 12  1  0
 15 14  1  0
 16 10  1  0
 16 17  2  0
 18 19  1  0
 19 21  1  0
 20 19  2  0
 21 22  1  0
 23 22  1  6
 23 24  1  0
 23 25  1  0
 24 16  1  0
 25 26  1  0
 27 25  2  0
M  END
$$$$
