LKQ.pdb
     RDKit          3D

 27 26  0  0  1  0  0  0  0  0999 V2000
   24.4416  -21.9086   -9.5159 C   0  0  0  0  0  0  0  0  0  0  0  0
   25.5456  -20.9845   -9.9126 C   0  0  2  0  0  0  0  0  0  0  0  0
   25.7857  -19.9592   -8.8193 C   0  0  0  0  0  0  0  0  0  0  0  0
   25.3676  -20.3395  -11.2571 C   0  0  0  0  0  0  0  0  0  0  0  0
   25.0682  -21.3744  -12.3098 C   0  0  2  0  0  0  0  0  0  0  0  0
   26.3107  -21.8969  -12.8384 N   0  0  0  0  0  0  0  0  0  0  0  0
   24.2357  -20.8455  -13.4068 C   0  0  0  0  0  0  0  0  0  0  0  0
   24.7830  -20.0969  -14.2560 O   0  0  0  0  0  0  0  0  0  0  0  0
   22.8698  -21.1173  -13.5744 N   0  0  0  0  0  0  0  0  0  0  0  0
   22.1847  -20.6994  -14.8115 C   0  0  1  0  0  0  0  0  0  0  0  0
   21.3744  -21.8245  -15.3598 C   0  0  0  0  0  0  0  0  0  0  0  0
   21.7443  -22.1058  -16.7867 C   0  0  0  0  0  0  0  0  0  0  0  0
   22.8471  -23.1317  -16.8989 C   0  0  0  0  0  0  0  0  0  0  0  0
   23.1779  -23.4304  -18.3513 C   0  0  0  0  0  0  0  0  0  0  0  0
   24.3063  -24.3071  -18.4563 N   0  0  0  0  0  0  0  0  0  0  0  0
   21.3857  -19.4771  -14.5343 C   0  0  0  0  0  0  0  0  0  0  0  0
   20.8389  -19.2584  -13.4450 O   0  0  0  0  0  0  0  0  0  0  0  0
   21.2497  -14.1115  -17.9311 N   0  0  0  0  0  0  0  0  0  0  0  0
   20.1887  -13.9037  -17.0078 C   0  0  0  0  0  0  0  0  0  0  0  0
   19.5631  -12.8143  -17.0523 O   0  0  0  0  0  0  0  0  0  0  0  0
   19.8485  -14.9664  -16.0237 C   0  0  0  0  0  0  0  0  0  0  0  0
   20.7639  -16.1684  -16.2797 C   0  0  0  0  0  0  0  0  0  0  0  0
   20.4494  -17.2588  -15.2733 C   0  0  2  0  0  0  0  0  0  0  0  0
   21.2028  -18.4641  -15.5381 N   0  0  0  0  0  0  0  0  0  0  0  0
   19.0095  -17.5780  -15.3797 C   0  0  0  0  0  0  0  0  0  0  0  0
   18.0987  -16.9264  -14.5673 O   0  0  0  0  0  0  0  0  0  0  0  0
   18.5701  -18.4288  -16.1888 O   0  0  0  0  0  0  0  0  0  0  0  0
  2  1  1  1
  3  2  1  0
  4  5  1  0
  4  2  1  0
  5  7  1  0
  5  6  1  6
  7  8  2  0
  9 10  1  0
  9  7  1  0
 10 11  1  1
 12 11  1  0
 13 14  1  0
 13 12  1  0
 15 14  1  0
 16 10  1  0
 16 17  2  0
 18 19  1  0
 19 21  1  0
 20 19  2  0
 21 22  1  0
 23 22  1  6
 23 24  1  0
 23 25  1  0
 24 16  1  0
 25 26  1  0
 27 25  2  0
M  END
$$$$
