LKQ.pdb
     RDKit          3D

 27 26  0  0  1  0  0  0  0  0999 V2000
   26.6094  -20.2169   -5.7119 C   0  0  0  0  0  0  0  0  0  0  0  0
   27.7010  -19.9516   -6.6959 C   0  0  2  0  0  0  0  0  0  0  0  0
   28.7518  -19.0471   -6.0778 C   0  0  0  0  0  0  0  0  0  0  0  0
   27.2313  -19.4379   -8.0267 C   0  0  0  0  0  0  0  0  0  0  0  0
   26.2894  -20.4184   -8.6747 C   0  0  2  0  0  0  0  0  0  0  0  0
   26.7683  -21.7662   -8.4504 N   0  0  0  0  0  0  0  0  0  0  0  0
   26.1222  -20.1762  -10.1203 C   0  0  0  0  0  0  0  0  0  0  0  0
   25.7714  -19.0268  -10.4903 O   0  0  0  0  0  0  0  0  0  0  0  0
   26.3268  -21.1390  -11.1195 N   0  0  0  0  0  0  0  0  0  0  0  0
   26.1239  -20.7816  -12.5358 C   0  0  1  0  0  0  0  0  0  0  0  0
   27.2486  -21.2990  -13.3665 C   0  0  0  0  0  0  0  0  0  0  0  0
   27.0066  -21.0310  -14.8231 C   0  0  0  0  0  0  0  0  0  0  0  0
   27.5173  -19.6742  -15.2464 C   0  0  0  0  0  0  0  0  0  0  0  0
   27.3188  -19.4493  -16.7358 C   0  0  0  0  0  0  0  0  0  0  0  0
   27.6666  -18.1104  -17.1089 N   0  0  0  0  0  0  0  0  0  0  0  0
   24.7915  -21.2737  -12.9741 C   0  0  0  0  0  0  0  0  0  0  0  0
   24.3900  -22.4247  -12.7568 O   0  0  0  0  0  0  0  0  0  0  0  0
   20.3544  -22.0000  -11.0510 N   0  0  0  0  0  0  0  0  0  0  0  0
   19.7942  -21.7812  -12.3393 C   0  0  0  0  0  0  0  0  0  0  0  0
   19.0084  -22.6456  -12.8035 O   0  0  0  0  0  0  0  0  0  0  0  0
   20.1465  -20.5506  -13.0975 C   0  0  0  0  0  0  0  0  0  0  0  0
   21.6078  -20.2023  -12.7950 C   0  0  0  0  0  0  0  0  0  0  0  0
   22.4943  -20.7808  -13.8814 C   0  0  2  0  0  0  0  0  0  0  0  0
   23.8810  -20.4202  -13.6881 N   0  0  0  0  0  0  0  0  0  0  0  0
   22.0471  -20.2291  -15.1785 C   0  0  0  0  0  0  0  0  0  0  0  0
   22.8990  -19.4245  -15.9141 O   0  0  0  0  0  0  0  0  0  0  0  0
   20.9090  -20.4631  -15.6492 O   0  0  0  0  0  0  0  0  0  0  0  0
  2  1  1  1
  3  2  1  0
  4  5  1  0
  4  2  1  0
  5  7  1  0
  5  6  1  6
  7  8  2  0
  9 10  1  0
  9  7  1  0
 10 11  1  6
 12 11  1  0
 13 14  1  0
 13 12  1  0
 15 14  1  0
 16 10  1  0
 16 17  2  0
 18 19  1  0
 19 21  1  0
 20 19  2  0
 21 22  1  0
 23 22  1  1
 23 24  1  0
 23 25  1  0
 24 16  1  0
 25 26  1  0
 27 25  2  0
M  END
$$$$
