LKQ.pdb
     RDKit          3D

 27 26  0  0  1  0  0  0  0  0999 V2000
   32.6705  -13.9422  -19.0960 C   0  0  0  0  0  0  0  0  0  0  0  0
   33.1417  -14.9452  -20.0971 C   0  0  2  0  0  0  0  0  0  0  0  0
   33.8955  -14.2503  -21.2166 C   0  0  0  0  0  0  0  0  0  0  0  0
   32.0683  -15.8541  -20.6236 C   0  0  0  0  0  0  0  0  0  0  0  0
   31.3292  -16.5183  -19.4917 C   0  0  2  0  0  0  0  0  0  0  0  0
   32.2691  -17.2431  -18.6627 N   0  0  0  0  0  0  0  0  0  0  0  0
   30.2660  -17.4265  -19.9619 C   0  0  0  0  0  0  0  0  0  0  0  0
   29.4079  -16.9693  -20.7593 O   0  0  0  0  0  0  0  0  0  0  0  0
   30.1402  -18.7712  -19.5834 N   0  0  0  0  0  0  0  0  0  0  0  0
   28.9803  -19.5576  -20.0427 C   0  0  1  0  0  0  0  0  0  0  0  0
   29.2501  -21.0159  -19.8890 C   0  0  0  0  0  0  0  0  0  0  0  0
   29.6072  -21.3482  -18.4699 C   0  0  0  0  0  0  0  0  0  0  0  0
   29.8802  -22.8215  -18.2800 C   0  0  0  0  0  0  0  0  0  0  0  0
   30.1063  -23.1572  -16.8156 C   0  0  0  0  0  0  0  0  0  0  0  0
   30.3324  -24.5603  -16.6342 N   0  0  0  0  0  0  0  0  0  0  0  0
   27.7668  -19.1021  -19.3152 C   0  0  0  0  0  0  0  0  0  0  0  0
   27.7857  -18.2044  -18.4626 O   0  0  0  0  0  0  0  0  0  0  0  0
   23.4977  -17.4780  -22.3964 N   0  0  0  0  0  0  0  0  0  0  0  0
   23.0296  -17.0141  -21.1366 C   0  0  0  0  0  0  0  0  0  0  0  0
   21.8132  -16.7182  -21.0235 O   0  0  0  0  0  0  0  0  0  0  0  0
   23.9781  -16.8915  -19.9969 C   0  0  0  0  0  0  0  0  0  0  0  0
   25.2234  -17.7252  -20.3170 C   0  0  0  0  0  0  0  0  0  0  0  0
   25.2551  -18.9427  -19.4130 C   0  0  2  0  0  0  0  0  0  0  0  0
   26.4810  -19.6931  -19.5697 N   0  0  0  0  0  0  0  0  0  0  0  0
   24.1233  -19.8185  -19.7855 C   0  0  0  0  0  0  0  0  0  0  0  0
   23.0389  -19.9403  -18.9349 O   0  0  0  0  0  0  0  0  0  0  0  0
   24.1031  -20.4673  -20.8580 O   0  0  0  0  0  0  0  0  0  0  0  0
  2  1  1  1
  3  2  1  0
  4  5  1  0
  4  2  1  0
  5  7  1  0
  5  6  1  6
  7  8  2  0
  9 10  1  0
  9  7  1  0
 10 11  1  1
 12 11  1  0
 13 14  1  0
 13 12  1  0
 15 14  1  0
 16 10  1  0
 16 17  2  0
 18 19  1  0
 19 21  1  0
 20 19  2  0
 21 22  1  0
 23 22  1  6
 23 24  1  0
 23 25  1  0
 24 16  1  0
 25 26  1  0
 27 25  2  0
M  END
$$$$
