EFP.pdb
     RDKit          3D

 28 29  0  0  1  0  0  0  0  0999 V2000
   28.7710  -19.6462  -18.8327 N   0  0  0  0  0  0  0  0  0  0  0  0
   27.8268  -18.9090  -18.0118 C   0  0  1  0  0  0  0  0  0  0  0  0
   26.6693  -18.4986  -18.8797 C   0  0  0  0  0  0  0  0  0  0  0  0
   26.8936  -19.1079  -20.2502 C   0  0  0  0  0  0  0  0  0  0  0  0
   27.3901  -18.0962  -21.2163 C   0  0  0  0  0  0  0  0  0  0  0  0
   28.4095  -18.3537  -21.8988 O   0  0  0  0  0  0  0  0  0  0  0  0
   27.4193  -19.8078  -16.9042 C   0  0  0  0  0  0  0  0  0  0  0  0
   27.0590  -20.9993  -17.1646 O   0  0  0  0  0  0  0  0  0  0  0  0
   26.7278  -16.8886  -21.3527 O   0  0  0  0  0  0  0  0  0  0  0  0
   27.4080  -19.4119  -15.5577 N   0  0  0  0  0  0  0  0  0  0  0  0
   26.8481  -20.2381  -14.4602 C   0  0  1  0  0  0  0  0  0  0  0  0
   27.4357  -19.6516  -13.2115 C   0  0  0  0  0  0  0  0  0  0  0  0
   26.9339  -20.0872  -11.9316 C   0  0  0  0  0  0  0  0  0  0  0  0
   25.9409  -19.3440  -11.3115 C   0  0  0  0  0  0  0  0  0  0  0  0
   25.3627  -19.6851  -10.1095 C   0  0  0  0  0  0  0  0  0  0  0  0
   25.8028  -20.8364   -9.4910 C   0  0  0  0  0  0  0  0  0  0  0  0
   26.7949  -21.6081  -10.0788 C   0  0  0  0  0  0  0  0  0  0  0  0
   27.3566  -21.2467  -11.2794 C   0  0  0  0  0  0  0  0  0  0  0  0
   25.3941  -20.0222  -14.4995 C   0  0  0  0  0  0  0  0  0  0  0  0
   24.9387  -18.8667  -14.8364 O   0  0  0  0  0  0  0  0  0  0  0  0
   24.4117  -20.9999  -14.2006 N   0  0  0  0  0  0  0  0  0  0  0  0
   24.5764  -22.3869  -13.7770 C   0  0  0  0  0  0  0  0  0  0  0  0
   23.5067  -23.1414  -14.5661 C   0  0  0  0  0  0  0  0  0  0  0  0
   22.6111  -22.0728  -15.1152 C   0  0  0  0  0  0  0  0  0  0  0  0
   22.9677  -20.8542  -14.2950 C   0  0  1  0  0  0  0  0  0  0  0  0
   22.2594  -20.8978  -13.0199 C   0  0  0  0  0  0  0  0  0  0  0  0
   22.7546  -21.2417  -11.9214 O   0  0  0  0  0  0  0  0  0  0  0  0
   20.9006  -20.5168  -13.0436 O   0  0  0  0  0  0  0  0  0  0  0  0
  2  1  1  6
  2  7  1  0
  2  3  1  0
  3  4  1  0
  5  4  1  0
  6  5  2  0
  7  8  2  0
  9  5  1  0
 10 11  1  0
 10  7  1  0
 11 12  1  1
 12 13  1  0
 13 18  1  0
 14 13  2  0
 14 15  1  0
 15 16  2  0
 16 17  1  0
 18 17  2  0
 19 20  2  0
 19 11  1  0
 21 19  1  0
 22 21  1  0
 23 24  1  0
 23 22  1  0
 24 25  1  0
 25 21  1  0
 25 26  1  1
 26 28  1  0
 27 26  2  0
M  END
$$$$
