EFP.pdb
     RDKit          3D

 28 29  0  0  1  0  0  0  0  0999 V2000
   21.1148  -11.5078  -17.2085 N   0  0  0  0  0  0  0  0  0  0  0  0
   20.9287  -10.1656  -17.7306 C   0  0  1  0  0  0  0  0  0  0  0  0
   19.9478  -10.2352  -18.8684 C   0  0  0  0  0  0  0  0  0  0  0  0
   18.9183  -11.2907  -18.5136 C   0  0  0  0  0  0  0  0  0  0  0  0
   17.9063  -11.4413  -19.5891 C   0  0  0  0  0  0  0  0  0  0  0  0
   16.6917  -11.4822  -19.2819 O   0  0  0  0  0  0  0  0  0  0  0  0
   20.4422   -9.3261  -16.6082 C   0  0  0  0  0  0  0  0  0  0  0  0
   19.6452   -9.8254  -15.7523 O   0  0  0  0  0  0  0  0  0  0  0  0
   18.3109  -11.5340  -20.9094 O   0  0  0  0  0  0  0  0  0  0  0  0
   20.8181   -7.9854  -16.4323 N   0  0  0  0  0  0  0  0  0  0  0  0
   20.3690   -7.1458  -15.2947 C   0  0  1  0  0  0  0  0  0  0  0  0
   21.5862   -7.0016  -14.4310 C   0  0  0  0  0  0  0  0  0  0  0  0
   21.9260   -8.0660  -13.5191 C   0  0  0  0  0  0  0  0  0  0  0  0
   21.2558   -8.1521  -12.3081 C   0  0  0  0  0  0  0  0  0  0  0  0
   21.4712   -9.1452  -11.3793 C   0  0  0  0  0  0  0  0  0  0  0  0
   22.4115  -10.1087  -11.6782 C   0  0  0  0  0  0  0  0  0  0  0  0
   23.1038  -10.0582  -12.8795 C   0  0  0  0  0  0  0  0  0  0  0  0
   22.8711   -9.0566  -13.7908 C   0  0  0  0  0  0  0  0  0  0  0  0
   19.9919   -5.8501  -15.8790 C   0  0  0  0  0  0  0  0  0  0  0  0
   20.6037   -5.4329  -16.9315 O   0  0  0  0  0  0  0  0  0  0  0  0
   18.9789   -4.9909  -15.3833 N   0  0  0  0  0  0  0  0  0  0  0  0
   18.0673   -5.1772  -14.2587 C   0  0  0  0  0  0  0  0  0  0  0  0
   16.7310   -4.6465  -14.7772 C   0  0  0  0  0  0  0  0  0  0  0  0
   17.0758   -3.9001  -16.0300 C   0  0  0  0  0  0  0  0  0  0  0  0
   18.5713   -3.7052  -15.9273 C   0  0  1  0  0  0  0  0  0  0  0  0
   18.8579   -2.5564  -15.0743 C   0  0  0  0  0  0  0  0  0  0  0  0
   18.5787   -1.3637  -15.3383 O   0  0  0  0  0  0  0  0  0  0  0  0
   19.5056   -2.8298  -13.8505 O   0  0  0  0  0  0  0  0  0  0  0  0
  2  1  1  1
  2  7  1  0
  2  3  1  0
  3  4  1  0
  5  4  1  0
  6  5  2  0
  7  8  2  0
  9  5  1  0
 10 11  1  0
 10  7  1  0
 11 12  1  1
 12 13  1  0
 13 18  1  0
 14 13  2  0
 14 15  1  0
 15 16  2  0
 16 17  1  0
 18 17  2  0
 19 20  2  0
 19 11  1  0
 21 19  1  0
 22 21  1  0
 23 24  1  0
 23 22  1  0
 24 25  1  0
 25 21  1  0
 25 26  1  1
 26 28  1  0
 27 26  2  0
M  END
$$$$
