EFP.pdb
     RDKit          3D

 28 29  0  0  1  0  0  0  0  0999 V2000
   19.7624  -18.9096  -14.4851 N   0  0  0  0  0  0  0  0  0  0  0  0
   20.6367  -20.0668  -14.5562 C   0  0  1  0  0  0  0  0  0  0  0  0
   20.7214  -20.5048  -15.9924 C   0  0  0  0  0  0  0  0  0  0  0  0
   19.5255  -21.3970  -16.2640 C   0  0  0  0  0  0  0  0  0  0  0  0
   19.6581  -22.7035  -15.5721 C   0  0  0  0  0  0  0  0  0  0  0  0
   18.9877  -22.9144  -14.5341 O   0  0  0  0  0  0  0  0  0  0  0  0
   21.9513  -19.6528  -14.0073 C   0  0  0  0  0  0  0  0  0  0  0  0
   22.4059  -18.4957  -14.2755 O   0  0  0  0  0  0  0  0  0  0  0  0
   20.5135  -23.6678  -16.0761 O   0  0  0  0  0  0  0  0  0  0  0  0
   22.7391  -20.4805  -13.1923 N   0  0  0  0  0  0  0  0  0  0  0  0
   24.1044  -20.1266  -12.7328 C   0  0  1  0  0  0  0  0  0  0  0  0
   24.2830  -20.8964  -11.4585 C   0  0  0  0  0  0  0  0  0  0  0  0
   25.5194  -20.7623  -10.7285 C   0  0  0  0  0  0  0  0  0  0  0  0
   25.5125  -20.0949   -9.5130 C   0  0  0  0  0  0  0  0  0  0  0  0
   26.6234  -19.9397   -8.7148 C   0  0  0  0  0  0  0  0  0  0  0  0
   27.8109  -20.4835   -9.1573 C   0  0  0  0  0  0  0  0  0  0  0  0
   27.8600  -21.1591  -10.3682 C   0  0  0  0  0  0  0  0  0  0  0  0
   26.7372  -21.3008  -11.1473 C   0  0  0  0  0  0  0  0  0  0  0  0
   25.0175  -20.6257  -13.7718 C   0  0  0  0  0  0  0  0  0  0  0  0
   24.6719  -21.6463  -14.4754 O   0  0  0  0  0  0  0  0  0  0  0  0
   26.2809  -20.0667  -14.0905 N   0  0  0  0  0  0  0  0  0  0  0  0
   27.1197  -19.1580  -13.3152 C   0  0  0  0  0  0  0  0  0  0  0  0
   27.6497  -18.1705  -14.3546 C   0  0  0  0  0  0  0  0  0  0  0  0
   27.3347  -18.8010  -15.6770 C   0  0  0  0  0  0  0  0  0  0  0  0
   27.0343  -20.2394  -15.3224 C   0  0  1  0  0  0  0  0  0  0  0  0
   28.2837  -20.9802  -15.1818 C   0  0  0  0  0  0  0  0  0  0  0  0
   28.7693  -21.3940  -14.1033 O   0  0  0  0  0  0  0  0  0  0  0  0
   28.9936  -21.2449  -16.3726 O   0  0  0  0  0  0  0  0  0  0  0  0
  2  1  1  6
  2  7  1  0
  2  3  1  0
  3  4  1  0
  5  4  1  0
  6  5  2  0
  7  8  2  0
  9  5  1  0
 10 11  1  0
 10  7  1  0
 11 12  1  1
 12 13  1  0
 13 18  1  0
 14 13  2  0
 14 15  1  0
 15 16  2  0
 16 17  1  0
 18 17  2  0
 19 20  2  0
 19 11  1  0
 21 19  1  0
 22 21  1  0
 23 24  1  0
 23 22  1  0
 24 25  1  0
 25 21  1  0
 25 26  1  1
 26 28  1  0
 27 26  2  0
M  END
$$$$
