EFP.pdb
     RDKit          3D

 28 29  0  0  1  0  0  0  0  0999 V2000
   25.8095  -19.4664  -11.9828 N   0  0  0  0  0  0  0  0  0  0  0  0
   25.4543  -20.1942  -10.7774 C   0  0  1  0  0  0  0  0  0  0  0  0
   25.1005  -21.6033  -11.1656 C   0  0  0  0  0  0  0  0  0  0  0  0
   23.5941  -21.7381  -11.0541 C   0  0  0  0  0  0  0  0  0  0  0  0
   22.9030  -20.9785  -12.1259 C   0  0  0  0  0  0  0  0  0  0  0  0
   22.1561  -20.0224  -11.8109 O   0  0  0  0  0  0  0  0  0  0  0  0
   26.6257  -20.1293   -9.8694 C   0  0  0  0  0  0  0  0  0  0  0  0
   27.7755  -20.4522  -10.3061 O   0  0  0  0  0  0  0  0  0  0  0  0
   23.0888  -21.3308  -13.4514 O   0  0  0  0  0  0  0  0  0  0  0  0
   26.5372  -19.7238   -8.5286 N   0  0  0  0  0  0  0  0  0  0  0  0
   27.7157  -19.4942   -7.6573 C   0  0  1  0  0  0  0  0  0  0  0  0
   27.1938  -18.6474   -6.5354 C   0  0  0  0  0  0  0  0  0  0  0  0
   27.9784  -18.5208   -5.3320 C   0  0  0  0  0  0  0  0  0  0  0  0
   28.8482  -17.4480   -5.2073 C   0  0  0  0  0  0  0  0  0  0  0  0
   29.6168  -17.2072   -4.0908 C   0  0  0  0  0  0  0  0  0  0  0  0
   29.5099  -18.0904   -3.0371 C   0  0  0  0  0  0  0  0  0  0  0  0
   28.6508  -19.1766   -3.1222 C   0  0  0  0  0  0  0  0  0  0  0  0
   27.8937  -19.3957   -4.2476 C   0  0  0  0  0  0  0  0  0  0  0  0
   28.1120  -20.8214   -7.1635 C   0  0  0  0  0  0  0  0  0  0  0  0
   27.2569  -21.7828   -7.1883 O   0  0  0  0  0  0  0  0  0  0  0  0
   29.3914  -21.1581   -6.6536 N   0  0  0  0  0  0  0  0  0  0  0  0
   30.5863  -20.3313   -6.5155 C   0  0  0  0  0  0  0  0  0  0  0  0
   31.7253  -21.2579   -6.9401 C   0  0  0  0  0  0  0  0  0  0  0  0
   31.1166  -22.6271   -6.9623 C   0  0  0  0  0  0  0  0  0  0  0  0
   29.8351  -22.4591   -6.1785 C   0  0  1  0  0  0  0  0  0  0  0  0
   30.1226  -22.5279   -4.7494 C   0  0  0  0  0  0  0  0  0  0  0  0
   30.8547  -21.7345   -4.1133 O   0  0  0  0  0  0  0  0  0  0  0  0
   29.5159  -23.5850   -4.0377 O   0  0  0  0  0  0  0  0  0  0  0  0
  2  1  1  6
  2  7  1  0
  2  3  1  0
  3  4  1  0
  5  4  1  0
  6  5  2  0
  7  8  2  0
  9  5  1  0
 10 11  1  0
 10  7  1  0
 11 12  1  1
 12 13  1  0
 13 18  1  0
 14 13  2  0
 14 15  1  0
 15 16  2  0
 16 17  1  0
 18 17  2  0
 19 20  2  0
 19 11  1  0
 21 19  1  0
 22 21  1  0
 23 24  1  0
 23 22  1  0
 24 25  1  0
 25 21  1  0
 25 26  1  1
 26 28  1  0
 27 26  2  0
M  END
$$$$
