EFP.pdb
     RDKit          3D

 28 29  0  0  1  0  0  0  0  0999 V2000
   17.9504  -15.0417  -17.7892 N   0  0  0  0  0  0  0  0  0  0  0  0
   17.5593  -14.0431  -16.8101 C   0  0  1  0  0  0  0  0  0  0  0  0
   17.7313  -14.6360  -15.4389 C   0  0  0  0  0  0  0  0  0  0  0  0
   16.5809  -15.5985  -15.2151 C   0  0  0  0  0  0  0  0  0  0  0  0
   15.3632  -14.8866  -14.7526 C   0  0  0  0  0  0  0  0  0  0  0  0
   15.3420  -14.4031  -13.5963 O   0  0  0  0  0  0  0  0  0  0  0  0
   18.4218  -12.8564  -17.0312 C   0  0  0  0  0  0  0  0  0  0  0  0
   19.6297  -13.0189  -17.3944 O   0  0  0  0  0  0  0  0  0  0  0  0
   14.2725  -14.7650  -15.5959 O   0  0  0  0  0  0  0  0  0  0  0  0
   17.9734  -11.5376  -16.8595 N   0  0  0  0  0  0  0  0  0  0  0  0
   18.7875  -10.3411  -17.1853 C   0  0  1  0  0  0  0  0  0  0  0  0
   17.8451   -9.4343  -17.9189 C   0  0  0  0  0  0  0  0  0  0  0  0
   17.5786   -9.6843  -19.3140 C   0  0  0  0  0  0  0  0  0  0  0  0
   18.5594   -9.3881  -20.2484 C   0  0  0  0  0  0  0  0  0  0  0  0
   18.4291   -9.6194  -21.5993 C   0  0  0  0  0  0  0  0  0  0  0  0
   17.2494  -10.1797  -22.0422 C   0  0  0  0  0  0  0  0  0  0  0  0
   16.2431  -10.4909  -21.1391 C   0  0  0  0  0  0  0  0  0  0  0  0
   16.3969  -10.2504  -19.7951 C   0  0  0  0  0  0  0  0  0  0  0  0
   19.1701   -9.7541  -15.8924 C   0  0  0  0  0  0  0  0  0  0  0  0
   18.3750   -9.8735  -14.8876 O   0  0  0  0  0  0  0  0  0  0  0  0
   20.3754   -9.0533  -15.6347 N   0  0  0  0  0  0  0  0  0  0  0  0
   21.5059   -8.7879  -16.5190 C   0  0  0  0  0  0  0  0  0  0  0  0
   22.7283   -9.0026  -15.6269 C   0  0  0  0  0  0  0  0  0  0  0  0
   22.1816   -9.0447  -14.2323 C   0  0  0  0  0  0  0  0  0  0  0  0
   20.7958   -8.4585  -14.3759 C   0  0  1  0  0  0  0  0  0  0  0  0
   20.8785   -7.0016  -14.3802 C   0  0  0  0  0  0  0  0  0  0  0  0
   20.7055   -6.2637  -15.3781 O   0  0  0  0  0  0  0  0  0  0  0  0
   21.1800   -6.3867  -13.1461 O   0  0  0  0  0  0  0  0  0  0  0  0
  2  1  1  6
  2  7  1  0
  2  3  1  0
  3  4  1  0
  5  4  1  0
  6  5  2  0
  7  8  2  0
  9  5  1  0
 10 11  1  0
 10  7  1  0
 11 12  1  6
 12 13  1  0
 13 18  1  0
 14 13  2  0
 14 15  1  0
 15 16  2  0
 16 17  1  0
 18 17  2  0
 19 20  2  0
 19 11  1  0
 21 19  1  0
 22 21  1  0
 23 24  1  0
 23 22  1  0
 24 25  1  0
 25 21  1  0
 25 26  1  6
 26 28  1  0
 27 26  2  0
M  END
$$$$
