EFP.pdb
     RDKit          3D

 28 29  0  0  1  0  0  0  0  0999 V2000
   25.7378  -16.6018  -19.2011 N   0  0  0  0  0  0  0  0  0  0  0  0
   24.7852  -16.9760  -18.1710 C   0  0  1  0  0  0  0  0  0  0  0  0
   23.5334  -17.4675  -18.8440 C   0  0  0  0  0  0  0  0  0  0  0  0
   22.4969  -16.3662  -18.7302 C   0  0  0  0  0  0  0  0  0  0  0  0
   21.8577  -16.3625  -17.3904 C   0  0  0  0  0  0  0  0  0  0  0  0
   20.8543  -17.0869  -17.1917 O   0  0  0  0  0  0  0  0  0  0  0  0
   25.4328  -18.0192  -17.3383 C   0  0  0  0  0  0  0  0  0  0  0  0
   26.2102  -18.8640  -17.8852 O   0  0  0  0  0  0  0  0  0  0  0  0
   22.3721  -15.5656  -16.3825 O   0  0  0  0  0  0  0  0  0  0  0  0
   25.2335  -18.1305  -15.9535 N   0  0  0  0  0  0  0  0  0  0  0  0
   25.7325  -19.2642  -15.1373 C   0  0  1  0  0  0  0  0  0  0  0  0
   25.9423  -18.6803  -13.7722 C   0  0  0  0  0  0  0  0  0  0  0  0
   26.1015  -19.5701  -12.6485 C   0  0  0  0  0  0  0  0  0  0  0  0
   24.9869  -19.9057  -11.8948 C   0  0  0  0  0  0  0  0  0  0  0  0
   25.0143  -20.7730  -10.8260 C   0  0  0  0  0  0  0  0  0  0  0  0
   26.2268  -21.3381  -10.4908 C   0  0  0  0  0  0  0  0  0  0  0  0
   27.3658  -21.0282  -11.2200 C   0  0  0  0  0  0  0  0  0  0  0  0
   27.3129  -20.1594  -12.2830 C   0  0  0  0  0  0  0  0  0  0  0  0
   24.6428  -20.2515  -15.1165 C   0  0  0  0  0  0  0  0  0  0  0  0
   23.4283  -19.8508  -15.2597 O   0  0  0  0  0  0  0  0  0  0  0  0
   24.8072  -21.6508  -14.9576 N   0  0  0  0  0  0  0  0  0  0  0  0
   25.9356  -22.4004  -14.4145 C   0  0  0  0  0  0  0  0  0  0  0  0
   26.0636  -23.6015  -15.3511 C   0  0  0  0  0  0  0  0  0  0  0  0
   24.7920  -23.6057  -16.1439 C   0  0  0  0  0  0  0  0  0  0  0  0
   23.8780  -22.6968  -15.3544 C   0  0  1  0  0  0  0  0  0  0  0  0
   23.2808  -23.4417  -14.2507 C   0  0  0  0  0  0  0  0  0  0  0  0
   22.4223  -24.3476  -14.3618 O   0  0  0  0  0  0  0  0  0  0  0  0
   23.7190  -23.0998  -12.9534 O   0  0  0  0  0  0  0  0  0  0  0  0
  2  1  1  6
  2  7  1  0
  2  3  1  0
  3  4  1  0
  5  4  1  0
  6  5  2  0
  7  8  2  0
  9  5  1  0
 10 11  1  0
 10  7  1  0
 11 12  1  1
 12 13  1  0
 13 18  1  0
 14 13  2  0
 14 15  1  0
 15 16  2  0
 16 17  1  0
 18 17  2  0
 19 20  2  0
 19 11  1  0
 21 19  1  0
 22 21  1  0
 23 24  1  0
 23 22  1  0
 24 25  1  0
 25 21  1  0
 25 26  1  1
 26 28  1  0
 27 26  2  0
M  END
$$$$
