EFP.pdb
     RDKit          3D

 28 29  0  0  1  0  0  0  0  0999 V2000
   25.9759  -22.1605  -12.9367 N   0  0  0  0  0  0  0  0  0  0  0  0
   26.2360  -20.9207  -12.2267 C   0  0  1  0  0  0  0  0  0  0  0  0
   25.0872  -19.9838  -12.4797 C   0  0  0  0  0  0  0  0  0  0  0  0
   24.6975  -20.1302  -13.9381 C   0  0  0  0  0  0  0  0  0  0  0  0
   25.1955  -18.9897  -14.7473 C   0  0  0  0  0  0  0  0  0  0  0  0
   24.4638  -18.5160  -15.6481 O   0  0  0  0  0  0  0  0  0  0  0  0
   26.3862  -21.2650  -10.7915 C   0  0  0  0  0  0  0  0  0  0  0  0
   26.0076  -22.4066  -10.3781 O   0  0  0  0  0  0  0  0  0  0  0  0
   26.4524  -18.4654  -14.5009 O   0  0  0  0  0  0  0  0  0  0  0  0
   26.9331  -20.3863   -9.8435 N   0  0  0  0  0  0  0  0  0  0  0  0
   27.0966  -20.7206   -8.4074 C   0  0  1  0  0  0  0  0  0  0  0  0
   28.1820  -19.8029   -7.9297 C   0  0  0  0  0  0  0  0  0  0  0  0
   28.4385  -19.7015   -6.5141 C   0  0  0  0  0  0  0  0  0  0  0  0
   29.2365  -20.6588   -5.9061 C   0  0  0  0  0  0  0  0  0  0  0  0
   29.5776  -20.6410   -4.5724 C   0  0  0  0  0  0  0  0  0  0  0  0
   29.0928  -19.6056   -3.8012 C   0  0  0  0  0  0  0  0  0  0  0  0
   28.2910  -18.6275   -4.3717 C   0  0  0  0  0  0  0  0  0  0  0  0
   27.9643  -18.6672   -5.7056 C   0  0  0  0  0  0  0  0  0  0  0  0
   25.8150  -20.3829   -7.7703 C   0  0  0  0  0  0  0  0  0  0  0  0
   25.1018  -19.4294   -8.2586 O   0  0  0  0  0  0  0  0  0  0  0  0
   25.2661  -21.0343   -6.6369 N   0  0  0  0  0  0  0  0  0  0  0  0
   25.8582  -22.0445   -5.7654 C   0  0  0  0  0  0  0  0  0  0  0  0
   24.7155  -23.0281   -5.5142 C   0  0  0  0  0  0  0  0  0  0  0  0
   23.4860  -22.3163   -5.9908 C   0  0  0  0  0  0  0  0  0  0  0  0
   23.9272  -20.8741   -6.0922 C   0  0  1  0  0  0  0  0  0  0  0  0
   23.8688  -20.2503   -4.7742 C   0  0  0  0  0  0  0  0  0  0  0  0
   24.8544  -19.9914   -4.0451 O   0  0  0  0  0  0  0  0  0  0  0  0
   22.5841  -19.9164   -4.2945 O   0  0  0  0  0  0  0  0  0  0  0  0
  2  1  1  6
  2  7  1  0
  2  3  1  0
  3  4  1  0
  5  4  1  0
  6  5  2  0
  7  8  2  0
  9  5  1  0
 10 11  1  0
 10  7  1  0
 11 12  1  1
 12 13  1  0
 13 18  1  0
 14 13  2  0
 14 15  1  0
 15 16  2  0
 16 17  1  0
 18 17  2  0
 19 20  2  0
 19 11  1  0
 21 19  1  0
 22 21  1  0
 23 24  1  0
 23 22  1  0
 24 25  1  0
 25 21  1  0
 25 26  1  1
 26 28  1  0
 27 26  2  0
M  END
$$$$
