EFP.pdb
     RDKit          3D

 28 29  0  0  1  0  0  0  0  0999 V2000
   26.4973  -21.7823  -13.2708 N   0  0  0  0  0  0  0  0  0  0  0  0
   26.3917  -20.5753  -12.4703 C   0  0  1  0  0  0  0  0  0  0  0  0
   25.1035  -19.8859  -12.8264 C   0  0  0  0  0  0  0  0  0  0  0  0
   24.1872  -20.9281  -13.4381 C   0  0  0  0  0  0  0  0  0  0  0  0
   22.9100  -20.3239  -13.8932 C   0  0  0  0  0  0  0  0  0  0  0  0
   22.7516  -19.0846  -13.7918 O   0  0  0  0  0  0  0  0  0  0  0  0
   26.4419  -20.9917  -11.0473 C   0  0  0  0  0  0  0  0  0  0  0  0
   25.9965  -22.1350  -10.7130 O   0  0  0  0  0  0  0  0  0  0  0  0
   21.9151  -21.1286  -14.4206 O   0  0  0  0  0  0  0  0  0  0  0  0
   26.9630  -20.1808  -10.0271 N   0  0  0  0  0  0  0  0  0  0  0  0
   27.0524  -20.5985   -8.6065 C   0  0  1  0  0  0  0  0  0  0  0  0
   28.1098  -19.7117   -8.0203 C   0  0  0  0  0  0  0  0  0  0  0  0
   28.2788  -19.6782   -6.5884 C   0  0  0  0  0  0  0  0  0  0  0  0
   29.0745  -20.6394   -5.9836 C   0  0  0  0  0  0  0  0  0  0  0  0
   29.3358  -20.6821   -4.6326 C   0  0  0  0  0  0  0  0  0  0  0  0
   28.7686  -19.7069   -3.8396 C   0  0  0  0  0  0  0  0  0  0  0  0
   27.9660  -18.7271   -4.4060 C   0  0  0  0  0  0  0  0  0  0  0  0
   27.7199  -18.7057   -5.7576 C   0  0  0  0  0  0  0  0  0  0  0  0
   25.7389  -20.2972   -8.0181 C   0  0  0  0  0  0  0  0  0  0  0  0
   25.0486  -19.3183   -8.4885 O   0  0  0  0  0  0  0  0  0  0  0  0
   25.1347  -21.0109   -6.9523 N   0  0  0  0  0  0  0  0  0  0  0  0
   25.6538  -22.1247   -6.1646 C   0  0  0  0  0  0  0  0  0  0  0  0
   24.4534  -23.0587   -6.0136 C   0  0  0  0  0  0  0  0  0  0  0  0
   23.2743  -22.2389   -6.4418 C   0  0  0  0  0  0  0  0  0  0  0  0
   23.7978  -20.8211   -6.4122 C   0  0  1  0  0  0  0  0  0  0  0  0
   23.7520  -20.3106   -5.0458 C   0  0  0  0  0  0  0  0  0  0  0  0
   24.7473  -20.0443   -4.3327 O   0  0  0  0  0  0  0  0  0  0  0  0
   22.4687  -20.1050   -4.4956 O   0  0  0  0  0  0  0  0  0  0  0  0
  2  1  1  6
  2  7  1  0
  2  3  1  0
  3  4  1  0
  5  4  1  0
  6  5  2  0
  7  8  2  0
  9  5  1  0
 10 11  1  0
 10  7  1  0
 11 12  1  1
 12 13  1  0
 13 18  1  0
 14 13  2  0
 14 15  1  0
 15 16  2  0
 16 17  1  0
 18 17  2  0
 19 20  2  0
 19 11  1  0
 21 19  1  0
 22 21  1  0
 23 24  1  0
 23 22  1  0
 24 25  1  0
 25 21  1  0
 25 26  1  1
 26 28  1  0
 27 26  2  0
M  END
$$$$
