EFP.pdb
     RDKit          3D

 28 29  0  0  1  0  0  0  0  0999 V2000
   24.9359  -16.4969  -18.7745 N   0  0  0  0  0  0  0  0  0  0  0  0
   24.1947  -17.0212  -17.6411 C   0  0  1  0  0  0  0  0  0  0  0  0
   22.9262  -17.6436  -18.1557 C   0  0  0  0  0  0  0  0  0  0  0  0
   21.7699  -16.9656  -17.4462 C   0  0  0  0  0  0  0  0  0  0  0  0
   21.1296  -15.9437  -18.3118 C   0  0  0  0  0  0  0  0  0  0  0  0
   21.4447  -14.7390  -18.1679 O   0  0  0  0  0  0  0  0  0  0  0  0
   25.0765  -18.0015  -16.9610 C   0  0  0  0  0  0  0  0  0  0  0  0
   25.8188  -18.7645  -17.6568 O   0  0  0  0  0  0  0  0  0  0  0  0
   20.1988  -16.3283  -19.2611 O   0  0  0  0  0  0  0  0  0  0  0  0
   25.1407  -18.1389  -15.5657 N   0  0  0  0  0  0  0  0  0  0  0  0
   25.8723  -19.2307  -14.8777 C   0  0  1  0  0  0  0  0  0  0  0  0
   26.1737  -18.6805  -13.5157 C   0  0  0  0  0  0  0  0  0  0  0  0
   26.6241  -19.5803  -12.4826 C   0  0  0  0  0  0  0  0  0  0  0  0
   25.7439  -19.9369  -11.4722 C   0  0  0  0  0  0  0  0  0  0  0  0
   26.0528  -20.8151  -10.4580 C   0  0  0  0  0  0  0  0  0  0  0  0
   27.3156  -21.3694  -10.4534 C   0  0  0  0  0  0  0  0  0  0  0  0
   28.2260  -21.0385  -11.4467 C   0  0  0  0  0  0  0  0  0  0  0  0
   27.8939  -20.1590  -12.4487 C   0  0  0  0  0  0  0  0  0  0  0  0
   24.9241  -20.3509  -14.7857 C   0  0  0  0  0  0  0  0  0  0  0  0
   23.6632  -20.1033  -14.7152 O   0  0  0  0  0  0  0  0  0  0  0  0
   25.2760  -21.7243  -14.7760 N   0  0  0  0  0  0  0  0  0  0  0  0
   26.5949  -22.3483  -14.8158 C   0  0  0  0  0  0  0  0  0  0  0  0
   26.4124  -23.5323  -15.7650 C   0  0  0  0  0  0  0  0  0  0  0  0
   24.9286  -23.6741  -15.9193 C   0  0  0  0  0  0  0  0  0  0  0  0
   24.3729  -22.8643  -14.7703 C   0  0  1  0  0  0  0  0  0  0  0  0
   24.3983  -23.6643  -13.5500 C   0  0  0  0  0  0  0  0  0  0  0  0
   25.2628  -23.5893  -12.6461 O   0  0  0  0  0  0  0  0  0  0  0  0
   23.3519  -24.5978  -13.3901 O   0  0  0  0  0  0  0  0  0  0  0  0
  2  1  1  6
  2  7  1  0
  2  3  1  0
  3  4  1  0
  5  4  1  0
  6  5  2  0
  7  8  2  0
  9  5  1  0
 10 11  1  0
 10  7  1  0
 11 12  1  1
 12 13  1  0
 13 18  1  0
 14 13  2  0
 14 15  1  0
 15 16  2  0
 16 17  1  0
 18 17  2  0
 19 20  2  0
 19 11  1  0
 21 19  1  0
 22 21  1  0
 23 24  1  0
 23 22  1  0
 24 25  1  0
 25 21  1  0
 25 26  1  1
 26 28  1  0
 27 26  2  0
M  END
$$$$
