EFP.pdb
     RDKit          3D

 28 29  0  0  1  0  0  0  0  0999 V2000
   17.1635  -12.1508  -18.3178 N   0  0  0  0  0  0  0  0  0  0  0  0
   16.8507  -10.7776  -17.9640 C   0  0  1  0  0  0  0  0  0  0  0  0
   16.0337  -10.7915  -16.7015 C   0  0  0  0  0  0  0  0  0  0  0  0
   16.8430  -11.5223  -15.6475 C   0  0  0  0  0  0  0  0  0  0  0  0
   16.1561  -11.5060  -14.3317 C   0  0  0  0  0  0  0  0  0  0  0  0
   16.5832  -10.7467  -13.4305 O   0  0  0  0  0  0  0  0  0  0  0  0
   18.1421  -10.0659  -17.8004 C   0  0  0  0  0  0  0  0  0  0  0  0
   19.1830  -10.7225  -17.4800 O   0  0  0  0  0  0  0  0  0  0  0  0
   15.0599  -12.3227  -14.1151 O   0  0  0  0  0  0  0  0  0  0  0  0
   18.2852   -8.6816  -17.9824 N   0  0  0  0  0  0  0  0  0  0  0  0
   19.5896   -7.9761  -17.9480 C   0  0  1  0  0  0  0  0  0  0  0  0
   19.3889   -6.7730  -18.8202 C   0  0  0  0  0  0  0  0  0  0  0  0
   18.3626   -5.8213  -18.4726 C   0  0  0  0  0  0  0  0  0  0  0  0
   18.7135   -4.6877  -17.7551 C   0  0  0  0  0  0  0  0  0  0  0  0
   17.8260   -3.6964  -17.4016 C   0  0  0  0  0  0  0  0  0  0  0  0
   16.5107   -3.8469  -17.7879 C   0  0  0  0  0  0  0  0  0  0  0  0
   16.1190   -4.9668  -18.5072 C   0  0  0  0  0  0  0  0  0  0  0  0
   17.0238   -5.9430  -18.8481 C   0  0  0  0  0  0  0  0  0  0  0  0
   19.7891   -7.5733  -16.5478 C   0  0  0  0  0  0  0  0  0  0  0  0
   18.7703   -7.4908  -15.7659 O   0  0  0  0  0  0  0  0  0  0  0  0
   21.0389   -7.2654  -15.9533 N   0  0  0  0  0  0  0  0  0  0  0  0
   22.3814   -7.3245  -16.5232 C   0  0  0  0  0  0  0  0  0  0  0  0
   23.2328   -7.9111  -15.3976 C   0  0  0  0  0  0  0  0  0  0  0  0
   22.3674   -7.8228  -14.1774 C   0  0  0  0  0  0  0  0  0  0  0  0
   21.2824   -6.8508  -14.5808 C   0  0  1  0  0  0  0  0  0  0  0  0
   21.7683   -5.4833  -14.4272 C   0  0  0  0  0  0  0  0  0  0  0  0
   22.0374   -4.6951  -15.3634 O   0  0  0  0  0  0  0  0  0  0  0  0
   21.9447   -5.0251  -13.1040 O   0  0  0  0  0  0  0  0  0  0  0  0
  2  1  1  1
  2  7  1  0
  2  3  1  0
  3  4  1  0
  5  4  1  0
  6  5  2  0
  7  8  2  0
  9  5  1  0
 10 11  1  0
 10  7  1  0
 11 12  1  6
 12 13  1  0
 13 18  1  0
 14 13  2  0
 14 15  1  0
 15 16  2  0
 16 17  1  0
 18 17  2  0
 19 20  2  0
 19 11  1  0
 21 19  1  0
 22 21  1  0
 23 24  1  0
 23 22  1  0
 24 25  1  0
 25 21  1  0
 25 26  1  6
 26 28  1  0
 27 26  2  0
M  END
$$$$
