AFW.pdb
     RDKit          3D

 31 33  0  0  1  0  0  0  0  0999 V2000
    6.5075  -20.5223   23.6584 C   0  0  0  0  0  0  0  0  0  0  0  0
    6.4550  -20.2648   22.1727 C   0  0  2  0  0  0  0  0  0  0  0  0
    7.0024  -21.3734   21.4384 N   0  0  0  0  0  0  0  0  0  0  0  0
    7.2317  -19.0085   21.9373 C   0  0  0  0  0  0  0  0  0  0  0  0
    8.4650  -19.0233   21.7862 O   0  0  0  0  0  0  0  0  0  0  0  0
    6.5913  -17.7309   21.8750 N   0  0  0  0  0  0  0  0  0  0  0  0
    7.3519  -16.5215   21.5693 C   0  0  1  0  0  0  0  0  0  0  0  0
    6.3763  -15.3978   21.1924 C   0  0  0  0  0  0  0  0  0  0  0  0
    7.0879  -14.2507   20.6093 C   0  0  0  0  0  0  0  0  0  0  0  0
    7.2097  -13.0776   21.3130 C   0  0  0  0  0  0  0  0  0  0  0  0
    7.8806  -11.9717   20.8047 C   0  0  0  0  0  0  0  0  0  0  0  0
    8.4524  -12.0066   19.5701 C   0  0  0  0  0  0  0  0  0  0  0  0
    8.3401  -13.1922   18.8341 C   0  0  0  0  0  0  0  0  0  0  0  0
    7.6713  -14.2711   19.3605 C   0  0  0  0  0  0  0  0  0  0  0  0
    8.0299  -16.0659   22.8065 C   0  0  0  0  0  0  0  0  0  0  0  0
    7.3165  -15.4580   23.6414 O   0  0  0  0  0  0  0  0  0  0  0  0
    9.3825  -16.2610   23.1154 N   0  0  0  0  0  0  0  0  0  0  0  0
   10.0947  -15.7020   24.2406 C   0  0  1  0  0  0  0  0  0  0  0  0
    9.5559  -16.2335   25.5520 C   0  0  0  0  0  0  0  0  0  0  0  0
    8.2472  -15.6057   25.8247 C   0  0  0  0  0  0  0  0  0  0  0  0
    7.0038  -16.2229   25.6212 C   0  0  0  0  0  0  0  0  0  0  0  0
    6.0231  -15.3824   25.9515 N   0  0  0  0  0  0  0  0  0  0  0  0
    6.5663  -14.2139   26.3726 C   0  0  0  0  0  0  0  0  0  0  0  0
    5.9892  -13.0496   26.8160 C   0  0  0  0  0  0  0  0  0  0  0  0
    6.8063  -11.9971   27.1901 C   0  0  0  0  0  0  0  0  0  0  0  0
    8.1896  -12.1001   27.1251 C   0  0  0  0  0  0  0  0  0  0  0  0
    8.7613  -13.2828   26.6751 C   0  0  0  0  0  0  0  0  0  0  0  0
    7.9564  -14.3483   26.2958 C   0  0  0  0  0  0  0  0  0  0  0  0
   11.5374  -15.8172   24.2097 C   0  0  0  0  0  0  0  0  0  0  0  0
   12.2745  -16.3731   23.1841 O   0  0  0  0  0  0  0  0  0  0  0  0
   12.2115  -15.3812   25.1978 O   0  0  0  0  0  0  0  0  0  0  0  0
  2  1  1  1
  2  3  1  0
  4  5  2  0
  4  2  1  0
  6  4  1  0
  7  6  1  0
  7  8  1  1
  9 14  1  0
  9  8  1  0
 10  9  2  0
 11 12  2  0
 11 10  1  0
 12 13  1  0
 13 14  2  0
 15 17  1  0
 15  7  1  0
 16 15  2  0
 18 17  1  0
 18 29  1  0
 19 20  1  0
 18 19  1  1
 20 21  2  0
 22 21  1  0
 23 22  1  0
 24 23  2  0
 25 24  1  0
 26 27  1  0
 26 25  2  0
 27 28  2  0
 28 23  1  0
 28 20  1  0
 29 30  1  0
 31 29  2  0
M  END
$$$$
