AFW.pdb
     RDKit          3D

 31 33  0  0  1  0  0  0  0  0999 V2000
    6.6299  -20.7368   23.5321 C   0  0  0  0  0  0  0  0  0  0  0  0
    6.1785  -20.3359   22.1494 C   0  0  2  0  0  0  0  0  0  0  0  0
    6.3994  -21.3995   21.2072 N   0  0  0  0  0  0  0  0  0  0  0  0
    6.9583  -19.1106   21.7926 C   0  0  0  0  0  0  0  0  0  0  0  0
    8.1879  -19.1485   21.6178 O   0  0  0  0  0  0  0  0  0  0  0  0
    6.3252  -17.8374   21.6360 N   0  0  0  0  0  0  0  0  0  0  0  0
    7.1146  -16.6203   21.4623 C   0  0  1  0  0  0  0  0  0  0  0  0
    6.2015  -15.5005   20.9438 C   0  0  0  0  0  0  0  0  0  0  0  0
    6.9844  -14.3279   20.5264 C   0  0  0  0  0  0  0  0  0  0  0  0
    7.6747  -14.3399   19.3391 C   0  0  0  0  0  0  0  0  0  0  0  0
    8.4201  -13.2517   18.9012 C   0  0  0  0  0  0  0  0  0  0  0  0
    8.4980  -12.1130   19.6425 C   0  0  0  0  0  0  0  0  0  0  0  0
    7.8029  -12.0784   20.8572 C   0  0  0  0  0  0  0  0  0  0  0  0
    7.0730  -13.1684   21.2667 C   0  0  0  0  0  0  0  0  0  0  0  0
    7.5853  -16.1699   22.7940 C   0  0  0  0  0  0  0  0  0  0  0  0
    6.8947  -15.2877   23.3601 O   0  0  0  0  0  0  0  0  0  0  0  0
    8.7201  -16.6467   23.4630 N   0  0  0  0  0  0  0  0  0  0  0  0
    9.6811  -15.8543   24.1941 C   0  0  1  0  0  0  0  0  0  0  0  0
    9.3876  -15.8657   25.6794 C   0  0  0  0  0  0  0  0  0  0  0  0
    8.0597  -15.2629   25.9125 C   0  0  0  0  0  0  0  0  0  0  0  0
    6.8411  -15.9542   25.8391 C   0  0  0  0  0  0  0  0  0  0  0  0
    5.8323  -15.1190   26.0887 N   0  0  0  0  0  0  0  0  0  0  0  0
    6.3325  -13.8822   26.3289 C   0  0  0  0  0  0  0  0  0  0  0  0
    5.7150  -12.6939   26.6323 C   0  0  0  0  0  0  0  0  0  0  0  0
    6.4926  -11.5666   26.8317 C   0  0  0  0  0  0  0  0  0  0  0  0
    7.8767  -11.6186   26.7310 C   0  0  0  0  0  0  0  0  0  0  0  0
    8.4895  -12.8262   26.4236 C   0  0  0  0  0  0  0  0  0  0  0  0
    7.7244  -13.9665   26.2204 C   0  0  0  0  0  0  0  0  0  0  0  0
   11.0768  -16.1577   23.9582 C   0  0  0  0  0  0  0  0  0  0  0  0
   11.5504  -17.1766   23.1572 O   0  0  0  0  0  0  0  0  0  0  0  0
   11.9665  -15.4449   24.5250 O   0  0  0  0  0  0  0  0  0  0  0  0
  2  1  1  1
  2  3  1  0
  4  5  2  0
  4  2  1  0
  6  4  1  0
  7  6  1  0
  7  8  1  1
  9 14  1  0
  9  8  1  0
 10  9  2  0
 11 12  2  0
 11 10  1  0
 12 13  1  0
 13 14  2  0
 15 17  1  0
 15  7  1  0
 16 15  2  0
 18 17  1  0
 18 29  1  0
 19 20  1  0
 18 19  1  1
 20 21  2  0
 22 21  1  0
 23 22  1  0
 24 23  2  0
 25 24  1  0
 26 27  1  0
 26 25  2  0
 27 28  2  0
 28 23  1  0
 28 20  1  0
 29 30  1  0
 31 29  2  0
M  END
$$$$
