AFW.pdb
     RDKit          3D

 31 33  0  0  1  0  0  0  0  0999 V2000
    8.6624  -21.0341   22.6316 C   0  0  0  0  0  0  0  0  0  0  0  0
    8.4521  -20.5003   21.2362 C   0  0  2  0  0  0  0  0  0  0  0  0
    9.2632  -21.2113   20.2852 N   0  0  0  0  0  0  0  0  0  0  0  0
    8.8039  -19.0475   21.2856 C   0  0  0  0  0  0  0  0  0  0  0  0
    9.9853  -18.6625   21.2853 O   0  0  0  0  0  0  0  0  0  0  0  0
    7.7967  -18.0329   21.3357 N   0  0  0  0  0  0  0  0  0  0  0  0
    8.1557  -16.6190   21.4177 C   0  0  1  0  0  0  0  0  0  0  0  0
    6.9576  -15.7709   20.9684 C   0  0  0  0  0  0  0  0  0  0  0  0
    7.3315  -14.3556   20.8299 C   0  0  0  0  0  0  0  0  0  0  0  0
    6.9805  -13.4460   21.7973 C   0  0  0  0  0  0  0  0  0  0  0  0
    7.3200  -12.1010   21.7118 C   0  0  0  0  0  0  0  0  0  0  0  0
    8.0244  -11.6233   20.6497 C   0  0  0  0  0  0  0  0  0  0  0  0
    8.3924  -12.5324   19.6507 C   0  0  0  0  0  0  0  0  0  0  0  0
    8.0439  -13.8572   19.7601 C   0  0  0  0  0  0  0  0  0  0  0  0
    8.3816  -16.2719   22.8412 C   0  0  0  0  0  0  0  0  0  0  0  0
    7.5769  -15.4538   23.3498 O   0  0  0  0  0  0  0  0  0  0  0  0
    9.4039  -16.7804   23.6531 N   0  0  0  0  0  0  0  0  0  0  0  0
   10.1919  -16.0359   24.6073 C   0  0  1  0  0  0  0  0  0  0  0  0
    9.5750  -16.0862   25.9891 C   0  0  0  0  0  0  0  0  0  0  0  0
    8.2407  -15.4547   25.9439 C   0  0  0  0  0  0  0  0  0  0  0  0
    7.0284  -16.1497   25.8180 C   0  0  0  0  0  0  0  0  0  0  0  0
    6.0130  -15.2860   25.7951 N   0  0  0  0  0  0  0  0  0  0  0  0
    6.5026  -14.0264   25.9018 C   0  0  0  0  0  0  0  0  0  0  0  0
    5.8751  -12.8053   25.9282 C   0  0  0  0  0  0  0  0  0  0  0  0
    6.6427  -11.6602   26.0494 C   0  0  0  0  0  0  0  0  0  0  0  0
    8.0265  -11.7267   26.1446 C   0  0  0  0  0  0  0  0  0  0  0  0
    8.6494  -12.9674   26.1167 C   0  0  0  0  0  0  0  0  0  0  0  0
    7.8945  -14.1261   25.9956 C   0  0  0  0  0  0  0  0  0  0  0  0
   11.5995  -16.3671   24.6762 C   0  0  0  0  0  0  0  0  0  0  0  0
   12.2344  -17.3269   23.9148 O   0  0  0  0  0  0  0  0  0  0  0  0
   12.3402  -15.7404   25.5005 O   0  0  0  0  0  0  0  0  0  0  0  0
  2  1  1  1
  2  3  1  0
  4  5  2  0
  4  2  1  0
  6  4  1  0
  7  6  1  0
  7  8  1  1
  9 14  1  0
  9  8  1  0
 10  9  2  0
 11 12  2  0
 11 10  1  0
 12 13  1  0
 13 14  2  0
 15 17  1  0
 15  7  1  0
 16 15  2  0
 18 17  1  0
 18 29  1  0
 19 20  1  0
 18 19  1  1
 20 21  2  0
 22 21  1  0
 23 22  1  0
 24 23  2  0
 25 24  1  0
 26 27  1  0
 26 25  2  0
 27 28  2  0
 28 23  1  0
 28 20  1  0
 29 30  1  0
 31 29  2  0
M  END
$$$$
