AFW.pdb
     RDKit          3D

 31 33  0  0  1  0  0  0  0  0999 V2000
    8.7755  -19.7800   21.3504 C   0  0  0  0  0  0  0  0  0  0  0  0
    8.7620  -18.6300   20.3737 C   0  0  2  0  0  0  0  0  0  0  0  0
    9.3933  -18.9987   19.1355 N   0  0  0  0  0  0  0  0  0  0  0  0
    9.4784  -17.5016   21.0448 C   0  0  0  0  0  0  0  0  0  0  0  0
   10.6943  -17.3092   20.8758 O   0  0  0  0  0  0  0  0  0  0  0  0
    8.7975  -16.5909   21.9127 N   0  0  0  0  0  0  0  0  0  0  0  0
    9.4627  -15.3921   22.4177 C   0  0  1  0  0  0  0  0  0  0  0  0
    8.4372  -14.2541   22.5170 C   0  0  0  0  0  0  0  0  0  0  0  0
    7.8713  -13.9333   21.1983 C   0  0  0  0  0  0  0  0  0  0  0  0
    8.4922  -13.0233   20.3781 C   0  0  0  0  0  0  0  0  0  0  0  0
    7.9977  -12.6964   19.1211 C   0  0  0  0  0  0  0  0  0  0  0  0
    6.8607  -13.2729   18.6448 C   0  0  0  0  0  0  0  0  0  0  0  0
    6.2100  -14.2031   19.4641 C   0  0  0  0  0  0  0  0  0  0  0  0
    6.7206  -14.5085   20.7029 C   0  0  0  0  0  0  0  0  0  0  0  0
    9.9101  -15.6513   23.8071 C   0  0  0  0  0  0  0  0  0  0  0  0
   10.8181  -14.9055   24.2485 O   0  0  0  0  0  0  0  0  0  0  0  0
    9.4043  -16.6447   24.6557 N   0  0  0  0  0  0  0  0  0  0  0  0
    9.8877  -16.9722   25.9767 C   0  0  1  0  0  0  0  0  0  0  0  0
    8.7510  -17.0569   26.9733 C   0  0  0  0  0  0  0  0  0  0  0  0
    7.7963  -15.9615   26.7091 C   0  0  0  0  0  0  0  0  0  0  0  0
    6.5563  -16.1150   26.0709 C   0  0  0  0  0  0  0  0  0  0  0  0
    5.9474  -14.9327   25.9770 N   0  0  0  0  0  0  0  0  0  0  0  0
    6.7391  -13.9831   26.5330 C   0  0  0  0  0  0  0  0  0  0  0  0
    6.5667  -12.6295   26.6856 C   0  0  0  0  0  0  0  0  0  0  0  0
    7.5609  -11.8932   27.3057 C   0  0  0  0  0  0  0  0  0  0  0  0
    8.7206  -12.4977   27.7727 C   0  0  0  0  0  0  0  0  0  0  0  0
    8.8834  -13.8673   27.6124 C   0  0  0  0  0  0  0  0  0  0  0  0
    7.8960  -14.6209   26.9926 C   0  0  0  0  0  0  0  0  0  0  0  0
   10.7315  -18.1439   26.0803 C   0  0  0  0  0  0  0  0  0  0  0  0
   11.4606  -18.5097   27.1933 O   0  0  0  0  0  0  0  0  0  0  0  0
   10.8329  -18.9206   25.0768 O   0  0  0  0  0  0  0  0  0  0  0  0
  2  1  1  1
  2  3  1  0
  4  5  2  0
  4  2  1  0
  6  4  1  0
  7  6  1  0
  7  8  1  1
  9 14  1  0
  9  8  1  0
 10  9  2  0
 11 12  2  0
 11 10  1  0
 12 13  1  0
 13 14  2  0
 15 17  1  0
 15  7  1  0
 16 15  2  0
 18 17  1  0
 18 29  1  0
 19 20  1  0
 18 19  1  1
 20 21  2  0
 22 21  1  0
 23 22  1  0
 24 23  2  0
 25 24  1  0
 26 27  1  0
 26 25  2  0
 27 28  2  0
 28 23  1  0
 28 20  1  0
 29 30  1  0
 31 29  2  0
M  END
$$$$
