AFW.pdb
     RDKit          3D

 31 33  0  0  1  0  0  0  0  0999 V2000
    5.8821  -20.7659   23.2714 C   0  0  0  0  0  0  0  0  0  0  0  0
    4.8261  -19.6886   23.2422 C   0  0  2  0  0  0  0  0  0  0  0  0
    4.0633  -19.7484   22.0247 N   0  0  0  0  0  0  0  0  0  0  0  0
    5.5509  -18.3873   23.3769 C   0  0  0  0  0  0  0  0  0  0  0  0
    6.0239  -17.7994   22.3897 O   0  0  0  0  0  0  0  0  0  0  0  0
    5.7338  -17.7585   24.6487 N   0  0  0  0  0  0  0  0  0  0  0  0
    6.4766  -16.5062   24.7695 C   0  0  1  0  0  0  0  0  0  0  0  0
    6.2478  -15.9209   26.1701 C   0  0  0  0  0  0  0  0  0  0  0  0
    6.8868  -14.6035   26.3056 C   0  0  0  0  0  0  0  0  0  0  0  0
    8.1709  -14.4995   26.7816 C   0  0  0  0  0  0  0  0  0  0  0  0
    8.8167  -13.2765   26.9180 C   0  0  0  0  0  0  0  0  0  0  0  0
    8.1934  -12.1146   26.5809 C   0  0  0  0  0  0  0  0  0  0  0  0
    6.8833  -12.1962   26.0940 C   0  0  0  0  0  0  0  0  0  0  0  0
    6.2680  -13.4186   25.9688 C   0  0  0  0  0  0  0  0  0  0  0  0
    7.9259  -16.8086   24.6930 C   0  0  0  0  0  0  0  0  0  0  0  0
    8.2935  -17.9033   25.1850 O   0  0  0  0  0  0  0  0  0  0  0  0
    8.9028  -15.9842   24.1195 N   0  0  0  0  0  0  0  0  0  0  0  0
   10.1619  -16.4109   23.5553 C   0  0  1  0  0  0  0  0  0  0  0  0
   10.0760  -16.5351   22.0488 C   0  0  0  0  0  0  0  0  0  0  0  0
    9.9569  -15.1858   21.4603 C   0  0  0  0  0  0  0  0  0  0  0  0
   11.0322  -14.4210   20.9837 C   0  0  0  0  0  0  0  0  0  0  0  0
   10.5870  -13.2488   20.5309 N   0  0  0  0  0  0  0  0  0  0  0  0
    9.2414  -13.1975   20.6872 C   0  0  0  0  0  0  0  0  0  0  0  0
    8.3261  -12.2209   20.3808 C   0  0  0  0  0  0  0  0  0  0  0  0
    6.9886  -12.4463   20.6555 C   0  0  0  0  0  0  0  0  0  0  0  0
    6.5614  -13.6358   21.2309 C   0  0  0  0  0  0  0  0  0  0  0  0
    7.4966  -14.6158   21.5362 C   0  0  0  0  0  0  0  0  0  0  0  0
    8.8422  -14.4060   21.2674 C   0  0  0  0  0  0  0  0  0  0  0  0
   11.3279  -15.6376   23.9271 C   0  0  0  0  0  0  0  0  0  0  0  0
   12.6389  -16.0307   23.7512 O   0  0  0  0  0  0  0  0  0  0  0  0
   11.1637  -14.4962   24.4666 O   0  0  0  0  0  0  0  0  0  0  0  0
  2  1  1  6
  2  3  1  0
  4  5  2  0
  4  2  1  0
  6  4  1  0
  7  6  1  0
  7  8  1  1
  9 14  1  0
  9  8  1  0
 10  9  2  0
 11 12  2  0
 11 10  1  0
 12 13  1  0
 13 14  2  0
 15 17  1  0
 15  7  1  0
 16 15  2  0
 18 17  1  0
 18 29  1  0
 19 20  1  0
 18 19  1  6
 20 21  2  0
 22 21  1  0
 23 22  1  0
 24 23  2  0
 25 24  1  0
 26 27  1  0
 26 25  2  0
 27 28  2  0
 28 23  1  0
 28 20  1  0
 29 30  1  0
 31 29  2  0
M  END
$$$$
