AFW.pdb
     RDKit          3D

 31 33  0  0  1  0  0  0  0  0999 V2000
    9.7573  -18.3928   18.6557 C   0  0  0  0  0  0  0  0  0  0  0  0
    9.5421  -16.9106   18.4739 C   0  0  2  0  0  0  0  0  0  0  0  0
   10.5566  -16.3432   17.6273 N   0  0  0  0  0  0  0  0  0  0  0  0
    9.5676  -16.3120   19.8443 C   0  0  0  0  0  0  0  0  0  0  0  0
   10.6337  -15.9885   20.3945 O   0  0  0  0  0  0  0  0  0  0  0  0
    8.3659  -16.0840   20.5860 N   0  0  0  0  0  0  0  0  0  0  0  0
    8.4080  -15.5192   21.9328 C   0  0  1  0  0  0  0  0  0  0  0  0
    6.9851  -15.1304   22.3579 C   0  0  0  0  0  0  0  0  0  0  0  0
    6.9705  -14.5792   23.7210 C   0  0  0  0  0  0  0  0  0  0  0  0
    7.3390  -13.2757   23.9478 C   0  0  0  0  0  0  0  0  0  0  0  0
    7.3321  -12.7110   25.2176 C   0  0  0  0  0  0  0  0  0  0  0  0
    6.9545  -13.4377   26.3046 C   0  0  0  0  0  0  0  0  0  0  0  0
    6.5754  -14.7694   26.0975 C   0  0  0  0  0  0  0  0  0  0  0  0
    6.5912  -15.3031   24.8312 C   0  0  0  0  0  0  0  0  0  0  0  0
    8.8324  -16.5813   22.8761 C   0  0  0  0  0  0  0  0  0  0  0  0
    8.3266  -17.7167   22.7011 O   0  0  0  0  0  0  0  0  0  0  0  0
    9.7430  -16.4220   23.9288 N   0  0  0  0  0  0  0  0  0  0  0  0
   10.4485  -17.4760   24.6196 C   0  0  1  0  0  0  0  0  0  0  0  0
   11.5729  -16.9212   25.4683 C   0  0  0  0  0  0  0  0  0  0  0  0
   11.0466  -16.5892   26.8077 C   0  0  0  0  0  0  0  0  0  0  0  0
   10.6912  -17.5305   27.7855 C   0  0  0  0  0  0  0  0  0  0  0  0
   10.2402  -16.9040   28.8725 N   0  0  0  0  0  0  0  0  0  0  0  0
   10.2798  -15.5658   28.6590 C   0  0  0  0  0  0  0  0  0  0  0  0
    9.9294  -14.5060   29.4585 C   0  0  0  0  0  0  0  0  0  0  0  0
   10.0808  -13.2199   28.9705 C   0  0  0  0  0  0  0  0  0  0  0  0
   10.5782  -12.9868   27.6950 C   0  0  0  0  0  0  0  0  0  0  0  0
   10.9290  -14.0670   26.8960 C   0  0  0  0  0  0  0  0  0  0  0  0
   10.7835  -15.3635   27.3700 C   0  0  0  0  0  0  0  0  0  0  0  0
    9.6383  -18.3887   25.3983 C   0  0  0  0  0  0  0  0  0  0  0  0
    9.9090  -19.7267   25.6001 O   0  0  0  0  0  0  0  0  0  0  0  0
    8.5794  -17.9520   25.9537 O   0  0  0  0  0  0  0  0  0  0  0  0
  2  1  1  1
  2  3  1  0
  4  5  2  0
  4  2  1  0
  6  4  1  0
  7  6  1  0
  7  8  1  1
  9 14  1  0
  9  8  1  0
 10  9  2  0
 11 12  2  0
 11 10  1  0
 12 13  1  0
 13 14  2  0
 15 17  1  0
 15  7  1  0
 16 15  2  0
 18 17  1  0
 18 29  1  0
 19 20  1  0
 18 19  1  1
 20 21  2  0
 22 21  1  0
 23 22  1  0
 24 23  2  0
 25 24  1  0
 26 27  1  0
 26 25  2  0
 27 28  2  0
 28 23  1  0
 28 20  1  0
 29 30  1  0
 31 29  2  0
M  END
$$$$
