AFW.pdb
     RDKit          3D

 31 33  0  0  1  0  0  0  0  0999 V2000
   11.6679  -19.2428   19.8438 C   0  0  0  0  0  0  0  0  0  0  0  0
   11.1623  -17.9135   19.3400 C   0  0  2  0  0  0  0  0  0  0  0  0
   12.1100  -17.3085   18.4436 N   0  0  0  0  0  0  0  0  0  0  0  0
   10.9291  -17.0674   20.5510 C   0  0  0  0  0  0  0  0  0  0  0  0
   11.8317  -16.3682   21.0413 O   0  0  0  0  0  0  0  0  0  0  0  0
    9.6559  -17.0235   21.2018 N   0  0  0  0  0  0  0  0  0  0  0  0
    9.4066  -16.1006   22.3067 C   0  0  1  0  0  0  0  0  0  0  0  0
    7.9125  -15.7497   22.3391 C   0  0  0  0  0  0  0  0  0  0  0  0
    7.6003  -14.6701   21.3910 C   0  0  0  0  0  0  0  0  0  0  0  0
    8.0319  -13.3884   21.6303 C   0  0  0  0  0  0  0  0  0  0  0  0
    7.7673  -12.3394   20.7578 C   0  0  0  0  0  0  0  0  0  0  0  0
    7.0588  -12.5426   19.6137 C   0  0  0  0  0  0  0  0  0  0  0  0
    6.6078  -13.8413   19.3494 C   0  0  0  0  0  0  0  0  0  0  0  0
    6.8835  -14.8606   20.2289 C   0  0  0  0  0  0  0  0  0  0  0  0
    9.6807  -16.8064   23.5812 C   0  0  0  0  0  0  0  0  0  0  0  0
   10.4981  -17.7575   23.5270 O   0  0  0  0  0  0  0  0  0  0  0  0
    9.1119  -16.4981   24.8239 N   0  0  0  0  0  0  0  0  0  0  0  0
    9.7700  -16.5616   26.1080 C   0  0  1  0  0  0  0  0  0  0  0  0
    8.7952  -16.3102   27.2389 C   0  0  0  0  0  0  0  0  0  0  0  0
    7.7441  -15.3839   26.7717 C   0  0  0  0  0  0  0  0  0  0  0  0
    6.5342  -15.7767   26.1799 C   0  0  0  0  0  0  0  0  0  0  0  0
    5.8164  -14.6992   25.8616 N   0  0  0  0  0  0  0  0  0  0  0  0
    6.5052  -13.5882   26.2207 C   0  0  0  0  0  0  0  0  0  0  0  0
    6.2017  -12.2538   26.1095 C   0  0  0  0  0  0  0  0  0  0  0  0
    7.1115  -11.3190   26.5719 C   0  0  0  0  0  0  0  0  0  0  0  0
    8.3166  -11.7071   27.1425 C   0  0  0  0  0  0  0  0  0  0  0  0
    8.6121  -13.0597   27.2493 C   0  0  0  0  0  0  0  0  0  0  0  0
    7.7107  -14.0105   26.7905 C   0  0  0  0  0  0  0  0  0  0  0  0
   10.5470  -17.7538   26.3738 C   0  0  0  0  0  0  0  0  0  0  0  0
   10.6448  -18.8484   25.5393 O   0  0  0  0  0  0  0  0  0  0  0  0
   11.2042  -17.8309   27.4614 O   0  0  0  0  0  0  0  0  0  0  0  0
  2  1  1  1
  2  3  1  0
  4  5  2  0
  4  2  1  0
  6  4  1  0
  7  6  1  0
  7  8  1  1
  9 14  1  0
  9  8  1  0
 10  9  2  0
 11 12  2  0
 11 10  1  0
 12 13  1  0
 13 14  2  0
 15 17  1  0
 15  7  1  0
 16 15  2  0
 18 17  1  0
 18 29  1  0
 19 20  1  0
 18 19  1  1
 20 21  2  0
 22 21  1  0
 23 22  1  0
 24 23  2  0
 25 24  1  0
 26 27  1  0
 26 25  2  0
 27 28  2  0
 28 23  1  0
 28 20  1  0
 29 30  1  0
 31 29  2  0
M  END
$$$$
