HGG.pdb
     RDKit          3D

 19 19  0  0  1  0  0  0  0  0999 V2000
   16.5707  -17.3775    6.2495 N   0  0  0  0  0  0  0  0  0  0  0  0
   16.4270  -16.4985    7.4022 C   0  0  1  0  0  0  0  0  0  0  0  0
   15.9590  -17.3549    8.5518 C   0  0  0  0  0  0  0  0  0  0  0  0
   14.6091  -17.9034    8.3101 C   0  0  0  0  0  0  0  0  0  0  0  0
   14.2969  -19.2472    8.1327 C   0  0  0  0  0  0  0  0  0  0  0  0
   12.9854  -19.3569    7.9401 N   0  0  0  0  0  0  0  0  0  0  0  0
   12.4560  -18.1286    7.9895 C   0  0  0  0  0  0  0  0  0  0  0  0
   13.4225  -17.2415    8.2119 N   0  0  0  0  0  0  0  0  0  0  0  0
   17.7674  -15.9078    7.6519 C   0  0  0  0  0  0  0  0  0  0  0  0
   18.7741  -16.5973    7.3793 O   0  0  0  0  0  0  0  0  0  0  0  0
   17.9628  -14.6021    8.1837 N   0  0  0  0  0  0  0  0  0  0  0  0
   19.2336  -14.0288    8.4766 C   0  0  0  0  0  0  0  0  0  0  0  0
   19.5912  -12.9251    7.5156 C   0  0  0  0  0  0  0  0  0  0  0  0
   18.9078  -12.7178    6.4802 O   0  0  0  0  0  0  0  0  0  0  0  0
   20.7125  -12.0850    7.7514 N   0  0  0  0  0  0  0  0  0  0  0  0
   21.0901  -11.0049    6.8604 C   0  0  0  0  0  0  0  0  0  0  0  0
   22.3070  -10.3088    7.3034 C   0  0  0  0  0  0  0  0  0  0  0  0
   22.8693  -10.6472    8.3565 O   0  0  0  0  0  0  0  0  0  0  0  0
   22.8194   -9.2842    6.5495 O   0  0  0  0  0  0  0  0  0  0  0  0
  2  1  1  6
  3  2  1  0
  4  3  1  0
  5  4  2  0
  6  5  1  0
  7  6  1  0
  7  8  2  0
  8  4  1  0
  9  2  1  0
 10  9  2  0
 11  9  1  0
 12 11  1  0
 13 12  1  0
 14 13  2  0
 15 13  1  0
 16 15  1  0
 17 16  1  0
 17 19  1  0
 18 17  2  0
M  END
$$$$
