HGG.pdb
     RDKit          3D

 19 19  0  0  1  0  0  0  0  0999 V2000
   19.0911  -10.9752  -15.9088 N   0  0  0  0  0  0  0  0  0  0  0  0
   20.1238  -11.4396  -16.8253 C   0  0  1  0  0  0  0  0  0  0  0  0
   19.4670  -12.4157  -17.7687 C   0  0  0  0  0  0  0  0  0  0  0  0
   18.8394  -13.5386  -17.0430 C   0  0  0  0  0  0  0  0  0  0  0  0
   17.4785  -13.8239  -17.0059 C   0  0  0  0  0  0  0  0  0  0  0  0
   17.2916  -14.9060  -16.2553 N   0  0  0  0  0  0  0  0  0  0  0  0
   18.4874  -15.3161  -15.8157 C   0  0  0  0  0  0  0  0  0  0  0  0
   19.4306  -14.5016  -16.2823 N   0  0  0  0  0  0  0  0  0  0  0  0
   20.6349  -10.2355  -17.5302 C   0  0  0  0  0  0  0  0  0  0  0  0
   19.8035   -9.4677  -18.0615 O   0  0  0  0  0  0  0  0  0  0  0  0
   22.0176   -9.9130  -17.6309 N   0  0  0  0  0  0  0  0  0  0  0  0
   22.5375   -8.7868  -18.3314 C   0  0  0  0  0  0  0  0  0  0  0  0
   22.7106   -7.5913  -17.4311 C   0  0  0  0  0  0  0  0  0  0  0  0
   23.3523   -6.5786  -17.8116 O   0  0  0  0  0  0  0  0  0  0  0  0
   22.1532   -7.5731  -16.1244 N   0  0  0  0  0  0  0  0  0  0  0  0
   22.2815   -6.4405  -15.2279 C   0  0  0  0  0  0  0  0  0  0  0  0
   21.6419   -6.6780  -13.9255 C   0  0  0  0  0  0  0  0  0  0  0  0
   21.0617   -7.7522  -13.7035 O   0  0  0  0  0  0  0  0  0  0  0  0
   21.6883   -5.7091  -12.9560 O   0  0  0  0  0  0  0  0  0  0  0  0
  2  1  1  1
  3  2  1  0
  4  3  1  0
  5  4  2  0
  6  5  1  0
  7  6  1  0
  7  8  2  0
  8  4  1  0
  9  2  1  0
 10  9  2  0
 11  9  1  0
 12 11  1  0
 13 12  1  0
 14 13  2  0
 15 13  1  0
 16 15  1  0
 17 16  1  0
 17 19  1  0
 18 17  2  0
M  END
$$$$
