HGG.pdb
     RDKit          3D

 19 19  0  0  1  0  0  0  0  0999 V2000
   19.9138  -11.3765  -14.9233 N   0  0  0  0  0  0  0  0  0  0  0  0
   19.6628  -10.7717  -16.2245 C   0  0  1  0  0  0  0  0  0  0  0  0
   18.2615  -11.1586  -16.6256 C   0  0  0  0  0  0  0  0  0  0  0  0
   18.0992  -12.6249  -16.6978 C   0  0  0  0  0  0  0  0  0  0  0  0
   18.7720  -13.4757  -17.5685 C   0  0  0  0  0  0  0  0  0  0  0  0
   18.3673  -14.7223  -17.3416 N   0  0  0  0  0  0  0  0  0  0  0  0
   17.4612  -14.6904  -16.3572 C   0  0  0  0  0  0  0  0  0  0  0  0
   17.2888  -13.4326  -15.9586 N   0  0  0  0  0  0  0  0  0  0  0  0
   19.8093   -9.3041  -16.0429 C   0  0  0  0  0  0  0  0  0  0  0  0
   19.0951   -8.7436  -15.1834 O   0  0  0  0  0  0  0  0  0  0  0  0
   20.7179   -8.5073  -16.7949 N   0  0  0  0  0  0  0  0  0  0  0  0
   20.7955   -7.0864  -16.7282 C   0  0  0  0  0  0  0  0  0  0  0  0
   21.4390   -6.6145  -15.4503 C   0  0  0  0  0  0  0  0  0  0  0  0
   22.0520   -7.4141  -14.6973 O   0  0  0  0  0  0  0  0  0  0  0  0
   21.3719   -5.2506  -15.0581 N   0  0  0  0  0  0  0  0  0  0  0  0
   22.1005   -4.7198  -13.9222 C   0  0  0  0  0  0  0  0  0  0  0  0
   21.7732   -3.3123  -13.6511 C   0  0  0  0  0  0  0  0  0  0  0  0
   20.9478   -2.7171  -14.3613 O   0  0  0  0  0  0  0  0  0  0  0  0
   22.3825   -2.6584  -12.6109 O   0  0  0  0  0  0  0  0  0  0  0  0
  2  1  1  1
  3  2  1  0
  4  3  1  0
  5  4  2  0
  6  5  1  0
  7  6  1  0
  7  8  2  0
  8  4  1  0
  9  2  1  0
 10  9  2  0
 11  9  1  0
 12 11  1  0
 13 12  1  0
 14 13  2  0
 15 13  1  0
 16 15  1  0
 17 16  1  0
 17 19  1  0
 18 17  2  0
M  END
$$$$
