HGG.pdb
     RDKit          3D

 19 19  0  0  1  0  0  0  0  0999 V2000
   19.7368  -11.6751  -15.8652 N   0  0  0  0  0  0  0  0  0  0  0  0
   18.5937  -11.0647  -16.5308 C   0  0  1  0  0  0  0  0  0  0  0  0
   17.3853  -11.3448  -15.6732 C   0  0  0  0  0  0  0  0  0  0  0  0
   17.1083  -12.7924  -15.5759 C   0  0  0  0  0  0  0  0  0  0  0  0
   16.7159  -13.4699  -14.4263 C   0  0  0  0  0  0  0  0  0  0  0  0
   16.5610  -14.7571  -14.7238 N   0  0  0  0  0  0  0  0  0  0  0  0
   16.8419  -14.9182  -16.0224 C   0  0  0  0  0  0  0  0  0  0  0  0
   17.1736  -13.7424  -16.5499 N   0  0  0  0  0  0  0  0  0  0  0  0
   18.8884   -9.6114  -16.6273 C   0  0  0  0  0  0  0  0  0  0  0  0
   18.0017   -8.8609  -17.0894 O   0  0  0  0  0  0  0  0  0  0  0  0
   20.1241   -9.0328  -16.2221 N   0  0  0  0  0  0  0  0  0  0  0  0
   20.4009   -7.6354  -16.2176 C   0  0  0  0  0  0  0  0  0  0  0  0
   20.9812   -7.1780  -14.9046 C   0  0  0  0  0  0  0  0  0  0  0  0
   21.2195   -7.9958  -13.9791 O   0  0  0  0  0  0  0  0  0  0  0  0
   21.2766   -5.8077  -14.6735 N   0  0  0  0  0  0  0  0  0  0  0  0
   22.0212   -5.3453  -13.5182 C   0  0  0  0  0  0  0  0  0  0  0  0
   22.1226   -3.8795  -13.4633 C   0  0  0  0  0  0  0  0  0  0  0  0
   21.5623   -3.1841  -14.3247 O   0  0  0  0  0  0  0  0  0  0  0  0
   22.8382   -3.2825  -12.4571 O   0  0  0  0  0  0  0  0  0  0  0  0
  2  1  1  1
  3  2  1  0
  4  3  1  0
  5  4  2  0
  6  5  1  0
  7  6  1  0
  7  8  2  0
  8  4  1  0
  9  2  1  0
 10  9  2  0
 11  9  1  0
 12 11  1  0
 13 12  1  0
 14 13  2  0
 15 13  1  0
 16 15  1  0
 17 16  1  0
 17 19  1  0
 18 17  2  0
M  END
$$$$
