HGG.pdb
     RDKit          3D

 19 19  0  0  1  0  0  0  0  0999 V2000
   15.5175  -15.8397    8.0660 N   0  0  0  0  0  0  0  0  0  0  0  0
   16.8186  -15.6597    7.4360 C   0  0  1  0  0  0  0  0  0  0  0  0
   16.7525  -16.3379    6.0907 C   0  0  0  0  0  0  0  0  0  0  0  0
   16.6442  -17.8050    6.2233 C   0  0  0  0  0  0  0  0  0  0  0  0
   17.6738  -18.6672    6.5853 C   0  0  0  0  0  0  0  0  0  0  0  0
   17.2017  -19.9106    6.5989 N   0  0  0  0  0  0  0  0  0  0  0  0
   15.9082  -19.8657    6.2579 C   0  0  0  0  0  0  0  0  0  0  0  0
   15.5574  -18.6028    6.0284 N   0  0  0  0  0  0  0  0  0  0  0  0
   17.0298  -14.1938    7.3155 C   0  0  0  0  0  0  0  0  0  0  0  0
   16.1536  -13.5192    6.7323 O   0  0  0  0  0  0  0  0  0  0  0  0
   18.1746  -13.5212    7.8284 N   0  0  0  0  0  0  0  0  0  0  0  0
   18.4384  -12.1310    7.6639 C   0  0  0  0  0  0  0  0  0  0  0  0
   19.8859  -11.8641    7.3426 C   0  0  0  0  0  0  0  0  0  0  0  0
   20.7416  -12.7851    7.3846 O   0  0  0  0  0  0  0  0  0  0  0  0
   20.3271  -10.5625    6.9825 N   0  0  0  0  0  0  0  0  0  0  0  0
   21.7224  -10.2360    6.7600 C   0  0  0  0  0  0  0  0  0  0  0  0
   22.4966  -10.1918    8.0091 C   0  0  0  0  0  0  0  0  0  0  0  0
   21.9466  -10.4473    9.0918 O   0  0  0  0  0  0  0  0  0  0  0  0
   23.8286   -9.8674    7.9749 O   0  0  0  0  0  0  0  0  0  0  0  0
  2  1  1  6
  3  2  1  0
  4  3  1  0
  5  4  2  0
  6  5  1  0
  7  6  1  0
  7  8  2  0
  8  4  1  0
  9  2  1  0
 10  9  2  0
 11  9  1  0
 12 11  1  0
 13 12  1  0
 14 13  2  0
 15 13  1  0
 16 15  1  0
 17 16  1  0
 17 19  1  0
 18 17  2  0
M  END
$$$$
