HGG.pdb
     RDKit          3D

 19 19  0  0  1  0  0  0  0  0999 V2000
   18.3618  -13.6416    8.9082 N   0  0  0  0  0  0  0  0  0  0  0  0
   18.5890  -14.7540    7.9954 C   0  0  1  0  0  0  0  0  0  0  0  0
   19.9250  -14.5162    7.3376 C   0  0  0  0  0  0  0  0  0  0  0  0
   19.8862  -13.3543    6.4266 C   0  0  0  0  0  0  0  0  0  0  0  0
   20.6514  -12.1992    6.5485 C   0  0  0  0  0  0  0  0  0  0  0  0
   20.3444  -11.3786    5.5477 N   0  0  0  0  0  0  0  0  0  0  0  0
   19.4110  -11.9743    4.7959 C   0  0  0  0  0  0  0  0  0  0  0  0
   19.1244  -13.1663    5.3131 N   0  0  0  0  0  0  0  0  0  0  0  0
   18.5832  -15.9875    8.8239 C   0  0  0  0  0  0  0  0  0  0  0  0
   19.5293  -16.1647    9.6217 O   0  0  0  0  0  0  0  0  0  0  0  0
   17.5592  -16.9738    8.7555 N   0  0  0  0  0  0  0  0  0  0  0  0
   17.7355  -18.2896    8.2389 C   0  0  0  0  0  0  0  0  0  0  0  0
   18.3685  -19.2130    9.2471 C   0  0  0  0  0  0  0  0  0  0  0  0
   19.3993  -18.8730    9.8827 O   0  0  0  0  0  0  0  0  0  0  0  0
   17.8187  -20.4965    9.5096 N   0  0  0  0  0  0  0  0  0  0  0  0
   18.4229  -21.4402   10.4300 C   0  0  0  0  0  0  0  0  0  0  0  0
   18.9614  -22.6262    9.7479 C   0  0  0  0  0  0  0  0  0  0  0  0
   18.8759  -22.7271    8.5141 O   0  0  0  0  0  0  0  0  0  0  0  0
   19.5586  -23.6211   10.4789 O   0  0  0  0  0  0  0  0  0  0  0  0
  2  1  1  1
  3  2  1  0
  4  3  1  0
  5  4  2  0
  6  5  1  0
  7  6  1  0
  7  8  2  0
  8  4  1  0
  9  2  1  0
 10  9  2  0
 11  9  1  0
 12 11  1  0
 13 12  1  0
 14 13  2  0
 15 13  1  0
 16 15  1  0
 17 16  1  0
 17 19  1  0
 18 17  2  0
M  END
$$$$
