HGG.pdb
     RDKit          3D

 19 19  0  0  1  0  0  0  0  0999 V2000
   25.0624  -21.7189  -16.5391 N   0  0  0  0  0  0  0  0  0  0  0  0
   26.1257  -22.5421  -17.0992 C   0  0  1  0  0  0  0  0  0  0  0  0
   27.4193  -21.7995  -16.8767 C   0  0  0  0  0  0  0  0  0  0  0  0
   27.3669  -20.4323  -17.4333 C   0  0  0  0  0  0  0  0  0  0  0  0
   26.3033  -19.8826  -18.1413 C   0  0  0  0  0  0  0  0  0  0  0  0
   26.6181  -18.6355  -18.4805 N   0  0  0  0  0  0  0  0  0  0  0  0
   27.8446  -18.3765  -18.0117 C   0  0  0  0  0  0  0  0  0  0  0  0
   28.3092  -19.4503  -17.3779 N   0  0  0  0  0  0  0  0  0  0  0  0
   26.0881  -23.8349  -16.3676 C   0  0  0  0  0  0  0  0  0  0  0  0
   25.3790  -23.9093  -15.3407 O   0  0  0  0  0  0  0  0  0  0  0  0
   26.8157  -24.9885  -16.7750 N   0  0  0  0  0  0  0  0  0  0  0  0
   27.8262  -25.6246  -15.9983 C   0  0  0  0  0  0  0  0  0  0  0  0
   28.4790  -26.7612  -16.7411 C   0  0  0  0  0  0  0  0  0  0  0  0
   29.1624  -26.5537  -17.7765 O   0  0  0  0  0  0  0  0  0  0  0  0
   28.3415  -28.1024  -16.2929 N   0  0  0  0  0  0  0  0  0  0  0  0
   29.2668  -29.1562  -16.6620 C   0  0  0  0  0  0  0  0  0  0  0  0
   29.3034  -29.3909  -18.1130 C   0  0  0  0  0  0  0  0  0  0  0  0
   28.2851  -29.2103  -18.7987 O   0  0  0  0  0  0  0  0  0  0  0  0
   30.4663  -29.8100  -18.7070 O   0  0  0  0  0  0  0  0  0  0  0  0
  2  1  1  1
  3  2  1  0
  4  3  1  0
  5  4  2  0
  6  5  1  0
  7  6  1  0
  7  8  2  0
  8  4  1  0
  9  2  1  0
 10  9  2  0
 11  9  1  0
 12 11  1  0
 13 12  1  0
 14 13  2  0
 15 13  1  0
 16 15  1  0
 17 16  1  0
 17 19  1  0
 18 17  2  0
M  END
$$$$
