HGG.pdb
     RDKit          3D

 19 19  0  0  1  0  0  0  0  0999 V2000
   26.9955  -23.1409  -16.5867 N   0  0  0  0  0  0  0  0  0  0  0  0
   27.9679  -22.1795  -16.0844 C   0  0  1  0  0  0  0  0  0  0  0  0
   29.1548  -22.2295  -17.0133 C   0  0  0  0  0  0  0  0  0  0  0  0
   29.8485  -23.5316  -16.9435 C   0  0  0  0  0  0  0  0  0  0  0  0
   30.6186  -23.9868  -15.8785 C   0  0  0  0  0  0  0  0  0  0  0  0
   31.0805  -25.1983  -16.1755 N   0  0  0  0  0  0  0  0  0  0  0  0
   30.6294  -25.5262  -17.3921 C   0  0  0  0  0  0  0  0  0  0  0  0
   29.8851  -24.5312  -17.8682 N   0  0  0  0  0  0  0  0  0  0  0  0
   27.2976  -20.8534  -16.1016 C   0  0  0  0  0  0  0  0  0  0  0  0
   26.4773  -20.6207  -17.0159 O   0  0  0  0  0  0  0  0  0  0  0  0
   27.5410  -19.8385  -15.1337 N   0  0  0  0  0  0  0  0  0  0  0  0
   26.9124  -18.5602  -15.1251 C   0  0  0  0  0  0  0  0  0  0  0  0
   25.4642  -18.6448  -14.7183 C   0  0  0  0  0  0  0  0  0  0  0  0
   25.1126  -18.4618  -13.5246 O   0  0  0  0  0  0  0  0  0  0  0  0
   24.4523  -18.9342  -15.6726 N   0  0  0  0  0  0  0  0  0  0  0  0
   23.0364  -18.8582  -15.3686 C   0  0  0  0  0  0  0  0  0  0  0  0
   22.5042  -20.1247  -14.8445 C   0  0  0  0  0  0  0  0  0  0  0  0
   23.2605  -21.0928  -14.6695 O   0  0  0  0  0  0  0  0  0  0  0  0
   21.1693  -20.2336  -14.5495 O   0  0  0  0  0  0  0  0  0  0  0  0
  2  1  1  6
  3  2  1  0
  4  3  1  0
  5  4  2  0
  6  5  1  0
  7  6  1  0
  7  8  2  0
  8  4  1  0
  9  2  1  0
 10  9  2  0
 11  9  1  0
 12 11  1  0
 13 12  1  0
 14 13  2  0
 15 13  1  0
 16 15  1  0
 17 16  1  0
 17 19  1  0
 18 17  2  0
M  END
$$$$
