HGG.pdb
     RDKit          3D

 19 19  0  0  1  0  0  0  0  0999 V2000
   17.8491  -10.7433  -15.0028 N   0  0  0  0  0  0  0  0  0  0  0  0
   19.0318  -10.3006  -15.7290 C   0  0  1  0  0  0  0  0  0  0  0  0
   18.5464   -9.5200  -16.9245 C   0  0  0  0  0  0  0  0  0  0  0  0
   17.7166  -10.3517  -17.8196 C   0  0  0  0  0  0  0  0  0  0  0  0
   16.3454  -10.2205  -18.0123 C   0  0  0  0  0  0  0  0  0  0  0  0
   15.9493  -11.1411  -18.8870 N   0  0  0  0  0  0  0  0  0  0  0  0
   17.0227  -11.8509  -19.2550 C   0  0  0  0  0  0  0  0  0  0  0  0
   18.0959  -11.3867  -18.6198 N   0  0  0  0  0  0  0  0  0  0  0  0
   19.8135   -9.4572  -14.7879 C   0  0  0  0  0  0  0  0  0  0  0  0
   19.2067   -8.9220  -13.8349 O   0  0  0  0  0  0  0  0  0  0  0  0
   21.2126   -9.2285  -14.9160 N   0  0  0  0  0  0  0  0  0  0  0  0
   21.9621   -8.3234  -14.1110 C   0  0  0  0  0  0  0  0  0  0  0  0
   21.5987   -6.8874  -14.3862 C   0  0  0  0  0  0  0  0  0  0  0  0
   20.8667   -6.5775  -15.3611 O   0  0  0  0  0  0  0  0  0  0  0  0
   22.0729   -5.8401  -13.5515 N   0  0  0  0  0  0  0  0  0  0  0  0
   21.7296   -4.4470  -13.7618 C   0  0  0  0  0  0  0  0  0  0  0  0
   22.0871   -3.9759  -15.1079 C   0  0  0  0  0  0  0  0  0  0  0  0
   21.2773   -4.0863  -16.0416 O   0  0  0  0  0  0  0  0  0  0  0  0
   23.3184   -3.4139  -15.3292 O   0  0  0  0  0  0  0  0  0  0  0  0
  2  1  1  1
  3  2  1  0
  4  3  1  0
  5  4  2  0
  6  5  1  0
  7  6  1  0
  7  8  2  0
  8  4  1  0
  9  2  1  0
 10  9  2  0
 11  9  1  0
 12 11  1  0
 13 12  1  0
 14 13  2  0
 15 13  1  0
 16 15  1  0
 17 16  1  0
 17 19  1  0
 18 17  2  0
M  END
$$$$
