HGG.pdb
     RDKit          3D

 19 19  0  0  1  0  0  0  0  0999 V2000
   18.1882  -11.2047  -17.6934 N   0  0  0  0  0  0  0  0  0  0  0  0
   18.0215  -10.8232  -16.2974 C   0  0  1  0  0  0  0  0  0  0  0  0
   18.7784  -11.8338  -15.4727 C   0  0  0  0  0  0  0  0  0  0  0  0
   18.2163  -13.1915  -15.6219 C   0  0  0  0  0  0  0  0  0  0  0  0
   18.8852  -14.2966  -16.1375 C   0  0  0  0  0  0  0  0  0  0  0  0
   18.0612  -15.3406  -16.1151 N   0  0  0  0  0  0  0  0  0  0  0  0
   16.8932  -14.9346  -15.6029 C   0  0  0  0  0  0  0  0  0  0  0  0
   16.9712  -13.6411  -15.3006 N   0  0  0  0  0  0  0  0  0  0  0  0
   18.5852   -9.4548  -16.1638 C   0  0  0  0  0  0  0  0  0  0  0  0
   19.6315   -9.1857  -16.7931 O   0  0  0  0  0  0  0  0  0  0  0  0
   17.9969   -8.4389  -15.3590 N   0  0  0  0  0  0  0  0  0  0  0  0
   18.4775   -7.1014  -15.2639 C   0  0  0  0  0  0  0  0  0  0  0  0
   19.6340   -6.9827  -14.3056 C   0  0  0  0  0  0  0  0  0  0  0  0
   19.8468   -7.8619  -13.4316 O   0  0  0  0  0  0  0  0  0  0  0  0
   20.5189   -5.8726  -14.3613 N   0  0  0  0  0  0  0  0  0  0  0  0
   21.6407   -5.7120  -13.4565 C   0  0  0  0  0  0  0  0  0  0  0  0
   22.3270   -4.4238  -13.6334 C   0  0  0  0  0  0  0  0  0  0  0  0
   22.0892   -3.7235  -14.6299 O   0  0  0  0  0  0  0  0  0  0  0  0
   23.2308   -3.9978  -12.6941 O   0  0  0  0  0  0  0  0  0  0  0  0
  2  1  1  6
  3  2  1  0
  4  3  1  0
  5  4  2  0
  6  5  1  0
  7  6  1  0
  7  8  2  0
  8  4  1  0
  9  2  1  0
 10  9  2  0
 11  9  1  0
 12 11  1  0
 13 12  1  0
 14 13  2  0
 15 13  1  0
 16 15  1  0
 17 16  1  0
 17 19  1  0
 18 17  2  0
M  END
$$$$
