HGG.pdb
     RDKit          3D

 19 19  0  0  1  0  0  0  0  0999 V2000
   24.3376  -19.6517  -16.4162 N   0  0  0  0  0  0  0  0  0  0  0  0
   24.1452  -19.6637  -14.9723 C   0  0  1  0  0  0  0  0  0  0  0  0
   22.8657  -20.4161  -14.7060 C   0  0  0  0  0  0  0  0  0  0  0  0
   21.6844  -19.6729  -15.1895 C   0  0  0  0  0  0  0  0  0  0  0  0
   20.9604  -18.7341  -14.4621 C   0  0  0  0  0  0  0  0  0  0  0  0
   19.9694  -18.2788  -15.2237 N   0  0  0  0  0  0  0  0  0  0  0  0
   20.0409  -18.8970  -16.4086 C   0  0  0  0  0  0  0  0  0  0  0  0
   21.0699  -19.7407  -16.4033 N   0  0  0  0  0  0  0  0  0  0  0  0
   25.3300  -20.3498  -14.3945 C   0  0  0  0  0  0  0  0  0  0  0  0
   25.2105  -21.5484  -14.0599 O   0  0  0  0  0  0  0  0  0  0  0  0
   26.5891  -19.7141  -14.2035 N   0  0  0  0  0  0  0  0  0  0  0  0
   27.7419  -20.3483  -13.6575 C   0  0  0  0  0  0  0  0  0  0  0  0
   27.6635  -20.4701  -12.1578 C   0  0  0  0  0  0  0  0  0  0  0  0
   28.5236  -21.1229  -11.5128 O   0  0  0  0  0  0  0  0  0  0  0  0
   26.6142  -19.8501  -11.4277 N   0  0  0  0  0  0  0  0  0  0  0  0
   26.4481  -20.0098   -9.9960 C   0  0  0  0  0  0  0  0  0  0  0  0
   25.3665  -20.9457   -9.6555 C   0  0  0  0  0  0  0  0  0  0  0  0
   24.7757  -21.5673  -10.5524 O   0  0  0  0  0  0  0  0  0  0  0  0
   25.0120  -21.1302   -8.3435 O   0  0  0  0  0  0  0  0  0  0  0  0
  2  1  1  6
  3  2  1  0
  4  3  1  0
  5  4  2  0
  6  5  1  0
  7  6  1  0
  7  8  2  0
  8  4  1  0
  9  2  1  0
 10  9  2  0
 11  9  1  0
 12 11  1  0
 13 12  1  0
 14 13  2  0
 15 13  1  0
 16 15  1  0
 17 16  1  0
 17 19  1  0
 18 17  2  0
M  END
$$$$
