LVM.pdb
     RDKit          3D

 24 23  0  0  1  0  0  0  0  0999 V2000
   22.6580  -19.8313  -19.6888 C   0  0  0  0  0  0  0  0  0  0  0  0
   22.7193  -19.3149  -18.2666 C   0  0  1  0  0  0  0  0  0  0  0  0
   21.3370  -18.8317  -17.8365 C   0  0  0  0  0  0  0  0  0  0  0  0
   23.2568  -20.3289  -17.3314 C   0  0  0  0  0  0  0  0  0  0  0  0
   23.2780  -19.8725  -15.8954 C   0  0  2  0  0  0  0  0  0  0  0  0
   23.7281  -18.4510  -15.9371 N   0  0  0  0  0  0  0  0  0  0  0  0
   24.3164  -20.5926  -15.0814 C   0  0  0  0  0  0  0  0  0  0  0  0
   24.2729  -21.8556  -15.0115 O   0  0  0  0  0  0  0  0  0  0  0  0
   28.7355  -21.1307  -13.2024 C   0  0  0  0  0  0  0  0  0  0  0  0
   27.7034  -20.4006  -13.9847 C   0  0  2  0  0  0  0  0  0  0  0  0
   28.0340  -18.9031  -13.8927 C   0  0  0  0  0  0  0  0  0  0  0  0
   26.3041  -20.5696  -13.5584 C   0  0  2  0  0  0  0  0  0  0  0  0
   25.3435  -19.9003  -14.3928 N   0  0  0  0  0  0  0  0  0  0  0  0
   26.0086  -20.4201  -12.1247 C   0  0  0  0  0  0  0  0  0  0  0  0
   25.9302  -19.2734  -11.6414 O   0  0  0  0  0  0  0  0  0  0  0  0
   29.1091  -20.4257   -7.3997 C   0  0  0  0  0  0  0  0  0  0  0  0
   27.6188  -19.4418   -6.9941 S   0  0  0  0  0  0  0  0  0  0  0  0
   26.2032  -20.2998   -7.7611 C   0  0  0  0  0  0  0  0  0  0  0  0
   26.5466  -20.5424   -9.2061 C   0  0  0  0  0  0  0  0  0  0  0  0
   25.4675  -21.3662   -9.8518 C   0  0  2  0  0  0  0  0  0  0  0  0
   25.8085  -21.5199  -11.2658 N   0  0  0  0  0  0  0  0  0  0  0  0
   24.1218  -20.8037   -9.6889 C   0  0  0  0  0  0  0  0  0  0  0  0
   23.5751  -20.1833  -10.6308 O   0  0  0  0  0  0  0  0  0  0  0  0
   23.4598  -20.9598   -8.4955 O   0  0  0  0  0  0  0  0  0  0  0  0
  2  1  1  6
  3  2  1  0
  4  2  1  0
  4  5  1  0
  5  6  1  6
  5  7  1  0
  7  8  2  0
 10  9  1  1
 10 11  1  0
 12 10  1  0
 13  7  1  0
 12 13  1  6
 14 12  1  0
 14 15  2  0
 16 17  1  0
 17 18  1  0
 18 19  1  0
 20 19  1  6
 20 21  1  0
 21 14  1  0
 22 24  1  0
 22 20  1  0
 23 22  2  0
M  END
$$$$
