LVM.pdb
     RDKit          3D

 24 23  0  0  1  0  0  0  0  0999 V2000
   21.2281  -19.0308  -19.6448 C   0  0  0  0  0  0  0  0  0  0  0  0
   22.2837  -18.8246  -18.5789 C   0  0  1  0  0  0  0  0  0  0  0  0
   22.3234  -17.3535  -18.1744 C   0  0  0  0  0  0  0  0  0  0  0  0
   22.0690  -19.7053  -17.4084 C   0  0  0  0  0  0  0  0  0  0  0  0
   22.9670  -19.3856  -16.2414 C   0  0  2  0  0  0  0  0  0  0  0  0
   24.3139  -19.8999  -16.6240 N   0  0  0  0  0  0  0  0  0  0  0  0
   22.5893  -20.1489  -15.0028 C   0  0  0  0  0  0  0  0  0  0  0  0
   22.8879  -21.3764  -14.9246 O   0  0  0  0  0  0  0  0  0  0  0  0
   21.1496  -20.2189  -10.2619 C   0  0  0  0  0  0  0  0  0  0  0  0
   21.4760  -19.4849  -11.5129 C   0  0  2  0  0  0  0  0  0  0  0  0
   20.4312  -18.3702  -11.6749 C   0  0  0  0  0  0  0  0  0  0  0  0
   21.4817  -20.2677  -12.7600 C   0  0  2  0  0  0  0  0  0  0  0  0
   21.9120  -19.5352  -13.9198 N   0  0  0  0  0  0  0  0  0  0  0  0
   20.3136  -21.1203  -13.0315 C   0  0  0  0  0  0  0  0  0  0  0  0
   19.3746  -20.6588  -13.7097 O   0  0  0  0  0  0  0  0  0  0  0  0
   20.3953  -27.2369  -11.8000 C   0  0  0  0  0  0  0  0  0  0  0  0
   18.5676  -27.2037  -11.9103 S   0  0  0  0  0  0  0  0  0  0  0  0
   18.1094  -25.5274  -12.4657 C   0  0  0  0  0  0  0  0  0  0  0  0
   19.2731  -24.6181  -12.1763 C   0  0  0  0  0  0  0  0  0  0  0  0
   18.9979  -23.2498  -12.7349 C   0  0  2  0  0  0  0  0  0  0  0  0
   20.2053  -22.4437  -12.5577 N   0  0  0  0  0  0  0  0  0  0  0  0
   17.8297  -22.5942  -12.1354 C   0  0  0  0  0  0  0  0  0  0  0  0
   16.7559  -22.5023  -12.7749 O   0  0  0  0  0  0  0  0  0  0  0  0
   17.9171  -22.0790  -10.8650 O   0  0  0  0  0  0  0  0  0  0  0  0
  2  1  1  6
  3  2  1  0
  4  2  1  0
  4  5  1  0
  5  6  1  6
  5  7  1  0
  7  8  2  0
 10  9  1  1
 10 11  1  0
 12 10  1  0
 13  7  1  0
 12 13  1  6
 14 12  1  0
 14 15  2  0
 16 17  1  0
 17 18  1  0
 18 19  1  0
 20 19  1  1
 20 21  1  0
 21 14  1  0
 22 24  1  0
 22 20  1  0
 23 22  2  0
M  END
$$$$
