LVM.pdb
     RDKit          3D

 24 23  0  0  1  0  0  0  0  0999 V2000
   18.6903  -16.3450  -11.9879 C   0  0  0  0  0  0  0  0  0  0  0  0
   19.1649  -17.2412  -13.1123 C   0  0  1  0  0  0  0  0  0  0  0  0
   19.9256  -16.4116  -14.1430 C   0  0  0  0  0  0  0  0  0  0  0  0
   19.9810  -18.3713  -12.6137 C   0  0  0  0  0  0  0  0  0  0  0  0
   20.5190  -19.2552  -13.7091 C   0  0  2  0  0  0  0  0  0  0  0  0
   19.3366  -19.9927  -14.2410 N   0  0  0  0  0  0  0  0  0  0  0  0
   21.4446  -20.3171  -13.1848 C   0  0  0  0  0  0  0  0  0  0  0  0
   20.9683  -21.2468  -12.4700 O   0  0  0  0  0  0  0  0  0  0  0  0
   25.0805  -23.3727  -13.5390 C   0  0  0  0  0  0  0  0  0  0  0  0
   24.2100  -22.2606  -14.0032 C   0  0  2  0  0  0  0  0  0  0  0  0
   25.0140  -21.4483  -15.0299 C   0  0  0  0  0  0  0  0  0  0  0  0
   23.7296  -21.3205  -12.9768 C   0  0  2  0  0  0  0  0  0  0  0  0
   22.8329  -20.3101  -13.4689 N   0  0  0  0  0  0  0  0  0  0  0  0
   24.7206  -20.7840  -12.0306 C   0  0  0  0  0  0  0  0  0  0  0  0
   24.4048  -19.8163  -11.3105 O   0  0  0  0  0  0  0  0  0  0  0  0
   26.9598  -18.5981   -6.2964 C   0  0  0  0  0  0  0  0  0  0  0  0
   26.5541  -20.2563   -6.9592 S   0  0  0  0  0  0  0  0  0  0  0  0
   27.4154  -20.4026   -8.5608 C   0  0  0  0  0  0  0  0  0  0  0  0
   26.4114  -20.8791   -9.5756 C   0  0  0  0  0  0  0  0  0  0  0  0
   27.0004  -20.7812  -10.9553 C   0  0  2  0  0  0  0  0  0  0  0  0
   26.0194  -21.3163  -11.8989 N   0  0  0  0  0  0  0  0  0  0  0  0
   28.2936  -21.4616  -11.0919 C   0  0  0  0  0  0  0  0  0  0  0  0
   28.3417  -22.6932  -11.3193 O   0  0  0  0  0  0  0  0  0  0  0  0
   29.4568  -20.7413  -10.9694 O   0  0  0  0  0  0  0  0  0  0  0  0
  2  1  1  1
  3  2  1  0
  4  2  1  0
  4  5  1  0
  5  6  1  1
  5  7  1  0
  7  8  2  0
 10  9  1  1
 10 11  1  0
 12 10  1  0
 13  7  1  0
 12 13  1  6
 14 12  1  0
 14 15  2  0
 16 17  1  0
 17 18  1  0
 18 19  1  0
 20 19  1  1
 20 21  1  0
 21 14  1  0
 22 24  1  0
 22 20  1  0
 23 22  2  0
M  END
$$$$
