LVM.pdb
     RDKit          3D

 24 23  0  0  1  0  0  0  0  0999 V2000
   27.5476  -23.5263  -19.5792 C   0  0  0  0  0  0  0  0  0  0  0  0
   27.3135  -24.0655  -18.1837 C   0  0  1  0  0  0  0  0  0  0  0  0
   28.2080  -25.2790  -17.9461 C   0  0  0  0  0  0  0  0  0  0  0  0
   27.5169  -23.0281  -17.1472 C   0  0  0  0  0  0  0  0  0  0  0  0
   27.2134  -23.5048  -15.7503 C   0  0  2  0  0  0  0  0  0  0  0  0
   25.9261  -24.2509  -15.8562 N   0  0  0  0  0  0  0  0  0  0  0  0
   26.9358  -22.3689  -14.8058 C   0  0  0  0  0  0  0  0  0  0  0  0
   27.8356  -21.5004  -14.6106 O   0  0  0  0  0  0  0  0  0  0  0  0
   23.9066  -19.1264  -12.8900 C   0  0  0  0  0  0  0  0  0  0  0  0
   24.2248  -20.3344  -13.6960 C   0  0  2  0  0  0  0  0  0  0  0  0
   22.9992  -21.2590  -13.6379 C   0  0  0  0  0  0  0  0  0  0  0  0
   25.3933  -21.1251  -13.2745 C   0  0  2  0  0  0  0  0  0  0  0  0
   25.6968  -22.2399  -14.1302 N   0  0  0  0  0  0  0  0  0  0  0  0
   25.5056  -21.4619  -11.8466 C   0  0  0  0  0  0  0  0  0  0  0  0
   25.0814  -22.5661  -11.4521 O   0  0  0  0  0  0  0  0  0  0  0  0
   29.4979  -19.5850   -6.7044 C   0  0  0  0  0  0  0  0  0  0  0  0
   27.8540  -18.8093   -6.4811 S   0  0  0  0  0  0  0  0  0  0  0  0
   26.6414  -19.9220   -7.2684 C   0  0  0  0  0  0  0  0  0  0  0  0
   26.7969  -19.7830   -8.7588 C   0  0  0  0  0  0  0  0  0  0  0  0
   25.9000  -20.7680   -9.4556 C   0  0  2  0  0  0  0  0  0  0  0  0
   26.0741  -20.5890  -10.8967 N   0  0  0  0  0  0  0  0  0  0  0  0
   24.4880  -20.6500   -9.0733 C   0  0  0  0  0  0  0  0  0  0  0  0
   24.0060  -21.3948   -8.1881 O   0  0  0  0  0  0  0  0  0  0  0  0
   23.6924  -19.7163   -9.6914 O   0  0  0  0  0  0  0  0  0  0  0  0
  2  1  1  6
  3  2  1  0
  4  2  1  0
  4  5  1  0
  5  6  1  6
  5  7  1  0
  7  8  2  0
 10  9  1  1
 10 11  1  0
 12 10  1  0
 13  7  1  0
 12 13  1  6
 14 12  1  0
 14 15  2  0
 16 17  1  0
 17 18  1  0
 18 19  1  0
 20 19  1  1
 20 21  1  0
 21 14  1  0
 22 24  1  0
 22 20  1  0
 23 22  2  0
M  END
$$$$
