LVM.pdb
     RDKit          3D

 24 23  0  0  1  0  0  0  0  0999 V2000
   28.7984  -16.3039  -16.5225 C   0  0  0  0  0  0  0  0  0  0  0  0
   28.0315  -17.6061  -16.4267 C   0  0  1  0  0  0  0  0  0  0  0  0
   29.0091  -18.7780  -16.4267 C   0  0  0  0  0  0  0  0  0  0  0  0
   27.1415  -17.6396  -15.2441 C   0  0  0  0  0  0  0  0  0  0  0  0
   26.5053  -18.9849  -15.0072 C   0  0  2  0  0  0  0  0  0  0  0  0
   25.5477  -19.1755  -16.1349 N   0  0  0  0  0  0  0  0  0  0  0  0
   25.6613  -19.0076  -13.7635 C   0  0  0  0  0  0  0  0  0  0  0  0
   24.5374  -18.4256  -13.7749 O   0  0  0  0  0  0  0  0  0  0  0  0
   23.6321  -21.5860  -12.0888 C   0  0  0  0  0  0  0  0  0  0  0  0
   23.8601  -20.1699  -11.6976 C   0  0  2  0  0  0  0  0  0  0  0  0
   23.3575  -19.2898  -12.8522 C   0  0  0  0  0  0  0  0  0  0  0  0
   25.2501  -19.7745  -11.4153 C   0  0  2  0  0  0  0  0  0  0  0  0
   26.0849  -19.6630  -12.5806 N   0  0  0  0  0  0  0  0  0  0  0  0
   25.9311  -20.4412  -10.2942 C   0  0  0  0  0  0  0  0  0  0  0  0
   26.3885  -21.5888  -10.4629 O   0  0  0  0  0  0  0  0  0  0  0  0
   30.4175  -19.2311   -5.5407 C   0  0  0  0  0  0  0  0  0  0  0  0
   28.7671  -19.2468   -4.7472 S   0  0  0  0  0  0  0  0  0  0  0  0
   27.7311  -20.3893   -5.7218 C   0  0  0  0  0  0  0  0  0  0  0  0
   27.3145  -19.6686   -6.9756 C   0  0  0  0  0  0  0  0  0  0  0  0
   26.5045  -20.5903   -7.8442 C   0  0  2  0  0  0  0  0  0  0  0  0
   26.0919  -19.8394   -9.0295 N   0  0  0  0  0  0  0  0  0  0  0  0
   25.3472  -21.1777   -7.1590 C   0  0  0  0  0  0  0  0  0  0  0  0
   24.1823  -20.8864   -7.5179 O   0  0  0  0  0  0  0  0  0  0  0  0
   25.5453  -22.0519   -6.1182 O   0  0  0  0  0  0  0  0  0  0  0  0
  2  1  1  1
  3  2  1  0
  4  2  1  0
  4  5  1  0
  5  6  1  6
  5  7  1  0
  7  8  2  0
 10  9  1  6
 10 11  1  0
 12 10  1  0
 13  7  1  0
 12 13  1  6
 14 12  1  0
 14 15  2  0
 16 17  1  0
 17 18  1  0
 18 19  1  0
 20 19  1  1
 20 21  1  0
 21 14  1  0
 22 24  1  0
 22 20  1  0
 23 22  2  0
M  END
$$$$
