LVM.pdb
     RDKit          3D

 24 23  0  0  1  0  0  0  0  0999 V2000
   26.0428  -20.0752  -18.8251 C   0  0  0  0  0  0  0  0  0  0  0  0
   24.6465  -19.8567  -18.2815 C   0  0  1  0  0  0  0  0  0  0  0  0
   23.8264  -21.1332  -18.4464 C   0  0  0  0  0  0  0  0  0  0  0  0
   24.6651  -19.3998  -16.8734 C   0  0  0  0  0  0  0  0  0  0  0  0
   23.2939  -19.2858  -16.2591 C   0  0  2  0  0  0  0  0  0  0  0  0
   22.7142  -18.0276  -16.8124 N   0  0  0  0  0  0  0  0  0  0  0  0
   23.3489  -19.0753  -14.7718 C   0  0  0  0  0  0  0  0  0  0  0  0
   23.7120  -17.9480  -14.3254 O   0  0  0  0  0  0  0  0  0  0  0  0
   21.4611  -19.6212  -10.4174 C   0  0  0  0  0  0  0  0  0  0  0  0
   21.5951  -19.9532  -11.8603 C   0  0  2  0  0  0  0  0  0  0  0  0
   21.0914  -21.3925  -12.0472 C   0  0  0  0  0  0  0  0  0  0  0  0
   22.9489  -19.8823  -12.4351 C   0  0  2  0  0  0  0  0  0  0  0  0
   23.0040  -20.0997  -13.8552 N   0  0  0  0  0  0  0  0  0  0  0  0
   24.0290  -20.5752  -11.7152 C   0  0  0  0  0  0  0  0  0  0  0  0
   24.3198  -21.7428  -12.0424 O   0  0  0  0  0  0  0  0  0  0  0  0
   27.4155  -17.7450   -7.1424 C   0  0  0  0  0  0  0  0  0  0  0  0
   28.3212  -19.3361   -7.0993 S   0  0  0  0  0  0  0  0  0  0  0  0
   27.2830  -20.5509   -7.9794 C   0  0  0  0  0  0  0  0  0  0  0  0
   26.4568  -19.7980   -8.9872 C   0  0  0  0  0  0  0  0  0  0  0  0
   25.5491  -20.7522   -9.7122 C   0  0  2  0  0  0  0  0  0  0  0  0
   24.7558  -19.9771  -10.6656 N   0  0  0  0  0  0  0  0  0  0  0  0
   24.6877  -21.5369   -8.8199 C   0  0  0  0  0  0  0  0  0  0  0  0
   23.4906  -21.2100   -8.6445 O   0  0  0  0  0  0  0  0  0  0  0  0
   25.1997  -22.6359   -8.1743 O   0  0  0  0  0  0  0  0  0  0  0  0
  2  1  1  1
  3  2  1  0
  4  2  1  0
  4  5  1  0
  5  6  1  6
  5  7  1  0
  7  8  2  0
 10  9  1  1
 10 11  1  0
 12 10  1  0
 13  7  1  0
 12 13  1  6
 14 12  1  0
 14 15  2  0
 16 17  1  0
 17 18  1  0
 18 19  1  0
 20 19  1  1
 20 21  1  0
 21 14  1  0
 22 24  1  0
 22 20  1  0
 23 22  2  0
M  END
$$$$
