LVM.pdb
     RDKit          3D

 24 23  0  0  1  0  0  0  0  0999 V2000
   25.5427  -16.7619  -18.6380 C   0  0  0  0  0  0  0  0  0  0  0  0
   26.3780  -17.8033  -17.9235 C   0  0  1  0  0  0  0  0  0  0  0  0
   27.4883  -17.1162  -17.1333 C   0  0  0  0  0  0  0  0  0  0  0  0
   25.5537  -18.6763  -17.0573 C   0  0  0  0  0  0  0  0  0  0  0  0
   26.3650  -19.6137  -16.2007 C   0  0  2  0  0  0  0  0  0  0  0  0
   26.9330  -20.6212  -17.1427 N   0  0  0  0  0  0  0  0  0  0  0  0
   25.5107  -20.4013  -15.2471 C   0  0  0  0  0  0  0  0  0  0  0  0
   24.7447  -21.2975  -15.7076 O   0  0  0  0  0  0  0  0  0  0  0  0
   24.4483  -21.7946  -10.5900 C   0  0  0  0  0  0  0  0  0  0  0  0
   25.2807  -21.0742  -11.5892 C   0  0  2  0  0  0  0  0  0  0  0  0
   25.5736  -19.6780  -11.0190 C   0  0  0  0  0  0  0  0  0  0  0  0
   24.6986  -20.8894  -12.9290 C   0  0  2  0  0  0  0  0  0  0  0  0
   25.5395  -20.1725  -13.8488 N   0  0  0  0  0  0  0  0  0  0  0  0
   23.2907  -20.4688  -13.0052 C   0  0  0  0  0  0  0  0  0  0  0  0
   23.0084  -19.2691  -12.8159 O   0  0  0  0  0  0  0  0  0  0  0  0
   19.3926  -20.5138  -17.4852 C   0  0  0  0  0  0  0  0  0  0  0  0
   18.1494  -21.1435  -16.2971 S   0  0  0  0  0  0  0  0  0  0  0  0
   18.8024  -20.8003  -14.6285 C   0  0  0  0  0  0  0  0  0  0  0  0
   20.2502  -21.2108  -14.6131 C   0  0  0  0  0  0  0  0  0  0  0  0
   20.8315  -20.9661  -13.2485 C   0  0  2  0  0  0  0  0  0  0  0  0
   22.2383  -21.3645  -13.2841 N   0  0  0  0  0  0  0  0  0  0  0  0
   20.1122  -21.6555  -12.1708 C   0  0  0  0  0  0  0  0  0  0  0  0
   20.4719  -22.7961  -11.7963 O   0  0  0  0  0  0  0  0  0  0  0  0
   19.0384  -21.0441  -11.5710 O   0  0  0  0  0  0  0  0  0  0  0  0
  2  1  1  1
  3  2  1  0
  4  2  1  0
  4  5  1  0
  5  6  1  6
  5  7  1  0
  7  8  2  0
 10  9  1  1
 10 11  1  0
 12 10  1  0
 13  7  1  0
 12 13  1  1
 14 12  1  0
 14 15  2  0
 16 17  1  0
 17 18  1  0
 18 19  1  0
 20 19  1  6
 20 21  1  0
 21 14  1  0
 22 24  1  0
 22 20  1  0
 23 22  2  0
M  END
$$$$
