LVM.pdb
     RDKit          3D

 24 23  0  0  1  0  0  0  0  0999 V2000
   25.4366  -16.7389  -18.0183 C   0  0  0  0  0  0  0  0  0  0  0  0
   26.2716  -17.7474  -17.2577 C   0  0  1  0  0  0  0  0  0  0  0  0
   27.2940  -17.0173  -16.3912 C   0  0  0  0  0  0  0  0  0  0  0  0
   25.4345  -18.6668  -16.4541 C   0  0  0  0  0  0  0  0  0  0  0  0
   26.2317  -19.5807  -15.5597 C   0  0  2  0  0  0  0  0  0  0  0  0
   26.9060  -20.5448  -16.4768 N   0  0  0  0  0  0  0  0  0  0  0  0
   25.3555  -20.4229  -14.6752 C   0  0  0  0  0  0  0  0  0  0  0  0
   24.7045  -21.3790  -15.1891 O   0  0  0  0  0  0  0  0  0  0  0  0
   24.8806  -20.0433  -10.1381 C   0  0  0  0  0  0  0  0  0  0  0  0
   24.8918  -21.1910  -11.0830 C   0  0  2  0  0  0  0  0  0  0  0  0
   26.3519  -21.6440  -11.2353 C   0  0  0  0  0  0  0  0  0  0  0  0
   24.3643  -20.9432  -12.4352 C   0  0  2  0  0  0  0  0  0  0  0  0
   25.2388  -20.1804  -13.2839 N   0  0  0  0  0  0  0  0  0  0  0  0
   22.9587  -20.5232  -12.5489 C   0  0  0  0  0  0  0  0  0  0  0  0
   22.6753  -19.3180  -12.4007 O   0  0  0  0  0  0  0  0  0  0  0  0
   20.2248  -19.6083  -17.0073 C   0  0  0  0  0  0  0  0  0  0  0  0
   18.7471  -19.1024  -16.0512 S   0  0  0  0  0  0  0  0  0  0  0  0
   18.9147  -19.8528  -14.3968 C   0  0  0  0  0  0  0  0  0  0  0  0
   20.3386  -20.3174  -14.2500 C   0  0  0  0  0  0  0  0  0  0  0  0
   20.5130  -21.0046  -12.9243 C   0  0  2  0  0  0  0  0  0  0  0  0
   21.9098  -21.4255  -12.8196 N   0  0  0  0  0  0  0  0  0  0  0  0
   19.6014  -22.1374  -12.7250 C   0  0  0  0  0  0  0  0  0  0  0  0
   18.3775  -21.9418  -12.5394 O   0  0  0  0  0  0  0  0  0  0  0  0
   20.0958  -23.4188  -12.7426 O   0  0  0  0  0  0  0  0  0  0  0  0
  2  1  1  1
  3  2  1  0
  4  2  1  0
  4  5  1  0
  5  6  1  6
  5  7  1  0
  7  8  2  0
 10  9  1  1
 10 11  1  0
 12 10  1  0
 13  7  1  0
 12 13  1  1
 14 12  1  0
 14 15  2  0
 16 17  1  0
 17 18  1  0
 18 19  1  0
 20 19  1  6
 20 21  1  0
 21 14  1  0
 22 24  1  0
 22 20  1  0
 23 22  2  0
M  END
$$$$
