LVM.pdb
     RDKit          3D

 24 23  0  0  1  0  0  0  0  0999 V2000
   24.0331  -17.6711  -18.9379 C   0  0  0  0  0  0  0  0  0  0  0  0
   24.4196  -18.8454  -18.0636 C   0  0  1  0  0  0  0  0  0  0  0  0
   25.7584  -19.4118  -18.5282 C   0  0  0  0  0  0  0  0  0  0  0  0
   24.4509  -18.4816  -16.6288 C   0  0  0  0  0  0  0  0  0  0  0  0
   25.0826  -19.5338  -15.7544 C   0  0  2  0  0  0  0  0  0  0  0  0
   24.3541  -20.7979  -16.0648 N   0  0  0  0  0  0  0  0  0  0  0  0
   24.8380  -19.2850  -14.2923 C   0  0  0  0  0  0  0  0  0  0  0  0
   25.1720  -18.1695  -13.7962 O   0  0  0  0  0  0  0  0  0  0  0  0
   21.9575  -21.5821  -11.8470 C   0  0  0  0  0  0  0  0  0  0  0  0
   22.4827  -20.1943  -11.7557 C   0  0  2  0  0  0  0  0  0  0  0  0
   21.6667  -19.3314  -12.7302 C   0  0  0  0  0  0  0  0  0  0  0  0
   23.9056  -20.0000  -12.0808 C   0  0  2  0  0  0  0  0  0  0  0  0
   24.2426  -20.2602  -13.4540 N   0  0  0  0  0  0  0  0  0  0  0  0
   24.8974  -20.5479  -11.1421 C   0  0  0  0  0  0  0  0  0  0  0  0
   25.3666  -21.6834  -11.3551 O   0  0  0  0  0  0  0  0  0  0  0  0
   29.9835  -19.3560   -6.3589 C   0  0  0  0  0  0  0  0  0  0  0  0
   28.2614  -18.8832   -5.9531 S   0  0  0  0  0  0  0  0  0  0  0  0
   27.1794  -20.1046   -6.7692 C   0  0  0  0  0  0  0  0  0  0  0  0
   26.7230  -19.5086   -8.0735 C   0  0  0  0  0  0  0  0  0  0  0  0
   25.9019  -20.5150   -8.8304 C   0  0  2  0  0  0  0  0  0  0  0  0
   25.3452  -19.8448  -10.0052 N   0  0  0  0  0  0  0  0  0  0  0  0
   24.8450  -21.1372   -8.0242 C   0  0  0  0  0  0  0  0  0  0  0  0
   23.6693  -20.7068   -8.0785 O   0  0  0  0  0  0  0  0  0  0  0  0
   25.1497  -22.1976   -7.2061 O   0  0  0  0  0  0  0  0  0  0  0  0
  2  1  1  6
  3  2  1  0
  4  2  1  0
  4  5  1  0
  5  6  1  6
  5  7  1  0
  7  8  2  0
 10  9  1  6
 10 11  1  0
 12 10  1  0
 13  7  1  0
 12 13  1  6
 14 12  1  0
 14 15  2  0
 16 17  1  0
 17 18  1  0
 18 19  1  0
 20 19  1  1
 20 21  1  0
 21 14  1  0
 22 24  1  0
 22 20  1  0
 23 22  2  0
M  END
$$$$
