YWK.pdb
     RDKit          3D

 36 38  0  0  1  0  0  0  0  0999 V2000
   29.7771  -16.2423  -19.0696 O   0  0  0  0  0  0  0  0  0  0  0  0
   29.1749  -16.9494  -18.0110 C   0  0  0  0  0  0  0  0  0  0  0  0
   29.8650  -17.2314  -16.8525 C   0  0  0  0  0  0  0  0  0  0  0  0
   29.2995  -17.9199  -15.8052 C   0  0  0  0  0  0  0  0  0  0  0  0
   28.0009  -18.3516  -15.8955 C   0  0  0  0  0  0  0  0  0  0  0  0
   27.3245  -19.1020  -14.8021 C   0  0  0  0  0  0  0  0  0  0  0  0
   27.9041  -20.4842  -14.6156 C   0  0  2  0  0  0  0  0  0  0  0  0
   27.7393  -21.2889  -15.7857 N   0  0  0  0  0  0  0  0  0  0  0  0
   27.1918  -21.0803  -13.4369 C   0  0  0  0  0  0  0  0  0  0  0  0
   26.1573  -21.7515  -13.5437 O   0  0  0  0  0  0  0  0  0  0  0  0
   27.2990  -18.0764  -17.0484 C   0  0  0  0  0  0  0  0  0  0  0  0
   27.8706  -17.3857  -18.0957 C   0  0  0  0  0  0  0  0  0  0  0  0
   27.7269  -20.8650  -12.1508 N   0  0  0  0  0  0  0  0  0  0  0  0
   27.0479  -21.2149  -10.9208 C   0  0  1  0  0  0  0  0  0  0  0  0
   27.9509  -21.1974   -9.7329 C   0  0  0  0  0  0  0  0  0  0  0  0
   27.1382  -20.9429   -8.5172 C   0  0  0  0  0  0  0  0  0  0  0  0
   25.7589  -21.0983   -8.3496 C   0  0  0  0  0  0  0  0  0  0  0  0
   25.4061  -20.7591   -7.1010 N   0  0  0  0  0  0  0  0  0  0  0  0
   26.4950  -20.3815   -6.4224 C   0  0  0  0  0  0  0  0  0  0  0  0
   26.6629  -19.9486   -5.1256 C   0  0  0  0  0  0  0  0  0  0  0  0
   27.8951  -19.6016   -4.6135 C   0  0  0  0  0  0  0  0  0  0  0  0
   28.9724  -19.7116   -5.4810 C   0  0  0  0  0  0  0  0  0  0  0  0
   28.8084  -20.1486   -6.7923 C   0  0  0  0  0  0  0  0  0  0  0  0
   27.5778  -20.4846   -7.2701 C   0  0  0  0  0  0  0  0  0  0  0  0
   25.8169  -20.4086  -10.7229 C   0  0  0  0  0  0  0  0  0  0  0  0
   25.8257  -19.1545  -10.8232 O   0  0  0  0  0  0  0  0  0  0  0  0
   24.5583  -20.9863  -10.4105 N   0  0  0  0  0  0  0  0  0  0  0  0
   23.3300  -20.6448  -11.1728 C   0  0  1  0  0  0  0  0  0  0  0  0
   23.1823  -21.5759  -12.3263 C   0  0  0  0  0  0  0  0  0  0  0  0
   21.9610  -21.2766  -13.1311 C   0  0  0  0  0  0  0  0  0  0  0  0
   21.9537  -22.2876  -14.2876 C   0  0  0  0  0  0  0  0  0  0  0  0
   20.7416  -22.0765  -15.1665 C   0  0  0  0  0  0  0  0  0  0  0  0
   20.7666  -22.9632  -16.3027 N   0  0  0  0  0  0  0  0  0  0  0  0
   22.2224  -20.7901  -10.2258 C   0  0  0  0  0  0  0  0  0  0  0  0
   22.2430  -21.6110   -9.2879 O   0  0  0  0  0  0  0  0  0  0  0  0
   21.0909  -20.0052  -10.3408 O   0  0  0  0  0  0  0  0  0  0  0  0
  2  1  1  0
  2 12  2  0
  3  2  1  0
  4  3  2  0
  4  5  1  0
  5 11  2  0
  6  5  1  0
  7  6  1  0
  7  8  1  6
  9 13  1  0
  9  7  1  0
 10  9  2  0
 11 12  1  0
 14 15  1  1
 14 13  1  0
 16 15  1  0
 17 16  2  0
 18 17  1  0
 19 24  2  0
 19 18  1  0
 20 19  1  0
 21 20  2  0
 21 22  1  0
 22 23  2  0
 23 24  1  0
 24 16  1  0
 25 14  1  0
 25 27  1  0
 26 25  2  0
 28 27  1  0
 28 29  1  6
 30 29  1  0
 31 32  1  0
 31 30  1  0
 32 33  1  0
 34 28  1  0
 35 34  2  0
 36 34  1  0
M  END
$$$$
