YWK.pdb
     RDKit          3D

 36 38  0  0  1  0  0  0  0  0999 V2000
   23.6955  -16.7324  -24.2016 O   0  0  0  0  0  0  0  0  0  0  0  0
   23.7339  -17.4514  -22.9914 C   0  0  0  0  0  0  0  0  0  0  0  0
   22.8561  -18.4836  -22.7420 C   0  0  0  0  0  0  0  0  0  0  0  0
   22.8735  -19.2005  -21.5688 C   0  0  0  0  0  0  0  0  0  0  0  0
   23.7906  -18.8937  -20.5963 C   0  0  0  0  0  0  0  0  0  0  0  0
   23.8672  -19.6264  -19.3027 C   0  0  0  0  0  0  0  0  0  0  0  0
   22.7050  -19.3027  -18.3940 C   0  0  2  0  0  0  0  0  0  0  0  0
   22.6929  -17.9222  -18.0225 N   0  0  0  0  0  0  0  0  0  0  0  0
   22.8530  -20.1911  -17.1938 C   0  0  0  0  0  0  0  0  0  0  0  0
   23.0167  -21.4152  -17.2776 O   0  0  0  0  0  0  0  0  0  0  0  0
   24.6744  -17.8638  -20.8324 C   0  0  0  0  0  0  0  0  0  0  0  0
   24.6529  -17.1480  -22.0105 C   0  0  0  0  0  0  0  0  0  0  0  0
   22.8032  -19.6030  -15.9138 N   0  0  0  0  0  0  0  0  0  0  0  0
   22.9710  -20.3367  -14.6770 C   0  0  1  0  0  0  0  0  0  0  0  0
   24.1050  -19.8303  -13.8498 C   0  0  0  0  0  0  0  0  0  0  0  0
   25.3808  -20.1587  -14.5337 C   0  0  0  0  0  0  0  0  0  0  0  0
   25.9443  -21.4187  -14.7566 C   0  0  0  0  0  0  0  0  0  0  0  0
   27.1107  -21.2925  -15.4063 N   0  0  0  0  0  0  0  0  0  0  0  0
   27.3533  -19.9962  -15.6290 C   0  0  0  0  0  0  0  0  0  0  0  0
   28.4015  -19.3530  -16.2494 C   0  0  0  0  0  0  0  0  0  0  0  0
   28.4593  -17.9813  -16.3755 C   0  0  0  0  0  0  0  0  0  0  0  0
   27.3947  -17.2711  -15.8392 C   0  0  0  0  0  0  0  0  0  0  0  0
   26.3330  -17.9160  -15.2114 C   0  0  0  0  0  0  0  0  0  0  0  0
   26.3038  -19.2735  -15.1020 C   0  0  0  0  0  0  0  0  0  0  0  0
   21.6990  -20.4328  -13.9169 C   0  0  0  0  0  0  0  0  0  0  0  0
   21.0571  -19.4073  -13.5715 O   0  0  0  0  0  0  0  0  0  0  0  0
   21.1232  -21.6714  -13.5302 N   0  0  0  0  0  0  0  0  0  0  0  0
   19.8935  -21.7370  -12.6995 C   0  0  1  0  0  0  0  0  0  0  0  0
   19.6156  -23.1527  -12.3285 C   0  0  0  0  0  0  0  0  0  0  0  0
   19.0691  -23.2689  -10.9440 C   0  0  0  0  0  0  0  0  0  0  0  0
   18.7911  -24.7627  -10.7188 C   0  0  0  0  0  0  0  0  0  0  0  0
   18.2154  -24.9911   -9.3395 C   0  0  0  0  0  0  0  0  0  0  0  0
   17.9442  -26.3894   -9.1180 N   0  0  0  0  0  0  0  0  0  0  0  0
   20.1707  -20.9206  -11.5158 C   0  0  0  0  0  0  0  0  0  0  0  0
   19.3310  -20.1403  -11.0255 O   0  0  0  0  0  0  0  0  0  0  0  0
   21.3992  -20.9880  -10.8866 O   0  0  0  0  0  0  0  0  0  0  0  0
  2  1  1  0
  2 12  2  0
  3  2  1  0
  4  3  2  0
  4  5  1  0
  5 11  2  0
  6  5  1  0
  7  6  1  0
  7  8  1  1
  9 13  1  0
  9  7  1  0
 10  9  2  0
 11 12  1  0
 14 15  1  1
 14 13  1  0
 16 15  1  0
 17 16  2  0
 18 17  1  0
 19 24  2  0
 19 18  1  0
 20 19  1  0
 21 20  2  0
 21 22  1  0
 22 23  2  0
 23 24  1  0
 24 16  1  0
 25 14  1  0
 25 27  1  0
 26 25  2  0
 28 27  1  0
 28 29  1  1
 30 29  1  0
 31 32  1  0
 31 30  1  0
 32 33  1  0
 34 28  1  0
 35 34  2  0
 36 34  1  0
M  END
$$$$
