YWK.pdb
     RDKit          3D

 36 38  0  0  1  0  0  0  0  0999 V2000
   16.9003  -24.6823  -12.5644 O   0  0  0  0  0  0  0  0  0  0  0  0
   18.1047  -23.9535  -12.6026 C   0  0  0  0  0  0  0  0  0  0  0  0
   18.5992  -23.3256  -11.4804 C   0  0  0  0  0  0  0  0  0  0  0  0
   19.7723  -22.6085  -11.4921 C   0  0  0  0  0  0  0  0  0  0  0  0
   20.4936  -22.5009  -12.6536 C   0  0  0  0  0  0  0  0  0  0  0  0
   21.7709  -21.7411  -12.7401 C   0  0  0  0  0  0  0  0  0  0  0  0
   22.1201  -21.0620  -11.4370 C   0  0  2  0  0  0  0  0  0  0  0  0
   21.1527  -20.0712  -11.0814 N   0  0  0  0  0  0  0  0  0  0  0  0
   23.4784  -20.4551  -11.6330 C   0  0  0  0  0  0  0  0  0  0  0  0
   23.6472  -19.2962  -12.0338 O   0  0  0  0  0  0  0  0  0  0  0  0
   20.0109  -23.1239  -13.7834 C   0  0  0  0  0  0  0  0  0  0  0  0
   18.8340  -23.8418  -13.7664 C   0  0  0  0  0  0  0  0  0  0  0  0
   24.6122  -21.2421  -11.3470 N   0  0  0  0  0  0  0  0  0  0  0  0
   25.9767  -20.8027  -11.5499 C   0  0  1  0  0  0  0  0  0  0  0  0
   26.9315  -21.3992  -10.5704 C   0  0  0  0  0  0  0  0  0  0  0  0
   26.8845  -20.6098   -9.3143 C   0  0  0  0  0  0  0  0  0  0  0  0
   25.8323  -19.8346   -8.8176 C   0  0  0  0  0  0  0  0  0  0  0  0
   26.1849  -19.2732   -7.6519 N   0  0  0  0  0  0  0  0  0  0  0  0
   27.4338  -19.6410   -7.3453 C   0  0  0  0  0  0  0  0  0  0  0  0
   28.2410  -19.3386   -6.2710 C   0  0  0  0  0  0  0  0  0  0  0  0
   29.5223  -19.8317   -6.1444 C   0  0  0  0  0  0  0  0  0  0  0  0
   29.9644  -20.6590   -7.1670 C   0  0  0  0  0  0  0  0  0  0  0  0
   29.1529  -20.9678   -8.2548 C   0  0  0  0  0  0  0  0  0  0  0  0
   27.8905  -20.4652   -8.3521 C   0  0  0  0  0  0  0  0  0  0  0  0
   26.4086  -20.9803  -12.9594 C   0  0  0  0  0  0  0  0  0  0  0  0
   26.1082  -22.0098  -13.6173 O   0  0  0  0  0  0  0  0  0  0  0  0
   27.1809  -20.0149  -13.6570 N   0  0  0  0  0  0  0  0  0  0  0  0
   27.5228  -20.1762  -15.0936 C   0  0  1  0  0  0  0  0  0  0  0  0
   28.1974  -18.9436  -15.5885 C   0  0  0  0  0  0  0  0  0  0  0  0
   28.6286  -19.0776  -17.0116 C   0  0  0  0  0  0  0  0  0  0  0  0
   29.2977  -17.7455  -17.3820 C   0  0  0  0  0  0  0  0  0  0  0  0
   29.1944  -17.4979  -18.8700 C   0  0  0  0  0  0  0  0  0  0  0  0
   30.0470  -18.3989  -19.6041 N   0  0  0  0  0  0  0  0  0  0  0  0
   28.4150  -21.3355  -15.1612 C   0  0  0  0  0  0  0  0  0  0  0  0
   29.1938  -21.6393  -14.2364 O   0  0  0  0  0  0  0  0  0  0  0  0
   28.4252  -22.1514  -16.2764 O   0  0  0  0  0  0  0  0  0  0  0  0
  2  1  1  0
  2 12  2  0
  3  2  1  0
  4  3  2  0
  4  5  1  0
  5 11  2  0
  6  5  1  0
  7  6  1  0
  7  8  1  6
  9 13  1  0
  9  7  1  0
 10  9  2  0
 11 12  1  0
 14 15  1  1
 14 13  1  0
 16 15  1  0
 17 16  2  0
 18 17  1  0
 19 24  2  0
 19 18  1  0
 20 19  1  0
 21 20  2  0
 21 22  1  0
 22 23  2  0
 23 24  1  0
 24 16  1  0
 25 14  1  0
 25 27  1  0
 26 25  2  0
 28 27  1  0
 28 29  1  1
 30 29  1  0
 31 32  1  0
 31 30  1  0
 32 33  1  0
 34 28  1  0
 35 34  2  0
 36 34  1  0
M  END
$$$$
