YWK.pdb
     RDKit          3D

 36 38  0  0  1  0  0  0  0  0999 V2000
   26.4616  -25.1306  -22.4485 O   0  0  0  0  0  0  0  0  0  0  0  0
   26.0671  -24.9256  -21.1122 C   0  0  0  0  0  0  0  0  0  0  0  0
   25.8479  -25.9845  -20.2585 C   0  0  0  0  0  0  0  0  0  0  0  0
   25.4624  -25.8104  -18.9501 C   0  0  0  0  0  0  0  0  0  0  0  0
   25.2834  -24.5440  -18.4552 C   0  0  0  0  0  0  0  0  0  0  0  0
   24.8670  -24.2805  -17.0504 C   0  0  0  0  0  0  0  0  0  0  0  0
   26.0382  -23.9252  -16.1654 C   0  0  2  0  0  0  0  0  0  0  0  0
   26.8954  -25.0483  -15.9468 N   0  0  0  0  0  0  0  0  0  0  0  0
   25.4522  -23.4252  -14.8776 C   0  0  0  0  0  0  0  0  0  0  0  0
   25.3315  -24.1360  -13.8714 O   0  0  0  0  0  0  0  0  0  0  0  0
   25.4991  -23.4759  -19.2979 C   0  0  0  0  0  0  0  0  0  0  0  0
   25.8856  -23.6558  -20.6091 C   0  0  0  0  0  0  0  0  0  0  0  0
   25.0204  -22.0851  -14.8128 N   0  0  0  0  0  0  0  0  0  0  0  0
   24.4645  -21.4684  -13.6267 C   0  0  1  0  0  0  0  0  0  0  0  0
   25.1327  -20.1821  -13.2725 C   0  0  0  0  0  0  0  0  0  0  0  0
   26.3944  -20.4808  -12.5499 C   0  0  0  0  0  0  0  0  0  0  0  0
   27.6824  -20.6171  -13.0765 C   0  0  0  0  0  0  0  0  0  0  0  0
   28.5538  -20.8929  -12.0952 N   0  0  0  0  0  0  0  0  0  0  0  0
   27.9015  -20.9473  -10.9288 C   0  0  0  0  0  0  0  0  0  0  0  0
   28.3368  -21.1940   -9.6455 C   0  0  0  0  0  0  0  0  0  0  0  0
   27.4838  -21.2046   -8.5624 C   0  0  0  0  0  0  0  0  0  0  0  0
   26.1466  -20.9511   -8.8329 C   0  0  0  0  0  0  0  0  0  0  0  0
   25.7013  -20.7012  -10.1277 C   0  0  0  0  0  0  0  0  0  0  0  0
   26.5685  -20.6972  -11.1783 C   0  0  0  0  0  0  0  0  0  0  0  0
   22.9868  -21.3484  -13.7096 C   0  0  0  0  0  0  0  0  0  0  0  0
   22.4190  -20.8717  -14.7261 O   0  0  0  0  0  0  0  0  0  0  0  0
   22.1198  -21.7571  -12.6624 N   0  0  0  0  0  0  0  0  0  0  0  0
   20.6455  -21.6064  -12.7638 C   0  0  1  0  0  0  0  0  0  0  0  0
   19.9827  -22.4871  -11.7617 C   0  0  0  0  0  0  0  0  0  0  0  0
   18.4945  -22.3933  -11.8352 C   0  0  0  0  0  0  0  0  0  0  0  0
   17.9534  -23.3324  -10.7467 C   0  0  0  0  0  0  0  0  0  0  0  0
   16.4457  -23.4169  -10.8232 C   0  0  0  0  0  0  0  0  0  0  0  0
   15.9278  -24.3218   -9.8279 N   0  0  0  0  0  0  0  0  0  0  0  0
   20.3719  -20.1931  -12.4945 C   0  0  0  0  0  0  0  0  0  0  0  0
   21.0593  -19.5134  -11.7074 O   0  0  0  0  0  0  0  0  0  0  0  0
   19.3195  -19.5492  -13.1170 O   0  0  0  0  0  0  0  0  0  0  0  0
  2  1  1  0
  2 12  2  0
  3  2  1  0
  4  3  2  0
  4  5  1  0
  5 11  2  0
  6  5  1  0
  7  6  1  0
  7  8  1  1
  9 13  1  0
  9  7  1  0
 10  9  2  0
 11 12  1  0
 14 15  1  6
 14 13  1  0
 16 15  1  0
 17 16  2  0
 18 17  1  0
 19 24  2  0
 19 18  1  0
 20 19  1  0
 21 20  2  0
 21 22  1  0
 22 23  2  0
 23 24  1  0
 24 16  1  0
 25 14  1  0
 25 27  1  0
 26 25  2  0
 28 27  1  0
 28 29  1  1
 30 29  1  0
 31 32  1  0
 31 30  1  0
 32 33  1  0
 34 28  1  0
 35 34  2  0
 36 34  1  0
M  END
$$$$
