YWK.pdb
     RDKit          3D

 36 38  0  0  1  0  0  0  0  0999 V2000
   30.7033  -16.4835  -19.0976 O   0  0  0  0  0  0  0  0  0  0  0  0
   29.9602  -17.1085  -18.0777 C   0  0  0  0  0  0  0  0  0  0  0  0
   28.5900  -17.2278  -18.1585 C   0  0  0  0  0  0  0  0  0  0  0  0
   27.8424  -17.8336  -17.1763 C   0  0  0  0  0  0  0  0  0  0  0  0
   28.4631  -18.3453  -16.0655 C   0  0  0  0  0  0  0  0  0  0  0  0
   27.7180  -19.0134  -14.9635 C   0  0  0  0  0  0  0  0  0  0  0  0
   28.1278  -20.4569  -14.7909 C   0  0  2  0  0  0  0  0  0  0  0  0
   27.8237  -21.2350  -15.9510 N   0  0  0  0  0  0  0  0  0  0  0  0
   27.3888  -20.9598  -13.5856 C   0  0  0  0  0  0  0  0  0  0  0  0
   26.3009  -21.5458  -13.6582 O   0  0  0  0  0  0  0  0  0  0  0  0
   29.8328  -18.2329  -15.9716 C   0  0  0  0  0  0  0  0  0  0  0  0
   30.5779  -17.6246  -16.9593 C   0  0  0  0  0  0  0  0  0  0  0  0
   27.9613  -20.7546  -12.3140 N   0  0  0  0  0  0  0  0  0  0  0  0
   27.2755  -21.0106  -11.0649 C   0  0  1  0  0  0  0  0  0  0  0  0
   28.1206  -20.7255   -9.8685 C   0  0  0  0  0  0  0  0  0  0  0  0
   27.2668  -20.7778   -8.6555 C   0  0  0  0  0  0  0  0  0  0  0  0
   25.9380  -21.1994   -8.5495 C   0  0  0  0  0  0  0  0  0  0  0  0
   25.5207  -21.0903   -7.2797 N   0  0  0  0  0  0  0  0  0  0  0  0
   26.5176  -20.6115   -6.5275 C   0  0  0  0  0  0  0  0  0  0  0  0
   26.5947  -20.3232   -5.1828 C   0  0  0  0  0  0  0  0  0  0  0  0
   27.7392  -19.8274   -4.5953 C   0  0  0  0  0  0  0  0  0  0  0  0
   28.8245  -19.6306   -5.4373 C   0  0  0  0  0  0  0  0  0  0  0  0
   28.7520  -19.9203   -6.7968 C   0  0  0  0  0  0  0  0  0  0  0  0
   27.6068  -20.4094   -7.3488 C   0  0  0  0  0  0  0  0  0  0  0  0
   25.9543  -20.3349  -11.0135 C   0  0  0  0  0  0  0  0  0  0  0  0
   25.8513  -19.1032  -10.7787 O   0  0  0  0  0  0  0  0  0  0  0  0
   24.7288  -21.0203  -11.2226 N   0  0  0  0  0  0  0  0  0  0  0  0
   23.4329  -20.2986  -11.3036 C   0  0  1  0  0  0  0  0  0  0  0  0
   22.8883  -20.4025  -12.6862 C   0  0  0  0  0  0  0  0  0  0  0  0
   23.6040  -19.5001  -13.6363 C   0  0  0  0  0  0  0  0  0  0  0  0
   22.9441  -19.7136  -15.0068 C   0  0  0  0  0  0  0  0  0  0  0  0
   23.5814  -18.8184  -16.0454 C   0  0  0  0  0  0  0  0  0  0  0  0
   23.0465  -19.0865  -17.3568 N   0  0  0  0  0  0  0  0  0  0  0  0
   22.5528  -20.9540  -10.3338 C   0  0  0  0  0  0  0  0  0  0  0  0
   22.6159  -22.1741  -10.0858 O   0  0  0  0  0  0  0  0  0  0  0  0
   21.6010  -20.2273   -9.6441 O   0  0  0  0  0  0  0  0  0  0  0  0
  2  1  1  0
  2 12  2  0
  3  2  1  0
  4  3  2  0
  4  5  1  0
  5 11  2  0
  6  5  1  0
  7  6  1  0
  7  8  1  6
  9 13  1  0
  9  7  1  0
 10  9  2  0
 11 12  1  0
 14 15  1  1
 14 13  1  0
 16 15  1  0
 17 16  2  0
 18 17  1  0
 19 24  2  0
 19 18  1  0
 20 19  1  0
 21 20  2  0
 21 22  1  0
 22 23  2  0
 23 24  1  0
 24 16  1  0
 25 14  1  0
 25 27  1  0
 26 25  2  0
 28 27  1  0
 28 29  1  6
 30 29  1  0
 31 32  1  0
 31 30  1  0
 32 33  1  0
 34 28  1  0
 35 34  2  0
 36 34  1  0
M  END
$$$$
