YWK.pdb
     RDKit          3D

 36 38  0  0  1  0  0  0  0  0999 V2000
   23.1869  -15.7289  -18.5579 O   0  0  0  0  0  0  0  0  0  0  0  0
   23.2486  -16.5340  -17.4042 C   0  0  0  0  0  0  0  0  0  0  0  0
   23.8706  -16.0955  -16.2558 C   0  0  0  0  0  0  0  0  0  0  0  0
   23.9440  -16.8624  -15.1169 C   0  0  0  0  0  0  0  0  0  0  0  0
   23.3840  -18.1143  -15.1011 C   0  0  0  0  0  0  0  0  0  0  0  0
   23.4255  -18.9993  -13.9048 C   0  0  0  0  0  0  0  0  0  0  0  0
   24.7588  -19.6929  -13.7544 C   0  0  2  0  0  0  0  0  0  0  0  0
   24.9905  -20.6277  -14.8110 N   0  0  0  0  0  0  0  0  0  0  0  0
   24.7267  -20.3745  -12.4179 C   0  0  0  0  0  0  0  0  0  0  0  0
   24.1400  -21.4468  -12.2223 O   0  0  0  0  0  0  0  0  0  0  0  0
   22.7588  -18.5655  -16.2426 C   0  0  0  0  0  0  0  0  0  0  0  0
   22.6879  -17.7925  -17.3821 C   0  0  0  0  0  0  0  0  0  0  0  0
   25.3956  -19.7645  -11.3376 N   0  0  0  0  0  0  0  0  0  0  0  0
   25.4603  -20.3236  -10.0037 C   0  0  1  0  0  0  0  0  0  0  0  0
   26.5281  -19.7046   -9.1649 C   0  0  0  0  0  0  0  0  0  0  0  0
   26.4840  -20.3095   -7.8102 C   0  0  0  0  0  0  0  0  0  0  0  0
   25.6242  -21.3035   -7.3334 C   0  0  0  0  0  0  0  0  0  0  0  0
   25.9014  -21.5744   -6.0495 N   0  0  0  0  0  0  0  0  0  0  0  0
   26.9145  -20.8009   -5.6445 C   0  0  0  0  0  0  0  0  0  0  0  0
   27.5621  -20.6981   -4.4332 C   0  0  0  0  0  0  0  0  0  0  0  0
   28.6030  -19.8191   -4.2212 C   0  0  0  0  0  0  0  0  0  0  0  0
   28.9708  -19.0324   -5.3035 C   0  0  0  0  0  0  0  0  0  0  0  0
   28.3198  -19.1322   -6.5297 C   0  0  0  0  0  0  0  0  0  0  0  0
   27.2942  -20.0106   -6.7089 C   0  0  0  0  0  0  0  0  0  0  0  0
   24.1315  -20.3224   -9.3411 C   0  0  0  0  0  0  0  0  0  0  0  0
   23.4697  -19.2631   -9.1905 O   0  0  0  0  0  0  0  0  0  0  0  0
   23.5201  -21.5001   -8.8367 N   0  0  0  0  0  0  0  0  0  0  0  0
   22.0724  -21.5507   -8.5081 C   0  0  1  0  0  0  0  0  0  0  0  0
   21.3416  -22.2830   -9.5799 C   0  0  0  0  0  0  0  0  0  0  0  0
   19.8924  -22.4416   -9.2580 C   0  0  0  0  0  0  0  0  0  0  0  0
   19.2601  -23.1418  -10.4701 C   0  0  0  0  0  0  0  0  0  0  0  0
   17.7706  -23.3058  -10.2682 C   0  0  0  0  0  0  0  0  0  0  0  0
   17.1680  -23.9788  -11.3914 N   0  0  0  0  0  0  0  0  0  0  0  0
   21.9811  -22.2526   -7.2260 C   0  0  0  0  0  0  0  0  0  0  0  0
   22.7380  -23.1947   -6.9198 O   0  0  0  0  0  0  0  0  0  0  0  0
   21.0323  -21.8874   -6.2900 O   0  0  0  0  0  0  0  0  0  0  0  0
  2  1  1  0
  2 12  2  0
  3  2  1  0
  4  3  2  0
  4  5  1  0
  5 11  2  0
  6  5  1  0
  7  6  1  0
  7  8  1  6
  9 13  1  0
  9  7  1  0
 10  9  2  0
 11 12  1  0
 14 15  1  1
 14 13  1  0
 16 15  1  0
 17 16  2  0
 18 17  1  0
 19 24  2  0
 19 18  1  0
 20 19  1  0
 21 20  2  0
 21 22  1  0
 22 23  2  0
 23 24  1  0
 24 16  1  0
 25 14  1  0
 25 27  1  0
 26 25  2  0
 28 27  1  0
 28 29  1  6
 30 29  1  0
 31 32  1  0
 31 30  1  0
 32 33  1  0
 34 28  1  0
 35 34  2  0
 36 34  1  0
M  END
$$$$
