YWK.pdb
     RDKit          3D

 36 38  0  0  1  0  0  0  0  0999 V2000
   16.4598  -20.9619  -13.9149 O   0  0  0  0  0  0  0  0  0  0  0  0
   17.8034  -20.6768  -13.6043 C   0  0  0  0  0  0  0  0  0  0  0  0
   18.7865  -21.6343  -13.7253 C   0  0  0  0  0  0  0  0  0  0  0  0
   20.1048  -21.3807  -13.4284 C   0  0  0  0  0  0  0  0  0  0  0  0
   20.4779  -20.1346  -12.9937 C   0  0  0  0  0  0  0  0  0  0  0  0
   21.8854  -19.7889  -12.6540 C   0  0  0  0  0  0  0  0  0  0  0  0
   22.4731  -20.7310  -11.6301 C   0  0  2  0  0  0  0  0  0  0  0  0
   21.7414  -20.7004  -10.4022 N   0  0  0  0  0  0  0  0  0  0  0  0
   23.8955  -20.2966  -11.4304 C   0  0  0  0  0  0  0  0  0  0  0  0
   24.3799  -19.3009  -11.9838 O   0  0  0  0  0  0  0  0  0  0  0  0
   19.5051  -19.1674  -12.8681 C   0  0  0  0  0  0  0  0  0  0  0  0
   18.1844  -19.4268  -13.1672 C   0  0  0  0  0  0  0  0  0  0  0  0
   24.7154  -21.0581  -10.5735 N   0  0  0  0  0  0  0  0  0  0  0  0
   26.1405  -20.8532  -10.4207 C   0  0  1  0  0  0  0  0  0  0  0  0
   26.6719  -21.3976   -9.1369 C   0  0  0  0  0  0  0  0  0  0  0  0
   27.0568  -20.2644   -8.2589 C   0  0  0  0  0  0  0  0  0  0  0  0
   26.7392  -18.9104   -8.4034 C   0  0  0  0  0  0  0  0  0  0  0  0
   27.2806  -18.2015   -7.4021 N   0  0  0  0  0  0  0  0  0  0  0  0
   27.9501  -19.0265   -6.5896 C   0  0  0  0  0  0  0  0  0  0  0  0
   28.6690  -18.7951   -5.4377 C   0  0  0  0  0  0  0  0  0  0  0  0
   29.2947  -19.8054   -4.7387 C   0  0  0  0  0  0  0  0  0  0  0  0
   29.1624  -21.0845   -5.2602 C   0  0  0  0  0  0  0  0  0  0  0  0
   28.4371  -21.3239   -6.4238 C   0  0  0  0  0  0  0  0  0  0  0  0
   27.8296  -20.3047   -7.0929 C   0  0  0  0  0  0  0  0  0  0  0  0
   26.8956  -21.3297  -11.6071 C   0  0  0  0  0  0  0  0  0  0  0  0
   26.9972  -22.5544  -11.8770 O   0  0  0  0  0  0  0  0  0  0  0  0
   27.5485  -20.4503  -12.5101 N   0  0  0  0  0  0  0  0  0  0  0  0
   28.2133  -20.9464  -13.7424 C   0  0  1  0  0  0  0  0  0  0  0  0
   28.2838  -19.8501  -14.7485 C   0  0  0  0  0  0  0  0  0  0  0  0
   28.9909  -20.2792  -15.9915 C   0  0  0  0  0  0  0  0  0  0  0  0
   28.9999  -19.0564  -16.9211 C   0  0  0  0  0  0  0  0  0  0  0  0
   29.6244  -19.4089  -18.2522 C   0  0  0  0  0  0  0  0  0  0  0  0
   29.5462  -18.2998  -19.1695 N   0  0  0  0  0  0  0  0  0  0  0  0
   29.5505  -21.3747  -13.3266 C   0  0  0  0  0  0  0  0  0  0  0  0
   30.1377  -20.8844  -12.3422 O   0  0  0  0  0  0  0  0  0  0  0  0
   30.2232  -22.3588  -14.0256 O   0  0  0  0  0  0  0  0  0  0  0  0
  2  1  1  0
  2 12  2  0
  3  2  1  0
  4  3  2  0
  4  5  1  0
  5 11  2  0
  6  5  1  0
  7  6  1  0
  7  8  1  1
  9 13  1  0
  9  7  1  0
 10  9  2  0
 11 12  1  0
 14 15  1  1
 14 13  1  0
 16 15  1  0
 17 16  2  0
 18 17  1  0
 19 24  2  0
 19 18  1  0
 20 19  1  0
 21 20  2  0
 21 22  1  0
 22 23  2  0
 23 24  1  0
 24 16  1  0
 25 14  1  0
 25 27  1  0
 26 25  2  0
 28 27  1  0
 28 29  1  6
 30 29  1  0
 31 32  1  0
 31 30  1  0
 32 33  1  0
 34 28  1  0
 35 34  2  0
 36 34  1  0
M  END
$$$$
