YWK.pdb
     RDKit          3D

 36 38  0  0  1  0  0  0  0  0999 V2000
   30.4620  -17.0919  -19.2951 O   0  0  0  0  0  0  0  0  0  0  0  0
   29.6819  -17.7730  -18.3407 C   0  0  0  0  0  0  0  0  0  0  0  0
   29.5523  -19.1443  -18.3666 C   0  0  0  0  0  0  0  0  0  0  0  0
   28.7968  -19.8321  -17.4464 C   0  0  0  0  0  0  0  0  0  0  0  0
   28.1387  -19.1475  -16.4569 C   0  0  0  0  0  0  0  0  0  0  0  0
   27.3034  -19.8257  -15.4280 C   0  0  0  0  0  0  0  0  0  0  0  0
   25.9794  -20.2924  -15.9851 C   0  0  2  0  0  0  0  0  0  0  0  0
   25.2564  -19.2216  -16.5971 N   0  0  0  0  0  0  0  0  0  0  0  0
   25.2210  -20.8739  -14.8282 C   0  0  0  0  0  0  0  0  0  0  0  0
   25.5962  -21.8813  -14.2145 O   0  0  0  0  0  0  0  0  0  0  0  0
   28.2595  -17.7758  -16.4191 C   0  0  0  0  0  0  0  0  0  0  0  0
   29.0184  -17.0909  -17.3442 C   0  0  0  0  0  0  0  0  0  0  0  0
   24.0275  -20.2427  -14.4235 N   0  0  0  0  0  0  0  0  0  0  0  0
   23.2356  -20.6588  -13.2851 C   0  0  1  0  0  0  0  0  0  0  0  0
   23.1658  -19.6212  -12.2149 C   0  0  0  0  0  0  0  0  0  0  0  0
   24.5297  -19.3997  -11.6727 C   0  0  0  0  0  0  0  0  0  0  0  0
   25.5958  -18.7151  -12.2640 C   0  0  0  0  0  0  0  0  0  0  0  0
   26.6648  -18.7413  -11.4546 N   0  0  0  0  0  0  0  0  0  0  0  0
   26.3587  -19.4172  -10.3417 C   0  0  0  0  0  0  0  0  0  0  0  0
   27.0988  -19.7204   -9.2203 C   0  0  0  0  0  0  0  0  0  0  0  0
   26.5837  -20.4426   -8.1649 C   0  0  0  0  0  0  0  0  0  0  0  0
   25.2645  -20.8544   -8.2900 C   0  0  0  0  0  0  0  0  0  0  0  0
   24.5121  -20.5507   -9.4209 C   0  0  0  0  0  0  0  0  0  0  0  0
   25.0488  -19.8350  -10.4482 C   0  0  0  0  0  0  0  0  0  0  0  0
   21.8981  -21.1553  -13.6966 C   0  0  0  0  0  0  0  0  0  0  0  0
   21.2720  -20.6444  -14.6609 O   0  0  0  0  0  0  0  0  0  0  0  0
   21.2382  -22.2277  -13.0410 N   0  0  0  0  0  0  0  0  0  0  0  0
   19.9087  -22.7177  -13.4870 C   0  0  1  0  0  0  0  0  0  0  0  0
   19.6068  -24.0175  -12.8246 C   0  0  0  0  0  0  0  0  0  0  0  0
   19.0870  -23.8286  -11.4378 C   0  0  0  0  0  0  0  0  0  0  0  0
   18.9197  -25.2375  -10.8492 C   0  0  0  0  0  0  0  0  0  0  0  0
   18.4377  -25.1587   -9.4182 C   0  0  0  0  0  0  0  0  0  0  0  0
   18.2575  -26.4756   -8.8605 N   0  0  0  0  0  0  0  0  0  0  0  0
   18.9513  -21.6829  -13.0906 C   0  0  0  0  0  0  0  0  0  0  0  0
   19.1640  -20.8959  -12.1474 O   0  0  0  0  0  0  0  0  0  0  0  0
   17.7525  -21.5388  -13.7628 O   0  0  0  0  0  0  0  0  0  0  0  0
  2  1  1  0
  2 12  2  0
  3  2  1  0
  4  3  2  0
  4  5  1  0
  5 11  2  0
  6  5  1  0
  7  6  1  0
  7  8  1  1
  9 13  1  0
  9  7  1  0
 10  9  2  0
 11 12  1  0
 14 15  1  1
 14 13  1  0
 16 15  1  0
 17 16  2  0
 18 17  1  0
 19 24  2  0
 19 18  1  0
 20 19  1  0
 21 20  2  0
 21 22  1  0
 22 23  2  0
 23 24  1  0
 24 16  1  0
 25 14  1  0
 25 27  1  0
 26 25  2  0
 28 27  1  0
 28 29  1  1
 30 29  1  0
 31 32  1  0
 31 30  1  0
 32 33  1  0
 34 28  1  0
 35 34  2  0
 36 34  1  0
M  END
$$$$
