YWK.pdb
     RDKit          3D

 36 38  0  0  1  0  0  0  0  0999 V2000
   30.4463  -15.3980  -18.5323 O   0  0  0  0  0  0  0  0  0  0  0  0
   29.6812  -16.4019  -17.9077 C   0  0  0  0  0  0  0  0  0  0  0  0
   29.4650  -16.3970  -16.5471 C   0  0  0  0  0  0  0  0  0  0  0  0
   28.7220  -17.3654  -15.9141 C   0  0  0  0  0  0  0  0  0  0  0  0
   28.1657  -18.3839  -16.6450 C   0  0  0  0  0  0  0  0  0  0  0  0
   27.3505  -19.4655  -16.0273 C   0  0  0  0  0  0  0  0  0  0  0  0
   28.2010  -20.4640  -15.2784 C   0  0  2  0  0  0  0  0  0  0  0  0
   29.1747  -21.0728  -16.1300 N   0  0  0  0  0  0  0  0  0  0  0  0
   27.2527  -21.4821  -14.7162 C   0  0  0  0  0  0  0  0  0  0  0  0
   26.7964  -22.4191  -15.3841 O   0  0  0  0  0  0  0  0  0  0  0  0
   28.3738  -18.4011  -18.0066 C   0  0  0  0  0  0  0  0  0  0  0  0
   29.1197  -17.4276  -18.6366 C   0  0  0  0  0  0  0  0  0  0  0  0
   26.8654  -21.3644  -13.3661 N   0  0  0  0  0  0  0  0  0  0  0  0
   25.9883  -22.2967  -12.6896 C   0  0  1  0  0  0  0  0  0  0  0  0
   26.3906  -22.5521  -11.2755 C   0  0  0  0  0  0  0  0  0  0  0  0
   26.2587  -21.2905  -10.5047 C   0  0  0  0  0  0  0  0  0  0  0  0
   25.2873  -20.2935  -10.6355 C   0  0  0  0  0  0  0  0  0  0  0  0
   25.5184  -19.3079   -9.7558 N   0  0  0  0  0  0  0  0  0  0  0  0
   26.6078  -19.6037   -9.0384 C   0  0  0  0  0  0  0  0  0  0  0  0
   27.2498  -18.9270   -8.0250 C   0  0  0  0  0  0  0  0  0  0  0  0
   28.3808  -19.4166   -7.4070 C   0  0  0  0  0  0  0  0  0  0  0  0
   28.8467  -20.6416   -7.8627 C   0  0  0  0  0  0  0  0  0  0  0  0
   28.2018  -21.3297   -8.8864 C   0  0  0  0  0  0  0  0  0  0  0  0
   27.0855  -20.8203   -9.4781 C   0  0  0  0  0  0  0  0  0  0  0  0
   24.5619  -21.9067  -12.8232 C   0  0  0  0  0  0  0  0  0  0  0  0
   24.1862  -20.7154  -12.6734 O   0  0  0  0  0  0  0  0  0  0  0  0
   23.5329  -22.8369  -13.1254 N   0  0  0  0  0  0  0  0  0  0  0  0
   22.1698  -22.3956  -13.5174 C   0  0  1  0  0  0  0  0  0  0  0  0
   21.4744  -23.4992  -14.2369 C   0  0  0  0  0  0  0  0  0  0  0  0
   21.6429  -24.8101  -13.5425 C   0  0  0  0  0  0  0  0  0  0  0  0
   20.7942  -25.8212  -14.3280 C   0  0  0  0  0  0  0  0  0  0  0  0
   20.8107  -27.1695  -13.6439 C   0  0  0  0  0  0  0  0  0  0  0  0
   20.0473  -28.1373  -14.3910 N   0  0  0  0  0  0  0  0  0  0  0  0
   21.4861  -22.0616  -12.2661 C   0  0  0  0  0  0  0  0  0  0  0  0
   21.9605  -22.3368  -11.1466 O   0  0  0  0  0  0  0  0  0  0  0  0
   20.2647  -21.4153  -12.2825 O   0  0  0  0  0  0  0  0  0  0  0  0
  2  1  1  0
  2 12  2  0
  3  2  1  0
  4  3  2  0
  4  5  1  0
  5 11  2  0
  6  5  1  0
  7  6  1  0
  7  8  1  6
  9 13  1  0
  9  7  1  0
 10  9  2  0
 11 12  1  0
 14 15  1  1
 14 13  1  0
 16 15  1  0
 17 16  2  0
 18 17  1  0
 19 24  2  0
 19 18  1  0
 20 19  1  0
 21 20  2  0
 21 22  1  0
 22 23  2  0
 23 24  1  0
 24 16  1  0
 25 14  1  0
 25 27  1  0
 26 25  2  0
 28 27  1  0
 28 29  1  1
 30 29  1  0
 31 32  1  0
 31 30  1  0
 32 33  1  0
 34 28  1  0
 35 34  2  0
 36 34  1  0
M  END
$$$$
