MYW.pdb
     RDKit          3D

 35 37  0  0  1  0  0  0  0  0999 V2000
   29.0901  -34.5863  -19.6955 C   0  0  0  0  0  0  0  0  0  0  0  0
   29.0440  -36.2135  -18.9034 S   0  0  0  0  0  0  0  0  0  0  0  0
   29.2061  -36.0416  -17.0986 C   0  0  0  0  0  0  0  0  0  0  0  0
   28.3794  -34.8611  -16.6508 C   0  0  0  0  0  0  0  0  0  0  0  0
   29.2760  -33.7325  -16.1742 C   0  0  2  0  0  0  0  0  0  0  0  0
   29.9013  -34.1215  -14.8987 N   0  0  0  0  0  0  0  0  0  0  0  0
   28.4722  -32.5154  -15.8830 C   0  0  0  0  0  0  0  0  0  0  0  0
   27.7971  -32.4007  -14.8290 O   0  0  0  0  0  0  0  0  0  0  0  0
   25.7900  -24.1703  -17.6579 O   0  0  0  0  0  0  0  0  0  0  0  0
   26.4502  -25.3812  -17.5108 C   0  0  0  0  0  0  0  0  0  0  0  0
   26.7888  -25.8296  -16.2504 C   0  0  0  0  0  0  0  0  0  0  0  0
   27.4420  -27.0155  -16.0219 C   0  0  0  0  0  0  0  0  0  0  0  0
   27.7657  -27.7821  -17.1377 C   0  0  0  0  0  0  0  0  0  0  0  0
   28.4600  -29.0525  -17.0113 C   0  0  0  0  0  0  0  0  0  0  0  0
   27.6439  -30.2130  -16.5235 C   0  0  2  0  0  0  0  0  0  0  0  0
   28.4206  -31.4121  -16.7797 N   0  0  0  0  0  0  0  0  0  0  0  0
   26.3789  -30.3426  -17.2944 C   0  0  0  0  0  0  0  0  0  0  0  0
   26.3702  -30.8455  -18.4658 O   0  0  0  0  0  0  0  0  0  0  0  0
   27.4310  -27.3424  -18.4098 C   0  0  0  0  0  0  0  0  0  0  0  0
   26.7766  -26.1488  -18.6000 C   0  0  0  0  0  0  0  0  0  0  0  0
   25.1564  -29.9140  -16.7528 N   0  0  0  0  0  0  0  0  0  0  0  0
   23.8979  -30.0030  -17.5240 C   0  0  1  0  0  0  0  0  0  0  0  0
   23.6035  -31.4492  -17.7409 C   0  0  0  0  0  0  0  0  0  0  0  0
   23.0361  -32.1390  -16.5889 C   0  0  0  0  0  0  0  0  0  0  0  0
   22.0406  -31.6387  -15.7524 C   0  0  0  0  0  0  0  0  0  0  0  0
   21.8083  -32.5444  -14.7886 N   0  0  0  0  0  0  0  0  0  0  0  0
   22.6158  -33.6103  -14.9723 C   0  0  0  0  0  0  0  0  0  0  0  0
   22.7498  -34.7926  -14.2772 C   0  0  0  0  0  0  0  0  0  0  0  0
   23.6466  -35.7570  -14.6785 C   0  0  0  0  0  0  0  0  0  0  0  0
   24.4341  -35.5559  -15.7931 C   0  0  0  0  0  0  0  0  0  0  0  0
   24.2730  -34.3633  -16.4611 C   0  0  0  0  0  0  0  0  0  0  0  0
   23.3899  -33.3727  -16.0943 C   0  0  0  0  0  0  0  0  0  0  0  0
   22.8495  -29.2687  -16.8474 C   0  0  0  0  0  0  0  0  0  0  0  0
   22.9748  -28.7945  -15.7063 O   0  0  0  0  0  0  0  0  0  0  0  0
   21.6227  -29.0679  -17.4885 O   0  0  0  0  0  0  0  0  0  0  0  0
  2  1  1  0
  3  2  1  0
  4  3  1  0
  5  4  1  0
  5  6  1  1
  7  5  1  0
  7  8  2  0
  9 10  1  0
 10 11  2  0
 10 20  1  0
 11 12  1  0
 12 13  2  0
 13 14  1  0
 15 14  1  6
 15 17  1  0
 15 16  1  0
 16  7  1  0
 17 21  1  0
 18 17  2  0
 19 13  1  0
 20 19  2  0
 21 22  1  0
 22 33  1  0
 23 24  1  0
 22 23  1  1
 24 25  2  0
 26 25  1  0
 27 26  1  0
 28 27  2  0
 29 28  1  0
 30 29  2  0
 30 31  1  0
 31 32  2  0
 32 27  1  0
 32 24  1  0
 33 34  2  0
 33 35  1  0
M  END
$$$$
