MYW.pdb
     RDKit          3D

 35 37  0  0  1  0  0  0  0  0999 V2000
   30.4528  -16.0452  -15.9250 C   0  0  0  0  0  0  0  0  0  0  0  0
   29.3881  -16.3060  -17.3657 S   0  0  0  0  0  0  0  0  0  0  0  0
   28.5028  -17.8896  -17.2176 C   0  0  0  0  0  0  0  0  0  0  0  0
   28.2940  -18.1898  -15.7534 C   0  0  0  0  0  0  0  0  0  0  0  0
   27.6820  -19.5674  -15.5737 C   0  0  2  0  0  0  0  0  0  0  0  0
   26.9100  -19.9114  -16.7799 N   0  0  0  0  0  0  0  0  0  0  0  0
   26.7077  -19.5627  -14.4500 C   0  0  0  0  0  0  0  0  0  0  0  0
   25.9217  -18.6013  -14.2554 O   0  0  0  0  0  0  0  0  0  0  0  0
   20.9810  -21.0983  -16.9667 O   0  0  0  0  0  0  0  0  0  0  0  0
   21.9004  -21.2935  -15.9467 C   0  0  0  0  0  0  0  0  0  0  0  0
   22.9957  -22.1062  -16.1563 C   0  0  0  0  0  0  0  0  0  0  0  0
   23.9490  -22.3493  -15.1984 C   0  0  0  0  0  0  0  0  0  0  0  0
   23.7742  -21.7305  -13.9639 C   0  0  0  0  0  0  0  0  0  0  0  0
   24.7208  -21.9210  -12.8777 C   0  0  0  0  0  0  0  0  0  0  0  0
   25.5722  -20.7388  -12.5200 C   0  0  2  0  0  0  0  0  0  0  0  0
   26.6091  -20.6444  -13.5312 N   0  0  0  0  0  0  0  0  0  0  0  0
   26.2559  -20.9436  -11.2154 C   0  0  0  0  0  0  0  0  0  0  0  0
   27.4850  -21.2778  -11.1614 O   0  0  0  0  0  0  0  0  0  0  0  0
   22.6775  -20.9114  -13.7407 C   0  0  0  0  0  0  0  0  0  0  0  0
   21.7429  -20.6912  -14.7242 C   0  0  0  0  0  0  0  0  0  0  0  0
   25.5658  -20.7743  -10.0044 N   0  0  0  0  0  0  0  0  0  0  0  0
   26.2481  -20.9223   -8.7009 C   0  0  1  0  0  0  0  0  0  0  0  0
   27.4238  -20.0043   -8.7008 C   0  0  0  0  0  0  0  0  0  0  0  0
   27.7965  -19.4852   -7.3907 C   0  0  0  0  0  0  0  0  0  0  0  0
   27.1890  -18.4141   -6.7391 C   0  0  0  0  0  0  0  0  0  0  0  0
   27.8289  -18.2134   -5.5757 N   0  0  0  0  0  0  0  0  0  0  0  0
   28.8256  -19.1151   -5.4520 C   0  0  0  0  0  0  0  0  0  0  0  0
   29.7458  -19.3365   -4.4504 C   0  0  0  0  0  0  0  0  0  0  0  0
   30.6703  -20.3523   -4.5443 C   0  0  0  0  0  0  0  0  0  0  0  0
   30.6926  -21.1741   -5.6521 C   0  0  0  0  0  0  0  0  0  0  0  0
   29.7593  -20.9223   -6.6319 C   0  0  0  0  0  0  0  0  0  0  0  0
   28.8188  -19.9182   -6.5786 C   0  0  0  0  0  0  0  0  0  0  0  0
   25.3086  -20.6995   -7.6220 C   0  0  0  0  0  0  0  0  0  0  0  0
   25.5229  -21.0431   -6.4479 O   0  0  0  0  0  0  0  0  0  0  0  0
   24.0898  -20.0666   -7.8871 O   0  0  0  0  0  0  0  0  0  0  0  0
  2  1  1  0
  3  2  1  0
  4  3  1  0
  5  4  1  0
  5  6  1  6
  7  5  1  0
  7  8  2  0
  9 10  1  0
 10 11  2  0
 10 20  1  0
 11 12  1  0
 12 13  2  0
 13 14  1  0
 15 14  1  6
 15 17  1  0
 15 16  1  0
 16  7  1  0
 17 21  1  0
 18 17  2  0
 19 13  1  0
 20 19  2  0
 21 22  1  0
 22 33  1  0
 23 24  1  0
 22 23  1  6
 24 25  2  0
 26 25  1  0
 27 26  1  0
 28 27  2  0
 29 28  1  0
 30 29  2  0
 30 31  1  0
 31 32  2  0
 32 27  1  0
 32 24  1  0
 33 34  2  0
 33 35  1  0
M  END
$$$$
