MYW.pdb
     RDKit          3D

 35 37  0  0  1  0  0  0  0  0999 V2000
   29.1463  -30.3351  -19.2618 C   0  0  0  0  0  0  0  0  0  0  0  0
   30.6598  -31.1939  -18.7629 S   0  0  0  0  0  0  0  0  0  0  0  0
   31.8922  -29.9996  -18.1560 C   0  0  0  0  0  0  0  0  0  0  0  0
   32.9596  -29.8314  -19.2096 C   0  0  0  0  0  0  0  0  0  0  0  0
   33.7306  -31.1255  -19.3986 C   0  0  2  0  0  0  0  0  0  0  0  0
   34.6067  -31.3374  -18.2338 N   0  0  0  0  0  0  0  0  0  0  0  0
   34.6316  -31.0282  -20.5779 C   0  0  0  0  0  0  0  0  0  0  0  0
   35.7535  -30.4652  -20.5130 O   0  0  0  0  0  0  0  0  0  0  0  0
   38.7895  -36.6259  -21.5512 O   0  0  0  0  0  0  0  0  0  0  0  0
   37.8921  -35.7024  -22.0668 C   0  0  0  0  0  0  0  0  0  0  0  0
   36.6236  -35.6060  -21.5325 C   0  0  0  0  0  0  0  0  0  0  0  0
   35.6791  -34.7189  -21.9867 C   0  0  0  0  0  0  0  0  0  0  0  0
   36.0497  -33.8881  -23.0401 C   0  0  0  0  0  0  0  0  0  0  0  0
   35.1277  -32.9146  -23.6007 C   0  0  0  0  0  0  0  0  0  0  0  0
   35.1597  -31.5413  -22.9977 C   0  0  2  0  0  0  0  0  0  0  0  0
   34.2763  -31.5657  -21.8463 N   0  0  0  0  0  0  0  0  0  0  0  0
   34.6162  -30.5274  -23.9401 C   0  0  0  0  0  0  0  0  0  0  0  0
   33.3766  -30.2300  -23.9444 O   0  0  0  0  0  0  0  0  0  0  0  0
   37.3218  -33.9752  -23.5859 C   0  0  0  0  0  0  0  0  0  0  0  0
   38.2415  -34.8763  -23.1048 C   0  0  0  0  0  0  0  0  0  0  0  0
   35.4547  -29.8680  -24.8531 N   0  0  0  0  0  0  0  0  0  0  0  0
   34.9295  -28.8443  -25.7818 C   0  0  1  0  0  0  0  0  0  0  0  0
   34.1074  -27.8900  -24.9825 C   0  0  0  0  0  0  0  0  0  0  0  0
   33.5245  -26.7938  -25.7463 C   0  0  0  0  0  0  0  0  0  0  0  0
   32.5441  -26.9196  -26.7281 C   0  0  0  0  0  0  0  0  0  0  0  0
   32.2903  -25.6988  -27.2263 N   0  0  0  0  0  0  0  0  0  0  0  0
   33.0693  -24.7901  -26.6023 C   0  0  0  0  0  0  0  0  0  0  0  0
   33.1739  -23.4226  -26.7360 C   0  0  0  0  0  0  0  0  0  0  0  0
   34.0445  -22.6952  -25.9560 C   0  0  0  0  0  0  0  0  0  0  0  0
   34.8347  -23.3274  -25.0184 C   0  0  0  0  0  0  0  0  0  0  0  0
   34.7034  -24.6935  -24.9140 C   0  0  0  0  0  0  0  0  0  0  0  0
   33.8471  -25.4587  -25.6736 C   0  0  0  0  0  0  0  0  0  0  0  0
   36.0192  -28.2347  -26.5147 C   0  0  0  0  0  0  0  0  0  0  0  0
   35.8530  -27.3770  -27.3976 O   0  0  0  0  0  0  0  0  0  0  0  0
   37.3365  -28.6119  -26.2343 O   0  0  0  0  0  0  0  0  0  0  0  0
  2  1  1  0
  3  2  1  0
  4  3  1  0
  5  4  1  0
  5  6  1  1
  7  5  1  0
  7  8  2  0
  9 10  1  0
 10 11  2  0
 10 20  1  0
 11 12  1  0
 12 13  2  0
 13 14  1  0
 15 14  1  6
 15 17  1  0
 15 16  1  0
 16  7  1  0
 17 21  1  0
 18 17  2  0
 19 13  1  0
 20 19  2  0
 21 22  1  0
 22 33  1  0
 23 24  1  0
 22 23  1  1
 24 25  2  0
 26 25  1  0
 27 26  1  0
 28 27  2  0
 29 28  1  0
 30 29  2  0
 30 31  1  0
 31 32  2  0
 32 27  1  0
 32 24  1  0
 33 34  2  0
 33 35  1  0
M  END
$$$$
