MYW.pdb
     RDKit          3D

 35 37  0  0  1  0  0  0  0  0999 V2000
   25.5495  -27.6562  -19.1996 C   0  0  0  0  0  0  0  0  0  0  0  0
   26.5669  -26.7339  -18.0201 S   0  0  0  0  0  0  0  0  0  0  0  0
   25.5557  -25.4988  -17.1451 C   0  0  0  0  0  0  0  0  0  0  0  0
   26.4393  -24.7518  -16.1761 C   0  0  0  0  0  0  0  0  0  0  0  0
   26.6785  -23.3323  -16.6584 C   0  0  2  0  0  0  0  0  0  0  0  0
   27.6555  -23.3574  -17.7603 N   0  0  0  0  0  0  0  0  0  0  0  0
   27.2953  -22.5127  -15.5814 C   0  0  0  0  0  0  0  0  0  0  0  0
   28.5168  -22.5977  -15.2979 O   0  0  0  0  0  0  0  0  0  0  0  0
   29.1565  -17.1464  -18.4643 O   0  0  0  0  0  0  0  0  0  0  0  0
   28.5859  -17.7063  -17.3309 C   0  0  0  0  0  0  0  0  0  0  0  0
   27.2549  -18.0702  -17.3408 C   0  0  0  0  0  0  0  0  0  0  0  0
   26.6176  -18.6295  -16.2609 C   0  0  0  0  0  0  0  0  0  0  0  0
   27.3789  -18.8270  -15.1125 C   0  0  0  0  0  0  0  0  0  0  0  0
   26.8046  -19.4085  -13.9108 C   0  0  0  0  0  0  0  0  0  0  0  0
   27.0831  -20.8637  -13.6753 C   0  0  2  0  0  0  0  0  0  0  0  0
   26.5393  -21.5863  -14.8105 N   0  0  0  0  0  0  0  0  0  0  0  0
   26.3732  -21.3581  -12.4657 C   0  0  0  0  0  0  0  0  0  0  0  0
   25.9357  -22.5538  -12.4017 O   0  0  0  0  0  0  0  0  0  0  0  0
   28.7177  -18.4654  -15.0897 C   0  0  0  0  0  0  0  0  0  0  0  0
   29.3222  -17.9077  -16.1910 C   0  0  0  0  0  0  0  0  0  0  0  0
   26.1645  -20.5204  -11.3584 N   0  0  0  0  0  0  0  0  0  0  0  0
   25.7662  -21.0661  -10.0431 C   0  0  1  0  0  0  0  0  0  0  0  0
   27.0098  -21.2738   -9.2460 C   0  0  0  0  0  0  0  0  0  0  0  0
   26.9470  -20.7869   -7.8735 C   0  0  0  0  0  0  0  0  0  0  0  0
   25.7810  -20.5213   -7.1588 C   0  0  0  0  0  0  0  0  0  0  0  0
   26.1279  -20.0580   -5.9472 N   0  0  0  0  0  0  0  0  0  0  0  0
   27.4737  -20.0154   -5.8530 C   0  0  0  0  0  0  0  0  0  0  0  0
   28.3118  -19.6384   -4.8263 C   0  0  0  0  0  0  0  0  0  0  0  0
   29.6802  -19.7036   -4.9633 C   0  0  0  0  0  0  0  0  0  0  0  0
   30.2421  -20.1514   -6.1409 C   0  0  0  0  0  0  0  0  0  0  0  0
   29.3738  -20.5184   -7.1439 C   0  0  0  0  0  0  0  0  0  0  0  0
   28.0012  -20.4683   -7.0493 C   0  0  0  0  0  0  0  0  0  0  0  0
   24.7893  -20.1968   -9.4215 C   0  0  0  0  0  0  0  0  0  0  0  0
   23.9501  -20.5927   -8.5958 O   0  0  0  0  0  0  0  0  0  0  0  0
   24.7672  -18.8372   -9.7488 O   0  0  0  0  0  0  0  0  0  0  0  0
  2  1  1  0
  3  2  1  0
  4  3  1  0
  5  4  1  0
  5  6  1  6
  7  5  1  0
  7  8  2  0
  9 10  1  0
 10 11  2  0
 10 20  1  0
 11 12  1  0
 12 13  2  0
 13 14  1  0
 15 14  1  6
 15 17  1  0
 15 16  1  0
 16  7  1  0
 17 21  1  0
 18 17  2  0
 19 13  1  0
 20 19  2  0
 21 22  1  0
 22 33  1  0
 23 24  1  0
 22 23  1  1
 24 25  2  0
 26 25  1  0
 27 26  1  0
 28 27  2  0
 29 28  1  0
 30 29  2  0
 30 31  1  0
 31 32  2  0
 32 27  1  0
 32 24  1  0
 33 34  2  0
 33 35  1  0
M  END
$$$$
