MYW.pdb
     RDKit          3D

 35 37  0  0  1  0  0  0  0  0999 V2000
   25.7188  -19.3126  -18.4543 C   0  0  0  0  0  0  0  0  0  0  0  0
   27.4566  -18.9436  -18.8024 S   0  0  0  0  0  0  0  0  0  0  0  0
   28.5406  -19.9725  -17.7633 C   0  0  0  0  0  0  0  0  0  0  0  0
   27.7813  -20.3703  -16.5211 C   0  0  0  0  0  0  0  0  0  0  0  0
   28.6466  -21.2343  -15.6213 C   0  0  2  0  0  0  0  0  0  0  0  0
   28.8803  -22.5307  -16.2800 N   0  0  0  0  0  0  0  0  0  0  0  0
   27.9350  -21.5410  -14.3518 C   0  0  0  0  0  0  0  0  0  0  0  0
   26.9467  -22.3167  -14.3141 O   0  0  0  0  0  0  0  0  0  0  0  0
   25.9231  -19.8825   -5.7905 O   0  0  0  0  0  0  0  0  0  0  0  0
   26.5356  -20.0305   -7.0261 C   0  0  0  0  0  0  0  0  0  0  0  0
   26.5633  -21.2688   -7.6344 C   0  0  0  0  0  0  0  0  0  0  0  0
   27.1493  -21.4967   -8.8550 C   0  0  0  0  0  0  0  0  0  0  0  0
   27.7365  -20.4039   -9.4862 C   0  0  0  0  0  0  0  0  0  0  0  0
   28.3874  -20.5327  -10.7792 C   0  0  0  0  0  0  0  0  0  0  0  0
   27.5624  -21.1210  -11.8856 C   0  0  2  0  0  0  0  0  0  0  0  0
   28.3309  -20.9747  -13.1082 N   0  0  0  0  0  0  0  0  0  0  0  0
   26.2975  -20.3622  -12.0749 C   0  0  0  0  0  0  0  0  0  0  0  0
   26.3113  -19.1253  -12.3831 O   0  0  0  0  0  0  0  0  0  0  0  0
   27.7154  -19.1541   -8.8853 C   0  0  0  0  0  0  0  0  0  0  0  0
   27.1191  -18.9638   -7.6616 C   0  0  0  0  0  0  0  0  0  0  0  0
   25.0503  -20.9881  -11.9193 N   0  0  0  0  0  0  0  0  0  0  0  0
   23.7867  -20.2621  -12.1698 C   0  0  1  0  0  0  0  0  0  0  0  0
   23.3462  -20.5893  -13.5569 C   0  0  0  0  0  0  0  0  0  0  0  0
   22.3650  -21.6631  -13.6514 C   0  0  0  0  0  0  0  0  0  0  0  0
   21.0102  -21.5542  -13.3453 C   0  0  0  0  0  0  0  0  0  0  0  0
   20.4421  -22.7580  -13.5221 N   0  0  0  0  0  0  0  0  0  0  0  0
   21.3791  -23.6391  -13.9315 C   0  0  0  0  0  0  0  0  0  0  0  0
   21.3032  -24.9751  -14.2604 C   0  0  0  0  0  0  0  0  0  0  0  0
   22.4154  -25.6697  -14.6798 C   0  0  0  0  0  0  0  0  0  0  0  0
   23.6365  -25.0357  -14.7794 C   0  0  0  0  0  0  0  0  0  0  0  0
   23.6738  -23.7018  -14.4419 C   0  0  0  0  0  0  0  0  0  0  0  0
   22.5873  -22.9703  -14.0176 C   0  0  0  0  0  0  0  0  0  0  0  0
   22.8205  -20.5794  -11.1393 C   0  0  0  0  0  0  0  0  0  0  0  0
   22.9538  -21.5259  -10.3462 O   0  0  0  0  0  0  0  0  0  0  0  0
   21.6692  -19.7963  -11.0072 O   0  0  0  0  0  0  0  0  0  0  0  0
  2  1  1  0
  3  2  1  0
  4  3  1  0
  5  4  1  0
  5  6  1  6
  7  5  1  0
  7  8  2  0
  9 10  1  0
 10 11  2  0
 10 20  1  0
 11 12  1  0
 12 13  2  0
 13 14  1  0
 15 14  1  1
 15 17  1  0
 15 16  1  0
 16  7  1  0
 17 21  1  0
 18 17  2  0
 19 13  1  0
 20 19  2  0
 21 22  1  0
 22 33  1  0
 23 24  1  0
 22 23  1  6
 24 25  2  0
 26 25  1  0
 27 26  1  0
 28 27  2  0
 29 28  1  0
 30 29  2  0
 30 31  1  0
 31 32  2  0
 32 27  1  0
 32 24  1  0
 33 34  2  0
 33 35  1  0
M  END
$$$$
