MYW.pdb
     RDKit          3D

 35 37  0  0  1  0  0  0  0  0999 V2000
   32.0577  -16.9484  -17.4018 C   0  0  0  0  0  0  0  0  0  0  0  0
   30.5503  -17.8840  -17.0419 S   0  0  0  0  0  0  0  0  0  0  0  0
   29.0859  -16.9644  -17.6106 C   0  0  0  0  0  0  0  0  0  0  0  0
   27.8517  -17.7578  -17.2574 C   0  0  0  0  0  0  0  0  0  0  0  0
   27.9760  -19.1866  -17.7552 C   0  0  2  0  0  0  0  0  0  0  0  0
   27.9821  -19.1837  -19.2280 N   0  0  0  0  0  0  0  0  0  0  0  0
   26.7878  -19.9848  -17.3511 C   0  0  0  0  0  0  0  0  0  0  0  0
   25.6206  -19.6514  -17.6769 O   0  0  0  0  0  0  0  0  0  0  0  0
   21.6229  -26.6033  -14.7763 O   0  0  0  0  0  0  0  0  0  0  0  0
   22.6841  -25.7894  -15.1442 C   0  0  0  0  0  0  0  0  0  0  0  0
   22.4733  -24.7369  -16.0113 C   0  0  0  0  0  0  0  0  0  0  0  0
   23.4703  -23.8873  -16.4229 C   0  0  0  0  0  0  0  0  0  0  0  0
   24.7473  -24.1250  -15.9229 C   0  0  0  0  0  0  0  0  0  0  0  0
   25.8767  -23.2895  -16.2950 C   0  0  0  0  0  0  0  0  0  0  0  0
   25.7684  -21.8321  -15.9561 C   0  0  2  0  0  0  0  0  0  0  0  0
   26.9034  -21.1702  -16.5729 N   0  0  0  0  0  0  0  0  0  0  0  0
   25.8815  -21.6111  -14.4899 C   0  0  0  0  0  0  0  0  0  0  0  0
   26.7883  -22.1887  -13.8049 O   0  0  0  0  0  0  0  0  0  0  0  0
   24.9723  -25.1797  -15.0507 C   0  0  0  0  0  0  0  0  0  0  0  0
   23.9488  -26.0101  -14.6607 C   0  0  0  0  0  0  0  0  0  0  0  0
   24.9913  -20.7583  -13.8177 N   0  0  0  0  0  0  0  0  0  0  0  0
   24.7048  -20.9239  -12.3765 C   0  0  1  0  0  0  0  0  0  0  0  0
   25.4390  -19.8511  -11.6449 C   0  0  0  0  0  0  0  0  0  0  0  0
   26.7070  -20.2664  -11.0581 C   0  0  0  0  0  0  0  0  0  0  0  0
   27.8492  -20.6311  -11.7676 C   0  0  0  0  0  0  0  0  0  0  0  0
   28.7974  -20.9825  -10.8842 N   0  0  0  0  0  0  0  0  0  0  0  0
   28.3103  -20.8573   -9.6316 C   0  0  0  0  0  0  0  0  0  0  0  0
   28.8826  -21.0741   -8.3969 C   0  0  0  0  0  0  0  0  0  0  0  0
   28.1769  -20.8520   -7.2358 C   0  0  0  0  0  0  0  0  0  0  0  0
   26.8729  -20.4046   -7.2876 C   0  0  0  0  0  0  0  0  0  0  0  0
   26.3350  -20.2002   -8.5380 C   0  0  0  0  0  0  0  0  0  0  0  0
   27.0042  -20.4102   -9.7228 C   0  0  0  0  0  0  0  0  0  0  0  0
   23.2742  -20.9355  -12.1540 C   0  0  0  0  0  0  0  0  0  0  0  0
   22.4406  -20.7815  -13.0618 O   0  0  0  0  0  0  0  0  0  0  0  0
   22.7780  -21.1285  -10.8607 O   0  0  0  0  0  0  0  0  0  0  0  0
  2  1  1  0
  3  2  1  0
  4  3  1  0
  5  4  1  0
  5  6  1  6
  7  5  1  0
  7  8  2  0
  9 10  1  0
 10 11  2  0
 10 20  1  0
 11 12  1  0
 12 13  2  0
 13 14  1  0
 15 14  1  1
 15 17  1  0
 15 16  1  0
 16  7  1  0
 17 21  1  0
 18 17  2  0
 19 13  1  0
 20 19  2  0
 21 22  1  0
 22 33  1  0
 23 24  1  0
 22 23  1  1
 24 25  2  0
 26 25  1  0
 27 26  1  0
 28 27  2  0
 29 28  1  0
 30 29  2  0
 30 31  1  0
 31 32  2  0
 32 27  1  0
 32 24  1  0
 33 34  2  0
 33 35  1  0
M  END
$$$$
