MYW.pdb
     RDKit          3D

 35 37  0  0  1  0  0  0  0  0999 V2000
   30.5871  -17.6538  -20.0771 C   0  0  0  0  0  0  0  0  0  0  0  0
   29.5641  -18.3852  -18.7750 S   0  0  0  0  0  0  0  0  0  0  0  0
   28.2843  -19.4548  -19.5040 C   0  0  0  0  0  0  0  0  0  0  0  0
   27.4506  -20.0371  -18.3888 C   0  0  0  0  0  0  0  0  0  0  0  0
   28.3151  -20.8606  -17.4511 C   0  0  2  0  0  0  0  0  0  0  0  0
   28.6853  -22.1195  -18.1199 N   0  0  0  0  0  0  0  0  0  0  0  0
   27.5456  -21.2501  -16.2394 C   0  0  0  0  0  0  0  0  0  0  0  0
   26.6304  -22.1106  -16.2810 O   0  0  0  0  0  0  0  0  0  0  0  0
   24.8600  -20.4006   -7.7771 O   0  0  0  0  0  0  0  0  0  0  0  0
   25.5558  -20.3848   -8.9769 C   0  0  0  0  0  0  0  0  0  0  0  0
   25.6631  -19.2100   -9.6927 C   0  0  0  0  0  0  0  0  0  0  0  0
   26.3340  -19.1127  -10.8867 C   0  0  0  0  0  0  0  0  0  0  0  0
   26.9254  -20.2747  -11.3739 C   0  0  0  0  0  0  0  0  0  0  0  0
   27.6570  -20.2860  -12.6295 C   0  0  0  0  0  0  0  0  0  0  0  0
   26.9494  -20.8861  -13.8085 C   0  0  2  0  0  0  0  0  0  0  0  0
   27.8001  -20.6717  -14.9648 N   0  0  0  0  0  0  0  0  0  0  0  0
   25.6656  -20.1858  -14.0786 C   0  0  0  0  0  0  0  0  0  0  0  0
   25.6476  -18.9795  -14.4906 O   0  0  0  0  0  0  0  0  0  0  0  0
   26.8247  -21.4619  -10.6639 C   0  0  0  0  0  0  0  0  0  0  0  0
   26.1444  -21.5212   -9.4711 C   0  0  0  0  0  0  0  0  0  0  0  0
   24.4354  -20.8347  -13.8872 N   0  0  0  0  0  0  0  0  0  0  0  0
   23.1519  -20.1233  -14.0691 C   0  0  1  0  0  0  0  0  0  0  0  0
   23.0240  -19.7873  -15.5168 C   0  0  0  0  0  0  0  0  0  0  0  0
   21.7806  -19.1211  -15.8842 C   0  0  0  0  0  0  0  0  0  0  0  0
   21.3160  -17.9195  -15.3538 C   0  0  0  0  0  0  0  0  0  0  0  0
   20.1255  -17.6471  -15.9121 N   0  0  0  0  0  0  0  0  0  0  0  0
   19.8051  -18.6271  -16.7832 C   0  0  0  0  0  0  0  0  0  0  0  0
   18.7158  -18.8034  -17.6085 C   0  0  0  0  0  0  0  0  0  0  0  0
   18.6219  -19.8963  -18.4404 C   0  0  0  0  0  0  0  0  0  0  0  0
   19.6251  -20.8430  -18.4632 C   0  0  0  0  0  0  0  0  0  0  0  0
   20.6965  -20.6338  -17.6249 C   0  0  0  0  0  0  0  0  0  0  0  0
   20.8300  -19.5567  -16.7777 C   0  0  0  0  0  0  0  0  0  0  0  0
   22.0653  -20.9178  -13.5358 C   0  0  0  0  0  0  0  0  0  0  0  0
   22.1139  -22.1538  -13.4239 O   0  0  0  0  0  0  0  0  0  0  0  0
   20.8892  -20.2870  -13.1173 O   0  0  0  0  0  0  0  0  0  0  0  0
  2  1  1  0
  3  2  1  0
  4  3  1  0
  5  4  1  0
  5  6  1  6
  7  5  1  0
  7  8  2  0
  9 10  1  0
 10 11  2  0
 10 20  1  0
 11 12  1  0
 12 13  2  0
 13 14  1  0
 15 14  1  1
 15 17  1  0
 15 16  1  0
 16  7  1  0
 17 21  1  0
 18 17  2  0
 19 13  1  0
 20 19  2  0
 21 22  1  0
 22 33  1  0
 23 24  1  0
 22 23  1  6
 24 25  2  0
 26 25  1  0
 27 26  1  0
 28 27  2  0
 29 28  1  0
 30 29  2  0
 30 31  1  0
 31 32  2  0
 32 27  1  0
 32 24  1  0
 33 34  2  0
 33 35  1  0
M  END
$$$$
