MYW.pdb
     RDKit          3D

 35 37  0  0  1  0  0  0  0  0999 V2000
   33.5840  -25.8858  -15.3112 C   0  0  0  0  0  0  0  0  0  0  0  0
   32.8523  -24.3333  -14.7353 S   0  0  0  0  0  0  0  0  0  0  0  0
   31.3445  -23.9566  -15.6830 C   0  0  0  0  0  0  0  0  0  0  0  0
   30.7689  -22.6569  -15.1760 C   0  0  0  0  0  0  0  0  0  0  0  0
   29.4069  -22.3996  -15.7953 C   0  0  2  0  0  0  0  0  0  0  0  0
   29.5869  -21.6988  -17.0782 N   0  0  0  0  0  0  0  0  0  0  0  0
   28.6079  -21.4852  -14.9365 C   0  0  0  0  0  0  0  0  0  0  0  0
   28.9120  -20.2743  -14.7912 O   0  0  0  0  0  0  0  0  0  0  0  0
   21.1422  -18.4068  -11.3912 O   0  0  0  0  0  0  0  0  0  0  0  0
   22.1729  -19.0351  -12.0744 C   0  0  0  0  0  0  0  0  0  0  0  0
   23.0675  -18.2839  -12.8089 C   0  0  0  0  0  0  0  0  0  0  0  0
   24.1128  -18.8303  -13.5118 C   0  0  0  0  0  0  0  0  0  0  0  0
   24.2511  -20.2144  -13.4614 C   0  0  0  0  0  0  0  0  0  0  0  0
   25.3200  -20.8975  -14.1706 C   0  0  0  0  0  0  0  0  0  0  0  0
   26.6197  -21.0451  -13.4361 C   0  0  2  0  0  0  0  0  0  0  0  0
   27.4549  -21.9276  -14.2302 N   0  0  0  0  0  0  0  0  0  0  0  0
   26.4208  -21.7055  -12.1186 C   0  0  0  0  0  0  0  0  0  0  0  0
   26.1916  -22.9568  -12.0371 O   0  0  0  0  0  0  0  0  0  0  0  0
   23.3585  -20.9806  -12.7268 C   0  0  0  0  0  0  0  0  0  0  0  0
   22.3233  -20.3981  -12.0352 C   0  0  0  0  0  0  0  0  0  0  0  0
   26.4802  -20.9679  -10.9253 N   0  0  0  0  0  0  0  0  0  0  0  0
   26.1031  -21.5687   -9.6279 C   0  0  1  0  0  0  0  0  0  0  0  0
   27.3128  -21.5527   -8.7553 C   0  0  0  0  0  0  0  0  0  0  0  0
   27.4580  -20.3599   -7.9302 C   0  0  0  0  0  0  0  0  0  0  0  0
   26.8310  -19.1362   -8.1547 C   0  0  0  0  0  0  0  0  0  0  0  0
   27.2375  -18.2764   -7.2067 N   0  0  0  0  0  0  0  0  0  0  0  0
   28.1023  -18.8995   -6.3787 C   0  0  0  0  0  0  0  0  0  0  0  0
   28.7766  -18.4656   -5.2580 C   0  0  0  0  0  0  0  0  0  0  0  0
   29.6048  -19.3101   -4.5534 C   0  0  0  0  0  0  0  0  0  0  0  0
   29.7763  -20.6172   -4.9599 C   0  0  0  0  0  0  0  0  0  0  0  0
   29.0875  -21.0143   -6.0835 C   0  0  0  0  0  0  0  0  0  0  0  0
   28.2509  -20.2034   -6.8171 C   0  0  0  0  0  0  0  0  0  0  0  0
   24.9538  -20.8805   -9.0787 C   0  0  0  0  0  0  0  0  0  0  0  0
   24.2604  -21.3384   -8.1556 O   0  0  0  0  0  0  0  0  0  0  0  0
   24.5832  -19.6345   -9.5948 O   0  0  0  0  0  0  0  0  0  0  0  0
  2  1  1  0
  3  2  1  0
  4  3  1  0
  5  4  1  0
  5  6  1  6
  7  5  1  0
  7  8  2  0
  9 10  1  0
 10 11  2  0
 10 20  1  0
 11 12  1  0
 12 13  2  0
 13 14  1  0
 15 14  1  6
 15 17  1  0
 15 16  1  0
 16  7  1  0
 17 21  1  0
 18 17  2  0
 19 13  1  0
 20 19  2  0
 21 22  1  0
 22 33  1  0
 23 24  1  0
 22 23  1  1
 24 25  2  0
 26 25  1  0
 27 26  1  0
 28 27  2  0
 29 28  1  0
 30 29  2  0
 30 31  1  0
 31 32  2  0
 32 27  1  0
 32 24  1  0
 33 34  2  0
 33 35  1  0
M  END
$$$$
