WDD.pdb
     RDKit          3D

 31 32  0  0  1  0  0  0  0  0999 V2000
    7.1411  -17.6466   24.0858 N   0  0  0  0  0  0  0  0  0  0  0  0
    8.0825  -16.5713   23.7277 C   0  0  1  0  0  0  0  0  0  0  0  0
    8.5892  -15.9136   25.0127 C   0  0  0  0  0  0  0  0  0  0  0  0
    7.4631  -15.1025   25.5532 C   0  0  0  0  0  0  0  0  0  0  0  0
    6.2803  -15.5950   26.0852 C   0  0  0  0  0  0  0  0  0  0  0  0
    5.5422  -14.5556   26.4371 N   0  0  0  0  0  0  0  0  0  0  0  0
    6.1965  -13.4030   26.1558 C   0  0  0  0  0  0  0  0  0  0  0  0
    5.9046  -12.0562   26.3092 C   0  0  0  0  0  0  0  0  0  0  0  0
    6.8258  -11.1292   25.9048 C   0  0  0  0  0  0  0  0  0  0  0  0
    8.0440  -11.4673   25.3449 C   0  0  0  0  0  0  0  0  0  0  0  0
    8.3411  -12.7919   25.1892 C   0  0  0  0  0  0  0  0  0  0  0  0
    7.4134  -13.7441   25.5964 C   0  0  0  0  0  0  0  0  0  0  0  0
    9.2779  -17.1763   23.0957 C   0  0  0  0  0  0  0  0  0  0  0  0
    9.7031  -18.2617   23.5355 O   0  0  0  0  0  0  0  0  0  0  0  0
    9.9093  -16.5265   22.0194 N   0  0  0  0  0  0  0  0  0  0  0  0
   11.1236  -17.0461   21.3812 C   0  0  1  0  0  0  0  0  0  0  0  0
   11.1575  -16.3362   20.0189 C   0  0  0  0  0  0  0  0  0  0  0  0
   10.2642  -16.9112   19.0204 C   0  0  0  0  0  0  0  0  0  0  0  0
   10.1534  -18.1882   18.9450 O   0  0  0  0  0  0  0  0  0  0  0  0
   12.3195  -16.6239   22.1266 C   0  0  0  0  0  0  0  0  0  0  0  0
   12.5261  -15.3681   22.2992 O   0  0  0  0  0  0  0  0  0  0  0  0
    9.5039  -16.1963   18.1222 O   0  0  0  0  0  0  0  0  0  0  0  0
   13.2856  -17.4944   22.6905 N   0  0  0  0  0  0  0  0  0  0  0  0
   14.4194  -16.9606   23.4640 C   0  0  1  0  0  0  0  0  0  0  0  0
   15.0142  -18.1103   24.2843 C   0  0  0  0  0  0  0  0  0  0  0  0
   15.3889  -17.7295   25.6431 C   0  0  0  0  0  0  0  0  0  0  0  0
   15.5383  -16.5426   25.9803 O   0  0  0  0  0  0  0  0  0  0  0  0
   15.3788  -16.3973   22.5091 C   0  0  0  0  0  0  0  0  0  0  0  0
   16.2716  -15.6103   22.8397 O   0  0  0  0  0  0  0  0  0  0  0  0
   15.5968  -18.6893   26.6311 O   0  0  0  0  0  0  0  0  0  0  0  0
   15.3124  -16.7429   21.1586 O   0  0  0  0  0  0  0  0  0  0  0  0
  2  1  1  1
  2 13  1  0
  2  3  1  0
  3  4  1  0
  4  5  2  0
  5  6  1  0
  7  6  1  0
  8  7  2  0
  9  8  1  0
 10 11  1  0
 10  9  2  0
 11 12  2  0
 12  4  1  0
 12  7  1  0
 13 15  1  0
 14 13  2  0
 15 16  1  0
 16 17  1  6
 17 18  1  0
 18 19  2  0
 18 22  1  0
 20 16  1  0
 21 20  2  0
 23 20  1  0
 24 23  1  0
 24 25  1  6
 26 25  1  0
 26 27  2  0
 28 24  1  0
 28 31  1  0
 29 28  2  0
 30 26  1  0
M  END
$$$$
