WDD.pdb
     RDKit          3D

 31 32  0  0  1  0  0  0  0  0999 V2000
    6.4269  -17.4820   24.4828 N   0  0  0  0  0  0  0  0  0  0  0  0
    7.4657  -16.5488   24.0129 C   0  0  1  0  0  0  0  0  0  0  0  0
    8.0933  -15.8604   25.2263 C   0  0  0  0  0  0  0  0  0  0  0  0
    7.0925  -14.8783   25.7285 C   0  0  0  0  0  0  0  0  0  0  0  0
    5.8859  -15.1798   26.3431 C   0  0  0  0  0  0  0  0  0  0  0  0
    5.2880  -14.0340   26.6234 N   0  0  0  0  0  0  0  0  0  0  0  0
    6.0567  -12.9954   26.2161 C   0  0  0  0  0  0  0  0  0  0  0  0
    5.9281  -11.6154   26.2557 C   0  0  0  0  0  0  0  0  0  0  0  0
    6.9305  -10.8421   25.7373 C   0  0  0  0  0  0  0  0  0  0  0  0
    8.0759  -11.3688   25.1696 C   0  0  0  0  0  0  0  0  0  0  0  0
    8.2122  -12.7278   25.1255 C   0  0  0  0  0  0  0  0  0  0  0  0
    7.2006  -13.5250   25.6491 C   0  0  0  0  0  0  0  0  0  0  0  0
    8.5606  -17.3294   23.3914 C   0  0  0  0  0  0  0  0  0  0  0  0
    8.7207  -18.5158   23.7363 O   0  0  0  0  0  0  0  0  0  0  0  0
    9.3948  -16.7291   22.4306 N   0  0  0  0  0  0  0  0  0  0  0  0
   10.6426  -17.3454   21.9672 C   0  0  1  0  0  0  0  0  0  0  0  0
   11.1545  -16.3777   20.8891 C   0  0  0  0  0  0  0  0  0  0  0  0
   12.3853  -16.8051   20.2349 C   0  0  0  0  0  0  0  0  0  0  0  0
   12.9421  -17.8999   20.6089 O   0  0  0  0  0  0  0  0  0  0  0  0
   11.6402  -17.3666   23.0482 C   0  0  0  0  0  0  0  0  0  0  0  0
   11.5152  -16.5337   24.0179 O   0  0  0  0  0  0  0  0  0  0  0  0
   13.0291  -16.1281   19.2234 O   0  0  0  0  0  0  0  0  0  0  0  0
   12.7502  -18.2447   23.1244 N   0  0  0  0  0  0  0  0  0  0  0  0
   13.3305  -18.6131   24.4268 C   0  0  1  0  0  0  0  0  0  0  0  0
   12.3219  -19.5062   25.1573 C   0  0  0  0  0  0  0  0  0  0  0  0
   12.8441  -20.0989   26.3853 C   0  0  0  0  0  0  0  0  0  0  0  0
   13.2481  -21.2733   26.4334 O   0  0  0  0  0  0  0  0  0  0  0  0
   14.6006  -19.2974   24.1662 C   0  0  0  0  0  0  0  0  0  0  0  0
   14.8547  -19.8558   23.0940 O   0  0  0  0  0  0  0  0  0  0  0  0
   12.9134  -19.3666   27.5683 O   0  0  0  0  0  0  0  0  0  0  0  0
   15.5911  -19.3400   25.1484 O   0  0  0  0  0  0  0  0  0  0  0  0
  2  1  1  1
  2 13  1  0
  2  3  1  0
  3  4  1  0
  4  5  2  0
  5  6  1  0
  7  6  1  0
  8  7  2  0
  9  8  1  0
 10 11  1  0
 10  9  2  0
 11 12  2  0
 12  4  1  0
 12  7  1  0
 13 15  1  0
 14 13  2  0
 15 16  1  0
 16 17  1  6
 17 18  1  0
 18 19  2  0
 18 22  1  0
 20 16  1  0
 21 20  2  0
 23 20  1  0
 24 23  1  0
 24 25  1  6
 26 25  1  0
 26 27  2  0
 28 24  1  0
 28 31  1  0
 29 28  2  0
 30 26  1  0
M  END
$$$$
