WDD.pdb
     RDKit          3D

 31 32  0  0  1  0  0  0  0  0999 V2000
    6.5041  -17.5392   24.4702 N   0  0  0  0  0  0  0  0  0  0  0  0
    6.9431  -17.0548   23.1498 C   0  0  1  0  0  0  0  0  0  0  0  0
    7.0019  -15.5265   23.1816 C   0  0  0  0  0  0  0  0  0  0  0  0
    6.8724  -15.1211   24.6089 C   0  0  0  0  0  0  0  0  0  0  0  0
    6.5737  -15.9578   25.6743 C   0  0  0  0  0  0  0  0  0  0  0  0
    6.5372  -15.2111   26.7652 N   0  0  0  0  0  0  0  0  0  0  0  0
    6.8004  -13.9190   26.4543 C   0  0  0  0  0  0  0  0  0  0  0  0
    6.8905  -12.7421   27.1818 C   0  0  0  0  0  0  0  0  0  0  0  0
    7.1851  -11.5787   26.5250 C   0  0  0  0  0  0  0  0  0  0  0  0
    7.3990  -11.5136   25.1605 C   0  0  0  0  0  0  0  0  0  0  0  0
    7.3123  -12.6679   24.4344 C   0  0  0  0  0  0  0  0  0  0  0  0
    7.0137  -13.8569   25.0901 C   0  0  0  0  0  0  0  0  0  0  0  0
    8.3373  -17.4991   22.9195 C   0  0  0  0  0  0  0  0  0  0  0  0
    8.8179  -18.3741   23.6650 O   0  0  0  0  0  0  0  0  0  0  0  0
    9.0916  -16.9355   21.8741 N   0  0  0  0  0  0  0  0  0  0  0  0
   10.4038  -17.4543   21.4735 C   0  0  1  0  0  0  0  0  0  0  0  0
   10.7684  -16.6205   20.2355 C   0  0  0  0  0  0  0  0  0  0  0  0
   10.2494  -17.1513   18.9807 C   0  0  0  0  0  0  0  0  0  0  0  0
   10.2310  -18.4226   18.8020 O   0  0  0  0  0  0  0  0  0  0  0  0
   11.4097  -17.1678   22.5081 C   0  0  0  0  0  0  0  0  0  0  0  0
   11.4228  -16.0028   23.0484 O   0  0  0  0  0  0  0  0  0  0  0  0
    9.7617  -16.3988   17.9358 O   0  0  0  0  0  0  0  0  0  0  0  0
   12.3859  -18.0809   22.9796 N   0  0  0  0  0  0  0  0  0  0  0  0
   13.2479  -17.7372   24.1231 C   0  0  1  0  0  0  0  0  0  0  0  0
   13.4485  -19.0047   24.9609 C   0  0  0  0  0  0  0  0  0  0  0  0
   14.4177  -18.8470   26.0414 C   0  0  0  0  0  0  0  0  0  0  0  0
   15.5865  -19.2591   25.9472 O   0  0  0  0  0  0  0  0  0  0  0  0
   14.5077  -17.2151   23.5847 C   0  0  0  0  0  0  0  0  0  0  0  0
   15.3025  -16.5523   24.2592 O   0  0  0  0  0  0  0  0  0  0  0  0
   14.0716  -18.2211   27.2368 O   0  0  0  0  0  0  0  0  0  0  0  0
   14.8591  -17.4578   22.2561 O   0  0  0  0  0  0  0  0  0  0  0  0
  2  1  1  1
  2 13  1  0
  2  3  1  0
  3  4  1  0
  4  5  2  0
  5  6  1  0
  7  6  1  0
  8  7  2  0
  9  8  1  0
 10 11  1  0
 10  9  2  0
 11 12  2  0
 12  4  1  0
 12  7  1  0
 13 15  1  0
 14 13  2  0
 15 16  1  0
 16 17  1  6
 17 18  1  0
 18 19  2  0
 18 22  1  0
 20 16  1  0
 21 20  2  0
 23 20  1  0
 24 23  1  0
 24 25  1  6
 26 25  1  0
 26 27  2  0
 28 24  1  0
 28 31  1  0
 29 28  2  0
 30 26  1  0
M  END
$$$$
