WDD.pdb
     RDKit          3D

 31 32  0  0  1  0  0  0  0  0999 V2000
    6.7908  -17.3105   23.9059 N   0  0  0  0  0  0  0  0  0  0  0  0
    7.9148  -16.4182   23.5723 C   0  0  1  0  0  0  0  0  0  0  0  0
    8.5407  -15.9091   24.8721 C   0  0  0  0  0  0  0  0  0  0  0  0
    7.5192  -15.0501   25.5331 C   0  0  0  0  0  0  0  0  0  0  0  0
    6.3619  -15.4883   26.1601 C   0  0  0  0  0  0  0  0  0  0  0  0
    5.7229  -14.4185   26.6029 N   0  0  0  0  0  0  0  0  0  0  0  0
    6.4174  -13.2982   26.2899 C   0  0  0  0  0  0  0  0  0  0  0  0
    6.2226  -11.9417   26.5013 C   0  0  0  0  0  0  0  0  0  0  0  0
    7.1577  -11.0583   26.0357 C   0  0  0  0  0  0  0  0  0  0  0  0
    8.2975  -11.4502   25.3581 C   0  0  0  0  0  0  0  0  0  0  0  0
    8.4987  -12.7847   25.1445 C   0  0  0  0  0  0  0  0  0  0  0  0
    7.5559  -13.6929   25.6128 C   0  0  0  0  0  0  0  0  0  0  0  0
    8.9737  -17.2143   22.9094 C   0  0  0  0  0  0  0  0  0  0  0  0
    9.1162  -18.4089   23.2334 O   0  0  0  0  0  0  0  0  0  0  0  0
    9.7941  -16.6193   21.9336 N   0  0  0  0  0  0  0  0  0  0  0  0
   10.9157  -17.3238   21.3032 C   0  0  1  0  0  0  0  0  0  0  0  0
   11.1361  -16.5635   19.9862 C   0  0  0  0  0  0  0  0  0  0  0  0
   10.1785  -16.8913   18.9368 C   0  0  0  0  0  0  0  0  0  0  0  0
    9.7335  -15.9515   18.1835 O   0  0  0  0  0  0  0  0  0  0  0  0
   12.1379  -17.1725   22.1078 C   0  0  0  0  0  0  0  0  0  0  0  0
   12.7757  -16.0590   22.0554 O   0  0  0  0  0  0  0  0  0  0  0  0
    9.6894  -18.1496   18.6661 O   0  0  0  0  0  0  0  0  0  0  0  0
   12.6878  -18.1626   22.9601 N   0  0  0  0  0  0  0  0  0  0  0  0
   13.9217  -17.9006   23.7201 C   0  0  1  0  0  0  0  0  0  0  0  0
   14.1830  -16.3908   23.6900 C   0  0  0  0  0  0  0  0  0  0  0  0
   15.4924  -16.0321   23.1529 C   0  0  0  0  0  0  0  0  0  0  0  0
   16.3848  -15.5355   23.8612 O   0  0  0  0  0  0  0  0  0  0  0  0
   13.7183  -18.4081   25.0804 C   0  0  0  0  0  0  0  0  0  0  0  0
   12.6057  -18.4734   25.6131 O   0  0  0  0  0  0  0  0  0  0  0  0
   15.8020  -16.2331   21.8096 O   0  0  0  0  0  0  0  0  0  0  0  0
   14.8056  -18.8467   25.8374 O   0  0  0  0  0  0  0  0  0  0  0  0
  2  1  1  1
  2 13  1  0
  2  3  1  0
  3  4  1  0
  4  5  2  0
  5  6  1  0
  7  6  1  0
  8  7  2  0
  9  8  1  0
 10 11  1  0
 10  9  2  0
 11 12  2  0
 12  4  1  0
 12  7  1  0
 13 15  1  0
 14 13  2  0
 15 16  1  0
 16 17  1  6
 17 18  1  0
 18 19  2  0
 18 22  1  0
 20 16  1  0
 21 20  2  0
 23 20  1  0
 24 23  1  0
 24 25  1  1
 26 25  1  0
 26 27  2  0
 28 24  1  0
 28 31  1  0
 29 28  2  0
 30 26  1  0
M  END
$$$$
