WDD.pdb
     RDKit          3D

 31 32  0  0  1  0  0  0  0  0999 V2000
    6.7486  -17.7912   24.8675 N   0  0  0  0  0  0  0  0  0  0  0  0
    7.4409  -16.7507   24.0873 C   0  0  1  0  0  0  0  0  0  0  0  0
    8.1411  -15.7949   25.0551 C   0  0  0  0  0  0  0  0  0  0  0  0
    7.0852  -14.9160   25.6303 C   0  0  0  0  0  0  0  0  0  0  0  0
    5.9249  -15.3365   26.2639 C   0  0  0  0  0  0  0  0  0  0  0  0
    5.2511  -14.2537   26.6139 N   0  0  0  0  0  0  0  0  0  0  0  0
    5.9257  -13.1420   26.2338 C   0  0  0  0  0  0  0  0  0  0  0  0
    5.6943  -11.7791   26.3410 C   0  0  0  0  0  0  0  0  0  0  0  0
    6.6184  -10.9086   25.8311 C   0  0  0  0  0  0  0  0  0  0  0  0
    7.7819  -11.3200   25.2076 C   0  0  0  0  0  0  0  0  0  0  0  0
    8.0192  -12.6611   25.0966 C   0  0  0  0  0  0  0  0  0  0  0  0
    7.0880  -13.5562   25.6109 C   0  0  0  0  0  0  0  0  0  0  0  0
    8.5265  -17.3860   23.3049 C   0  0  0  0  0  0  0  0  0  0  0  0
    9.0558  -18.4233   23.7478 O   0  0  0  0  0  0  0  0  0  0  0  0
    8.9403  -16.8179   22.0861 N   0  0  0  0  0  0  0  0  0  0  0  0
   10.0768  -17.3342   21.3156 C   0  0  1  0  0  0  0  0  0  0  0  0
   10.0383  -16.5222   20.0117 C   0  0  0  0  0  0  0  0  0  0  0  0
   10.9039  -17.0380   18.9580 C   0  0  0  0  0  0  0  0  0  0  0  0
   10.8547  -16.5015   17.7926 O   0  0  0  0  0  0  0  0  0  0  0  0
   11.3446  -17.0193   21.9921 C   0  0  0  0  0  0  0  0  0  0  0  0
   11.5251  -15.8288   22.4388 O   0  0  0  0  0  0  0  0  0  0  0  0
   11.7971  -18.0770   19.0949 O   0  0  0  0  0  0  0  0  0  0  0  0
   12.4091  -17.9302   22.2070 N   0  0  0  0  0  0  0  0  0  0  0  0
   13.5136  -17.5948   23.1214 C   0  0  1  0  0  0  0  0  0  0  0  0
   13.8564  -18.8517   23.9285 C   0  0  0  0  0  0  0  0  0  0  0  0
   14.2068  -18.5788   25.3194 C   0  0  0  0  0  0  0  0  0  0  0  0
   14.4443  -17.4296   25.7287 O   0  0  0  0  0  0  0  0  0  0  0  0
   14.6377  -17.1291   22.3035 C   0  0  0  0  0  0  0  0  0  0  0  0
   15.7157  -16.7685   22.7870 O   0  0  0  0  0  0  0  0  0  0  0  0
   14.2907  -19.6048   26.2580 O   0  0  0  0  0  0  0  0  0  0  0  0
   14.5225  -17.0779   20.9136 O   0  0  0  0  0  0  0  0  0  0  0  0
  2  1  1  1
  2 13  1  0
  2  3  1  0
  3  4  1  0
  4  5  2  0
  5  6  1  0
  7  6  1  0
  8  7  2  0
  9  8  1  0
 10 11  1  0
 10  9  2  0
 11 12  2  0
 12  4  1  0
 12  7  1  0
 13 15  1  0
 14 13  2  0
 15 16  1  0
 16 17  1  6
 17 18  1  0
 18 19  2  0
 18 22  1  0
 20 16  1  0
 21 20  2  0
 23 20  1  0
 24 23  1  0
 24 25  1  6
 26 25  1  0
 26 27  2  0
 28 24  1  0
 28 31  1  0
 29 28  2  0
 30 26  1  0
M  END
$$$$
