WDD.pdb
     RDKit          3D

 31 32  0  0  1  0  0  0  0  0999 V2000
    6.6283  -17.6682   24.9746 N   0  0  0  0  0  0  0  0  0  0  0  0
    7.4768  -16.8368   24.1032 C   0  0  1  0  0  0  0  0  0  0  0  0
    8.2200  -15.8173   24.9684 C   0  0  0  0  0  0  0  0  0  0  0  0
    7.1836  -14.9614   25.6098 C   0  0  0  0  0  0  0  0  0  0  0  0
    5.9410  -15.3800   26.0628 C   0  0  0  0  0  0  0  0  0  0  0  0
    5.3202  -14.3192   26.5508 N   0  0  0  0  0  0  0  0  0  0  0  0
    6.1085  -13.2235   26.4343 C   0  0  0  0  0  0  0  0  0  0  0  0
    5.9705  -11.8854   26.7703 C   0  0  0  0  0  0  0  0  0  0  0  0
    7.0007  -11.0260   26.5022 C   0  0  0  0  0  0  0  0  0  0  0  0
    8.1834  -11.4248   25.9073 C   0  0  0  0  0  0  0  0  0  0  0  0
    8.3292  -12.7414   25.5721 C   0  0  0  0  0  0  0  0  0  0  0  0
    7.2897  -13.6252   25.8395 C   0  0  0  0  0  0  0  0  0  0  0  0
    8.5298  -17.6921   23.5081 C   0  0  0  0  0  0  0  0  0  0  0  0
    8.7346  -18.8187   23.9991 O   0  0  0  0  0  0  0  0  0  0  0  0
    9.2753  -17.2279   22.4090 N   0  0  0  0  0  0  0  0  0  0  0  0
   10.2501  -18.0648   21.7012 C   0  0  1  0  0  0  0  0  0  0  0  0
   10.5038  -17.3068   20.3889 C   0  0  0  0  0  0  0  0  0  0  0  0
   11.3975  -17.9924   19.4633 C   0  0  0  0  0  0  0  0  0  0  0  0
   12.0239  -17.3055   18.5777 O   0  0  0  0  0  0  0  0  0  0  0  0
   11.5233  -18.1084   22.4368 C   0  0  0  0  0  0  0  0  0  0  0  0
   12.4492  -18.8943   22.0190 O   0  0  0  0  0  0  0  0  0  0  0  0
   11.6432  -19.3471   19.4454 O   0  0  0  0  0  0  0  0  0  0  0  0
   11.8333  -17.3419   23.5881 N   0  0  0  0  0  0  0  0  0  0  0  0
   13.0519  -17.6152   24.3685 C   0  0  1  0  0  0  0  0  0  0  0  0
   13.9534  -16.3788   24.2844 C   0  0  0  0  0  0  0  0  0  0  0  0
   14.5492  -16.1750   22.9671 C   0  0  0  0  0  0  0  0  0  0  0  0
   14.4403  -17.0122   22.0550 O   0  0  0  0  0  0  0  0  0  0  0  0
   12.6379  -17.9156   25.7425 C   0  0  0  0  0  0  0  0  0  0  0  0
   11.4809  -17.7561   26.1450 O   0  0  0  0  0  0  0  0  0  0  0  0
   15.2726  -15.0217   22.6718 O   0  0  0  0  0  0  0  0  0  0  0  0
   13.5634  -18.4059   26.6647 O   0  0  0  0  0  0  0  0  0  0  0  0
  2  1  1  1
  2 13  1  0
  2  3  1  0
  3  4  1  0
  4  5  2  0
  5  6  1  0
  7  6  1  0
  8  7  2  0
  9  8  1  0
 10 11  1  0
 10  9  2  0
 11 12  2  0
 12  4  1  0
 12  7  1  0
 13 15  1  0
 14 13  2  0
 15 16  1  0
 16 17  1  6
 17 18  1  0
 18 19  2  0
 18 22  1  0
 20 16  1  0
 21 20  2  0
 23 20  1  0
 24 23  1  0
 24 25  1  1
 26 25  1  0
 26 27  2  0
 28 24  1  0
 28 31  1  0
 29 28  2  0
 30 26  1  0
M  END
$$$$
