WDD.pdb
     RDKit          3D

 31 32  0  0  1  0  0  0  0  0999 V2000
    6.5647  -17.5417   24.4783 N   0  0  0  0  0  0  0  0  0  0  0  0
    7.5264  -16.6701   23.7810 C   0  0  1  0  0  0  0  0  0  0  0  0
    8.4422  -16.0191   24.8192 C   0  0  0  0  0  0  0  0  0  0  0  0
    7.5978  -15.0797   25.6082 C   0  0  0  0  0  0  0  0  0  0  0  0
    6.5188  -15.4237   26.4095 C   0  0  0  0  0  0  0  0  0  0  0  0
    6.0341  -14.3049   26.9214 N   0  0  0  0  0  0  0  0  0  0  0  0
    6.7541  -13.2430   26.4860 C   0  0  0  0  0  0  0  0  0  0  0  0
    6.6936  -11.8739   26.6972 C   0  0  0  0  0  0  0  0  0  0  0  0
    7.6104  -11.0678   26.0798 C   0  0  0  0  0  0  0  0  0  0  0  0
    8.6034  -11.5506   25.2475 C   0  0  0  0  0  0  0  0  0  0  0  0
    8.6715  -12.8984   25.0327 C   0  0  0  0  0  0  0  0  0  0  0  0
    7.7456  -13.7285   25.6545 C   0  0  0  0  0  0  0  0  0  0  0  0
    8.4129  -17.5127   22.9452 C   0  0  0  0  0  0  0  0  0  0  0  0
    8.6136  -18.6938   23.2875 O   0  0  0  0  0  0  0  0  0  0  0  0
    9.0087  -16.9759   21.7893 N   0  0  0  0  0  0  0  0  0  0  0  0
    9.9065  -17.7512   20.9264 C   0  0  1  0  0  0  0  0  0  0  0  0
    9.8654  -17.0040   19.5844 C   0  0  0  0  0  0  0  0  0  0  0  0
    8.5787  -17.0670   18.9019 C   0  0  0  0  0  0  0  0  0  0  0  0
    7.8573  -18.1217   19.0280 O   0  0  0  0  0  0  0  0  0  0  0  0
   11.2886  -17.6825   21.4255 C   0  0  0  0  0  0  0  0  0  0  0  0
   12.2128  -18.2803   20.7636 O   0  0  0  0  0  0  0  0  0  0  0  0
    8.0446  -16.0750   18.1104 O   0  0  0  0  0  0  0  0  0  0  0  0
   11.7068  -16.9975   22.5939 N   0  0  0  0  0  0  0  0  0  0  0  0
   13.0821  -17.1427   23.0998 C   0  0  1  0  0  0  0  0  0  0  0  0
   13.8222  -15.8262   22.8400 C   0  0  0  0  0  0  0  0  0  0  0  0
   15.2279  -16.0026   22.4867 C   0  0  0  0  0  0  0  0  0  0  0  0
   15.7902  -17.1096   22.5424 O   0  0  0  0  0  0  0  0  0  0  0  0
   12.9953  -17.4656   24.5273 C   0  0  0  0  0  0  0  0  0  0  0  0
   12.2648  -16.8510   25.3113 O   0  0  0  0  0  0  0  0  0  0  0  0
   16.0080  -14.9274   22.0673 O   0  0  0  0  0  0  0  0  0  0  0  0
   13.7558  -18.5072   25.0604 O   0  0  0  0  0  0  0  0  0  0  0  0
  2  1  1  1
  2 13  1  0
  2  3  1  0
  3  4  1  0
  4  5  2  0
  5  6  1  0
  7  6  1  0
  8  7  2  0
  9  8  1  0
 10 11  1  0
 10  9  2  0
 11 12  2  0
 12  4  1  0
 12  7  1  0
 13 15  1  0
 14 13  2  0
 15 16  1  0
 16 17  1  6
 17 18  1  0
 18 19  2  0
 18 22  1  0
 20 16  1  0
 21 20  2  0
 23 20  1  0
 24 23  1  0
 24 25  1  1
 26 25  1  0
 26 27  2  0
 28 24  1  0
 28 31  1  0
 29 28  2  0
 30 26  1  0
M  END
$$$$
