WDD.pdb
     RDKit          3D

 31 32  0  0  1  0  0  0  0  0999 V2000
    6.5265  -17.8658   24.5909 N   0  0  0  0  0  0  0  0  0  0  0  0
    7.2398  -16.7651   23.9199 C   0  0  1  0  0  0  0  0  0  0  0  0
    8.1354  -16.0639   24.9429 C   0  0  0  0  0  0  0  0  0  0  0  0
    7.2800  -15.0761   25.6574 C   0  0  0  0  0  0  0  0  0  0  0  0
    6.2096  -15.3698   26.4896 C   0  0  0  0  0  0  0  0  0  0  0  0
    5.7099  -14.2204   26.9116 N   0  0  0  0  0  0  0  0  0  0  0  0
    6.4120  -13.1869   26.3877 C   0  0  0  0  0  0  0  0  0  0  0  0
    6.3315  -11.8062   26.4874 C   0  0  0  0  0  0  0  0  0  0  0  0
    7.2335  -11.0394   25.8019 C   0  0  0  0  0  0  0  0  0  0  0  0
    8.2304  -11.5734   25.0064 C   0  0  0  0  0  0  0  0  0  0  0  0
    8.3181  -12.9330   24.9013 C   0  0  0  0  0  0  0  0  0  0  0  0
    7.4075  -13.7236   25.5932 C   0  0  0  0  0  0  0  0  0  0  0  0
    8.1634  -17.3397   22.9144 C   0  0  0  0  0  0  0  0  0  0  0  0
    8.7885  -18.3788   23.2003 O   0  0  0  0  0  0  0  0  0  0  0  0
    8.3203  -16.7134   21.6644 N   0  0  0  0  0  0  0  0  0  0  0  0
    9.3238  -17.1406   20.6834 C   0  0  1  0  0  0  0  0  0  0  0  0
    8.9699  -16.3402   19.4205 C   0  0  0  0  0  0  0  0  0  0  0  0
    9.5633  -16.8604   18.1947 C   0  0  0  0  0  0  0  0  0  0  0  0
   10.3943  -17.8363   18.2699 O   0  0  0  0  0  0  0  0  0  0  0  0
   10.6693  -16.7223   21.1062 C   0  0  0  0  0  0  0  0  0  0  0  0
   10.8103  -15.5743   21.6644 O   0  0  0  0  0  0  0  0  0  0  0  0
    9.3118  -16.3928   16.9242 O   0  0  0  0  0  0  0  0  0  0  0  0
   11.8525  -17.4884   20.9562 N   0  0  0  0  0  0  0  0  0  0  0  0
   12.9632  -17.3529   21.9136 C   0  0  1  0  0  0  0  0  0  0  0  0
   12.5629  -18.0727   23.2060 C   0  0  0  0  0  0  0  0  0  0  0  0
   13.4943  -17.8588   24.3098 C   0  0  0  0  0  0  0  0  0  0  0  0
   13.8047  -18.7673   25.0992 O   0  0  0  0  0  0  0  0  0  0  0  0
   14.1554  -17.9373   21.2918 C   0  0  0  0  0  0  0  0  0  0  0  0
   15.2713  -17.4111   21.3543 O   0  0  0  0  0  0  0  0  0  0  0  0
   14.0821  -16.6149   24.5286 O   0  0  0  0  0  0  0  0  0  0  0  0
   14.0650  -19.1407   20.5909 O   0  0  0  0  0  0  0  0  0  0  0  0
  2  1  1  1
  2 13  1  0
  2  3  1  0
  3  4  1  0
  4  5  2  0
  5  6  1  0
  7  6  1  0
  8  7  2  0
  9  8  1  0
 10 11  1  0
 10  9  2  0
 11 12  2  0
 12  4  1  0
 12  7  1  0
 13 15  1  0
 14 13  2  0
 15 16  1  0
 16 17  1  6
 17 18  1  0
 18 19  2  0
 18 22  1  0
 20 16  1  0
 21 20  2  0
 23 20  1  0
 24 23  1  0
 24 25  1  1
 26 25  1  0
 26 27  2  0
 28 24  1  0
 28 31  1  0
 29 28  2  0
 30 26  1  0
M  END
$$$$
