WDD.pdb
     RDKit          3D

 31 32  0  0  1  0  0  0  0  0999 V2000
    8.8597  -14.9257   22.1869 N   0  0  0  0  0  0  0  0  0  0  0  0
    9.0357  -15.4060   23.5686 C   0  0  1  0  0  0  0  0  0  0  0  0
    7.7614  -16.1326   24.0025 C   0  0  0  0  0  0  0  0  0  0  0  0
    7.0466  -15.2235   24.9410 C   0  0  0  0  0  0  0  0  0  0  0  0
    6.0798  -15.5944   25.8641 C   0  0  0  0  0  0  0  0  0  0  0  0
    5.6871  -14.4965   26.4880 N   0  0  0  0  0  0  0  0  0  0  0  0
    6.3595  -13.4224   26.0086 C   0  0  0  0  0  0  0  0  0  0  0  0
    6.3507  -12.0645   26.2889 C   0  0  0  0  0  0  0  0  0  0  0  0
    7.1894  -11.2392   25.5910 C   0  0  0  0  0  0  0  0  0  0  0  0
    8.0531  -11.6917   24.6107 C   0  0  0  0  0  0  0  0  0  0  0  0
    8.0692  -13.0282   24.3267 C   0  0  0  0  0  0  0  0  0  0  0  0
    7.2218  -13.8777   25.0291 C   0  0  0  0  0  0  0  0  0  0  0  0
   10.1014  -16.4348   23.5826 C   0  0  0  0  0  0  0  0  0  0  0  0
   10.1579  -17.2253   24.5440 O   0  0  0  0  0  0  0  0  0  0  0  0
   11.0240  -16.5063   22.5229 N   0  0  0  0  0  0  0  0  0  0  0  0
   12.0958  -17.5064   22.4703 C   0  0  1  0  0  0  0  0  0  0  0  0
   12.8568  -17.1647   21.1799 C   0  0  0  0  0  0  0  0  0  0  0  0
   12.2375  -17.6788   19.9643 C   0  0  0  0  0  0  0  0  0  0  0  0
   11.7769  -18.8773   19.9584 O   0  0  0  0  0  0  0  0  0  0  0  0
   13.0289  -17.3222   23.5927 C   0  0  0  0  0  0  0  0  0  0  0  0
   13.3838  -16.1291   23.9090 O   0  0  0  0  0  0  0  0  0  0  0  0
   12.0937  -16.9828   18.7850 O   0  0  0  0  0  0  0  0  0  0  0  0
   13.5822  -18.3630   24.3799 N   0  0  0  0  0  0  0  0  0  0  0  0
   14.4578  -18.0572   25.5238 C   0  0  1  0  0  0  0  0  0  0  0  0
   14.2319  -19.1327   26.5920 C   0  0  0  0  0  0  0  0  0  0  0  0
   12.8596  -19.1892   27.0872 C   0  0  0  0  0  0  0  0  0  0  0  0
   12.2270  -18.1667   27.4019 O   0  0  0  0  0  0  0  0  0  0  0  0
   15.8381  -18.0376   25.0301 C   0  0  0  0  0  0  0  0  0  0  0  0
   16.1418  -18.3479   23.8736 O   0  0  0  0  0  0  0  0  0  0  0  0
   12.1923  -20.4038   27.2296 O   0  0  0  0  0  0  0  0  0  0  0  0
   16.8818  -17.6562   25.8744 O   0  0  0  0  0  0  0  0  0  0  0  0
  2  1  1  6
  2 13  1  0
  2  3  1  0
  3  4  1  0
  4  5  2  0
  5  6  1  0
  7  6  1  0
  8  7  2  0
  9  8  1  0
 10 11  1  0
 10  9  2  0
 11 12  2  0
 12  4  1  0
 12  7  1  0
 13 15  1  0
 14 13  2  0
 15 16  1  0
 16 17  1  6
 17 18  1  0
 18 19  2  0
 18 22  1  0
 20 16  1  0
 21 20  2  0
 23 20  1  0
 24 23  1  0
 24 25  1  1
 26 25  1  0
 26 27  2  0
 28 24  1  0
 28 31  1  0
 29 28  2  0
 30 26  1  0
M  END
$$$$
