EWA.pdb
     RDKit          3D

 29 30  0  0  1  0  0  0  0  0999 V2000
   29.0763  -19.8454  -14.2345 N   0  0  0  0  0  0  0  0  0  0  0  0
   27.9177  -20.5609  -14.7007 C   0  0  1  0  0  0  0  0  0  0  0  0
   28.2975  -21.7604  -15.5493 C   0  0  0  0  0  0  0  0  0  0  0  0
   29.2240  -21.3457  -16.6846 C   0  0  0  0  0  0  0  0  0  0  0  0
   28.5666  -20.2330  -17.4197 C   0  0  0  0  0  0  0  0  0  0  0  0
   27.4433  -20.3483  -17.9420 O   0  0  0  0  0  0  0  0  0  0  0  0
   27.1440  -21.0876  -13.5439 C   0  0  0  0  0  0  0  0  0  0  0  0
   26.1946  -21.8842  -13.7324 O   0  0  0  0  0  0  0  0  0  0  0  0
   29.2207  -19.0116  -17.5359 O   0  0  0  0  0  0  0  0  0  0  0  0
   27.4807  -20.6899  -12.2341 N   0  0  0  0  0  0  0  0  0  0  0  0
   26.6240  -21.0818  -11.1012 C   0  0  1  0  0  0  0  0  0  0  0  0
   27.4207  -20.7934   -9.8815 C   0  0  0  0  0  0  0  0  0  0  0  0
   26.6922  -20.6258   -8.6263 C   0  0  0  0  0  0  0  0  0  0  0  0
   25.3188  -20.6792   -8.3959 C   0  0  0  0  0  0  0  0  0  0  0  0
   25.1018  -20.4635   -7.0885 N   0  0  0  0  0  0  0  0  0  0  0  0
   26.2722  -20.2700   -6.4437 C   0  0  0  0  0  0  0  0  0  0  0  0
   26.5927  -20.0340   -5.1279 C   0  0  0  0  0  0  0  0  0  0  0  0
   27.9207  -19.8948   -4.7514 C   0  0  0  0  0  0  0  0  0  0  0  0
   28.8934  -19.9947   -5.7001 C   0  0  0  0  0  0  0  0  0  0  0  0
   28.5964  -20.2271   -7.0052 C   0  0  0  0  0  0  0  0  0  0  0  0
   27.2574  -20.3662   -7.3750 C   0  0  0  0  0  0  0  0  0  0  0  0
   25.3006  -20.4846  -11.2180 C   0  0  0  0  0  0  0  0  0  0  0  0
   25.1780  -19.2133  -11.2170 O   0  0  0  0  0  0  0  0  0  0  0  0
   22.3359  -21.3489  -12.9056 C   0  0  0  0  0  0  0  0  0  0  0  0
   22.8554  -20.6303  -11.6298 C   0  0  2  0  0  0  0  0  0  0  0  0
   24.1277  -21.2689  -11.3435 N   0  0  0  0  0  0  0  0  0  0  0  0
   21.8145  -20.8960  -10.6165 C   0  0  0  0  0  0  0  0  0  0  0  0
   20.8183  -20.1885  -10.4204 O   0  0  0  0  0  0  0  0  0  0  0  0
   21.9644  -22.0248   -9.8241 O   0  0  0  0  0  0  0  0  0  0  0  0
  2  3  1  0
  2  1  1  1
  4  5  1  0
  4  3  1  0
  5  6  2  0
  7  2  1  0
  8  7  2  0
  9  5  1  0
 10  7  1  0
 11 10  1  0
 11 12  1  1
 12 13  1  0
 13 14  2  0
 14 15  1  0
 16 15  1  0
 17 16  2  0
 18 17  1  0
 19 20  1  0
 19 18  2  0
 20 21  2  0
 21 13  1  0
 21 16  1  0
 22 26  1  0
 22 11  1  0
 23 22  2  0
 25 24  1  6
 25 27  1  0
 25 26  1  0
 27 29  1  0
 28 27  2  0
M  END
$$$$
