EWA.pdb
     RDKit          3D

 29 30  0  0  1  0  0  0  0  0999 V2000
   28.3099  -21.7326  -15.3713 N   0  0  0  0  0  0  0  0  0  0  0  0
   28.4981  -20.7914  -14.2986 C   0  0  1  0  0  0  0  0  0  0  0  0
   28.1578  -19.3747  -14.7233 C   0  0  0  0  0  0  0  0  0  0  0  0
   27.1958  -19.3823  -15.9038 C   0  0  0  0  0  0  0  0  0  0  0  0
   27.9680  -19.7746  -17.1124 C   0  0  0  0  0  0  0  0  0  0  0  0
   29.0798  -19.2862  -17.3831 O   0  0  0  0  0  0  0  0  0  0  0  0
   27.5937  -21.1232  -13.1645 C   0  0  0  0  0  0  0  0  0  0  0  0
   26.5460  -21.7812  -13.3672 O   0  0  0  0  0  0  0  0  0  0  0  0
   27.4394  -20.7220  -17.9820 O   0  0  0  0  0  0  0  0  0  0  0  0
   27.9169  -20.6971  -11.8604 N   0  0  0  0  0  0  0  0  0  0  0  0
   26.9877  -20.9591  -10.7473 C   0  0  1  0  0  0  0  0  0  0  0  0
   27.7143  -20.5511   -9.5180 C   0  0  0  0  0  0  0  0  0  0  0  0
   26.9469  -20.4750   -8.2771 C   0  0  0  0  0  0  0  0  0  0  0  0
   25.5929  -20.7288   -8.0668 C   0  0  0  0  0  0  0  0  0  0  0  0
   25.3232  -20.5283   -6.7668 N   0  0  0  0  0  0  0  0  0  0  0  0
   26.4402  -20.1532   -6.1077 C   0  0  0  0  0  0  0  0  0  0  0  0
   26.6989  -19.8525   -4.7915 C   0  0  0  0  0  0  0  0  0  0  0  0
   27.9846  -19.5117   -4.3972 C   0  0  0  0  0  0  0  0  0  0  0  0
   28.9779  -19.4799   -5.3291 C   0  0  0  0  0  0  0  0  0  0  0  0
   28.7419  -19.7734   -6.6343 C   0  0  0  0  0  0  0  0  0  0  0  0
   27.4452  -20.1157   -7.0220 C   0  0  0  0  0  0  0  0  0  0  0  0
   25.6833  -20.3653  -11.0070 C   0  0  0  0  0  0  0  0  0  0  0  0
   25.5840  -19.1020  -11.1672 O   0  0  0  0  0  0  0  0  0  0  0  0
   22.6984  -21.3202  -12.6369 C   0  0  0  0  0  0  0  0  0  0  0  0
   23.2393  -20.5115  -11.4255 C   0  0  2  0  0  0  0  0  0  0  0  0
   24.5044  -21.1452  -11.0992 N   0  0  0  0  0  0  0  0  0  0  0  0
   22.2033  -20.6806  -10.3869 C   0  0  0  0  0  0  0  0  0  0  0  0
   22.3304  -21.3633   -9.3626 O   0  0  0  0  0  0  0  0  0  0  0  0
   20.9953  -20.0242  -10.5732 O   0  0  0  0  0  0  0  0  0  0  0  0
  2  3  1  0
  2  1  1  6
  4  5  1  0
  4  3  1  0
  5  6  2  0
  7  2  1  0
  8  7  2  0
  9  5  1  0
 10  7  1  0
 11 10  1  0
 11 12  1  1
 12 13  1  0
 13 14  2  0
 14 15  1  0
 16 15  1  0
 17 16  2  0
 18 17  1  0
 19 20  1  0
 19 18  2  0
 20 21  2  0
 21 13  1  0
 21 16  1  0
 22 26  1  0
 22 11  1  0
 23 22  2  0
 25 24  1  6
 25 27  1  0
 25 26  1  0
 27 29  1  0
 28 27  2  0
M  END
$$$$
