EWA.pdb
     RDKit          3D

 29 30  0  0  1  0  0  0  0  0999 V2000
   28.2749  -21.1785  -14.4136 N   0  0  0  0  0  0  0  0  0  0  0  0
   27.4676  -20.1940  -13.7420 C   0  0  1  0  0  0  0  0  0  0  0  0
   26.5122  -19.5004  -14.6956 C   0  0  0  0  0  0  0  0  0  0  0  0
   26.9977  -18.0930  -15.0161 C   0  0  0  0  0  0  0  0  0  0  0  0
   27.6301  -18.1294  -16.3613 C   0  0  0  0  0  0  0  0  0  0  0  0
   26.9679  -18.2424  -17.4085 O   0  0  0  0  0  0  0  0  0  0  0  0
   26.6285  -20.8468  -12.7009 C   0  0  0  0  0  0  0  0  0  0  0  0
   26.2138  -22.0177  -12.8702 O   0  0  0  0  0  0  0  0  0  0  0  0
   29.0132  -18.0347  -16.4678 O   0  0  0  0  0  0  0  0  0  0  0  0
   26.3005  -20.1467  -11.5223 N   0  0  0  0  0  0  0  0  0  0  0  0
   25.4234  -20.7686  -10.5148 C   0  0  1  0  0  0  0  0  0  0  0  0
   25.9116  -20.2738   -9.2024 C   0  0  0  0  0  0  0  0  0  0  0  0
   27.2148  -20.7512   -8.7461 C   0  0  0  0  0  0  0  0  0  0  0  0
   28.0704  -21.6728   -9.3469 C   0  0  0  0  0  0  0  0  0  0  0  0
   29.1569  -21.8084   -8.5697 N   0  0  0  0  0  0  0  0  0  0  0  0
   29.0575  -21.0163   -7.4809 C   0  0  0  0  0  0  0  0  0  0  0  0
   29.8892  -20.7781   -6.4125 C   0  0  0  0  0  0  0  0  0  0  0  0
   29.5169  -19.8699   -5.4322 C   0  0  0  0  0  0  0  0  0  0  0  0
   28.3227  -19.2239   -5.5452 C   0  0  0  0  0  0  0  0  0  0  0  0
   27.4873  -19.4461   -6.5931 C   0  0  0  0  0  0  0  0  0  0  0  0
   27.8703  -20.3615   -7.5752 C   0  0  0  0  0  0  0  0  0  0  0  0
   24.0204  -20.5664  -10.8499 C   0  0  0  0  0  0  0  0  0  0  0  0
   23.1213  -20.7941   -9.9717 O   0  0  0  0  0  0  0  0  0  0  0  0
   22.1613  -19.1738  -13.7649 C   0  0  0  0  0  0  0  0  0  0  0  0
   22.1947  -19.9381  -12.4125 C   0  0  2  0  0  0  0  0  0  0  0  0
   23.6077  -20.1123  -12.1266 N   0  0  0  0  0  0  0  0  0  0  0  0
   21.4841  -21.2016  -12.6942 C   0  0  0  0  0  0  0  0  0  0  0  0
   20.2543  -21.3258  -12.7537 O   0  0  0  0  0  0  0  0  0  0  0  0
   22.2535  -22.3359  -12.9087 O   0  0  0  0  0  0  0  0  0  0  0  0
  2  3  1  0
  2  1  1  6
  4  5  1  0
  4  3  1  0
  5  6  2  0
  7  2  1  0
  8  7  2  0
  9  5  1  0
 10  7  1  0
 11 10  1  0
 11 12  1  1
 12 13  1  0
 13 14  2  0
 14 15  1  0
 16 15  1  0
 17 16  2  0
 18 17  1  0
 19 20  1  0
 19 18  2  0
 20 21  2  0
 21 13  1  0
 21 16  1  0
 22 26  1  0
 22 11  1  0
 23 22  2  0
 25 24  1  6
 25 27  1  0
 25 26  1  0
 27 29  1  0
 28 27  2  0
M  END
$$$$
