EWA.pdb
     RDKit          3D

 29 30  0  0  1  0  0  0  0  0999 V2000
   27.9829  -22.4736  -16.3867 N   0  0  0  0  0  0  0  0  0  0  0  0
   28.3756  -21.5405  -15.3635 C   0  0  1  0  0  0  0  0  0  0  0  0
   28.3581  -20.1090  -15.8669 C   0  0  0  0  0  0  0  0  0  0  0  0
   28.0132  -20.0632  -17.3496 C   0  0  0  0  0  0  0  0  0  0  0  0
   26.6451  -19.4950  -17.4771 C   0  0  0  0  0  0  0  0  0  0  0  0
   25.6882  -20.1505  -17.9272 O   0  0  0  0  0  0  0  0  0  0  0  0
   27.4203  -21.6013  -14.2242 C   0  0  0  0  0  0  0  0  0  0  0  0
   26.3109  -22.1683  -14.3630 O   0  0  0  0  0  0  0  0  0  0  0  0
   26.4119  -18.1824  -17.0823 O   0  0  0  0  0  0  0  0  0  0  0  0
   27.7648  -21.0205  -12.9868 N   0  0  0  0  0  0  0  0  0  0  0  0
   26.8472  -21.1309  -11.8393 C   0  0  1  0  0  0  0  0  0  0  0  0
   27.6428  -20.7239  -10.6531 C   0  0  0  0  0  0  0  0  0  0  0  0
   26.9212  -20.5066   -9.4015 C   0  0  0  0  0  0  0  0  0  0  0  0
   25.5462  -20.4549   -9.1800 C   0  0  0  0  0  0  0  0  0  0  0  0
   25.3379  -20.2294   -7.8728 N   0  0  0  0  0  0  0  0  0  0  0  0
   26.5154  -20.1301   -7.2198 C   0  0  0  0  0  0  0  0  0  0  0  0
   26.8446  -19.9259   -5.9007 C   0  0  0  0  0  0  0  0  0  0  0  0
   28.1768  -19.8916   -5.5152 C   0  0  0  0  0  0  0  0  0  0  0  0
   29.1451  -20.0618   -6.4584 C   0  0  0  0  0  0  0  0  0  0  0  0
   28.8397  -20.2642   -7.7665 C   0  0  0  0  0  0  0  0  0  0  0  0
   27.4965  -20.2976   -8.1454 C   0  0  0  0  0  0  0  0  0  0  0  0
   25.5963  -20.4331  -12.1036 C   0  0  0  0  0  0  0  0  0  0  0  0
   25.6104  -19.1789  -12.3445 O   0  0  0  0  0  0  0  0  0  0  0  0
   22.4735  -20.9771  -13.5727 C   0  0  0  0  0  0  0  0  0  0  0  0
   23.1225  -20.3466  -12.3095 C   0  0  2  0  0  0  0  0  0  0  0  0
   24.3473  -21.1014  -12.1131 N   0  0  0  0  0  0  0  0  0  0  0  0
   22.1187  -20.5534  -11.2464 C   0  0  0  0  0  0  0  0  0  0  0  0
   22.2000  -21.4018  -10.3492 O   0  0  0  0  0  0  0  0  0  0  0  0
   20.9990  -19.7342  -11.2535 O   0  0  0  0  0  0  0  0  0  0  0  0
  2  3  1  0
  2  1  1  6
  4  5  1  0
  4  3  1  0
  5  6  2  0
  7  2  1  0
  8  7  2  0
  9  5  1  0
 10  7  1  0
 11 10  1  0
 11 12  1  1
 12 13  1  0
 13 14  2  0
 14 15  1  0
 16 15  1  0
 17 16  2  0
 18 17  1  0
 19 20  1  0
 19 18  2  0
 20 21  2  0
 21 13  1  0
 21 16  1  0
 22 26  1  0
 22 11  1  0
 23 22  2  0
 25 24  1  6
 25 27  1  0
 25 26  1  0
 27 29  1  0
 28 27  2  0
M  END
$$$$
