EWA.pdb
     RDKit          3D

 29 30  0  0  1  0  0  0  0  0999 V2000
   24.8406  -18.4970  -18.6419 N   0  0  0  0  0  0  0  0  0  0  0  0
   26.1229  -17.8977  -18.3804 C   0  0  1  0  0  0  0  0  0  0  0  0
   27.1475  -18.2717  -19.4356 C   0  0  0  0  0  0  0  0  0  0  0  0
   26.6088  -17.9934  -20.8325 C   0  0  0  0  0  0  0  0  0  0  0  0
   27.7528  -17.5647  -21.6800 C   0  0  0  0  0  0  0  0  0  0  0  0
   28.8261  -18.1925  -21.7218 O   0  0  0  0  0  0  0  0  0  0  0  0
   26.0077  -16.4144  -18.4079 C   0  0  0  0  0  0  0  0  0  0  0  0
   25.0100  -15.8707  -18.9375 O   0  0  0  0  0  0  0  0  0  0  0  0
   27.6325  -16.4203  -22.4605 O   0  0  0  0  0  0  0  0  0  0  0  0
   27.0224  -15.6202  -17.8363 N   0  0  0  0  0  0  0  0  0  0  0  0
   26.9109  -14.1512  -17.8605 C   0  0  1  0  0  0  0  0  0  0  0  0
   27.7273  -13.6713  -16.7164 C   0  0  0  0  0  0  0  0  0  0  0  0
   27.9294  -12.2298  -16.5922 C   0  0  0  0  0  0  0  0  0  0  0  0
   27.0976  -11.2749  -16.0105 C   0  0  0  0  0  0  0  0  0  0  0  0
   27.6865  -10.0741  -16.1293 N   0  0  0  0  0  0  0  0  0  0  0  0
   28.8721  -10.1931  -16.7641 C   0  0  0  0  0  0  0  0  0  0  0  0
   29.8480   -9.2889  -17.1105 C   0  0  0  0  0  0  0  0  0  0  0  0
   30.9975   -9.7215  -17.7555 C   0  0  0  0  0  0  0  0  0  0  0  0
   31.1411  -11.0465  -18.0380 C   0  0  0  0  0  0  0  0  0  0  0  0
   30.1878  -11.9550  -17.7042 C   0  0  0  0  0  0  0  0  0  0  0  0
   29.0345  -11.5108  -17.0549 C   0  0  0  0  0  0  0  0  0  0  0  0
   27.2073  -13.6282  -19.1872 C   0  0  0  0  0  0  0  0  0  0  0  0
   28.0345  -14.2450  -19.9399 O   0  0  0  0  0  0  0  0  0  0  0  0
   27.6027  -13.2426  -21.6923 C   0  0  0  0  0  0  0  0  0  0  0  0
   26.7554  -12.0906  -21.0848 C   0  0  2  0  0  0  0  0  0  0  0  0
   26.5993  -12.4503  -19.6867 N   0  0  0  0  0  0  0  0  0  0  0  0
   25.4947  -12.1258  -21.8530 C   0  0  0  0  0  0  0  0  0  0  0  0
   24.4031  -12.5023  -21.4081 O   0  0  0  0  0  0  0  0  0  0  0  0
   25.5368  -11.7045  -23.1742 O   0  0  0  0  0  0  0  0  0  0  0  0
  2  3  1  0
  2  1  1  6
  4  5  1  0
  4  3  1  0
  5  6  2  0
  7  2  1  0
  8  7  2  0
  9  5  1  0
 10  7  1  0
 11 10  1  0
 11 12  1  1
 12 13  1  0
 13 14  2  0
 14 15  1  0
 16 15  1  0
 17 16  2  0
 18 17  1  0
 19 20  1  0
 19 18  2  0
 20 21  2  0
 21 13  1  0
 21 16  1  0
 22 26  1  0
 22 11  1  0
 23 22  2  0
 25 24  1  6
 25 27  1  0
 25 26  1  0
 27 29  1  0
 28 27  2  0
M  END
$$$$
