EWA.pdb
     RDKit          3D

 29 30  0  0  1  0  0  0  0  0999 V2000
   27.6113  -22.0247  -12.6635 N   0  0  0  0  0  0  0  0  0  0  0  0
   26.3338  -21.3618  -12.6367 C   0  0  1  0  0  0  0  0  0  0  0  0
   25.4175  -21.8554  -13.7412 C   0  0  0  0  0  0  0  0  0  0  0  0
   25.9819  -21.4981  -15.1097 C   0  0  0  0  0  0  0  0  0  0  0  0
   25.7946  -20.0363  -15.3072 C   0  0  0  0  0  0  0  0  0  0  0  0
   24.6697  -19.5068  -15.3550 O   0  0  0  0  0  0  0  0  0  0  0  0
   25.6395  -21.6446  -11.3513 C   0  0  0  0  0  0  0  0  0  0  0  0
   25.4555  -22.8287  -10.9830 O   0  0  0  0  0  0  0  0  0  0  0  0
   26.9102  -19.2180  -15.4452 O   0  0  0  0  0  0  0  0  0  0  0  0
   25.1891  -20.5784  -10.5468 N   0  0  0  0  0  0  0  0  0  0  0  0
   24.4843  -20.8548   -9.2827 C   0  0  1  0  0  0  0  0  0  0  0  0
   24.8604  -19.7476   -8.3672 C   0  0  0  0  0  0  0  0  0  0  0  0
   26.2664  -19.6381   -7.9861 C   0  0  0  0  0  0  0  0  0  0  0  0
   27.3487  -19.1971   -8.7453 C   0  0  0  0  0  0  0  0  0  0  0  0
   28.4541  -19.2711   -7.9867 N   0  0  0  0  0  0  0  0  0  0  0  0
   28.1501  -19.7415   -6.7582 C   0  0  0  0  0  0  0  0  0  0  0  0
   28.9001  -19.9820   -5.6314 C   0  0  0  0  0  0  0  0  0  0  0  0
   28.2900  -20.4585   -4.4803 C   0  0  0  0  0  0  0  0  0  0  0  0
   26.9461  -20.6828   -4.4857 C   0  0  0  0  0  0  0  0  0  0  0  0
   26.1884  -20.4517   -5.5893 C   0  0  0  0  0  0  0  0  0  0  0  0
   26.8107  -19.9718   -6.7431 C   0  0  0  0  0  0  0  0  0  0  0  0
   23.0689  -21.1040   -9.5194 C   0  0  0  0  0  0  0  0  0  0  0  0
   22.4893  -20.5597  -10.5190 O   0  0  0  0  0  0  0  0  0  0  0  0
   20.4105  -23.1161   -7.8325 C   0  0  0  0  0  0  0  0  0  0  0  0
   20.8846  -22.1349   -8.9400 C   0  0  2  0  0  0  0  0  0  0  0  0
   22.3002  -21.9452   -8.6779 N   0  0  0  0  0  0  0  0  0  0  0  0
   20.0707  -20.9224   -8.7206 C   0  0  0  0  0  0  0  0  0  0  0  0
   20.5073  -19.8395   -8.3105 O   0  0  0  0  0  0  0  0  0  0  0  0
   18.7132  -21.0028   -8.9953 O   0  0  0  0  0  0  0  0  0  0  0  0
  2  3  1  0
  2  1  1  1
  4  5  1  0
  4  3  1  0
  5  6  2  0
  7  2  1  0
  8  7  2  0
  9  5  1  0
 10  7  1  0
 11 10  1  0
 11 12  1  1
 12 13  1  0
 13 14  2  0
 14 15  1  0
 16 15  1  0
 17 16  2  0
 18 17  1  0
 19 20  1  0
 19 18  2  0
 20 21  2  0
 21 13  1  0
 21 16  1  0
 22 26  1  0
 22 11  1  0
 23 22  2  0
 25 24  1  1
 25 27  1  0
 25 26  1  0
 27 29  1  0
 28 27  2  0
M  END
$$$$
