KDV.pdb
     RDKit          3D

 25 24  0  0  1  0  0  0  0  0999 V2000
    8.3033  -16.0571   19.8516 N   0  0  0  0  0  0  0  0  0  0  0  0
    7.2935  -16.4135   20.8591 C   0  0  1  0  0  0  0  0  0  0  0  0
    6.5978  -17.6948   20.6067 C   0  0  0  0  0  0  0  0  0  0  0  0
    6.5786  -18.2154   19.2262 C   0  0  0  0  0  0  0  0  0  0  0  0
    5.8617  -19.4773   18.9489 C   0  0  0  0  0  0  0  0  0  0  0  0
    5.8110  -19.9426   17.5327 C   0  0  0  0  0  0  0  0  0  0  0  0
    5.0126  -21.1869   17.5437 N   0  0  0  0  0  0  0  0  0  0  0  0
    7.9531  -16.3516   22.1989 C   0  0  0  0  0  0  0  0  0  0  0  0
    7.3666  -16.3937   23.2881 O   0  0  0  0  0  0  0  0  0  0  0  0
    9.3951  -16.2325   22.2518 N   0  0  0  0  0  0  0  0  0  0  0  0
   10.0821  -16.2071   23.5229 C   0  0  1  0  0  0  0  0  0  0  0  0
   11.5227  -16.5310   23.4223 C   0  0  0  0  0  0  0  0  0  0  0  0
   11.7736  -17.9042   22.9104 C   0  0  0  0  0  0  0  0  0  0  0  0
   12.1418  -18.7803   23.7287 O   0  0  0  0  0  0  0  0  0  0  0  0
    9.7758  -14.9607   24.2848 C   0  0  0  0  0  0  0  0  0  0  0  0
   10.3752  -13.9089   23.9575 O   0  0  0  0  0  0  0  0  0  0  0  0
   11.6239  -18.2694   21.5847 O   0  0  0  0  0  0  0  0  0  0  0  0
    7.6849  -12.2534   24.9840 C   0  0  0  0  0  0  0  0  0  0  0  0
    7.6105  -13.0151   26.2802 C   0  0  1  0  0  0  0  0  0  0  0  0
    6.2907  -13.7001   26.3875 C   0  0  0  0  0  0  0  0  0  0  0  0
    8.7824  -13.9738   26.4123 C   0  0  2  0  0  0  0  0  0  0  0  0
    8.8568  -14.9003   25.3353 N   0  0  0  0  0  0  0  0  0  0  0  0
    8.8840  -14.5286   27.7698 C   0  0  0  0  0  0  0  0  0  0  0  0
    8.7605  -15.7411   28.0047 O   0  0  0  0  0  0  0  0  0  0  0  0
    9.1229  -13.6659   28.8197 O   0  0  0  0  0  0  0  0  0  0  0  0
  2  8  1  0
  2  1  1  6
  3  2  1  0
  4  3  1  0
  5  4  1  0
  6  5  1  0
  7  6  1  0
  8  9  2  0
 10 11  1  0
 10  8  1  0
 11 12  1  6
 12 13  1  0
 13 14  2  0
 15 11  1  0
 16 15  2  0
 17 13  1  0
 19 18  1  6
 19 21  1  0
 20 19  1  0
 21 23  1  0
 21 22  1  6
 22 15  1  0
 23 25  1  0
 24 23  2  0
M  END
$$$$
