KDV.pdb
     RDKit          3D

 25 24  0  0  1  0  0  0  0  0999 V2000
    8.8205  -16.7861   19.5153 N   0  0  0  0  0  0  0  0  0  0  0  0
    7.5602  -16.4898   20.2122 C   0  0  1  0  0  0  0  0  0  0  0  0
    6.4253  -17.3578   19.8273 C   0  0  0  0  0  0  0  0  0  0  0  0
    6.4959  -18.0610   18.5320 C   0  0  0  0  0  0  0  0  0  0  0  0
    5.3741  -18.9359   18.1325 C   0  0  0  0  0  0  0  0  0  0  0  0
    5.4767  -19.6273   16.8149 C   0  0  0  0  0  0  0  0  0  0  0  0
    4.1953  -20.3417   16.6318 N   0  0  0  0  0  0  0  0  0  0  0  0
    7.8438  -16.5017   21.6796 C   0  0  0  0  0  0  0  0  0  0  0  0
    7.0000  -16.3525   22.5729 O   0  0  0  0  0  0  0  0  0  0  0  0
    9.2098  -16.7023   22.1156 N   0  0  0  0  0  0  0  0  0  0  0  0
    9.5538  -16.6060   23.5158 C   0  0  1  0  0  0  0  0  0  0  0  0
   10.8428  -17.2502   23.8531 C   0  0  0  0  0  0  0  0  0  0  0  0
   10.9456  -18.6429   23.3428 C   0  0  0  0  0  0  0  0  0  0  0  0
   10.0502  -19.4580   23.6691 O   0  0  0  0  0  0  0  0  0  0  0  0
    9.4050  -15.2091   24.0202 C   0  0  0  0  0  0  0  0  0  0  0  0
   10.1974  -14.3394   23.5862 O   0  0  0  0  0  0  0  0  0  0  0  0
   11.9716  -19.0896   22.5297 O   0  0  0  0  0  0  0  0  0  0  0  0
    5.8910  -13.6812   26.0341 C   0  0  0  0  0  0  0  0  0  0  0  0
    7.0605  -12.8756   25.5349 C   0  0  1  0  0  0  0  0  0  0  0  0
    7.0692  -11.5380   26.1933 C   0  0  0  0  0  0  0  0  0  0  0  0
    8.3627  -13.6346   25.7295 C   0  0  2  0  0  0  0  0  0  0  0  0
    8.4309  -14.8173   24.9419 N   0  0  0  0  0  0  0  0  0  0  0  0
    8.7109  -13.7665   27.1517 C   0  0  0  0  0  0  0  0  0  0  0  0
    8.8580  -12.7835   27.8951 O   0  0  0  0  0  0  0  0  0  0  0  0
    8.8825  -15.0314   27.6751 O   0  0  0  0  0  0  0  0  0  0  0  0
  2  8  1  0
  2  1  1  6
  3  2  1  0
  4  3  1  0
  5  4  1  0
  6  5  1  0
  7  6  1  0
  8  9  2  0
 10 11  1  0
 10  8  1  0
 11 12  1  6
 12 13  1  0
 13 14  2  0
 15 11  1  0
 16 15  2  0
 17 13  1  0
 19 18  1  1
 19 21  1  0
 20 19  1  0
 21 23  1  0
 21 22  1  1
 22 15  1  0
 23 25  1  0
 24 23  2  0
M  END
$$$$
