KDV.pdb
     RDKit          3D

 25 24  0  0  1  0  0  0  0  0999 V2000
    7.0556  -18.4308   20.4017 N   0  0  0  0  0  0  0  0  0  0  0  0
    6.7841  -17.5579   21.5533 C   0  0  1  0  0  0  0  0  0  0  0  0
    5.6956  -18.0277   22.4387 C   0  0  0  0  0  0  0  0  0  0  0  0
    4.8792  -19.1719   21.9897 C   0  0  0  0  0  0  0  0  0  0  0  0
    3.6469  -19.5053   22.7338 C   0  0  0  0  0  0  0  0  0  0  0  0
    2.7267  -20.5094   22.1258 C   0  0  0  0  0  0  0  0  0  0  0  0
    1.6015  -20.6536   23.0738 N   0  0  0  0  0  0  0  0  0  0  0  0
    8.0782  -17.3419   22.2692 C   0  0  0  0  0  0  0  0  0  0  0  0
    8.7259  -18.2178   22.8570 O   0  0  0  0  0  0  0  0  0  0  0  0
    8.6394  -16.0074   22.2904 N   0  0  0  0  0  0  0  0  0  0  0  0
    9.9405  -15.7687   22.8719 C   0  0  1  0  0  0  0  0  0  0  0  0
   10.8067  -14.8992   22.0448 C   0  0  0  0  0  0  0  0  0  0  0  0
   11.5888  -15.6557   21.0315 C   0  0  0  0  0  0  0  0  0  0  0  0
   11.9751  -15.0436   20.0074 O   0  0  0  0  0  0  0  0  0  0  0  0
    9.8326  -15.3595   24.3032 C   0  0  0  0  0  0  0  0  0  0  0  0
   10.8944  -15.1992   24.9509 O   0  0  0  0  0  0  0  0  0  0  0  0
   11.9139  -16.9946   21.1545 O   0  0  0  0  0  0  0  0  0  0  0  0
    7.4937  -12.5807   25.6893 C   0  0  0  0  0  0  0  0  0  0  0  0
    7.2443  -13.8241   26.5003 C   0  0  1  0  0  0  0  0  0  0  0  0
    5.9126  -14.3957   26.1505 C   0  0  0  0  0  0  0  0  0  0  0  0
    8.3768  -14.8219   26.3228 C   0  0  2  0  0  0  0  0  0  0  0  0
    8.6178  -15.1406   24.9575 N   0  0  0  0  0  0  0  0  0  0  0  0
    8.2598  -15.9527   27.2549 C   0  0  0  0  0  0  0  0  0  0  0  0
    8.1164  -17.1231   26.8673 O   0  0  0  0  0  0  0  0  0  0  0  0
    8.3088  -15.6992   28.6103 O   0  0  0  0  0  0  0  0  0  0  0  0
  2  8  1  0
  2  1  1  6
  3  2  1  0
  4  3  1  0
  5  4  1  0
  6  5  1  0
  7  6  1  0
  8  9  2  0
 10 11  1  0
 10  8  1  0
 11 12  1  6
 12 13  1  0
 13 14  2  0
 15 11  1  0
 16 15  2  0
 17 13  1  0
 19 18  1  6
 19 21  1  0
 20 19  1  0
 21 23  1  0
 21 22  1  6
 22 15  1  0
 23 25  1  0
 24 23  2  0
M  END
$$$$
