KDV.pdb
     RDKit          3D

 25 24  0  0  1  0  0  0  0  0999 V2000
    9.7023  -16.7292   19.8839 N   0  0  0  0  0  0  0  0  0  0  0  0
    8.4465  -15.9877   20.0710 C   0  0  1  0  0  0  0  0  0  0  0  0
    7.3372  -16.4249   19.1948 C   0  0  0  0  0  0  0  0  0  0  0  0
    7.6580  -17.3008   18.0515 C   0  0  0  0  0  0  0  0  0  0  0  0
    6.5699  -17.7142   17.1413 C   0  0  0  0  0  0  0  0  0  0  0  0
    6.9293  -18.6028   15.9986 C   0  0  0  0  0  0  0  0  0  0  0  0
    5.6702  -18.8452   15.2626 N   0  0  0  0  0  0  0  0  0  0  0  0
    8.1070  -16.0374   21.5257 C   0  0  0  0  0  0  0  0  0  0  0  0
    7.0638  -15.6048   22.0324 O   0  0  0  0  0  0  0  0  0  0  0  0
    9.0612  -16.6356   22.4357 N   0  0  0  0  0  0  0  0  0  0  0  0
    8.7811  -16.7020   23.8517 C   0  0  1  0  0  0  0  0  0  0  0  0
    9.4094  -17.8609   24.5245 C   0  0  0  0  0  0  0  0  0  0  0  0
    9.5262  -19.0507   23.6406 C   0  0  0  0  0  0  0  0  0  0  0  0
    8.4704  -19.5608   23.1959 O   0  0  0  0  0  0  0  0  0  0  0  0
    9.0225  -15.3887   24.5187 C   0  0  0  0  0  0  0  0  0  0  0  0
   10.1338  -14.8350   24.3427 O   0  0  0  0  0  0  0  0  0  0  0  0
   10.7319  -19.6259   23.2815 O   0  0  0  0  0  0  0  0  0  0  0  0
    6.9478  -12.2598   24.4430 C   0  0  0  0  0  0  0  0  0  0  0  0
    7.1144  -12.5679   25.9071 C   0  0  1  0  0  0  0  0  0  0  0  0
    5.8127  -13.0160   26.4793 C   0  0  0  0  0  0  0  0  0  0  0  0
    8.2299  -13.5771   26.1240 C   0  0  2  0  0  0  0  0  0  0  0  0
    8.0793  -14.7417   25.3211 N   0  0  0  0  0  0  0  0  0  0  0  0
    8.5040  -13.7898   27.5525 C   0  0  0  0  0  0  0  0  0  0  0  0
    8.3652  -14.8951   28.0999 O   0  0  0  0  0  0  0  0  0  0  0  0
    8.9285  -12.7178   28.3103 O   0  0  0  0  0  0  0  0  0  0  0  0
  2  8  1  0
  2  1  1  1
  3  2  1  0
  4  3  1  0
  5  4  1  0
  6  5  1  0
  7  6  1  0
  8  9  2  0
 10 11  1  0
 10  8  1  0
 11 12  1  1
 12 13  1  0
 13 14  2  0
 15 11  1  0
 16 15  2  0
 17 13  1  0
 19 18  1  6
 19 21  1  0
 20 19  1  0
 21 23  1  0
 21 22  1  1
 22 15  1  0
 23 25  1  0
 24 23  2  0
M  END
$$$$
