KDV.pdb
     RDKit          3D

 25 24  0  0  1  0  0  0  0  0999 V2000
    9.3057  -15.5785   20.1262 N   0  0  0  0  0  0  0  0  0  0  0  0
    9.0750  -14.6330   21.2282 C   0  0  1  0  0  0  0  0  0  0  0  0
    7.8471  -13.8183   21.0934 C   0  0  0  0  0  0  0  0  0  0  0  0
    7.2796  -13.6342   19.7438 C   0  0  0  0  0  0  0  0  0  0  0  0
    8.1818  -13.2603   18.6349 C   0  0  0  0  0  0  0  0  0  0  0  0
    7.5626  -12.9954   17.3041 C   0  0  0  0  0  0  0  0  0  0  0  0
    8.6863  -12.7347   16.3794 N   0  0  0  0  0  0  0  0  0  0  0  0
    9.1349  -15.4071   22.5054 C   0  0  0  0  0  0  0  0  0  0  0  0
    8.4916  -15.1474   23.5306 O   0  0  0  0  0  0  0  0  0  0  0  0
   10.0099  -16.5587   22.5725 N   0  0  0  0  0  0  0  0  0  0  0  0
   10.1346  -17.3138   23.7982 C   0  0  1  0  0  0  0  0  0  0  0  0
   10.7541  -18.6449   23.6116 C   0  0  0  0  0  0  0  0  0  0  0  0
   10.0167  -19.4963   22.6410 C   0  0  0  0  0  0  0  0  0  0  0  0
    8.8343  -19.8130   22.9138 O   0  0  0  0  0  0  0  0  0  0  0  0
   10.7404  -16.4921   24.8870 C   0  0  0  0  0  0  0  0  0  0  0  0
   11.8522  -15.9545   24.6691 O   0  0  0  0  0  0  0  0  0  0  0  0
   10.5603  -19.9581   21.4558 O   0  0  0  0  0  0  0  0  0  0  0  0
    8.3722  -14.5896   27.7236 C   0  0  0  0  0  0  0  0  0  0  0  0
    9.8303  -14.2838   27.5084 C   0  0  1  0  0  0  0  0  0  0  0  0
   10.3572  -13.5017   28.6631 C   0  0  0  0  0  0  0  0  0  0  0  0
   10.6184  -15.5580   27.2534 C   0  0  2  0  0  0  0  0  0  0  0  0
   10.1364  -16.2851   26.1297 N   0  0  0  0  0  0  0  0  0  0  0  0
   10.8376  -16.3216   28.4904 C   0  0  0  0  0  0  0  0  0  0  0  0
   10.3343  -17.4401   28.6805 O   0  0  0  0  0  0  0  0  0  0  0  0
   11.6306  -15.7697   29.4754 O   0  0  0  0  0  0  0  0  0  0  0  0
  2  8  1  0
  2  1  1  6
  3  2  1  0
  4  3  1  0
  5  4  1  0
  6  5  1  0
  7  6  1  0
  8  9  2  0
 10 11  1  0
 10  8  1  0
 11 12  1  6
 12 13  1  0
 13 14  2  0
 15 11  1  0
 16 15  2  0
 17 13  1  0
 19 18  1  1
 19 21  1  0
 20 19  1  0
 21 23  1  0
 21 22  1  6
 22 15  1  0
 23 25  1  0
 24 23  2  0
M  END
$$$$
