LIV.pdb
     RDKit          3D

 24 23  0  0  1  0  0  0  0  0999 V2000
    6.2771  -17.1995   18.7741 C   0  0  0  0  0  0  0  0  0  0  0  0
    6.6514  -15.8000   19.1492 C   0  0  1  0  0  0  0  0  0  0  0  0
    5.4079  -14.9427   19.0667 C   0  0  0  0  0  0  0  0  0  0  0  0
    7.2892  -15.7301   20.5211 C   0  0  0  0  0  0  0  0  0  0  0  0
    7.4653  -14.3039   20.9766 C   0  0  2  0  0  0  0  0  0  0  0  0
    8.3026  -13.6305   20.0025 N   0  0  0  0  0  0  0  0  0  0  0  0
    8.0484  -14.1847   22.3104 C   0  0  0  0  0  0  0  0  0  0  0  0
    9.3200  -14.1789   22.4492 O   0  0  0  0  0  0  0  0  0  0  0  0
    5.8329  -11.2436   26.2785 C   0  0  0  0  0  0  0  0  0  0  0  0
    6.8038  -11.9600   25.3913 C   0  0  0  0  0  0  0  0  0  0  0  0
    7.0169  -13.3991   25.8232 C   0  0  2  0  0  0  0  0  0  0  0  0
    7.6010  -13.3812   27.1961 C   0  0  0  0  0  0  0  0  0  0  0  0
    7.9076  -14.0635   24.8334 C   0  0  2  0  0  0  0  0  0  0  0  0
    7.3117  -14.0703   23.5150 N   0  0  0  0  0  0  0  0  0  0  0  0
    8.3628  -15.4102   25.2466 C   0  0  0  0  0  0  0  0  0  0  0  0
    7.4940  -16.2995   25.4395 O   0  0  0  0  0  0  0  0  0  0  0  0
   11.9141  -18.8509   25.3880 C   0  0  0  0  0  0  0  0  0  0  0  0
   11.4318  -17.4643   24.9963 C   0  0  1  0  0  0  0  0  0  0  0  0
   11.1341  -17.4914   23.5131 C   0  0  0  0  0  0  0  0  0  0  0  0
   10.1822  -17.0830   25.7566 C   0  0  2  0  0  0  0  0  0  0  0  0
    9.7294  -15.7561   25.4383 N   0  0  0  0  0  0  0  0  0  0  0  0
   10.3582  -17.3019   27.2013 C   0  0  0  0  0  0  0  0  0  0  0  0
   10.4690  -16.3280   27.9672 O   0  0  0  0  0  0  0  0  0  0  0  0
   10.4002  -18.5790   27.7042 O   0  0  0  0  0  0  0  0  0  0  0  0
  2  3  1  1
  2  1  1  0
  4  2  1  0
  5  4  1  0
  5  6  1  6
  7  5  1  0
  7 14  1  0
  8  7  2  0
 10  9  1  0
 11 10  1  0
 11 12  1  1
 13 14  1  6
 13 11  1  0
 15 13  1  0
 16 15  2  0
 18 17  1  1
 18 20  1  0
 19 18  1  0
 20 22  1  0
 20 21  1  1
 21 15  1  0
 22 24  1  0
 23 22  2  0
M  END
$$$$
