LIV.pdb
     RDKit          3D

 24 23  0  0  1  0  0  0  0  0999 V2000
    5.7568  -17.1284   21.0873 C   0  0  0  0  0  0  0  0  0  0  0  0
    7.2509  -17.1083   21.0069 C   0  0  1  0  0  0  0  0  0  0  0  0
    7.7180  -18.4860   20.5925 C   0  0  0  0  0  0  0  0  0  0  0  0
    7.7552  -16.0384   20.0608 C   0  0  0  0  0  0  0  0  0  0  0  0
    7.5653  -14.6580   20.6359 C   0  0  2  0  0  0  0  0  0  0  0  0
    8.1382  -13.7086   19.7010 N   0  0  0  0  0  0  0  0  0  0  0  0
    8.1646  -14.4884   21.9570 C   0  0  0  0  0  0  0  0  0  0  0  0
    9.4376  -14.4946   22.0822 O   0  0  0  0  0  0  0  0  0  0  0  0
    7.2396  -11.8388   27.4101 C   0  0  0  0  0  0  0  0  0  0  0  0
    7.9589  -12.8445   26.5650 C   0  0  0  0  0  0  0  0  0  0  0  0
    7.2366  -13.1122   25.2574 C   0  0  2  0  0  0  0  0  0  0  0  0
    5.8907  -13.6668   25.5853 C   0  0  0  0  0  0  0  0  0  0  0  0
    8.0580  -14.0513   24.4465 C   0  0  2  0  0  0  0  0  0  0  0  0
    7.4429  -14.3104   23.1629 N   0  0  0  0  0  0  0  0  0  0  0  0
    8.4150  -15.3006   25.1561 C   0  0  0  0  0  0  0  0  0  0  0  0
    7.4901  -16.0963   25.4633 O   0  0  0  0  0  0  0  0  0  0  0  0
   11.7137  -18.8720   25.8623 C   0  0  0  0  0  0  0  0  0  0  0  0
   11.3444  -17.5025   25.3173 C   0  0  1  0  0  0  0  0  0  0  0  0
   11.0516  -17.6670   23.8420 C   0  0  0  0  0  0  0  0  0  0  0  0
   10.1259  -16.9443   26.0162 C   0  0  2  0  0  0  0  0  0  0  0  0
    9.7470  -15.6527   25.5110 N   0  0  0  0  0  0  0  0  0  0  0  0
   10.3026  -16.9636   27.4772 C   0  0  0  0  0  0  0  0  0  0  0  0
   10.4357  -18.0483   28.0716 O   0  0  0  0  0  0  0  0  0  0  0  0
   10.3207  -15.7866   28.1843 O   0  0  0  0  0  0  0  0  0  0  0  0
  2  3  1  6
  2  1  1  0
  4  2  1  0
  5  4  1  0
  5  6  1  6
  7  5  1  0
  7 14  1  0
  8  7  2  0
 10  9  1  0
 11 10  1  0
 11 12  1  1
 13 14  1  6
 13 11  1  0
 15 13  1  0
 16 15  2  0
 18 17  1  1
 18 20  1  0
 19 18  1  0
 20 22  1  0
 20 21  1  6
 21 15  1  0
 22 24  1  0
 23 22  2  0
M  END
$$$$
