LIV.pdb
     RDKit          3D

 24 23  0  0  1  0  0  0  0  0999 V2000
    7.4333  -19.4130   19.9256 C   0  0  0  0  0  0  0  0  0  0  0  0
    7.6113  -17.9275   19.8946 C   0  0  1  0  0  0  0  0  0  0  0  0
    6.2552  -17.2963   19.6694 C   0  0  0  0  0  0  0  0  0  0  0  0
    8.2683  -17.4069   21.1560 C   0  0  0  0  0  0  0  0  0  0  0  0
    8.2857  -15.8999   21.1885 C   0  0  2  0  0  0  0  0  0  0  0  0
    9.1998  -15.4476   20.1572 N   0  0  0  0  0  0  0  0  0  0  0  0
    8.6746  -15.3483   22.4838 C   0  0  0  0  0  0  0  0  0  0  0  0
    9.9056  -15.3519   22.8316 O   0  0  0  0  0  0  0  0  0  0  0  0
    6.8482  -11.5340   26.9948 C   0  0  0  0  0  0  0  0  0  0  0  0
    7.7529  -12.6037   26.4654 C   0  0  0  0  0  0  0  0  0  0  0  0
    7.1983  -13.2501   25.2094 C   0  0  2  0  0  0  0  0  0  0  0  0
    5.8960  -13.8875   25.5618 C   0  0  0  0  0  0  0  0  0  0  0  0
    8.1950  -14.2320   24.7027 C   0  0  2  0  0  0  0  0  0  0  0  0
    7.7839  -14.7864   23.4312 N   0  0  0  0  0  0  0  0  0  0  0  0
    8.5496  -15.2846   25.6815 C   0  0  0  0  0  0  0  0  0  0  0  0
    7.6664  -16.1209   26.0031 O   0  0  0  0  0  0  0  0  0  0  0  0
   11.4877  -17.5340   25.2440 C   0  0  0  0  0  0  0  0  0  0  0  0
   11.5257  -17.1271   26.7075 C   0  0  1  0  0  0  0  0  0  0  0  0
   12.6513  -16.1292   26.8702 C   0  0  0  0  0  0  0  0  0  0  0  0
   10.2216  -16.4934   27.1348 C   0  0  2  0  0  0  0  0  0  0  0  0
    9.8347  -15.4040   26.2800 N   0  0  0  0  0  0  0  0  0  0  0  0
   10.2577  -16.1249   28.5592 C   0  0  0  0  0  0  0  0  0  0  0  0
   10.0681  -14.9434   28.8992 O   0  0  0  0  0  0  0  0  0  0  0  0
   10.5001  -17.0831   29.5125 O   0  0  0  0  0  0  0  0  0  0  0  0
  2  3  1  1
  2  1  1  0
  4  2  1  0
  5  4  1  0
  5  6  1  6
  7  5  1  0
  7 14  1  0
  8  7  2  0
 10  9  1  0
 11 10  1  0
 11 12  1  1
 13 14  1  6
 13 11  1  0
 15 13  1  0
 16 15  2  0
 18 17  1  6
 18 20  1  0
 19 18  1  0
 20 22  1  0
 20 21  1  6
 21 15  1  0
 22 24  1  0
 23 22  2  0
M  END
$$$$
