LIV.pdb
     RDKit          3D

 24 23  0  0  1  0  0  0  0  0999 V2000
    7.3922  -17.6345   18.9805 C   0  0  0  0  0  0  0  0  0  0  0  0
    6.5626  -17.5217   20.2207 C   0  0  1  0  0  0  0  0  0  0  0  0
    5.8618  -18.8443   20.4394 C   0  0  0  0  0  0  0  0  0  0  0  0
    7.3903  -17.1214   21.4243 C   0  0  0  0  0  0  0  0  0  0  0  0
    7.4947  -15.6228   21.5494 C   0  0  2  0  0  0  0  0  0  0  0  0
    8.2472  -15.1368   20.4087 N   0  0  0  0  0  0  0  0  0  0  0  0
    8.1235  -15.1830   22.7922 C   0  0  0  0  0  0  0  0  0  0  0  0
    9.3992  -15.1524   22.8820 O   0  0  0  0  0  0  0  0  0  0  0  0
    5.7906  -11.4934   25.9613 C   0  0  0  0  0  0  0  0  0  0  0  0
    6.7774  -12.3513   25.2312 C   0  0  0  0  0  0  0  0  0  0  0  0
    7.1882  -13.5659   26.0430 C   0  0  2  0  0  0  0  0  0  0  0  0
    7.8693  -13.0794   27.2783 C   0  0  0  0  0  0  0  0  0  0  0  0
    8.0718  -14.4196   25.2035 C   0  0  2  0  0  0  0  0  0  0  0  0
    7.4289  -14.7702   23.9557 N   0  0  0  0  0  0  0  0  0  0  0  0
    8.6038  -15.6071   25.9095 C   0  0  0  0  0  0  0  0  0  0  0  0
    7.7840  -16.4394   26.3765 O   0  0  0  0  0  0  0  0  0  0  0  0
   11.4973  -17.6787   24.3976 C   0  0  0  0  0  0  0  0  0  0  0  0
   11.7563  -17.5511   25.8894 C   0  0  1  0  0  0  0  0  0  0  0  0
   12.8635  -16.5360   26.0708 C   0  0  0  0  0  0  0  0  0  0  0  0
   10.5190  -17.0874   26.6233 C   0  0  2  0  0  0  0  0  0  0  0  0
    9.9920  -15.8605   26.0902 N   0  0  0  0  0  0  0  0  0  0  0  0
   10.7584  -17.0306   28.0744 C   0  0  0  0  0  0  0  0  0  0  0  0
   11.0591  -18.0663   28.6944 O   0  0  0  0  0  0  0  0  0  0  0  0
   10.6504  -15.8366   28.7439 O   0  0  0  0  0  0  0  0  0  0  0  0
  2  3  1  1
  2  1  1  0
  4  2  1  0
  5  4  1  0
  5  6  1  6
  7  5  1  0
  7 14  1  0
  8  7  2  0
 10  9  1  0
 11 10  1  0
 11 12  1  1
 13 14  1  6
 13 11  1  0
 15 13  1  0
 16 15  2  0
 18 17  1  6
 18 20  1  0
 19 18  1  0
 20 22  1  0
 20 21  1  6
 21 15  1  0
 22 24  1  0
 23 22  2  0
M  END
$$$$
