LIV.pdb
     RDKit          3D

 24 23  0  0  1  0  0  0  0  0999 V2000
    6.9577  -19.2735   20.0377 C   0  0  0  0  0  0  0  0  0  0  0  0
    7.2617  -17.8097   19.9715 C   0  0  1  0  0  0  0  0  0  0  0  0
    5.9666  -17.0720   19.7134 C   0  0  0  0  0  0  0  0  0  0  0  0
    7.9474  -17.3139   21.2277 C   0  0  0  0  0  0  0  0  0  0  0  0
    8.0880  -15.8130   21.2247 C   0  0  2  0  0  0  0  0  0  0  0  0
    9.0116  -15.4592   20.1638 N   0  0  0  0  0  0  0  0  0  0  0  0
    8.5505  -15.2673   22.4981 C   0  0  0  0  0  0  0  0  0  0  0  0
    9.8005  -15.2608   22.7694 O   0  0  0  0  0  0  0  0  0  0  0  0
    6.9610  -11.5674   27.2000 C   0  0  0  0  0  0  0  0  0  0  0  0
    7.8412  -12.6139   26.5892 C   0  0  0  0  0  0  0  0  0  0  0  0
    7.2378  -13.2009   25.3264 C   0  0  2  0  0  0  0  0  0  0  0  0
    5.9299  -13.8197   25.6912 C   0  0  0  0  0  0  0  0  0  0  0  0
    8.1963  -14.1872   24.7581 C   0  0  2  0  0  0  0  0  0  0  0  0
    7.7143  -14.7222   23.5033 N   0  0  0  0  0  0  0  0  0  0  0  0
    8.5889  -15.2550   25.7054 C   0  0  0  0  0  0  0  0  0  0  0  0
    7.7049  -16.0617   26.0935 O   0  0  0  0  0  0  0  0  0  0  0  0
   11.4619  -17.5713   25.0361 C   0  0  0  0  0  0  0  0  0  0  0  0
   11.5970  -17.1767   26.4973 C   0  0  1  0  0  0  0  0  0  0  0  0
   12.7409  -16.1914   26.5956 C   0  0  0  0  0  0  0  0  0  0  0  0
   10.3292  -16.5336   27.0113 C   0  0  2  0  0  0  0  0  0  0  0  0
    9.9116  -15.4205   26.2027 N   0  0  0  0  0  0  0  0  0  0  0  0
   10.4519  -16.1964   28.4386 C   0  0  0  0  0  0  0  0  0  0  0  0
   10.3623  -15.0112   28.8059 O   0  0  0  0  0  0  0  0  0  0  0  0
   10.6649  -17.1878   29.3646 O   0  0  0  0  0  0  0  0  0  0  0  0
  2  3  1  1
  2  1  1  0
  4  2  1  0
  5  4  1  0
  5  6  1  6
  7  5  1  0
  7 14  1  0
  8  7  2  0
 10  9  1  0
 11 10  1  0
 11 12  1  1
 13 14  1  6
 13 11  1  0
 15 13  1  0
 16 15  2  0
 18 17  1  6
 18 20  1  0
 19 18  1  0
 20 22  1  0
 20 21  1  6
 21 15  1  0
 22 24  1  0
 23 22  2  0
M  END
$$$$
