LIV.pdb
     RDKit          3D

 24 23  0  0  1  0  0  0  0  0999 V2000
    9.4688  -18.9539   19.0373 C   0  0  0  0  0  0  0  0  0  0  0  0
    9.1408  -19.0856   20.4914 C   0  0  1  0  0  0  0  0  0  0  0  0
    9.5603  -20.4664   20.9446 C   0  0  0  0  0  0  0  0  0  0  0  0
    9.7946  -18.0013   21.3224 C   0  0  0  0  0  0  0  0  0  0  0  0
    9.1199  -16.6683   21.1210 C   0  0  2  0  0  0  0  0  0  0  0  0
    9.6951  -16.0577   19.9378 N   0  0  0  0  0  0  0  0  0  0  0  0
    9.2491  -15.7697   22.2652 C   0  0  0  0  0  0  0  0  0  0  0  0
   10.2786  -15.0177   22.3687 O   0  0  0  0  0  0  0  0  0  0  0  0
    6.2090  -12.4647   26.4210 C   0  0  0  0  0  0  0  0  0  0  0  0
    7.4598  -13.1497   25.9635 C   0  0  0  0  0  0  0  0  0  0  0  0
    7.1849  -14.1753   24.8792 C   0  0  2  0  0  0  0  0  0  0  0  0
    6.2334  -15.1816   25.4344 C   0  0  0  0  0  0  0  0  0  0  0  0
    8.4782  -14.7824   24.4631 C   0  0  2  0  0  0  0  0  0  0  0  0
    8.3058  -15.6453   23.3147 N   0  0  0  0  0  0  0  0  0  0  0  0
    9.2048  -15.4562   25.5629 C   0  0  0  0  0  0  0  0  0  0  0  0
    9.0182  -16.6888   25.7328 O   0  0  0  0  0  0  0  0  0  0  0  0
    9.5949  -13.8420   29.1716 C   0  0  0  0  0  0  0  0  0  0  0  0
   10.9165  -14.4463   28.7278 C   0  0  1  0  0  0  0  0  0  0  0  0
   11.4978  -15.1832   29.9144 C   0  0  0  0  0  0  0  0  0  0  0  0
   10.7212  -15.4098   27.5796 C   0  0  2  0  0  0  0  0  0  0  0  0
   10.1034  -14.7876   26.4401 N   0  0  0  0  0  0  0  0  0  0  0  0
   10.0193  -16.6241   28.0256 C   0  0  0  0  0  0  0  0  0  0  0  0
    8.7762  -16.6421   28.0670 O   0  0  0  0  0  0  0  0  0  0  0  0
   10.7347  -17.7363   28.3955 O   0  0  0  0  0  0  0  0  0  0  0  0
  2  3  1  1
  2  1  1  0
  4  2  1  0
  5  4  1  0
  5  6  1  6
  7  5  1  0
  7 14  1  0
  8  7  2  0
 10  9  1  0
 11 10  1  0
 11 12  1  1
 13 14  1  6
 13 11  1  0
 15 13  1  0
 16 15  2  0
 18 17  1  1
 18 20  1  0
 19 18  1  0
 20 22  1  0
 20 21  1  6
 21 15  1  0
 22 24  1  0
 23 22  2  0
M  END
$$$$
