LIV.pdb
     RDKit          3D

 24 23  0  0  1  0  0  0  0  0999 V2000
    5.7278  -11.7665   25.7977 C   0  0  0  0  0  0  0  0  0  0  0  0
    5.9527  -12.8820   24.8259 C   0  0  1  0  0  0  0  0  0  0  0  0
    7.0491  -12.4610   23.8726 C   0  0  0  0  0  0  0  0  0  0  0  0
    6.2867  -14.1846   25.5227 C   0  0  0  0  0  0  0  0  0  0  0  0
    6.4077  -15.3216   24.5402 C   0  0  2  0  0  0  0  0  0  0  0  0
    5.2671  -16.1960   24.7357 N   0  0  0  0  0  0  0  0  0  0  0  0
    7.6505  -16.0774   24.6721 C   0  0  0  0  0  0  0  0  0  0  0  0
    7.8328  -16.8263   25.6930 O   0  0  0  0  0  0  0  0  0  0  0  0
   12.7336  -17.9268   21.5992 C   0  0  0  0  0  0  0  0  0  0  0  0
   11.9381  -17.7426   22.8547 C   0  0  0  0  0  0  0  0  0  0  0  0
   10.6958  -16.9017   22.6250 C   0  0  2  0  0  0  0  0  0  0  0  0
   11.1339  -15.5753   22.1005 C   0  0  0  0  0  0  0  0  0  0  0  0
    9.9553  -16.7900   23.9109 C   0  0  2  0  0  0  0  0  0  0  0  0
    8.7175  -16.0608   23.7404 N   0  0  0  0  0  0  0  0  0  0  0  0
   10.7690  -16.2547   25.0259 C   0  0  0  0  0  0  0  0  0  0  0  0
   11.6946  -15.4473   24.7536 O   0  0  0  0  0  0  0  0  0  0  0  0
    9.3214  -15.2120   28.7169 C   0  0  0  0  0  0  0  0  0  0  0  0
   10.6615  -14.8482   28.0999 C   0  0  1  0  0  0  0  0  0  0  0  0
   11.5358  -14.3023   29.2075 C   0  0  0  0  0  0  0  0  0  0  0  0
   11.3257  -16.0558   27.4792 C   0  0  2  0  0  0  0  0  0  0  0  0
   10.5630  -16.6024   26.3899 N   0  0  0  0  0  0  0  0  0  0  0  0
   11.6647  -17.0551   28.5053 C   0  0  0  0  0  0  0  0  0  0  0  0
   12.5058  -16.7841   29.3809 O   0  0  0  0  0  0  0  0  0  0  0  0
   11.0541  -18.2850   28.4970 O   0  0  0  0  0  0  0  0  0  0  0  0
  2  3  1  6
  2  1  1  0
  4  2  1  0
  5  4  1  0
  5  6  1  1
  7  5  1  0
  7 14  1  0
  8  7  2  0
 10  9  1  0
 11 10  1  0
 11 12  1  1
 13 14  1  6
 13 11  1  0
 15 13  1  0
 16 15  2  0
 18 17  1  1
 18 20  1  0
 19 18  1  0
 20 22  1  0
 20 21  1  6
 21 15  1  0
 22 24  1  0
 23 22  2  0
M  END
$$$$
