WNR.pdb
     RDKit          3D

 34 35  0  0  1  0  0  0  0  0999 V2000
   25.9482  -20.2378  -13.8618 N   0  0  0  0  0  0  0  0  0  0  0  0
   24.7176  -19.7423  -14.4147 C   0  0  1  0  0  0  0  0  0  0  0  0
   24.5988  -20.0104  -15.8942 C   0  0  0  0  0  0  0  0  0  0  0  0
   25.4976  -19.1241  -16.6755 C   0  0  0  0  0  0  0  0  0  0  0  0
   25.3096  -17.8262  -17.0911 C   0  0  0  0  0  0  0  0  0  0  0  0
   26.3934  -17.4204  -17.7776 N   0  0  0  0  0  0  0  0  0  0  0  0
   27.2950  -18.4144  -17.8281 C   0  0  0  0  0  0  0  0  0  0  0  0
   28.5443  -18.5413  -18.3862 C   0  0  0  0  0  0  0  0  0  0  0  0
   29.2445  -19.7097  -18.2701 C   0  0  0  0  0  0  0  0  0  0  0  0
   28.7226  -20.7916  -17.5930 C   0  0  0  0  0  0  0  0  0  0  0  0
   27.4620  -20.6469  -17.0362 C   0  0  0  0  0  0  0  0  0  0  0  0
   26.7568  -19.4809  -17.1490 C   0  0  0  0  0  0  0  0  0  0  0  0
   23.5690  -20.2066  -13.6289 C   0  0  0  0  0  0  0  0  0  0  0  0
   23.7129  -21.3227  -13.0102 O   0  0  0  0  0  0  0  0  0  0  0  0
   18.9162  -20.4338  -11.0959 N   0  0  0  0  0  0  0  0  0  0  0  0
   19.3246  -19.0615  -11.3746 C   0  0  0  0  0  0  0  0  0  0  0  0
   18.6420  -18.1747  -10.8404 O   0  0  0  0  0  0  0  0  0  0  0  0
   20.4653  -18.8758  -12.2321 C   0  0  0  0  0  0  0  0  0  0  0  0
   21.2936  -20.0801  -12.6128 C   0  0  2  0  0  0  0  0  0  0  0  0
   22.3491  -19.5081  -13.5221 N   0  0  0  0  0  0  0  0  0  0  0  0
   20.5472  -21.0756  -13.3991 C   0  0  0  0  0  0  0  0  0  0  0  0
   20.3466  -20.8002  -14.6452 O   0  0  0  0  0  0  0  0  0  0  0  0
   18.0360  -24.4929   -8.5359 N   0  0  0  0  0  0  0  0  0  0  0  0
   18.4800  -25.6867   -9.1768 C   0  0  0  0  0  0  0  0  0  0  0  0
   18.9535  -26.6031   -8.4276 N   0  0  0  0  0  0  0  0  0  0  0  0
   18.3892  -25.8210  -10.5752 N   0  0  0  0  0  0  0  0  0  0  0  0
   17.3510  -25.1579  -11.3060 C   0  0  0  0  0  0  0  0  0  0  0  0
   17.8693  -23.9132  -11.9940 C   0  0  0  0  0  0  0  0  0  0  0  0
   18.8563  -24.3844  -13.0436 C   0  0  0  0  0  0  0  0  0  0  0  0
   19.2867  -23.1990  -13.8806 C   0  0  2  0  0  0  0  0  0  0  0  0
   20.0178  -22.3006  -12.9926 N   0  0  0  0  0  0  0  0  0  0  0  0
   18.0561  -22.5708  -14.3979 C   0  0  0  0  0  0  0  0  0  0  0  0
   17.3385  -23.1670  -15.4042 O   0  0  0  0  0  0  0  0  0  0  0  0
   17.6735  -21.4922  -13.9117 O   0  0  0  0  0  0  0  0  0  0  0  0
  2  1  1  1
  3  4  1  0
  3  2  1  0
  4  5  2  0
  5  6  1  0
  7  6  1  0
  8  7  2  0
  9  8  1  0
 10 11  1  0
 10  9  2  0
 11 12  2  0
 12  4  1  0
 12  7  1  0
 13  2  1  0
 14 13  2  0
 16 15  1  0
 17 16  2  0
 18 16  1  0
 19 20  1  0
 19 18  1  6
 20 13  1  0
 21 19  1  0
 22 21  2  0
 24 23  1  0
 24 25  2  0
 26 27  1  0
 26 24  1  0
 27 28  1  0
 28 29  1  0
 30 29  1  1
 30 31  1  0
 31 21  1  0
 32 30  1  0
 33 32  1  0
 34 32  2  0
M  END
$$$$
