WNR.pdb
     RDKit          3D

 34 35  0  0  1  0  0  0  0  0999 V2000
   27.0016  -21.1451  -12.0553 N   0  0  0  0  0  0  0  0  0  0  0  0
   25.9994  -20.9844  -11.0378 C   0  0  1  0  0  0  0  0  0  0  0  0
   26.4368  -20.0505   -9.9372 C   0  0  0  0  0  0  0  0  0  0  0  0
   27.7791  -20.4188   -9.4207 C   0  0  0  0  0  0  0  0  0  0  0  0
   28.8391  -21.0101  -10.0683 C   0  0  0  0  0  0  0  0  0  0  0  0
   29.8588  -21.1583   -9.2031 N   0  0  0  0  0  0  0  0  0  0  0  0
   29.5033  -20.6810   -7.9992 C   0  0  0  0  0  0  0  0  0  0  0  0
   30.1411  -20.5831   -6.7859 C   0  0  0  0  0  0  0  0  0  0  0  0
   29.5065  -20.0333   -5.7070 C   0  0  0  0  0  0  0  0  0  0  0  0
   28.2140  -19.5622   -5.8014 C   0  0  0  0  0  0  0  0  0  0  0  0
   27.5856  -19.6684   -7.0318 C   0  0  0  0  0  0  0  0  0  0  0  0
   28.2149  -20.2173   -8.1144 C   0  0  0  0  0  0  0  0  0  0  0  0
   24.7029  -20.6416  -11.6327 C   0  0  0  0  0  0  0  0  0  0  0  0
   24.5791  -19.4457  -12.0838 O   0  0  0  0  0  0  0  0  0  0  0  0
   22.6583  -18.4107  -14.4737 N   0  0  0  0  0  0  0  0  0  0  0  0
   22.2795  -19.8031  -14.6865 C   0  0  0  0  0  0  0  0  0  0  0  0
   21.4172  -20.0026  -15.5551 O   0  0  0  0  0  0  0  0  0  0  0  0
   22.9363  -20.7948  -13.8765 C   0  0  0  0  0  0  0  0  0  0  0  0
   22.4010  -21.0751  -12.4922 C   0  0  2  0  0  0  0  0  0  0  0  0
   23.6165  -21.5346  -11.7312 N   0  0  0  0  0  0  0  0  0  0  0  0
   21.4313  -22.1818  -12.4556 C   0  0  0  0  0  0  0  0  0  0  0  0
   21.8897  -23.3645  -12.7001 O   0  0  0  0  0  0  0  0  0  0  0  0
   18.9470  -23.7935   -6.6837 N   0  0  0  0  0  0  0  0  0  0  0  0
   17.7422  -24.3268   -7.2285 C   0  0  0  0  0  0  0  0  0  0  0  0
   17.3023  -25.4062   -6.7118 N   0  0  0  0  0  0  0  0  0  0  0  0
   17.0885  -23.6718   -8.2893 N   0  0  0  0  0  0  0  0  0  0  0  0
   17.6160  -22.4555   -8.8316 C   0  0  0  0  0  0  0  0  0  0  0  0
   18.7563  -22.7276   -9.7893 C   0  0  0  0  0  0  0  0  0  0  0  0
   18.1226  -23.0459  -11.1291 C   0  0  0  0  0  0  0  0  0  0  0  0
   19.2171  -23.3324  -12.1345 C   0  0  2  0  0  0  0  0  0  0  0  0
   20.0632  -22.1443  -12.1850 N   0  0  0  0  0  0  0  0  0  0  0  0
   18.5546  -23.5844  -13.4285 C   0  0  0  0  0  0  0  0  0  0  0  0
   17.9582  -24.7938  -13.6829 O   0  0  0  0  0  0  0  0  0  0  0  0
   18.5413  -22.6874  -14.2895 O   0  0  0  0  0  0  0  0  0  0  0  0
  2  1  1  6
  3  4  1  0
  3  2  1  0
  4  5  2  0
  5  6  1  0
  7  6  1  0
  8  7  2  0
  9  8  1  0
 10 11  1  0
 10  9  2  0
 11 12  2  0
 12  4  1  0
 12  7  1  0
 13  2  1  0
 14 13  2  0
 16 15  1  0
 17 16  2  0
 18 16  1  0
 19 20  1  0
 19 18  1  6
 20 13  1  0
 21 19  1  0
 22 21  2  0
 24 23  1  0
 24 25  2  0
 26 27  1  0
 26 24  1  0
 27 28  1  0
 28 29  1  0
 30 29  1  1
 30 31  1  0
 31 21  1  0
 32 30  1  0
 33 32  1  0
 34 32  2  0
M  END
$$$$
