WNR.pdb
     RDKit          3D

 34 35  0  0  1  0  0  0  0  0999 V2000
   27.5915  -21.7179  -15.3806 N   0  0  0  0  0  0  0  0  0  0  0  0
   27.0132  -21.1540  -14.1918 C   0  0  1  0  0  0  0  0  0  0  0  0
   27.5912  -19.8028  -13.8522 C   0  0  0  0  0  0  0  0  0  0  0  0
   27.7051  -18.9473  -15.0601 C   0  0  0  0  0  0  0  0  0  0  0  0
   28.4401  -19.1382  -16.2073 C   0  0  0  0  0  0  0  0  0  0  0  0
   28.2405  -18.0990  -17.0383 N   0  0  0  0  0  0  0  0  0  0  0  0
   27.3928  -17.2242  -16.4730 C   0  0  0  0  0  0  0  0  0  0  0  0
   26.8578  -16.0222  -16.8696 C   0  0  0  0  0  0  0  0  0  0  0  0
   25.9963  -15.3401  -16.0564 C   0  0  0  0  0  0  0  0  0  0  0  0
   25.6387  -15.8337  -14.8195 C   0  0  0  0  0  0  0  0  0  0  0  0
   26.1868  -17.0468  -14.4350 C   0  0  0  0  0  0  0  0  0  0  0  0
   27.0491  -17.7337  -15.2439 C   0  0  0  0  0  0  0  0  0  0  0  0
   25.5481  -21.1765  -14.2637 C   0  0  0  0  0  0  0  0  0  0  0  0
   25.0353  -21.3465  -15.4287 O   0  0  0  0  0  0  0  0  0  0  0  0
   20.6801  -22.8973  -12.7455 N   0  0  0  0  0  0  0  0  0  0  0  0
   21.3063  -21.9183  -11.8640 C   0  0  0  0  0  0  0  0  0  0  0  0
   20.5551  -21.3707  -11.0433 O   0  0  0  0  0  0  0  0  0  0  0  0
   22.7167  -21.6879  -12.0331 C   0  0  0  0  0  0  0  0  0  0  0  0
   23.2188  -21.1948  -13.3696 C   0  0  2  0  0  0  0  0  0  0  0  0
   24.6987  -21.0252  -13.1487 N   0  0  0  0  0  0  0  0  0  0  0  0
   22.6884  -19.8725  -13.7393 C   0  0  0  0  0  0  0  0  0  0  0  0
   22.7733  -18.9421  -12.8472 O   0  0  0  0  0  0  0  0  0  0  0  0
   18.4351  -16.3112  -20.3596 N   0  0  0  0  0  0  0  0  0  0  0  0
   18.7559  -15.1528  -19.5927 C   0  0  0  0  0  0  0  0  0  0  0  0
   18.1105  -14.0861  -19.8594 N   0  0  0  0  0  0  0  0  0  0  0  0
   19.7452  -15.2113  -18.5930 N   0  0  0  0  0  0  0  0  0  0  0  0
   20.3870  -16.4514  -18.2734 C   0  0  0  0  0  0  0  0  0  0  0  0
   20.5056  -16.6412  -16.7763 C   0  0  0  0  0  0  0  0  0  0  0  0
   21.2097  -17.9674  -16.5680 C   0  0  0  0  0  0  0  0  0  0  0  0
   21.3423  -18.2252  -15.0824 C   0  0  2  0  0  0  0  0  0  0  0  0
   22.1006  -19.4637  -14.9366 N   0  0  0  0  0  0  0  0  0  0  0  0
   19.9739  -18.3585  -14.5472 C   0  0  0  0  0  0  0  0  0  0  0  0
   19.4438  -17.3855  -13.7376 O   0  0  0  0  0  0  0  0  0  0  0  0
   19.3027  -19.3640  -14.8377 O   0  0  0  0  0  0  0  0  0  0  0  0
  2  1  1  6
  3  4  1  0
  3  2  1  0
  4  5  2  0
  5  6  1  0
  7  6  1  0
  8  7  2  0
  9  8  1  0
 10 11  1  0
 10  9  2  0
 11 12  2  0
 12  4  1  0
 12  7  1  0
 13  2  1  0
 14 13  2  0
 16 15  1  0
 17 16  2  0
 18 16  1  0
 19 20  1  0
 19 18  1  1
 20 13  1  0
 21 19  1  0
 22 21  2  0
 24 23  1  0
 24 25  2  0
 26 27  1  0
 26 24  1  0
 27 28  1  0
 28 29  1  0
 30 29  1  6
 30 31  1  0
 31 21  1  0
 32 30  1  0
 33 32  1  0
 34 32  2  0
M  END
$$$$
