WNR.pdb
     RDKit          3D

 34 35  0  0  1  0  0  0  0  0999 V2000
   27.5578  -22.4262  -14.1892 N   0  0  0  0  0  0  0  0  0  0  0  0
   26.5643  -21.7347  -13.4145 C   0  0  1  0  0  0  0  0  0  0  0  0
   27.0108  -20.3549  -13.0002 C   0  0  0  0  0  0  0  0  0  0  0  0
   27.9749  -20.4172  -11.8729 C   0  0  0  0  0  0  0  0  0  0  0  0
   29.3489  -20.4826  -11.8930 C   0  0  0  0  0  0  0  0  0  0  0  0
   29.8080  -20.5254  -10.6289 N   0  0  0  0  0  0  0  0  0  0  0  0
   28.7752  -20.4900   -9.7713 C   0  0  0  0  0  0  0  0  0  0  0  0
   28.6724  -20.5069   -8.4011 C   0  0  0  0  0  0  0  0  0  0  0  0
   27.4490  -20.4580   -7.7929 C   0  0  0  0  0  0  0  0  0  0  0  0
   26.2861  -20.3902   -8.5308 C   0  0  0  0  0  0  0  0  0  0  0  0
   26.4075  -20.3737   -9.9110 C   0  0  0  0  0  0  0  0  0  0  0  0
   27.6282  -20.4225  -10.5250 C   0  0  0  0  0  0  0  0  0  0  0  0
   25.2627  -21.7638  -14.0907 C   0  0  0  0  0  0  0  0  0  0  0  0
   25.2735  -21.5713  -15.3603 O   0  0  0  0  0  0  0  0  0  0  0  0
   20.3204  -22.7788  -15.4612 N   0  0  0  0  0  0  0  0  0  0  0  0
   20.9598  -23.7629  -14.5950 C   0  0  0  0  0  0  0  0  0  0  0  0
   20.3870  -24.8592  -14.5066 O   0  0  0  0  0  0  0  0  0  0  0  0
   22.1770  -23.3679  -13.9368 C   0  0  0  0  0  0  0  0  0  0  0  0
   22.7890  -22.0303  -14.2795 C   0  0  2  0  0  0  0  0  0  0  0  0
   24.0349  -21.9864  -13.4347 N   0  0  0  0  0  0  0  0  0  0  0  0
   21.9566  -20.8870  -13.8716 C   0  0  0  0  0  0  0  0  0  0  0  0
   21.7050  -20.7722  -12.6098 O   0  0  0  0  0  0  0  0  0  0  0  0
   21.5150  -13.4805  -15.7289 N   0  0  0  0  0  0  0  0  0  0  0  0
   22.3704  -14.5084  -16.2234 C   0  0  0  0  0  0  0  0  0  0  0  0
   23.6149  -14.2407  -16.2936 N   0  0  0  0  0  0  0  0  0  0  0  0
   21.8389  -15.7530  -16.6107 N   0  0  0  0  0  0  0  0  0  0  0  0
   20.4429  -16.0317  -16.4514 C   0  0  0  0  0  0  0  0  0  0  0  0
   20.1565  -16.6624  -15.1055 C   0  0  0  0  0  0  0  0  0  0  0  0
   19.9263  -18.1381  -15.3652 C   0  0  0  0  0  0  0  0  0  0  0  0
   20.4053  -18.9284  -14.1665 C   0  0  2  0  0  0  0  0  0  0  0  0
   21.3915  -19.8844  -14.6600 N   0  0  0  0  0  0  0  0  0  0  0  0
   19.2237  -19.6078  -13.6017 C   0  0  0  0  0  0  0  0  0  0  0  0
   18.7446  -19.2600  -12.3637 O   0  0  0  0  0  0  0  0  0  0  0  0
   18.6637  -20.5016  -14.2601 O   0  0  0  0  0  0  0  0  0  0  0  0
  2  1  1  6
  3  4  1  0
  3  2  1  0
  4  5  2  0
  5  6  1  0
  7  6  1  0
  8  7  2  0
  9  8  1  0
 10 11  1  0
 10  9  2  0
 11 12  2  0
 12  4  1  0
 12  7  1  0
 13  2  1  0
 14 13  2  0
 16 15  1  0
 17 16  2  0
 18 16  1  0
 19 20  1  0
 19 18  1  1
 20 13  1  0
 21 19  1  0
 22 21  2  0
 24 23  1  0
 24 25  2  0
 26 27  1  0
 26 24  1  0
 27 28  1  0
 28 29  1  0
 30 29  1  6
 30 31  1  0
 31 21  1  0
 32 30  1  0
 33 32  1  0
 34 32  2  0
M  END
$$$$
