WNR.pdb
     RDKit          3D

 34 35  0  0  1  0  0  0  0  0999 V2000
   26.8438  -18.8018  -10.8893 N   0  0  0  0  0  0  0  0  0  0  0  0
   26.8682  -20.1899  -11.2612 C   0  0  1  0  0  0  0  0  0  0  0  0
   26.5959  -21.1062  -10.0946 C   0  0  0  0  0  0  0  0  0  0  0  0
   27.3815  -20.7051   -8.9005 C   0  0  0  0  0  0  0  0  0  0  0  0
   26.9615  -20.1286   -7.7241 C   0  0  0  0  0  0  0  0  0  0  0  0
   28.0243  -19.9372   -6.9214 N   0  0  0  0  0  0  0  0  0  0  0  0
   29.1376  -20.3715   -7.5340 C   0  0  0  0  0  0  0  0  0  0  0  0
   30.4648  -20.4166   -7.1806 C   0  0  0  0  0  0  0  0  0  0  0  0
   31.3975  -20.9309   -8.0376 C   0  0  0  0  0  0  0  0  0  0  0  0
   31.0384  -21.4181   -9.2765 C   0  0  0  0  0  0  0  0  0  0  0  0
   29.6963  -21.3654   -9.6171 C   0  0  0  0  0  0  0  0  0  0  0  0
   28.7587  -20.8521   -8.7643 C   0  0  0  0  0  0  0  0  0  0  0  0
   26.0092  -20.4327  -12.4254 C   0  0  0  0  0  0  0  0  0  0  0  0
   24.9476  -19.7154  -12.5123 O   0  0  0  0  0  0  0  0  0  0  0  0
   26.0300  -20.8174  -17.8715 N   0  0  0  0  0  0  0  0  0  0  0  0
   25.8139  -22.0195  -17.0741 C   0  0  0  0  0  0  0  0  0  0  0  0
   25.2385  -22.9547  -17.6503 O   0  0  0  0  0  0  0  0  0  0  0  0
   26.2839  -22.0002  -15.7141 C   0  0  0  0  0  0  0  0  0  0  0  0
   25.4040  -21.3911  -14.6482 C   0  0  2  0  0  0  0  0  0  0  0  0
   26.2833  -21.3876  -13.4256 N   0  0  0  0  0  0  0  0  0  0  0  0
   24.2268  -22.2131  -14.3246 C   0  0  0  0  0  0  0  0  0  0  0  0
   24.3899  -23.4944  -14.3429 O   0  0  0  0  0  0  0  0  0  0  0  0
   19.0799  -23.4405   -8.3740 N   0  0  0  0  0  0  0  0  0  0  0  0
   18.5529  -24.3273   -9.3581 C   0  0  0  0  0  0  0  0  0  0  0  0
   17.9342  -25.3586   -8.9349 N   0  0  0  0  0  0  0  0  0  0  0  0
   18.7229  -24.0535  -10.7285 N   0  0  0  0  0  0  0  0  0  0  0  0
   19.6606  -23.0620  -11.1635 C   0  0  0  0  0  0  0  0  0  0  0  0
   19.6214  -22.8877  -12.6667 C   0  0  0  0  0  0  0  0  0  0  0  0
   20.7600  -21.9506  -13.0183 C   0  0  0  0  0  0  0  0  0  0  0  0
   21.8360  -22.7338  -13.7393 C   0  0  2  0  0  0  0  0  0  0  0  0
   22.9353  -21.8067  -13.9884 N   0  0  0  0  0  0  0  0  0  0  0  0
   21.2398  -23.2220  -14.9974 C   0  0  0  0  0  0  0  0  0  0  0  0
   20.6746  -24.4708  -15.0628 O   0  0  0  0  0  0  0  0  0  0  0  0
   21.2540  -22.4889  -16.0016 O   0  0  0  0  0  0  0  0  0  0  0  0
  2  1  1  1
  3  4  1  0
  3  2  1  0
  4  5  2  0
  5  6  1  0
  7  6  1  0
  8  7  2  0
  9  8  1  0
 10 11  1  0
 10  9  2  0
 11 12  2  0
 12  4  1  0
 12  7  1  0
 13  2  1  0
 14 13  2  0
 16 15  1  0
 17 16  2  0
 18 16  1  0
 19 20  1  0
 19 18  1  6
 20 13  1  0
 21 19  1  0
 22 21  2  0
 24 23  1  0
 24 25  2  0
 26 27  1  0
 26 24  1  0
 27 28  1  0
 28 29  1  0
 30 29  1  1
 30 31  1  0
 31 21  1  0
 32 30  1  0
 33 32  1  0
 34 32  2  0
M  END
$$$$
