WNR.pdb
     RDKit          3D

 34 35  0  0  1  0  0  0  0  0999 V2000
   24.7768  -15.8667  -18.6697 N   0  0  0  0  0  0  0  0  0  0  0  0
   24.9447  -16.9133  -17.6990 C   0  0  1  0  0  0  0  0  0  0  0  0
   25.3620  -16.3878  -16.3482 C   0  0  0  0  0  0  0  0  0  0  0  0
   26.7342  -15.8228  -16.3910 C   0  0  0  0  0  0  0  0  0  0  0  0
   27.1547  -14.5214  -16.2422 C   0  0  0  0  0  0  0  0  0  0  0  0
   28.4944  -14.4736  -16.3591 N   0  0  0  0  0  0  0  0  0  0  0  0
   28.9732  -15.7084  -16.5812 C   0  0  0  0  0  0  0  0  0  0  0  0
   30.2333  -16.2228  -16.7711 C   0  0  0  0  0  0  0  0  0  0  0  0
   30.4158  -17.5613  -16.9805 C   0  0  0  0  0  0  0  0  0  0  0  0
   29.3476  -18.4329  -17.0075 C   0  0  0  0  0  0  0  0  0  0  0  0
   28.0841  -17.8980  -16.8142 C   0  0  0  0  0  0  0  0  0  0  0  0
   27.8951  -16.5602  -16.6043 C   0  0  0  0  0  0  0  0  0  0  0  0
   23.7654  -17.7850  -17.6631 C   0  0  0  0  0  0  0  0  0  0  0  0
   22.6303  -17.2202  -17.8675 O   0  0  0  0  0  0  0  0  0  0  0  0
   22.0749  -23.2383  -19.3396 N   0  0  0  0  0  0  0  0  0  0  0  0
   21.8263  -22.1980  -18.3479 C   0  0  0  0  0  0  0  0  0  0  0  0
   20.7378  -22.2625  -17.7573 O   0  0  0  0  0  0  0  0  0  0  0  0
   22.8566  -21.2118  -18.1564 C   0  0  0  0  0  0  0  0  0  0  0  0
   22.5131  -19.9309  -17.4334 C   0  0  2  0  0  0  0  0  0  0  0  0
   23.8145  -19.1732  -17.4222 N   0  0  0  0  0  0  0  0  0  0  0  0
   22.1291  -20.1400  -16.0280 C   0  0  0  0  0  0  0  0  0  0  0  0
   23.0378  -20.6144  -15.2418 O   0  0  0  0  0  0  0  0  0  0  0  0
   20.7827  -19.9468   -8.1905 N   0  0  0  0  0  0  0  0  0  0  0  0
   20.6499  -21.1100   -9.0044 C   0  0  0  0  0  0  0  0  0  0  0  0
   20.1125  -22.1334   -8.4666 N   0  0  0  0  0  0  0  0  0  0  0  0
   21.1009  -21.1021  -10.3378 N   0  0  0  0  0  0  0  0  0  0  0  0
   21.5852  -19.8947  -10.9371 C   0  0  0  0  0  0  0  0  0  0  0  0
   20.5148  -19.2256  -11.7725 C   0  0  0  0  0  0  0  0  0  0  0  0
   21.0900  -19.0798  -13.1674 C   0  0  0  0  0  0  0  0  0  0  0  0
   20.6226  -20.2429  -14.0157 C   0  0  2  0  0  0  0  0  0  0  0  0
   20.9065  -19.8920  -15.4036 N   0  0  0  0  0  0  0  0  0  0  0  0
   19.1743  -20.3920  -13.7772 C   0  0  0  0  0  0  0  0  0  0  0  0
   18.7149  -21.0600  -12.6701 O   0  0  0  0  0  0  0  0  0  0  0  0
   18.3707  -19.9047  -14.5914 O   0  0  0  0  0  0  0  0  0  0  0  0
  2  1  1  6
  3  4  1  0
  3  2  1  0
  4  5  2  0
  5  6  1  0
  7  6  1  0
  8  7  2  0
  9  8  1  0
 10 11  1  0
 10  9  2  0
 11 12  2  0
 12  4  1  0
 12  7  1  0
 13  2  1  0
 14 13  2  0
 16 15  1  0
 17 16  2  0
 18 16  1  0
 19 20  1  0
 19 18  1  1
 20 13  1  0
 21 19  1  0
 22 21  2  0
 24 23  1  0
 24 25  2  0
 26 27  1  0
 26 24  1  0
 27 28  1  0
 28 29  1  0
 30 29  1  1
 30 31  1  0
 31 21  1  0
 32 30  1  0
 33 32  1  0
 34 32  2  0
M  END
$$$$
