WNR.pdb
     RDKit          3D

 34 35  0  0  1  0  0  0  0  0999 V2000
   23.9009  -20.5815  -16.7113 N   0  0  0  0  0  0  0  0  0  0  0  0
   22.5114  -20.2766  -16.5067 C   0  0  1  0  0  0  0  0  0  0  0  0
   21.6589  -20.6349  -17.6982 C   0  0  0  0  0  0  0  0  0  0  0  0
   22.0263  -19.8238  -18.8861 C   0  0  0  0  0  0  0  0  0  0  0  0
   22.9368  -20.0867  -19.8834 C   0  0  0  0  0  0  0  0  0  0  0  0
   22.9409  -19.0649  -20.7588 N   0  0  0  0  0  0  0  0  0  0  0  0
   22.0574  -18.1318  -20.3688 C   0  0  0  0  0  0  0  0  0  0  0  0
   21.6655  -16.9173  -20.8786 C   0  0  0  0  0  0  0  0  0  0  0  0
   20.7151  -16.1681  -20.2427 C   0  0  0  0  0  0  0  0  0  0  0  0
   20.1228  -16.6047  -19.0766 C   0  0  0  0  0  0  0  0  0  0  0  0
   20.5291  -17.8313  -18.5763 C   0  0  0  0  0  0  0  0  0  0  0  0
   21.4793  -18.5851  -19.2076 C   0  0  0  0  0  0  0  0  0  0  0  0
   22.0350  -20.8414  -15.2393 C   0  0  0  0  0  0  0  0  0  0  0  0
   22.6172  -21.9127  -14.8360 O   0  0  0  0  0  0  0  0  0  0  0  0
   20.3339  -21.5656  -10.4105 N   0  0  0  0  0  0  0  0  0  0  0  0
   20.4976  -20.1598  -10.7634 C   0  0  0  0  0  0  0  0  0  0  0  0
   20.4099  -19.3529   -9.8259 O   0  0  0  0  0  0  0  0  0  0  0  0
   20.7412  -19.8531  -12.1482 C   0  0  0  0  0  0  0  0  0  0  0  0
   20.6510  -20.9646  -13.1669 C   0  0  2  0  0  0  0  0  0  0  0  0
   20.9989  -20.2826  -14.4636 N   0  0  0  0  0  0  0  0  0  0  0  0
   19.2905  -21.5049  -13.3207 C   0  0  0  0  0  0  0  0  0  0  0  0
   18.3219  -20.6501  -13.3165 O   0  0  0  0  0  0  0  0  0  0  0  0
   18.7776  -24.6822   -6.6309 N   0  0  0  0  0  0  0  0  0  0  0  0
   17.9680  -25.7640   -7.0861 C   0  0  0  0  0  0  0  0  0  0  0  0
   17.2756  -26.3770   -6.2083 N   0  0  0  0  0  0  0  0  0  0  0  0
   17.9530  -26.1190   -8.4482 N   0  0  0  0  0  0  0  0  0  0  0  0
   18.7237  -25.3805   -9.4032 C   0  0  0  0  0  0  0  0  0  0  0  0
   17.8411  -24.7708  -10.4712 C   0  0  0  0  0  0  0  0  0  0  0  0
   18.7699  -24.0816  -11.4512 C   0  0  0  0  0  0  0  0  0  0  0  0
   17.9477  -23.4997  -12.5811 C   0  0  2  0  0  0  0  0  0  0  0  0
   18.8825  -22.8295  -13.4794 N   0  0  0  0  0  0  0  0  0  0  0  0
   16.9986  -22.5474  -11.9736 C   0  0  0  0  0  0  0  0  0  0  0  0
   15.6469  -22.6972  -12.1568 O   0  0  0  0  0  0  0  0  0  0  0  0
   17.4362  -21.6045  -11.2914 O   0  0  0  0  0  0  0  0  0  0  0  0
  2  1  1  6
  3  4  1  0
  3  2  1  0
  4  5  2  0
  5  6  1  0
  7  6  1  0
  8  7  2  0
  9  8  1  0
 10 11  1  0
 10  9  2  0
 11 12  2  0
 12  4  1  0
 12  7  1  0
 13  2  1  0
 14 13  2  0
 16 15  1  0
 17 16  2  0
 18 16  1  0
 19 20  1  0
 19 18  1  1
 20 13  1  0
 21 19  1  0
 22 21  2  0
 24 23  1  0
 24 25  2  0
 26 27  1  0
 26 24  1  0
 27 28  1  0
 28 29  1  0
 30 29  1  1
 30 31  1  0
 31 21  1  0
 32 30  1  0
 33 32  1  0
 34 32  2  0
M  END
$$$$
