EYP.pdb
     RDKit          3D

 29 30  0  0  1  0  0  0  0  0999 V2000
   42.3189   -5.9620   -4.8584 N   0  0  0  0  0  0  0  0  0  0  0  0
   42.2683   -6.2276   -6.3084 C   0  0  1  0  0  0  0  0  0  0  0  0
   43.4509   -5.4783   -6.8796 C   0  0  0  0  0  0  0  0  0  0  0  0
   44.7778   -5.9852   -6.4405 C   0  0  0  0  0  0  0  0  0  0  0  0
   45.9106   -5.2038   -6.9842 C   0  0  0  0  0  0  0  0  0  0  0  0
   46.0065   -3.9511   -6.9475 O   0  0  0  0  0  0  0  0  0  0  0  0
   42.3828   -7.6844   -6.5106 C   0  0  0  0  0  0  0  0  0  0  0  0
   42.9710   -8.4318   -5.6894 O   0  0  0  0  0  0  0  0  0  0  0  0
   47.0008   -5.8487   -7.6047 O   0  0  0  0  0  0  0  0  0  0  0  0
   35.9576   -8.4736   -6.2563 O   0  0  0  0  0  0  0  0  0  0  0  0
   37.1244   -8.8628   -6.8901 C   0  0  0  0  0  0  0  0  0  0  0  0
   37.5854   -8.2507   -8.0325 C   0  0  0  0  0  0  0  0  0  0  0  0
   38.7481   -8.6491   -8.6519 C   0  0  0  0  0  0  0  0  0  0  0  0
   39.4685   -9.6925   -8.1079 C   0  0  0  0  0  0  0  0  0  0  0  0
   40.7315  -10.1735   -8.7265 C   0  0  0  0  0  0  0  0  0  0  0  0
   41.9127   -9.7029   -7.8896 C   0  0  2  0  0  0  0  0  0  0  0  0
   41.8188   -8.2945   -7.6643 N   0  0  0  0  0  0  0  0  0  0  0  0
   43.1770  -10.1992   -8.4597 C   0  0  0  0  0  0  0  0  0  0  0  0
   43.6866   -9.3468   -9.3132 O   0  0  0  0  0  0  0  0  0  0  0  0
   39.0353  -10.3272   -6.9650 C   0  0  0  0  0  0  0  0  0  0  0  0
   37.8515   -9.8921   -6.3688 C   0  0  0  0  0  0  0  0  0  0  0  0
   43.8526  -11.3981   -8.2101 N   0  0  0  0  0  0  0  0  0  0  0  0
   43.2880  -12.4667   -7.4077 C   0  0  0  0  0  0  0  0  0  0  0  0
   44.4798  -13.2097   -6.8693 C   0  0  0  0  0  0  0  0  0  0  0  0
   45.6980  -12.4642   -7.3600 C   0  0  0  0  0  0  0  0  0  0  0  0
   45.1213  -11.8437   -8.6515 C   0  0  1  0  0  0  0  0  0  0  0  0
   45.0238  -12.9911   -9.6102 C   0  0  0  0  0  0  0  0  0  0  0  0
   46.0456  -13.5130  -10.1327 O   0  0  0  0  0  0  0  0  0  0  0  0
   43.7900  -13.5199   -9.9555 O   0  0  0  0  0  0  0  0  0  0  0  0
  2  1  1  1
  3  2  1  0
  4  3  1  0
  4  5  1  0
  5  9  1  0
  5  6  2  0
  7  2  1  0
  7  8  2  0
 10 11  1  0
 11 12  2  0
 12 13  1  0
 14 15  1  0
 14 13  2  0
 16 17  1  0
 16 15  1  6
 17  7  1  0
 18 16  1  0
 19 18  2  0
 20 14  1  0
 21 11  1  0
 21 20  2  0
 22 18  1  0
 22 26  1  0
 23 22  1  0
 24 23  1  0
 24 25  1  0
 25 26  1  0
 26 27  1  6
 27 29  1  0
 28 27  2  0
M  END
$$$$
