EYP.pdb
     RDKit          3D

 29 30  0  0  1  0  0  0  0  0999 V2000
   28.7053  -20.9218  -19.5104 N   0  0  0  0  0  0  0  0  0  0  0  0
   28.2193  -19.8288  -18.6473 C   0  0  1  0  0  0  0  0  0  0  0  0
   27.0923  -19.1919  -19.4289 C   0  0  0  0  0  0  0  0  0  0  0  0
   27.5207  -18.1464  -20.3953 C   0  0  0  0  0  0  0  0  0  0  0  0
   28.0290  -16.9201  -19.7418 C   0  0  0  0  0  0  0  0  0  0  0  0
   29.1736  -16.4310  -19.9161 O   0  0  0  0  0  0  0  0  0  0  0  0
   27.7516  -20.4209  -17.3797 C   0  0  0  0  0  0  0  0  0  0  0  0
   27.1804  -21.5391  -17.3315 O   0  0  0  0  0  0  0  0  0  0  0  0
   27.2211  -16.1934  -18.8424 O   0  0  0  0  0  0  0  0  0  0  0  0
   25.0242  -20.8547   -9.1080 O   0  0  0  0  0  0  0  0  0  0  0  0
   25.6967  -20.4687  -10.2539 C   0  0  0  0  0  0  0  0  0  0  0  0
   25.3292  -19.3677  -10.9920 C   0  0  0  0  0  0  0  0  0  0  0  0
   26.0080  -18.9960  -12.1302 C   0  0  0  0  0  0  0  0  0  0  0  0
   27.0873  -19.7524  -12.5385 C   0  0  0  0  0  0  0  0  0  0  0  0
   27.8635  -19.4077  -13.7583 C   0  0  0  0  0  0  0  0  0  0  0  0
   27.2537  -20.1161  -14.9597 C   0  0  2  0  0  0  0  0  0  0  0  0
   27.9386  -19.7275  -16.1526 N   0  0  0  0  0  0  0  0  0  0  0  0
   25.7887  -19.9631  -14.9578 C   0  0  0  0  0  0  0  0  0  0  0  0
   25.4301  -18.7656  -15.3474 O   0  0  0  0  0  0  0  0  0  0  0  0
   27.4820  -20.8607  -11.8227 C   0  0  0  0  0  0  0  0  0  0  0  0
   26.7663  -21.2025  -10.6749 C   0  0  0  0  0  0  0  0  0  0  0  0
   24.8004  -20.8901  -14.6111 N   0  0  0  0  0  0  0  0  0  0  0  0
   25.0979  -22.1469  -13.9504 C   0  0  0  0  0  0  0  0  0  0  0  0
   23.9649  -23.0579  -14.3362 C   0  0  0  0  0  0  0  0  0  0  0  0
   23.0872  -22.2646  -15.2748 C   0  0  0  0  0  0  0  0  0  0  0  0
   23.3957  -20.8360  -14.7753 C   0  0  1  0  0  0  0  0  0  0  0  0
   22.6700  -20.7283  -13.4689 C   0  0  0  0  0  0  0  0  0  0  0  0
   21.4289  -20.5139  -13.4104 O   0  0  0  0  0  0  0  0  0  0  0  0
   23.3513  -20.8632  -12.2694 O   0  0  0  0  0  0  0  0  0  0  0  0
  2  1  1  6
  3  2  1  0
  4  3  1  0
  4  5  1  0
  5  9  1  0
  5  6  2  0
  7  2  1  0
  7  8  2  0
 10 11  1  0
 11 12  2  0
 12 13  1  0
 14 15  1  0
 14 13  2  0
 16 17  1  0
 16 15  1  1
 17  7  1  0
 18 16  1  0
 19 18  2  0
 20 14  1  0
 21 11  1  0
 21 20  2  0
 22 18  1  0
 22 26  1  0
 23 22  1  0
 24 23  1  0
 24 25  1  0
 25 26  1  0
 26 27  1  1
 27 29  1  0
 28 27  2  0
M  END
$$$$
