EYP.pdb
     RDKit          3D

 29 30  0  0  1  0  0  0  0  0999 V2000
   25.2655  -11.8560  -16.9441 N   0  0  0  0  0  0  0  0  0  0  0  0
   25.1365  -10.7463  -15.9810 C   0  0  1  0  0  0  0  0  0  0  0  0
   26.3087   -9.8387  -16.2787 C   0  0  0  0  0  0  0  0  0  0  0  0
   27.6428  -10.4759  -16.1212 C   0  0  0  0  0  0  0  0  0  0  0  0
   28.6290  -10.0220  -17.1264 C   0  0  0  0  0  0  0  0  0  0  0  0
   28.3729   -9.2693  -18.0998 O   0  0  0  0  0  0  0  0  0  0  0  0
   23.8424  -10.0803  -16.2217 C   0  0  0  0  0  0  0  0  0  0  0  0
   23.2734  -10.1039  -17.3417 O   0  0  0  0  0  0  0  0  0  0  0  0
   29.9782  -10.4259  -17.0478 O   0  0  0  0  0  0  0  0  0  0  0  0
   18.7935  -14.1769  -16.2675 O   0  0  0  0  0  0  0  0  0  0  0  0
   19.2923  -12.9648  -15.8243 C   0  0  0  0  0  0  0  0  0  0  0  0
   18.9068  -11.7622  -16.3694 C   0  0  0  0  0  0  0  0  0  0  0  0
   19.4119  -10.5642  -15.9179 C   0  0  0  0  0  0  0  0  0  0  0  0
   20.3310  -10.5748  -14.8888 C   0  0  0  0  0  0  0  0  0  0  0  0
   20.9168   -9.3177  -14.3543 C   0  0  0  0  0  0  0  0  0  0  0  0
   21.9157   -8.7610  -15.3589 C   0  0  2  0  0  0  0  0  0  0  0  0
   23.1907   -9.3790  -15.1706 N   0  0  0  0  0  0  0  0  0  0  0  0
   21.8863   -7.2883  -15.3513 C   0  0  0  0  0  0  0  0  0  0  0  0
   22.6198   -6.7981  -14.3837 O   0  0  0  0  0  0  0  0  0  0  0  0
   20.7386  -11.7611  -14.3205 C   0  0  0  0  0  0  0  0  0  0  0  0
   20.2018  -12.9529  -14.8081 C   0  0  0  0  0  0  0  0  0  0  0  0
   21.2095   -6.4100  -16.2038 N   0  0  0  0  0  0  0  0  0  0  0  0
   20.3282   -6.8645  -17.2627 C   0  0  0  0  0  0  0  0  0  0  0  0
   20.3423   -5.7515  -18.2744 C   0  0  0  0  0  0  0  0  0  0  0  0
   21.3091   -4.7170  -17.7493 C   0  0  0  0  0  0  0  0  0  0  0  0
   21.1914   -4.9952  -16.2345 C   0  0  1  0  0  0  0  0  0  0  0  0
   19.8576   -4.4310  -15.8501 C   0  0  0  0  0  0  0  0  0  0  0  0
   18.8577   -5.1683  -15.6355 O   0  0  0  0  0  0  0  0  0  0  0  0
   19.6815   -3.0626  -15.7170 O   0  0  0  0  0  0  0  0  0  0  0  0
  2  1  1  6
  3  2  1  0
  4  3  1  0
  4  5  1  0
  5  9  1  0
  5  6  2  0
  7  2  1  0
  7  8  2  0
 10 11  1  0
 11 12  2  0
 12 13  1  0
 14 15  1  0
 14 13  2  0
 16 17  1  0
 16 15  1  1
 17  7  1  0
 18 16  1  0
 19 18  2  0
 20 14  1  0
 21 11  1  0
 21 20  2  0
 22 18  1  0
 22 26  1  0
 23 22  1  0
 24 23  1  0
 24 25  1  0
 25 26  1  0
 26 27  1  6
 27 29  1  0
 28 27  2  0
M  END
$$$$
