EYP.pdb
     RDKit          3D

 29 30  0  0  1  0  0  0  0  0999 V2000
   26.1369  -19.6223  -19.1493 N   0  0  0  0  0  0  0  0  0  0  0  0
   25.1849  -20.5013  -18.4446 C   0  0  1  0  0  0  0  0  0  0  0  0
   25.7387  -21.8962  -18.6283 C   0  0  0  0  0  0  0  0  0  0  0  0
   24.8652  -22.8133  -19.4071 C   0  0  0  0  0  0  0  0  0  0  0  0
   24.7444  -22.4345  -20.8323 C   0  0  0  0  0  0  0  0  0  0  0  0
   23.7011  -21.9910  -21.3751 O   0  0  0  0  0  0  0  0  0  0  0  0
   25.1540  -20.0976  -17.0260 C   0  0  0  0  0  0  0  0  0  0  0  0
   26.2009  -19.9537  -16.3462 O   0  0  0  0  0  0  0  0  0  0  0  0
   25.8445  -22.5543  -21.7070 O   0  0  0  0  0  0  0  0  0  0  0  0
   17.8049  -21.2234  -14.1739 O   0  0  0  0  0  0  0  0  0  0  0  0
   19.0193  -20.5834  -14.3478 C   0  0  0  0  0  0  0  0  0  0  0  0
   19.9696  -21.0289  -15.2370 C   0  0  0  0  0  0  0  0  0  0  0  0
   21.1734  -20.3817  -15.3991 C   0  0  0  0  0  0  0  0  0  0  0  0
   21.4298  -19.2543  -14.6461 C   0  0  0  0  0  0  0  0  0  0  0  0
   22.7094  -18.5084  -14.7708 C   0  0  0  0  0  0  0  0  0  0  0  0
   23.8470  -19.4946  -14.9949 C   0  0  2  0  0  0  0  0  0  0  0  0
   23.9127  -19.8555  -16.3765 N   0  0  0  0  0  0  0  0  0  0  0  0
   23.7677  -20.6003  -14.0250 C   0  0  0  0  0  0  0  0  0  0  0  0
   23.4412  -21.7272  -14.6066 O   0  0  0  0  0  0  0  0  0  0  0  0
   20.5003  -18.7814  -13.7468 C   0  0  0  0  0  0  0  0  0  0  0  0
   19.2928  -19.4674  -13.6134 C   0  0  0  0  0  0  0  0  0  0  0  0
   23.9874  -20.5863  -12.6438 N   0  0  0  0  0  0  0  0  0  0  0  0
   24.2780  -19.3716  -11.9059 C   0  0  0  0  0  0  0  0  0  0  0  0
   25.0463  -19.8338  -10.6982 C   0  0  0  0  0  0  0  0  0  0  0  0
   25.2099  -21.3275  -10.8491 C   0  0  0  0  0  0  0  0  0  0  0  0
   23.9607  -21.6418  -11.7013 C   0  0  1  0  0  0  0  0  0  0  0  0
   22.8130  -21.5268  -10.7449 C   0  0  0  0  0  0  0  0  0  0  0  0
   22.5521  -22.4290   -9.9037 O   0  0  0  0  0  0  0  0  0  0  0  0
   21.9930  -20.4094  -10.7569 O   0  0  0  0  0  0  0  0  0  0  0  0
  2  1  1  6
  3  2  1  0
  4  3  1  0
  4  5  1  0
  5  9  1  0
  5  6  2  0
  7  2  1  0
  7  8  2  0
 10 11  1  0
 11 12  2  0
 12 13  1  0
 14 15  1  0
 14 13  2  0
 16 17  1  0
 16 15  1  6
 17  7  1  0
 18 16  1  0
 19 18  2  0
 20 14  1  0
 21 11  1  0
 21 20  2  0
 22 18  1  0
 22 26  1  0
 23 22  1  0
 24 23  1  0
 24 25  1  0
 25 26  1  0
 26 27  1  1
 27 29  1  0
 28 27  2  0
M  END
$$$$
