EYP.pdb
     RDKit          3D

 29 30  0  0  1  0  0  0  0  0999 V2000
   16.4794   -8.2157  -14.9824 N   0  0  0  0  0  0  0  0  0  0  0  0
   17.6109   -9.0078  -14.4647 C   0  0  1  0  0  0  0  0  0  0  0  0
   17.0980  -10.4295  -14.4191 C   0  0  0  0  0  0  0  0  0  0  0  0
   16.7478  -11.0058  -15.7441 C   0  0  0  0  0  0  0  0  0  0  0  0
   16.3807  -12.4378  -15.6794 C   0  0  0  0  0  0  0  0  0  0  0  0
   15.2153  -12.8769  -15.5097 O   0  0  0  0  0  0  0  0  0  0  0  0
   18.7418   -8.8545  -15.3995 C   0  0  0  0  0  0  0  0  0  0  0  0
   18.5744   -8.6389  -16.6260 O   0  0  0  0  0  0  0  0  0  0  0  0
   17.3628  -13.4416  -15.8107 O   0  0  0  0  0  0  0  0  0  0  0  0
   21.8274   -2.5821  -14.3151 O   0  0  0  0  0  0  0  0  0  0  0  0
   21.9807   -3.9442  -14.5047 C   0  0  0  0  0  0  0  0  0  0  0  0
   22.6926   -4.4689  -15.5582 C   0  0  0  0  0  0  0  0  0  0  0  0
   22.8364   -5.8264  -15.7338 C   0  0  0  0  0  0  0  0  0  0  0  0
   22.2480   -6.6813  -14.8246 C   0  0  0  0  0  0  0  0  0  0  0  0
   22.3632   -8.1574  -14.9555 C   0  0  0  0  0  0  0  0  0  0  0  0
   21.1960   -8.6821  -15.7797 C   0  0  2  0  0  0  0  0  0  0  0  0
   20.0797   -8.9485  -14.9276 N   0  0  0  0  0  0  0  0  0  0  0  0
   21.6376   -9.7814  -16.6551 C   0  0  0  0  0  0  0  0  0  0  0  0
   21.5003  -10.9453  -16.0713 O   0  0  0  0  0  0  0  0  0  0  0  0
   21.5285   -6.1893  -13.7584 C   0  0  0  0  0  0  0  0  0  0  0  0
   21.4072   -4.8066  -13.6175 C   0  0  0  0  0  0  0  0  0  0  0  0
   22.1528   -9.7286  -17.9544 N   0  0  0  0  0  0  0  0  0  0  0  0
   22.4626   -8.4814  -18.6275 C   0  0  0  0  0  0  0  0  0  0  0  0
   22.3525   -8.8016  -20.0930 C   0  0  0  0  0  0  0  0  0  0  0  0
   21.9123  -10.2437  -20.1773 C   0  0  0  0  0  0  0  0  0  0  0  0
   22.4939  -10.7721  -18.8476 C   0  0  1  0  0  0  0  0  0  0  0  0
   23.9700  -10.8590  -19.0897 C   0  0  0  0  0  0  0  0  0  0  0  0
   24.4723  -11.7363  -19.8432 O   0  0  0  0  0  0  0  0  0  0  0  0
   24.8389   -9.9650  -18.4840 O   0  0  0  0  0  0  0  0  0  0  0  0
  2  1  1  6
  3  2  1  0
  4  3  1  0
  4  5  1  0
  5  9  1  0
  5  6  2  0
  7  2  1  0
  7  8  2  0
 10 11  1  0
 11 12  2  0
 12 13  1  0
 14 15  1  0
 14 13  2  0
 16 17  1  0
 16 15  1  1
 17  7  1  0
 18 16  1  0
 19 18  2  0
 20 14  1  0
 21 11  1  0
 21 20  2  0
 22 18  1  0
 22 26  1  0
 23 22  1  0
 24 23  1  0
 24 25  1  0
 25 26  1  0
 26 27  1  6
 27 29  1  0
 28 27  2  0
M  END
$$$$
