EYP.pdb
     RDKit          3D

 29 30  0  0  1  0  0  0  0  0999 V2000
   29.5611  -22.3713  -18.0213 N   0  0  0  0  0  0  0  0  0  0  0  0
   28.6880  -21.2054  -17.7890 C   0  0  1  0  0  0  0  0  0  0  0  0
   27.8384  -21.1049  -19.0359 C   0  0  0  0  0  0  0  0  0  0  0  0
   28.2699  -21.9853  -20.1536 C   0  0  0  0  0  0  0  0  0  0  0  0
   28.3628  -21.2793  -21.4505 C   0  0  0  0  0  0  0  0  0  0  0  0
   27.4176  -21.1440  -22.2678 O   0  0  0  0  0  0  0  0  0  0  0  0
   27.8789  -21.4729  -16.5849 C   0  0  0  0  0  0  0  0  0  0  0  0
   26.9602  -22.3301  -16.5703 O   0  0  0  0  0  0  0  0  0  0  0  0
   29.5745  -20.6884  -21.8657 O   0  0  0  0  0  0  0  0  0  0  0  0
   24.4668  -20.8351   -8.6049 O   0  0  0  0  0  0  0  0  0  0  0  0
   25.2772  -20.6269   -9.7068 C   0  0  0  0  0  0  0  0  0  0  0  0
   25.1787  -19.5048  -10.4962 C   0  0  0  0  0  0  0  0  0  0  0  0
   25.9920  -19.3116  -11.5896 C   0  0  0  0  0  0  0  0  0  0  0  0
   26.9316  -20.2736  -11.8987 C   0  0  0  0  0  0  0  0  0  0  0  0
   27.8406  -20.1284  -13.0656 C   0  0  0  0  0  0  0  0  0  0  0  0
   27.2256  -20.8234  -14.2722 C   0  0  2  0  0  0  0  0  0  0  0  0
   28.1220  -20.7528  -15.3834 N   0  0  0  0  0  0  0  0  0  0  0  0
   25.8521  -20.3418  -14.4982 C   0  0  0  0  0  0  0  0  0  0  0  0
   25.8439  -19.1615  -15.0652 O   0  0  0  0  0  0  0  0  0  0  0  0
   27.0568  -21.4089  -11.1294 C   0  0  0  0  0  0  0  0  0  0  0  0
   26.2124  -21.5655  -10.0299 C   0  0  0  0  0  0  0  0  0  0  0  0
   24.6342  -20.9603  -14.1972 N   0  0  0  0  0  0  0  0  0  0  0  0
   24.5463  -22.2078  -13.4620 C   0  0  0  0  0  0  0  0  0  0  0  0
   23.2447  -22.8193  -13.9030 C   0  0  0  0  0  0  0  0  0  0  0  0
   22.6726  -21.8870  -14.9442 C   0  0  0  0  0  0  0  0  0  0  0  0
   23.3075  -20.5574  -14.4808 C   0  0  1  0  0  0  0  0  0  0  0  0
   22.5453  -20.1860  -13.2454 C   0  0  0  0  0  0  0  0  0  0  0  0
   22.9391  -20.5151  -12.0938 O   0  0  0  0  0  0  0  0  0  0  0  0
   21.3682  -19.4594  -13.3336 O   0  0  0  0  0  0  0  0  0  0  0  0
  2  1  1  6
  3  2  1  0
  4  3  1  0
  4  5  1  0
  5  9  1  0
  5  6  2  0
  7  2  1  0
  7  8  2  0
 10 11  1  0
 11 12  2  0
 12 13  1  0
 14 15  1  0
 14 13  2  0
 16 17  1  0
 16 15  1  1
 17  7  1  0
 18 16  1  0
 19 18  2  0
 20 14  1  0
 21 11  1  0
 21 20  2  0
 22 18  1  0
 22 26  1  0
 23 22  1  0
 24 23  1  0
 24 25  1  0
 25 26  1  0
 26 27  1  1
 27 29  1  0
 28 27  2  0
M  END
$$$$
