EYP.pdb
     RDKit          3D

 29 30  0  0  1  0  0  0  0  0999 V2000
   20.4063  -19.8039  -11.9988 N   0  0  0  0  0  0  0  0  0  0  0  0
   21.2759  -20.9240  -12.4048 C   0  0  1  0  0  0  0  0  0  0  0  0
   20.6704  -21.4356  -13.6925 C   0  0  0  0  0  0  0  0  0  0  0  0
   20.4843  -20.4017  -14.7446 C   0  0  0  0  0  0  0  0  0  0  0  0
   21.4182  -20.5519  -15.8824 C   0  0  0  0  0  0  0  0  0  0  0  0
   21.5895  -21.6088  -16.5408 O   0  0  0  0  0  0  0  0  0  0  0  0
   22.6390  -20.3960  -12.6027 C   0  0  0  0  0  0  0  0  0  0  0  0
   22.8651  -19.1741  -12.7891 O   0  0  0  0  0  0  0  0  0  0  0  0
   22.2084  -19.4669  -16.3159 O   0  0  0  0  0  0  0  0  0  0  0  0
   26.9888  -19.6053   -6.8194 O   0  0  0  0  0  0  0  0  0  0  0  0
   26.7219  -20.1168   -8.0770 C   0  0  0  0  0  0  0  0  0  0  0  0
   25.4484  -20.4259   -8.4950 C   0  0  0  0  0  0  0  0  0  0  0  0
   25.1983  -20.9342   -9.7493 C   0  0  0  0  0  0  0  0  0  0  0  0
   26.2585  -21.1378  -10.6086 C   0  0  0  0  0  0  0  0  0  0  0  0
   26.0591  -21.6846  -11.9763 C   0  0  0  0  0  0  0  0  0  0  0  0
   25.0933  -20.7897  -12.7401 C   0  0  2  0  0  0  0  0  0  0  0  0
   23.7572  -21.2740  -12.5874 N   0  0  0  0  0  0  0  0  0  0  0  0
   25.5677  -20.5797  -14.1187 C   0  0  0  0  0  0  0  0  0  0  0  0
   24.8551  -21.2601  -14.9810 O   0  0  0  0  0  0  0  0  0  0  0  0
   27.5461  -20.8390  -10.2221 C   0  0  0  0  0  0  0  0  0  0  0  0
   27.7555  -20.3256   -8.9418 C   0  0  0  0  0  0  0  0  0  0  0  0
   26.6230  -19.7877  -14.5828 N   0  0  0  0  0  0  0  0  0  0  0  0
   27.6924  -19.3192  -13.7218 C   0  0  0  0  0  0  0  0  0  0  0  0
   28.1950  -18.0664  -14.3854 C   0  0  0  0  0  0  0  0  0  0  0  0
   27.3165  -17.8485  -15.5943 C   0  0  0  0  0  0  0  0  0  0  0  0
   26.9051  -19.3087  -15.8843 C   0  0  1  0  0  0  0  0  0  0  0  0
   28.1321  -19.9364  -16.4722 C   0  0  0  0  0  0  0  0  0  0  0  0
   28.5954  -19.5786  -17.5888 O   0  0  0  0  0  0  0  0  0  0  0  0
   28.8033  -20.9432  -15.7961 O   0  0  0  0  0  0  0  0  0  0  0  0
  2  1  1  6
  3  2  1  0
  4  3  1  0
  4  5  1  0
  5  9  1  0
  5  6  2  0
  7  2  1  0
  7  8  2  0
 10 11  1  0
 11 12  2  0
 12 13  1  0
 14 15  1  0
 14 13  2  0
 16 17  1  0
 16 15  1  6
 17  7  1  0
 18 16  1  0
 19 18  2  0
 20 14  1  0
 21 11  1  0
 21 20  2  0
 22 18  1  0
 22 26  1  0
 23 22  1  0
 24 23  1  0
 24 25  1  0
 25 26  1  0
 26 27  1  1
 27 29  1  0
 28 27  2  0
M  END
$$$$
