EYP.pdb
     RDKit          3D

 29 30  0  0  1  0  0  0  0  0999 V2000
   23.3103  -12.0244  -20.2817 N   0  0  0  0  0  0  0  0  0  0  0  0
   23.9507  -10.9923  -19.4450 C   0  0  1  0  0  0  0  0  0  0  0  0
   24.6691  -10.0920  -20.4247 C   0  0  0  0  0  0  0  0  0  0  0  0
   23.7803   -9.3830  -21.3828 C   0  0  0  0  0  0  0  0  0  0  0  0
   24.5178   -8.5373  -22.3472 C   0  0  0  0  0  0  0  0  0  0  0  0
   23.9867   -7.7444  -23.1652 O   0  0  0  0  0  0  0  0  0  0  0  0
   22.8904  -10.2785  -18.7084 C   0  0  0  0  0  0  0  0  0  0  0  0
   21.7491  -10.0831  -19.1963 O   0  0  0  0  0  0  0  0  0  0  0  0
   25.9266   -8.5724  -22.4084 O   0  0  0  0  0  0  0  0  0  0  0  0
   17.0688   -8.1396  -13.0008 O   0  0  0  0  0  0  0  0  0  0  0  0
   18.2668   -8.5641  -13.5476 C   0  0  0  0  0  0  0  0  0  0  0  0
   19.4845   -8.2736  -12.9775 C   0  0  0  0  0  0  0  0  0  0  0  0
   20.6682   -8.7029  -13.5332 C   0  0  0  0  0  0  0  0  0  0  0  0
   20.6273   -9.4456  -14.6953 C   0  0  0  0  0  0  0  0  0  0  0  0
   21.8677   -9.9396  -15.3484 C   0  0  0  0  0  0  0  0  0  0  0  0
   22.1092   -9.1537  -16.6295 C   0  0  2  0  0  0  0  0  0  0  0  0
   23.1368   -9.7820  -17.3991 N   0  0  0  0  0  0  0  0  0  0  0  0
   22.2884   -7.7229  -16.3290 C   0  0  0  0  0  0  0  0  0  0  0  0
   23.4564   -7.4886  -15.7856 O   0  0  0  0  0  0  0  0  0  0  0  0
   19.4252   -9.7543  -15.2922 C   0  0  0  0  0  0  0  0  0  0  0  0
   18.2488   -9.2994  -14.6960 C   0  0  0  0  0  0  0  0  0  0  0  0
   21.4115   -6.6546  -16.5441 N   0  0  0  0  0  0  0  0  0  0  0  0
   20.0776   -6.8291  -17.0868 C   0  0  0  0  0  0  0  0  0  0  0  0
   19.7548   -5.5112  -17.7360 C   0  0  0  0  0  0  0  0  0  0  0  0
   20.9851   -4.6502  -17.5762 C   0  0  0  0  0  0  0  0  0  0  0  0
   21.5730   -5.2717  -16.2902 C   0  0  1  0  0  0  0  0  0  0  0  0
   20.6786   -4.7827  -15.1920 C   0  0  0  0  0  0  0  0  0  0  0  0
   20.7181   -3.5921  -14.7792 O   0  0  0  0  0  0  0  0  0  0  0  0
   19.7685   -5.6370  -14.5894 O   0  0  0  0  0  0  0  0  0  0  0  0
  2  1  1  6
  3  2  1  0
  4  3  1  0
  4  5  1  0
  5  9  1  0
  5  6  2  0
  7  2  1  0
  7  8  2  0
 10 11  1  0
 11 12  2  0
 12 13  1  0
 14 15  1  0
 14 13  2  0
 16 17  1  0
 16 15  1  1
 17  7  1  0
 18 16  1  0
 19 18  2  0
 20 14  1  0
 21 11  1  0
 21 20  2  0
 22 18  1  0
 22 26  1  0
 23 22  1  0
 24 23  1  0
 24 25  1  0
 25 26  1  0
 26 27  1  1
 27 29  1  0
 28 27  2  0
M  END
$$$$
