RRF.pdb
     RDKit          3D

 34 34  0  0  1  0  0  0  0  0999 V2000
    7.9632  -14.6378   18.1369 N   0  0  0  0  0  0  0  0  0  0  0  0
    8.2289  -13.2663   18.4388 C   0  0  0  0  0  0  0  0  0  0  0  0
    8.6248  -12.5249   17.4698 N   0  0  0  0  0  0  0  0  0  0  0  0
    8.0479  -12.8050   19.7604 N   0  0  0  0  0  0  0  0  0  0  0  0
    6.8194  -13.1851   20.4783 C   0  0  0  0  0  0  0  0  0  0  0  0
    6.7540  -14.6704   20.4993 C   0  0  0  0  0  0  0  0  0  0  0  0
    7.5289  -15.2709   21.6164 C   0  0  0  0  0  0  0  0  0  0  0  0
    7.4715  -16.7615   21.7272 C   0  0  2  0  0  0  0  0  0  0  0  0
    6.1674  -17.3204   21.8421 N   0  0  0  0  0  0  0  0  0  0  0  0
    8.3304  -17.1588   22.8838 C   0  0  0  0  0  0  0  0  0  0  0  0
    7.8086  -17.7938   23.8216 O   0  0  0  0  0  0  0  0  0  0  0  0
    8.9056  -11.5421   17.5793 N   0  0  0  0  0  0  0  0  0  0  0  0
   12.4766  -16.1309   18.8423 C   0  0  0  0  0  0  0  0  0  0  0  0
   13.0950  -15.4502   19.9284 N   0  0  0  0  0  0  0  0  0  0  0  0
   12.8564  -14.2042   20.1675 N   0  0  0  0  0  0  0  0  0  0  0  0
   14.0039  -16.0926   20.8122 C   0  0  0  0  0  0  0  0  0  0  0  0
   13.5565  -17.0810   21.7432 C   0  0  0  0  0  0  0  0  0  0  0  0
   12.4657  -16.5649   22.6586 C   0  0  0  0  0  0  0  0  0  0  0  0
   11.9470  -17.6341   23.5765 C   0  0  1  0  0  0  0  0  0  0  0  0
   10.5442  -17.3427   23.9846 N   0  0  0  0  0  0  0  0  0  0  0  0
    9.7022  -16.8341   22.9363 C   0  0  0  0  0  0  0  0  0  0  0  0
   10.5185  -16.4220   25.1820 O   0  0  0  0  0  0  0  0  0  0  0  0
   11.2131  -15.3746   25.2330 N   0  0  0  0  0  0  0  0  0  0  0  0
   13.3446  -13.7732   20.9838 C   0  0  1  0  0  0  0  0  0  0  0  0
    9.6988  -16.7103   26.3070 C   0  0  0  0  0  0  0  0  0  0  0  0
    9.8046  -15.9613   27.5376 C   0  0  0  0  0  0  0  0  0  0  0  0
    8.5041  -15.2849   27.8994 C   0  0  0  0  0  0  0  0  0  0  0  0
    8.0228  -14.3936   26.8196 C   0  0  0  0  0  0  0  0  0  0  0  0
    8.4565  -13.0841   26.8073 C   0  0  0  0  0  0  0  0  0  0  0  0
    8.0638  -12.1843   25.8370 C   0  0  0  0  0  0  0  0  0  0  0  0
    7.1945  -12.6669   24.8536 C   0  0  0  0  0  0  0  0  0  0  0  0
    6.7619  -13.9754   24.8671 C   0  0  0  0  0  0  0  0  0  0  0  0
    7.1682  -14.8615   25.8499 O   0  0  0  0  0  0  0  0  0  0  0  0
   10.3015  -16.8351   28.6313 O   0  0  0  0  0  0  0  0  0  0  0  0
  2  1  1  0
  2  3  2  0
  4  2  1  0
  5  4  1  0
  6  5  1  0
  7  8  1  0
  7  6  1  0
  8  9  1  1
 10 20  1  0
 10  8  1  0
 11 10  2  0
 13 12  1  0
 14 13  2  0
 15 13  1  0
 16 15  1  0
 17 18  1  0
 17 16  1  0
 19 18  1  6
 19 21  1  0
 19 20  1  0
 21 22  2  0
 23 24  1  0
 23 21  1  0
 24 25  1  6
 25 26  1  0
 26 31  2  0
 27 26  1  0
 27 28  2  0
 28 29  1  0
 29 30  2  0
 31 30  1  0
 32 24  1  0
 33 32  1  0
 34 32  2  0
M  END
$$$$
