RRF.pdb
     RDKit          3D

 34 34  0  0  1  0  0  0  0  0999 V2000
    7.5093  -12.8212   16.5073 N   0  0  0  0  0  0  0  0  0  0  0  0
    8.0946  -14.0707   16.8800 C   0  0  0  0  0  0  0  0  0  0  0  0
    8.0675  -15.0083   16.0051 N   0  0  0  0  0  0  0  0  0  0  0  0
    8.6607  -14.2093   18.1655 N   0  0  0  0  0  0  0  0  0  0  0  0
    8.5192  -13.0985   19.1223 C   0  0  0  0  0  0  0  0  0  0  0  0
    7.2591  -13.3181   19.8805 C   0  0  0  0  0  0  0  0  0  0  0  0
    7.4661  -14.0649   21.1488 C   0  0  0  0  0  0  0  0  0  0  0  0
    7.4943  -15.5560   21.0344 C   0  0  2  0  0  0  0  0  0  0  0  0
    6.2511  -16.1726   20.7172 N   0  0  0  0  0  0  0  0  0  0  0  0
    8.0500  -16.0936   22.3132 C   0  0  0  0  0  0  0  0  0  0  0  0
    7.2585  -16.5626   23.1551 O   0  0  0  0  0  0  0  0  0  0  0  0
    8.4553  -15.9474   16.1608 N   0  0  0  0  0  0  0  0  0  0  0  0
   11.2710  -18.2104   18.1738 C   0  0  0  0  0  0  0  0  0  0  0  0
   11.8538  -19.1092   19.1107 N   0  0  0  0  0  0  0  0  0  0  0  0
   13.1309  -19.2892   19.1687 N   0  0  0  0  0  0  0  0  0  0  0  0
   11.0754  -19.8571   20.0352 C   0  0  0  0  0  0  0  0  0  0  0  0
   11.0409  -19.5121   21.4222 C   0  0  0  0  0  0  0  0  0  0  0  0
   11.1578  -18.0197   21.6524 C   0  0  0  0  0  0  0  0  0  0  0  0
   11.2393  -17.6789   23.1125 C   0  0  2  0  0  0  0  0  0  0  0  0
   10.0061  -16.9716   23.5579 N   0  0  0  0  0  0  0  0  0  0  0  0
    9.4342  -16.0813   22.5847 C   0  0  0  0  0  0  0  0  0  0  0  0
   10.2484  -16.2496   24.8625 O   0  0  0  0  0  0  0  0  0  0  0  0
   11.1806  -15.4165   25.0006 N   0  0  0  0  0  0  0  0  0  0  0  0
   13.4924  -19.8979   19.9363 C   0  0  1  0  0  0  0  0  0  0  0  0
    9.4217  -16.4891   25.9938 C   0  0  0  0  0  0  0  0  0  0  0  0
    9.6804  -15.8659   27.2710 C   0  0  0  0  0  0  0  0  0  0  0  0
    8.4390  -15.2310   27.8503 C   0  0  0  0  0  0  0  0  0  0  0  0
    7.9747  -14.0810   27.0417 C   0  0  0  0  0  0  0  0  0  0  0  0
    6.7217  -14.1450   26.4682 C   0  0  0  0  0  0  0  0  0  0  0  0
    6.2054  -13.1185   25.7034 C   0  0  0  0  0  0  0  0  0  0  0  0
    7.0211  -11.9953   25.5339 C   0  0  0  0  0  0  0  0  0  0  0  0
    8.2728  -11.9327   26.1073 C   0  0  0  0  0  0  0  0  0  0  0  0
    8.7716  -12.9739   26.8710 O   0  0  0  0  0  0  0  0  0  0  0  0
   10.2947  -16.8432   28.2059 O   0  0  0  0  0  0  0  0  0  0  0  0
  2  1  1  0
  2  3  2  0
  4  2  1  0
  5  4  1  0
  6  5  1  0
  7  8  1  0
  7  6  1  0
  8  9  1  1
 10 20  1  0
 10  8  1  0
 11 10  2  0
 13 12  1  0
 14 13  2  0
 15 13  1  0
 16 15  1  0
 17 18  1  0
 17 16  1  0
 19 18  1  6
 19 21  1  0
 19 20  1  0
 21 22  2  0
 23 24  1  0
 23 21  1  0
 24 25  1  1
 25 26  1  0
 26 31  2  0
 27 26  1  0
 27 28  2  0
 28 29  1  0
 29 30  2  0
 31 30  1  0
 32 24  1  0
 33 32  1  0
 34 32  2  0
M  END
$$$$
