RRF.pdb
     RDKit          3D

 34 34  0  0  1  0  0  0  0  0999 V2000
    8.4990  -11.4217   19.6282 N   0  0  0  0  0  0  0  0  0  0  0  0
    9.0195  -12.7476   19.5103 C   0  0  0  0  0  0  0  0  0  0  0  0
   10.1946  -12.9538   19.9813 N   0  0  0  0  0  0  0  0  0  0  0  0
    8.2325  -13.7436   18.8934 N   0  0  0  0  0  0  0  0  0  0  0  0
    6.9408  -14.1011   19.5041 C   0  0  0  0  0  0  0  0  0  0  0  0
    7.2160  -15.0640   20.6032 C   0  0  0  0  0  0  0  0  0  0  0  0
    6.7026  -16.4301   20.3217 C   0  0  0  0  0  0  0  0  0  0  0  0
    7.7223  -17.4393   19.8985 C   0  0  2  0  0  0  0  0  0  0  0  0
    7.2130  -18.7256   19.5633 N   0  0  0  0  0  0  0  0  0  0  0  0
    8.7410  -17.5318   20.9881 C   0  0  0  0  0  0  0  0  0  0  0  0
    8.4507  -18.1669   22.0213 O   0  0  0  0  0  0  0  0  0  0  0  0
   10.6865  -13.8541   19.9179 N   0  0  0  0  0  0  0  0  0  0  0  0
   12.7957  -15.0598   18.3758 C   0  0  0  0  0  0  0  0  0  0  0  0
   14.0798  -15.6579   18.2382 N   0  0  0  0  0  0  0  0  0  0  0  0
   15.0540  -15.0389   17.6600 N   0  0  0  0  0  0  0  0  0  0  0  0
   14.3698  -16.9609   18.7259 C   0  0  0  0  0  0  0  0  0  0  0  0
   14.2168  -17.2836   20.1102 C   0  0  0  0  0  0  0  0  0  0  0  0
   12.7706  -17.5162   20.4958 C   0  0  0  0  0  0  0  0  0  0  0  0
   12.3393  -16.6296   21.6283 C   0  0  2  0  0  0  0  0  0  0  0  0
   10.9167  -16.8884   21.9872 N   0  0  0  0  0  0  0  0  0  0  0  0
   10.0082  -16.9229   20.8737 C   0  0  0  0  0  0  0  0  0  0  0  0
   10.4434  -15.9035   23.0303 O   0  0  0  0  0  0  0  0  0  0  0  0
   10.5008  -14.6603   22.8484 N   0  0  0  0  0  0  0  0  0  0  0  0
   15.9643  -15.5453   17.5869 C   0  0  1  0  0  0  0  0  0  0  0  0
    9.9100  -16.3522   24.2692 C   0  0  0  0  0  0  0  0  0  0  0  0
    9.2989  -15.4415   25.2092 C   0  0  0  0  0  0  0  0  0  0  0  0
    8.1861  -14.6410   24.5764 C   0  0  0  0  0  0  0  0  0  0  0  0
    7.5450  -13.7210   25.5431 C   0  0  0  0  0  0  0  0  0  0  0  0
    8.2080  -12.5602   25.8834 C   0  0  0  0  0  0  0  0  0  0  0  0
    7.6841  -11.6428   26.7718 C   0  0  0  0  0  0  0  0  0  0  0  0
    6.4336  -11.9477   27.3187 C   0  0  0  0  0  0  0  0  0  0  0  0
    5.7724  -13.1079   26.9780 C   0  0  0  0  0  0  0  0  0  0  0  0
    6.3160  -14.0147   26.0846 O   0  0  0  0  0  0  0  0  0  0  0  0
    8.8400  -16.1774   26.4152 O   0  0  0  0  0  0  0  0  0  0  0  0
  2  1  1  0
  2  3  2  0
  4  2  1  0
  5  4  1  0
  6  5  1  0
  7  8  1  0
  7  6  1  0
  8  9  1  1
 10 20  1  0
 10  8  1  0
 11 10  2  0
 13 12  1  0
 14 13  2  0
 15 13  1  0
 16 15  1  0
 17 18  1  0
 17 16  1  0
 19 18  1  6
 19 21  1  0
 19 20  1  0
 21 22  2  0
 23 24  1  0
 23 21  1  0
 24 25  1  6
 25 26  1  0
 26 31  2  0
 27 26  1  0
 27 28  2  0
 28 29  1  0
 29 30  2  0
 31 30  1  0
 32 24  1  0
 33 32  1  0
 34 32  2  0
M  END
$$$$
