RRF.pdb
     RDKit          3D

 34 34  0  0  1  0  0  0  0  0999 V2000
   13.1551  -13.3294   18.9473 N   0  0  0  0  0  0  0  0  0  0  0  0
   12.6373  -14.1015   20.0329 C   0  0  0  0  0  0  0  0  0  0  0  0
   13.4235  -14.3074   21.0254 N   0  0  0  0  0  0  0  0  0  0  0  0
   11.3152  -14.5902   19.9610 N   0  0  0  0  0  0  0  0  0  0  0  0
   10.4211  -14.0556   18.9197 C   0  0  0  0  0  0  0  0  0  0  0  0
    9.6963  -12.8960   19.5037 C   0  0  0  0  0  0  0  0  0  0  0  0
    8.5769  -13.2987   20.3947 C   0  0  0  0  0  0  0  0  0  0  0  0
    7.8937  -14.5837   20.0493 C   0  0  2  0  0  0  0  0  0  0  0  0
    6.8459  -14.4854   19.0908 N   0  0  0  0  0  0  0  0  0  0  0  0
    7.4006  -15.1866   21.3247 C   0  0  0  0  0  0  0  0  0  0  0  0
    6.3546  -14.7342   21.8310 O   0  0  0  0  0  0  0  0  0  0  0  0
   13.2243  -14.9710   21.7848 N   0  0  0  0  0  0  0  0  0  0  0  0
    9.0382  -20.6389   26.1688 C   0  0  0  0  0  0  0  0  0  0  0  0
    7.7300  -20.9920   26.6039 N   0  0  0  0  0  0  0  0  0  0  0  0
    7.5214  -21.4978   27.7732 N   0  0  0  0  0  0  0  0  0  0  0  0
    6.5805  -20.8101   25.7883 C   0  0  0  0  0  0  0  0  0  0  0  0
    6.6917  -20.3048   24.4555 C   0  0  0  0  0  0  0  0  0  0  0  0
    6.7796  -18.7934   24.4130 C   0  0  0  0  0  0  0  0  0  0  0  0
    7.3791  -18.2992   23.1281 C   0  0  2  0  0  0  0  0  0  0  0  0
    7.5860  -16.8247   23.1763 N   0  0  0  0  0  0  0  0  0  0  0  0
    8.0855  -16.2435   21.9601 C   0  0  0  0  0  0  0  0  0  0  0  0
    8.4646  -16.4484   24.3462 O   0  0  0  0  0  0  0  0  0  0  0  0
    9.7129  -16.6005   24.3188 N   0  0  0  0  0  0  0  0  0  0  0  0
    6.5368  -21.7467   28.0165 C   0  0  2  0  0  0  0  0  0  0  0  0
    7.9051  -15.9029   25.5336 C   0  0  0  0  0  0  0  0  0  0  0  0
    8.7040  -15.6709   26.7145 C   0  0  0  0  0  0  0  0  0  0  0  0
    8.0219  -14.7329   27.6813 C   0  0  0  0  0  0  0  0  0  0  0  0
    7.6821  -13.4370   27.0510 C   0  0  0  0  0  0  0  0  0  0  0  0
    6.3529  -13.0781   26.9637 C   0  0  0  0  0  0  0  0  0  0  0  0
    5.9443  -11.8876   26.3972 C   0  0  0  0  0  0  0  0  0  0  0  0
    6.9525  -11.0503   25.9091 C   0  0  0  0  0  0  0  0  0  0  0  0
    8.2800  -11.4101   25.9968 C   0  0  0  0  0  0  0  0  0  0  0  0
    8.6682  -12.6093   26.5691 O   0  0  0  0  0  0  0  0  0  0  0  0
    9.0665  -16.9624   27.3528 O   0  0  0  0  0  0  0  0  0  0  0  0
  2  1  1  0
  2  3  2  0
  4  2  1  0
  5  4  1  0
  6  5  1  0
  7  8  1  0
  7  6  1  0
  8  9  1  6
 10 20  1  0
 10  8  1  0
 11 10  2  0
 13 12  1  0
 14 13  2  0
 15 13  1  0
 16 15  1  0
 17 18  1  0
 17 16  1  0
 19 18  1  6
 19 21  1  0
 19 20  1  0
 21 22  2  0
 23 24  1  0
 23 21  1  0
 24 25  1  1
 25 26  1  0
 26 31  2  0
 27 26  1  0
 27 28  2  0
 28 29  1  0
 29 30  2  0
 31 30  1  0
 32 24  1  0
 33 32  1  0
 34 32  2  0
M  END
$$$$
