RRF.pdb
     RDKit          3D

 34 34  0  0  1  0  0  0  0  0999 V2000
    7.9909  -12.5380   16.2584 N   0  0  0  0  0  0  0  0  0  0  0  0
    7.9551  -13.9277   16.5904 C   0  0  0  0  0  0  0  0  0  0  0  0
    8.3017  -14.7530   15.6716 N   0  0  0  0  0  0  0  0  0  0  0  0
    7.5478  -14.3159   17.8848 N   0  0  0  0  0  0  0  0  0  0  0  0
    8.4365  -14.0219   19.0219 C   0  0  0  0  0  0  0  0  0  0  0  0
    7.6145  -13.3716   20.0766 C   0  0  0  0  0  0  0  0  0  0  0  0
    7.0111  -14.3434   21.0255 C   0  0  0  0  0  0  0  0  0  0  0  0
    7.5222  -15.7466   20.9403 C   0  0  2  0  0  0  0  0  0  0  0  0
    6.6338  -16.6905   20.3522 N   0  0  0  0  0  0  0  0  0  0  0  0
    7.9153  -16.1655   22.3199 C   0  0  0  0  0  0  0  0  0  0  0  0
    7.0171  -16.4930   23.1206 O   0  0  0  0  0  0  0  0  0  0  0  0
    8.3260  -15.7728   15.7982 N   0  0  0  0  0  0  0  0  0  0  0  0
   13.9573  -21.4010   21.7721 C   0  0  0  0  0  0  0  0  0  0  0  0
   13.4476  -20.2947   21.0362 N   0  0  0  0  0  0  0  0  0  0  0  0
   13.9266  -19.9745   19.8809 N   0  0  0  0  0  0  0  0  0  0  0  0
   12.3874  -19.4810   21.5197 C   0  0  0  0  0  0  0  0  0  0  0  0
   11.3915  -20.0093   22.3990 C   0  0  0  0  0  0  0  0  0  0  0  0
   10.2951  -19.0093   22.7020 C   0  0  0  0  0  0  0  0  0  0  0  0
   10.7552  -17.9370   23.6470 C   0  0  2  0  0  0  0  0  0  0  0  0
    9.6690  -16.9464   23.8886 N   0  0  0  0  0  0  0  0  0  0  0  0
    9.2645  -16.1972   22.7303 C   0  0  0  0  0  0  0  0  0  0  0  0
   10.0380  -16.0175   25.0213 O   0  0  0  0  0  0  0  0  0  0  0  0
   10.8517  -15.0704   24.8690 N   0  0  0  0  0  0  0  0  0  0  0  0
   13.4998  -19.1524   19.3988 C   0  0  1  0  0  0  0  0  0  0  0  0
    9.4723  -16.1828   26.3148 C   0  0  0  0  0  0  0  0  0  0  0  0
    9.9308  -15.4159   27.4497 C   0  0  0  0  0  0  0  0  0  0  0  0
    8.8060  -14.6506   28.1045 C   0  0  0  0  0  0  0  0  0  0  0  0
    8.2630  -13.5957   27.2189 C   0  0  0  0  0  0  0  0  0  0  0  0
    6.9843  -13.7479   26.7242 C   0  0  0  0  0  0  0  0  0  0  0  0
    6.3957  -12.8132   25.8965 C   0  0  0  0  0  0  0  0  0  0  0  0
    7.1649  -11.6895   25.5778 C   0  0  0  0  0  0  0  0  0  0  0  0
    8.4423  -11.5388   26.0726 C   0  0  0  0  0  0  0  0  0  0  0  0
    9.0138  -12.4887   26.9016 O   0  0  0  0  0  0  0  0  0  0  0  0
   10.6410  -16.2959   28.4130 O   0  0  0  0  0  0  0  0  0  0  0  0
  2  1  1  0
  2  3  2  0
  4  2  1  0
  5  4  1  0
  6  5  1  0
  7  8  1  0
  7  6  1  0
  8  9  1  1
 10 20  1  0
 10  8  1  0
 11 10  2  0
 13 12  1  0
 14 13  2  0
 15 13  1  0
 16 15  1  0
 17 18  1  0
 17 16  1  0
 19 18  1  6
 19 21  1  0
 19 20  1  0
 21 22  2  0
 23 24  1  0
 23 21  1  0
 24 25  1  1
 25 26  1  0
 26 31  2  0
 27 26  1  0
 27 28  2  0
 28 29  1  0
 29 30  2  0
 31 30  1  0
 32 24  1  0
 33 32  1  0
 34 32  2  0
M  END
$$$$
