YAK.pdb
     RDKit          3D

 27 27  0  0  1  0  0  0  0  0999 V2000
    5.3381  -11.2232   28.0823 O   0  0  0  0  0  0  0  0  0  0  0  0
    6.0616  -12.0965   27.2972 C   0  0  0  0  0  0  0  0  0  0  0  0
    7.4072  -12.2664   27.5668 C   0  0  0  0  0  0  0  0  0  0  0  0
    8.1559  -13.1439   26.7855 C   0  0  0  0  0  0  0  0  0  0  0  0
    7.5823  -13.8464   25.7489 C   0  0  0  0  0  0  0  0  0  0  0  0
    8.3874  -14.7764   24.9249 C   0  0  0  0  0  0  0  0  0  0  0  0
    7.8999  -16.1791   25.1920 C   0  0  2  0  0  0  0  0  0  0  0  0
    7.9755  -16.4007   26.6205 N   0  0  0  0  0  0  0  0  0  0  0  0
    8.6639  -17.2132   24.4979 C   0  0  0  0  0  0  0  0  0  0  0  0
    8.6036  -18.4032   24.8863 O   0  0  0  0  0  0  0  0  0  0  0  0
    6.2467  -13.6587   25.5039 C   0  0  0  0  0  0  0  0  0  0  0  0
    5.4759  -12.7839   26.2742 C   0  0  0  0  0  0  0  0  0  0  0  0
    8.4081  -18.3660   21.6685 C   0  0  0  0  0  0  0  0  0  0  0  0
    9.6940  -17.9205   22.3257 C   0  0  2  0  0  0  0  0  0  0  0  0
    9.5023  -16.9696   23.3745 N   0  0  0  0  0  0  0  0  0  0  0  0
   10.6345  -17.4119   21.2812 C   0  0  0  0  0  0  0  0  0  0  0  0
   10.9233  -18.1598   20.3198 O   0  0  0  0  0  0  0  0  0  0  0  0
   11.2062  -16.1175   21.3441 N   0  0  0  0  0  0  0  0  0  0  0  0
   12.0011  -15.5251   20.2760 C   0  0  1  0  0  0  0  0  0  0  0  0
   11.3332  -14.3318   19.6859 C   0  0  0  0  0  0  0  0  0  0  0  0
   10.1560  -14.5814   18.8258 C   0  0  0  0  0  0  0  0  0  0  0  0
    9.5220  -13.4309   18.1494 C   0  0  0  0  0  0  0  0  0  0  0  0
    8.3528  -13.7604   17.2616 C   0  0  0  0  0  0  0  0  0  0  0  0
    7.8254  -12.5186   16.6533 N   0  0  0  0  0  0  0  0  0  0  0  0
   13.4086  -15.3677   20.6515 C   0  0  0  0  0  0  0  0  0  0  0  0
   13.7719  -15.6239   21.8198 O   0  0  0  0  0  0  0  0  0  0  0  0
   14.3810  -14.9371   19.7495 O   0  0  0  0  0  0  0  0  0  0  0  0
  2  1  1  0
  3  2  2  0
  4  3  1  0
  5  4  2  0
  5 11  1  0
  6  5  1  0
  7  9  1  0
  7  8  1  1
  7  6  1  0
  9 15  1  0
 10  9  2  0
 11 12  2  0
 12  2  1  0
 14 13  1  6
 15 14  1  0
 16 18  1  0
 16 14  1  0
 17 16  2  0
 19 18  1  0
 19 25  1  0
 19 20  1  1
 21 20  1  0
 22 23  1  0
 22 21  1  0
 24 23  1  0
 25 27  1  0
 26 25  2  0
M  END
$$$$
