YAK.pdb
     RDKit          3D

 27 27  0  0  1  0  0  0  0  0999 V2000
    5.0026  -10.8919   27.1546 O   0  0  0  0  0  0  0  0  0  0  0  0
    5.8573  -11.8854   26.7247 C   0  0  0  0  0  0  0  0  0  0  0  0
    6.6015  -11.6660   25.5801 C   0  0  0  0  0  0  0  0  0  0  0  0
    7.4708  -12.6568   25.1289 C   0  0  0  0  0  0  0  0  0  0  0  0
    7.6040  -13.8518   25.8007 C   0  0  0  0  0  0  0  0  0  0  0  0
    8.5309  -14.8980   25.3123 C   0  0  0  0  0  0  0  0  0  0  0  0
    7.7607  -15.8118   24.3913 C   0  0  2  0  0  0  0  0  0  0  0  0
    7.0043  -16.7267   25.2197 N   0  0  0  0  0  0  0  0  0  0  0  0
    8.6037  -16.5718   23.4711 C   0  0  0  0  0  0  0  0  0  0  0  0
    8.1062  -17.4924   22.7813 O   0  0  0  0  0  0  0  0  0  0  0  0
    6.8542  -14.0426   26.9323 C   0  0  0  0  0  0  0  0  0  0  0  0
    5.9759  -13.0631   27.4036 C   0  0  0  0  0  0  0  0  0  0  0  0
   10.0064  -15.5932   20.9434 C   0  0  0  0  0  0  0  0  0  0  0  0
   10.6409  -16.4467   22.0172 C   0  0  2  0  0  0  0  0  0  0  0  0
    9.9958  -16.3428   23.2876 N   0  0  0  0  0  0  0  0  0  0  0  0
   12.0984  -16.1276   22.1076 C   0  0  0  0  0  0  0  0  0  0  0  0
   12.7907  -16.1892   21.0665 O   0  0  0  0  0  0  0  0  0  0  0  0
   12.7177  -15.7599   23.3272 N   0  0  0  0  0  0  0  0  0  0  0  0
   13.9217  -16.3910   23.8524 C   0  0  1  0  0  0  0  0  0  0  0  0
   13.6000  -17.4884   24.8065 C   0  0  0  0  0  0  0  0  0  0  0  0
   12.6446  -17.1731   25.8908 C   0  0  0  0  0  0  0  0  0  0  0  0
   12.1924  -18.2700   26.7715 C   0  0  0  0  0  0  0  0  0  0  0  0
   11.2267  -17.8782   27.8568 C   0  0  0  0  0  0  0  0  0  0  0  0
   10.8701  -19.0701   28.6584 N   0  0  0  0  0  0  0  0  0  0  0  0
   14.8908  -16.7038   22.7989 C   0  0  0  0  0  0  0  0  0  0  0  0
   14.6599  -17.6369   21.9998 O   0  0  0  0  0  0  0  0  0  0  0  0
   16.0820  -15.9958   22.6426 O   0  0  0  0  0  0  0  0  0  0  0  0
  2  1  1  0
  3  2  2  0
  4  3  1  0
  5  4  2  0
  5 11  1  0
  6  5  1  0
  7  9  1  0
  7  8  1  1
  7  6  1  0
  9 15  1  0
 10  9  2  0
 11 12  2  0
 12  2  1  0
 14 13  1  6
 15 14  1  0
 16 18  1  0
 16 14  1  0
 17 16  2  0
 19 18  1  0
 19 25  1  0
 19 20  1  6
 21 20  1  0
 22 23  1  0
 22 21  1  0
 24 23  1  0
 25 27  1  0
 26 25  2  0
M  END
$$$$
