YAK.pdb
     RDKit          3D

 27 27  0  0  1  0  0  0  0  0999 V2000
    8.8745  -24.6835   11.0503 O   0  0  0  0  0  0  0  0  0  0  0  0
    9.4571  -24.2483   12.2223 C   0  0  0  0  0  0  0  0  0  0  0  0
    8.6357  -23.8067   13.2433 C   0  0  0  0  0  0  0  0  0  0  0  0
    9.2042  -23.3629   14.4353 C   0  0  0  0  0  0  0  0  0  0  0  0
   10.5694  -23.3551   14.6174 C   0  0  0  0  0  0  0  0  0  0  0  0
   11.1630  -22.8813   15.8884 C   0  0  0  0  0  0  0  0  0  0  0  0
   10.8483  -21.4127   16.0323 C   0  0  2  0  0  0  0  0  0  0  0  0
   11.6189  -20.7032   15.0333 N   0  0  0  0  0  0  0  0  0  0  0  0
   11.1492  -20.8700   17.3552 C   0  0  0  0  0  0  0  0  0  0  0  0
   12.3196  -20.5222   17.6379 O   0  0  0  0  0  0  0  0  0  0  0  0
   11.3599  -23.7982   13.5888 C   0  0  0  0  0  0  0  0  0  0  0  0
   10.8120  -24.2479   12.3845 C   0  0  0  0  0  0  0  0  0  0  0  0
    9.3621  -19.6054   20.4333 C   0  0  0  0  0  0  0  0  0  0  0  0
   10.5209  -20.2374   19.6971 C   0  0  2  0  0  0  0  0  0  0  0  0
   10.1851  -20.6979   18.3871 N   0  0  0  0  0  0  0  0  0  0  0  0
   11.1053  -21.3282   20.5355 C   0  0  0  0  0  0  0  0  0  0  0  0
   10.9182  -22.5162   20.1883 O   0  0  0  0  0  0  0  0  0  0  0  0
   11.8601  -21.0617   21.7041 N   0  0  0  0  0  0  0  0  0  0  0  0
   13.0593  -21.7971   22.0848 C   0  0  1  0  0  0  0  0  0  0  0  0
   14.0164  -21.9201   20.9503 C   0  0  0  0  0  0  0  0  0  0  0  0
   14.1095  -23.2426   20.2944 C   0  0  0  0  0  0  0  0  0  0  0  0
   15.0407  -23.4007   19.1582 C   0  0  0  0  0  0  0  0  0  0  0  0
   15.0358  -24.7512   18.4948 C   0  0  0  0  0  0  0  0  0  0  0  0
   15.9615  -24.7409   17.3401 N   0  0  0  0  0  0  0  0  0  0  0  0
   13.6132  -21.3360   23.3605 C   0  0  0  0  0  0  0  0  0  0  0  0
   13.6025  -22.0960   24.3530 O   0  0  0  0  0  0  0  0  0  0  0  0
   14.1625  -20.0647   23.5230 O   0  0  0  0  0  0  0  0  0  0  0  0
  2  1  1  0
  3  2  2  0
  4  3  1  0
  5  4  2  0
  5 11  1  0
  6  5  1  0
  7  9  1  0
  7  8  1  6
  7  6  1  0
  9 15  1  0
 10  9  2  0
 11 12  2  0
 12  2  1  0
 14 13  1  1
 15 14  1  0
 16 18  1  0
 16 14  1  0
 17 16  2  0
 19 18  1  0
 19 25  1  0
 19 20  1  6
 21 20  1  0
 22 23  1  0
 22 21  1  0
 24 23  1  0
 25 27  1  0
 26 25  2  0
M  END
$$$$
