YAK.pdb
     RDKit          3D

 27 27  0  0  1  0  0  0  0  0999 V2000
    7.9823  -13.4255   15.1879 O   0  0  0  0  0  0  0  0  0  0  0  0
    8.0104  -13.6811   16.5430 C   0  0  0  0  0  0  0  0  0  0  0  0
    7.6618  -12.6649   17.4136 C   0  0  0  0  0  0  0  0  0  0  0  0
    7.6835  -12.9024   18.7862 C   0  0  0  0  0  0  0  0  0  0  0  0
    8.0457  -14.1304   19.2941 C   0  0  0  0  0  0  0  0  0  0  0  0
    8.0654  -14.3720   20.7548 C   0  0  0  0  0  0  0  0  0  0  0  0
    7.1019  -15.4933   21.0560 C   0  0  2  0  0  0  0  0  0  0  0  0
    5.7643  -14.9422   21.0061 N   0  0  0  0  0  0  0  0  0  0  0  0
    7.3191  -16.1271   22.3546 C   0  0  0  0  0  0  0  0  0  0  0  0
    6.8920  -15.5796   23.3979 O   0  0  0  0  0  0  0  0  0  0  0  0
    8.3865  -15.1196   18.4084 C   0  0  0  0  0  0  0  0  0  0  0  0
    8.3720  -14.9044   17.0278 C   0  0  0  0  0  0  0  0  0  0  0  0
    7.4491  -19.0558   24.2353 C   0  0  0  0  0  0  0  0  0  0  0  0
    8.3210  -17.8914   23.8253 C   0  0  2  0  0  0  0  0  0  0  0  0
    8.0018  -17.3618   22.5375 N   0  0  0  0  0  0  0  0  0  0  0  0
    9.7583  -18.2905   23.9202 C   0  0  0  0  0  0  0  0  0  0  0  0
   10.1268  -19.3421   23.3497 O   0  0  0  0  0  0  0  0  0  0  0  0
   10.7114  -17.5209   24.6311 N   0  0  0  0  0  0  0  0  0  0  0  0
   12.1271  -17.8554   24.7184 C   0  0  1  0  0  0  0  0  0  0  0  0
   12.9695  -16.9036   23.9421 C   0  0  0  0  0  0  0  0  0  0  0  0
   12.5323  -16.5951   22.5631 C   0  0  0  0  0  0  0  0  0  0  0  0
   13.2827  -15.5780   21.7978 C   0  0  0  0  0  0  0  0  0  0  0  0
   12.7113  -15.2225   20.4521 C   0  0  0  0  0  0  0  0  0  0  0  0
   13.5572  -14.1918   19.8098 N   0  0  0  0  0  0  0  0  0  0  0  0
   12.5501  -18.1309   26.0940 C   0  0  0  0  0  0  0  0  0  0  0  0
   11.8742  -17.6942   27.0506 O   0  0  0  0  0  0  0  0  0  0  0  0
   13.6933  -18.8715   26.3921 O   0  0  0  0  0  0  0  0  0  0  0  0
  2  1  1  0
  3  2  2  0
  4  3  1  0
  5  4  2  0
  5 11  1  0
  6  5  1  0
  7  9  1  0
  7  8  1  1
  7  6  1  0
  9 15  1  0
 10  9  2  0
 11 12  2  0
 12  2  1  0
 14 13  1  6
 15 14  1  0
 16 18  1  0
 16 14  1  0
 17 16  2  0
 19 18  1  0
 19 25  1  0
 19 20  1  1
 21 20  1  0
 22 23  1  0
 22 21  1  0
 24 23  1  0
 25 27  1  0
 26 25  2  0
M  END
$$$$
