YAK.pdb
     RDKit          3D

 27 27  0  0  1  0  0  0  0  0999 V2000
    5.5851  -10.6362   27.3864 O   0  0  0  0  0  0  0  0  0  0  0  0
    6.2642  -11.6964   26.8233 C   0  0  0  0  0  0  0  0  0  0  0  0
    6.6629  -12.7355   27.6440 C   0  0  0  0  0  0  0  0  0  0  0  0
    7.3502  -13.8159   27.0950 C   0  0  0  0  0  0  0  0  0  0  0  0
    7.6409  -13.8700   25.7498 C   0  0  0  0  0  0  0  0  0  0  0  0
    8.3718  -15.0230   25.1769 C   0  0  0  0  0  0  0  0  0  0  0  0
    7.4365  -15.7528   24.2446 C   0  0  2  0  0  0  0  0  0  0  0  0
    6.6185  -16.6334   25.0513 N   0  0  0  0  0  0  0  0  0  0  0  0
    8.1180  -16.5310   23.2126 C   0  0  0  0  0  0  0  0  0  0  0  0
    8.2115  -17.7756   23.3263 O   0  0  0  0  0  0  0  0  0  0  0  0
    7.2338  -12.8264   24.9595 C   0  0  0  0  0  0  0  0  0  0  0  0
    6.5433  -11.7325   25.4880 C   0  0  0  0  0  0  0  0  0  0  0  0
    8.9524  -16.4265   19.6394 C   0  0  0  0  0  0  0  0  0  0  0  0
    9.3712  -16.7543   21.0541 C   0  0  2  0  0  0  0  0  0  0  0  0
    8.7061  -15.9694   22.0452 N   0  0  0  0  0  0  0  0  0  0  0  0
   10.8578  -16.6482   21.1684 C   0  0  0  0  0  0  0  0  0  0  0  0
   11.5679  -17.2872   20.3593 O   0  0  0  0  0  0  0  0  0  0  0  0
   11.4852  -15.8519   22.1575 N   0  0  0  0  0  0  0  0  0  0  0  0
   12.3626  -16.3813   23.1938 C   0  0  1  0  0  0  0  0  0  0  0  0
   11.5921  -16.9213   24.3484 C   0  0  0  0  0  0  0  0  0  0  0  0
   12.3575  -17.6601   25.3761 C   0  0  0  0  0  0  0  0  0  0  0  0
   11.6368  -18.1642   26.5634 C   0  0  0  0  0  0  0  0  0  0  0  0
   12.4902  -18.8248   27.6118 C   0  0  0  0  0  0  0  0  0  0  0  0
   11.6800  -19.0791   28.8239 N   0  0  0  0  0  0  0  0  0  0  0  0
   13.4120  -17.2451   22.6466 C   0  0  0  0  0  0  0  0  0  0  0  0
   14.5832  -16.8178   22.5558 O   0  0  0  0  0  0  0  0  0  0  0  0
   13.1609  -18.5467   22.2138 O   0  0  0  0  0  0  0  0  0  0  0  0
  2  1  1  0
  3  2  2  0
  4  3  1  0
  5  4  2  0
  5 11  1  0
  6  5  1  0
  7  9  1  0
  7  8  1  1
  7  6  1  0
  9 15  1  0
 10  9  2  0
 11 12  2  0
 12  2  1  0
 14 13  1  6
 15 14  1  0
 16 18  1  0
 16 14  1  0
 17 16  2  0
 19 18  1  0
 19 25  1  0
 19 20  1  1
 21 20  1  0
 22 23  1  0
 22 21  1  0
 24 23  1  0
 25 27  1  0
 26 25  2  0
M  END
$$$$
