YAK.pdb
     RDKit          3D

 27 27  0  0  1  0  0  0  0  0999 V2000
    7.9011  -13.1173   15.7573 O   0  0  0  0  0  0  0  0  0  0  0  0
    7.9607  -13.4966   17.0821 C   0  0  0  0  0  0  0  0  0  0  0  0
    9.1293  -14.0656   17.5538 C   0  0  0  0  0  0  0  0  0  0  0  0
    9.2100  -14.4556   18.8888 C   0  0  0  0  0  0  0  0  0  0  0  0
    8.1481  -14.2857   19.7493 C   0  0  0  0  0  0  0  0  0  0  0  0
    8.2447  -14.7038   21.1663 C   0  0  0  0  0  0  0  0  0  0  0  0
    8.3964  -16.2045   21.2014 C   0  0  2  0  0  0  0  0  0  0  0  0
    7.1249  -16.7790   20.8157 N   0  0  0  0  0  0  0  0  0  0  0  0
    8.7915  -16.7289   22.5068 C   0  0  0  0  0  0  0  0  0  0  0  0
    7.9546  -16.7864   23.4379 O   0  0  0  0  0  0  0  0  0  0  0  0
    7.0018  -13.7191   19.2550 C   0  0  0  0  0  0  0  0  0  0  0  0
    6.8980  -13.3202   17.9198 C   0  0  0  0  0  0  0  0  0  0  0  0
   11.8419  -18.2329   24.2128 C   0  0  0  0  0  0  0  0  0  0  0  0
   10.5173  -17.5080   24.1482 C   0  0  2  0  0  0  0  0  0  0  0  0
   10.0983  -17.1970   22.8183 N   0  0  0  0  0  0  0  0  0  0  0  0
   10.5768  -16.2884   25.0103 C   0  0  0  0  0  0  0  0  0  0  0  0
   10.8388  -15.1880   24.4741 O   0  0  0  0  0  0  0  0  0  0  0  0
   10.3476  -16.3380   26.4072 N   0  0  0  0  0  0  0  0  0  0  0  0
    9.9048  -15.1989   27.2010 C   0  0  1  0  0  0  0  0  0  0  0  0
    8.8145  -14.4431   26.5242 C   0  0  0  0  0  0  0  0  0  0  0  0
    8.3026  -13.2417   27.2190 C   0  0  0  0  0  0  0  0  0  0  0  0
    7.2242  -12.4628   26.5760 C   0  0  0  0  0  0  0  0  0  0  0  0
    6.8167  -11.2022   27.2893 C   0  0  0  0  0  0  0  0  0  0  0  0
    5.6976  -10.5605   26.5638 N   0  0  0  0  0  0  0  0  0  0  0  0
    9.6811  -15.5526   28.6052 C   0  0  0  0  0  0  0  0  0  0  0  0
    9.1904  -16.6653   28.8947 O   0  0  0  0  0  0  0  0  0  0  0  0
    9.9957  -14.6896   29.6544 O   0  0  0  0  0  0  0  0  0  0  0  0
  2  1  1  0
  3  2  2  0
  4  3  1  0
  5  4  2  0
  5 11  1  0
  6  5  1  0
  7  9  1  0
  7  8  1  1
  7  6  1  0
  9 15  1  0
 10  9  2  0
 11 12  2  0
 12  2  1  0
 14 13  1  6
 15 14  1  0
 16 18  1  0
 16 14  1  0
 17 16  2  0
 19 18  1  0
 19 25  1  0
 19 20  1  6
 21 20  1  0
 22 23  1  0
 22 21  1  0
 24 23  1  0
 25 27  1  0
 26 25  2  0
M  END
$$$$
