YAK.pdb
     RDKit          3D

 27 27  0  0  1  0  0  0  0  0999 V2000
    7.7598  -13.9353   15.6746 O   0  0  0  0  0  0  0  0  0  0  0  0
    8.1902  -14.0262   16.9818 C   0  0  0  0  0  0  0  0  0  0  0  0
    7.8115  -13.0377   17.8715 C   0  0  0  0  0  0  0  0  0  0  0  0
    8.2357  -13.1108   19.1966 C   0  0  0  0  0  0  0  0  0  0  0  0
    9.0254  -14.1490   19.6387 C   0  0  0  0  0  0  0  0  0  0  0  0
    9.4705  -14.2169   21.0492 C   0  0  0  0  0  0  0  0  0  0  0  0
    8.4797  -15.0614   21.8118 C   0  0  2  0  0  0  0  0  0  0  0  0
    7.1665  -14.7885   21.2674 N   0  0  0  0  0  0  0  0  0  0  0  0
    8.4719  -14.8097   23.2511 C   0  0  0  0  0  0  0  0  0  0  0  0
    9.4958  -15.0469   23.9338 O   0  0  0  0  0  0  0  0  0  0  0  0
    9.3859  -15.1151   18.7354 C   0  0  0  0  0  0  0  0  0  0  0  0
    8.9725  -15.0625   17.4016 C   0  0  0  0  0  0  0  0  0  0  0  0
    6.4038  -12.9937   25.8256 C   0  0  0  0  0  0  0  0  0  0  0  0
    7.3746  -14.0612   25.3760 C   0  0  2  0  0  0  0  0  0  0  0  0
    7.3543  -14.2979   23.9673 N   0  0  0  0  0  0  0  0  0  0  0  0
    7.1282  -15.3144   26.1525 C   0  0  0  0  0  0  0  0  0  0  0  0
    5.9461  -15.6844   26.3333 O   0  0  0  0  0  0  0  0  0  0  0  0
    8.1840  -16.0924   26.6874 N   0  0  0  0  0  0  0  0  0  0  0  0
    8.0318  -17.4675   27.1453 C   0  0  1  0  0  0  0  0  0  0  0  0
    7.4650  -18.3447   26.0835 C   0  0  0  0  0  0  0  0  0  0  0  0
    7.3390  -19.7838   26.4016 C   0  0  0  0  0  0  0  0  0  0  0  0
    6.8689  -20.7002   25.3423 C   0  0  0  0  0  0  0  0  0  0  0  0
    6.7934  -22.1535   25.7243 C   0  0  0  0  0  0  0  0  0  0  0  0
    6.3180  -22.9469   24.5689 N   0  0  0  0  0  0  0  0  0  0  0  0
    9.2286  -17.9613   27.8314 C   0  0  0  0  0  0  0  0  0  0  0  0
   10.3577  -17.5570   27.4789 O   0  0  0  0  0  0  0  0  0  0  0  0
    9.1663  -18.8790   28.8795 O   0  0  0  0  0  0  0  0  0  0  0  0
  2  1  1  0
  3  2  2  0
  4  3  1  0
  5  4  2  0
  5 11  1  0
  6  5  1  0
  7  9  1  0
  7  8  1  6
  7  6  1  0
  9 15  1  0
 10  9  2  0
 11 12  2  0
 12  2  1  0
 14 13  1  6
 15 14  1  0
 16 18  1  0
 16 14  1  0
 17 16  2  0
 19 18  1  0
 19 25  1  0
 19 20  1  6
 21 20  1  0
 22 23  1  0
 22 21  1  0
 24 23  1  0
 25 27  1  0
 26 25  2  0
M  END
$$$$
