YAK.pdb
     RDKit          3D

 27 27  0  0  1  0  0  0  0  0999 V2000
   10.2240  -13.6377   30.2798 O   0  0  0  0  0  0  0  0  0  0  0  0
    9.8762  -14.2239   29.0807 C   0  0  0  0  0  0  0  0  0  0  0  0
   10.7388  -15.1506   28.5245 C   0  0  0  0  0  0  0  0  0  0  0  0
   10.4061  -15.7543   27.3138 C   0  0  0  0  0  0  0  0  0  0  0  0
    9.2341  -15.4465   26.6590 C   0  0  0  0  0  0  0  0  0  0  0  0
    8.8905  -16.0942   25.3727 C   0  0  0  0  0  0  0  0  0  0  0  0
    7.9676  -17.2517   25.6642 C   0  0  2  0  0  0  0  0  0  0  0  0
    8.7346  -18.2495   26.3794 N   0  0  0  0  0  0  0  0  0  0  0  0
    7.3788  -17.8540   24.4702 C   0  0  0  0  0  0  0  0  0  0  0  0
    8.0264  -18.7012   23.8118 O   0  0  0  0  0  0  0  0  0  0  0  0
    8.3977  -14.5245   27.2330 C   0  0  0  0  0  0  0  0  0  0  0  0
    8.7105  -13.9062   28.4465 C   0  0  0  0  0  0  0  0  0  0  0  0
    4.1560  -17.6737   22.4476 C   0  0  0  0  0  0  0  0  0  0  0  0
    5.6223  -17.9520   22.6856 C   0  0  2  0  0  0  0  0  0  0  0  0
    6.0809  -17.5452   23.9759 N   0  0  0  0  0  0  0  0  0  0  0  0
    6.4288  -17.3332   21.5898 C   0  0  0  0  0  0  0  0  0  0  0  0
    6.1447  -17.6161   20.4039 O   0  0  0  0  0  0  0  0  0  0  0  0
    7.4984  -16.4416   21.8491 N   0  0  0  0  0  0  0  0  0  0  0  0
    8.2469  -15.7435   20.8117 C   0  0  1  0  0  0  0  0  0  0  0  0
    7.7615  -14.3482   20.6231 C   0  0  0  0  0  0  0  0  0  0  0  0
    8.3839  -13.5652   19.5334 C   0  0  0  0  0  0  0  0  0  0  0  0
    7.6420  -13.4113   18.2649 C   0  0  0  0  0  0  0  0  0  0  0  0
    8.3603  -12.6602   17.1769 C   0  0  0  0  0  0  0  0  0  0  0  0
    7.4262  -12.3867   16.0620 N   0  0  0  0  0  0  0  0  0  0  0  0
    9.6945  -15.9182   20.9569 C   0  0  0  0  0  0  0  0  0  0  0  0
   10.1776  -16.1926   22.0767 O   0  0  0  0  0  0  0  0  0  0  0  0
   10.5758  -15.7903   19.8839 O   0  0  0  0  0  0  0  0  0  0  0  0
  2  1  1  0
  3  2  2  0
  4  3  1  0
  5  4  2  0
  5 11  1  0
  6  5  1  0
  7  9  1  0
  7  8  1  6
  7  6  1  0
  9 15  1  0
 10  9  2  0
 11 12  2  0
 12  2  1  0
 14 13  1  6
 15 14  1  0
 16 18  1  0
 16 14  1  0
 17 16  2  0
 19 18  1  0
 19 25  1  0
 19 20  1  1
 21 20  1  0
 22 23  1  0
 22 21  1  0
 24 23  1  0
 25 27  1  0
 26 25  2  0
M  END
$$$$
