TFG.pdb
     RDKit          3D

 23 23  0  0  1  0  0  0  0  0999 V2000
   23.3101   -9.4386  -22.2710 C   0  0  0  0  0  0  0  0  0  0  0  0
   22.8975   -8.9431  -20.9019 C   0  0  1  0  0  0  0  0  0  0  0  0
   21.5743   -9.3256  -20.6878 O   0  0  0  0  0  0  0  0  0  0  0  0
   23.7378   -9.5921  -19.8278 C   0  0  2  0  0  0  0  0  0  0  0  0
   23.5515  -11.0258  -19.8741 N   0  0  0  0  0  0  0  0  0  0  0  0
   23.4642   -9.0277  -18.4824 C   0  0  0  0  0  0  0  0  0  0  0  0
   22.8477   -9.7349  -17.6659 O   0  0  0  0  0  0  0  0  0  0  0  0
   23.8591   -7.7368  -18.0672 N   0  0  0  0  0  0  0  0  0  0  0  0
   23.7348   -7.2226  -16.7435 C   0  0  1  0  0  0  0  0  0  0  0  0
   25.1407   -6.9874  -16.2005 C   0  0  0  0  0  0  0  0  0  0  0  0
   25.9146   -8.2415  -16.1175 C   0  0  0  0  0  0  0  0  0  0  0  0
   26.9506   -8.5284  -16.9799 C   0  0  0  0  0  0  0  0  0  0  0  0
   27.6773   -9.6972  -16.9084 C   0  0  0  0  0  0  0  0  0  0  0  0
   27.3533  -10.6201  -15.9307 C   0  0  0  0  0  0  0  0  0  0  0  0
   26.3142  -10.3696  -15.0396 C   0  0  0  0  0  0  0  0  0  0  0  0
   25.6028   -9.1701  -15.1483 C   0  0  0  0  0  0  0  0  0  0  0  0
   22.9902   -5.9846  -16.6181 C   0  0  0  0  0  0  0  0  0  0  0  0
   23.1372   -5.0565  -17.4407 O   0  0  0  0  0  0  0  0  0  0  0  0
   22.0779   -5.8078  -15.5525 N   0  0  0  0  0  0  0  0  0  0  0  0
   21.3523   -4.5486  -15.4524 C   0  0  0  0  0  0  0  0  0  0  0  0
   20.0058   -4.6919  -16.0319 C   0  0  0  0  0  0  0  0  0  0  0  0
   18.9873   -4.3759  -15.3683 O   0  0  0  0  0  0  0  0  0  0  0  0
   19.8553   -5.1738  -17.3062 O   0  0  0  0  0  0  0  0  0  0  0  0
  2  1  1  6
  2  4  1  0
  3  2  1  0
  4  5  1  1
  6  4  1  0
  7  6  2  0
  8  6  1  0
  9  8  1  0
  9 10  1  6
 10 11  1  0
 11 12  2  0
 11 16  1  0
 12 13  1  0
 13 14  2  0
 15 14  1  0
 16 15  2  0
 17 19  1  0
 17  9  1  0
 18 17  2  0
 20 19  1  0
 21 20  1  0
 21 23  1  0
 22 21  2  0
M  END
$$$$
