TFG.pdb
     RDKit          3D

 23 23  0  0  1  0  0  0  0  0999 V2000
   26.6379  -19.1141  -14.8375 C   0  0  0  0  0  0  0  0  0  0  0  0
   26.3819  -19.5880  -13.4233 C   0  0  1  0  0  0  0  0  0  0  0  0
   25.2178  -20.3547  -13.4316 O   0  0  0  0  0  0  0  0  0  0  0  0
   27.5078  -20.4762  -12.9497 C   0  0  2  0  0  0  0  0  0  0  0  0
   27.6466  -21.5973  -13.8531 N   0  0  0  0  0  0  0  0  0  0  0  0
   27.3319  -20.9028  -11.5389 C   0  0  0  0  0  0  0  0  0  0  0  0
   27.0058  -22.0833  -11.3214 O   0  0  0  0  0  0  0  0  0  0  0  0
   27.5108  -20.0544  -10.4241 N   0  0  0  0  0  0  0  0  0  0  0  0
   27.2839  -20.4199   -9.0651 C   0  0  1  0  0  0  0  0  0  0  0  0
   28.0266  -19.4213   -8.1831 C   0  0  0  0  0  0  0  0  0  0  0  0
   27.9442  -19.7826   -6.7544 C   0  0  0  0  0  0  0  0  0  0  0  0
   27.0729  -19.1627   -5.8850 C   0  0  0  0  0  0  0  0  0  0  0  0
   26.9906  -19.4946   -4.5499 C   0  0  0  0  0  0  0  0  0  0  0  0
   27.8168  -20.4910   -4.0629 C   0  0  0  0  0  0  0  0  0  0  0  0
   28.7111  -21.1424   -4.9069 C   0  0  0  0  0  0  0  0  0  0  0  0
   28.7613  -20.7735   -6.2553 C   0  0  0  0  0  0  0  0  0  0  0  0
   25.8961  -20.4468   -8.6454 C   0  0  0  0  0  0  0  0  0  0  0  0
   25.5756  -20.8222   -7.4983 O   0  0  0  0  0  0  0  0  0  0  0  0
   24.8752  -20.0446   -9.5371 N   0  0  0  0  0  0  0  0  0  0  0  0
   23.4905  -20.1000   -9.0884 C   0  0  0  0  0  0  0  0  0  0  0  0
   22.6212  -20.5658  -10.1824 C   0  0  0  0  0  0  0  0  0  0  0  0
   21.3751  -20.6136  -10.0325 O   0  0  0  0  0  0  0  0  0  0  0  0
   23.1701  -20.9520  -11.3775 O   0  0  0  0  0  0  0  0  0  0  0  0
  2  1  1  6
  2  4  1  0
  3  2  1  0
  4  5  1  6
  6  4  1  0
  7  6  2  0
  8  6  1  0
  9  8  1  0
  9 10  1  1
 10 11  1  0
 11 12  2  0
 11 16  1  0
 12 13  1  0
 13 14  2  0
 15 14  1  0
 16 15  2  0
 17 19  1  0
 17  9  1  0
 18 17  2  0
 20 19  1  0
 21 20  1  0
 21 23  1  0
 22 21  2  0
M  END
$$$$
