TFG.pdb
     RDKit          3D

 23 23  0  0  1  0  0  0  0  0999 V2000
   27.8937  -19.1061  -14.5628 C   0  0  0  0  0  0  0  0  0  0  0  0
   27.1083  -19.6001  -13.3672 C   0  0  1  0  0  0  0  0  0  0  0  0
   26.0415  -20.3628  -13.8397 O   0  0  0  0  0  0  0  0  0  0  0  0
   27.9634  -20.4988  -12.5058 C   0  0  2  0  0  0  0  0  0  0  0  0
   28.3740  -21.6522  -13.2761 N   0  0  0  0  0  0  0  0  0  0  0  0
   27.2860  -20.8741  -11.2395 C   0  0  0  0  0  0  0  0  0  0  0  0
   26.9378  -22.0590  -11.0916 O   0  0  0  0  0  0  0  0  0  0  0  0
   27.0099  -19.9720  -10.1885 N   0  0  0  0  0  0  0  0  0  0  0  0
   26.1245  -20.2211   -9.0995 C   0  0  1  0  0  0  0  0  0  0  0  0
   26.2940  -19.0884   -8.0919 C   0  0  0  0  0  0  0  0  0  0  0  0
   26.9606  -19.5466   -6.8572 C   0  0  0  0  0  0  0  0  0  0  0  0
   26.8380  -20.8361   -6.3868 C   0  0  0  0  0  0  0  0  0  0  0  0
   27.4571  -21.2708   -5.2348 C   0  0  0  0  0  0  0  0  0  0  0  0
   28.2335  -20.3756   -4.5217 C   0  0  0  0  0  0  0  0  0  0  0  0
   28.3836  -19.0641   -4.9619 C   0  0  0  0  0  0  0  0  0  0  0  0
   27.7372  -18.6655   -6.1366 C   0  0  0  0  0  0  0  0  0  0  0  0
   24.7184  -20.3130   -9.4418 C   0  0  0  0  0  0  0  0  0  0  0  0
   24.2102  -19.5540  -10.2936 O   0  0  0  0  0  0  0  0  0  0  0  0
   23.8936  -21.2724   -8.8106 N   0  0  0  0  0  0  0  0  0  0  0  0
   22.7764  -21.8358   -9.5565 C   0  0  0  0  0  0  0  0  0  0  0  0
   21.6542  -20.8823   -9.5861 C   0  0  0  0  0  0  0  0  0  0  0  0
   21.8655  -19.6449   -9.5469 O   0  0  0  0  0  0  0  0  0  0  0  0
   20.3650  -21.3424   -9.6570 O   0  0  0  0  0  0  0  0  0  0  0  0
  2  1  1  6
  2  4  1  0
  3  2  1  0
  4  5  1  6
  6  4  1  0
  7  6  2  0
  8  6  1  0
  9  8  1  0
  9 10  1  1
 10 11  1  0
 11 12  2  0
 11 16  1  0
 12 13  1  0
 13 14  2  0
 15 14  1  0
 16 15  2  0
 17 19  1  0
 17  9  1  0
 18 17  2  0
 20 19  1  0
 21 20  1  0
 21 23  1  0
 22 21  2  0
M  END
$$$$
