TFG.pdb
     RDKit          3D

 23 23  0  0  1  0  0  0  0  0999 V2000
   25.5662  -19.3704  -14.2362 C   0  0  0  0  0  0  0  0  0  0  0  0
   25.5186  -19.8130  -12.7898 C   0  0  1  0  0  0  0  0  0  0  0  0
   24.2852  -20.4232  -12.5679 O   0  0  0  0  0  0  0  0  0  0  0  0
   26.5903  -20.8408  -12.5143 C   0  0  2  0  0  0  0  0  0  0  0  0
   26.3650  -22.0030  -13.3455 N   0  0  0  0  0  0  0  0  0  0  0  0
   26.6834  -21.1835  -11.0731 C   0  0  0  0  0  0  0  0  0  0  0  0
   26.1318  -22.2281  -10.6836 O   0  0  0  0  0  0  0  0  0  0  0  0
   27.3589  -20.3994  -10.1120 N   0  0  0  0  0  0  0  0  0  0  0  0
   27.2327  -20.5378   -8.6989 C   0  0  1  0  0  0  0  0  0  0  0  0
   28.3038  -19.6688   -8.0476 C   0  0  0  0  0  0  0  0  0  0  0  0
   28.2889  -19.7887   -6.5765 C   0  0  0  0  0  0  0  0  0  0  0  0
   28.9131  -20.8233   -5.9137 C   0  0  0  0  0  0  0  0  0  0  0  0
   28.9031  -20.9418   -4.5406 C   0  0  0  0  0  0  0  0  0  0  0  0
   28.2394  -19.9827   -3.7976 C   0  0  0  0  0  0  0  0  0  0  0  0
   27.5961  -18.9216   -4.4275 C   0  0  0  0  0  0  0  0  0  0  0  0
   27.6315  -18.8404   -5.8235 C   0  0  0  0  0  0  0  0  0  0  0  0
   25.9473  -20.1608   -8.1435 C   0  0  0  0  0  0  0  0  0  0  0  0
   25.4321  -19.0529   -8.4019 O   0  0  0  0  0  0  0  0  0  0  0  0
   25.2513  -21.0503   -7.2929 N   0  0  0  0  0  0  0  0  0  0  0  0
   23.8941  -20.7130   -6.8854 C   0  0  0  0  0  0  0  0  0  0  0  0
   23.3815  -21.7230   -5.9438 C   0  0  0  0  0  0  0  0  0  0  0  0
   24.0774  -22.7227   -5.6374 O   0  0  0  0  0  0  0  0  0  0  0  0
   22.1348  -21.5772   -5.3932 O   0  0  0  0  0  0  0  0  0  0  0  0
  2  1  1  6
  2  4  1  0
  3  2  1  0
  4  5  1  6
  6  4  1  0
  7  6  2  0
  8  6  1  0
  9  8  1  0
  9 10  1  1
 10 11  1  0
 11 12  2  0
 11 16  1  0
 12 13  1  0
 13 14  2  0
 15 14  1  0
 16 15  2  0
 17 19  1  0
 17  9  1  0
 18 17  2  0
 20 19  1  0
 21 20  1  0
 21 23  1  0
 22 21  2  0
M  END
$$$$
