TFG.pdb
     RDKit          3D

 23 23  0  0  1  0  0  0  0  0999 V2000
   28.5266  -18.5579  -14.6877 C   0  0  0  0  0  0  0  0  0  0  0  0
   27.4876  -19.2206  -13.8093 C   0  0  1  0  0  0  0  0  0  0  0  0
   26.5978  -19.9031  -14.6371 O   0  0  0  0  0  0  0  0  0  0  0  0
   28.1337  -20.2381  -12.8993 C   0  0  2  0  0  0  0  0  0  0  0  0
   28.7305  -21.2856  -13.6987 N   0  0  0  0  0  0  0  0  0  0  0  0
   27.1870  -20.7673  -11.8859 C   0  0  0  0  0  0  0  0  0  0  0  0
   26.8356  -21.9569  -11.9789 O   0  0  0  0  0  0  0  0  0  0  0  0
   26.6573  -20.0071  -10.8200 N   0  0  0  0  0  0  0  0  0  0  0  0
   25.5637  -20.3970   -9.9931 C   0  0  1  0  0  0  0  0  0  0  0  0
   25.4469  -19.3788   -8.8633 C   0  0  0  0  0  0  0  0  0  0  0  0
   26.3874  -19.6684   -7.7632 C   0  0  0  0  0  0  0  0  0  0  0  0
   27.3358  -18.7605   -7.3443 C   0  0  0  0  0  0  0  0  0  0  0  0
   28.2173  -19.0241   -6.3182 C   0  0  0  0  0  0  0  0  0  0  0  0
   28.1469  -20.2505   -5.6829 C   0  0  0  0  0  0  0  0  0  0  0  0
   27.2040  -21.1958   -6.0749 C   0  0  0  0  0  0  0  0  0  0  0  0
   26.3288  -20.8863   -7.1212 C   0  0  0  0  0  0  0  0  0  0  0  0
   24.2765  -20.4855  -10.6548 C   0  0  0  0  0  0  0  0  0  0  0  0
   24.0101  -19.7750  -11.6468 O   0  0  0  0  0  0  0  0  0  0  0  0
   23.2941  -21.3861  -10.1827 N   0  0  0  0  0  0  0  0  0  0  0  0
   22.2478  -21.8246  -11.0964 C   0  0  0  0  0  0  0  0  0  0  0  0
   21.0580  -20.9682  -10.9533 C   0  0  0  0  0  0  0  0  0  0  0  0
   21.0852  -19.9547  -10.2120 O   0  0  0  0  0  0  0  0  0  0  0  0
   19.9072  -21.2740  -11.6322 O   0  0  0  0  0  0  0  0  0  0  0  0
  2  1  1  6
  2  4  1  0
  3  2  1  0
  4  5  1  6
  6  4  1  0
  7  6  2  0
  8  6  1  0
  9  8  1  0
  9 10  1  1
 10 11  1  0
 11 12  2  0
 11 16  1  0
 12 13  1  0
 13 14  2  0
 15 14  1  0
 16 15  2  0
 17 19  1  0
 17  9  1  0
 18 17  2  0
 20 19  1  0
 21 20  1  0
 21 23  1  0
 22 21  2  0
M  END
$$$$
