TFG.pdb
     RDKit          3D

 23 23  0  0  1  0  0  0  0  0999 V2000
   27.2372  -20.7030  -16.5669 C   0  0  0  0  0  0  0  0  0  0  0  0
   26.3159  -20.7978  -15.3700 C   0  0  1  0  0  0  0  0  0  0  0  0
   25.0666  -21.2191  -15.8221 O   0  0  0  0  0  0  0  0  0  0  0  0
   26.8197  -21.8345  -14.3940 C   0  0  2  0  0  0  0  0  0  0  0  0
   26.8693  -23.1240  -15.0476 N   0  0  0  0  0  0  0  0  0  0  0  0
   26.0218  -21.8630  -13.1427 C   0  0  0  0  0  0  0  0  0  0  0  0
   25.4217  -22.9140  -12.8556 O   0  0  0  0  0  0  0  0  0  0  0  0
   25.8988  -20.7724  -12.2538 N   0  0  0  0  0  0  0  0  0  0  0  0
   25.0508  -20.7337  -11.1087 C   0  0  1  0  0  0  0  0  0  0  0  0
   25.5977  -19.6728  -10.1588 C   0  0  0  0  0  0  0  0  0  0  0  0
   26.8212  -20.1295   -9.4710 C   0  0  0  0  0  0  0  0  0  0  0  0
   27.8222  -20.8166  -10.1231 C   0  0  0  0  0  0  0  0  0  0  0  0
   28.9671  -21.2461   -9.4873 C   0  0  0  0  0  0  0  0  0  0  0  0
   29.1172  -20.9764   -8.1393 C   0  0  0  0  0  0  0  0  0  0  0  0
   28.1303  -20.2852   -7.4431 C   0  0  0  0  0  0  0  0  0  0  0  0
   26.9843  -19.8677   -8.1280 C   0  0  0  0  0  0  0  0  0  0  0  0
   23.6571  -20.4297  -11.3695 C   0  0  0  0  0  0  0  0  0  0  0  0
   22.8033  -20.4836  -10.4597 O   0  0  0  0  0  0  0  0  0  0  0  0
   23.2399  -20.0642  -12.6701 N   0  0  0  0  0  0  0  0  0  0  0  0
   22.2948  -20.9234  -13.3704 C   0  0  0  0  0  0  0  0  0  0  0  0
   20.9849  -20.8907  -12.6976 C   0  0  0  0  0  0  0  0  0  0  0  0
   20.0910  -20.0944  -13.0773 O   0  0  0  0  0  0  0  0  0  0  0  0
   20.7323  -21.7340  -11.6471 O   0  0  0  0  0  0  0  0  0  0  0  0
  2  1  1  6
  2  4  1  0
  3  2  1  0
  4  5  1  6
  6  4  1  0
  7  6  2  0
  8  6  1  0
  9  8  1  0
  9 10  1  1
 10 11  1  0
 11 12  2  0
 11 16  1  0
 12 13  1  0
 13 14  2  0
 15 14  1  0
 16 15  2  0
 17 19  1  0
 17  9  1  0
 18 17  2  0
 20 19  1  0
 21 20  1  0
 21 23  1  0
 22 21  2  0
M  END
$$$$
