MWL.pdb
     RDKit          3D

 31 32  0  0  1  0  0  0  0  0999 V2000
   24.7737  -18.4850  -17.4940 C   0  0  0  0  0  0  0  0  0  0  0  0
   26.3816  -18.7905  -18.2684 S   0  0  0  0  0  0  0  0  0  0  0  0
   27.4415  -19.6907  -17.1127 C   0  0  0  0  0  0  0  0  0  0  0  0
   26.5725  -20.3122  -16.0364 C   0  0  0  0  0  0  0  0  0  0  0  0
   27.4639  -20.9221  -14.9536 C   0  0  2  0  0  0  0  0  0  0  0  0
   28.1183  -22.0570  -15.5843 N   0  0  0  0  0  0  0  0  0  0  0  0
   26.6527  -21.3671  -13.7933 C   0  0  0  0  0  0  0  0  0  0  0  0
   26.2607  -22.5457  -13.6680 O   0  0  0  0  0  0  0  0  0  0  0  0
   26.2817  -20.4529  -12.7563 N   0  0  0  0  0  0  0  0  0  0  0  0
   25.5349  -20.8749  -11.5938 C   0  0  1  0  0  0  0  0  0  0  0  0
   25.9679  -20.2020  -10.3303 C   0  0  0  0  0  0  0  0  0  0  0  0
   27.2040  -20.6785   -9.7211 C   0  0  0  0  0  0  0  0  0  0  0  0
   28.2836  -21.3679  -10.2177 C   0  0  0  0  0  0  0  0  0  0  0  0
   29.1487  -21.5334   -9.2110 N   0  0  0  0  0  0  0  0  0  0  0  0
   28.6825  -20.9832   -8.0810 C   0  0  0  0  0  0  0  0  0  0  0  0
   29.1738  -20.8764   -6.7851 C   0  0  0  0  0  0  0  0  0  0  0  0
   28.4683  -20.2368   -5.7789 C   0  0  0  0  0  0  0  0  0  0  0  0
   27.2334  -19.6854   -6.0716 C   0  0  0  0  0  0  0  0  0  0  0  0
   26.7645  -19.7979   -7.3466 C   0  0  0  0  0  0  0  0  0  0  0  0
   27.4624  -20.4363   -8.3626 C   0  0  0  0  0  0  0  0  0  0  0  0
   24.0757  -20.8386  -11.8103 C   0  0  0  0  0  0  0  0  0  0  0  0
   23.3204  -21.2127  -10.8845 O   0  0  0  0  0  0  0  0  0  0  0  0
   19.3874  -20.7227  -15.0366 C   0  0  0  0  0  0  0  0  0  0  0  0
   20.7956  -20.9804  -15.4183 C   0  0  2  0  0  0  0  0  0  0  0  0
   20.7698  -22.0452  -16.5500 C   0  0  0  0  0  0  0  0  0  0  0  0
   21.7824  -21.3844  -14.4018 C   0  0  0  0  0  0  0  0  0  0  0  0
   22.0135  -20.4934  -13.2555 C   0  0  2  0  0  0  0  0  0  0  0  0
   23.4869  -20.4016  -13.0140 N   0  0  0  0  0  0  0  0  0  0  0  0
   21.4615  -20.9605  -11.9937 C   0  0  0  0  0  0  0  0  0  0  0  0
   20.8001  -20.2954  -11.1695 O   0  0  0  0  0  0  0  0  0  0  0  0
   21.6523  -22.3081  -11.5835 O   0  0  0  0  0  0  0  0  0  0  0  0
  2  1  1  0
  3  2  1  0
  4  3  1  0
  5  4  1  0
  5  6  1  6
  7  5  1  0
  7  8  2  0
  9  7  1  0
 10 11  1  1
 10  9  1  0
 12 11  1  0
 12 13  2  0
 14 13  1  0
 15 14  1  0
 16 15  2  0
 17 16  1  0
 18 17  2  0
 18 19  1  0
 19 20  2  0
 20 15  1  0
 20 12  1  0
 21 10  1  0
 22 21  2  0
 24 23  1  1
 24 25  1  0
 24 26  1  0
 27 26  1  6
 27 28  1  0
 28 21  1  0
 29 27  1  0
 29 31  1  0
 30 29  2  0
M  END
$$$$
