MWL.pdb
     RDKit          3D

 31 32  0  0  1  0  0  0  0  0999 V2000
   28.6704  -25.2180  -15.7846 C   0  0  0  0  0  0  0  0  0  0  0  0
   29.9043  -24.3992  -16.8262 S   0  0  0  0  0  0  0  0  0  0  0  0
   29.2361  -22.8291  -17.4244 C   0  0  0  0  0  0  0  0  0  0  0  0
   28.8959  -21.9573  -16.2311 C   0  0  0  0  0  0  0  0  0  0  0  0
   27.5379  -21.2917  -16.4593 C   0  0  2  0  0  0  0  0  0  0  0  0
   27.6781  -20.5394  -17.6956 N   0  0  0  0  0  0  0  0  0  0  0  0
   27.2002  -20.3857  -15.3335 C   0  0  0  0  0  0  0  0  0  0  0  0
   27.3133  -19.1455  -15.4202 O   0  0  0  0  0  0  0  0  0  0  0  0
   26.7243  -20.9019  -14.0862 N   0  0  0  0  0  0  0  0  0  0  0  0
   25.4579  -20.4956  -13.5219 C   0  0  1  0  0  0  0  0  0  0  0  0
   24.3090  -20.6420  -14.4680 C   0  0  0  0  0  0  0  0  0  0  0  0
   23.0029  -20.2038  -13.9904 C   0  0  0  0  0  0  0  0  0  0  0  0
   22.5643  -19.0374  -13.4116 C   0  0  0  0  0  0  0  0  0  0  0  0
   21.2536  -19.1742  -13.1824 N   0  0  0  0  0  0  0  0  0  0  0  0
   20.8177  -20.3761  -13.5853 C   0  0  0  0  0  0  0  0  0  0  0  0
   19.5788  -21.0062  -13.5772 C   0  0  0  0  0  0  0  0  0  0  0  0
   19.3998  -22.2884  -14.0704 C   0  0  0  0  0  0  0  0  0  0  0  0
   20.4893  -22.9659  -14.5887 C   0  0  0  0  0  0  0  0  0  0  0  0
   21.6978  -22.3354  -14.5900 C   0  0  0  0  0  0  0  0  0  0  0  0
   21.8890  -21.0514  -14.0987 C   0  0  0  0  0  0  0  0  0  0  0  0
   25.2082  -21.0915  -12.1953 C   0  0  0  0  0  0  0  0  0  0  0  0
   24.9018  -22.3035  -12.1279 O   0  0  0  0  0  0  0  0  0  0  0  0
   28.2186  -21.1901   -8.7916 C   0  0  0  0  0  0  0  0  0  0  0  0
   27.2835  -20.0430   -8.8626 C   0  0  2  0  0  0  0  0  0  0  0  0
   27.7995  -18.9760   -7.8574 C   0  0  0  0  0  0  0  0  0  0  0  0
   25.8394  -20.2431   -8.6508 C   0  0  0  0  0  0  0  0  0  0  0  0
   25.0807  -20.9982   -9.6585 C   0  0  2  0  0  0  0  0  0  0  0  0
   25.2977  -20.3600  -10.9938 N   0  0  0  0  0  0  0  0  0  0  0  0
   23.6380  -20.9885   -9.4752 C   0  0  0  0  0  0  0  0  0  0  0  0
   22.7974  -20.3629  -10.1543 O   0  0  0  0  0  0  0  0  0  0  0  0
   23.0433  -21.7489   -8.4318 O   0  0  0  0  0  0  0  0  0  0  0  0
  2  1  1  0
  3  2  1  0
  4  3  1  0
  5  4  1  0
  5  6  1  6
  7  5  1  0
  7  8  2  0
  9  7  1  0
 10 11  1  6
 10  9  1  0
 12 11  1  0
 12 13  2  0
 14 13  1  0
 15 14  1  0
 16 15  2  0
 17 16  1  0
 18 17  2  0
 18 19  1  0
 19 20  2  0
 20 15  1  0
 20 12  1  0
 21 10  1  0
 22 21  2  0
 24 23  1  1
 24 25  1  0
 24 26  1  0
 27 26  1  1
 27 28  1  0
 28 21  1  0
 29 27  1  0
 29 31  1  0
 30 29  2  0
M  END
$$$$
