MWL.pdb
     RDKit          3D

 31 32  0  0  1  0  0  0  0  0999 V2000
   28.6474  -21.2825  -15.4771 C   0  0  0  0  0  0  0  0  0  0  0  0
   28.8319  -20.2425  -16.9476 S   0  0  0  0  0  0  0  0  0  0  0  0
   29.0223  -18.5173  -16.4409 C   0  0  0  0  0  0  0  0  0  0  0  0
   27.6962  -18.0182  -15.9006 C   0  0  0  0  0  0  0  0  0  0  0  0
   26.6001  -18.2647  -16.9383 C   0  0  2  0  0  0  0  0  0  0  0  0
   26.7782  -17.2292  -17.9434 N   0  0  0  0  0  0  0  0  0  0  0  0
   25.2557  -18.1630  -16.3180 C   0  0  0  0  0  0  0  0  0  0  0  0
   24.8630  -17.1247  -15.7469 O   0  0  0  0  0  0  0  0  0  0  0  0
   24.3418  -19.2641  -16.3492 N   0  0  0  0  0  0  0  0  0  0  0  0
   23.0674  -19.2216  -15.6701 C   0  0  1  0  0  0  0  0  0  0  0  0
   21.8983  -19.1488  -16.5999 C   0  0  0  0  0  0  0  0  0  0  0  0
   21.7003  -17.8915  -17.3112 C   0  0  0  0  0  0  0  0  0  0  0  0
   22.2956  -17.3441  -18.4219 C   0  0  0  0  0  0  0  0  0  0  0  0
   21.7122  -16.1613  -18.6452 N   0  0  0  0  0  0  0  0  0  0  0  0
   20.7639  -15.9127  -17.7310 C   0  0  0  0  0  0  0  0  0  0  0  0
   19.8849  -14.8580  -17.5141 C   0  0  0  0  0  0  0  0  0  0  0  0
   18.9802  -14.8552  -16.4648 C   0  0  0  0  0  0  0  0  0  0  0  0
   18.9492  -15.9373  -15.6031 C   0  0  0  0  0  0  0  0  0  0  0  0
   19.8169  -16.9642  -15.8282 C   0  0  0  0  0  0  0  0  0  0  0  0
   20.7274  -16.9778  -16.8759 C   0  0  0  0  0  0  0  0  0  0  0  0
   22.9361  -20.2695  -14.6395 C   0  0  0  0  0  0  0  0  0  0  0  0
   22.8604  -21.4652  -15.0032 O   0  0  0  0  0  0  0  0  0  0  0  0
   25.8989  -21.5059  -11.5194 C   0  0  0  0  0  0  0  0  0  0  0  0
   24.9837  -20.4042  -11.1400 C   0  0  2  0  0  0  0  0  0  0  0  0
   25.5036  -19.8276   -9.7938 C   0  0  0  0  0  0  0  0  0  0  0  0
   23.5338  -20.6421  -11.0322 C   0  0  0  0  0  0  0  0  0  0  0  0
   22.8027  -21.0741  -12.2322 C   0  0  2  0  0  0  0  0  0  0  0  0
   22.8910  -19.9898  -13.2588 N   0  0  0  0  0  0  0  0  0  0  0  0
   21.3766  -21.2844  -12.0398 C   0  0  0  0  0  0  0  0  0  0  0  0
   20.4651  -20.4442  -12.1891 O   0  0  0  0  0  0  0  0  0  0  0  0
   20.8880  -22.5578  -11.6391 O   0  0  0  0  0  0  0  0  0  0  0  0
  2  1  1  0
  3  2  1  0
  4  3  1  0
  5  4  1  0
  5  6  1  6
  7  5  1  0
  7  8  2  0
  9  7  1  0
 10 11  1  6
 10  9  1  0
 12 11  1  0
 12 13  2  0
 14 13  1  0
 15 14  1  0
 16 15  2  0
 17 16  1  0
 18 17  2  0
 18 19  1  0
 19 20  2  0
 20 15  1  0
 20 12  1  0
 21 10  1  0
 22 21  2  0
 24 23  1  1
 24 25  1  0
 24 26  1  0
 27 26  1  1
 27 28  1  0
 28 21  1  0
 29 27  1  0
 29 31  1  0
 30 29  2  0
M  END
$$$$
