MWL.pdb
     RDKit          3D

 31 32  0  0  1  0  0  0  0  0999 V2000
   30.7480  -23.9966  -16.5318 C   0  0  0  0  0  0  0  0  0  0  0  0
   29.8287  -22.9140  -15.4088 S   0  0  0  0  0  0  0  0  0  0  0  0
   29.9282  -21.2098  -16.0048 C   0  0  0  0  0  0  0  0  0  0  0  0
   29.1864  -20.3098  -15.0356 C   0  0  0  0  0  0  0  0  0  0  0  0
   27.7766  -20.8584  -14.8107 C   0  0  2  0  0  0  0  0  0  0  0  0
   27.0327  -20.5197  -16.0131 N   0  0  0  0  0  0  0  0  0  0  0  0
   27.1526  -20.2329  -13.6184 C   0  0  0  0  0  0  0  0  0  0  0  0
   27.3502  -19.0387  -13.3129 O   0  0  0  0  0  0  0  0  0  0  0  0
   26.2871  -20.9813  -12.7584 N   0  0  0  0  0  0  0  0  0  0  0  0
   25.6232  -20.3779  -11.6260 C   0  0  1  0  0  0  0  0  0  0  0  0
   24.1311  -20.4168  -11.7192 C   0  0  0  0  0  0  0  0  0  0  0  0
   23.5397  -20.0030  -12.9861 C   0  0  0  0  0  0  0  0  0  0  0  0
   22.5332  -20.5263  -13.7612 C   0  0  0  0  0  0  0  0  0  0  0  0
   22.3928  -19.7280  -14.8251 N   0  0  0  0  0  0  0  0  0  0  0  0
   23.2615  -18.7081  -14.7791 C   0  0  0  0  0  0  0  0  0  0  0  0
   23.5248  -17.6260  -15.6109 C   0  0  0  0  0  0  0  0  0  0  0  0
   24.5055  -16.6921  -15.3186 C   0  0  0  0  0  0  0  0  0  0  0  0
   25.2486  -16.8397  -14.1607 C   0  0  0  0  0  0  0  0  0  0  0  0
   24.9791  -17.9056  -13.3548 C   0  0  0  0  0  0  0  0  0  0  0  0
   23.9993  -18.8473  -13.6375 C   0  0  0  0  0  0  0  0  0  0  0  0
   26.1456  -20.8637  -10.3343 C   0  0  0  0  0  0  0  0  0  0  0  0
   26.3613  -22.0891  -10.1949 O   0  0  0  0  0  0  0  0  0  0  0  0
   27.9283  -18.5559   -4.7897 C   0  0  0  0  0  0  0  0  0  0  0  0
   27.7811  -19.6951   -5.7256 C   0  0  2  0  0  0  0  0  0  0  0  0
   29.0949  -20.5211   -5.6427 C   0  0  0  0  0  0  0  0  0  0  0  0
   27.4510  -19.4597   -7.1419 C   0  0  0  0  0  0  0  0  0  0  0  0
   26.8100  -20.5425   -7.9021 C   0  0  2  0  0  0  0  0  0  0  0  0
   26.4149  -20.0123   -9.2438 N   0  0  0  0  0  0  0  0  0  0  0  0
   25.5737  -21.0482   -7.3268 C   0  0  0  0  0  0  0  0  0  0  0  0
   24.4104  -20.7014   -7.6196 O   0  0  0  0  0  0  0  0  0  0  0  0
   25.6099  -22.0474   -6.3165 O   0  0  0  0  0  0  0  0  0  0  0  0
  2  1  1  0
  3  2  1  0
  4  3  1  0
  5  4  1  0
  5  6  1  6
  7  5  1  0
  7  8  2  0
  9  7  1  0
 10 11  1  6
 10  9  1  0
 12 11  1  0
 12 13  2  0
 14 13  1  0
 15 14  1  0
 16 15  2  0
 17 16  1  0
 18 17  2  0
 18 19  1  0
 19 20  2  0
 20 15  1  0
 20 12  1  0
 21 10  1  0
 22 21  2  0
 24 23  1  1
 24 25  1  0
 24 26  1  0
 27 26  1  1
 27 28  1  0
 28 21  1  0
 29 27  1  0
 29 31  1  0
 30 29  2  0
M  END
$$$$
