MWL.pdb
     RDKit          3D

 31 32  0  0  1  0  0  0  0  0999 V2000
   28.1012  -21.2771   -8.4141 C   0  0  0  0  0  0  0  0  0  0  0  0
   29.8026  -21.2614   -9.0331 S   0  0  0  0  0  0  0  0  0  0  0  0
   29.7897  -21.4955  -10.8260 C   0  0  0  0  0  0  0  0  0  0  0  0
   28.5156  -20.8946  -11.3874 C   0  0  0  0  0  0  0  0  0  0  0  0
   28.4323  -21.1898  -12.8858 C   0  0  2  0  0  0  0  0  0  0  0  0
   29.5754  -20.5140  -13.4779 N   0  0  0  0  0  0  0  0  0  0  0  0
   27.1655  -20.6671  -13.4554 C   0  0  0  0  0  0  0  0  0  0  0  0
   26.9603  -19.4458  -13.6126 O   0  0  0  0  0  0  0  0  0  0  0  0
   26.1134  -21.5520  -13.8539 N   0  0  0  0  0  0  0  0  0  0  0  0
   24.8653  -21.0643  -14.3940 C   0  0  1  0  0  0  0  0  0  0  0  0
   24.7087  -21.3211  -15.8589 C   0  0  0  0  0  0  0  0  0  0  0  0
   25.6715  -20.6797  -16.7464 C   0  0  0  0  0  0  0  0  0  0  0  0
   26.8793  -21.0841  -17.2614 C   0  0  0  0  0  0  0  0  0  0  0  0
   27.3344  -20.0934  -18.0363 N   0  0  0  0  0  0  0  0  0  0  0  0
   26.4787  -19.0618  -18.0501 C   0  0  0  0  0  0  0  0  0  0  0  0
   26.4718  -17.8215  -18.6776 C   0  0  0  0  0  0  0  0  0  0  0  0
   25.4327  -16.9192  -18.5175 C   0  0  0  0  0  0  0  0  0  0  0  0
   24.3654  -17.2624  -17.7064 C   0  0  0  0  0  0  0  0  0  0  0  0
   24.3859  -18.4818  -17.0977 C   0  0  0  0  0  0  0  0  0  0  0  0
   25.4213  -19.3936  -17.2508 C   0  0  0  0  0  0  0  0  0  0  0  0
   23.6973  -21.4812  -13.5946 C   0  0  0  0  0  0  0  0  0  0  0  0
   23.7243  -22.5962  -13.0256 O   0  0  0  0  0  0  0  0  0  0  0  0
   18.7352  -20.6183  -10.9712 C   0  0  0  0  0  0  0  0  0  0  0  0
   20.1324  -20.3983  -10.5299 C   0  0  2  0  0  0  0  0  0  0  0  0
   20.1052  -19.2261   -9.5099 C   0  0  0  0  0  0  0  0  0  0  0  0
   21.1968  -20.1502  -11.5177 C   0  0  0  0  0  0  0  0  0  0  0  0
   21.3835  -21.1205  -12.6062 C   0  0  2  0  0  0  0  0  0  0  0  0
   22.5463  -20.6827  -13.4392 N   0  0  0  0  0  0  0  0  0  0  0  0
   20.2742  -21.2144  -13.5420 C   0  0  0  0  0  0  0  0  0  0  0  0
   19.8842  -20.3345  -14.3375 O   0  0  0  0  0  0  0  0  0  0  0  0
   19.5017  -22.4051  -13.6199 O   0  0  0  0  0  0  0  0  0  0  0  0
  2  1  1  0
  3  2  1  0
  4  3  1  0
  5  4  1  0
  5  6  1  6
  7  5  1  0
  7  8  2  0
  9  7  1  0
 10 11  1  6
 10  9  1  0
 12 11  1  0
 12 13  2  0
 14 13  1  0
 15 14  1  0
 16 15  2  0
 17 16  1  0
 18 17  2  0
 18 19  1  0
 19 20  2  0
 20 15  1  0
 20 12  1  0
 21 10  1  0
 22 21  2  0
 24 23  1  6
 24 25  1  0
 24 26  1  0
 27 26  1  1
 27 28  1  0
 28 21  1  0
 29 27  1  0
 29 31  1  0
 30 29  2  0
M  END
$$$$
