MWL.pdb
     RDKit          3D

 31 32  0  0  1  0  0  0  0  0999 V2000
   24.8039  -25.6237  -19.6125 C   0  0  0  0  0  0  0  0  0  0  0  0
   25.7513  -24.1707  -20.1314 S   0  0  0  0  0  0  0  0  0  0  0  0
   26.7518  -23.5818  -18.7452 C   0  0  0  0  0  0  0  0  0  0  0  0
   26.0346  -23.9123  -17.4506 C   0  0  0  0  0  0  0  0  0  0  0  0
   26.8655  -23.4124  -16.2679 C   0  0  2  0  0  0  0  0  0  0  0  0
   27.9659  -24.3544  -16.1418 N   0  0  0  0  0  0  0  0  0  0  0  0
   26.0534  -23.3907  -15.0260 C   0  0  0  0  0  0  0  0  0  0  0  0
   26.5500  -23.6099  -13.9019 O   0  0  0  0  0  0  0  0  0  0  0  0
   24.6497  -23.1136  -15.0653 N   0  0  0  0  0  0  0  0  0  0  0  0
   23.9799  -22.3976  -14.0041 C   0  0  1  0  0  0  0  0  0  0  0  0
   24.5991  -21.0716  -13.6962 C   0  0  0  0  0  0  0  0  0  0  0  0
   25.2991  -20.9517  -12.4227 C   0  0  0  0  0  0  0  0  0  0  0  0
   24.8654  -20.9139  -11.1196 C   0  0  0  0  0  0  0  0  0  0  0  0
   25.9482  -20.8046  -10.3418 N   0  0  0  0  0  0  0  0  0  0  0  0
   27.0677  -20.7696  -11.0782 C   0  0  0  0  0  0  0  0  0  0  0  0
   28.4203  -20.6680  -10.7744 C   0  0  0  0  0  0  0  0  0  0  0  0
   29.3982  -20.6555  -11.7557 C   0  0  0  0  0  0  0  0  0  0  0  0
   29.0177  -20.7472  -13.0830 C   0  0  0  0  0  0  0  0  0  0  0  0
   27.6879  -20.8463  -13.3657 C   0  0  0  0  0  0  0  0  0  0  0  0
   26.6997  -20.8598  -12.3910 C   0  0  0  0  0  0  0  0  0  0  0  0
   22.5179  -22.3353  -14.1935 C   0  0  0  0  0  0  0  0  0  0  0  0
   22.0673  -21.7827  -15.2227 O   0  0  0  0  0  0  0  0  0  0  0  0
   17.1564  -23.5590  -12.5787 C   0  0  0  0  0  0  0  0  0  0  0  0
   18.2073  -24.5345  -12.9521 C   0  0  2  0  0  0  0  0  0  0  0  0
   17.9278  -25.8320  -12.1437 C   0  0  0  0  0  0  0  0  0  0  0  0
   19.6320  -24.1841  -12.8194 C   0  0  0  0  0  0  0  0  0  0  0  0
   20.1526  -23.0548  -13.6036 C   0  0  2  0  0  0  0  0  0  0  0  0
   21.5985  -22.8695  -13.2683 N   0  0  0  0  0  0  0  0  0  0  0  0
   19.5386  -21.7693  -13.3111 C   0  0  0  0  0  0  0  0  0  0  0  0
   19.8332  -20.9886  -12.3823 O   0  0  0  0  0  0  0  0  0  0  0  0
   18.4821  -21.2783  -14.1256 O   0  0  0  0  0  0  0  0  0  0  0  0
  2  1  1  0
  3  2  1  0
  4  3  1  0
  5  4  1  0
  5  6  1  1
  7  5  1  0
  7  8  2  0
  9  7  1  0
 10 11  1  6
 10  9  1  0
 12 11  1  0
 12 13  2  0
 14 13  1  0
 15 14  1  0
 16 15  2  0
 17 16  1  0
 18 17  2  0
 18 19  1  0
 19 20  2  0
 20 15  1  0
 20 12  1  0
 21 10  1  0
 22 21  2  0
 24 23  1  1
 24 25  1  0
 24 26  1  0
 27 26  1  1
 27 28  1  0
 28 21  1  0
 29 27  1  0
 29 31  1  0
 30 29  2  0
M  END
$$$$
