MWL.pdb
     RDKit          3D

 31 32  0  0  1  0  0  0  0  0999 V2000
   23.5125  -11.7696  -23.8261 C   0  0  0  0  0  0  0  0  0  0  0  0
   22.9139  -10.7578  -22.4492 S   0  0  0  0  0  0  0  0  0  0  0  0
   22.0961  -11.8206  -21.2364 C   0  0  0  0  0  0  0  0  0  0  0  0
   21.5241  -10.9516  -20.1330 C   0  0  0  0  0  0  0  0  0  0  0  0
   22.5693  -10.7782  -19.0299 C   0  0  2  0  0  0  0  0  0  0  0  0
   22.7941  -12.1118  -18.4962 N   0  0  0  0  0  0  0  0  0  0  0  0
   22.0685   -9.8698  -17.9687 C   0  0  0  0  0  0  0  0  0  0  0  0
   21.0937  -10.1636  -17.2463 O   0  0  0  0  0  0  0  0  0  0  0  0
   22.6899   -8.6035  -17.7254 N   0  0  0  0  0  0  0  0  0  0  0  0
   22.2419   -7.7194  -16.6742 C   0  0  1  0  0  0  0  0  0  0  0  0
   23.2303   -7.5663  -15.5624 C   0  0  0  0  0  0  0  0  0  0  0  0
   23.6749   -8.7888  -14.9037 C   0  0  0  0  0  0  0  0  0  0  0  0
   23.1250   -9.5694  -13.9158 C   0  0  0  0  0  0  0  0  0  0  0  0
   23.9626  -10.5899  -13.7010 N   0  0  0  0  0  0  0  0  0  0  0  0
   25.0331  -10.5105  -14.5038 C   0  0  0  0  0  0  0  0  0  0  0  0
   26.1675  -11.2940  -14.6805 C   0  0  0  0  0  0  0  0  0  0  0  0
   27.1470  -10.9760  -15.6073 C   0  0  0  0  0  0  0  0  0  0  0  0
   26.9926   -9.8412  -16.3838 C   0  0  0  0  0  0  0  0  0  0  0  0
   25.8752   -9.0826  -16.1994 C   0  0  0  0  0  0  0  0  0  0  0  0
   24.8876   -9.3914  -15.2742 C   0  0  0  0  0  0  0  0  0  0  0  0
   21.7314   -6.4346  -17.1897 C   0  0  0  0  0  0  0  0  0  0  0  0
   22.4658   -5.7524  -17.9398 O   0  0  0  0  0  0  0  0  0  0  0  0
   16.9312   -3.9448  -19.7618 C   0  0  0  0  0  0  0  0  0  0  0  0
   18.1739   -3.7496  -18.9790 C   0  0  2  0  0  0  0  0  0  0  0  0
   19.1990   -3.0605  -19.9221 C   0  0  0  0  0  0  0  0  0  0  0  0
   18.8252   -4.8924  -18.3155 C   0  0  0  0  0  0  0  0  0  0  0  0
   19.9570   -4.6287  -17.4150 C   0  0  2  0  0  0  0  0  0  0  0  0
   20.4512   -5.9342  -16.8775 N   0  0  0  0  0  0  0  0  0  0  0  0
   19.6326   -3.8432  -16.2348 C   0  0  0  0  0  0  0  0  0  0  0  0
   19.6892   -2.6013  -16.1184 O   0  0  0  0  0  0  0  0  0  0  0  0
   19.1955   -4.4858  -15.0445 O   0  0  0  0  0  0  0  0  0  0  0  0
  2  1  1  0
  3  2  1  0
  4  3  1  0
  5  4  1  0
  5  6  1  1
  7  5  1  0
  7  8  2  0
  9  7  1  0
 10 11  1  1
 10  9  1  0
 12 11  1  0
 12 13  2  0
 14 13  1  0
 15 14  1  0
 16 15  2  0
 17 16  1  0
 18 17  2  0
 18 19  1  0
 19 20  2  0
 20 15  1  0
 20 12  1  0
 21 10  1  0
 22 21  2  0
 24 23  1  6
 24 25  1  0
 24 26  1  0
 27 26  1  6
 27 28  1  0
 28 21  1  0
 29 27  1  0
 29 31  1  0
 30 29  2  0
M  END
$$$$
