MWL.pdb
     RDKit          3D

 31 32  0  0  1  0  0  0  0  0999 V2000
   23.5535  -17.9930  -18.0016 C   0  0  0  0  0  0  0  0  0  0  0  0
   24.9205  -17.0154  -18.6752 S   0  0  0  0  0  0  0  0  0  0  0  0
   26.4908  -17.7812  -18.2093 C   0  0  0  0  0  0  0  0  0  0  0  0
   26.2879  -18.5722  -16.9316 C   0  0  0  0  0  0  0  0  0  0  0  0
   27.5444  -19.3932  -16.6377 C   0  0  2  0  0  0  0  0  0  0  0  0
   27.6349  -20.3629  -17.7173 N   0  0  0  0  0  0  0  0  0  0  0  0
   27.4290  -20.0811  -15.3278 C   0  0  0  0  0  0  0  0  0  0  0  0
   26.7446  -21.1141  -15.1763 O   0  0  0  0  0  0  0  0  0  0  0  0
   28.1062  -19.5835  -14.1691 N   0  0  0  0  0  0  0  0  0  0  0  0
   27.9379  -20.1843  -12.8660 C   0  0  1  0  0  0  0  0  0  0  0  0
   29.0384  -19.8519  -11.9095 C   0  0  0  0  0  0  0  0  0  0  0  0
   29.0411  -20.5627  -10.6364 C   0  0  0  0  0  0  0  0  0  0  0  0
   29.5079  -21.7984  -10.2587 C   0  0  0  0  0  0  0  0  0  0  0  0
   29.2561  -21.9379   -8.9524 N   0  0  0  0  0  0  0  0  0  0  0  0
   28.6467  -20.8496   -8.4613 C   0  0  0  0  0  0  0  0  0  0  0  0
   28.1817  -20.4892   -7.2020 C   0  0  0  0  0  0  0  0  0  0  0  0
   27.5736  -19.2678   -6.9616 C   0  0  0  0  0  0  0  0  0  0  0  0
   27.4232  -18.3757   -8.0086 C   0  0  0  0  0  0  0  0  0  0  0  0
   27.8840  -18.7429   -9.2378 C   0  0  0  0  0  0  0  0  0  0  0  0
   28.4947  -19.9635   -9.4903 C   0  0  0  0  0  0  0  0  0  0  0  0
   26.5885  -19.9686  -12.3095 C   0  0  0  0  0  0  0  0  0  0  0  0
   26.0966  -18.8180  -12.3523 O   0  0  0  0  0  0  0  0  0  0  0  0
   21.9086  -19.4198  -12.6719 C   0  0  0  0  0  0  0  0  0  0  0  0
   22.8003  -20.5107  -13.1303 C   0  0  2  0  0  0  0  0  0  0  0  0
   21.9695  -21.3967  -14.0998 C   0  0  0  0  0  0  0  0  0  0  0  0
   23.4823  -21.3774  -12.1536 C   0  0  0  0  0  0  0  0  0  0  0  0
   24.4357  -20.7644  -11.2174 C   0  0  2  0  0  0  0  0  0  0  0  0
   25.8217  -20.9988  -11.7287 N   0  0  0  0  0  0  0  0  0  0  0  0
   24.4350  -21.3342   -9.8793 C   0  0  0  0  0  0  0  0  0  0  0  0
   25.1725  -22.2453   -9.4490 O   0  0  0  0  0  0  0  0  0  0  0  0
   23.5259  -20.8551   -8.8972 O   0  0  0  0  0  0  0  0  0  0  0  0
  2  1  1  0
  3  2  1  0
  4  3  1  0
  5  4  1  0
  5  6  1  6
  7  5  1  0
  7  8  2  0
  9  7  1  0
 10 11  1  1
 10  9  1  0
 12 11  1  0
 12 13  2  0
 14 13  1  0
 15 14  1  0
 16 15  2  0
 17 16  1  0
 18 17  2  0
 18 19  1  0
 19 20  2  0
 20 15  1  0
 20 12  1  0
 21 10  1  0
 22 21  2  0
 24 23  1  1
 24 25  1  0
 24 26  1  0
 27 26  1  6
 27 28  1  0
 28 21  1  0
 29 27  1  0
 29 31  1  0
 30 29  2  0
M  END
$$$$
