MWL.pdb
     RDKit          3D

 31 32  0  0  1  0  0  0  0  0999 V2000
   23.1761  -37.9426  -18.1609 C   0  0  0  0  0  0  0  0  0  0  0  0
   23.9574  -36.8143  -16.9800 S   0  0  0  0  0  0  0  0  0  0  0  0
   23.2587  -35.1588  -17.1815 C   0  0  0  0  0  0  0  0  0  0  0  0
   23.7199  -34.2907  -16.0268 C   0  0  0  0  0  0  0  0  0  0  0  0
   23.4590  -32.8211  -16.3606 C   0  0  2  0  0  0  0  0  0  0  0  0
   24.5170  -32.4394  -17.2820 N   0  0  0  0  0  0  0  0  0  0  0  0
   23.5092  -31.9861  -15.1348 C   0  0  0  0  0  0  0  0  0  0  0  0
   24.3378  -31.0634  -14.9913 O   0  0  0  0  0  0  0  0  0  0  0  0
   22.5984  -32.2057  -14.0527 N   0  0  0  0  0  0  0  0  0  0  0  0
   22.4242  -31.2424  -12.9902 C   0  0  1  0  0  0  0  0  0  0  0  0
   21.4498  -30.1577  -13.3226 C   0  0  0  0  0  0  0  0  0  0  0  0
   21.2166  -29.1459  -12.2989 C   0  0  0  0  0  0  0  0  0  0  0  0
   22.0628  -28.3958  -11.5186 C   0  0  0  0  0  0  0  0  0  0  0  0
   21.3030  -27.6073  -10.7502 N   0  0  0  0  0  0  0  0  0  0  0  0
   20.0005  -27.8091  -10.9941 C   0  0  0  0  0  0  0  0  0  0  0  0
   18.8273  -27.2643  -10.4851 C   0  0  0  0  0  0  0  0  0  0  0  0
   17.5762  -27.6631  -10.9267 C   0  0  0  0  0  0  0  0  0  0  0  0
   17.4894  -28.6359  -11.9069 C   0  0  0  0  0  0  0  0  0  0  0  0
   18.6482  -29.1609  -12.3965 C   0  0  0  0  0  0  0  0  0  0  0  0
   19.9069  -28.7692  -11.9618 C   0  0  0  0  0  0  0  0  0  0  0  0
   22.1755  -31.8769  -11.6814 C   0  0  0  0  0  0  0  0  0  0  0  0
   21.3164  -32.7845  -11.6061 O   0  0  0  0  0  0  0  0  0  0  0  0
   25.0113  -34.2921   -8.7370 C   0  0  0  0  0  0  0  0  0  0  0  0
   25.0383  -32.8108   -8.7197 C   0  0  2  0  0  0  0  0  0  0  0  0
   26.1964  -32.3906   -7.7724 C   0  0  0  0  0  0  0  0  0  0  0  0
   23.8292  -32.0464   -8.3677 C   0  0  0  0  0  0  0  0  0  0  0  0
   22.6298  -32.2072   -9.2025 C   0  0  2  0  0  0  0  0  0  0  0  0
   22.8605  -31.5098  -10.5056 N   0  0  0  0  0  0  0  0  0  0  0  0
   21.4226  -31.5982   -8.6670 C   0  0  0  0  0  0  0  0  0  0  0  0
   20.8582  -30.5616   -9.0745 O   0  0  0  0  0  0  0  0  0  0  0  0
   20.7536  -32.1875   -7.5599 O   0  0  0  0  0  0  0  0  0  0  0  0
  2  1  1  0
  3  2  1  0
  4  3  1  0
  5  4  1  0
  5  6  1  6
  7  5  1  0
  7  8  2  0
  9  7  1  0
 10 11  1  6
 10  9  1  0
 12 11  1  0
 12 13  2  0
 14 13  1  0
 15 14  1  0
 16 15  2  0
 17 16  1  0
 18 17  2  0
 18 19  1  0
 19 20  2  0
 20 15  1  0
 20 12  1  0
 21 10  1  0
 22 21  2  0
 24 23  1  1
 24 25  1  0
 24 26  1  0
 27 26  1  1
 27 28  1  0
 28 21  1  0
 29 27  1  0
 29 31  1  0
 30 29  2  0
M  END
$$$$
