MET.pdb
     RDKit          3D

 25 24  0  0  1  0  0  0  0  0999 V2000
    7.5239  -12.2779   27.4615 C   0  0  0  0  0  0  0  0  0  0  0  0
    6.4312  -12.1184   26.0472 S   0  0  0  0  0  0  0  0  0  0  0  0
    5.8551  -13.6973   25.4826 C   0  0  0  0  0  0  0  0  0  0  0  0
    6.8843  -14.6932   25.1627 C   0  0  0  0  0  0  0  0  0  0  0  0
    7.0495  -15.1809   23.7779 C   0  0  2  0  0  0  0  0  0  0  0  0
    5.8156  -15.9302   23.4486 N   0  0  0  0  0  0  0  0  0  0  0  0
    8.1775  -16.2095   23.7359 C   0  0  0  0  0  0  0  0  0  0  0  0
    7.9649  -17.3037   24.2894 O   0  0  0  0  0  0  0  0  0  0  0  0
    9.4002  -15.9440   23.1060 N   0  0  0  0  0  0  0  0  0  0  0  0
   10.5034  -16.9138   23.1166 C   0  0  1  0  0  0  0  0  0  0  0  0
   11.4938  -16.6077   22.0549 C   0  0  0  0  0  0  0  0  0  0  0  0
   12.6287  -17.5745   22.0144 C   0  0  0  0  0  0  0  0  0  0  0  0
   13.5822  -17.3740   20.9085 C   0  0  0  0  0  0  0  0  0  0  0  0
   14.7633  -17.7863   20.8868 O   0  0  0  0  0  0  0  0  0  0  0  0
   11.1374  -16.9266   24.4544 C   0  0  0  0  0  0  0  0  0  0  0  0
   11.8201  -15.9772   24.8961 O   0  0  0  0  0  0  0  0  0  0  0  0
   13.1820  -16.6677   19.7598 O   0  0  0  0  0  0  0  0  0  0  0  0
    9.9251  -16.8019   27.8937 C   0  0  0  0  0  0  0  0  0  0  0  0
   10.6735  -18.1066   27.7761 C   0  0  1  0  0  0  0  0  0  0  0  0
    9.7965  -19.1618   27.5933 O   0  0  0  0  0  0  0  0  0  0  0  0
   11.6496  -18.1071   26.6357 C   0  0  2  0  0  0  0  0  0  0  0  0
   11.0049  -18.0487   25.3399 N   0  0  0  0  0  0  0  0  0  0  0  0
   12.5958  -19.2514   26.7007 C   0  0  0  0  0  0  0  0  0  0  0  0
   12.6253  -20.1875   25.6631 O   0  0  0  0  0  0  0  0  0  0  0  0
   13.3737  -19.4082   27.6583 O   0  0  0  0  0  0  0  0  0  0  0  0
  2  1  1  0
  3  4  1  0
  3  2  1  0
  4  5  1  0
  5  7  1  0
  5  6  1  1
  7  8  2  0
  9  7  1  0
  9 10  1  0
 10 15  1  0
 11 12  1  0
 10 11  1  6
 12 13  1  0
 13 14  2  0
 15 22  1  0
 15 16  2  0
 17 13  1  0
 19 21  1  0
 19 18  1  6
 20 19  1  0
 21 23  1  0
 21 22  1  6
 23 24  1  0
 25 23  2  0
M  END
$$$$
