MET.pdb
     RDKit          3D

 25 24  0  0  1  0  0  0  0  0999 V2000
    7.8333  -11.5240   22.1713 C   0  0  0  0  0  0  0  0  0  0  0  0
    7.3070  -12.0213   20.5295 S   0  0  0  0  0  0  0  0  0  0  0  0
    7.5385  -13.7591   20.2652 C   0  0  0  0  0  0  0  0  0  0  0  0
    8.2380  -14.4946   21.3249 C   0  0  0  0  0  0  0  0  0  0  0  0
    8.6205  -15.9081   21.1283 C   0  0  2  0  0  0  0  0  0  0  0  0
    7.3625  -16.6526   20.8924 N   0  0  0  0  0  0  0  0  0  0  0  0
    9.1878  -16.4640   22.4326 C   0  0  0  0  0  0  0  0  0  0  0  0
    8.3714  -16.9144   23.2568 O   0  0  0  0  0  0  0  0  0  0  0  0
   10.5629  -16.4715   22.6996 N   0  0  0  0  0  0  0  0  0  0  0  0
   11.1061  -17.0205   23.9492 C   0  0  1  0  0  0  0  0  0  0  0  0
   12.4779  -17.5492   23.7483 C   0  0  0  0  0  0  0  0  0  0  0  0
   12.5628  -18.5618   22.6567 C   0  0  0  0  0  0  0  0  0  0  0  0
   13.9140  -19.0905   22.3974 C   0  0  0  0  0  0  0  0  0  0  0  0
   14.3702  -20.1647   22.8483 O   0  0  0  0  0  0  0  0  0  0  0  0
   11.0815  -15.9772   24.9992 C   0  0  0  0  0  0  0  0  0  0  0  0
   11.7414  -14.9181   24.9259 O   0  0  0  0  0  0  0  0  0  0  0  0
   14.8034  -18.3669   21.5825 O   0  0  0  0  0  0  0  0  0  0  0  0
    8.7419  -13.4916   26.2768 C   0  0  0  0  0  0  0  0  0  0  0  0
    9.0207  -14.4203   27.4326 C   0  0  1  0  0  0  0  0  0  0  0  0
    8.0045  -15.3496   27.5728 O   0  0  0  0  0  0  0  0  0  0  0  0
   10.3149  -15.1635   27.2718 C   0  0  2  0  0  0  0  0  0  0  0  0
   10.2856  -16.1210   26.1853 N   0  0  0  0  0  0  0  0  0  0  0  0
   10.7549  -15.8140   28.5336 C   0  0  0  0  0  0  0  0  0  0  0  0
   11.0141  -15.0329   29.6634 O   0  0  0  0  0  0  0  0  0  0  0  0
   10.9026  -17.0457   28.6221 O   0  0  0  0  0  0  0  0  0  0  0  0
  2  1  1  0
  3  4  1  0
  3  2  1  0
  4  5  1  0
  5  7  1  0
  5  6  1  1
  7  8  2  0
  9  7  1  0
  9 10  1  0
 10 15  1  0
 11 12  1  0
 10 11  1  6
 12 13  1  0
 13 14  2  0
 15 22  1  0
 15 16  2  0
 17 13  1  0
 19 21  1  0
 19 18  1  6
 20 19  1  0
 21 23  1  0
 21 22  1  6
 23 24  1  0
 25 23  2  0
M  END
$$$$
