MET.pdb
     RDKit          3D

 25 24  0  0  1  0  0  0  0  0999 V2000
    5.9242  -11.2437   18.7384 C   0  0  0  0  0  0  0  0  0  0  0  0
    7.4238  -12.2102   18.9314 S   0  0  0  0  0  0  0  0  0  0  0  0
    7.1588  -13.9177   18.5343 C   0  0  0  0  0  0  0  0  0  0  0  0
    8.2985  -14.8203   18.7337 C   0  0  0  0  0  0  0  0  0  0  0  0
    9.3669  -14.9130   17.7174 C   0  0  2  0  0  0  0  0  0  0  0  0
    8.7970  -15.6701   16.5796 N   0  0  0  0  0  0  0  0  0  0  0  0
   10.5038  -15.7781   18.2573 C   0  0  0  0  0  0  0  0  0  0  0  0
   10.2831  -16.9981   18.3646 O   0  0  0  0  0  0  0  0  0  0  0  0
   11.7428  -15.2334   18.6186 N   0  0  0  0  0  0  0  0  0  0  0  0
   12.7442  -16.0116   19.3598 C   0  0  1  0  0  0  0  0  0  0  0  0
   14.1189  -15.6753   18.9140 C   0  0  0  0  0  0  0  0  0  0  0  0
   14.3100  -14.2205   18.6471 C   0  0  0  0  0  0  0  0  0  0  0  0
   15.6471  -13.8453   18.1530 C   0  0  0  0  0  0  0  0  0  0  0  0
   16.6899  -13.8075   18.8432 O   0  0  0  0  0  0  0  0  0  0  0  0
   12.5781  -15.7752   20.8118 C   0  0  0  0  0  0  0  0  0  0  0  0
   13.0754  -14.7943   21.4058 O   0  0  0  0  0  0  0  0  0  0  0  0
   15.8194  -13.4921   16.8024 O   0  0  0  0  0  0  0  0  0  0  0  0
    9.6393  -14.8827   22.9001 C   0  0  0  0  0  0  0  0  0  0  0  0
   10.1463  -16.2201   23.3800 C   0  0  1  0  0  0  0  0  0  0  0  0
    9.4171  -17.2532   22.8172 O   0  0  0  0  0  0  0  0  0  0  0  0
   11.5947  -16.4364   23.0501 C   0  0  2  0  0  0  0  0  0  0  0  0
   11.8238  -16.6734   21.6397 N   0  0  0  0  0  0  0  0  0  0  0  0
   12.2075  -17.5138   23.8703 C   0  0  0  0  0  0  0  0  0  0  0  0
   12.3485  -17.3407   25.2501 O   0  0  0  0  0  0  0  0  0  0  0  0
   12.6048  -18.5790   23.3662 O   0  0  0  0  0  0  0  0  0  0  0  0
  2  1  1  0
  3  4  1  0
  3  2  1  0
  4  5  1  0
  5  7  1  0
  5  6  1  6
  7  8  2  0
  9  7  1  0
  9 10  1  0
 10 15  1  0
 11 12  1  0
 10 11  1  6
 12 13  1  0
 13 14  2  0
 15 22  1  0
 15 16  2  0
 17 13  1  0
 19 21  1  0
 19 18  1  6
 20 19  1  0
 21 23  1  0
 21 22  1  6
 23 24  1  0
 25 23  2  0
M  END
$$$$
