MET.pdb
     RDKit          3D

 25 24  0  0  1  0  0  0  0  0999 V2000
    8.1348  -11.2023   20.1791 C   0  0  0  0  0  0  0  0  0  0  0  0
    7.3563  -12.2614   18.9576 S   0  0  0  0  0  0  0  0  0  0  0  0
    8.0193  -13.9052   18.9973 C   0  0  0  0  0  0  0  0  0  0  0  0
    8.0215  -14.5786   20.3012 C   0  0  0  0  0  0  0  0  0  0  0  0
    8.5303  -15.9597   20.4298 C   0  0  2  0  0  0  0  0  0  0  0  0
    7.5807  -16.8252   19.6938 N   0  0  0  0  0  0  0  0  0  0  0  0
    8.4378  -16.3981   21.8898 C   0  0  0  0  0  0  0  0  0  0  0  0
    7.3633  -16.9049   22.2602 O   0  0  0  0  0  0  0  0  0  0  0  0
    9.5077  -16.2414   22.7803 N   0  0  0  0  0  0  0  0  0  0  0  0
    9.4183  -16.6727   24.1817 C   0  0  1  0  0  0  0  0  0  0  0  0
   10.3953  -17.7511   24.4719 C   0  0  0  0  0  0  0  0  0  0  0  0
   11.6799  -17.5944   23.7307 C   0  0  0  0  0  0  0  0  0  0  0  0
   12.8387  -18.2749   24.3362 C   0  0  0  0  0  0  0  0  0  0  0  0
   12.8627  -19.4679   24.7124 O   0  0  0  0  0  0  0  0  0  0  0  0
    9.6249  -15.5077   25.0715 C   0  0  0  0  0  0  0  0  0  0  0  0
   10.5193  -14.6549   24.8841 O   0  0  0  0  0  0  0  0  0  0  0  0
   14.0408  -17.5704   24.5293 O   0  0  0  0  0  0  0  0  0  0  0  0
    7.3122  -12.6107   25.8303 C   0  0  0  0  0  0  0  0  0  0  0  0
    7.6316  -13.3149   27.1257 C   0  0  1  0  0  0  0  0  0  0  0  0
    6.6120  -14.1819   27.4785 O   0  0  0  0  0  0  0  0  0  0  0  0
    8.9086  -14.1006   27.0517 C   0  0  2  0  0  0  0  0  0  0  0  0
    8.7973  -15.2832   26.2228 N   0  0  0  0  0  0  0  0  0  0  0  0
    9.4378  -14.4490   28.3960 C   0  0  0  0  0  0  0  0  0  0  0  0
    9.7612  -13.4327   29.2996 O   0  0  0  0  0  0  0  0  0  0  0  0
    9.6056  -15.6290   28.7515 O   0  0  0  0  0  0  0  0  0  0  0  0
  2  1  1  0
  3  4  1  0
  3  2  1  0
  4  5  1  0
  5  7  1  0
  5  6  1  6
  7  8  2  0
  9  7  1  0
  9 10  1  0
 10 15  1  0
 11 12  1  0
 10 11  1  1
 12 13  1  0
 13 14  2  0
 15 22  1  0
 15 16  2  0
 17 13  1  0
 19 21  1  0
 19 18  1  6
 20 19  1  0
 21 23  1  0
 21 22  1  6
 23 24  1  0
 25 23  2  0
M  END
$$$$
