MET.pdb
     RDKit          3D

 25 24  0  0  1  0  0  0  0  0999 V2000
    9.2589  -12.4500   19.0627 C   0  0  0  0  0  0  0  0  0  0  0  0
    7.5751  -12.2016   19.6309 S   0  0  0  0  0  0  0  0  0  0  0  0
    7.0935  -13.4331   20.8120 C   0  0  0  0  0  0  0  0  0  0  0  0
    6.6059  -14.7059   20.2683 C   0  0  0  0  0  0  0  0  0  0  0  0
    7.4675  -15.9060   20.2842 C   0  0  2  0  0  0  0  0  0  0  0  0
    6.6230  -17.0329   19.8265 N   0  0  0  0  0  0  0  0  0  0  0  0
    7.8463  -16.2367   21.7262 C   0  0  0  0  0  0  0  0  0  0  0  0
    6.9270  -16.5990   22.4827 O   0  0  0  0  0  0  0  0  0  0  0  0
    9.1656  -16.1398   22.1872 N   0  0  0  0  0  0  0  0  0  0  0  0
    9.5402  -16.5357   23.5512 C   0  0  1  0  0  0  0  0  0  0  0  0
   10.8445  -17.2432   23.5628 C   0  0  0  0  0  0  0  0  0  0  0  0
   11.2619  -17.6824   24.9256 C   0  0  0  0  0  0  0  0  0  0  0  0
   12.5940  -18.3089   25.0004 C   0  0  0  0  0  0  0  0  0  0  0  0
   13.4414  -18.3209   24.0800 O   0  0  0  0  0  0  0  0  0  0  0  0
    9.5713  -15.3389   24.4222 C   0  0  0  0  0  0  0  0  0  0  0  0
   10.2975  -14.3472   24.1952 O   0  0  0  0  0  0  0  0  0  0  0  0
   12.9950  -18.9600   26.1809 O   0  0  0  0  0  0  0  0  0  0  0  0
    7.2530  -12.5974   25.1398 C   0  0  0  0  0  0  0  0  0  0  0  0
    7.4694  -13.3247   26.4437 C   0  0  1  0  0  0  0  0  0  0  0  0
    6.4405  -14.2185   26.6849 O   0  0  0  0  0  0  0  0  0  0  0  0
    8.7640  -14.0842   26.4688 C   0  0  2  0  0  0  0  0  0  0  0  0
    8.7561  -15.2432   25.6000 N   0  0  0  0  0  0  0  0  0  0  0  0
    9.1716  -14.4633   27.8468 C   0  0  0  0  0  0  0  0  0  0  0  0
    9.3152  -15.8127   28.1818 O   0  0  0  0  0  0  0  0  0  0  0  0
    9.3931  -13.6111   28.7252 O   0  0  0  0  0  0  0  0  0  0  0  0
  2  1  1  0
  3  4  1  0
  3  2  1  0
  4  5  1  0
  5  7  1  0
  5  6  1  1
  7  8  2  0
  9  7  1  0
  9 10  1  0
 10 15  1  0
 11 12  1  0
 10 11  1  6
 12 13  1  0
 13 14  2  0
 15 22  1  0
 15 16  2  0
 17 13  1  0
 19 21  1  0
 19 18  1  6
 20 19  1  0
 21 23  1  0
 21 22  1  6
 23 24  1  0
 25 23  2  0
M  END
$$$$
