MET.pdb
     RDKit          3D

 25 24  0  0  1  0  0  0  0  0999 V2000
    7.8234  -11.9325   27.1883 C   0  0  0  0  0  0  0  0  0  0  0  0
    6.1522  -11.9426   26.5350 S   0  0  0  0  0  0  0  0  0  0  0  0
    5.8712  -13.3358   25.4750 C   0  0  0  0  0  0  0  0  0  0  0  0
    6.9964  -14.2611   25.2985 C   0  0  0  0  0  0  0  0  0  0  0  0
    6.8917  -15.3966   24.3591 C   0  0  2  0  0  0  0  0  0  0  0  0
    5.7637  -16.2298   24.8344 N   0  0  0  0  0  0  0  0  0  0  0  0
    8.1339  -16.2755   24.4887 C   0  0  0  0  0  0  0  0  0  0  0  0
    8.1452  -17.1037   25.4174 O   0  0  0  0  0  0  0  0  0  0  0  0
    9.2172  -16.1629   23.6078 N   0  0  0  0  0  0  0  0  0  0  0  0
   10.4405  -16.9578   23.7792 C   0  0  1  0  0  0  0  0  0  0  0  0
   11.2856  -16.9069   22.5606 C   0  0  0  0  0  0  0  0  0  0  0  0
   12.5172  -17.7415   22.6651 C   0  0  0  0  0  0  0  0  0  0  0  0
   13.3915  -17.7180   21.4786 C   0  0  0  0  0  0  0  0  0  0  0  0
   13.2055  -17.0221   20.4556 O   0  0  0  0  0  0  0  0  0  0  0  0
   11.1814  -16.4750   24.9665 C   0  0  0  0  0  0  0  0  0  0  0  0
   12.0753  -15.6034   24.9064 O   0  0  0  0  0  0  0  0  0  0  0  0
   14.5426  -18.5256   21.4424 O   0  0  0  0  0  0  0  0  0  0  0  0
    9.4128  -15.5080   28.3044 C   0  0  0  0  0  0  0  0  0  0  0  0
   10.8784  -15.2678   28.0386 C   0  0  1  0  0  0  0  0  0  0  0  0
   11.5362  -14.9063   29.2015 O   0  0  0  0  0  0  0  0  0  0  0  0
   11.5638  -16.4763   27.4702 C   0  0  2  0  0  0  0  0  0  0  0  0
   10.9141  -16.9873   26.2807 N   0  0  0  0  0  0  0  0  0  0  0  0
   11.7385  -17.5546   28.4779 C   0  0  0  0  0  0  0  0  0  0  0  0
   12.5599  -17.3405   29.5883 O   0  0  0  0  0  0  0  0  0  0  0  0
   11.1720  -18.6563   28.3675 O   0  0  0  0  0  0  0  0  0  0  0  0
  2  1  1  0
  3  4  1  0
  3  2  1  0
  4  5  1  0
  5  7  1  0
  5  6  1  1
  7  8  2  0
  9  7  1  0
  9 10  1  0
 10 15  1  0
 11 12  1  0
 10 11  1  6
 12 13  1  0
 13 14  2  0
 15 22  1  0
 15 16  2  0
 17 13  1  0
 19 21  1  0
 19 18  1  1
 20 19  1  0
 21 23  1  0
 21 22  1  6
 23 24  1  0
 25 23  2  0
M  END
$$$$
