MET.pdb
     RDKit          3D

 25 24  0  0  1  0  0  0  0  0999 V2000
    7.8302  -11.6514   20.9255 C   0  0  0  0  0  0  0  0  0  0  0  0
    7.6521  -12.4046   19.3065 S   0  0  0  0  0  0  0  0  0  0  0  0
    7.9251  -14.1555   19.3646 C   0  0  0  0  0  0  0  0  0  0  0  0
    8.1264  -14.7426   20.6943 C   0  0  0  0  0  0  0  0  0  0  0  0
    9.4093  -15.3883   21.0413 C   0  0  2  0  0  0  0  0  0  0  0  0
    9.5613  -16.5378   20.1203 N   0  0  0  0  0  0  0  0  0  0  0  0
    9.3080  -15.9937   22.4397 C   0  0  0  0  0  0  0  0  0  0  0  0
    8.2639  -15.7684   23.0783 O   0  0  0  0  0  0  0  0  0  0  0  0
   10.3377  -16.7688   22.9885 N   0  0  0  0  0  0  0  0  0  0  0  0
   10.2778  -17.2714   24.3675 C   0  0  1  0  0  0  0  0  0  0  0  0
   11.1637  -18.4482   24.5459 C   0  0  0  0  0  0  0  0  0  0  0  0
   12.1363  -18.6254   23.4293 C   0  0  0  0  0  0  0  0  0  0  0  0
   13.0390  -19.7829   23.5635 C   0  0  0  0  0  0  0  0  0  0  0  0
   13.9829  -19.8744   24.3796 O   0  0  0  0  0  0  0  0  0  0  0  0
   10.6352  -16.1835   25.3060 C   0  0  0  0  0  0  0  0  0  0  0  0
   11.6614  -15.4813   25.1792 O   0  0  0  0  0  0  0  0  0  0  0  0
   12.8684  -20.9028   22.7297 O   0  0  0  0  0  0  0  0  0  0  0  0
    9.1275  -12.8797   26.1126 C   0  0  0  0  0  0  0  0  0  0  0  0
    9.1040  -13.7038   27.3761 C   0  0  1  0  0  0  0  0  0  0  0  0
    7.8599  -14.2809   27.5636 O   0  0  0  0  0  0  0  0  0  0  0  0
   10.1305  -14.7990   27.3657 C   0  0  2  0  0  0  0  0  0  0  0  0
    9.8113  -15.8641   26.4374 N   0  0  0  0  0  0  0  0  0  0  0  0
   10.3895  -15.3453   28.7234 C   0  0  0  0  0  0  0  0  0  0  0  0
   10.8611  -14.5013   29.7329 O   0  0  0  0  0  0  0  0  0  0  0  0
   10.1986  -16.5432   28.9979 O   0  0  0  0  0  0  0  0  0  0  0  0
  2  1  1  0
  3  4  1  0
  3  2  1  0
  4  5  1  0
  5  7  1  0
  5  6  1  6
  7  8  2  0
  9  7  1  0
  9 10  1  0
 10 15  1  0
 11 12  1  0
 10 11  1  6
 12 13  1  0
 13 14  2  0
 15 22  1  0
 15 16  2  0
 17 13  1  0
 19 21  1  0
 19 18  1  6
 20 19  1  0
 21 23  1  0
 21 22  1  6
 23 24  1  0
 25 23  2  0
M  END
$$$$
