MET.pdb
     RDKit          3D

 25 24  0  0  1  0  0  0  0  0999 V2000
    7.7625  -11.3073   21.0975 C   0  0  0  0  0  0  0  0  0  0  0  0
    7.5742  -12.7132   19.9985 S   0  0  0  0  0  0  0  0  0  0  0  0
    6.7660  -14.0707   20.8033 C   0  0  0  0  0  0  0  0  0  0  0  0
    7.5830  -14.8619   21.7306 C   0  0  0  0  0  0  0  0  0  0  0  0
    8.3782  -16.0058   21.2389 C   0  0  2  0  0  0  0  0  0  0  0  0
    7.4062  -17.0224   20.7759 N   0  0  0  0  0  0  0  0  0  0  0  0
    9.1169  -16.6484   22.4109 C   0  0  0  0  0  0  0  0  0  0  0  0
    8.4677  -17.4340   23.1251 O   0  0  0  0  0  0  0  0  0  0  0  0
   10.4639  -16.3731   22.6791 N   0  0  0  0  0  0  0  0  0  0  0  0
   11.1676  -16.9830   23.8151 C   0  0  1  0  0  0  0  0  0  0  0  0
   12.5367  -17.4064   23.4303 C   0  0  0  0  0  0  0  0  0  0  0  0
   12.5501  -18.5445   22.4666 C   0  0  0  0  0  0  0  0  0  0  0  0
   13.8591  -18.8279   21.8511 C   0  0  0  0  0  0  0  0  0  0  0  0
   14.1153  -18.7561   20.6286 O   0  0  0  0  0  0  0  0  0  0  0  0
   11.1992  -16.0290   24.9468 C   0  0  0  0  0  0  0  0  0  0  0  0
   11.6934  -14.8841   24.8618 O   0  0  0  0  0  0  0  0  0  0  0  0
   14.9428  -19.2149   22.6600 O   0  0  0  0  0  0  0  0  0  0  0  0
    8.1298  -15.0628   26.9413 C   0  0  0  0  0  0  0  0  0  0  0  0
    9.4757  -14.4138   27.1498 C   0  0  1  0  0  0  0  0  0  0  0  0
    9.4590  -13.5945   28.2653 O   0  0  0  0  0  0  0  0  0  0  0  0
   10.5764  -15.4194   27.3248 C   0  0  2  0  0  0  0  0  0  0  0  0
   10.6556  -16.3667   26.2319 N   0  0  0  0  0  0  0  0  0  0  0  0
   10.4946  -16.1274   28.6290 C   0  0  0  0  0  0  0  0  0  0  0  0
   10.6480  -15.4103   29.8189 O   0  0  0  0  0  0  0  0  0  0  0  0
   10.2913  -17.3522   28.7009 O   0  0  0  0  0  0  0  0  0  0  0  0
  2  1  1  0
  3  4  1  0
  3  2  1  0
  4  5  1  0
  5  7  1  0
  5  6  1  1
  7  8  2  0
  9  7  1  0
  9 10  1  0
 10 15  1  0
 11 12  1  0
 10 11  1  6
 12 13  1  0
 13 14  2  0
 15 22  1  0
 15 16  2  0
 17 13  1  0
 19 21  1  0
 19 18  1  1
 20 19  1  0
 21 23  1  0
 21 22  1  6
 23 24  1  0
 25 23  2  0
M  END
$$$$
