QQM.pdb
     RDKit          3D

 27 26  0  0  1  0  0  0  0  0999 V2000
   13.1564  -13.6420   19.3270 N   0  0  0  0  0  0  0  0  0  0  0  0
   13.3845  -14.7647   18.4756 C   0  0  0  0  0  0  0  0  0  0  0  0
   14.4382  -14.7528   17.7781 O   0  0  0  0  0  0  0  0  0  0  0  0
   12.4126  -15.9137   18.4111 C   0  0  0  0  0  0  0  0  0  0  0  0
   11.3527  -15.7163   19.4431 C   0  0  0  0  0  0  0  0  0  0  0  0
   10.2838  -16.7511   19.4837 C   0  0  2  0  0  0  0  0  0  0  0  0
    9.5093  -16.5913   18.2468 N   0  0  0  0  0  0  0  0  0  0  0  0
    9.4005  -16.6879   20.6688 C   0  0  0  0  0  0  0  0  0  0  0  0
    8.5007  -15.8163   20.7528 O   0  0  0  0  0  0  0  0  0  0  0  0
    7.7637  -21.4089   24.3933 N   0  0  0  0  0  0  0  0  0  0  0  0
    7.2487  -20.3140   25.1252 C   0  0  0  0  0  0  0  0  0  0  0  0
    6.5702  -20.5275   26.1469 O   0  0  0  0  0  0  0  0  0  0  0  0
    7.5114  -18.9328   24.6848 C   0  0  0  0  0  0  0  0  0  0  0  0
    8.3587  -18.9562   23.4588 C   0  0  0  0  0  0  0  0  0  0  0  0
    8.6346  -17.5730   22.9076 C   0  0  2  0  0  0  0  0  0  0  0  0
    9.5116  -17.5963   21.7722 N   0  0  0  0  0  0  0  0  0  0  0  0
    9.2131  -16.6935   23.9443 C   0  0  0  0  0  0  0  0  0  0  0  0
   10.4498  -16.6676   24.1213 O   0  0  0  0  0  0  0  0  0  0  0  0
    6.2003  -11.1134   25.9359 C   0  0  0  0  0  0  0  0  0  0  0  0
    6.7408  -11.8968   27.4172 S   0  0  0  0  0  0  0  0  0  0  0  0
    8.0058  -13.1287   27.2255 C   0  0  0  0  0  0  0  0  0  0  0  0
    7.7609  -14.0489   26.0776 C   0  0  0  0  0  0  0  0  0  0  0  0
    8.8777  -14.9970   25.8005 C   0  0  2  0  0  0  0  0  0  0  0  0
    8.3710  -15.8869   24.7295 N   0  0  0  0  0  0  0  0  0  0  0  0
    9.2016  -15.8325   26.9821 C   0  0  0  0  0  0  0  0  0  0  0  0
    8.5872  -16.9528   27.0860 O   0  0  0  0  0  0  0  0  0  0  0  0
   10.0923  -15.4972   27.9508 O   0  0  0  0  0  0  0  0  0  0  0  0
  2  1  1  0
  3  2  2  0
  4  2  1  0
  5  4  1  0
  6  5  1  0
  6  8  1  0
  6  7  1  6
  8  9  2  0
 11 12  2  0
 11 10  1  0
 13 11  1  0
 14 13  1  0
 15 14  1  1
 16  8  1  0
 16 15  1  0
 17 15  1  0
 17 18  2  0
 20 19  1  0
 20 21  1  0
 21 22  1  0
 23 22  1  1
 23 24  1  0
 24 17  1  0
 25 27  1  0
 25 23  1  0
 26 25  2  0
M  END
$$$$
