QQM.pdb
     RDKit          3D

 27 26  0  0  1  0  0  0  0  0999 V2000
    6.4692  -19.8380   19.0406 N   0  0  0  0  0  0  0  0  0  0  0  0
    5.6094  -20.6047   19.8834 C   0  0  0  0  0  0  0  0  0  0  0  0
    4.4797  -20.9232   19.4149 O   0  0  0  0  0  0  0  0  0  0  0  0
    6.0294  -21.0167   21.2699 C   0  0  0  0  0  0  0  0  0  0  0  0
    7.4560  -20.6334   21.4830 C   0  0  0  0  0  0  0  0  0  0  0  0
    7.6996  -19.5722   22.4977 C   0  0  2  0  0  0  0  0  0  0  0  0
    6.3774  -19.0795   22.9033 N   0  0  0  0  0  0  0  0  0  0  0  0
    8.5579  -18.4578   22.0396 C   0  0  0  0  0  0  0  0  0  0  0  0
    9.7076  -18.6779   21.5853 O   0  0  0  0  0  0  0  0  0  0  0  0
    7.1219  -12.5400   19.1466 N   0  0  0  0  0  0  0  0  0  0  0  0
    8.2387  -13.3871   18.9602 C   0  0  0  0  0  0  0  0  0  0  0  0
    8.6224  -13.6460   17.8044 O   0  0  0  0  0  0  0  0  0  0  0  0
    8.9433  -13.9589   20.1209 C   0  0  0  0  0  0  0  0  0  0  0  0
    8.1191  -15.0511   20.7121 C   0  0  0  0  0  0  0  0  0  0  0  0
    8.9298  -16.0045   21.5647 C   0  0  2  0  0  0  0  0  0  0  0  0
    8.1428  -17.0864   22.0833 N   0  0  0  0  0  0  0  0  0  0  0  0
    9.5733  -15.2952   22.6898 C   0  0  0  0  0  0  0  0  0  0  0  0
   10.0793  -14.1672   22.5085 O   0  0  0  0  0  0  0  0  0  0  0  0
    6.0630  -11.7682   27.7959 C   0  0  0  0  0  0  0  0  0  0  0  0
    6.4258  -12.7767   26.3989 S   0  0  0  0  0  0  0  0  0  0  0  0
    7.9349  -13.7091   26.4870 C   0  0  0  0  0  0  0  0  0  0  0  0
    8.2604  -14.4217   25.2179 C   0  0  0  0  0  0  0  0  0  0  0  0
    9.5846  -15.1068   25.2197 C   0  0  2  0  0  0  0  0  0  0  0  0
    9.6147  -15.8907   23.9625 N   0  0  0  0  0  0  0  0  0  0  0  0
    9.7195  -16.0495   26.3565 C   0  0  0  0  0  0  0  0  0  0  0  0
    9.5191  -17.2909   26.1072 O   0  0  0  0  0  0  0  0  0  0  0  0
   10.0358  -15.6937   27.6283 O   0  0  0  0  0  0  0  0  0  0  0  0
  2  1  1  0
  3  2  2  0
  4  2  1  0
  5  4  1  0
  6  5  1  0
  6  8  1  0
  6  7  1  6
  8  9  2  0
 11 12  2  0
 11 10  1  0
 13 11  1  0
 14 13  1  0
 15 14  1  1
 16  8  1  0
 16 15  1  0
 17 15  1  0
 17 18  2  0
 20 19  1  0
 20 21  1  0
 21 22  1  0
 23 22  1  1
 23 24  1  0
 24 17  1  0
 25 27  1  0
 25 23  1  0
 26 25  2  0
M  END
$$$$
