QQM.pdb
     RDKit          3D

 27 26  0  0  1  0  0  0  0  0999 V2000
    7.7655  -12.3888   17.2155 N   0  0  0  0  0  0  0  0  0  0  0  0
    7.7013  -13.6610   16.5713 C   0  0  0  0  0  0  0  0  0  0  0  0
    7.0448  -13.7272   15.4936 O   0  0  0  0  0  0  0  0  0  0  0  0
    8.3860  -14.8715   17.1498 C   0  0  0  0  0  0  0  0  0  0  0  0
    7.9155  -15.0763   18.5513 C   0  0  0  0  0  0  0  0  0  0  0  0
    8.9042  -14.7692   19.6205 C   0  0  2  0  0  0  0  0  0  0  0  0
   10.2306  -14.9119   19.0077 N   0  0  0  0  0  0  0  0  0  0  0  0
    8.7920  -15.6099   20.8326 C   0  0  0  0  0  0  0  0  0  0  0  0
    7.6994  -15.7148   21.4421 O   0  0  0  0  0  0  0  0  0  0  0  0
   10.1669  -20.9065   22.4299 N   0  0  0  0  0  0  0  0  0  0  0  0
   10.4132  -20.4114   23.7314 C   0  0  0  0  0  0  0  0  0  0  0  0
   10.3560  -21.1893   24.7016 O   0  0  0  0  0  0  0  0  0  0  0  0
   10.7347  -18.9887   23.9397 C   0  0  0  0  0  0  0  0  0  0  0  0
   10.7321  -18.2827   22.6270 C   0  0  0  0  0  0  0  0  0  0  0  0
    9.8357  -17.0622   22.6170 C   0  0  2  0  0  0  0  0  0  0  0  0
    9.8974  -16.3425   21.3772 N   0  0  0  0  0  0  0  0  0  0  0  0
   10.1755  -16.1441   23.7236 C   0  0  0  0  0  0  0  0  0  0  0  0
   11.3130  -15.6302   23.7808 O   0  0  0  0  0  0  0  0  0  0  0  0
    5.4864  -12.3711   26.6492 C   0  0  0  0  0  0  0  0  0  0  0  0
    7.1197  -11.8789   27.0853 S   0  0  0  0  0  0  0  0  0  0  0  0
    8.3264  -13.1798   27.1637 C   0  0  0  0  0  0  0  0  0  0  0  0
    8.3521  -14.0321   25.9401 C   0  0  0  0  0  0  0  0  0  0  0  0
    9.5026  -14.9782   25.8738 C   0  0  2  0  0  0  0  0  0  0  0  0
    9.2180  -15.8501   24.7100 N   0  0  0  0  0  0  0  0  0  0  0  0
    9.5878  -15.8328   27.0829 C   0  0  0  0  0  0  0  0  0  0  0  0
    9.9072  -15.2534   28.1809 O   0  0  0  0  0  0  0  0  0  0  0  0
    9.3548  -17.1703   27.1075 O   0  0  0  0  0  0  0  0  0  0  0  0
  2  1  1  0
  3  2  2  0
  4  2  1  0
  5  4  1  0
  6  5  1  0
  6  8  1  0
  6  7  1  6
  8  9  2  0
 11 12  2  0
 11 10  1  0
 13 11  1  0
 14 13  1  0
 15 14  1  6
 16  8  1  0
 16 15  1  0
 17 15  1  0
 17 18  2  0
 20 19  1  0
 20 21  1  0
 21 22  1  0
 23 22  1  1
 23 24  1  0
 24 17  1  0
 25 27  1  0
 25 23  1  0
 26 25  2  0
M  END
$$$$
