QQM.pdb
     RDKit          3D

 27 26  0  0  1  0  0  0  0  0999 V2000
    8.7808  -20.7571   26.3176 N   0  0  0  0  0  0  0  0  0  0  0  0
    7.4131  -20.3489   26.3065 C   0  0  0  0  0  0  0  0  0  0  0  0
    6.9688  -19.7987   27.3538 O   0  0  0  0  0  0  0  0  0  0  0  0
    6.5374  -20.5640   25.1000 C   0  0  0  0  0  0  0  0  0  0  0  0
    6.1701  -19.2389   24.5198 C   0  0  0  0  0  0  0  0  0  0  0  0
    6.3538  -19.0994   23.0495 C   0  0  2  0  0  0  0  0  0  0  0  0
    6.7025  -20.4351   22.5499 N   0  0  0  0  0  0  0  0  0  0  0  0
    7.3687  -18.1038   22.6403 C   0  0  0  0  0  0  0  0  0  0  0  0
    8.5896  -18.3967   22.6356 O   0  0  0  0  0  0  0  0  0  0  0  0
    7.6071  -11.8814   18.9579 N   0  0  0  0  0  0  0  0  0  0  0  0
    7.8612  -13.2720   18.9908 C   0  0  0  0  0  0  0  0  0  0  0  0
    7.6138  -13.9619   17.9843 O   0  0  0  0  0  0  0  0  0  0  0  0
    8.4135  -13.9010   20.2032 C   0  0  0  0  0  0  0  0  0  0  0  0
    7.3963  -14.8164   20.7939 C   0  0  0  0  0  0  0  0  0  0  0  0
    7.9967  -15.8238   21.7520 C   0  0  2  0  0  0  0  0  0  0  0  0
    7.0323  -16.7714   22.2322 N   0  0  0  0  0  0  0  0  0  0  0  0
    8.6251  -15.1497   22.9068 C   0  0  0  0  0  0  0  0  0  0  0  0
    9.0138  -13.9666   22.8029 O   0  0  0  0  0  0  0  0  0  0  0  0
    6.7316  -11.0285   26.4703 C   0  0  0  0  0  0  0  0  0  0  0  0
    6.3787  -12.5916   27.1998 S   0  0  0  0  0  0  0  0  0  0  0  0
    7.6500  -13.8226   27.0478 C   0  0  0  0  0  0  0  0  0  0  0  0
    7.7477  -14.4003   25.6763 C   0  0  0  0  0  0  0  0  0  0  0  0
    9.0074  -15.1539   25.4148 C   0  0  2  0  0  0  0  0  0  0  0  0
    8.7842  -15.8405   24.1208 N   0  0  0  0  0  0  0  0  0  0  0  0
    9.2607  -16.1860   26.4491 C   0  0  0  0  0  0  0  0  0  0  0  0
    9.0137  -17.4021   26.1272 O   0  0  0  0  0  0  0  0  0  0  0  0
    9.7296  -15.9359   27.6987 O   0  0  0  0  0  0  0  0  0  0  0  0
  2  1  1  0
  3  2  2  0
  4  2  1  0
  5  4  1  0
  6  5  1  0
  6  8  1  0
  6  7  1  1
  8  9  2  0
 11 12  2  0
 11 10  1  0
 13 11  1  0
 14 13  1  0
 15 14  1  6
 16  8  1  0
 16 15  1  0
 17 15  1  0
 17 18  2  0
 20 19  1  0
 20 21  1  0
 21 22  1  0
 23 22  1  1
 23 24  1  0
 24 17  1  0
 25 27  1  0
 25 23  1  0
 26 25  2  0
M  END
$$$$
