QQM.pdb
     RDKit          3D

 27 26  0  0  1  0  0  0  0  0999 V2000
   10.7774  -19.5342   16.8401 N   0  0  0  0  0  0  0  0  0  0  0  0
   10.5230  -20.7455   17.5510 C   0  0  0  0  0  0  0  0  0  0  0  0
   10.9216  -21.8197   17.0177 O   0  0  0  0  0  0  0  0  0  0  0  0
    9.8113  -20.7443   18.8784 C   0  0  0  0  0  0  0  0  0  0  0  0
    9.3980  -19.3492   19.2105 C   0  0  0  0  0  0  0  0  0  0  0  0
    9.6295  -18.9197   20.6166 C   0  0  2  0  0  0  0  0  0  0  0  0
    8.3557  -19.1124   21.3206 N   0  0  0  0  0  0  0  0  0  0  0  0
   10.1106  -17.5294   20.7719 C   0  0  0  0  0  0  0  0  0  0  0  0
   11.2942  -17.2240   20.4850 O   0  0  0  0  0  0  0  0  0  0  0  0
    6.9554  -12.4619   19.5652 N   0  0  0  0  0  0  0  0  0  0  0  0
    7.6023  -13.3784   18.7044 C   0  0  0  0  0  0  0  0  0  0  0  0
    7.3021  -13.3977   17.4963 O   0  0  0  0  0  0  0  0  0  0  0  0
    8.6223  -14.3028   19.2297 C   0  0  0  0  0  0  0  0  0  0  0  0
    8.7294  -14.1350   20.7069 C   0  0  0  0  0  0  0  0  0  0  0  0
    9.7098  -15.1005   21.3393 C   0  0  2  0  0  0  0  0  0  0  0  0
    9.2766  -16.4654   21.2485 N   0  0  0  0  0  0  0  0  0  0  0  0
    9.9463  -14.7642   22.7584 C   0  0  0  0  0  0  0  0  0  0  0  0
   10.3860  -13.6361   23.0673 O   0  0  0  0  0  0  0  0  0  0  0  0
    6.5095  -12.1374   27.9426 C   0  0  0  0  0  0  0  0  0  0  0  0
    7.4904  -12.7483   26.6142 S   0  0  0  0  0  0  0  0  0  0  0  0
    6.9670  -14.2928   25.9106 C   0  0  0  0  0  0  0  0  0  0  0  0
    7.7757  -14.7033   24.7266 C   0  0  0  0  0  0  0  0  0  0  0  0
    9.0716  -15.3587   25.0644 C   0  0  2  0  0  0  0  0  0  0  0  0
    9.6757  -15.7141   23.7588 N   0  0  0  0  0  0  0  0  0  0  0  0
    8.8756  -16.6079   25.8393 C   0  0  0  0  0  0  0  0  0  0  0  0
    8.8978  -17.7079   25.1812 O   0  0  0  0  0  0  0  0  0  0  0  0
    8.6756  -16.6672   27.1811 O   0  0  0  0  0  0  0  0  0  0  0  0
  2  1  1  0
  3  2  2  0
  4  2  1  0
  5  4  1  0
  6  5  1  0
  6  8  1  0
  6  7  1  1
  8  9  2  0
 11 12  2  0
 11 10  1  0
 13 11  1  0
 14 13  1  0
 15 14  1  1
 16  8  1  0
 16 15  1  0
 17 15  1  0
 17 18  2  0
 20 19  1  0
 20 21  1  0
 21 22  1  0
 23 22  1  6
 23 24  1  0
 24 17  1  0
 25 27  1  0
 25 23  1  0
 26 25  2  0
M  END
$$$$
