QQM.pdb
     RDKit          3D

 27 26  0  0  1  0  0  0  0  0999 V2000
   12.4222  -14.6504   18.1365 N   0  0  0  0  0  0  0  0  0  0  0  0
   12.1398  -13.8854   19.3081 C   0  0  0  0  0  0  0  0  0  0  0  0
   13.0533  -13.8073   20.1778 O   0  0  0  0  0  0  0  0  0  0  0  0
   10.8117  -13.2011   19.4999 C   0  0  0  0  0  0  0  0  0  0  0  0
    9.9442  -13.4766   18.3172 C   0  0  0  0  0  0  0  0  0  0  0  0
    8.5478  -13.8943   18.6182 C   0  0  2  0  0  0  0  0  0  0  0  0
    7.7009  -12.7270   18.3434 N   0  0  0  0  0  0  0  0  0  0  0  0
    8.3291  -14.3898   19.9949 C   0  0  0  0  0  0  0  0  0  0  0  0
    7.8971  -13.6243   20.8915 O   0  0  0  0  0  0  0  0  0  0  0  0
    8.3330  -20.4400   21.1480 N   0  0  0  0  0  0  0  0  0  0  0  0
    9.5784  -19.7703   21.1553 C   0  0  0  0  0  0  0  0  0  0  0  0
   10.6202  -20.4161   20.9376 O   0  0  0  0  0  0  0  0  0  0  0  0
    9.6451  -18.3220   21.4176 C   0  0  0  0  0  0  0  0  0  0  0  0
    8.2734  -17.8029   21.6836 C   0  0  0  0  0  0  0  0  0  0  0  0
    8.2004  -16.2906   21.6540 C   0  0  2  0  0  0  0  0  0  0  0  0
    8.5897  -15.7442   20.3856 N   0  0  0  0  0  0  0  0  0  0  0  0
    9.0429  -15.6971   22.7126 C   0  0  0  0  0  0  0  0  0  0  0  0
    9.8491  -14.7851   22.4303 O   0  0  0  0  0  0  0  0  0  0  0  0
    6.9089  -11.2969   27.3466 C   0  0  0  0  0  0  0  0  0  0  0  0
    7.5133  -12.3901   26.1057 S   0  0  0  0  0  0  0  0  0  0  0  0
    6.6040  -13.9011   25.8942 C   0  0  0  0  0  0  0  0  0  0  0  0
    7.1910  -14.8002   24.8590 C   0  0  0  0  0  0  0  0  0  0  0  0
    8.5688  -15.2780   25.1693 C   0  0  2  0  0  0  0  0  0  0  0  0
    8.9356  -16.1592   24.0359 N   0  0  0  0  0  0  0  0  0  0  0  0
    8.6091  -16.0833   26.4139 C   0  0  0  0  0  0  0  0  0  0  0  0
    9.2145  -15.5671   27.4192 O   0  0  0  0  0  0  0  0  0  0  0  0
    8.0568  -17.3151   26.5611 O   0  0  0  0  0  0  0  0  0  0  0  0
  2  1  1  0
  3  2  2  0
  4  2  1  0
  5  4  1  0
  6  5  1  0
  6  8  1  0
  6  7  1  1
  8  9  2  0
 11 12  2  0
 11 10  1  0
 13 11  1  0
 14 13  1  0
 15 14  1  6
 16  8  1  0
 16 15  1  0
 17 15  1  0
 17 18  2  0
 20 19  1  0
 20 21  1  0
 21 22  1  0
 23 22  1  6
 23 24  1  0
 24 17  1  0
 25 27  1  0
 25 23  1  0
 26 25  2  0
M  END
$$$$
