ESM.pdb
     RDKit          3D

 24 23  0  0  1  0  0  0  0  0999 V2000
   10.8056  -18.4288   18.1594 N   0  0  0  0  0  0  0  0  0  0  0  0
   11.1081  -18.5139   19.5790 C   0  0  1  0  0  0  0  0  0  0  0  0
   12.3475  -17.7388   19.8321 C   0  0  0  0  0  0  0  0  0  0  0  0
   13.5668  -18.4833   19.4040 C   0  0  0  0  0  0  0  0  0  0  0  0
   14.8492  -17.8287   19.7167 C   0  0  0  0  0  0  0  0  0  0  0  0
   15.6632  -17.5111   18.8261 O   0  0  0  0  0  0  0  0  0  0  0  0
    9.9544  -18.0479   20.3983 C   0  0  0  0  0  0  0  0  0  0  0  0
    9.1436  -17.1992   19.9526 O   0  0  0  0  0  0  0  0  0  0  0  0
   15.2041  -17.5369   21.0348 O   0  0  0  0  0  0  0  0  0  0  0  0
    6.7114  -19.0243   23.8007 O   0  0  0  0  0  0  0  0  0  0  0  0
    7.8039  -19.3475   23.0371 C   0  0  0  0  0  0  0  0  0  0  0  0
    8.5721  -18.1699   22.5149 C   0  0  2  0  0  0  0  0  0  0  0  0
    9.7210  -18.5436   21.7206 N   0  0  0  0  0  0  0  0  0  0  0  0
    8.8837  -17.1573   23.5352 C   0  0  0  0  0  0  0  0  0  0  0  0
    9.9596  -17.2112   24.1560 O   0  0  0  0  0  0  0  0  0  0  0  0
    7.1574  -10.6335   27.1747 C   0  0  0  0  0  0  0  0  0  0  0  0
    7.1994  -11.7746   25.7925 S   0  0  0  0  0  0  0  0  0  0  0  0
    6.8484  -13.4610   26.2421 C   0  0  0  0  0  0  0  0  0  0  0  0
    6.8979  -14.3940   25.0984 C   0  0  0  0  0  0  0  0  0  0  0  0
    8.0935  -15.2314   24.9933 C   0  0  2  0  0  0  0  0  0  0  0  0
    7.9781  -16.1289   23.8164 N   0  0  0  0  0  0  0  0  0  0  0  0
    8.3719  -16.0812   26.1410 C   0  0  0  0  0  0  0  0  0  0  0  0
    7.8517  -17.1792   26.3966 O   0  0  0  0  0  0  0  0  0  0  0  0
    9.3377  -15.6345   27.0887 O   0  0  0  0  0  0  0  0  0  0  0  0
  2  1  1  6
  3  2  1  0
  4  3  1  0
  5  6  2  0
  5  4  1  0
  7  2  1  0
  8  7  2  0
  9  5  1  0
 11 10  1  0
 12 11  1  1
 12 14  1  0
 12 13  1  0
 13  7  1  0
 14 21  1  0
 15 14  2  0
 17 16  1  0
 18 17  1  0
 19 18  1  0
 20 19  1  1
 20 22  1  0
 21 20  1  0
 22 23  2  0
 22 24  1  0
M  END
$$$$
