ESM.pdb
     RDKit          3D

 24 23  0  0  1  0  0  0  0  0999 V2000
    7.6015  -17.7812   18.1112 N   0  0  0  0  0  0  0  0  0  0  0  0
    8.6112  -17.2604   19.0184 C   0  0  1  0  0  0  0  0  0  0  0  0
    8.9764  -15.8957   18.5653 C   0  0  0  0  0  0  0  0  0  0  0  0
    7.9064  -14.9028   18.8712 C   0  0  0  0  0  0  0  0  0  0  0  0
    8.2088  -13.5113   18.4930 C   0  0  0  0  0  0  0  0  0  0  0  0
    9.3729  -13.1286   18.2581 O   0  0  0  0  0  0  0  0  0  0  0  0
    8.1296  -17.2946   20.4278 C   0  0  0  0  0  0  0  0  0  0  0  0
    6.9878  -16.8710   20.7332 O   0  0  0  0  0  0  0  0  0  0  0  0
    7.1932  -12.5601   18.3826 O   0  0  0  0  0  0  0  0  0  0  0  0
    8.1473  -19.5263   24.6557 O   0  0  0  0  0  0  0  0  0  0  0  0
    8.6417  -19.3416   23.3897 C   0  0  0  0  0  0  0  0  0  0  0  0
    8.4696  -17.9537   22.8476 C   0  0  2  0  0  0  0  0  0  0  0  0
    8.9415  -17.8083   21.4887 N   0  0  0  0  0  0  0  0  0  0  0  0
    8.9611  -16.8953   23.7430 C   0  0  0  0  0  0  0  0  0  0  0  0
   10.1473  -16.5283   23.6789 O   0  0  0  0  0  0  0  0  0  0  0  0
    6.1152  -10.5238   26.6424 C   0  0  0  0  0  0  0  0  0  0  0  0
    6.0283  -12.3121   26.7372 S   0  0  0  0  0  0  0  0  0  0  0  0
    7.4766  -13.1360   26.1104 C   0  0  0  0  0  0  0  0  0  0  0  0
    7.4217  -14.6050   26.2525 C   0  0  0  0  0  0  0  0  0  0  0  0
    8.5629  -15.3529   25.7234 C   0  0  2  0  0  0  0  0  0  0  0  0
    8.1041  -16.2939   24.6708 N   0  0  0  0  0  0  0  0  0  0  0  0
    9.3057  -16.1419   26.6943 C   0  0  0  0  0  0  0  0  0  0  0  0
    9.1879  -17.3590   26.9092 O   0  0  0  0  0  0  0  0  0  0  0  0
   10.2770  -15.4772   27.4975 O   0  0  0  0  0  0  0  0  0  0  0  0
  2  1  1  6
  3  2  1  0
  4  3  1  0
  5  6  2  0
  5  4  1  0
  7  2  1  0
  8  7  2  0
  9  5  1  0
 11 10  1  0
 12 11  1  1
 12 14  1  0
 12 13  1  0
 13  7  1  0
 14 21  1  0
 15 14  2  0
 17 16  1  0
 18 17  1  0
 19 18  1  0
 20 19  1  1
 20 22  1  0
 21 20  1  0
 22 23  2  0
 22 24  1  0
M  END
$$$$
