ESM.pdb
     RDKit          3D

 24 23  0  0  1  0  0  0  0  0999 V2000
    8.4606  -12.6344   18.6292 N   0  0  0  0  0  0  0  0  0  0  0  0
    8.5980  -14.0652   18.8479 C   0  0  1  0  0  0  0  0  0  0  0  0
   10.0028  -14.4420   18.5556 C   0  0  0  0  0  0  0  0  0  0  0  0
   10.9722  -13.6418   19.3581 C   0  0  0  0  0  0  0  0  0  0  0  0
   12.3905  -13.9939   19.1702 C   0  0  0  0  0  0  0  0  0  0  0  0
   12.7459  -14.9297   18.4255 O   0  0  0  0  0  0  0  0  0  0  0  0
    8.1721  -14.4366   20.2263 C   0  0  0  0  0  0  0  0  0  0  0  0
    8.3697  -13.6642   21.1962 O   0  0  0  0  0  0  0  0  0  0  0  0
   13.3992  -13.2857   19.8256 O   0  0  0  0  0  0  0  0  0  0  0  0
    7.2217  -18.4966   21.6759 O   0  0  0  0  0  0  0  0  0  0  0  0
    6.4103  -17.4064   21.8610 C   0  0  0  0  0  0  0  0  0  0  0  0
    7.1211  -16.0860   21.8327 C   0  0  2  0  0  0  0  0  0  0  0  0
    7.5234  -15.6819   20.5041 N   0  0  0  0  0  0  0  0  0  0  0  0
    8.2029  -15.9663   22.8221 C   0  0  0  0  0  0  0  0  0  0  0  0
    9.3238  -15.5587   22.4709 O   0  0  0  0  0  0  0  0  0  0  0  0
    6.7067  -11.1824   25.7088 C   0  0  0  0  0  0  0  0  0  0  0  0
    6.9435  -12.2579   27.1236 S   0  0  0  0  0  0  0  0  0  0  0  0
    8.0479  -13.6194   26.8143 C   0  0  0  0  0  0  0  0  0  0  0  0
    7.6636  -14.4297   25.6409 C   0  0  0  0  0  0  0  0  0  0  0  0
    8.5460  -15.5480   25.3054 C   0  0  2  0  0  0  0  0  0  0  0  0
    7.9833  -16.3077   24.1608 N   0  0  0  0  0  0  0  0  0  0  0  0
    8.7790  -16.5102   26.3715 C   0  0  0  0  0  0  0  0  0  0  0  0
    8.0994  -17.5179   26.6250 O   0  0  0  0  0  0  0  0  0  0  0  0
    9.8960  -16.3023   27.2313 O   0  0  0  0  0  0  0  0  0  0  0  0
  2  1  1  1
  3  2  1  0
  4  3  1  0
  5  6  2  0
  5  4  1  0
  7  2  1  0
  8  7  2  0
  9  5  1  0
 11 10  1  0
 12 11  1  6
 12 14  1  0
 12 13  1  0
 13  7  1  0
 14 21  1  0
 15 14  2  0
 17 16  1  0
 18 17  1  0
 19 18  1  0
 20 19  1  1
 20 22  1  0
 21 20  1  0
 22 23  2  0
 22 24  1  0
M  END
$$$$
