ESM.pdb
     RDKit          3D

 24 23  0  0  1  0  0  0  0  0999 V2000
   13.0683  -18.8168   20.3510 N   0  0  0  0  0  0  0  0  0  0  0  0
   12.6171  -17.4902   19.9631 C   0  0  1  0  0  0  0  0  0  0  0  0
   12.5854  -17.4305   18.4810 C   0  0  0  0  0  0  0  0  0  0  0  0
   13.5797  -18.3560   17.8654 C   0  0  0  0  0  0  0  0  0  0  0  0
   13.5915  -18.3815   16.3922 C   0  0  0  0  0  0  0  0  0  0  0  0
   12.9612  -19.2393   15.7412 O   0  0  0  0  0  0  0  0  0  0  0  0
   11.3013  -17.1721   20.5852 C   0  0  0  0  0  0  0  0  0  0  0  0
   10.6645  -16.1391   20.2627 O   0  0  0  0  0  0  0  0  0  0  0  0
   14.3162  -17.4370   15.6634 O   0  0  0  0  0  0  0  0  0  0  0  0
    9.2275  -19.7182   23.5766 O   0  0  0  0  0  0  0  0  0  0  0  0
    8.6693  -18.9660   22.5745 C   0  0  0  0  0  0  0  0  0  0  0  0
    9.4451  -17.7348   22.2109 C   0  0  2  0  0  0  0  0  0  0  0  0
   10.7089  -18.0239   21.5711 N   0  0  0  0  0  0  0  0  0  0  0  0
    9.5642  -16.7570   23.3032 C   0  0  0  0  0  0  0  0  0  0  0  0
   10.6518  -16.6067   23.8867 O   0  0  0  0  0  0  0  0  0  0  0  0
    6.5381  -10.5458   26.8715 C   0  0  0  0  0  0  0  0  0  0  0  0
    6.8962  -11.6720   25.5233 S   0  0  0  0  0  0  0  0  0  0  0  0
    7.0639  -13.3701   26.0309 C   0  0  0  0  0  0  0  0  0  0  0  0
    7.2242  -14.3059   24.8996 C   0  0  0  0  0  0  0  0  0  0  0  0
    8.4757  -15.0633   24.8543 C   0  0  2  0  0  0  0  0  0  0  0  0
    8.4616  -15.9903   23.6948 N   0  0  0  0  0  0  0  0  0  0  0  0
    8.7691  -15.8688   26.0298 C   0  0  0  0  0  0  0  0  0  0  0  0
    9.4532  -15.5322   27.0097 O   0  0  0  0  0  0  0  0  0  0  0  0
    8.2294  -17.1860   26.0929 O   0  0  0  0  0  0  0  0  0  0  0  0
  2  1  1  6
  3  2  1  0
  4  3  1  0
  5  6  2  0
  5  4  1  0
  7  2  1  0
  8  7  2  0
  9  5  1  0
 11 10  1  0
 12 11  1  1
 12 14  1  0
 12 13  1  0
 13  7  1  0
 14 21  1  0
 15 14  2  0
 17 16  1  0
 18 17  1  0
 19 18  1  0
 20 19  1  1
 20 22  1  0
 21 20  1  0
 22 23  2  0
 22 24  1  0
M  END
$$$$
