ESM.pdb
     RDKit          3D

 24 23  0  0  1  0  0  0  0  0999 V2000
   13.3919  -19.5435   19.6272 N   0  0  0  0  0  0  0  0  0  0  0  0
   14.1746  -18.7736   20.5804 C   0  0  1  0  0  0  0  0  0  0  0  0
   15.2055  -18.0192   19.8258 C   0  0  0  0  0  0  0  0  0  0  0  0
   15.1093  -18.2619   18.3575 C   0  0  0  0  0  0  0  0  0  0  0  0
   16.3725  -18.1287   17.6109 C   0  0  0  0  0  0  0  0  0  0  0  0
   17.1738  -17.1975   17.8291 O   0  0  0  0  0  0  0  0  0  0  0  0
   13.2974  -17.8940   21.4027 C   0  0  0  0  0  0  0  0  0  0  0  0
   13.7758  -16.9485   22.0762 O   0  0  0  0  0  0  0  0  0  0  0  0
   16.7225  -19.0490   16.6215 O   0  0  0  0  0  0  0  0  0  0  0  0
    9.0274  -18.6603   22.1415 O   0  0  0  0  0  0  0  0  0  0  0  0
    9.5557  -17.4159   21.9095 C   0  0  0  0  0  0  0  0  0  0  0  0
   11.0037  -17.2736   22.2741 C   0  0  2  0  0  0  0  0  0  0  0  0
   11.8803  -18.0864   21.4610 N   0  0  0  0  0  0  0  0  0  0  0  0
   11.2743  -17.4000   23.7143 C   0  0  0  0  0  0  0  0  0  0  0  0
   11.9560  -18.3498   24.1374 O   0  0  0  0  0  0  0  0  0  0  0  0
    8.6229  -13.0943   28.3823 C   0  0  0  0  0  0  0  0  0  0  0  0
   10.2804  -13.6003   28.8417 S   0  0  0  0  0  0  0  0  0  0  0  0
   10.7609  -15.1787   28.1731 C   0  0  0  0  0  0  0  0  0  0  0  0
   10.6502  -15.2493   26.7020 C   0  0  0  0  0  0  0  0  0  0  0  0
   10.9784  -16.5355   26.0859 C   0  0  2  0  0  0  0  0  0  0  0  0
   10.7707  -16.4584   24.6180 N   0  0  0  0  0  0  0  0  0  0  0  0
   10.2084  -17.6763   26.5575 C   0  0  0  0  0  0  0  0  0  0  0  0
    9.1249  -18.0800   26.1053 O   0  0  0  0  0  0  0  0  0  0  0  0
   10.7253  -18.4294   27.6511 O   0  0  0  0  0  0  0  0  0  0  0  0
  2  1  1  6
  3  2  1  0
  4  3  1  0
  5  6  2  0
  5  4  1  0
  7  2  1  0
  8  7  2  0
  9  5  1  0
 11 10  1  0
 12 11  1  1
 12 14  1  0
 12 13  1  0
 13  7  1  0
 14 21  1  0
 15 14  2  0
 17 16  1  0
 18 17  1  0
 19 18  1  0
 20 19  1  1
 20 22  1  0
 21 20  1  0
 22 23  2  0
 22 24  1  0
M  END
$$$$
