ESM.pdb
     RDKit          3D

 24 23  0  0  1  0  0  0  0  0999 V2000
    9.7718  -19.2870   21.1856 N   0  0  0  0  0  0  0  0  0  0  0  0
   10.8450  -18.3090   21.2608 C   0  0  1  0  0  0  0  0  0  0  0  0
   11.7437  -18.5225   20.0998 C   0  0  0  0  0  0  0  0  0  0  0  0
   11.0291  -19.1498   18.9509 C   0  0  0  0  0  0  0  0  0  0  0  0
   11.0959  -18.4040   17.6819 C   0  0  0  0  0  0  0  0  0  0  0  0
   10.0996  -17.8266   17.2017 O   0  0  0  0  0  0  0  0  0  0  0  0
   10.3000  -16.9240   21.3261 C   0  0  0  0  0  0  0  0  0  0  0  0
   11.0624  -15.9264   21.3223 O   0  0  0  0  0  0  0  0  0  0  0  0
   12.2891  -18.3154   16.9630 O   0  0  0  0  0  0  0  0  0  0  0  0
    6.0932  -16.2608   21.3216 O   0  0  0  0  0  0  0  0  0  0  0  0
    6.9344  -15.2831   20.8550 C   0  0  0  0  0  0  0  0  0  0  0  0
    8.3274  -15.3405   21.4081 C   0  0  2  0  0  0  0  0  0  0  0  0
    8.8929  -16.6710   21.3954 N   0  0  0  0  0  0  0  0  0  0  0  0
    8.4867  -14.6607   22.7027 C   0  0  0  0  0  0  0  0  0  0  0  0
    8.1457  -13.4714   22.8261 O   0  0  0  0  0  0  0  0  0  0  0  0
    7.2773  -11.1497   26.9867 C   0  0  0  0  0  0  0  0  0  0  0  0
    6.1354  -12.5091   26.7368 S   0  0  0  0  0  0  0  0  0  0  0  0
    6.9194  -14.1067   26.6906 C   0  0  0  0  0  0  0  0  0  0  0  0
    7.3579  -14.5044   25.3375 C   0  0  0  0  0  0  0  0  0  0  0  0
    8.7392  -14.9715   25.2125 C   0  0  2  0  0  0  0  0  0  0  0  0
    9.0203  -15.3410   23.8024 N   0  0  0  0  0  0  0  0  0  0  0  0
    9.0913  -16.1259   26.0251 C   0  0  0  0  0  0  0  0  0  0  0  0
    9.1871  -17.3031   25.6422 O   0  0  0  0  0  0  0  0  0  0  0  0
    9.3603  -15.9163   27.4085 O   0  0  0  0  0  0  0  0  0  0  0  0
  2  1  1  6
  3  2  1  0
  4  3  1  0
  5  6  2  0
  5  4  1  0
  7  2  1  0
  8  7  2  0
  9  5  1  0
 11 10  1  0
 12 11  1  1
 12 14  1  0
 12 13  1  0
 13  7  1  0
 14 21  1  0
 15 14  2  0
 17 16  1  0
 18 17  1  0
 19 18  1  0
 20 19  1  6
 20 22  1  0
 21 20  1  0
 22 23  2  0
 22 24  1  0
M  END
$$$$
