ESM.pdb
     RDKit          3D

 24 23  0  0  1  0  0  0  0  0999 V2000
    8.8467  -19.2924   20.1908 N   0  0  0  0  0  0  0  0  0  0  0  0
   10.1483  -18.6922   20.4349 C   0  0  1  0  0  0  0  0  0  0  0  0
   10.9330  -18.7693   19.1781 C   0  0  0  0  0  0  0  0  0  0  0  0
   10.1793  -19.4612   18.0930 C   0  0  0  0  0  0  0  0  0  0  0  0
   10.8535  -19.5041   16.7836 C   0  0  0  0  0  0  0  0  0  0  0  0
   11.2109  -20.5784   16.2594 O   0  0  0  0  0  0  0  0  0  0  0  0
   10.0055  -17.3000   20.9456 C   0  0  0  0  0  0  0  0  0  0  0  0
   11.0090  -16.5633   21.1091 O   0  0  0  0  0  0  0  0  0  0  0  0
   11.1201  -18.3318   16.0744 O   0  0  0  0  0  0  0  0  0  0  0  0
    7.7654  -13.1841   21.2984 O   0  0  0  0  0  0  0  0  0  0  0  0
    7.8431  -14.4838   20.8671 C   0  0  0  0  0  0  0  0  0  0  0  0
    8.5553  -15.4124   21.8053 C   0  0  2  0  0  0  0  0  0  0  0  0
    8.7269  -16.7445   21.2702 N   0  0  0  0  0  0  0  0  0  0  0  0
    8.0191  -15.4078   23.1750 C   0  0  0  0  0  0  0  0  0  0  0  0
    7.1672  -16.2486   23.5115 O   0  0  0  0  0  0  0  0  0  0  0  0
    9.9786  -13.8848   30.6147 C   0  0  0  0  0  0  0  0  0  0  0  0
   10.3016  -13.8568   28.8514 S   0  0  0  0  0  0  0  0  0  0  0  0
    8.8549  -14.1332   27.8514 C   0  0  0  0  0  0  0  0  0  0  0  0
    9.1475  -14.2025   26.4055 C   0  0  0  0  0  0  0  0  0  0  0  0
    8.0041  -14.4295   25.5206 C   0  0  2  0  0  0  0  0  0  0  0  0
    8.4594  -14.4631   24.1080 N   0  0  0  0  0  0  0  0  0  0  0  0
    6.9423  -13.4375   25.5938 C   0  0  0  0  0  0  0  0  0  0  0  0
    6.7648  -12.4804   24.8231 O   0  0  0  0  0  0  0  0  0  0  0  0
    5.9910  -13.5489   26.6487 O   0  0  0  0  0  0  0  0  0  0  0  0
  2  1  1  6
  3  2  1  0
  4  3  1  0
  5  6  2  0
  5  4  1  0
  7  2  1  0
  8  7  2  0
  9  5  1  0
 11 10  1  0
 12 11  1  6
 12 14  1  0
 12 13  1  0
 13  7  1  0
 14 21  1  0
 15 14  2  0
 17 16  1  0
 18 17  1  0
 19 18  1  0
 20 19  1  1
 20 22  1  0
 21 20  1  0
 22 23  2  0
 22 24  1  0
M  END
$$$$
