ESM.pdb
     RDKit          3D

 24 23  0  0  1  0  0  0  0  0999 V2000
   10.8597  -17.8611   17.8451 N   0  0  0  0  0  0  0  0  0  0  0  0
   11.1266  -17.8986   19.2739 C   0  0  1  0  0  0  0  0  0  0  0  0
   12.4153  -17.2058   19.5192 C   0  0  0  0  0  0  0  0  0  0  0  0
   13.5839  -18.0922   19.2491 C   0  0  0  0  0  0  0  0  0  0  0  0
   14.9051  -17.4527   19.3777 C   0  0  0  0  0  0  0  0  0  0  0  0
   15.0291  -16.2427   19.6555 O   0  0  0  0  0  0  0  0  0  0  0  0
    9.9949  -17.3090   20.0427 C   0  0  0  0  0  0  0  0  0  0  0  0
    9.4387  -16.2480   19.6666 O   0  0  0  0  0  0  0  0  0  0  0  0
   16.0786  -18.1852   19.1915 O   0  0  0  0  0  0  0  0  0  0  0  0
    7.7724  -19.4274   23.2363 O   0  0  0  0  0  0  0  0  0  0  0  0
    7.3491  -18.5842   22.2407 C   0  0  0  0  0  0  0  0  0  0  0  0
    8.3016  -17.4718   21.9166 C   0  0  2  0  0  0  0  0  0  0  0  0
    9.4951  -17.9216   21.2359 N   0  0  0  0  0  0  0  0  0  0  0  0
    8.5881  -16.5788   23.0497 C   0  0  0  0  0  0  0  0  0  0  0  0
    9.6944  -16.6277   23.6151 O   0  0  0  0  0  0  0  0  0  0  0  0
    7.1308  -10.7746   27.5948 C   0  0  0  0  0  0  0  0  0  0  0  0
    7.1530  -11.7424   26.0857 S   0  0  0  0  0  0  0  0  0  0  0  0
    6.4653  -13.3742   26.2686 C   0  0  0  0  0  0  0  0  0  0  0  0
    6.5088  -14.1703   25.0254 C   0  0  0  0  0  0  0  0  0  0  0  0
    7.7524  -14.8949   24.7601 C   0  0  2  0  0  0  0  0  0  0  0  0
    7.6246  -15.6704   23.5007 N   0  0  0  0  0  0  0  0  0  0  0  0
    8.1670  -15.8355   25.7897 C   0  0  0  0  0  0  0  0  0  0  0  0
    7.7599  -16.9985   25.9416 O   0  0  0  0  0  0  0  0  0  0  0  0
    9.1407  -15.4071   26.7377 O   0  0  0  0  0  0  0  0  0  0  0  0
  2  1  1  6
  3  2  1  0
  4  3  1  0
  5  6  2  0
  5  4  1  0
  7  2  1  0
  8  7  2  0
  9  5  1  0
 11 10  1  0
 12 11  1  1
 12 14  1  0
 12 13  1  0
 13  7  1  0
 14 21  1  0
 15 14  2  0
 17 16  1  0
 18 17  1  0
 19 18  1  0
 20 19  1  1
 20 22  1  0
 21 20  1  0
 22 23  2  0
 22 24  1  0
M  END
$$$$
