ESM.pdb
     RDKit          3D

 24 23  0  0  1  0  0  0  0  0999 V2000
    7.4862  -18.8241   17.6665 N   0  0  0  0  0  0  0  0  0  0  0  0
    8.3745  -18.5876   18.7929 C   0  0  1  0  0  0  0  0  0  0  0  0
    9.5238  -17.7826   18.3109 C   0  0  0  0  0  0  0  0  0  0  0  0
   10.3233  -18.5126   17.2852 C   0  0  0  0  0  0  0  0  0  0  0  0
   11.4761  -17.7746   16.7399 C   0  0  0  0  0  0  0  0  0  0  0  0
   11.3854  -17.0736   15.7118 O   0  0  0  0  0  0  0  0  0  0  0  0
    7.6452  -17.9414   19.9199 C   0  0  0  0  0  0  0  0  0  0  0  0
    6.7833  -17.0529   19.7097 O   0  0  0  0  0  0  0  0  0  0  0  0
   12.7252  -17.8336   17.3602 O   0  0  0  0  0  0  0  0  0  0  0  0
    6.6637  -19.8286   23.4832 O   0  0  0  0  0  0  0  0  0  0  0  0
    6.1514  -18.6583   22.9839 C   0  0  0  0  0  0  0  0  0  0  0  0
    7.1721  -17.7291   22.3971 C   0  0  2  0  0  0  0  0  0  0  0  0
    7.8930  -18.3023   21.2826 N   0  0  0  0  0  0  0  0  0  0  0  0
    8.0559  -17.1037   23.3927 C   0  0  0  0  0  0  0  0  0  0  0  0
    9.2334  -17.4867   23.5060 O   0  0  0  0  0  0  0  0  0  0  0  0
    6.6960  -10.3299   25.5815 C   0  0  0  0  0  0  0  0  0  0  0  0
    6.5997  -11.9737   26.2909 S   0  0  0  0  0  0  0  0  0  0  0  0
    7.6514  -13.1651   25.4886 C   0  0  0  0  0  0  0  0  0  0  0  0
    7.5417  -14.5220   26.0614 C   0  0  0  0  0  0  0  0  0  0  0  0
    8.3210  -15.5711   25.4028 C   0  0  2  0  0  0  0  0  0  0  0  0
    7.5839  -16.0773   24.2177 N   0  0  0  0  0  0  0  0  0  0  0  0
    8.6399  -16.7299   26.2228 C   0  0  0  0  0  0  0  0  0  0  0  0
    7.9719  -17.7709   26.3304 O   0  0  0  0  0  0  0  0  0  0  0  0
    9.8371  -16.6972   26.9948 O   0  0  0  0  0  0  0  0  0  0  0  0
  2  1  1  6
  3  2  1  0
  4  3  1  0
  5  6  2  0
  5  4  1  0
  7  2  1  0
  8  7  2  0
  9  5  1  0
 11 10  1  0
 12 11  1  1
 12 14  1  0
 12 13  1  0
 13  7  1  0
 14 21  1  0
 15 14  2  0
 17 16  1  0
 18 17  1  0
 19 18  1  0
 20 19  1  1
 20 22  1  0
 21 20  1  0
 22 23  2  0
 22 24  1  0
M  END
$$$$
