ESM.pdb
     RDKit          3D

 24 23  0  0  1  0  0  0  0  0999 V2000
   10.7798  -14.7617   17.6528 N   0  0  0  0  0  0  0  0  0  0  0  0
   11.3365  -15.3728   18.8489 C   0  0  1  0  0  0  0  0  0  0  0  0
   12.5010  -14.5610   19.2804 C   0  0  0  0  0  0  0  0  0  0  0  0
   13.7591  -14.9888   18.6034 C   0  0  0  0  0  0  0  0  0  0  0  0
   14.9595  -14.2070   18.9482 C   0  0  0  0  0  0  0  0  0  0  0  0
   15.5659  -14.3687   20.0266 O   0  0  0  0  0  0  0  0  0  0  0  0
   10.2991  -15.5093   19.9094 C   0  0  0  0  0  0  0  0  0  0  0  0
    9.4495  -14.6059   20.1054 O   0  0  0  0  0  0  0  0  0  0  0  0
   15.4674  -13.2467   18.0718 O   0  0  0  0  0  0  0  0  0  0  0  0
    9.8122  -19.0647   22.5244 O   0  0  0  0  0  0  0  0  0  0  0  0
    8.8302  -18.3005   21.9473 C   0  0  0  0  0  0  0  0  0  0  0  0
    9.1972  -16.8605   21.7439 C   0  0  2  0  0  0  0  0  0  0  0  0
   10.2256  -16.6683   20.7461 N   0  0  0  0  0  0  0  0  0  0  0  0
    9.4625  -16.1276   22.9913 C   0  0  0  0  0  0  0  0  0  0  0  0
   10.6326  -15.8728   23.3254 O   0  0  0  0  0  0  0  0  0  0  0  0
    6.2987  -10.9384   27.8827 C   0  0  0  0  0  0  0  0  0  0  0  0
    5.9985  -12.4045   26.8953 S   0  0  0  0  0  0  0  0  0  0  0  0
    7.4442  -13.4142   26.6505 C   0  0  0  0  0  0  0  0  0  0  0  0
    7.4340  -14.1500   25.3700 C   0  0  0  0  0  0  0  0  0  0  0  0
    8.5982  -14.9930   25.0949 C   0  0  2  0  0  0  0  0  0  0  0  0
    8.4072  -15.7119   23.8101 N   0  0  0  0  0  0  0  0  0  0  0  0
    8.8975  -16.0032   26.0983 C   0  0  0  0  0  0  0  0  0  0  0  0
    8.6226  -17.2125   26.0408 O   0  0  0  0  0  0  0  0  0  0  0  0
    9.5766  -15.5932   27.2820 O   0  0  0  0  0  0  0  0  0  0  0  0
  2  1  1  6
  3  2  1  0
  4  3  1  0
  5  6  2  0
  5  4  1  0
  7  2  1  0
  8  7  2  0
  9  5  1  0
 11 10  1  0
 12 11  1  1
 12 14  1  0
 12 13  1  0
 13  7  1  0
 14 21  1  0
 15 14  2  0
 17 16  1  0
 18 17  1  0
 19 18  1  0
 20 19  1  1
 20 22  1  0
 21 20  1  0
 22 23  2  0
 22 24  1  0
M  END
$$$$
