HSQ.pdb
     RDKit          3D

 26 26  0  0  1  0  0  0  0  0999 V2000
   19.8869  -11.4129  -19.5868 N   0  0  0  0  0  0  0  0  0  0  0  0
   20.5002  -11.3775  -18.2859 C   0  0  1  0  0  0  0  0  0  0  0  0
   21.9702  -11.6658  -18.4342 C   0  0  0  0  0  0  0  0  0  0  0  0
   22.1912  -13.0588  -18.8865 C   0  0  0  0  0  0  0  0  0  0  0  0
   22.7614  -14.0877  -18.1771 C   0  0  0  0  0  0  0  0  0  0  0  0
   22.7929  -15.2082  -18.9189 N   0  0  0  0  0  0  0  0  0  0  0  0
   22.2386  -14.8886  -20.1075 C   0  0  0  0  0  0  0  0  0  0  0  0
   21.8752  -13.5855  -20.0845 N   0  0  0  0  0  0  0  0  0  0  0  0
   20.2294  -10.1372  -17.5520 C   0  0  0  0  0  0  0  0  0  0  0  0
   20.3344   -9.0259  -18.1158 O   0  0  0  0  0  0  0  0  0  0  0  0
   17.4837   -9.6589  -14.5062 O   0  0  0  0  0  0  0  0  0  0  0  0
   18.7215   -9.1203  -14.2343 C   0  0  0  0  0  0  0  0  0  0  0  0
   19.5458   -8.8761  -15.5033 C   0  0  2  0  0  0  0  0  0  0  0  0
   19.8347  -10.1158  -16.1682 N   0  0  0  0  0  0  0  0  0  0  0  0
   20.8120   -8.2180  -15.0184 C   0  0  0  0  0  0  0  0  0  0  0  0
   21.7645   -8.9444  -14.6419 O   0  0  0  0  0  0  0  0  0  0  0  0
   25.4124   -5.6511  -18.4165 N   0  0  0  0  0  0  0  0  0  0  0  0
   24.0556   -5.4336  -17.9772 C   0  0  0  0  0  0  0  0  0  0  0  0
   23.3995   -4.6460  -18.6780 O   0  0  0  0  0  0  0  0  0  0  0  0
   23.6028   -6.1415  -16.7833 C   0  0  0  0  0  0  0  0  0  0  0  0
   22.7597   -5.4267  -15.8116 C   0  0  0  0  0  0  0  0  0  0  0  0
   22.2346   -6.1577  -14.6351 C   0  0  2  0  0  0  0  0  0  0  0  0
   20.9670   -6.8269  -14.9714 N   0  0  0  0  0  0  0  0  0  0  0  0
   22.0633   -5.4432  -13.3788 C   0  0  0  0  0  0  0  0  0  0  0  0
   23.1459   -5.2310  -12.4999 O   0  0  0  0  0  0  0  0  0  0  0  0
   20.9589   -4.9830  -13.0010 O   0  0  0  0  0  0  0  0  0  0  0  0
  2  1  1  6
  3  2  1  0
  4  5  2  0
  4  3  1  0
  6  5  1  0
  7  8  2  0
  7  6  1  0
  8  4  1  0
  9 10  2  0
  9  2  1  0
 11 12  1  0
 13 14  1  0
 13 12  1  1
 14  9  1  0
 15 13  1  0
 16 15  2  0
 18 20  1  0
 18 17  1  0
 19 18  2  0
 22 21  1  6
 21 20  1  0
 22 23  1  0
 23 15  1  0
 24 25  1  0
 24 22  1  0
 26 24  2  0
M  END
$$$$
