HSQ.pdb
     RDKit          3D

 26 26  0  0  1  0  0  0  0  0999 V2000
   17.2072  -11.3236  -16.9846 N   0  0  0  0  0  0  0  0  0  0  0  0
   18.2762  -11.0367  -16.0655 C   0  0  1  0  0  0  0  0  0  0  0  0
   19.5748  -11.4961  -16.6726 C   0  0  0  0  0  0  0  0  0  0  0  0
   19.5752  -12.9645  -16.8677 C   0  0  0  0  0  0  0  0  0  0  0  0
   19.8258  -13.9329  -15.9263 C   0  0  0  0  0  0  0  0  0  0  0  0
   19.7365  -15.1562  -16.4762 N   0  0  0  0  0  0  0  0  0  0  0  0
   19.4269  -14.9630  -17.7758 C   0  0  0  0  0  0  0  0  0  0  0  0
   19.3299  -13.6339  -18.0097 N   0  0  0  0  0  0  0  0  0  0  0  0
   18.3079   -9.6357  -15.6339 C   0  0  0  0  0  0  0  0  0  0  0  0
   18.4182   -8.7123  -16.4701 O   0  0  0  0  0  0  0  0  0  0  0  0
   17.6766   -6.3395  -12.0776 O   0  0  0  0  0  0  0  0  0  0  0  0
   17.6544   -7.6567  -12.4785 C   0  0  0  0  0  0  0  0  0  0  0  0
   18.2373   -7.8516  -13.8827 C   0  0  2  0  0  0  0  0  0  0  0  0
   18.2169   -9.2387  -14.2536 N   0  0  0  0  0  0  0  0  0  0  0  0
   19.6522   -7.3415  -13.7856 C   0  0  0  0  0  0  0  0  0  0  0  0
   20.5785   -8.1645  -13.5827 O   0  0  0  0  0  0  0  0  0  0  0  0
   23.3025   -7.2402  -17.4626 N   0  0  0  0  0  0  0  0  0  0  0  0
   24.0343   -6.2454  -16.7169 C   0  0  0  0  0  0  0  0  0  0  0  0
   25.1649   -5.9868  -17.1608 O   0  0  0  0  0  0  0  0  0  0  0  0
   23.3898   -5.6596  -15.5452 C   0  0  0  0  0  0  0  0  0  0  0  0
   22.0377   -6.1113  -15.1791 C   0  0  0  0  0  0  0  0  0  0  0  0
   21.3516   -5.4791  -14.0286 C   0  0  2  0  0  0  0  0  0  0  0  0
   19.9736   -5.9843  -13.9129 N   0  0  0  0  0  0  0  0  0  0  0  0
   21.3231   -4.0269  -13.9346 C   0  0  0  0  0  0  0  0  0  0  0  0
   22.4229   -3.3008  -13.4321 O   0  0  0  0  0  0  0  0  0  0  0  0
   20.3327   -3.3403  -14.2836 O   0  0  0  0  0  0  0  0  0  0  0  0
  2  1  1  6
  3  2  1  0
  4  5  2  0
  4  3  1  0
  6  5  1  0
  7  8  2  0
  7  6  1  0
  8  4  1  0
  9 10  2  0
  9  2  1  0
 11 12  1  0
 13 14  1  0
 13 12  1  1
 14  9  1  0
 15 13  1  0
 16 15  2  0
 18 20  1  0
 18 17  1  0
 19 18  2  0
 22 21  1  6
 21 20  1  0
 22 23  1  0
 23 15  1  0
 24 25  1  0
 24 22  1  0
 26 24  2  0
M  END
$$$$
