HSQ.pdb
     RDKit          3D

 26 26  0  0  1  0  0  0  0  0999 V2000
   21.9651  -13.0822  -18.7195 N   0  0  0  0  0  0  0  0  0  0  0  0
   21.2545  -11.8553  -18.4757 C   0  0  1  0  0  0  0  0  0  0  0  0
   20.6754  -11.8974  -17.0869 C   0  0  0  0  0  0  0  0  0  0  0  0
   19.7244  -13.0242  -16.9462 C   0  0  0  0  0  0  0  0  0  0  0  0
   18.7637  -13.4244  -17.8429 C   0  0  0  0  0  0  0  0  0  0  0  0
   18.0914  -14.4867  -17.3673 N   0  0  0  0  0  0  0  0  0  0  0  0
   18.6290  -14.7630  -16.1603 C   0  0  0  0  0  0  0  0  0  0  0  0
   19.6182  -13.8750  -15.9083 N   0  0  0  0  0  0  0  0  0  0  0  0
   22.0644  -10.6584  -18.7242 C   0  0  0  0  0  0  0  0  0  0  0  0
   23.1177  -10.4554  -18.0812 O   0  0  0  0  0  0  0  0  0  0  0  0
   20.7136   -7.3588  -21.0295 O   0  0  0  0  0  0  0  0  0  0  0  0
   22.0482   -7.6901  -21.1035 C   0  0  0  0  0  0  0  0  0  0  0  0
   22.5214   -8.4908  -19.8851 C   0  0  2  0  0  0  0  0  0  0  0  0
   21.7105   -9.6615  -19.6999 N   0  0  0  0  0  0  0  0  0  0  0  0
   22.3731   -7.5441  -18.7219 C   0  0  0  0  0  0  0  0  0  0  0  0
   21.5958   -7.8544  -17.7857 O   0  0  0  0  0  0  0  0  0  0  0  0
   21.4020   -6.7611  -14.1514 N   0  0  0  0  0  0  0  0  0  0  0  0
   22.3336   -5.6840  -13.9208 C   0  0  0  0  0  0  0  0  0  0  0  0
   22.2116   -5.1135  -12.8247 O   0  0  0  0  0  0  0  0  0  0  0  0
   23.2995   -5.3800  -14.9725 C   0  0  0  0  0  0  0  0  0  0  0  0
   23.2369   -6.1362  -16.2336 C   0  0  0  0  0  0  0  0  0  0  0  0
   22.9806   -5.4106  -17.4992 C   0  0  2  0  0  0  0  0  0  0  0  0
   23.0690   -6.3313  -18.6448 N   0  0  0  0  0  0  0  0  0  0  0  0
   23.7601   -4.2189  -17.8001 C   0  0  0  0  0  0  0  0  0  0  0  0
   23.3203   -2.9356  -17.4139 O   0  0  0  0  0  0  0  0  0  0  0  0
   24.8520   -4.2561  -18.4169 O   0  0  0  0  0  0  0  0  0  0  0  0
  2  1  1  1
  3  2  1  0
  4  5  2  0
  4  3  1  0
  6  5  1  0
  7  8  2  0
  7  6  1  0
  8  4  1  0
  9 10  2  0
  9  2  1  0
 11 12  1  0
 13 14  1  0
 13 12  1  6
 14  9  1  0
 15 13  1  0
 16 15  2  0
 18 20  1  0
 18 17  1  0
 19 18  2  0
 22 21  1  1
 21 20  1  0
 22 23  1  0
 23 15  1  0
 24 25  1  0
 24 22  1  0
 26 24  2  0
M  END
$$$$
