HSQ.pdb
     RDKit          3D

 26 26  0  0  1  0  0  0  0  0999 V2000
   19.1657  -13.2886  -16.5266 N   0  0  0  0  0  0  0  0  0  0  0  0
   19.7980  -12.0984  -17.0299 C   0  0  1  0  0  0  0  0  0  0  0  0
   18.9662  -11.5461  -18.1565 C   0  0  0  0  0  0  0  0  0  0  0  0
   18.9289  -12.4911  -19.2965 C   0  0  0  0  0  0  0  0  0  0  0  0
   19.4340  -12.2982  -20.5593 C   0  0  0  0  0  0  0  0  0  0  0  0
   19.2104  -13.3805  -21.3245 N   0  0  0  0  0  0  0  0  0  0  0  0
   18.5589  -14.2668  -20.5420 C   0  0  0  0  0  0  0  0  0  0  0  0
   18.3900  -13.7247  -19.3139 N   0  0  0  0  0  0  0  0  0  0  0  0
   20.0812  -11.1081  -15.9862 C   0  0  0  0  0  0  0  0  0  0  0  0
   19.1512  -10.5801  -15.3378 O   0  0  0  0  0  0  0  0  0  0  0  0
   24.0100  -10.0566  -14.9496 O   0  0  0  0  0  0  0  0  0  0  0  0
   23.0241   -9.8454  -14.0118 C   0  0  0  0  0  0  0  0  0  0  0  0
   21.6380   -9.6819  -14.6456 C   0  0  2  0  0  0  0  0  0  0  0  0
   21.4148  -10.6873  -15.6465 N   0  0  0  0  0  0  0  0  0  0  0  0
   21.6564   -8.3058  -15.2602 C   0  0  0  0  0  0  0  0  0  0  0  0
   22.0033   -8.1850  -16.4610 O   0  0  0  0  0  0  0  0  0  0  0  0
   17.4146   -4.1204  -15.5534 N   0  0  0  0  0  0  0  0  0  0  0  0
   18.5396   -3.2516  -15.7998 C   0  0  0  0  0  0  0  0  0  0  0  0
   18.2422   -2.0826  -16.0948 O   0  0  0  0  0  0  0  0  0  0  0  0
   19.8794   -3.8197  -15.6825 C   0  0  0  0  0  0  0  0  0  0  0  0
   20.0241   -5.2013  -15.1964 C   0  0  0  0  0  0  0  0  0  0  0  0
   21.3780   -5.7936  -15.0954 C   0  0  2  0  0  0  0  0  0  0  0  0
   21.3014   -7.1563  -14.5433 N   0  0  0  0  0  0  0  0  0  0  0  0
   22.4172   -5.0627  -14.3853 C   0  0  0  0  0  0  0  0  0  0  0  0
   23.2110   -4.0951  -15.0357 O   0  0  0  0  0  0  0  0  0  0  0  0
   22.6726   -5.2477  -13.1710 O   0  0  0  0  0  0  0  0  0  0  0  0
  2  1  1  1
  3  2  1  0
  4  5  2  0
  4  3  1  0
  6  5  1  0
  7  8  2  0
  7  6  1  0
  8  4  1  0
  9 10  2  0
  9  2  1  0
 11 12  1  0
 13 14  1  0
 13 12  1  6
 14  9  1  0
 15 13  1  0
 16 15  2  0
 18 20  1  0
 18 17  1  0
 19 18  2  0
 22 21  1  1
 21 20  1  0
 22 23  1  0
 23 15  1  0
 24 25  1  0
 24 22  1  0
 26 24  2  0
M  END
$$$$
