HSQ.pdb
     RDKit          3D

 26 26  0  0  1  0  0  0  0  0999 V2000
   24.9251  -32.0081   -8.9364 N   0  0  0  0  0  0  0  0  0  0  0  0
   25.7382  -32.9311   -8.1904 C   0  0  1  0  0  0  0  0  0  0  0  0
   27.0746  -33.0607   -8.8711 C   0  0  0  0  0  0  0  0  0  0  0  0
   26.9236  -33.6516  -10.2210 C   0  0  0  0  0  0  0  0  0  0  0  0
   27.1334  -33.0364  -11.4311 C   0  0  0  0  0  0  0  0  0  0  0  0
   26.8947  -33.8920  -12.4400 N   0  0  0  0  0  0  0  0  0  0  0  0
   26.5310  -35.0585  -11.8664 C   0  0  0  0  0  0  0  0  0  0  0  0
   26.5495  -34.9093  -10.5218 N   0  0  0  0  0  0  0  0  0  0  0  0
   25.8486  -32.5872   -6.7692 C   0  0  0  0  0  0  0  0  0  0  0  0
   25.7221  -31.4032   -6.3872 O   0  0  0  0  0  0  0  0  0  0  0  0
   24.6848  -32.3598   -2.5869 O   0  0  0  0  0  0  0  0  0  0  0  0
   24.7121  -32.7564   -3.9053 C   0  0  0  0  0  0  0  0  0  0  0  0
   26.1104  -33.1930   -4.3569 C   0  0  2  0  0  0  0  0  0  0  0  0
   26.1037  -33.5645   -5.7440 N   0  0  0  0  0  0  0  0  0  0  0  0
   26.4439  -34.3760   -3.4848 C   0  0  0  0  0  0  0  0  0  0  0  0
   25.8592  -35.4668   -3.6967 O   0  0  0  0  0  0  0  0  0  0  0  0
   31.6413  -36.7069   -0.8840 N   0  0  0  0  0  0  0  0  0  0  0  0
   31.4828  -35.8539   -2.0366 C   0  0  0  0  0  0  0  0  0  0  0  0
   32.4441  -35.8539   -2.8227 O   0  0  0  0  0  0  0  0  0  0  0  0
   30.2416  -35.0949   -2.1586 C   0  0  0  0  0  0  0  0  0  0  0  0
   29.1779  -35.3098   -1.1645 C   0  0  0  0  0  0  0  0  0  0  0  0
   27.7782  -35.4610   -1.6251 C   0  0  2  0  0  0  0  0  0  0  0  0
   27.3813  -34.3055   -2.4466 N   0  0  0  0  0  0  0  0  0  0  0  0
   26.7347  -35.7120   -0.6420 C   0  0  0  0  0  0  0  0  0  0  0  0
   26.5791  -36.9790   -0.0420 O   0  0  0  0  0  0  0  0  0  0  0  0
   25.9171  -34.8336   -0.2759 O   0  0  0  0  0  0  0  0  0  0  0  0
  2  1  1  6
  3  2  1  0
  4  5  2  0
  4  3  1  0
  6  5  1  0
  7  8  2  0
  7  6  1  0
  8  4  1  0
  9 10  2  0
  9  2  1  0
 11 12  1  0
 13 14  1  0
 13 12  1  1
 14  9  1  0
 15 13  1  0
 16 15  2  0
 18 20  1  0
 18 17  1  0
 19 18  2  0
 22 21  1  1
 21 20  1  0
 22 23  1  0
 23 15  1  0
 24 25  1  0
 24 22  1  0
 26 24  2  0
M  END
$$$$
