HSQ.pdb
     RDKit          3D

 26 26  0  0  1  0  0  0  0  0999 V2000
   18.0882   -9.9469  -17.1884 N   0  0  0  0  0  0  0  0  0  0  0  0
   19.3797   -9.3544  -16.9635 C   0  0  1  0  0  0  0  0  0  0  0  0
   20.0162   -9.0576  -18.2949 C   0  0  0  0  0  0  0  0  0  0  0  0
   20.2054  -10.3008  -19.0776 C   0  0  0  0  0  0  0  0  0  0  0  0
   19.6673  -10.6068  -20.3039 C   0  0  0  0  0  0  0  0  0  0  0  0
   20.0640  -11.8289  -20.6987 N   0  0  0  0  0  0  0  0  0  0  0  0
   20.8597  -12.3021  -19.7162 C   0  0  0  0  0  0  0  0  0  0  0  0
   20.9432  -11.3737  -18.7356 N   0  0  0  0  0  0  0  0  0  0  0  0
   19.3347   -8.1882  -16.0758 C   0  0  0  0  0  0  0  0  0  0  0  0
   18.5448   -7.2450  -16.3003 O   0  0  0  0  0  0  0  0  0  0  0  0
   20.1613   -8.0022  -11.9038 O   0  0  0  0  0  0  0  0  0  0  0  0
   20.8258   -7.1384  -12.7453 C   0  0  0  0  0  0  0  0  0  0  0  0
   20.0722   -6.9052  -14.0596 C   0  0  2  0  0  0  0  0  0  0  0  0
   20.1756   -8.0536  -14.9156 N   0  0  0  0  0  0  0  0  0  0  0  0
   20.7452   -5.7085  -14.6813 C   0  0  0  0  0  0  0  0  0  0  0  0
   21.4601   -5.8786  -15.6995 O   0  0  0  0  0  0  0  0  0  0  0  0
   19.3398   -2.4152  -18.3938 N   0  0  0  0  0  0  0  0  0  0  0  0
   20.5279   -1.6395  -18.1331 C   0  0  0  0  0  0  0  0  0  0  0  0
   20.6816   -0.6545  -18.8735 O   0  0  0  0  0  0  0  0  0  0  0  0
   21.4077   -2.0801  -17.0546 C   0  0  0  0  0  0  0  0  0  0  0  0
   21.0180   -3.2528  -16.2552 C   0  0  0  0  0  0  0  0  0  0  0  0
   21.2025   -3.2193  -14.7859 C   0  0  2  0  0  0  0  0  0  0  0  0
   20.6039   -4.4136  -14.1669 N   0  0  0  0  0  0  0  0  0  0  0  0
   20.7656   -2.0446  -14.0461 C   0  0  0  0  0  0  0  0  0  0  0  0
   19.6964   -2.1090  -13.1284 O   0  0  0  0  0  0  0  0  0  0  0  0
   21.2997   -0.9172  -14.1794 O   0  0  0  0  0  0  0  0  0  0  0  0
  2  1  1  6
  3  2  1  0
  4  5  2  0
  4  3  1  0
  6  5  1  0
  7  8  2  0
  7  6  1  0
  8  4  1  0
  9 10  2  0
  9  2  1  0
 11 12  1  0
 13 14  1  0
 13 12  1  1
 14  9  1  0
 15 13  1  0
 16 15  2  0
 18 20  1  0
 18 17  1  0
 19 18  2  0
 22 21  1  6
 21 20  1  0
 22 23  1  0
 23 15  1  0
 24 25  1  0
 24 22  1  0
 26 24  2  0
M  END
$$$$
