HSQ.pdb
     RDKit          3D

 26 26  0  0  1  0  0  0  0  0999 V2000
   28.0943  -27.3189  -19.0419 N   0  0  0  0  0  0  0  0  0  0  0  0
   29.2695  -27.5768  -18.2532 C   0  0  1  0  0  0  0  0  0  0  0  0
   28.9621  -27.2748  -16.8109 C   0  0  0  0  0  0  0  0  0  0  0  0
   28.5502  -25.8617  -16.6444 C   0  0  0  0  0  0  0  0  0  0  0  0
   27.3006  -25.3868  -16.3282 C   0  0  0  0  0  0  0  0  0  0  0  0
   27.3111  -24.0442  -16.2651 N   0  0  0  0  0  0  0  0  0  0  0  0
   28.5762  -23.6640  -16.5429 C   0  0  0  0  0  0  0  0  0  0  0  0
   29.3243  -24.7678  -16.7722 N   0  0  0  0  0  0  0  0  0  0  0  0
   29.8174  -28.9221  -18.4540 C   0  0  0  0  0  0  0  0  0  0  0  0
   29.0620  -29.8904  -18.6903 O   0  0  0  0  0  0  0  0  0  0  0  0
   33.8623  -29.9056  -17.7291 O   0  0  0  0  0  0  0  0  0  0  0  0
   33.2459  -30.5274  -18.7919 C   0  0  0  0  0  0  0  0  0  0  0  0
   31.7186  -30.5336  -18.6614 C   0  0  2  0  0  0  0  0  0  0  0  0
   31.2258  -29.2115  -18.3941 N   0  0  0  0  0  0  0  0  0  0  0  0
   31.4355  -31.4573  -17.5047 C   0  0  0  0  0  0  0  0  0  0  0  0
   31.5628  -31.0178  -16.3353 O   0  0  0  0  0  0  0  0  0  0  0  0
   26.6958  -32.5795  -15.6025 N   0  0  0  0  0  0  0  0  0  0  0  0
   27.3386  -33.4293  -14.6299 C   0  0  0  0  0  0  0  0  0  0  0  0
   26.5786  -33.9133  -13.7755 O   0  0  0  0  0  0  0  0  0  0  0  0
   28.7805  -33.6280  -14.7440 C   0  0  0  0  0  0  0  0  0  0  0  0
   29.5141  -32.9120  -15.8001 C   0  0  0  0  0  0  0  0  0  0  0  0
   30.5279  -33.6409  -16.5970 C   0  0  2  0  0  0  0  0  0  0  0  0
   31.0359  -32.7876  -17.6839 N   0  0  0  0  0  0  0  0  0  0  0  0
   30.1882  -34.9438  -17.1497 C   0  0  0  0  0  0  0  0  0  0  0  0
   30.0250  -36.0740  -16.3218 O   0  0  0  0  0  0  0  0  0  0  0  0
   30.0271  -35.1425  -18.3779 O   0  0  0  0  0  0  0  0  0  0  0  0
  2  1  1  6
  3  2  1  0
  4  5  2  0
  4  3  1  0
  6  5  1  0
  7  8  2  0
  7  6  1  0
  8  4  1  0
  9 10  2  0
  9  2  1  0
 11 12  1  0
 13 14  1  0
 13 12  1  1
 14  9  1  0
 15 13  1  0
 16 15  2  0
 18 20  1  0
 18 17  1  0
 19 18  2  0
 22 21  1  6
 21 20  1  0
 22 23  1  0
 23 15  1  0
 24 25  1  0
 24 22  1  0
 26 24  2  0
M  END
$$$$
