HSQ.pdb
     RDKit          3D

 26 26  0  0  1  0  0  0  0  0999 V2000
   26.5454  -22.1382  -11.3092 N   0  0  0  0  0  0  0  0  0  0  0  0
   25.4416  -21.2204  -11.2145 C   0  0  1  0  0  0  0  0  0  0  0  0
   25.3962  -20.6580   -9.8189 C   0  0  0  0  0  0  0  0  0  0  0  0
   26.7440  -20.6627   -9.2046 C   0  0  0  0  0  0  0  0  0  0  0  0
   27.8816  -21.2614   -9.6889 C   0  0  0  0  0  0  0  0  0  0  0  0
   28.9143  -21.0506   -8.8547 N   0  0  0  0  0  0  0  0  0  0  0  0
   28.4291  -20.3130   -7.8337 C   0  0  0  0  0  0  0  0  0  0  0  0
   27.1138  -20.0797   -8.0488 N   0  0  0  0  0  0  0  0  0  0  0  0
   25.4605  -20.1836  -12.2512 C   0  0  0  0  0  0  0  0  0  0  0  0
   24.5597  -19.3177  -12.3048 O   0  0  0  0  0  0  0  0  0  0  0  0
   27.8364  -17.9217  -15.8787 O   0  0  0  0  0  0  0  0  0  0  0  0
   27.8262  -18.9117  -14.9217 C   0  0  0  0  0  0  0  0  0  0  0  0
   26.4526  -19.0735  -14.2608 C   0  0  2  0  0  0  0  0  0  0  0  0
   26.4910  -20.0948  -13.2519 N   0  0  0  0  0  0  0  0  0  0  0  0
   25.5284  -19.4631  -15.3857 C   0  0  0  0  0  0  0  0  0  0  0  0
   25.4297  -20.6764  -15.6938 O   0  0  0  0  0  0  0  0  0  0  0  0
   20.8678  -20.4122  -13.4054 N   0  0  0  0  0  0  0  0  0  0  0  0
   20.4966  -19.1210  -13.9310 C   0  0  0  0  0  0  0  0  0  0  0  0
   19.4536  -18.6435  -13.4554 O   0  0  0  0  0  0  0  0  0  0  0  0
   21.3609  -18.5221  -14.9438 C   0  0  0  0  0  0  0  0  0  0  0  0
   22.5840  -19.2357  -15.3448 C   0  0  0  0  0  0  0  0  0  0  0  0
   23.3714  -18.7309  -16.4934 C   0  0  2  0  0  0  0  0  0  0  0  0
   24.7752  -18.5237  -16.1009 N   0  0  0  0  0  0  0  0  0  0  0  0
   22.9076  -17.5469  -17.2013 C   0  0  0  0  0  0  0  0  0  0  0  0
   22.2689  -17.6429  -18.4553 O   0  0  0  0  0  0  0  0  0  0  0  0
   23.0491  -16.3843  -16.7515 O   0  0  0  0  0  0  0  0  0  0  0  0
  2  1  1  1
  3  2  1  0
  4  5  2  0
  4  3  1  0
  6  5  1  0
  7  8  2  0
  7  6  1  0
  8  4  1  0
  9 10  2  0
  9  2  1  0
 11 12  1  0
 13 14  1  0
 13 12  1  6
 14  9  1  0
 15 13  1  0
 16 15  2  0
 18 20  1  0
 18 17  1  0
 19 18  2  0
 22 21  1  1
 21 20  1  0
 22 23  1  0
 23 15  1  0
 24 25  1  0
 24 22  1  0
 26 24  2  0
M  END
$$$$
