HSQ.pdb
     RDKit          3D

 26 26  0  0  1  0  0  0  0  0999 V2000
   17.7215  -12.2603  -14.4590 N   0  0  0  0  0  0  0  0  0  0  0  0
   17.9699  -11.4022  -15.5867 C   0  0  1  0  0  0  0  0  0  0  0  0
   16.6580  -11.0840  -16.2528 C   0  0  0  0  0  0  0  0  0  0  0  0
   15.9396  -12.3255  -16.6224 C   0  0  0  0  0  0  0  0  0  0  0  0
   14.8407  -12.8710  -16.0046 C   0  0  0  0  0  0  0  0  0  0  0  0
   14.4689  -14.0047  -16.6237 N   0  0  0  0  0  0  0  0  0  0  0  0
   15.3377  -14.1801  -17.6418 C   0  0  0  0  0  0  0  0  0  0  0  0
   16.2275  -13.1609  -17.6381 N   0  0  0  0  0  0  0  0  0  0  0  0
   18.7450  -10.2056  -15.2438 C   0  0  0  0  0  0  0  0  0  0  0  0
   18.5093   -9.5721  -14.1916 O   0  0  0  0  0  0  0  0  0  0  0  0
   21.9480   -8.8859  -17.6209 O   0  0  0  0  0  0  0  0  0  0  0  0
   21.9356   -8.5209  -16.2932 C   0  0  0  0  0  0  0  0  0  0  0  0
   20.5210   -8.5057  -15.7030 C   0  0  2  0  0  0  0  0  0  0  0  0
   19.8025   -9.6923  -16.0741 N   0  0  0  0  0  0  0  0  0  0  0  0
   19.8727   -7.2784  -16.2905 C   0  0  0  0  0  0  0  0  0  0  0  0
   19.0888   -7.4155  -17.2618 O   0  0  0  0  0  0  0  0  0  0  0  0
   15.4266   -4.3800  -15.9173 N   0  0  0  0  0  0  0  0  0  0  0  0
   16.1350   -3.1268  -16.0109 C   0  0  0  0  0  0  0  0  0  0  0  0
   15.4147   -2.1317  -16.1927 O   0  0  0  0  0  0  0  0  0  0  0  0
   17.5895   -3.1541  -15.8875 C   0  0  0  0  0  0  0  0  0  0  0  0
   18.2551   -4.4396  -15.6221 C   0  0  0  0  0  0  0  0  0  0  0  0
   19.4987   -4.7740  -16.3540 C   0  0  2  0  0  0  0  0  0  0  0  0
   20.1112   -5.9905  -15.7947 N   0  0  0  0  0  0  0  0  0  0  0  0
   20.5305   -3.7572  -16.4943 C   0  0  0  0  0  0  0  0  0  0  0  0
   21.7956   -3.9047  -15.8883 O   0  0  0  0  0  0  0  0  0  0  0  0
   20.3613   -2.6996  -17.1476 O   0  0  0  0  0  0  0  0  0  0  0  0
  2  1  1  1
  3  2  1  0
  4  5  2  0
  4  3  1  0
  6  5  1  0
  7  8  2  0
  7  6  1  0
  8  4  1  0
  9 10  2  0
  9  2  1  0
 11 12  1  0
 13 14  1  0
 13 12  1  6
 14  9  1  0
 15 13  1  0
 16 15  2  0
 18 20  1  0
 18 17  1  0
 19 18  2  0
 22 21  1  1
 21 20  1  0
 22 23  1  0
 23 15  1  0
 24 25  1  0
 24 22  1  0
 26 24  2  0
M  END
$$$$
