HSQ.pdb
     RDKit          3D

 26 26  0  0  1  0  0  0  0  0999 V2000
   23.2888   -1.1927  -17.7702 N   0  0  0  0  0  0  0  0  0  0  0  0
   22.6750   -1.4672  -16.4983 C   0  0  1  0  0  0  0  0  0  0  0  0
   21.7580   -0.3268  -16.1455 C   0  0  0  0  0  0  0  0  0  0  0  0
   22.5181    0.9367  -16.0048 C   0  0  0  0  0  0  0  0  0  0  0  0
   22.2802    2.1308  -16.6409 C   0  0  0  0  0  0  0  0  0  0  0  0
   23.1815    3.0527  -16.2606 N   0  0  0  0  0  0  0  0  0  0  0  0
   23.9972    2.4397  -15.3768 C   0  0  0  0  0  0  0  0  0  0  0  0
   23.5924    1.1577  -15.2241 N   0  0  0  0  0  0  0  0  0  0  0  0
   22.0124   -2.7743  -16.4457 C   0  0  0  0  0  0  0  0  0  0  0  0
   21.2854   -3.1600  -17.3873 O   0  0  0  0  0  0  0  0  0  0  0  0
   22.0432   -5.1531  -12.9733 O   0  0  0  0  0  0  0  0  0  0  0  0
   21.9556   -5.8203  -14.1746 C   0  0  0  0  0  0  0  0  0  0  0  0
   21.4375   -4.9248  -15.3057 C   0  0  2  0  0  0  0  0  0  0  0  0
   22.1505   -3.6786  -15.3347 N   0  0  0  0  0  0  0  0  0  0  0  0
   19.9815   -4.7042  -14.9848 C   0  0  0  0  0  0  0  0  0  0  0  0
   19.6782   -3.8680  -14.0985 O   0  0  0  0  0  0  0  0  0  0  0  0
   16.0866   -3.9695  -19.2815 N   0  0  0  0  0  0  0  0  0  0  0  0
   15.9551   -5.3606  -18.9224 C   0  0  0  0  0  0  0  0  0  0  0  0
   15.5091   -6.0922  -19.8211 O   0  0  0  0  0  0  0  0  0  0  0  0
   16.3476   -5.7574  -17.5733 C   0  0  0  0  0  0  0  0  0  0  0  0
   16.8538   -4.7289  -16.6502 C   0  0  0  0  0  0  0  0  0  0  0  0
   17.5222   -5.1489  -15.3969 C   0  0  2  0  0  0  0  0  0  0  0  0
   18.9535   -5.3962  -15.6373 N   0  0  0  0  0  0  0  0  0  0  0  0
   16.9766   -6.2711  -14.6476 C   0  0  0  0  0  0  0  0  0  0  0  0
   17.6045   -7.5341  -14.6535 O   0  0  0  0  0  0  0  0  0  0  0  0
   15.9274   -6.1894  -13.9646 O   0  0  0  0  0  0  0  0  0  0  0  0
  2  1  1  6
  3  2  1  0
  4  5  2  0
  4  3  1  0
  6  5  1  0
  7  8  2  0
  7  6  1  0
  8  4  1  0
  9 10  2  0
  9  2  1  0
 11 12  1  0
 13 14  1  0
 13 12  1  1
 14  9  1  0
 15 13  1  0
 16 15  2  0
 18 20  1  0
 18 17  1  0
 19 18  2  0
 22 21  1  6
 21 20  1  0
 22 23  1  0
 23 15  1  0
 24 25  1  0
 24 22  1  0
 26 24  2  0
M  END
$$$$
