VPC.pdb
     RDKit          3D

 21 21  0  0  1  0  0  0  0  0999 V2000
   16.8210  -13.7723  -16.4597 C   0  0  0  0  0  0  0  0  0  0  0  0
   17.5644  -12.4695  -16.3630 C   0  0  2  0  0  0  0  0  0  0  0  0
   16.5861  -11.3553  -16.6245 C   0  0  0  0  0  0  0  0  0  0  0  0
   18.7523  -12.4147  -17.3027 C   0  0  2  0  0  0  0  0  0  0  0  0
   19.5939  -13.5522  -17.2100 N   0  0  0  0  0  0  0  0  0  0  0  0
   19.3925  -11.1010  -17.1974 C   0  0  0  0  0  0  0  0  0  0  0  0
   20.0384  -10.8917  -16.1084 O   0  0  0  0  0  0  0  0  0  0  0  0
   19.3497  -10.0649  -18.1961 N   0  0  0  0  0  0  0  0  0  0  0  0
   18.6224  -10.0584  -19.4295 C   0  0  0  0  0  0  0  0  0  0  0  0
   18.3967   -8.5999  -19.7318 C   0  0  0  0  0  0  0  0  0  0  0  0
   19.6750   -7.9843  -19.2045 C   0  0  0  0  0  0  0  0  0  0  0  0
   20.0997   -8.8525  -18.0628 C   0  0  1  0  0  0  0  0  0  0  0  0
   19.7535   -8.1126  -16.8119 C   0  0  0  0  0  0  0  0  0  0  0  0
   18.5940   -8.2408  -16.3504 O   0  0  0  0  0  0  0  0  0  0  0  0
   20.6617   -7.2814  -16.1280 N   0  0  0  0  0  0  0  0  0  0  0  0
   20.3547   -6.5702  -14.9016 C   0  0  1  0  0  0  0  0  0  0  0  0
   21.5640   -6.4399  -14.0064 C   0  0  0  0  0  0  0  0  0  0  0  0
   21.9408   -8.0882  -13.3444 S   0  0  0  0  0  0  0  0  0  0  0  0
   19.8783   -5.2042  -15.2430 C   0  0  0  0  0  0  0  0  0  0  0  0
   18.9079   -4.5387  -14.5062 O   0  0  0  0  0  0  0  0  0  0  0  0
   20.3596   -4.5983  -16.2417 O   0  0  0  0  0  0  0  0  0  0  0  0
  2  1  1  6
  2  4  1  0
  3  2  1  0
  4  5  1  1
  6  4  1  0
  7  6  2  0
  8  6  1  0
  9 10  1  0
  9  8  1  0
 10 11  1  0
 12  8  1  0
 12 11  1  0
 12 13  1  1
 14 13  2  0
 15 13  1  0
 16 15  1  0
 16 17  1  1
 17 18  1  0
 19 16  1  0
 19 20  1  0
 21 19  2  0
M  END
$$$$
