VPC.pdb
     RDKit          3D

 21 21  0  0  1  0  0  0  0  0999 V2000
   18.0761  -12.9251  -19.2538 C   0  0  0  0  0  0  0  0  0  0  0  0
   18.9308  -11.9377  -18.5096 C   0  0  2  0  0  0  0  0  0  0  0  0
   18.6258  -10.5633  -19.0435 C   0  0  0  0  0  0  0  0  0  0  0  0
   20.4067  -12.2693  -18.6044 C   0  0  2  0  0  0  0  0  0  0  0  0
   20.7063  -13.6055  -18.2363 N   0  0  0  0  0  0  0  0  0  0  0  0
   21.1835  -11.2090  -17.9569 C   0  0  0  0  0  0  0  0  0  0  0  0
   21.0985  -11.1708  -16.6769 O   0  0  0  0  0  0  0  0  0  0  0  0
   22.0074  -10.2410  -18.6329 N   0  0  0  0  0  0  0  0  0  0  0  0
   22.2540  -10.1208  -20.0383 C   0  0  0  0  0  0  0  0  0  0  0  0
   22.5890   -8.6664  -20.2439 C   0  0  0  0  0  0  0  0  0  0  0  0
   23.3324   -8.3475  -18.9646 C   0  0  0  0  0  0  0  0  0  0  0  0
   22.7366   -9.2364  -17.9195 C   0  0  1  0  0  0  0  0  0  0  0  0
   21.8413   -8.3768  -17.0878 C   0  0  0  0  0  0  0  0  0  0  0  0
   20.6831   -8.1456  -17.5107 O   0  0  0  0  0  0  0  0  0  0  0  0
   22.2325   -7.8155  -15.8568 N   0  0  0  0  0  0  0  0  0  0  0  0
   21.3706   -7.0053  -15.0172 C   0  0  1  0  0  0  0  0  0  0  0  0
   21.2146   -7.5928  -13.6347 C   0  0  0  0  0  0  0  0  0  0  0  0
   20.2108   -6.4395  -12.6551 S   0  0  0  0  0  0  0  0  0  0  0  0
   21.9649   -5.6494  -14.8830 C   0  0  0  0  0  0  0  0  0  0  0  0
   21.1979   -4.5033  -14.7229 O   0  0  0  0  0  0  0  0  0  0  0  0
   23.2194   -5.5036  -14.9123 O   0  0  0  0  0  0  0  0  0  0  0  0
  2  1  1  6
  2  4  1  0
  3  2  1  0
  4  5  1  1
  6  4  1  0
  7  6  2  0
  8  6  1  0
  9 10  1  0
  9  8  1  0
 10 11  1  0
 12  8  1  0
 12 11  1  0
 12 13  1  1
 14 13  2  0
 15 13  1  0
 16 15  1  0
 16 17  1  1
 17 18  1  0
 19 16  1  0
 19 20  1  0
 21 19  2  0
M  END
$$$$
