VPC.pdb
     RDKit          3D

 21 21  0  0  1  0  0  0  0  0999 V2000
   16.6892   -9.6579  -16.9001 C   0  0  0  0  0  0  0  0  0  0  0  0
   17.8915  -10.4816  -17.2682 C   0  0  2  0  0  0  0  0  0  0  0  0
   17.4288  -11.6125  -18.1479 C   0  0  0  0  0  0  0  0  0  0  0  0
   18.6413  -10.9803  -16.0491 C   0  0  2  0  0  0  0  0  0  0  0  0
   17.8940  -11.8970  -15.2669 N   0  0  0  0  0  0  0  0  0  0  0  0
   19.2407   -9.8406  -15.3499 C   0  0  0  0  0  0  0  0  0  0  0  0
   18.4774   -9.2561  -14.4998 O   0  0  0  0  0  0  0  0  0  0  0  0
   20.5798   -9.3485  -15.5428 N   0  0  0  0  0  0  0  0  0  0  0  0
   21.6312   -9.9338  -16.3189 C   0  0  0  0  0  0  0  0  0  0  0  0
   22.5099   -8.7734  -16.7076 C   0  0  0  0  0  0  0  0  0  0  0  0
   22.4065   -7.8958  -15.4788 C   0  0  0  0  0  0  0  0  0  0  0  0
   21.0427   -8.1464  -14.9177 C   0  0  1  0  0  0  0  0  0  0  0  0
   20.2061   -6.9643  -15.2850 C   0  0  0  0  0  0  0  0  0  0  0  0
   19.6447   -6.9625  -16.4069 O   0  0  0  0  0  0  0  0  0  0  0  0
   20.0175   -5.8561  -14.4367 N   0  0  0  0  0  0  0  0  0  0  0  0
   19.3070   -4.6492  -14.8143 C   0  0  1  0  0  0  0  0  0  0  0  0
   18.4435   -4.1272  -13.6907 C   0  0  0  0  0  0  0  0  0  0  0  0
   17.6495   -2.5999  -14.2688 S   0  0  0  0  0  0  0  0  0  0  0  0
   20.2968   -3.5982  -15.1683 C   0  0  0  0  0  0  0  0  0  0  0  0
   20.1728   -2.7953  -16.2941 O   0  0  0  0  0  0  0  0  0  0  0  0
   21.3043   -3.4049  -14.4310 O   0  0  0  0  0  0  0  0  0  0  0  0
  2  1  1  1
  2  4  1  0
  3  2  1  0
  4  5  1  1
  6  4  1  0
  7  6  2  0
  8  6  1  0
  9 10  1  0
  9  8  1  0
 10 11  1  0
 12  8  1  0
 12 11  1  0
 12 13  1  6
 14 13  2  0
 15 13  1  0
 16 15  1  0
 16 17  1  1
 17 18  1  0
 19 16  1  0
 19 20  1  0
 21 19  2  0
M  END
$$$$
