VPC.pdb
     RDKit          3D

 21 21  0  0  1  0  0  0  0  0999 V2000
   21.4332  -18.7944  -15.5735 C   0  0  0  0  0  0  0  0  0  0  0  0
   22.3434  -17.7930  -16.2276 C   0  0  2  0  0  0  0  0  0  0  0  0
   21.4947  -16.8626  -17.0528 C   0  0  0  0  0  0  0  0  0  0  0  0
   23.4279  -18.4557  -17.0534 C   0  0  2  0  0  0  0  0  0  0  0  0
   22.9205  -19.2358  -18.1233 N   0  0  0  0  0  0  0  0  0  0  0  0
   24.3929  -19.0990  -16.1580 C   0  0  0  0  0  0  0  0  0  0  0  0
   24.1039  -20.3008  -15.8128 O   0  0  0  0  0  0  0  0  0  0  0  0
   25.6013  -18.4981  -15.6566 N   0  0  0  0  0  0  0  0  0  0  0  0
   26.1298  -17.2007  -15.9528 C   0  0  0  0  0  0  0  0  0  0  0  0
   26.9600  -16.8425  -14.7478 C   0  0  0  0  0  0  0  0  0  0  0  0
   27.5164  -18.1945  -14.3560 C   0  0  0  0  0  0  0  0  0  0  0  0
   26.4768  -19.1911  -14.7603 C   0  0  1  0  0  0  0  0  0  0  0  0
   25.7795  -19.6126  -13.5079 C   0  0  0  0  0  0  0  0  0  0  0  0
   24.8059  -18.9269  -13.1135 O   0  0  0  0  0  0  0  0  0  0  0  0
   26.1604  -20.7378  -12.7514 N   0  0  0  0  0  0  0  0  0  0  0  0
   25.5979  -21.0827  -11.4596 C   0  0  1  0  0  0  0  0  0  0  0  0
   26.2619  -22.2999  -10.8613 C   0  0  0  0  0  0  0  0  0  0  0  0
   25.6054  -22.5175   -9.1824 S   0  0  0  0  0  0  0  0  0  0  0  0
   25.7930  -19.9404  -10.5286 C   0  0  0  0  0  0  0  0  0  0  0  0
   24.8120  -19.5138   -9.6437 O   0  0  0  0  0  0  0  0  0  0  0  0
   26.8890  -19.3121  -10.5203 O   0  0  0  0  0  0  0  0  0  0  0  0
  2  1  1  6
  2  4  1  0
  3  2  1  0
  4  5  1  6
  6  4  1  0
  7  6  2  0
  8  6  1  0
  9 10  1  0
  9  8  1  0
 10 11  1  0
 12  8  1  0
 12 11  1  0
 12 13  1  1
 14 13  2  0
 15 13  1  0
 16 15  1  0
 16 17  1  1
 17 18  1  0
 19 16  1  0
 19 20  1  0
 21 19  2  0
M  END
$$$$
