VPC.pdb
     RDKit          3D

 21 21  0  0  1  0  0  0  0  0999 V2000
   12.1062  -11.6842  -10.3053 C   0  0  0  0  0  0  0  0  0  0  0  0
   12.3368  -11.8153  -11.7848 C   0  0  2  0  0  0  0  0  0  0  0  0
   11.3171  -12.7792  -12.3308 C   0  0  0  0  0  0  0  0  0  0  0  0
   13.7540  -12.2431  -12.1097 C   0  0  2  0  0  0  0  0  0  0  0  0
   14.0650  -13.5485  -11.6516 N   0  0  0  0  0  0  0  0  0  0  0  0
   14.6801  -11.1689  -11.7418 C   0  0  0  0  0  0  0  0  0  0  0  0
   14.9877  -11.1126  -10.4972 O   0  0  0  0  0  0  0  0  0  0  0  0
   15.2500  -10.2062  -12.6480 N   0  0  0  0  0  0  0  0  0  0  0  0
   15.1361  -10.1628  -14.0747 C   0  0  0  0  0  0  0  0  0  0  0  0
   15.3177   -8.7096  -14.4280 C   0  0  0  0  0  0  0  0  0  0  0  0
   16.3307   -8.2745  -13.3910 C   0  0  0  0  0  0  0  0  0  0  0  0
   16.0670   -9.1239  -12.1883 C   0  0  1  0  0  0  0  0  0  0  0  0
   15.3507   -8.2587  -11.2032 C   0  0  0  0  0  0  0  0  0  0  0  0
   14.1214   -8.0692  -11.3662 O   0  0  0  0  0  0  0  0  0  0  0  0
   15.9856   -7.6476  -10.1046 N   0  0  0  0  0  0  0  0  0  0  0  0
   15.3196   -6.7732   -9.1582 C   0  0  1  0  0  0  0  0  0  0  0  0
   15.8871   -6.9112   -7.7655 C   0  0  0  0  0  0  0  0  0  0  0  0
   14.9214   -5.8354   -6.6669 S   0  0  0  0  0  0  0  0  0  0  0  0
   15.4977   -5.3639   -9.5964 C   0  0  0  0  0  0  0  0  0  0  0  0
   16.5910   -4.9383  -10.3387 O   0  0  0  0  0  0  0  0  0  0  0  0
   14.6325   -4.4942   -9.2948 O   0  0  0  0  0  0  0  0  0  0  0  0
  2  1  1  1
  2  4  1  0
  3  2  1  0
  4  5  1  1
  6  4  1  0
  7  6  2  0
  8  6  1  0
  9 10  1  0
  9  8  1  0
 10 11  1  0
 12  8  1  0
 12 11  1  0
 12 13  1  1
 14 13  2  0
 15 13  1  0
 16 15  1  0
 16 17  1  1
 17 18  1  0
 19 16  1  0
 19 20  1  0
 21 19  2  0
M  END
$$$$
