VPC.pdb
     RDKit          3D

 21 21  0  0  1  0  0  0  0  0999 V2000
   13.0897  -10.2063  -13.0222 C   0  0  0  0  0  0  0  0  0  0  0  0
   14.2011  -10.3848  -14.0182 C   0  0  2  0  0  0  0  0  0  0  0  0
   13.6914  -11.2605  -15.1319 C   0  0  0  0  0  0  0  0  0  0  0  0
   15.4571  -10.9470  -13.3830 C   0  0  2  0  0  0  0  0  0  0  0  0
   15.3031  -12.2775  -12.9174 N   0  0  0  0  0  0  0  0  0  0  0  0
   16.0011   -9.9684  -12.4378 C   0  0  0  0  0  0  0  0  0  0  0  0
   15.5515  -10.0555  -11.2390 O   0  0  0  0  0  0  0  0  0  0  0  0
   16.9718   -8.9517  -12.7492 N   0  0  0  0  0  0  0  0  0  0  0  0
   17.5947   -8.6839  -14.0104 C   0  0  0  0  0  0  0  0  0  0  0  0
   17.9621   -7.2240  -13.9522 C   0  0  0  0  0  0  0  0  0  0  0  0
   18.3224   -7.0649  -12.4908 C   0  0  0  0  0  0  0  0  0  0  0  0
   17.4688   -8.0488  -11.7554 C   0  0  1  0  0  0  0  0  0  0  0  0
   16.3727   -7.2648  -11.1104 C   0  0  0  0  0  0  0  0  0  0  0  0
   15.3922   -6.9273  -11.8164 O   0  0  0  0  0  0  0  0  0  0  0  0
   16.3861   -6.8876   -9.7536 N   0  0  0  0  0  0  0  0  0  0  0  0
   15.3215   -6.1511   -9.0993 C   0  0  1  0  0  0  0  0  0  0  0  0
   15.2594   -6.4434   -7.6190 C   0  0  0  0  0  0  0  0  0  0  0  0
   14.9160   -8.2153   -7.4203 S   0  0  0  0  0  0  0  0  0  0  0  0
   15.5630   -4.6951   -9.2771 C   0  0  0  0  0  0  0  0  0  0  0  0
   14.5512   -3.7481   -9.1944 O   0  0  0  0  0  0  0  0  0  0  0  0
   16.7296   -4.2725   -9.5147 O   0  0  0  0  0  0  0  0  0  0  0  0
  2  1  1  1
  2  4  1  0
  3  2  1  0
  4  5  1  1
  6  4  1  0
  7  6  2  0
  8  6  1  0
  9 10  1  0
  9  8  1  0
 10 11  1  0
 12  8  1  0
 12 11  1  0
 12 13  1  6
 14 13  2  0
 15 13  1  0
 16 15  1  0
 16 17  1  1
 17 18  1  0
 19 16  1  0
 19 20  1  0
 21 19  2  0
M  END
$$$$
