VPC.pdb
     RDKit          3D

 21 21  0  0  1  0  0  0  0  0999 V2000
   20.2432  -22.3082  -16.1372 C   0  0  0  0  0  0  0  0  0  0  0  0
   19.7729  -23.3071  -15.1173 C   0  0  2  0  0  0  0  0  0  0  0  0
   20.7209  -23.2600  -13.9485 C   0  0  0  0  0  0  0  0  0  0  0  0
   19.6512  -24.7034  -15.6941 C   0  0  2  0  0  0  0  0  0  0  0  0
   18.8793  -24.7542  -16.8825 N   0  0  0  0  0  0  0  0  0  0  0  0
   19.2924  -25.6391  -14.6251 C   0  0  0  0  0  0  0  0  0  0  0  0
   18.1868  -25.3868  -14.0242 O   0  0  0  0  0  0  0  0  0  0  0  0
   20.0661  -26.7824  -14.2168 N   0  0  0  0  0  0  0  0  0  0  0  0
   21.2737  -27.2840  -14.8002 C   0  0  0  0  0  0  0  0  0  0  0  0
   21.9699  -28.0054  -13.6757 C   0  0  0  0  0  0  0  0  0  0  0  0
   20.7936  -28.5794  -12.9156 C   0  0  0  0  0  0  0  0  0  0  0  0
   19.6714  -27.6113  -13.1180 C   0  0  1  0  0  0  0  0  0  0  0  0
   19.5422  -26.8357  -11.8476 C   0  0  0  0  0  0  0  0  0  0  0  0
   20.2346  -25.7981  -11.7148 O   0  0  0  0  0  0  0  0  0  0  0  0
   18.6843  -27.2111  -10.7957 N   0  0  0  0  0  0  0  0  0  0  0  0
   18.4647  -26.4217   -9.5987 C   0  0  1  0  0  0  0  0  0  0  0  0
   17.7456  -25.1282   -9.8993 C   0  0  0  0  0  0  0  0  0  0  0  0
   17.4867  -24.2619   -8.3246 S   0  0  0  0  0  0  0  0  0  0  0  0
   17.6334  -27.2072   -8.6492 C   0  0  0  0  0  0  0  0  0  0  0  0
   17.8759  -27.2374   -7.2826 O   0  0  0  0  0  0  0  0  0  0  0  0
   16.6573  -27.8862   -9.0762 O   0  0  0  0  0  0  0  0  0  0  0  0
  2  1  1  6
  2  4  1  0
  3  2  1  0
  4  5  1  6
  6  4  1  0
  7  6  2  0
  8  6  1  0
  9 10  1  0
  9  8  1  0
 10 11  1  0
 12  8  1  0
 12 11  1  0
 12 13  1  1
 14 13  2  0
 15 13  1  0
 16 15  1  0
 16 17  1  6
 17 18  1  0
 19 16  1  0
 19 20  1  0
 21 19  2  0
M  END
$$$$
