VPC.pdb
     RDKit          3D

 21 21  0  0  1  0  0  0  0  0999 V2000
   18.5681  -21.0513  -13.2124 C   0  0  0  0  0  0  0  0  0  0  0  0
   19.6884  -20.1158  -12.8532 C   0  0  2  0  0  0  0  0  0  0  0  0
   19.7468  -19.0362  -13.9010 C   0  0  0  0  0  0  0  0  0  0  0  0
   21.0136  -20.8363  -12.7054 C   0  0  2  0  0  0  0  0  0  0  0  0
   21.4492  -21.4606  -13.9017 N   0  0  0  0  0  0  0  0  0  0  0  0
   20.9833  -21.6617  -11.4952 C   0  0  0  0  0  0  0  0  0  0  0  0
   20.4888  -22.8365  -11.6451 O   0  0  0  0  0  0  0  0  0  0  0  0
   21.4540  -21.2611  -10.1949 N   0  0  0  0  0  0  0  0  0  0  0  0
   22.0282  -20.0061   -9.8130 C   0  0  0  0  0  0  0  0  0  0  0  0
   21.7301  -19.8822   -8.3415 C   0  0  0  0  0  0  0  0  0  0  0  0
   21.8372  -21.3237   -7.8926 C   0  0  0  0  0  0  0  0  0  0  0  0
   21.4145  -22.1450   -9.0692 C   0  0  1  0  0  0  0  0  0  0  0  0
   20.0294  -22.6243   -8.7799 C   0  0  0  0  0  0  0  0  0  0  0  0
   19.0684  -21.8833   -9.0978 O   0  0  0  0  0  0  0  0  0  0  0  0
   19.7507  -23.8627   -8.1699 N   0  0  0  0  0  0  0  0  0  0  0  0
   18.4156  -24.3448   -7.8714 C   0  0  1  0  0  0  0  0  0  0  0  0
   18.2644  -25.8158   -8.1781 C   0  0  0  0  0  0  0  0  0  0  0  0
   16.5638  -26.2949   -7.7595 S   0  0  0  0  0  0  0  0  0  0  0  0
   18.1415  -24.1399   -6.4248 C   0  0  0  0  0  0  0  0  0  0  0  0
   16.8681  -23.9020   -5.9257 O   0  0  0  0  0  0  0  0  0  0  0  0
   19.0893  -24.1785   -5.5904 O   0  0  0  0  0  0  0  0  0  0  0  0
  2  1  1  6
  2  4  1  0
  3  2  1  0
  4  5  1  6
  6  4  1  0
  7  6  2  0
  8  6  1  0
  9 10  1  0
  9  8  1  0
 10 11  1  0
 12  8  1  0
 12 11  1  0
 12 13  1  1
 14 13  2  0
 15 13  1  0
 16 15  1  0
 16 17  1  1
 17 18  1  0
 19 16  1  0
 19 20  1  0
 21 19  2  0
M  END
$$$$
