DNI.pdb
     RDKit          3D

 25 24  0  0  1  0  0  0  0  0999 V2000
   16.5864  -11.4997  -17.3497 N   0  0  0  0  0  0  0  0  0  0  0  0
   16.5838  -10.8286  -16.0724 C   0  0  1  0  0  0  0  0  0  0  0  0
   17.1826  -11.6667  -14.9872 C   0  0  0  0  0  0  0  0  0  0  0  0
   16.3423  -12.8060  -14.6195 C   0  0  0  0  0  0  0  0  0  0  0  0
   15.0955  -12.7012  -14.5882 O   0  0  0  0  0  0  0  0  0  0  0  0
   17.3942   -9.5806  -16.2079 C   0  0  0  0  0  0  0  0  0  0  0  0
   18.4577   -9.5529  -16.8471 O   0  0  0  0  0  0  0  0  0  0  0  0
   16.9103  -14.0163  -14.2947 O   0  0  0  0  0  0  0  0  0  0  0  0
   18.7944   -4.6622  -16.1134 N   0  0  0  0  0  0  0  0  0  0  0  0
   17.3996   -4.6706  -15.8972 C   0  0  0  0  0  0  0  0  0  0  0  0
   16.7805   -3.5904  -15.9956 O   0  0  0  0  0  0  0  0  0  0  0  0
   16.7278   -5.9224  -15.5701 C   0  0  0  0  0  0  0  0  0  0  0  0
   17.5802   -7.1342  -15.6667 C   0  0  2  0  0  0  0  0  0  0  0  0
   16.9185   -8.3936  -15.5753 N   0  0  0  0  0  0  0  0  0  0  0  0
   18.7980   -7.0671  -14.8008 C   0  0  0  0  0  0  0  0  0  0  0  0
   18.6593   -7.4216  -13.6091 O   0  0  0  0  0  0  0  0  0  0  0  0
   23.4004   -9.7808  -14.1897 C   0  0  0  0  0  0  0  0  0  0  0  0
   22.4350   -8.7254  -13.7151 C   0  0  0  0  0  0  0  0  0  0  0  0
   22.2335   -7.7009  -14.8209 C   0  0  2  0  0  0  0  0  0  0  0  0
   23.5728   -7.0157  -15.0115 C   0  0  0  0  0  0  0  0  0  0  0  0
   21.2450   -6.6359  -14.4060 C   0  0  2  0  0  0  0  0  0  0  0  0
   20.0672   -6.6400  -15.2353 N   0  0  0  0  0  0  0  0  0  0  0  0
   21.8736   -5.3036  -14.2414 C   0  0  0  0  0  0  0  0  0  0  0  0
   22.7245   -5.0711  -13.3249 O   0  0  0  0  0  0  0  0  0  0  0  0
   21.5697   -4.2328  -15.0766 O   0  0  0  0  0  0  0  0  0  0  0  0
  2  1  1  6
  3  2  1  0
  3  4  1  0
  4  5  2  0
  6  7  2  0
  6  2  1  0
  8  4  1  0
  9 10  1  0
 10 12  1  0
 11 10  2  0
 13 12  1  1
 13 15  1  0
 13 14  1  0
 14  6  1  0
 15 16  2  0
 18 17  1  0
 19 21  1  0
 19 18  1  0
 19 20  1  1
 21 23  1  0
 22 15  1  0
 21 22  1  6
 23 25  1  0
 24 23  2  0
M  END
$$$$
