DNI.pdb
     RDKit          3D

 25 24  0  0  1  0  0  0  0  0999 V2000
   16.5229  -11.3210  -15.0854 N   0  0  0  0  0  0  0  0  0  0  0  0
   17.6202  -11.4065  -16.0184 C   0  0  1  0  0  0  0  0  0  0  0  0
   17.1996  -11.9592  -17.3436 C   0  0  0  0  0  0  0  0  0  0  0  0
   16.3733  -13.1600  -17.2225 C   0  0  0  0  0  0  0  0  0  0  0  0
   16.1088  -13.6474  -16.1005 O   0  0  0  0  0  0  0  0  0  0  0  0
   18.1523  -10.0262  -16.2289 C   0  0  0  0  0  0  0  0  0  0  0  0
   19.0417   -9.7836  -17.0598 O   0  0  0  0  0  0  0  0  0  0  0  0
   15.8751  -13.7806  -18.3448 O   0  0  0  0  0  0  0  0  0  0  0  0
   17.3626   -4.4974  -16.8386 N   0  0  0  0  0  0  0  0  0  0  0  0
   17.2953   -5.2134  -15.6241 C   0  0  0  0  0  0  0  0  0  0  0  0
   17.6043   -4.6187  -14.5703 O   0  0  0  0  0  0  0  0  0  0  0  0
   16.8723   -6.6086  -15.6316 C   0  0  0  0  0  0  0  0  0  0  0  0
   17.9787   -7.5984  -15.6061 C   0  0  2  0  0  0  0  0  0  0  0  0
   17.6128   -8.9663  -15.4409 N   0  0  0  0  0  0  0  0  0  0  0  0
   19.1052   -7.1982  -14.7070 C   0  0  0  0  0  0  0  0  0  0  0  0
   18.9626   -7.4393  -13.4877 O   0  0  0  0  0  0  0  0  0  0  0  0
   24.2238   -7.8334  -16.3370 C   0  0  0  0  0  0  0  0  0  0  0  0
   23.1139   -6.8669  -16.0134 C   0  0  0  0  0  0  0  0  0  0  0  0
   22.6170   -7.1333  -14.6009 C   0  0  2  0  0  0  0  0  0  0  0  0
   22.1634   -8.5802  -14.5782 C   0  0  0  0  0  0  0  0  0  0  0  0
   21.4095   -6.2845  -14.2768 C   0  0  2  0  0  0  0  0  0  0  0  0
   20.2942   -6.5807  -15.1391 N   0  0  0  0  0  0  0  0  0  0  0  0
   21.7349   -4.8424  -14.1697 C   0  0  0  0  0  0  0  0  0  0  0  0
   21.2967   -3.9911  -15.0072 O   0  0  0  0  0  0  0  0  0  0  0  0
   22.5370   -4.3376  -13.1508 O   0  0  0  0  0  0  0  0  0  0  0  0
  2  1  1  1
  3  2  1  0
  3  4  1  0
  4  5  2  0
  6  7  2  0
  6  2  1  0
  8  4  1  0
  9 10  1  0
 10 12  1  0
 11 10  2  0
 13 12  1  1
 13 15  1  0
 13 14  1  0
 14  6  1  0
 15 16  2  0
 18 17  1  0
 19 21  1  0
 19 18  1  0
 19 20  1  6
 21 23  1  0
 22 15  1  0
 21 22  1  6
 23 25  1  0
 24 23  2  0
M  END
$$$$
