DNI.pdb
     RDKit          3D

 25 24  0  0  1  0  0  0  0  0999 V2000
   17.4424  -11.0017  -18.8064 N   0  0  0  0  0  0  0  0  0  0  0  0
   18.2414  -11.0394  -17.6055 C   0  0  1  0  0  0  0  0  0  0  0  0
   19.6030  -11.6114  -17.8447 C   0  0  0  0  0  0  0  0  0  0  0  0
   19.5869  -13.0634  -18.0206 C   0  0  0  0  0  0  0  0  0  0  0  0
   18.5264  -13.7148  -17.8888 O   0  0  0  0  0  0  0  0  0  0  0  0
   18.3972   -9.6371  -17.1137 C   0  0  0  0  0  0  0  0  0  0  0  0
   18.8649   -8.7372  -17.8290 O   0  0  0  0  0  0  0  0  0  0  0  0
   20.7431  -13.7420  -18.3297 O   0  0  0  0  0  0  0  0  0  0  0  0
   15.4816   -7.5095  -16.0976 N   0  0  0  0  0  0  0  0  0  0  0  0
   15.7099   -7.4431  -14.7062 C   0  0  0  0  0  0  0  0  0  0  0  0
   14.7460   -7.1649  -13.9625 O   0  0  0  0  0  0  0  0  0  0  0  0
   17.0459   -7.6982  -14.1814 C   0  0  0  0  0  0  0  0  0  0  0  0
   18.0665   -8.0370  -15.2051 C   0  0  2  0  0  0  0  0  0  0  0  0
   17.9934   -9.3404  -15.7779 N   0  0  0  0  0  0  0  0  0  0  0  0
   19.4574   -7.6746  -14.7911 C   0  0  0  0  0  0  0  0  0  0  0  0
   19.9701   -8.3647  -13.8823 O   0  0  0  0  0  0  0  0  0  0  0  0
   24.8524   -7.4567  -16.2635 C   0  0  0  0  0  0  0  0  0  0  0  0
   23.9600   -6.3293  -15.8122 C   0  0  0  0  0  0  0  0  0  0  0  0
   22.5192   -6.6613  -16.1682 C   0  0  2  0  0  0  0  0  0  0  0  0
   22.1408   -5.7344  -17.3072 C   0  0  0  0  0  0  0  0  0  0  0  0
   21.5874   -6.3551  -15.0186 C   0  0  2  0  0  0  0  0  0  0  0  0
   20.2123   -6.6265  -15.3511 N   0  0  0  0  0  0  0  0  0  0  0  0
   21.8226   -5.0143  -14.4320 C   0  0  0  0  0  0  0  0  0  0  0  0
   21.1211   -4.0052  -14.7602 O   0  0  0  0  0  0  0  0  0  0  0  0
   22.8219   -4.7818  -13.4919 O   0  0  0  0  0  0  0  0  0  0  0  0
  2  1  1  6
  3  2  1  0
  3  4  1  0
  4  5  2  0
  6  7  2  0
  6  2  1  0
  8  4  1  0
  9 10  1  0
 10 12  1  0
 11 10  2  0
 13 12  1  1
 13 15  1  0
 13 14  1  0
 14  6  1  0
 15 16  2  0
 18 17  1  0
 19 21  1  0
 19 18  1  0
 19 20  1  6
 21 23  1  0
 22 15  1  0
 21 22  1  6
 23 25  1  0
 24 23  2  0
M  END
$$$$
