DNI.pdb
     RDKit          3D

 25 24  0  0  1  0  0  0  0  0999 V2000
   16.3605  -11.0771  -17.5035 N   0  0  0  0  0  0  0  0  0  0  0  0
   17.3772  -11.4509  -16.5504 C   0  0  1  0  0  0  0  0  0  0  0  0
   17.8760  -12.8448  -16.7666 C   0  0  0  0  0  0  0  0  0  0  0  0
   17.0194  -13.8572  -16.1497 C   0  0  0  0  0  0  0  0  0  0  0  0
   15.9978  -13.5286  -15.5055 O   0  0  0  0  0  0  0  0  0  0  0  0
   18.5250  -10.5077  -16.7102 C   0  0  0  0  0  0  0  0  0  0  0  0
   19.6050  -10.6804  -16.1235 O   0  0  0  0  0  0  0  0  0  0  0  0
   17.3259  -15.1937  -16.2623 O   0  0  0  0  0  0  0  0  0  0  0  0
   19.9913   -5.1881  -19.3873 N   0  0  0  0  0  0  0  0  0  0  0  0
   20.2923   -6.5441  -19.1366 C   0  0  0  0  0  0  0  0  0  0  0  0
   21.4933   -6.8835  -19.0909 O   0  0  0  0  0  0  0  0  0  0  0  0
   19.2086   -7.4992  -18.9398 C   0  0  0  0  0  0  0  0  0  0  0  0
   19.3569   -8.3784  -17.7527 C   0  0  2  0  0  0  0  0  0  0  0  0
   18.3576   -9.3776  -17.5648 N   0  0  0  0  0  0  0  0  0  0  0  0
   19.6505   -7.6238  -16.4949 C   0  0  0  0  0  0  0  0  0  0  0  0
   18.6662   -7.1696  -15.8705 O   0  0  0  0  0  0  0  0  0  0  0  0
   23.1162   -9.7315  -13.4396 C   0  0  0  0  0  0  0  0  0  0  0  0
   21.8742   -8.9558  -13.7956 C   0  0  0  0  0  0  0  0  0  0  0  0
   22.2206   -7.4782  -13.8939 C   0  0  2  0  0  0  0  0  0  0  0  0
   22.1282   -6.9276  -12.4840 C   0  0  0  0  0  0  0  0  0  0  0  0
   21.2052   -6.7330  -14.7288 C   0  0  2  0  0  0  0  0  0  0  0  0
   20.9407   -7.3988  -15.9786 N   0  0  0  0  0  0  0  0  0  0  0  0
   21.5177   -5.2898  -14.8578 C   0  0  0  0  0  0  0  0  0  0  0  0
   21.2622   -4.4615  -13.9268 O   0  0  0  0  0  0  0  0  0  0  0  0
   22.1058   -4.7585  -16.0016 O   0  0  0  0  0  0  0  0  0  0  0  0
  2  1  1  6
  3  2  1  0
  3  4  1  0
  4  5  2  0
  6  7  2  0
  6  2  1  0
  8  4  1  0
  9 10  1  0
 10 12  1  0
 11 10  2  0
 13 12  1  6
 13 15  1  0
 13 14  1  0
 14  6  1  0
 15 16  2  0
 18 17  1  0
 19 21  1  0
 19 18  1  0
 19 20  1  1
 21 23  1  0
 22 15  1  0
 21 22  1  6
 23 25  1  0
 24 23  2  0
M  END
$$$$
