DNI.pdb
     RDKit          3D

 25 24  0  0  1  0  0  0  0  0999 V2000
   30.0046  -22.2747  -18.1899 N   0  0  0  0  0  0  0  0  0  0  0  0
   28.6303  -22.6732  -18.0046 C   0  0  1  0  0  0  0  0  0  0  0  0
   28.4944  -23.8330  -17.0692 C   0  0  0  0  0  0  0  0  0  0  0  0
   29.2406  -25.0107  -17.5115 C   0  0  0  0  0  0  0  0  0  0  0  0
   28.9875  -25.5569  -18.6087 O   0  0  0  0  0  0  0  0  0  0  0  0
   27.8891  -21.5110  -17.4280 C   0  0  0  0  0  0  0  0  0  0  0  0
   27.9441  -20.3791  -17.9340 O   0  0  0  0  0  0  0  0  0  0  0  0
   30.2340  -25.5442  -16.7232 O   0  0  0  0  0  0  0  0  0  0  0  0
   24.9618  -19.3533  -19.0824 N   0  0  0  0  0  0  0  0  0  0  0  0
   24.9491  -19.4787  -17.6766 C   0  0  0  0  0  0  0  0  0  0  0  0
   24.9389  -18.4350  -16.9909 O   0  0  0  0  0  0  0  0  0  0  0  0
   24.9474  -20.8047  -17.0706 C   0  0  0  0  0  0  0  0  0  0  0  0
   25.9174  -20.9874  -15.9615 C   0  0  2  0  0  0  0  0  0  0  0  0
   27.1006  -21.7250  -16.2584 N   0  0  0  0  0  0  0  0  0  0  0  0
   25.2752  -21.4315  -14.6857 C   0  0  0  0  0  0  0  0  0  0  0  0
   24.7957  -22.5869  -14.6715 O   0  0  0  0  0  0  0  0  0  0  0  0
   25.7164  -20.8112   -8.6397 C   0  0  0  0  0  0  0  0  0  0  0  0
   24.9100  -21.3237   -9.8051 C   0  0  0  0  0  0  0  0  0  0  0  0
   25.4833  -20.7579  -11.0951 C   0  0  2  0  0  0  0  0  0  0  0  0
   25.4480  -19.2491  -10.9474 C   0  0  0  0  0  0  0  0  0  0  0  0
   24.6134  -21.1084  -12.2800 C   0  0  2  0  0  0  0  0  0  0  0  0
   25.1801  -20.6462  -13.5212 N   0  0  0  0  0  0  0  0  0  0  0  0
   23.1931  -20.7350  -12.0785 C   0  0  0  0  0  0  0  0  0  0  0  0
   22.5054  -21.2043  -11.1168 O   0  0  0  0  0  0  0  0  0  0  0  0
   22.5313  -19.8532  -12.9275 O   0  0  0  0  0  0  0  0  0  0  0  0
  2  1  1  1
  3  2  1  0
  3  4  1  0
  4  5  2  0
  6  7  2  0
  6  2  1  0
  8  4  1  0
  9 10  1  0
 10 12  1  0
 11 10  2  0
 13 12  1  6
 13 15  1  0
 13 14  1  0
 14  6  1  0
 15 16  2  0
 18 17  1  0
 19 21  1  0
 19 18  1  0
 19 20  1  1
 21 23  1  0
 22 15  1  0
 21 22  1  6
 23 25  1  0
 24 23  2  0
M  END
$$$$
