DNI.pdb
     RDKit          3D

 25 24  0  0  1  0  0  0  0  0999 V2000
   15.8356  -10.5682  -10.6560 N   0  0  0  0  0  0  0  0  0  0  0  0
   15.4537  -10.4022  -12.0375 C   0  0  1  0  0  0  0  0  0  0  0  0
   14.1872  -11.1262  -12.3695 C   0  0  0  0  0  0  0  0  0  0  0  0
   14.2897  -12.5717  -12.1708 C   0  0  0  0  0  0  0  0  0  0  0  0
   15.3706  -13.1719  -12.3656 O   0  0  0  0  0  0  0  0  0  0  0  0
   15.2431   -8.9435  -12.2834 C   0  0  0  0  0  0  0  0  0  0  0  0
   14.6833   -8.5233  -13.3082 O   0  0  0  0  0  0  0  0  0  0  0  0
   13.1938  -13.3007  -11.7701 O   0  0  0  0  0  0  0  0  0  0  0  0
   15.9089   -7.3103   -8.1823 N   0  0  0  0  0  0  0  0  0  0  0  0
   16.0581   -6.1687   -8.9990 C   0  0  0  0  0  0  0  0  0  0  0  0
   17.0005   -5.3868   -8.7541 O   0  0  0  0  0  0  0  0  0  0  0  0
   15.1216   -5.9362  -10.0918 C   0  0  0  0  0  0  0  0  0  0  0  0
   15.4660   -6.6150  -11.3665 C   0  0  2  0  0  0  0  0  0  0  0  0
   15.7077   -8.0184  -11.3017 N   0  0  0  0  0  0  0  0  0  0  0  0
   16.5136   -5.8929  -12.1530 C   0  0  0  0  0  0  0  0  0  0  0  0
   17.7029   -6.0955  -11.8218 O   0  0  0  0  0  0  0  0  0  0  0  0
   16.6820   -5.6481  -17.4579 C   0  0  0  0  0  0  0  0  0  0  0  0
   17.0045   -5.7003  -15.9867 C   0  0  0  0  0  0  0  0  0  0  0  0
   17.0185   -4.2855  -15.4291 C   0  0  2  0  0  0  0  0  0  0  0  0
   18.1998   -3.5880  -16.0755 C   0  0  0  0  0  0  0  0  0  0  0  0
   17.2658   -4.2878  -13.9383 C   0  0  2  0  0  0  0  0  0  0  0  0
   16.2501   -5.0177  -13.2237 N   0  0  0  0  0  0  0  0  0  0  0  0
   17.5397   -2.9338  -13.4009 C   0  0  0  0  0  0  0  0  0  0  0  0
   16.6032   -2.1530  -13.0386 O   0  0  0  0  0  0  0  0  0  0  0  0
   18.8331   -2.4392  -13.2629 O   0  0  0  0  0  0  0  0  0  0  0  0
  2  1  1  1
  3  2  1  0
  3  4  1  0
  4  5  2  0
  6  7  2  0
  6  2  1  0
  8  4  1  0
  9 10  1  0
 10 12  1  0
 11 10  2  0
 13 12  1  1
 13 15  1  0
 13 14  1  0
 14  6  1  0
 15 16  2  0
 18 17  1  0
 19 21  1  0
 19 18  1  0
 19 20  1  6
 21 23  1  0
 22 15  1  0
 21 22  1  1
 23 25  1  0
 24 23  2  0
M  END
$$$$
