DNI.pdb
     RDKit          3D

 25 24  0  0  1  0  0  0  0  0999 V2000
   18.0635  -15.3426  -16.6987 N   0  0  0  0  0  0  0  0  0  0  0  0
   17.0148  -14.4140  -16.3523 C   0  0  1  0  0  0  0  0  0  0  0  0
   16.1395  -14.9272  -15.2528 C   0  0  0  0  0  0  0  0  0  0  0  0
   15.3051  -16.0540  -15.6693 C   0  0  0  0  0  0  0  0  0  0  0  0
   15.1639  -16.3357  -16.8806 O   0  0  0  0  0  0  0  0  0  0  0  0
   17.6579  -13.1461  -15.8923 C   0  0  0  0  0  0  0  0  0  0  0  0
   17.3894  -12.6329  -14.7947 O   0  0  0  0  0  0  0  0  0  0  0  0
   14.6537  -16.8237  -14.7333 O   0  0  0  0  0  0  0  0  0  0  0  0
   21.7368  -10.6414  -18.9947 N   0  0  0  0  0  0  0  0  0  0  0  0
   21.0039  -11.5690  -18.2234 C   0  0  0  0  0  0  0  0  0  0  0  0
   20.5797  -12.6000  -18.7862 O   0  0  0  0  0  0  0  0  0  0  0  0
   20.7654  -11.3030  -16.8100 C   0  0  0  0  0  0  0  0  0  0  0  0
   19.3403  -11.3495  -16.3960 C   0  0  2  0  0  0  0  0  0  0  0  0
   18.6054  -12.5174  -16.7539 N   0  0  0  0  0  0  0  0  0  0  0  0
   18.5956  -10.0905  -16.7090 C   0  0  0  0  0  0  0  0  0  0  0  0
   17.9880  -10.0551  -17.8020 O   0  0  0  0  0  0  0  0  0  0  0  0
   14.3379   -6.5155  -15.1392 C   0  0  0  0  0  0  0  0  0  0  0  0
   15.7006   -6.4539  -15.7798 C   0  0  0  0  0  0  0  0  0  0  0  0
   16.4583   -7.7340  -15.4633 C   0  0  2  0  0  0  0  0  0  0  0  0
   16.7424   -7.7000  -13.9741 C   0  0  0  0  0  0  0  0  0  0  0  0
   17.7940   -7.7676  -16.1693 C   0  0  2  0  0  0  0  0  0  0  0  0
   18.5352   -8.9649  -15.8656 N   0  0  0  0  0  0  0  0  0  0  0  0
   18.5630   -6.5118  -16.0005 C   0  0  0  0  0  0  0  0  0  0  0  0
   18.2371   -5.4389  -16.6011 O   0  0  0  0  0  0  0  0  0  0  0  0
   19.6833   -6.4339  -15.1788 O   0  0  0  0  0  0  0  0  0  0  0  0
  2  1  1  1
  3  2  1  0
  3  4  1  0
  4  5  2  0
  6  7  2  0
  6  2  1  0
  8  4  1  0
  9 10  1  0
 10 12  1  0
 11 10  2  0
 13 12  1  6
 13 15  1  0
 13 14  1  0
 14  6  1  0
 15 16  2  0
 18 17  1  0
 19 21  1  0
 19 18  1  0
 19 20  1  1
 21 23  1  0
 22 15  1  0
 21 22  1  1
 23 25  1  0
 24 23  2  0
M  END
$$$$
