NCR.pdb
     RDKit          3D

 26 25  0  0  1  0  0  0  0  0999 V2000
    7.6975  -17.0132   19.2264 N   0  0  0  0  0  0  0  0  0  0  0  0
    7.9556  -15.6263   19.2346 C   0  0  0  0  0  0  0  0  0  0  0  0
    8.0185  -15.0710   18.0896 O   0  0  0  0  0  0  0  0  0  0  0  0
    8.1542  -14.7653   20.4008 C   0  0  0  0  0  0  0  0  0  0  0  0
    8.0567  -15.4875   21.7167 C   0  0  2  0  0  0  0  0  0  0  0  0
    6.6665  -15.8946   21.9353 N   0  0  0  0  0  0  0  0  0  0  0  0
    8.4673  -14.5448   22.7994 C   0  0  0  0  0  0  0  0  0  0  0  0
    9.5932  -14.0219   22.9175 O   0  0  0  0  0  0  0  0  0  0  0  0
    7.5309  -14.1614   23.8325 N   0  0  0  0  0  0  0  0  0  0  0  0
    7.9416  -13.6921   25.1254 C   0  0  1  0  0  0  0  0  0  0  0  0
    6.9986  -12.7025   25.7406 C   0  0  0  0  0  0  0  0  0  0  0  0
    5.6323  -13.4685   26.6280 S   0  0  0  0  0  0  0  0  0  0  0  0
    8.2541  -14.8255   26.0546 C   0  0  0  0  0  0  0  0  0  0  0  0
    7.9270  -16.0086   25.7442 O   0  0  0  0  0  0  0  0  0  0  0  0
   11.3752  -19.5140   25.8412 N   0  0  0  0  0  0  0  0  0  0  0  0
   12.1530  -19.2314   24.6764 C   0  0  0  0  0  0  0  0  0  0  0  0
   12.2750  -20.1046   23.7427 N   0  0  0  0  0  0  0  0  0  0  0  0
   12.7978  -17.9851   24.5405 N   0  0  0  0  0  0  0  0  0  0  0  0
   12.8043  -16.9815   25.6440 C   0  0  0  0  0  0  0  0  0  0  0  0
   11.4727  -16.3425   25.6797 C   0  0  0  0  0  0  0  0  0  0  0  0
   11.0862  -15.3213   26.6196 C   0  0  0  0  0  0  0  0  0  0  0  0
   10.0485  -15.5115   27.6520 C   0  0  2  0  0  0  0  0  0  0  0  0
    8.9109  -14.5977   27.2765 N   0  0  0  0  0  0  0  0  0  0  0  0
   10.3710  -15.2027   29.0551 C   0  0  0  0  0  0  0  0  0  0  0  0
   10.7791  -16.1672   29.8247 O   0  0  0  0  0  0  0  0  0  0  0  0
   10.3108  -13.9946   29.7010 O   0  0  0  0  0  0  0  0  0  0  0  0
  2  1  1  0
  3  2  2  0
  4  2  1  0
  5  4  1  0
  5  6  1  1
  7  9  1  0
  7  5  1  0
  8  7  2  0
 10 13  1  0
 10  9  1  0
 10 11  1  1
 12 11  1  0
 13 14  2  0
 16 17  2  0
 16 15  1  0
 18 16  1  0
 19 18  1  0
 20 19  1  0
 21 20  1  0
 22 21  1  6
 23 22  1  0
 23 13  1  0
 24 22  1  0
 24 26  1  0
 25 24  2  0
M  END
$$$$
