NCR.pdb
     RDKit          3D

 26 25  0  0  1  0  0  0  0  0999 V2000
    7.6524  -12.4415   15.4957 N   0  0  0  0  0  0  0  0  0  0  0  0
    8.0644  -13.4730   16.3655 C   0  0  0  0  0  0  0  0  0  0  0  0
    8.0142  -14.6518   15.8847 O   0  0  0  0  0  0  0  0  0  0  0  0
    8.5399  -13.3384   17.7426 C   0  0  0  0  0  0  0  0  0  0  0  0
    8.6802  -14.6471   18.4709 C   0  0  2  0  0  0  0  0  0  0  0  0
    7.3998  -15.3575   18.4255 N   0  0  0  0  0  0  0  0  0  0  0  0
    9.0290  -14.3562   19.8932 C   0  0  0  0  0  0  0  0  0  0  0  0
   10.0716  -13.7947   20.2841 O   0  0  0  0  0  0  0  0  0  0  0  0
    8.1280  -14.7296   20.9608 N   0  0  0  0  0  0  0  0  0  0  0  0
    8.5069  -14.7148   22.3453 C   0  0  1  0  0  0  0  0  0  0  0  0
    7.3547  -14.5449   23.2891 C   0  0  0  0  0  0  0  0  0  0  0  0
    7.7882  -14.8393   25.0114 S   0  0  0  0  0  0  0  0  0  0  0  0
    9.3576  -15.8959   22.7013 C   0  0  0  0  0  0  0  0  0  0  0  0
    8.9642  -17.0671   22.4246 O   0  0  0  0  0  0  0  0  0  0  0  0
   14.6018  -14.9623   17.2010 N   0  0  0  0  0  0  0  0  0  0  0  0
   14.7599  -14.8870   18.6191 C   0  0  0  0  0  0  0  0  0  0  0  0
   15.7019  -14.1845   19.1367 N   0  0  0  0  0  0  0  0  0  0  0  0
   13.8789  -15.5875   19.4681 N   0  0  0  0  0  0  0  0  0  0  0  0
   14.0253  -15.5508   20.9520 C   0  0  0  0  0  0  0  0  0  0  0  0
   12.9754  -16.4149   21.5297 C   0  0  0  0  0  0  0  0  0  0  0  0
   12.7735  -16.6150   22.9422 C   0  0  0  0  0  0  0  0  0  0  0  0
   11.4651  -16.9415   23.5424 C   0  0  2  0  0  0  0  0  0  0  0  0
   10.5971  -15.7263   23.3425 N   0  0  0  0  0  0  0  0  0  0  0  0
   11.3964  -17.2576   24.9789 C   0  0  0  0  0  0  0  0  0  0  0  0
   11.0146  -16.3266   25.8014 O   0  0  0  0  0  0  0  0  0  0  0  0
   11.6797  -18.4421   25.6089 O   0  0  0  0  0  0  0  0  0  0  0  0
  2  1  1  0
  3  2  2  0
  4  2  1  0
  5  4  1  0
  5  6  1  1
  7  9  1  0
  7  5  1  0
  8  7  2  0
 10 13  1  0
 10  9  1  0
 10 11  1  1
 12 11  1  0
 13 14  2  0
 16 17  2  0
 16 15  1  0
 18 16  1  0
 19 18  1  0
 20 19  1  0
 21 20  1  0
 22 21  1  1
 23 22  1  0
 23 13  1  0
 24 22  1  0
 24 26  1  0
 25 24  2  0
M  END
$$$$
