NCR.pdb
     RDKit          3D

 26 25  0  0  1  0  0  0  0  0999 V2000
    7.4739  -18.2956   17.9835 N   0  0  0  0  0  0  0  0  0  0  0  0
    6.8517  -17.8456   19.1669 C   0  0  0  0  0  0  0  0  0  0  0  0
    5.5777  -17.8603   19.1593 O   0  0  0  0  0  0  0  0  0  0  0  0
    7.5019  -17.3715   20.3889 C   0  0  0  0  0  0  0  0  0  0  0  0
    7.6906  -15.8801   20.4411 C   0  0  2  0  0  0  0  0  0  0  0  0
    8.6289  -15.4813   19.3891 N   0  0  0  0  0  0  0  0  0  0  0  0
    8.2682  -15.5277   21.7721 C   0  0  0  0  0  0  0  0  0  0  0  0
    9.4763  -15.5831   22.0762 O   0  0  0  0  0  0  0  0  0  0  0  0
    7.4126  -15.0765   22.8470 N   0  0  0  0  0  0  0  0  0  0  0  0
    7.8642  -14.9440   24.2031 C   0  0  1  0  0  0  0  0  0  0  0  0
    6.9091  -14.2065   25.0925 C   0  0  0  0  0  0  0  0  0  0  0  0
    6.8223  -12.4420   24.7461 S   0  0  0  0  0  0  0  0  0  0  0  0
    8.2712  -16.2636   24.7847 C   0  0  0  0  0  0  0  0  0  0  0  0
    7.6340  -17.3145   24.4802 O   0  0  0  0  0  0  0  0  0  0  0  0
   12.9626  -21.4731   21.1973 N   0  0  0  0  0  0  0  0  0  0  0  0
   11.6829  -21.7501   21.7693 C   0  0  0  0  0  0  0  0  0  0  0  0
   10.9237  -22.6561   21.2676 N   0  0  0  0  0  0  0  0  0  0  0  0
   11.2390  -21.0273   22.8953 N   0  0  0  0  0  0  0  0  0  0  0  0
   12.0259  -19.8921   23.4583 C   0  0  0  0  0  0  0  0  0  0  0  0
   11.3298  -19.4200   24.6729 C   0  0  0  0  0  0  0  0  0  0  0  0
   10.6264  -18.1665   24.7713 C   0  0  0  0  0  0  0  0  0  0  0  0
    9.9043  -17.7276   25.9816 C   0  0  2  0  0  0  0  0  0  0  0  0
    9.3587  -16.3580   25.6707 N   0  0  0  0  0  0  0  0  0  0  0  0
   10.6455  -17.5917   27.2466 C   0  0  0  0  0  0  0  0  0  0  0  0
   11.1420  -16.4304   27.5531 O   0  0  0  0  0  0  0  0  0  0  0  0
   10.8965  -18.5466   28.1980 O   0  0  0  0  0  0  0  0  0  0  0  0
  2  1  1  0
  3  2  2  0
  4  2  1  0
  5  4  1  0
  5  6  1  6
  7  9  1  0
  7  5  1  0
  8  7  2  0
 10 13  1  0
 10  9  1  0
 10 11  1  1
 12 11  1  0
 13 14  2  0
 16 17  2  0
 16 15  1  0
 18 16  1  0
 19 18  1  0
 20 19  1  0
 21 20  1  0
 22 21  1  6
 23 22  1  0
 23 13  1  0
 24 22  1  0
 24 26  1  0
 25 24  2  0
M  END
$$$$
