NCR.pdb
     RDKit          3D

 26 25  0  0  1  0  0  0  0  0999 V2000
    7.4268  -14.9562   19.5746 N   0  0  0  0  0  0  0  0  0  0  0  0
    8.2252  -16.1139   19.6853 C   0  0  0  0  0  0  0  0  0  0  0  0
    9.0266  -16.3249   18.7174 O   0  0  0  0  0  0  0  0  0  0  0  0
    8.2355  -17.0863   20.7784 C   0  0  0  0  0  0  0  0  0  0  0  0
    7.3184  -16.7342   21.9175 C   0  0  2  0  0  0  0  0  0  0  0  0
    6.0553  -16.2289   21.3739 N   0  0  0  0  0  0  0  0  0  0  0  0
    7.9679  -15.6605   22.7268 C   0  0  0  0  0  0  0  0  0  0  0  0
    9.1946  -15.5330   22.9112 O   0  0  0  0  0  0  0  0  0  0  0  0
    7.1678  -14.6491   23.3808 N   0  0  0  0  0  0  0  0  0  0  0  0
    7.6834  -13.7851   24.4046 C   0  0  1  0  0  0  0  0  0  0  0  0
    6.8278  -12.5841   24.6743 C   0  0  0  0  0  0  0  0  0  0  0  0
    7.3709  -11.6199   26.0942 S   0  0  0  0  0  0  0  0  0  0  0  0
    8.0063  -14.5399   25.6582 C   0  0  0  0  0  0  0  0  0  0  0  0
    7.1098  -15.2218   26.2365 O   0  0  0  0  0  0  0  0  0  0  0  0
   10.7339  -21.4082   29.3541 N   0  0  0  0  0  0  0  0  0  0  0  0
   11.3559  -20.3960   30.1480 C   0  0  0  0  0  0  0  0  0  0  0  0
   11.8454  -20.6771   31.3014 N   0  0  0  0  0  0  0  0  0  0  0  0
   11.4379  -19.0721   29.6706 N   0  0  0  0  0  0  0  0  0  0  0  0
   10.6185  -18.6031   28.5158 C   0  0  0  0  0  0  0  0  0  0  0  0
   10.9732  -17.1928   28.2551 C   0  0  0  0  0  0  0  0  0  0  0  0
   10.3629  -16.3760   27.2372 C   0  0  0  0  0  0  0  0  0  0  0  0
    9.5265  -15.1953   27.5295 C   0  0  2  0  0  0  0  0  0  0  0  0
    9.2991  -14.5055   26.2094 N   0  0  0  0  0  0  0  0  0  0  0  0
   10.0420  -14.1626   28.4437 C   0  0  0  0  0  0  0  0  0  0  0  0
   10.6575  -13.1364   27.9366 O   0  0  0  0  0  0  0  0  0  0  0  0
    9.9607  -14.1130   29.8115 O   0  0  0  0  0  0  0  0  0  0  0  0
  2  1  1  0
  3  2  2  0
  4  2  1  0
  5  4  1  0
  5  6  1  6
  7  9  1  0
  7  5  1  0
  8  7  2  0
 10 13  1  0
 10  9  1  0
 10 11  1  1
 12 11  1  0
 13 14  2  0
 16 17  2  0
 16 15  1  0
 18 16  1  0
 19 18  1  0
 20 19  1  0
 21 20  1  0
 22 21  1  6
 23 22  1  0
 23 13  1  0
 24 22  1  0
 24 26  1  0
 25 24  2  0
M  END
$$$$
