NCR.pdb
     RDKit          3D

 26 25  0  0  1  0  0  0  0  0999 V2000
    6.5665  -13.0713   12.1125 N   0  0  0  0  0  0  0  0  0  0  0  0
    7.0130  -13.9798   13.0950 C   0  0  0  0  0  0  0  0  0  0  0  0
    6.7469  -15.2059   12.8730 O   0  0  0  0  0  0  0  0  0  0  0  0
    7.7420  -13.6721   14.3256 C   0  0  0  0  0  0  0  0  0  0  0  0
    8.3274  -14.8788   15.0066 C   0  0  2  0  0  0  0  0  0  0  0  0
    7.2571  -15.8440   15.2694 N   0  0  0  0  0  0  0  0  0  0  0  0
    8.9222  -14.4413   16.3044 C   0  0  0  0  0  0  0  0  0  0  0  0
    9.9590  -13.7608   16.4343 O   0  0  0  0  0  0  0  0  0  0  0  0
    8.2957  -14.8013   17.5570 N   0  0  0  0  0  0  0  0  0  0  0  0
    8.8827  -14.5160   18.8355 C   0  0  1  0  0  0  0  0  0  0  0  0
    8.0088  -14.8749   19.9994 C   0  0  0  0  0  0  0  0  0  0  0  0
    6.3334  -14.2301   19.8648 S   0  0  0  0  0  0  0  0  0  0  0  0
   10.2559  -15.1027   18.9599 C   0  0  0  0  0  0  0  0  0  0  0  0
   10.6026  -16.0681   18.2176 O   0  0  0  0  0  0  0  0  0  0  0  0
   17.7219  -11.8097   16.7490 N   0  0  0  0  0  0  0  0  0  0  0  0
   17.9939  -13.0925   17.3165 C   0  0  0  0  0  0  0  0  0  0  0  0
   19.1480  -13.6383   17.1784 N   0  0  0  0  0  0  0  0  0  0  0  0
   16.9924  -13.7750   18.0367 N   0  0  0  0  0  0  0  0  0  0  0  0
   15.6023  -13.2443   18.1412 C   0  0  0  0  0  0  0  0  0  0  0  0
   14.7961  -14.2359   18.8824 C   0  0  0  0  0  0  0  0  0  0  0  0
   13.3883  -14.0979   19.1558 C   0  0  0  0  0  0  0  0  0  0  0  0
   12.5878  -15.1211   19.8567 C   0  0  2  0  0  0  0  0  0  0  0  0
   11.1761  -14.5959   19.8941 N   0  0  0  0  0  0  0  0  0  0  0  0
   12.9291  -15.4673   21.2466 C   0  0  0  0  0  0  0  0  0  0  0  0
   14.0826  -16.0170   21.4837 O   0  0  0  0  0  0  0  0  0  0  0  0
   12.1833  -15.2823   22.3822 O   0  0  0  0  0  0  0  0  0  0  0  0
  2  1  1  0
  3  2  2  0
  4  2  1  0
  5  4  1  0
  5  6  1  1
  7  9  1  0
  7  5  1  0
  8  7  2  0
 10 13  1  0
 10  9  1  0
 10 11  1  1
 12 11  1  0
 13 14  2  0
 16 17  2  0
 16 15  1  0
 18 16  1  0
 19 18  1  0
 20 19  1  0
 21 20  1  0
 22 21  1  1
 23 22  1  0
 23 13  1  0
 24 22  1  0
 24 26  1  0
 25 24  2  0
M  END
$$$$
