NCR.pdb
     RDKit          3D

 26 25  0  0  1  0  0  0  0  0999 V2000
    6.1579  -13.9009   17.9736 N   0  0  0  0  0  0  0  0  0  0  0  0
    7.0780  -14.7771   18.5865 C   0  0  0  0  0  0  0  0  0  0  0  0
    7.3053  -15.8632   17.9604 O   0  0  0  0  0  0  0  0  0  0  0  0
    7.7936  -14.5763   19.8468 C   0  0  0  0  0  0  0  0  0  0  0  0
    7.3978  -13.3245   20.5810 C   0  0  2  0  0  0  0  0  0  0  0  0
    7.8422  -12.1598   19.8115 N   0  0  0  0  0  0  0  0  0  0  0  0
    8.0814  -13.3246   21.9085 C   0  0  0  0  0  0  0  0  0  0  0  0
    9.2900  -13.0858   22.1019 O   0  0  0  0  0  0  0  0  0  0  0  0
    7.3406  -13.6181   23.1152 N   0  0  0  0  0  0  0  0  0  0  0  0
    7.9605  -13.7340   24.4047 C   0  0  1  0  0  0  0  0  0  0  0  0
    7.1473  -13.1568   25.5240 C   0  0  0  0  0  0  0  0  0  0  0  0
    5.4719  -13.8107   25.6054 S   0  0  0  0  0  0  0  0  0  0  0  0
    8.3929  -15.1402   24.6892 C   0  0  0  0  0  0  0  0  0  0  0  0
    7.6795  -16.1130   24.3048 O   0  0  0  0  0  0  0  0  0  0  0  0
   13.6603  -21.6455   24.7543 N   0  0  0  0  0  0  0  0  0  0  0  0
   12.4107  -21.5450   24.0688 C   0  0  0  0  0  0  0  0  0  0  0  0
   11.8394  -22.5916   23.5921 N   0  0  0  0  0  0  0  0  0  0  0  0
   11.7902  -20.2894   23.9077 N   0  0  0  0  0  0  0  0  0  0  0  0
   12.5707  -19.0188   23.9444 C   0  0  0  0  0  0  0  0  0  0  0  0
   12.0778  -18.2202   25.0855 C   0  0  0  0  0  0  0  0  0  0  0  0
   11.2839  -17.0247   24.9582 C   0  0  0  0  0  0  0  0  0  0  0  0
    9.9737  -16.8404   25.6126 C   0  0  2  0  0  0  0  0  0  0  0  0
    9.5881  -15.4024   25.3813 N   0  0  0  0  0  0  0  0  0  0  0  0
    9.8619  -17.0622   27.0640 C   0  0  0  0  0  0  0  0  0  0  0  0
    9.8557  -18.2843   27.5062 O   0  0  0  0  0  0  0  0  0  0  0  0
    9.7669  -16.1320   28.0669 O   0  0  0  0  0  0  0  0  0  0  0  0
  2  1  1  0
  3  2  2  0
  4  2  1  0
  5  4  1  0
  5  6  1  6
  7  9  1  0
  7  5  1  0
  8  7  2  0
 10 13  1  0
 10  9  1  0
 10 11  1  1
 12 11  1  0
 13 14  2  0
 16 17  2  0
 16 15  1  0
 18 16  1  0
 19 18  1  0
 20 19  1  0
 21 20  1  0
 22 21  1  1
 23 22  1  0
 23 13  1  0
 24 22  1  0
 24 26  1  0
 25 24  2  0
M  END
$$$$
