NCR.pdb
     RDKit          3D

 26 25  0  0  1  0  0  0  0  0999 V2000
    7.5849  -18.0879   14.7427 N   0  0  0  0  0  0  0  0  0  0  0  0
    7.7609  -16.6992   14.9172 C   0  0  0  0  0  0  0  0  0  0  0  0
    7.3524  -15.9674   13.9576 O   0  0  0  0  0  0  0  0  0  0  0  0
    8.3521  -16.0150   16.0674 C   0  0  0  0  0  0  0  0  0  0  0  0
    8.8302  -16.9429   17.1505 C   0  0  2  0  0  0  0  0  0  0  0  0
    7.6888  -17.7041   17.6642 N   0  0  0  0  0  0  0  0  0  0  0  0
    9.4052  -16.1175   18.2539 C   0  0  0  0  0  0  0  0  0  0  0  0
   10.3972  -15.3680   18.1578 O   0  0  0  0  0  0  0  0  0  0  0  0
    8.8124  -16.1402   19.5726 N   0  0  0  0  0  0  0  0  0  0  0  0
    9.3795  -15.4513   20.6971 C   0  0  1  0  0  0  0  0  0  0  0  0
    8.4993  -15.4406   21.9104 C   0  0  0  0  0  0  0  0  0  0  0  0
    7.1266  -16.6012   21.8118 S   0  0  0  0  0  0  0  0  0  0  0  0
   10.7618  -15.9389   21.0080 C   0  0  0  0  0  0  0  0  0  0  0  0
   11.0787  -17.1414   20.7699 O   0  0  0  0  0  0  0  0  0  0  0  0
   17.8527  -12.1636   17.8169 N   0  0  0  0  0  0  0  0  0  0  0  0
   18.0074  -13.5746   17.9802 C   0  0  0  0  0  0  0  0  0  0  0  0
   18.9767  -14.1971   17.4128 N   0  0  0  0  0  0  0  0  0  0  0  0
   17.0923  -14.3008   18.7693 N   0  0  0  0  0  0  0  0  0  0  0  0
   15.9054  -13.6481   19.3940 C   0  0  0  0  0  0  0  0  0  0  0  0
   15.1558  -14.6867   20.1303 C   0  0  0  0  0  0  0  0  0  0  0  0
   13.8944  -14.4646   20.7901 C   0  0  0  0  0  0  0  0  0  0  0  0
   13.1664  -15.5108   21.5348 C   0  0  2  0  0  0  0  0  0  0  0  0
   11.7236  -15.0775   21.5641 N   0  0  0  0  0  0  0  0  0  0  0  0
   13.5373  -15.7820   22.9336 C   0  0  0  0  0  0  0  0  0  0  0  0
   14.6990  -16.3121   23.1759 O   0  0  0  0  0  0  0  0  0  0  0  0
   12.8130  -15.5419   24.0729 O   0  0  0  0  0  0  0  0  0  0  0  0
  2  1  1  0
  3  2  2  0
  4  2  1  0
  5  4  1  0
  5  6  1  1
  7  9  1  0
  7  5  1  0
  8  7  2  0
 10 13  1  0
 10  9  1  0
 10 11  1  1
 12 11  1  0
 13 14  2  0
 16 17  2  0
 16 15  1  0
 18 16  1  0
 19 18  1  0
 20 19  1  0
 21 20  1  0
 22 21  1  1
 23 22  1  0
 23 13  1  0
 24 22  1  0
 24 26  1  0
 25 24  2  0
M  END
$$$$
