NCR.pdb
     RDKit          3D

 26 25  0  0  1  0  0  0  0  0999 V2000
   12.5642  -17.0502   14.9981 N   0  0  0  0  0  0  0  0  0  0  0  0
   11.1836  -17.1501   15.2703 C   0  0  0  0  0  0  0  0  0  0  0  0
   10.4178  -17.1174   14.2525 O   0  0  0  0  0  0  0  0  0  0  0  0
   10.5424  -17.2879   16.5782 C   0  0  0  0  0  0  0  0  0  0  0  0
   11.5044  -17.2734   17.7345 C   0  0  2  0  0  0  0  0  0  0  0  0
   12.3144  -18.4934   17.6960 N   0  0  0  0  0  0  0  0  0  0  0  0
   10.7138  -17.2498   19.0009 C   0  0  0  0  0  0  0  0  0  0  0  0
    9.9177  -16.3527   19.3424 O   0  0  0  0  0  0  0  0  0  0  0  0
   10.8314  -18.3262   19.9594 N   0  0  0  0  0  0  0  0  0  0  0  0
   10.0553  -18.3878   21.1653 C   0  0  1  0  0  0  0  0  0  0  0  0
    9.7164  -19.7820   21.5994 C   0  0  0  0  0  0  0  0  0  0  0  0
   11.1612  -20.7885   21.9741 S   0  0  0  0  0  0  0  0  0  0  0  0
   10.6795  -17.5899   22.2694 C   0  0  0  0  0  0  0  0  0  0  0  0
   11.9227  -17.3502   22.2539 O   0  0  0  0  0  0  0  0  0  0  0  0
   10.4164  -13.6860   30.5822 N   0  0  0  0  0  0  0  0  0  0  0  0
    9.8609  -14.3305   29.4343 C   0  0  0  0  0  0  0  0  0  0  0  0
    9.7865  -15.6110   29.3742 N   0  0  0  0  0  0  0  0  0  0  0  0
    9.3875  -13.5628   28.3508 N   0  0  0  0  0  0  0  0  0  0  0  0
    8.7350  -14.1951   27.1679 C   0  0  0  0  0  0  0  0  0  0  0  0
    9.7816  -14.8999   26.3994 C   0  0  0  0  0  0  0  0  0  0  0  0
    9.5365  -15.6607   25.2007 C   0  0  0  0  0  0  0  0  0  0  0  0
   10.6004  -16.3258   24.4231 C   0  0  2  0  0  0  0  0  0  0  0  0
    9.9030  -17.0969   23.3326 N   0  0  0  0  0  0  0  0  0  0  0  0
   11.4845  -17.2893   25.0998 C   0  0  0  0  0  0  0  0  0  0  0  0
   11.0610  -18.5061   25.2708 O   0  0  0  0  0  0  0  0  0  0  0  0
   12.7485  -17.0907   25.5928 O   0  0  0  0  0  0  0  0  0  0  0  0
  2  1  1  0
  3  2  2  0
  4  2  1  0
  5  4  1  0
  5  6  1  1
  7  9  1  0
  7  5  1  0
  8  7  2  0
 10 13  1  0
 10  9  1  0
 10 11  1  1
 12 11  1  0
 13 14  2  0
 16 17  2  0
 16 15  1  0
 18 16  1  0
 19 18  1  0
 20 19  1  0
 21 20  1  0
 22 21  1  1
 23 22  1  0
 23 13  1  0
 24 22  1  0
 24 26  1  0
 25 24  2  0
M  END
$$$$
