NCR.pdb
     RDKit          3D

 26 25  0  0  1  0  0  0  0  0999 V2000
    7.8472  -15.7171   13.9335 N   0  0  0  0  0  0  0  0  0  0  0  0
    9.0979  -15.6131   14.5776 C   0  0  0  0  0  0  0  0  0  0  0  0
   10.0898  -16.0889   13.9349 O   0  0  0  0  0  0  0  0  0  0  0  0
    9.3779  -15.0230   15.8869 C   0  0  0  0  0  0  0  0  0  0  0  0
    8.1662  -14.4512   16.5707 C   0  0  2  0  0  0  0  0  0  0  0  0
    7.7892  -13.2012   15.9062 N   0  0  0  0  0  0  0  0  0  0  0  0
    8.5232  -14.1626   17.9915 C   0  0  0  0  0  0  0  0  0  0  0  0
    9.4700  -13.4447   18.3700 O   0  0  0  0  0  0  0  0  0  0  0  0
    7.7487  -14.7305   19.0726 N   0  0  0  0  0  0  0  0  0  0  0  0
    8.0369  -14.4806   20.4564 C   0  0  1  0  0  0  0  0  0  0  0  0
    6.8233  -14.4615   21.3362 C   0  0  0  0  0  0  0  0  0  0  0  0
    7.2109  -14.3887   23.0927 S   0  0  0  0  0  0  0  0  0  0  0  0
    9.0969  -15.4021   20.9786 C   0  0  0  0  0  0  0  0  0  0  0  0
    9.0863  -16.6270   20.6583 O   0  0  0  0  0  0  0  0  0  0  0  0
   15.9551  -13.7230   18.6246 N   0  0  0  0  0  0  0  0  0  0  0  0
   15.9111  -15.1511   18.6376 C   0  0  0  0  0  0  0  0  0  0  0  0
   16.9571  -15.8410   18.3568 N   0  0  0  0  0  0  0  0  0  0  0  0
   14.7127  -15.8198   18.9601 N   0  0  0  0  0  0  0  0  0  0  0  0
   13.5728  -15.1143   19.6140 C   0  0  0  0  0  0  0  0  0  0  0  0
   13.4624  -15.6222   20.9970 C   0  0  0  0  0  0  0  0  0  0  0  0
   12.4824  -15.1721   21.9524 C   0  0  0  0  0  0  0  0  0  0  0  0
   11.2139  -15.8793   22.2167 C   0  0  2  0  0  0  0  0  0  0  0  0
   10.1137  -14.9272   21.8253 N   0  0  0  0  0  0  0  0  0  0  0  0
   10.9084  -16.3098   23.5912 C   0  0  0  0  0  0  0  0  0  0  0  0
   10.0587  -15.6131   24.2852 O   0  0  0  0  0  0  0  0  0  0  0  0
   11.4010  -17.3886   24.2794 O   0  0  0  0  0  0  0  0  0  0  0  0
  2  1  1  0
  3  2  2  0
  4  2  1  0
  5  4  1  0
  5  6  1  6
  7  9  1  0
  7  5  1  0
  8  7  2  0
 10 13  1  0
 10  9  1  0
 10 11  1  1
 12 11  1  0
 13 14  2  0
 16 17  2  0
 16 15  1  0
 18 16  1  0
 19 18  1  0
 20 19  1  0
 21 20  1  0
 22 21  1  1
 23 22  1  0
 23 13  1  0
 24 22  1  0
 24 26  1  0
 25 24  2  0
M  END
$$$$
