NCR.pdb
     RDKit          3D

 26 25  0  0  1  0  0  0  0  0999 V2000
    6.5389  -23.7167   22.3206 N   0  0  0  0  0  0  0  0  0  0  0  0
    5.7747  -22.6361   21.8322 C   0  0  0  0  0  0  0  0  0  0  0  0
    4.9416  -22.9223   20.9117 O   0  0  0  0  0  0  0  0  0  0  0  0
    5.8317  -21.2394   22.2640 C   0  0  0  0  0  0  0  0  0  0  0  0
    5.6289  -21.0484   23.7422 C   0  0  2  0  0  0  0  0  0  0  0  0
    4.2491  -21.4026   24.0838 N   0  0  0  0  0  0  0  0  0  0  0  0
    5.8592  -19.6087   24.0641 C   0  0  0  0  0  0  0  0  0  0  0  0
    5.3118  -18.6421   23.4973 O   0  0  0  0  0  0  0  0  0  0  0  0
    6.7824  -19.2293   25.1105 N   0  0  0  0  0  0  0  0  0  0  0  0
    7.2612  -17.8870   25.2823 C   0  0  1  0  0  0  0  0  0  0  0  0
    7.2676  -17.4217   26.7073 C   0  0  0  0  0  0  0  0  0  0  0  0
    8.6668  -18.0381   27.6576 S   0  0  0  0  0  0  0  0  0  0  0  0
    8.5875  -17.6806   24.6162 C   0  0  0  0  0  0  0  0  0  0  0  0
    9.3019  -18.6779   24.3030 O   0  0  0  0  0  0  0  0  0  0  0  0
    7.8547  -11.8143   19.6138 N   0  0  0  0  0  0  0  0  0  0  0  0
    8.0144  -12.9744   18.7951 C   0  0  0  0  0  0  0  0  0  0  0  0
    8.3786  -12.8653   17.5686 N   0  0  0  0  0  0  0  0  0  0  0  0
    7.7716  -14.2566   19.3285 N   0  0  0  0  0  0  0  0  0  0  0  0
    8.8866  -15.1755   19.6989 C   0  0  0  0  0  0  0  0  0  0  0  0
    9.4582  -14.6988   20.9751 C   0  0  0  0  0  0  0  0  0  0  0  0
    9.0584  -15.1773   22.2739 C   0  0  0  0  0  0  0  0  0  0  0  0
    9.8205  -16.1781   23.0463 C   0  0  2  0  0  0  0  0  0  0  0  0
    9.0580  -16.3874   24.3288 N   0  0  0  0  0  0  0  0  0  0  0  0
   11.2052  -15.8722   23.4426 C   0  0  0  0  0  0  0  0  0  0  0  0
   11.4194  -15.3991   24.6340 O   0  0  0  0  0  0  0  0  0  0  0  0
   12.3571  -16.0250   22.7147 O   0  0  0  0  0  0  0  0  0  0  0  0
  2  1  1  0
  3  2  2  0
  4  2  1  0
  5  4  1  0
  5  6  1  6
  7  9  1  0
  7  5  1  0
  8  7  2  0
 10 13  1  0
 10  9  1  0
 10 11  1  1
 12 11  1  0
 13 14  2  0
 16 17  2  0
 16 15  1  0
 18 16  1  0
 19 18  1  0
 20 19  1  0
 21 20  1  0
 22 21  1  1
 23 22  1  0
 23 13  1  0
 24 22  1  0
 24 26  1  0
 25 24  2  0
M  END
$$$$
