NCR.pdb
     RDKit          3D

 26 25  0  0  1  0  0  0  0  0999 V2000
    6.9911  -23.4915   23.0766 N   0  0  0  0  0  0  0  0  0  0  0  0
    7.4584  -22.3742   22.3534 C   0  0  0  0  0  0  0  0  0  0  0  0
    8.3952  -22.6086   21.5222 O   0  0  0  0  0  0  0  0  0  0  0  0
    6.9888  -20.9919   22.4504 C   0  0  0  0  0  0  0  0  0  0  0  0
    5.9571  -20.7712   23.5225 C   0  0  2  0  0  0  0  0  0  0  0  0
    4.6847  -21.3517   23.0864 N   0  0  0  0  0  0  0  0  0  0  0  0
    5.7854  -19.3001   23.7112 C   0  0  0  0  0  0  0  0  0  0  0  0
    4.9824  -18.5777   23.0880 O   0  0  0  0  0  0  0  0  0  0  0  0
    6.5852  -18.5866   24.6820 N   0  0  0  0  0  0  0  0  0  0  0  0
    6.6413  -17.1537   24.7478 C   0  0  1  0  0  0  0  0  0  0  0  0
    6.8733  -16.6173   26.1281 C   0  0  0  0  0  0  0  0  0  0  0  0
    6.9340  -14.8194   26.1988 S   0  0  0  0  0  0  0  0  0  0  0  0
    7.6100  -16.5893   23.7536 C   0  0  0  0  0  0  0  0  0  0  0  0
    8.7324  -17.1473   23.5746 O   0  0  0  0  0  0  0  0  0  0  0  0
    7.3558  -13.1005   16.9388 N   0  0  0  0  0  0  0  0  0  0  0  0
    8.0366  -14.2626   17.4159 C   0  0  0  0  0  0  0  0  0  0  0  0
    8.1986  -15.2848   16.6559 N   0  0  0  0  0  0  0  0  0  0  0  0
    8.5391  -14.2984   18.7326 N   0  0  0  0  0  0  0  0  0  0  0  0
    9.1832  -13.1075   19.3585 C   0  0  0  0  0  0  0  0  0  0  0  0
    8.4454  -12.7969   20.6003 C   0  0  0  0  0  0  0  0  0  0  0  0
    7.6946  -13.7618   21.3626 C   0  0  0  0  0  0  0  0  0  0  0  0
    8.2982  -14.9488   21.9993 C   0  0  2  0  0  0  0  0  0  0  0  0
    7.2927  -15.4406   23.0078 N   0  0  0  0  0  0  0  0  0  0  0  0
    9.5674  -14.8000   22.7307 C   0  0  0  0  0  0  0  0  0  0  0  0
    9.5319  -14.3512   23.9499 O   0  0  0  0  0  0  0  0  0  0  0  0
   10.8393  -15.0836   22.3040 O   0  0  0  0  0  0  0  0  0  0  0  0
  2  1  1  0
  3  2  2  0
  4  2  1  0
  5  4  1  0
  5  6  1  6
  7  9  1  0
  7  5  1  0
  8  7  2  0
 10 13  1  0
 10  9  1  0
 10 11  1  1
 12 11  1  0
 13 14  2  0
 16 17  2  0
 16 15  1  0
 18 16  1  0
 19 18  1  0
 20 19  1  0
 21 20  1  0
 22 21  1  1
 23 22  1  0
 23 13  1  0
 24 22  1  0
 24 26  1  0
 25 24  2  0
M  END
$$$$
