NCR.pdb
     RDKit          3D

 26 25  0  0  1  0  0  0  0  0999 V2000
    7.1052  -13.1096   15.0499 N   0  0  0  0  0  0  0  0  0  0  0  0
    8.1191  -13.8866   15.6487 C   0  0  0  0  0  0  0  0  0  0  0  0
    8.6704  -14.7505   14.8917 O   0  0  0  0  0  0  0  0  0  0  0  0
    8.6029  -13.8081   17.0273 C   0  0  0  0  0  0  0  0  0  0  0  0
    8.8090  -15.1479   17.6793 C   0  0  2  0  0  0  0  0  0  0  0  0
    7.5432  -15.8853   17.6642 N   0  0  0  0  0  0  0  0  0  0  0  0
    9.2267  -14.9203   19.0946 C   0  0  0  0  0  0  0  0  0  0  0  0
   10.3989  -14.9513   19.5189 O   0  0  0  0  0  0  0  0  0  0  0  0
    8.2411  -14.6348   20.1136 N   0  0  0  0  0  0  0  0  0  0  0  0
    8.5651  -14.5325   21.5082 C   0  0  1  0  0  0  0  0  0  0  0  0
    7.5719  -13.7430   22.3066 C   0  0  0  0  0  0  0  0  0  0  0  0
    7.5869  -11.9822   21.9319 S   0  0  0  0  0  0  0  0  0  0  0  0
    8.8367  -15.8751   22.1157 C   0  0  0  0  0  0  0  0  0  0  0  0
    8.2150  -16.8967   21.6998 O   0  0  0  0  0  0  0  0  0  0  0  0
   11.0413  -22.0227   18.8395 N   0  0  0  0  0  0  0  0  0  0  0  0
   11.4511  -20.6754   18.5977 C   0  0  0  0  0  0  0  0  0  0  0  0
   12.0188  -20.3520   17.4923 N   0  0  0  0  0  0  0  0  0  0  0  0
   11.2356  -19.6833   19.5758 N   0  0  0  0  0  0  0  0  0  0  0  0
   11.5025  -19.9365   21.0213 C   0  0  0  0  0  0  0  0  0  0  0  0
   11.9882  -18.6749   21.6175 C   0  0  0  0  0  0  0  0  0  0  0  0
   11.1484  -17.5459   21.9268 C   0  0  0  0  0  0  0  0  0  0  0  0
   10.5247  -17.3288   23.2470 C   0  0  2  0  0  0  0  0  0  0  0  0
    9.7787  -16.0234   23.1486 N   0  0  0  0  0  0  0  0  0  0  0  0
   11.3870  -17.2150   24.4350 C   0  0  0  0  0  0  0  0  0  0  0  0
   11.3886  -18.1885   25.2960 O   0  0  0  0  0  0  0  0  0  0  0  0
   12.2336  -16.1942   24.7833 O   0  0  0  0  0  0  0  0  0  0  0  0
  2  1  1  0
  3  2  2  0
  4  2  1  0
  5  4  1  0
  5  6  1  1
  7  9  1  0
  7  5  1  0
  8  7  2  0
 10 13  1  0
 10  9  1  0
 10 11  1  1
 12 11  1  0
 13 14  2  0
 16 17  2  0
 16 15  1  0
 18 16  1  0
 19 18  1  0
 20 19  1  0
 21 20  1  0
 22 21  1  6
 23 22  1  0
 23 13  1  0
 24 22  1  0
 24 26  1  0
 25 24  2  0
M  END
$$$$
