ECL.pdb
     RDKit          3D

 24 23  0  0  1  0  0  0  0  0999 V2000
   10.2694  -20.0414   19.4205 N   0  0  0  0  0  0  0  0  0  0  0  0
   10.7428  -19.2718   20.5537 C   0  0  1  0  0  0  0  0  0  0  0  0
   11.5126  -18.0815   20.0265 C   0  0  0  0  0  0  0  0  0  0  0  0
   12.8418  -18.6073   19.5269 C   0  0  0  0  0  0  0  0  0  0  0  0
   13.7233  -17.5200   19.0631 C   0  0  0  0  0  0  0  0  0  0  0  0
   13.4774  -16.9423   17.9760 O   0  0  0  0  0  0  0  0  0  0  0  0
    9.5938  -18.8880   21.3807 C   0  0  0  0  0  0  0  0  0  0  0  0
    8.4489  -18.9488   20.9023 O   0  0  0  0  0  0  0  0  0  0  0  0
   14.8254  -17.1044   19.7872 O   0  0  0  0  0  0  0  0  0  0  0  0
    9.7013  -18.4393   22.7287 N   0  0  0  0  0  0  0  0  0  0  0  0
    8.6327  -18.0915   23.5936 C   0  0  1  0  0  0  0  0  0  0  0  0
    8.2607  -19.1452   24.5949 C   0  0  0  0  0  0  0  0  0  0  0  0
    9.4545  -19.3453   25.9173 S   0  0  0  0  0  0  0  0  0  0  0  0
    8.8749  -16.7775   24.2205 C   0  0  0  0  0  0  0  0  0  0  0  0
   10.0575  -16.4496   24.4845 O   0  0  0  0  0  0  0  0  0  0  0  0
    7.9238  -11.5698   25.7343 C   0  0  0  0  0  0  0  0  0  0  0  0
    7.0282  -12.6037   26.3774 C   0  0  1  0  0  0  0  0  0  0  0  0
    5.7307  -12.0198   26.8292 C   0  0  0  0  0  0  0  0  0  0  0  0
    6.8400  -13.8310   25.5566 C   0  0  0  0  0  0  0  0  0  0  0  0
    8.0529  -14.6567   25.3115 C   0  0  2  0  0  0  0  0  0  0  0  0
    7.8455  -15.8543   24.5469 N   0  0  0  0  0  0  0  0  0  0  0  0
    8.6753  -14.9610   26.6402 C   0  0  0  0  0  0  0  0  0  0  0  0
    9.6716  -14.2911   26.9898 O   0  0  0  0  0  0  0  0  0  0  0  0
    8.1942  -15.9401   27.4784 O   0  0  0  0  0  0  0  0  0  0  0  0
  2  1  1  6
  2  7  1  0
  3  2  1  0
  3  4  1  0
  4  5  1  0
  5  6  2  0
  5  9  1  0
  7  8  2  0
 10  7  1  0
 10 11  1  0
 11 14  1  0
 11 12  1  1
 13 12  1  0
 14 21  1  0
 15 14  2  0
 17 16  1  6
 18 17  1  0
 19 17  1  0
 20 19  1  1
 21 20  1  0
 22 24  1  0
 22 20  1  0
 23 22  2  0
M  END
$$$$
