ECL.pdb
     RDKit          3D

 24 23  0  0  1  0  0  0  0  0999 V2000
   11.9801  -17.6728   19.2560 N   0  0  0  0  0  0  0  0  0  0  0  0
   12.0984  -16.3654   19.8702 C   0  0  1  0  0  0  0  0  0  0  0  0
   12.6611  -15.4106   18.8412 C   0  0  0  0  0  0  0  0  0  0  0  0
   14.0256  -14.9844   19.3405 C   0  0  0  0  0  0  0  0  0  0  0  0
   14.6962  -14.0726   18.3954 C   0  0  0  0  0  0  0  0  0  0  0  0
   14.1593  -13.8204   17.2890 O   0  0  0  0  0  0  0  0  0  0  0  0
   10.7823  -15.9548   20.3709 C   0  0  0  0  0  0  0  0  0  0  0  0
    9.8981  -15.6220   19.5642 O   0  0  0  0  0  0  0  0  0  0  0  0
   15.9097  -13.4752   18.6820 O   0  0  0  0  0  0  0  0  0  0  0  0
   10.4380  -15.9102   21.7527 N   0  0  0  0  0  0  0  0  0  0  0  0
    9.1341  -15.9940   22.3041 C   0  0  1  0  0  0  0  0  0  0  0  0
    8.3138  -17.1514   21.8152 C   0  0  0  0  0  0  0  0  0  0  0  0
    6.8233  -17.4401   22.7687 S   0  0  0  0  0  0  0  0  0  0  0  0
    9.1845  -15.9202   23.7773 C   0  0  0  0  0  0  0  0  0  0  0  0
   10.1085  -16.5238   24.3753 O   0  0  0  0  0  0  0  0  0  0  0  0
    5.7549  -12.2641   26.5154 C   0  0  0  0  0  0  0  0  0  0  0  0
    7.0569  -12.9117   26.1030 C   0  0  1  0  0  0  0  0  0  0  0  0
    8.2332  -12.0365   26.3844 C   0  0  0  0  0  0  0  0  0  0  0  0
    7.2384  -14.2900   26.6343 C   0  0  0  0  0  0  0  0  0  0  0  0
    8.3038  -15.1105   25.9982 C   0  0  2  0  0  0  0  0  0  0  0  0
    8.2451  -15.2038   24.5666 N   0  0  0  0  0  0  0  0  0  0  0  0
    8.2766  -16.4675   26.6330 C   0  0  0  0  0  0  0  0  0  0  0  0
    7.7524  -17.4054   25.9932 O   0  0  0  0  0  0  0  0  0  0  0  0
    8.8020  -16.7142   27.8803 O   0  0  0  0  0  0  0  0  0  0  0  0
  2  1  1  6
  2  7  1  0
  3  2  1  0
  3  4  1  0
  4  5  1  0
  5  6  2  0
  5  9  1  0
  7  8  2  0
 10  7  1  0
 10 11  1  0
 11 14  1  0
 11 12  1  1
 13 12  1  0
 14 21  1  0
 15 14  2  0
 17 16  1  1
 18 17  1  0
 19 17  1  0
 20 19  1  1
 21 20  1  0
 22 24  1  0
 22 20  1  0
 23 22  2  0
M  END
$$$$
