ECL.pdb
     RDKit          3D

 24 23  0  0  1  0  0  0  0  0999 V2000
    9.0106  -14.6839   18.5901 N   0  0  0  0  0  0  0  0  0  0  0  0
    9.3328  -15.8164   19.4351 C   0  0  1  0  0  0  0  0  0  0  0  0
   10.8385  -15.9183   19.5328 C   0  0  0  0  0  0  0  0  0  0  0  0
   11.3792  -14.5074   19.4331 C   0  0  0  0  0  0  0  0  0  0  0  0
   12.8470  -14.4708   19.5705 C   0  0  0  0  0  0  0  0  0  0  0  0
   13.5511  -14.0781   18.6082 O   0  0  0  0  0  0  0  0  0  0  0  0
    8.6868  -15.6350   20.7394 C   0  0  0  0  0  0  0  0  0  0  0  0
    8.2990  -14.5043   21.0774 O   0  0  0  0  0  0  0  0  0  0  0  0
   13.4889  -14.8567   20.7327 O   0  0  0  0  0  0  0  0  0  0  0  0
    8.4669  -16.6918   21.6694 N   0  0  0  0  0  0  0  0  0  0  0  0
    7.7099  -16.6229   22.8666 C   0  0  1  0  0  0  0  0  0  0  0  0
    7.0814  -17.9170   23.2930 C   0  0  0  0  0  0  0  0  0  0  0  0
    6.2524  -17.8342   24.8804 S   0  0  0  0  0  0  0  0  0  0  0  0
    8.4961  -15.9945   23.9461 C   0  0  0  0  0  0  0  0  0  0  0  0
    9.7368  -16.1842   23.9707 O   0  0  0  0  0  0  0  0  0  0  0  0
    5.9748  -12.1146   27.1034 C   0  0  0  0  0  0  0  0  0  0  0  0
    6.9865  -12.7678   26.1900 C   0  0  1  0  0  0  0  0  0  0  0  0
    7.6540  -11.7788   25.2928 C   0  0  0  0  0  0  0  0  0  0  0  0
    7.9645  -13.6373   26.8991 C   0  0  0  0  0  0  0  0  0  0  0  0
    8.6778  -14.6454   26.0699 C   0  0  2  0  0  0  0  0  0  0  0  0
    7.9322  -15.1830   24.9668 N   0  0  0  0  0  0  0  0  0  0  0  0
    9.1572  -15.7324   26.9832 C   0  0  0  0  0  0  0  0  0  0  0  0
    9.8681  -15.4088   27.9597 O   0  0  0  0  0  0  0  0  0  0  0  0
    8.8460  -17.0580   26.7866 O   0  0  0  0  0  0  0  0  0  0  0  0
  2  1  1  6
  2  7  1  0
  3  2  1  0
  3  4  1  0
  4  5  1  0
  5  6  2  0
  5  9  1  0
  7  8  2  0
 10  7  1  0
 10 11  1  0
 11 14  1  0
 11 12  1  1
 13 12  1  0
 14 21  1  0
 15 14  2  0
 17 16  1  1
 18 17  1  0
 19 17  1  0
 20 19  1  1
 21 20  1  0
 22 24  1  0
 22 20  1  0
 23 22  2  0
M  END
$$$$
