ECL.pdb
     RDKit          3D

 24 23  0  0  1  0  0  0  0  0999 V2000
    9.6856  -17.0698   19.3970 N   0  0  0  0  0  0  0  0  0  0  0  0
    8.2988  -16.6547   19.3273 C   0  0  1  0  0  0  0  0  0  0  0  0
    7.5727  -17.5927   18.3891 C   0  0  0  0  0  0  0  0  0  0  0  0
    7.5436  -16.9187   17.0335 C   0  0  0  0  0  0  0  0  0  0  0  0
    8.6800  -17.3327   16.1898 C   0  0  0  0  0  0  0  0  0  0  0  0
    8.9066  -18.5542   16.0092 O   0  0  0  0  0  0  0  0  0  0  0  0
    7.7350  -16.6520   20.6814 C   0  0  0  0  0  0  0  0  0  0  0  0
    6.5204  -16.4434   20.8374 O   0  0  0  0  0  0  0  0  0  0  0  0
    9.5183  -16.4174   15.5806 O   0  0  0  0  0  0  0  0  0  0  0  0
    8.5024  -16.8780   21.8605 N   0  0  0  0  0  0  0  0  0  0  0  0
    8.0086  -16.9811   23.1859 C   0  0  1  0  0  0  0  0  0  0  0  0
    8.1657  -18.3337   23.8161 C   0  0  0  0  0  0  0  0  0  0  0  0
    9.8555  -18.7380   24.2579 S   0  0  0  0  0  0  0  0  0  0  0  0
    8.5500  -15.8985   24.0304 C   0  0  0  0  0  0  0  0  0  0  0  0
    9.7266  -15.5119   23.8259 O   0  0  0  0  0  0  0  0  0  0  0  0
    7.2581  -12.1656   24.6666 C   0  0  0  0  0  0  0  0  0  0  0  0
    7.1628  -12.1840   26.1750 C   0  0  1  0  0  0  0  0  0  0  0  0
    5.8775  -11.6029   26.6637 C   0  0  0  0  0  0  0  0  0  0  0  0
    7.4477  -13.5138   26.7798 C   0  0  0  0  0  0  0  0  0  0  0  0
    8.4019  -14.3858   26.0437 C   0  0  2  0  0  0  0  0  0  0  0  0
    7.8173  -15.2626   25.0684 N   0  0  0  0  0  0  0  0  0  0  0  0
    9.1961  -15.1524   27.0571 C   0  0  0  0  0  0  0  0  0  0  0  0
    9.0460  -16.3929   27.1056 O   0  0  0  0  0  0  0  0  0  0  0  0
   10.0741  -14.5457   27.9254 O   0  0  0  0  0  0  0  0  0  0  0  0
  2  1  1  1
  2  7  1  0
  3  2  1  0
  3  4  1  0
  4  5  1  0
  5  6  2  0
  5  9  1  0
  7  8  2  0
 10  7  1  0
 10 11  1  0
 11 14  1  0
 11 12  1  1
 13 12  1  0
 14 21  1  0
 15 14  2  0
 17 16  1  6
 18 17  1  0
 19 17  1  0
 20 19  1  1
 21 20  1  0
 22 24  1  0
 22 20  1  0
 23 22  2  0
M  END
$$$$
