ECL.pdb
     RDKit          3D

 24 23  0  0  1  0  0  0  0  0999 V2000
   10.0931  -14.2305   18.8843 N   0  0  0  0  0  0  0  0  0  0  0  0
    8.7923  -13.6692   19.1898 C   0  0  1  0  0  0  0  0  0  0  0  0
    7.9231  -13.7967   17.9588 C   0  0  0  0  0  0  0  0  0  0  0  0
    8.4523  -14.9762   17.1705 C   0  0  0  0  0  0  0  0  0  0  0  0
    8.4520  -14.7117   15.7198 C   0  0  0  0  0  0  0  0  0  0  0  0
    9.4157  -14.0972   15.2005 O   0  0  0  0  0  0  0  0  0  0  0  0
    8.2367  -14.3646   20.3557 C   0  0  0  0  0  0  0  0  0  0  0  0
    7.1128  -14.0467   20.7787 O   0  0  0  0  0  0  0  0  0  0  0  0
    7.4189  -15.1190   14.8960 O   0  0  0  0  0  0  0  0  0  0  0  0
    8.9128  -15.4060   21.0546 N   0  0  0  0  0  0  0  0  0  0  0  0
    8.4386  -16.1110   22.1901 C   0  0  1  0  0  0  0  0  0  0  0  0
    8.6400  -17.5970   22.1417 C   0  0  0  0  0  0  0  0  0  0  0  0
    9.9717  -18.1847   23.1882 S   0  0  0  0  0  0  0  0  0  0  0  0
    8.9611  -15.5107   23.4330 C   0  0  0  0  0  0  0  0  0  0  0  0
   10.1416  -15.0837   23.4408 O   0  0  0  0  0  0  0  0  0  0  0  0
    5.8225  -12.3759   26.5309 C   0  0  0  0  0  0  0  0  0  0  0  0
    7.0743  -12.8922   25.8592 C   0  0  1  0  0  0  0  0  0  0  0  0
    8.0060  -11.7880   25.4832 C   0  0  0  0  0  0  0  0  0  0  0  0
    7.7591  -13.9764   26.6146 C   0  0  0  0  0  0  0  0  0  0  0  0
    8.7160  -14.8171   25.8460 C   0  0  2  0  0  0  0  0  0  0  0  0
    8.2061  -15.3857   24.6300 N   0  0  0  0  0  0  0  0  0  0  0  0
    9.2342  -15.8791   26.7673 C   0  0  0  0  0  0  0  0  0  0  0  0
    8.9712  -17.0713   26.4970 O   0  0  0  0  0  0  0  0  0  0  0  0
    9.9802  -15.5911   27.8868 O   0  0  0  0  0  0  0  0  0  0  0  0
  2  1  1  6
  2  7  1  0
  3  2  1  0
  3  4  1  0
  4  5  1  0
  5  6  2  0
  5  9  1  0
  7  8  2  0
 10  7  1  0
 10 11  1  0
 11 14  1  0
 11 12  1  6
 13 12  1  0
 14 21  1  0
 15 14  2  0
 17 16  1  1
 18 17  1  0
 19 17  1  0
 20 19  1  1
 21 20  1  0
 22 24  1  0
 22 20  1  0
 23 22  2  0
M  END
$$$$
