ECL.pdb
     RDKit          3D

 24 23  0  0  1  0  0  0  0  0999 V2000
    8.6022  -19.4566   19.2003 N   0  0  0  0  0  0  0  0  0  0  0  0
    9.5758  -19.1585   20.2316 C   0  0  1  0  0  0  0  0  0  0  0  0
   10.8077  -18.5873   19.5657 C   0  0  0  0  0  0  0  0  0  0  0  0
   11.8664  -18.4604   20.6408 C   0  0  0  0  0  0  0  0  0  0  0  0
   13.1086  -17.8602   20.1201 C   0  0  0  0  0  0  0  0  0  0  0  0
   14.1832  -18.5065   20.1804 O   0  0  0  0  0  0  0  0  0  0  0  0
    8.9731  -18.2389   21.2025 C   0  0  0  0  0  0  0  0  0  0  0  0
    8.4937  -17.1626   20.8088 O   0  0  0  0  0  0  0  0  0  0  0  0
   13.1388  -16.5965   19.5598 O   0  0  0  0  0  0  0  0  0  0  0  0
    8.8966  -18.5004   22.6010 N   0  0  0  0  0  0  0  0  0  0  0  0
    8.2389  -17.7083   23.5762 C   0  0  1  0  0  0  0  0  0  0  0  0
    6.9766  -18.3029   24.1278 C   0  0  0  0  0  0  0  0  0  0  0  0
    7.2427  -19.7420   25.1632 S   0  0  0  0  0  0  0  0  0  0  0  0
    9.1799  -17.2979   24.6366 C   0  0  0  0  0  0  0  0  0  0  0  0
   10.2015  -18.0001   24.8344 O   0  0  0  0  0  0  0  0  0  0  0  0
    9.9281  -12.9460   29.1556 C   0  0  0  0  0  0  0  0  0  0  0  0
   10.3073  -14.2545   28.5009 C   0  0  1  0  0  0  0  0  0  0  0  0
   10.4664  -15.3553   29.4967 C   0  0  0  0  0  0  0  0  0  0  0  0
    9.4209  -14.6403   27.3692 C   0  0  0  0  0  0  0  0  0  0  0  0
    9.8649  -15.7957   26.5440 C   0  0  2  0  0  0  0  0  0  0  0  0
    8.9999  -16.1497   25.4539 N   0  0  0  0  0  0  0  0  0  0  0  0
   10.0835  -16.9579   27.4641 C   0  0  0  0  0  0  0  0  0  0  0  0
   11.2509  -17.1949   27.8447 O   0  0  0  0  0  0  0  0  0  0  0  0
    9.0567  -17.7635   27.8992 O   0  0  0  0  0  0  0  0  0  0  0  0
  2  1  1  6
  2  7  1  0
  3  2  1  0
  3  4  1  0
  4  5  1  0
  5  6  2  0
  5  9  1  0
  7  8  2  0
 10  7  1  0
 10 11  1  0
 11 14  1  0
 11 12  1  1
 13 12  1  0
 14 21  1  0
 15 14  2  0
 17 16  1  1
 18 17  1  0
 19 17  1  0
 20 19  1  1
 21 20  1  0
 22 24  1  0
 22 20  1  0
 23 22  2  0
M  END
$$$$
