ECL.pdb
     RDKit          3D

 24 23  0  0  1  0  0  0  0  0999 V2000
    9.5595  -16.9989   19.4391 N   0  0  0  0  0  0  0  0  0  0  0  0
    8.3808  -16.1666   19.3028 C   0  0  1  0  0  0  0  0  0  0  0  0
    7.5755  -16.6787   18.1296 C   0  0  0  0  0  0  0  0  0  0  0  0
    8.5167  -17.5092   17.2828 C   0  0  0  0  0  0  0  0  0  0  0  0
    7.8217  -18.1367   16.1436 C   0  0  0  0  0  0  0  0  0  0  0  0
    8.0828  -17.7621   14.9742 O   0  0  0  0  0  0  0  0  0  0  0  0
    7.6325  -16.1924   20.5640 C   0  0  0  0  0  0  0  0  0  0  0  0
    6.5430  -15.6003   20.6405 O   0  0  0  0  0  0  0  0  0  0  0  0
    6.8806  -19.1354   16.3131 O   0  0  0  0  0  0  0  0  0  0  0  0
    8.0785  -16.8665   21.7373 N   0  0  0  0  0  0  0  0  0  0  0  0
    7.4523  -16.8570   23.0096 C   0  0  1  0  0  0  0  0  0  0  0  0
    7.0794  -18.2096   23.5413 C   0  0  0  0  0  0  0  0  0  0  0  0
    5.4038  -18.7096   23.1460 S   0  0  0  0  0  0  0  0  0  0  0  0
    8.2434  -16.0695   23.9750 C   0  0  0  0  0  0  0  0  0  0  0  0
    9.4940  -16.0710   23.8659 O   0  0  0  0  0  0  0  0  0  0  0  0
    5.8484  -11.9011   26.8934 C   0  0  0  0  0  0  0  0  0  0  0  0
    6.8031  -12.6981   26.0344 C   0  0  1  0  0  0  0  0  0  0  0  0
    7.5443  -11.8343   25.0685 C   0  0  0  0  0  0  0  0  0  0  0  0
    7.7112  -13.5870   26.8093 C   0  0  0  0  0  0  0  0  0  0  0  0
    8.4411  -14.6262   26.0346 C   0  0  2  0  0  0  0  0  0  0  0  0
    7.6738  -15.3047   25.0283 N   0  0  0  0  0  0  0  0  0  0  0  0
    9.0321  -15.5952   27.0129 C   0  0  0  0  0  0  0  0  0  0  0  0
    9.8424  -15.1565   27.8583 O   0  0  0  0  0  0  0  0  0  0  0  0
    8.7177  -16.9345   27.0131 O   0  0  0  0  0  0  0  0  0  0  0  0
  2  1  1  1
  2  7  1  0
  3  2  1  0
  3  4  1  0
  4  5  1  0
  5  6  2  0
  5  9  1  0
  7  8  2  0
 10  7  1  0
 10 11  1  0
 11 14  1  0
 11 12  1  1
 13 12  1  0
 14 21  1  0
 15 14  2  0
 17 16  1  1
 18 17  1  0
 19 17  1  0
 20 19  1  1
 21 20  1  0
 22 24  1  0
 22 20  1  0
 23 22  2  0
M  END
$$$$
