FQI.pdb
     RDKit          3D

 29 29  0  0  1  0  0  0  0  0999 V2000
   28.8556  -21.2011   -9.4400 N   0  0  0  0  0  0  0  0  0  0  0  0
   27.4445  -21.0459   -9.2913 C   0  0  1  0  0  0  0  0  0  0  0  0
   27.0712  -19.8314   -8.4669 C   0  0  0  0  0  0  0  0  0  0  0  0
   27.6483  -19.8785   -7.1033 C   0  0  0  0  0  0  0  0  0  0  0  0
   26.9779  -20.5272   -6.0846 C   0  0  0  0  0  0  0  0  0  0  0  0
   27.4744  -20.5980   -4.8000 C   0  0  0  0  0  0  0  0  0  0  0  0
   28.6822  -20.0103   -4.4857 C   0  0  0  0  0  0  0  0  0  0  0  0
   29.3526  -19.3622   -5.5025 C   0  0  0  0  0  0  0  0  0  0  0  0
   28.8585  -19.2902   -6.7866 C   0  0  0  0  0  0  0  0  0  0  0  0
   26.7216  -20.9394  -10.5844 C   0  0  0  0  0  0  0  0  0  0  0  0
   27.2930  -20.2779  -11.4868 O   0  0  0  0  0  0  0  0  0  0  0  0
   24.5628  -25.5966  -13.6178 N   0  0  0  0  0  0  0  0  0  0  0  0
   24.2181  -24.5230  -14.5036 C   0  0  0  0  0  0  0  0  0  0  0  0
   23.8539  -24.8339  -15.6458 O   0  0  0  0  0  0  0  0  0  0  0  0
   24.3072  -23.1187  -14.0381 C   0  0  0  0  0  0  0  0  0  0  0  0
   24.7999  -22.9620  -12.6412 C   0  0  0  0  0  0  0  0  0  0  0  0
   24.9727  -21.5255  -12.2210 C   0  0  2  0  0  0  0  0  0  0  0  0
   25.4789  -21.5201  -10.8364 N   0  0  0  0  0  0  0  0  0  0  0  0
   23.7549  -20.7192  -12.2013 C   0  0  0  0  0  0  0  0  0  0  0  0
   23.1443  -20.5396  -11.0818 O   0  0  0  0  0  0  0  0  0  0  0  0
   22.5528  -17.2491  -16.1614 C   0  0  0  0  0  0  0  0  0  0  0  0
   22.5562  -17.5559  -14.6788 C   0  0  0  0  0  0  0  0  0  0  0  0
   21.5113  -18.6197  -14.4213 C   0  0  2  0  0  0  0  0  0  0  0  0
   20.1267  -18.0606  -14.3395 C   0  0  0  0  0  0  0  0  0  0  0  0
   21.8416  -19.4369  -13.1918 C   0  0  2  0  0  0  0  0  0  0  0  0
   23.1282  -20.0758  -13.2903 N   0  0  0  0  0  0  0  0  0  0  0  0
   20.8018  -20.4698  -13.0096 C   0  0  0  0  0  0  0  0  0  0  0  0
   20.8115  -21.4846  -13.7413 O   0  0  0  0  0  0  0  0  0  0  0  0
   19.8038  -20.3451  -12.0394 O   0  0  0  0  0  0  0  0  0  0  0  0
  2  3  1  0
  2  1  1  6
  4  3  1  0
  4  9  2  0
  5  4  1  0
  6  5  2  0
  6  7  1  0
  7  8  2  0
  8  9  1  0
 10  2  1  0
 11 10  2  0
 12 13  1  0
 13 15  1  0
 14 13  2  0
 16 15  1  0
 17 16  1  1
 17 18  1  0
 18 10  1  0
 19 17  1  0
 19 20  2  0
 21 22  1  0
 22 23  1  0
 23 25  1  0
 23 24  1  1
 25 26  1  6
 26 19  1  0
 27 25  1  0
 28 27  2  0
 29 27  1  0
M  END
$$$$
