FQI.pdb
     RDKit          3D

 29 29  0  0  1  0  0  0  0  0999 V2000
   30.3103  -25.2263  -16.5244 N   0  0  0  0  0  0  0  0  0  0  0  0
   29.2715  -24.3734  -17.0049 C   0  0  1  0  0  0  0  0  0  0  0  0
   29.1363  -24.4053  -18.5131 C   0  0  0  0  0  0  0  0  0  0  0  0
   30.2650  -23.7284  -19.1932 C   0  0  0  0  0  0  0  0  0  0  0  0
   30.1846  -22.3862  -19.5091 C   0  0  0  0  0  0  0  0  0  0  0  0
   31.2084  -21.7125  -20.1415 C   0  0  0  0  0  0  0  0  0  0  0  0
   32.3697  -22.3727  -20.4856 C   0  0  0  0  0  0  0  0  0  0  0  0
   32.4509  -23.7134  -20.1704 C   0  0  0  0  0  0  0  0  0  0  0  0
   31.4294  -24.3885  -19.5387 C   0  0  0  0  0  0  0  0  0  0  0  0
   27.9363  -24.6895  -16.4363 C   0  0  0  0  0  0  0  0  0  0  0  0
   27.9309  -25.2817  -15.3283 O   0  0  0  0  0  0  0  0  0  0  0  0
   25.6892  -23.7864  -12.8582 N   0  0  0  0  0  0  0  0  0  0  0  0
   24.8079  -22.7344  -13.2739 C   0  0  0  0  0  0  0  0  0  0  0  0
   23.9258  -22.3936  -12.4741 O   0  0  0  0  0  0  0  0  0  0  0  0
   24.9755  -22.1089  -14.6070 C   0  0  0  0  0  0  0  0  0  0  0  0
   26.0493  -22.7152  -15.4423 C   0  0  0  0  0  0  0  0  0  0  0  0
   25.6007  -23.9311  -16.2106 C   0  0  2  0  0  0  0  0  0  0  0  0
   26.7272  -24.3706  -17.0540 N   0  0  0  0  0  0  0  0  0  0  0  0
   24.4783  -23.7271  -17.1227 C   0  0  0  0  0  0  0  0  0  0  0  0
   24.4664  -22.6799  -17.8721 O   0  0  0  0  0  0  0  0  0  0  0  0
   21.6892  -27.8534  -18.3645 C   0  0  0  0  0  0  0  0  0  0  0  0
   22.1496  -26.5898  -19.0599 C   0  0  0  0  0  0  0  0  0  0  0  0
   21.3782  -25.4280  -18.4727 C   0  0  2  0  0  0  0  0  0  0  0  0
   20.2011  -25.0360  -19.3078 C   0  0  0  0  0  0  0  0  0  0  0  0
   22.2775  -24.2405  -18.2086 C   0  0  2  0  0  0  0  0  0  0  0  0
   23.3543  -24.5608  -17.3079 N   0  0  0  0  0  0  0  0  0  0  0  0
   21.4706  -23.1482  -17.6283 C   0  0  0  0  0  0  0  0  0  0  0  0
   20.9880  -22.2753  -18.3835 O   0  0  0  0  0  0  0  0  0  0  0  0
   21.2302  -23.0619  -16.2544 O   0  0  0  0  0  0  0  0  0  0  0  0
  2  3  1  0
  2  1  1  6
  4  3  1  0
  4  9  2  0
  5  4  1  0
  6  5  2  0
  6  7  1  0
  7  8  2  0
  8  9  1  0
 10  2  1  0
 11 10  2  0
 12 13  1  0
 13 15  1  0
 14 13  2  0
 16 15  1  0
 17 16  1  6
 17 18  1  0
 18 10  1  0
 19 17  1  0
 19 20  2  0
 21 22  1  0
 22 23  1  0
 23 25  1  0
 23 24  1  6
 25 26  1  1
 26 19  1  0
 27 25  1  0
 28 27  2  0
 29 27  1  0
M  END
$$$$
