FQI.pdb
     RDKit          3D

 29 29  0  0  1  0  0  0  0  0999 V2000
   28.5929  -20.9453   -9.6178 N   0  0  0  0  0  0  0  0  0  0  0  0
   27.1769  -21.0757   -9.4928 C   0  0  1  0  0  0  0  0  0  0  0  0
   26.5582  -19.9772   -8.6534 C   0  0  0  0  0  0  0  0  0  0  0  0
   27.1735  -19.8828   -7.3090 C   0  0  0  0  0  0  0  0  0  0  0  0
   27.2680  -21.0023   -6.5055 C   0  0  0  0  0  0  0  0  0  0  0  0
   27.8320  -20.9644   -5.2476 C   0  0  0  0  0  0  0  0  0  0  0  0
   28.3301  -19.7815   -4.7419 C   0  0  0  0  0  0  0  0  0  0  0  0
   28.2362  -18.6628   -5.5438 C   0  0  0  0  0  0  0  0  0  0  0  0
   27.6731  -18.6983   -6.8008 C   0  0  0  0  0  0  0  0  0  0  0  0
   26.4664  -21.0864  -10.7969 C   0  0  0  0  0  0  0  0  0  0  0  0
   26.8017  -20.1973  -11.6189 O   0  0  0  0  0  0  0  0  0  0  0  0
   24.1269  -26.0365  -13.8052 N   0  0  0  0  0  0  0  0  0  0  0  0
   23.7342  -24.9474  -14.6513 C   0  0  0  0  0  0  0  0  0  0  0  0
   23.1430  -25.2378  -15.7001 O   0  0  0  0  0  0  0  0  0  0  0  0
   24.0403  -23.5523  -14.2558 C   0  0  0  0  0  0  0  0  0  0  0  0
   24.7257  -23.4203  -12.9400 C   0  0  0  0  0  0  0  0  0  0  0  0
   24.9506  -21.9914  -12.5186 C   0  0  2  0  0  0  0  0  0  0  0  0
   25.4767  -22.0066  -11.1415 N   0  0  0  0  0  0  0  0  0  0  0  0
   23.7597  -21.1466  -12.4789 C   0  0  0  0  0  0  0  0  0  0  0  0
   23.2024  -20.9077  -11.3428 O   0  0  0  0  0  0  0  0  0  0  0  0
   22.7599  -17.0455  -15.9605 C   0  0  0  0  0  0  0  0  0  0  0  0
   22.8906  -17.8004  -14.6547 C   0  0  0  0  0  0  0  0  0  0  0  0
   21.7221  -18.7562  -14.5508 C   0  0  2  0  0  0  0  0  0  0  0  0
   20.4078  -18.0510  -14.4407 C   0  0  0  0  0  0  0  0  0  0  0  0
   21.9080  -19.7402  -13.4169 C   0  0  2  0  0  0  0  0  0  0  0  0
   23.1075  -20.5230  -13.5645 N   0  0  0  0  0  0  0  0  0  0  0  0
   20.7423  -20.6458  -13.3724 C   0  0  0  0  0  0  0  0  0  0  0  0
   20.6828  -21.6074  -14.1705 O   0  0  0  0  0  0  0  0  0  0  0  0
   19.7001  -20.4582  -12.4605 O   0  0  0  0  0  0  0  0  0  0  0  0
  2  3  1  0
  2  1  1  6
  4  3  1  0
  4  9  2  0
  5  4  1  0
  6  5  2  0
  6  7  1  0
  7  8  2  0
  8  9  1  0
 10  2  1  0
 11 10  2  0
 12 13  1  0
 13 15  1  0
 14 13  2  0
 16 15  1  0
 17 16  1  1
 17 18  1  0
 18 10  1  0
 19 17  1  0
 19 20  2  0
 21 22  1  0
 22 23  1  0
 23 25  1  0
 23 24  1  1
 25 26  1  6
 26 19  1  0
 27 25  1  0
 28 27  2  0
 29 27  1  0
M  END
$$$$
