FQI.pdb
     RDKit          3D

 29 29  0  0  1  0  0  0  0  0999 V2000
   24.2929  -18.9329  -17.3196 N   0  0  0  0  0  0  0  0  0  0  0  0
   25.1211  -19.5030  -16.3064 C   0  0  1  0  0  0  0  0  0  0  0  0
   25.2623  -18.6090  -15.0919 C   0  0  0  0  0  0  0  0  0  0  0  0
   26.0700  -17.3997  -15.3749 C   0  0  0  0  0  0  0  0  0  0  0  0
   25.5712  -16.1447  -15.0851 C   0  0  0  0  0  0  0  0  0  0  0  0
   26.2849  -14.9904  -15.3300 C   0  0  0  0  0  0  0  0  0  0  0  0
   27.5465  -15.0548  -15.8841 C   0  0  0  0  0  0  0  0  0  0  0  0
   28.0456  -16.3080  -16.1739 C   0  0  0  0  0  0  0  0  0  0  0  0
   27.3344  -17.4625  -15.9300 C   0  0  0  0  0  0  0  0  0  0  0  0
   24.6438  -20.8251  -15.8267 C   0  0  0  0  0  0  0  0  0  0  0  0
   23.4034  -21.0185  -15.8756 O   0  0  0  0  0  0  0  0  0  0  0  0
   24.6442  -26.6197  -16.2418 N   0  0  0  0  0  0  0  0  0  0  0  0
   25.1641  -25.7151  -17.2254 C   0  0  0  0  0  0  0  0  0  0  0  0
   25.0300  -26.0410  -18.4127 O   0  0  0  0  0  0  0  0  0  0  0  0
   25.8259  -24.4584  -16.8021 C   0  0  0  0  0  0  0  0  0  0  0  0
   25.8060  -24.2153  -15.3328 C   0  0  0  0  0  0  0  0  0  0  0  0
   24.8746  -23.1059  -14.9183 C   0  0  2  0  0  0  0  0  0  0  0  0
   25.4800  -21.8297  -15.3402 N   0  0  0  0  0  0  0  0  0  0  0  0
   24.6396  -22.9779  -13.4824 C   0  0  0  0  0  0  0  0  0  0  0  0
   23.8054  -23.7771  -12.9135 O   0  0  0  0  0  0  0  0  0  0  0  0
   26.3214  -20.1842   -8.1955 C   0  0  0  0  0  0  0  0  0  0  0  0
   25.2325  -20.8685   -8.9945 C   0  0  0  0  0  0  0  0  0  0  0  0
   25.7631  -21.1124  -10.3905 C   0  0  2  0  0  0  0  0  0  0  0  0
   26.2229  -19.8569  -11.0606 C   0  0  0  0  0  0  0  0  0  0  0  0
   24.7566  -21.8487  -11.2468 C   0  0  2  0  0  0  0  0  0  0  0  0
   25.2321  -22.0588  -12.5896 N   0  0  0  0  0  0  0  0  0  0  0  0
   23.5047  -21.0667  -11.2942 C   0  0  0  0  0  0  0  0  0  0  0  0
   23.2653  -20.3539  -12.2942 O   0  0  0  0  0  0  0  0  0  0  0  0
   22.5767  -21.1005  -10.2499 O   0  0  0  0  0  0  0  0  0  0  0  0
  2  3  1  0
  2  1  1  6
  4  3  1  0
  4  9  2  0
  5  4  1  0
  6  5  2  0
  6  7  1  0
  7  8  2  0
  8  9  1  0
 10  2  1  0
 11 10  2  0
 12 13  1  0
 13 15  1  0
 14 13  2  0
 16 15  1  0
 17 16  1  1
 17 18  1  0
 18 10  1  0
 19 17  1  0
 19 20  2  0
 21 22  1  0
 22 23  1  0
 23 25  1  0
 23 24  1  6
 25 26  1  6
 26 19  1  0
 27 25  1  0
 28 27  2  0
 29 27  1  0
M  END
$$$$
