FQI.pdb
     RDKit          3D

 29 29  0  0  1  0  0  0  0  0999 V2000
   22.8988  -14.9952  -18.5969 N   0  0  0  0  0  0  0  0  0  0  0  0
   21.5519  -14.8681  -19.0521 C   0  0  1  0  0  0  0  0  0  0  0  0
   21.0653  -16.0948  -19.7954 C   0  0  0  0  0  0  0  0  0  0  0  0
   21.5578  -16.1381  -21.1920 C   0  0  0  0  0  0  0  0  0  0  0  0
   20.7560  -15.6999  -22.2277 C   0  0  0  0  0  0  0  0  0  0  0  0
   21.1698  -15.7205  -23.5431 C   0  0  0  0  0  0  0  0  0  0  0  0
   22.4246  -16.1895  -23.8723 C   0  0  0  0  0  0  0  0  0  0  0  0
   23.2262  -16.6274  -22.8383 C   0  0  0  0  0  0  0  0  0  0  0  0
   22.8149  -16.6078  -21.5235 C   0  0  0  0  0  0  0  0  0  0  0  0
   20.5812  -14.6011  -17.9602 C   0  0  0  0  0  0  0  0  0  0  0  0
   20.9727  -14.8580  -16.7944 O   0  0  0  0  0  0  0  0  0  0  0  0
   18.5187   -9.8023  -18.0829 N   0  0  0  0  0  0  0  0  0  0  0  0
   19.5484  -10.2456  -17.1889 C   0  0  0  0  0  0  0  0  0  0  0  0
   20.4970   -9.4721  -16.9993 O   0  0  0  0  0  0  0  0  0  0  0  0
   19.4479  -11.5749  -16.5414 C   0  0  0  0  0  0  0  0  0  0  0  0
   18.2251  -12.3454  -16.9013 C   0  0  0  0  0  0  0  0  0  0  0  0
   18.4521  -13.8327  -16.9818 C   0  0  2  0  0  0  0  0  0  0  0  0
   19.2971  -14.0950  -18.1610 N   0  0  0  0  0  0  0  0  0  0  0  0
   17.2542  -14.6486  -17.1628 C   0  0  0  0  0  0  0  0  0  0  0  0
   16.7682  -14.7884  -18.3471 O   0  0  0  0  0  0  0  0  0  0  0  0
   16.2064  -19.6520  -16.2779 C   0  0  0  0  0  0  0  0  0  0  0  0
   16.2031  -18.2441  -16.8346 C   0  0  0  0  0  0  0  0  0  0  0  0
   15.2348  -17.4211  -16.0130 C   0  0  2  0  0  0  0  0  0  0  0  0
   13.8443  -17.9710  -16.0383 C   0  0  0  0  0  0  0  0  0  0  0  0
   15.2520  -15.9661  -16.4267 C   0  0  2  0  0  0  0  0  0  0  0  0
   16.5242  -15.3412  -16.1728 N   0  0  0  0  0  0  0  0  0  0  0  0
   14.2014  -15.2437  -15.6815 C   0  0  0  0  0  0  0  0  0  0  0  0
   13.0007  -15.4290  -15.9805 O   0  0  0  0  0  0  0  0  0  0  0  0
   14.5117  -14.3558  -14.6479 O   0  0  0  0  0  0  0  0  0  0  0  0
  2  3  1  0
  2  1  1  1
  4  3  1  0
  4  9  2  0
  5  4  1  0
  6  5  2  0
  6  7  1  0
  7  8  2  0
  8  9  1  0
 10  2  1  0
 11 10  2  0
 12 13  1  0
 13 15  1  0
 14 13  2  0
 16 15  1  0
 17 16  1  6
 17 18  1  0
 18 10  1  0
 19 17  1  0
 19 20  2  0
 21 22  1  0
 22 23  1  0
 23 25  1  0
 23 24  1  6
 25 26  1  1
 26 19  1  0
 27 25  1  0
 28 27  2  0
 29 27  1  0
M  END
$$$$
