FQI.pdb
     RDKit          3D

 29 29  0  0  1  0  0  0  0  0999 V2000
   18.6119  -14.1660  -18.7629 N   0  0  0  0  0  0  0  0  0  0  0  0
   18.6843  -13.3046  -17.6269 C   0  0  1  0  0  0  0  0  0  0  0  0
   19.8759  -13.6015  -16.7403 C   0  0  0  0  0  0  0  0  0  0  0  0
   19.8415  -14.9784  -16.1947 C   0  0  0  0  0  0  0  0  0  0  0  0
   19.3958  -15.2072  -14.9075 C   0  0  0  0  0  0  0  0  0  0  0  0
   19.3453  -16.4700  -14.3558 C   0  0  0  0  0  0  0  0  0  0  0  0
   19.7470  -17.5678  -15.0882 C   0  0  0  0  0  0  0  0  0  0  0  0
   20.1923  -17.3402  -16.3741 C   0  0  0  0  0  0  0  0  0  0  0  0
   20.2437  -16.0795  -16.9273 C   0  0  0  0  0  0  0  0  0  0  0  0
   18.7468  -11.8634  -17.9804 C   0  0  0  0  0  0  0  0  0  0  0  0
   18.8468  -11.5959  -19.2039 O   0  0  0  0  0  0  0  0  0  0  0  0
   15.0829   -9.0072  -20.0154 N   0  0  0  0  0  0  0  0  0  0  0  0
   15.8762   -7.8471  -19.7309 C   0  0  0  0  0  0  0  0  0  0  0  0
   15.4836   -6.7708  -20.2013 O   0  0  0  0  0  0  0  0  0  0  0  0
   17.1035   -7.9703  -18.9092 C   0  0  0  0  0  0  0  0  0  0  0  0
   17.3748   -9.3463  -18.4080 C   0  0  0  0  0  0  0  0  0  0  0  0
   18.6047   -9.4408  -17.5429 C   0  0  2  0  0  0  0  0  0  0  0  0
   18.7013  -10.8265  -17.0489 N   0  0  0  0  0  0  0  0  0  0  0  0
   18.6100   -8.5941  -16.3527 C   0  0  0  0  0  0  0  0  0  0  0  0
   18.0774   -9.0398  -15.2683 O   0  0  0  0  0  0  0  0  0  0  0  0
   22.5034   -4.9850  -13.5854 C   0  0  0  0  0  0  0  0  0  0  0  0
   21.2410   -5.8076  -13.4367 C   0  0  0  0  0  0  0  0  0  0  0  0
   20.9365   -6.4392  -14.7776 C   0  0  2  0  0  0  0  0  0  0  0  0
   21.4776   -5.6468  -15.9248 C   0  0  0  0  0  0  0  0  0  0  0  0
   19.4557   -6.6986  -14.9462 C   0  0  2  0  0  0  0  0  0  0  0  0
   19.1475   -7.2956  -16.2198 N   0  0  0  0  0  0  0  0  0  0  0  0
   18.7281   -5.4193  -14.8235 C   0  0  0  0  0  0  0  0  0  0  0  0
   18.3629   -4.8204  -15.8594 O   0  0  0  0  0  0  0  0  0  0  0  0
   18.4350   -4.8568  -13.5782 O   0  0  0  0  0  0  0  0  0  0  0  0
  2  3  1  0
  2  1  1  6
  4  3  1  0
  4  9  2  0
  5  4  1  0
  6  5  2  0
  6  7  1  0
  7  8  2  0
  8  9  1  0
 10  2  1  0
 11 10  2  0
 12 13  1  0
 13 15  1  0
 14 13  2  0
 16 15  1  0
 17 16  1  1
 17 18  1  0
 18 10  1  0
 19 17  1  0
 19 20  2  0
 21 22  1  0
 22 23  1  0
 23 25  1  0
 23 24  1  6
 25 26  1  6
 26 19  1  0
 27 25  1  0
 28 27  2  0
 29 27  1  0
M  END
$$$$
