PVP.pdb
     RDKit          3D

 22 23  0  0  1  0  0  0  0  0999 V2000
    8.5283  -15.2548   20.5180 N   0  0  0  0  0  0  0  0  0  0  0  0
    8.6767  -16.3693   19.6090 C   0  0  0  0  0  0  0  0  0  0  0  0
    9.0650  -17.5221   20.5172 C   0  0  0  0  0  0  0  0  0  0  0  0
    8.3803  -17.1808   21.8238 C   0  0  0  0  0  0  0  0  0  0  0  0
    7.9227  -15.7566   21.7236 C   0  0  1  0  0  0  0  0  0  0  0  0
    8.4949  -14.9999   22.8768 C   0  0  0  0  0  0  0  0  0  0  0  0
    9.7185  -14.6513   22.9050 O   0  0  0  0  0  0  0  0  0  0  0  0
    5.9964  -14.1085   26.2287 C   0  0  0  0  0  0  0  0  0  0  0  0
    7.2389  -13.3124   25.9223 C   0  0  2  0  0  0  0  0  0  0  0  0
    6.8076  -12.2280   24.9230 C   0  0  0  0  0  0  0  0  0  0  0  0
    8.2946  -14.1258   25.2406 C   0  0  2  0  0  0  0  0  0  0  0  0
    7.7201  -14.6221   24.0085 N   0  0  0  0  0  0  0  0  0  0  0  0
    8.8747  -15.2012   26.0652 C   0  0  0  0  0  0  0  0  0  0  0  0
    8.7959  -16.3692   25.6021 O   0  0  0  0  0  0  0  0  0  0  0  0
    9.4969  -15.0199   27.3051 N   0  0  0  0  0  0  0  0  0  0  0  0
    9.1912  -14.0370   28.3122 C   0  0  0  0  0  0  0  0  0  0  0  0
   10.4552  -13.8701   29.1404 C   0  0  0  0  0  0  0  0  0  0  0  0
   11.4817  -14.6647   28.3626 C   0  0  0  0  0  0  0  0  0  0  0  0
   10.5914  -15.7953   27.8257 C   0  0  1  0  0  0  0  0  0  0  0  0
   10.2087  -16.6235   28.9866 C   0  0  0  0  0  0  0  0  0  0  0  0
    8.9043  -16.7260   29.4469 O   0  0  0  0  0  0  0  0  0  0  0  0
   11.0821  -17.2783   29.6082 O   0  0  0  0  0  0  0  0  0  0  0  0
  1  5  1  0
  1  2  1  0
  2  3  1  0
  4  5  1  0
  4  3  1  0
  6 12  1  0
  5  6  1  1
  7  6  2  0
  9  8  1  6
  9 10  1  0
  9 11  1  0
 11 13  1  0
 11 12  1  6
 13 15  1  0
 14 13  2  0
 15 16  1  0
 17 16  1  0
 18 17  1  0
 19 18  1  0
 19 15  1  0
 19 20  1  1
 20 22  2  0
 20 21  1  0
M  END
$$$$
