PVP.pdb
     RDKit          3D

 22 23  0  0  1  0  0  0  0  0999 V2000
    8.4415  -15.2182   20.5746 N   0  0  0  0  0  0  0  0  0  0  0  0
    8.5607  -16.3405   19.6708 C   0  0  0  0  0  0  0  0  0  0  0  0
    8.9228  -17.4979   20.5840 C   0  0  0  0  0  0  0  0  0  0  0  0
    8.2495  -17.1336   21.8903 C   0  0  0  0  0  0  0  0  0  0  0  0
    7.8264  -15.6992   21.7840 C   0  0  1  0  0  0  0  0  0  0  0  0
    8.4193  -14.9509   22.9322 C   0  0  0  0  0  0  0  0  0  0  0  0
    9.6441  -14.6052   22.9422 O   0  0  0  0  0  0  0  0  0  0  0  0
    5.9691  -14.1897   26.3137 C   0  0  0  0  0  0  0  0  0  0  0  0
    7.2063  -13.3667   26.0616 C   0  0  2  0  0  0  0  0  0  0  0  0
    6.7645  -12.2123   25.1490 C   0  0  0  0  0  0  0  0  0  0  0  0
    8.2618  -14.1212   25.3152 C   0  0  2  0  0  0  0  0  0  0  0  0
    7.6644  -14.5785   24.0789 N   0  0  0  0  0  0  0  0  0  0  0  0
    8.8928  -15.2158   26.0746 C   0  0  0  0  0  0  0  0  0  0  0  0
    8.8654  -16.3570   25.5438 O   0  0  0  0  0  0  0  0  0  0  0  0
    9.5105  -15.0795   27.3226 N   0  0  0  0  0  0  0  0  0  0  0  0
    9.2418  -14.0954   28.3391 C   0  0  0  0  0  0  0  0  0  0  0  0
   10.5040  -13.9992   29.1813 C   0  0  0  0  0  0  0  0  0  0  0  0
   11.4992  -14.8323   28.4032 C   0  0  0  0  0  0  0  0  0  0  0  0
   10.5614  -15.9126   27.8437 C   0  0  1  0  0  0  0  0  0  0  0  0
   10.1280  -16.7356   28.9904 C   0  0  0  0  0  0  0  0  0  0  0  0
   10.9896  -17.5579   29.7011 O   0  0  0  0  0  0  0  0  0  0  0  0
    8.9292  -16.7122   29.3648 O   0  0  0  0  0  0  0  0  0  0  0  0
  1  5  1  0
  1  2  1  0
  2  3  1  0
  4  5  1  0
  4  3  1  0
  6 12  1  0
  5  6  1  1
  7  6  2  0
  9  8  1  6
  9 10  1  0
  9 11  1  0
 11 13  1  0
 11 12  1  6
 13 15  1  0
 14 13  2  0
 15 16  1  0
 17 16  1  0
 18 17  1  0
 19 18  1  0
 19 15  1  0
 19 20  1  1
 20 22  2  0
 20 21  1  0
M  END
$$$$
