PVP.pdb
     RDKit          3D

 22 23  0  0  1  0  0  0  0  0999 V2000
    8.5911  -14.5111   20.6919 N   0  0  0  0  0  0  0  0  0  0  0  0
    8.6246  -15.5704   19.7083 C   0  0  0  0  0  0  0  0  0  0  0  0
    8.4497  -16.8315   20.5351 C   0  0  0  0  0  0  0  0  0  0  0  0
    7.6062  -16.3668   21.7035 C   0  0  0  0  0  0  0  0  0  0  0  0
    7.6062  -14.8677   21.6793 C   0  0  1  0  0  0  0  0  0  0  0  0
    8.0857  -14.3792   23.0065 C   0  0  0  0  0  0  0  0  0  0  0  0
    9.3262  -14.2812   23.2730 O   0  0  0  0  0  0  0  0  0  0  0  0
    6.1922  -11.6804   25.5741 C   0  0  0  0  0  0  0  0  0  0  0  0
    6.4837  -13.0603   26.1056 C   0  0  2  0  0  0  0  0  0  0  0  0
    6.9177  -12.8650   27.5664 C   0  0  0  0  0  0  0  0  0  0  0  0
    7.6293  -13.7211   25.4045 C   0  0  2  0  0  0  0  0  0  0  0  0
    7.1988  -13.9948   24.0502 N   0  0  0  0  0  0  0  0  0  0  0  0
    8.1592  -14.9192   26.0803 C   0  0  0  0  0  0  0  0  0  0  0  0
    7.6906  -16.0273   25.7094 O   0  0  0  0  0  0  0  0  0  0  0  0
    9.1302  -14.9134   27.0875 N   0  0  0  0  0  0  0  0  0  0  0  0
    9.3937  -13.8801   28.0553 C   0  0  0  0  0  0  0  0  0  0  0  0
   10.8367  -14.0688   28.4959 C   0  0  0  0  0  0  0  0  0  0  0  0
   11.3523  -15.1212   27.5384 C   0  0  0  0  0  0  0  0  0  0  0  0
   10.0792  -15.9610   27.3561 C   0  0  1  0  0  0  0  0  0  0  0  0
    9.8327  -16.6449   28.6412 C   0  0  0  0  0  0  0  0  0  0  0  0
   10.6565  -17.6443   29.1377 O   0  0  0  0  0  0  0  0  0  0  0  0
    8.8386  -16.3299   29.3416 O   0  0  0  0  0  0  0  0  0  0  0  0
  1  5  1  0
  1  2  1  0
  2  3  1  0
  4  5  1  0
  4  3  1  0
  6 12  1  0
  5  6  1  1
  7  6  2  0
  9  8  1  6
  9 10  1  0
  9 11  1  0
 11 13  1  0
 11 12  1  6
 13 15  1  0
 14 13  2  0
 15 16  1  0
 17 16  1  0
 18 17  1  0
 19 18  1  0
 19 15  1  0
 19 20  1  1
 20 22  2  0
 20 21  1  0
M  END
$$$$
