PVP.pdb
     RDKit          3D

 22 23  0  0  1  0  0  0  0  0999 V2000
    8.4030  -14.7362   20.4858 N   0  0  0  0  0  0  0  0  0  0  0  0
    8.2650  -15.8067   19.5237 C   0  0  0  0  0  0  0  0  0  0  0  0
    8.0661  -17.0395   20.3869 C   0  0  0  0  0  0  0  0  0  0  0  0
    7.3697  -16.4945   21.6159 C   0  0  0  0  0  0  0  0  0  0  0  0
    7.4855  -15.0007   21.5630 C   0  0  1  0  0  0  0  0  0  0  0  0
    8.1186  -14.5359   22.8330 C   0  0  0  0  0  0  0  0  0  0  0  0
    9.3783  -14.5848   23.0074 O   0  0  0  0  0  0  0  0  0  0  0  0
    7.4626  -12.3329   27.2569 C   0  0  0  0  0  0  0  0  0  0  0  0
    6.9543  -12.8170   25.9231 C   0  0  2  0  0  0  0  0  0  0  0  0
    5.7377  -13.7026   26.2332 C   0  0  0  0  0  0  0  0  0  0  0  0
    7.9421  -13.6840   25.2068 C   0  0  2  0  0  0  0  0  0  0  0  0
    7.3656  -14.0132   23.9208 N   0  0  0  0  0  0  0  0  0  0  0  0
    8.3713  -14.8798   25.9545 C   0  0  0  0  0  0  0  0  0  0  0  0
    7.9142  -15.9841   25.5591 O   0  0  0  0  0  0  0  0  0  0  0  0
    9.2365  -14.8755   27.0539 N   0  0  0  0  0  0  0  0  0  0  0  0
    9.3678  -13.8650   28.0716 C   0  0  0  0  0  0  0  0  0  0  0  0
   10.7653  -14.0231   28.6493 C   0  0  0  0  0  0  0  0  0  0  0  0
   11.4084  -15.0292   27.7197 C   0  0  0  0  0  0  0  0  0  0  0  0
   10.1886  -15.9015   27.3873 C   0  0  1  0  0  0  0  0  0  0  0  0
    9.8385  -16.6319   28.6218 C   0  0  0  0  0  0  0  0  0  0  0  0
    8.6028  -16.5224   29.2421 O   0  0  0  0  0  0  0  0  0  0  0  0
   10.6773  -17.3965   29.1603 O   0  0  0  0  0  0  0  0  0  0  0  0
  1  5  1  0
  1  2  1  0
  2  3  1  0
  4  5  1  0
  4  3  1  0
  6 12  1  0
  5  6  1  1
  7  6  2  0
  9  8  1  1
  9 10  1  0
  9 11  1  0
 11 13  1  0
 11 12  1  6
 13 15  1  0
 14 13  2  0
 15 16  1  0
 17 16  1  0
 18 17  1  0
 19 18  1  0
 19 15  1  0
 19 20  1  1
 20 22  2  0
 20 21  1  0
M  END
$$$$
