PVP.pdb
     RDKit          3D

 22 23  0  0  1  0  0  0  0  0999 V2000
    8.7847  -15.4153   20.4826 N   0  0  0  0  0  0  0  0  0  0  0  0
    9.0228  -16.5284   19.5910 C   0  0  0  0  0  0  0  0  0  0  0  0
    9.4499  -17.6478   20.5231 C   0  0  0  0  0  0  0  0  0  0  0  0
    8.7094  -17.3336   21.8058 C   0  0  0  0  0  0  0  0  0  0  0  0
    8.1742  -15.9391   21.6764 C   0  0  1  0  0  0  0  0  0  0  0  0
    8.6687  -15.1395   22.8365 C   0  0  0  0  0  0  0  0  0  0  0  0
    9.8606  -14.6956   22.8814 O   0  0  0  0  0  0  0  0  0  0  0  0
    6.0351  -14.4477   26.0928 C   0  0  0  0  0  0  0  0  0  0  0  0
    7.2497  -13.5809   25.8812 C   0  0  2  0  0  0  0  0  0  0  0  0
    6.8083  -12.4660   24.9205 C   0  0  0  0  0  0  0  0  0  0  0  0
    8.3699  -14.3082   25.2053 C   0  0  2  0  0  0  0  0  0  0  0  0
    7.8507  -14.8234   23.9566 N   0  0  0  0  0  0  0  0  0  0  0  0
    9.0103  -15.3539   26.0235 C   0  0  0  0  0  0  0  0  0  0  0  0
    9.0925  -16.4994   25.5079 O   0  0  0  0  0  0  0  0  0  0  0  0
    9.5255  -15.1676   27.3109 N   0  0  0  0  0  0  0  0  0  0  0  0
    9.1188  -14.1968   28.2938 C   0  0  0  0  0  0  0  0  0  0  0  0
   10.3074  -14.0097   29.2232 C   0  0  0  0  0  0  0  0  0  0  0  0
   11.4098  -14.7792   28.5285 C   0  0  0  0  0  0  0  0  0  0  0  0
   10.5893  -15.9241   27.9159 C   0  0  1  0  0  0  0  0  0  0  0  0
   10.1300  -16.7665   29.0381 C   0  0  0  0  0  0  0  0  0  0  0  0
   10.9835  -17.5659   29.7839 O   0  0  0  0  0  0  0  0  0  0  0  0
    8.9152  -16.7821   29.3576 O   0  0  0  0  0  0  0  0  0  0  0  0
  1  5  1  0
  1  2  1  0
  2  3  1  0
  4  5  1  0
  4  3  1  0
  6 12  1  0
  5  6  1  1
  7  6  2  0
  9  8  1  6
  9 10  1  0
  9 11  1  0
 11 13  1  0
 11 12  1  6
 13 15  1  0
 14 13  2  0
 15 16  1  0
 17 16  1  0
 18 17  1  0
 19 18  1  0
 19 15  1  0
 19 20  1  1
 20 22  2  0
 20 21  1  0
M  END
$$$$
