PVP.pdb
     RDKit          3D

 22 23  0  0  1  0  0  0  0  0999 V2000
    7.1702  -15.4485   21.5338 N   0  0  0  0  0  0  0  0  0  0  0  0
    6.4486  -15.2078   20.3042 C   0  0  0  0  0  0  0  0  0  0  0  0
    6.7842  -13.7657   19.9692 C   0  0  0  0  0  0  0  0  0  0  0  0
    8.1725  -13.5888   20.5469 C   0  0  0  0  0  0  0  0  0  0  0  0
    8.4352  -14.7687   21.4340 C   0  0  1  0  0  0  0  0  0  0  0  0
    8.7946  -14.2614   22.7917 C   0  0  0  0  0  0  0  0  0  0  0  0
    9.8736  -13.6194   23.0001 O   0  0  0  0  0  0  0  0  0  0  0  0
    6.0801  -14.8437   26.0006 C   0  0  0  0  0  0  0  0  0  0  0  0
    7.0948  -13.7294   26.0087 C   0  0  2  0  0  0  0  0  0  0  0  0
    6.4492  -12.5674   25.2383 C   0  0  0  0  0  0  0  0  0  0  0  0
    8.3500  -14.0836   25.2741 C   0  0  2  0  0  0  0  0  0  0  0  0
    7.9654  -14.4591   23.9305 N   0  0  0  0  0  0  0  0  0  0  0  0
    9.1812  -15.1094   25.9298 C   0  0  0  0  0  0  0  0  0  0  0  0
    9.4587  -16.1293   25.2460 O   0  0  0  0  0  0  0  0  0  0  0  0
    9.6762  -15.0318   27.2361 N   0  0  0  0  0  0  0  0  0  0  0  0
    9.2461  -14.1541   28.2937 C   0  0  0  0  0  0  0  0  0  0  0  0
   10.4196  -14.0388   29.2535 C   0  0  0  0  0  0  0  0  0  0  0  0
   11.5392  -14.7354   28.5110 C   0  0  0  0  0  0  0  0  0  0  0  0
   10.7386  -15.8293   27.7887 C   0  0  1  0  0  0  0  0  0  0  0  0
   10.2717  -16.7703   28.8262 C   0  0  0  0  0  0  0  0  0  0  0  0
   11.1268  -17.5993   29.5371 O   0  0  0  0  0  0  0  0  0  0  0  0
    9.0485  -16.8477   29.1015 O   0  0  0  0  0  0  0  0  0  0  0  0
  1  5  1  0
  1  2  1  0
  2  3  1  0
  4  5  1  0
  4  3  1  0
  6 12  1  0
  5  6  1  1
  7  6  2  0
  9  8  1  6
  9 10  1  0
  9 11  1  0
 11 13  1  0
 11 12  1  6
 13 15  1  0
 14 13  2  0
 15 16  1  0
 17 16  1  0
 18 17  1  0
 19 18  1  0
 19 15  1  0
 19 20  1  1
 20 22  2  0
 20 21  1  0
M  END
$$$$
