PVP.pdb
     RDKit          3D

 22 23  0  0  1  0  0  0  0  0999 V2000
    7.0570  -15.9263   21.6863 N   0  0  0  0  0  0  0  0  0  0  0  0
    6.3864  -15.8406   20.4082 C   0  0  0  0  0  0  0  0  0  0  0  0
    6.8508  -14.5077   19.8496 C   0  0  0  0  0  0  0  0  0  0  0  0
    8.2357  -14.3469   20.4400 C   0  0  0  0  0  0  0  0  0  0  0  0
    8.3771  -15.3766   21.5207 C   0  0  1  0  0  0  0  0  0  0  0  0
    8.7476  -14.6770   22.7868 C   0  0  0  0  0  0  0  0  0  0  0  0
    9.8636  -14.0792   22.9169 O   0  0  0  0  0  0  0  0  0  0  0  0
    5.9901  -14.6533   26.0255 C   0  0  0  0  0  0  0  0  0  0  0  0
    7.1092  -13.6485   25.9285 C   0  0  2  0  0  0  0  0  0  0  0  0
    6.5733  -12.5058   25.0522 C   0  0  0  0  0  0  0  0  0  0  0  0
    8.3167  -14.1918   25.2303 C   0  0  2  0  0  0  0  0  0  0  0  0
    7.8886  -14.6319   23.9198 N   0  0  0  0  0  0  0  0  0  0  0  0
    9.0374  -15.2434   25.9703 C   0  0  0  0  0  0  0  0  0  0  0  0
    9.2021  -16.3391   25.3726 O   0  0  0  0  0  0  0  0  0  0  0  0
    9.5438  -15.1133   27.2680 N   0  0  0  0  0  0  0  0  0  0  0  0
    9.0869  -14.2316   28.3109 C   0  0  0  0  0  0  0  0  0  0  0  0
   10.2652  -14.0411   29.2527 C   0  0  0  0  0  0  0  0  0  0  0  0
   11.4064  -14.7033   28.5117 C   0  0  0  0  0  0  0  0  0  0  0  0
   10.6479  -15.8488   27.8248 C   0  0  1  0  0  0  0  0  0  0  0  0
   10.2366  -16.7857   28.8893 C   0  0  0  0  0  0  0  0  0  0  0  0
    8.9114  -17.0045   29.2353 O   0  0  0  0  0  0  0  0  0  0  0  0
   11.1036  -17.4301   29.5304 O   0  0  0  0  0  0  0  0  0  0  0  0
  1  5  1  0
  1  2  1  0
  2  3  1  0
  4  5  1  0
  4  3  1  0
  6 12  1  0
  5  6  1  1
  7  6  2  0
  9  8  1  6
  9 10  1  0
  9 11  1  0
 11 13  1  0
 11 12  1  6
 13 15  1  0
 14 13  2  0
 15 16  1  0
 17 16  1  0
 18 17  1  0
 19 18  1  0
 19 15  1  0
 19 20  1  1
 20 22  2  0
 20 21  1  0
M  END
$$$$
