RTP.pdb
     RDKit          3D

 26 26  0  0  1  0  0  0  0  0999 V2000
   45.4691   -5.6552   -8.8568 N   0  0  0  0  0  0  0  0  0  0  0  0
   45.3332   -5.1010   -7.5681 C   0  0  0  0  0  0  0  0  0  0  0  0
   45.0985   -3.8495   -7.3582 N   0  0  0  0  0  0  0  0  0  0  0  0
   45.4636   -5.9780   -6.4273 N   0  0  0  0  0  0  0  0  0  0  0  0
   45.6521   -7.3934   -6.7120 C   0  0  0  0  0  0  0  0  0  0  0  0
   44.3304   -8.0068   -7.0786 C   0  0  0  0  0  0  0  0  0  0  0  0
   44.4551   -9.4650   -7.3185 C   0  0  0  0  0  0  0  0  0  0  0  0
   43.2546  -10.1593   -7.8349 C   0  0  2  0  0  0  0  0  0  0  0  0
   42.0150   -9.8892   -7.1653 N   0  0  0  0  0  0  0  0  0  0  0  0
   43.5096  -11.6391   -7.6731 C   0  0  0  0  0  0  0  0  0  0  0  0
   43.2703  -12.2444   -6.5970 O   0  0  0  0  0  0  0  0  0  0  0  0
   45.0038   -3.4645   -6.3961 C   0  0  0  0  0  0  0  0  0  0  0  0
   42.2650  -14.5073   -9.2723 C   0  0  2  0  0  0  0  0  0  0  0  0
   43.7559  -14.5464   -9.6580 O   0  0  0  0  0  0  0  0  0  0  0  0
   43.8199  -13.8134  -10.8516 C   0  0  2  0  0  0  0  0  0  0  0  0
   44.4515  -13.8026   -8.5280 N   0  0  0  0  0  0  0  0  0  0  0  0
   44.0311  -12.4020   -8.7361 C   0  0  0  0  0  0  0  0  0  0  0  0
   45.9088  -13.8524   -8.5834 O   0  0  0  0  0  0  0  0  0  0  0  0
   46.5201  -12.7923   -8.9666 N   0  0  0  0  0  0  0  0  0  0  0  0
   46.7406  -14.9466   -8.2586 C   0  0  0  0  0  0  0  0  0  0  0  0
   46.3044  -16.2665   -7.7821 C   0  0  0  0  0  0  0  0  0  0  0  0
   47.2435  -16.5099   -6.6450 C   0  0  0  0  0  0  0  0  0  0  0  0
   48.5561  -15.9492   -7.1426 C   0  0  1  0  0  0  0  0  0  0  0  0
   48.1761  -15.0565   -8.3254 C   0  0  0  0  0  0  0  0  0  0  0  0
   48.5401  -15.7374   -9.5992 O   0  0  0  0  0  0  0  0  0  0  0  0
   47.5746  -16.2972  -10.3872 O   0  0  0  0  0  0  0  0  0  0  0  0
  2  1  1  0
  3  2  2  0
  4  2  1  0
  5  6  1  0
  5  4  1  0
  7  6  1  0
  8  7  1  0
  8  9  1  1
 10  8  1  0
 11 10  2  0
 13 12  1  6
 13 15  1  0
 14 13  1  0
 15 17  1  0
 15 16  1  1
 16 10  1  0
 17 18  2  0
 19 20  1  0
 19 17  1  0
 21 20  1  0
 22 21  1  0
 22 23  1  0
 23 19  1  0
 23 24  1  6
 24 25  1  0
 26 24  2  0
M  END
$$$$
