RTP.pdb
     RDKit          3D

 26 26  0  0  1  0  0  0  0  0999 V2000
   20.6150  -21.7591  -20.6625 N   0  0  0  0  0  0  0  0  0  0  0  0
   21.2013  -23.0376  -20.5745 C   0  0  0  0  0  0  0  0  0  0  0  0
   20.8317  -24.0362  -21.3036 N   0  0  0  0  0  0  0  0  0  0  0  0
   22.2680  -23.2387  -19.6209 N   0  0  0  0  0  0  0  0  0  0  0  0
   22.1316  -22.5623  -18.3387 C   0  0  0  0  0  0  0  0  0  0  0  0
   22.4281  -21.0998  -18.5145 C   0  0  0  0  0  0  0  0  0  0  0  0
   23.3324  -20.5965  -17.4523 C   0  0  0  0  0  0  0  0  0  0  0  0
   24.7841  -20.6469  -17.7355 C   0  0  2  0  0  0  0  0  0  0  0  0
   25.2136  -21.5765  -18.7401 N   0  0  0  0  0  0  0  0  0  0  0  0
   25.4592  -21.0685  -16.4519 C   0  0  0  0  0  0  0  0  0  0  0  0
   25.9223  -22.2265  -16.2900 O   0  0  0  0  0  0  0  0  0  0  0  0
   21.2785  -24.9720  -21.2168 C   0  0  0  0  0  0  0  0  0  0  0  0
   28.2816  -19.7539  -15.1506 C   0  0  2  0  0  0  0  0  0  0  0  0
   27.3470  -19.5317  -13.9462 O   0  0  0  0  0  0  0  0  0  0  0  0
   26.8360  -18.2410  -14.1431 C   0  0  2  0  0  0  0  0  0  0  0  0
   26.2575  -20.5783  -14.1236 N   0  0  0  0  0  0  0  0  0  0  0  0
   25.5949  -20.1672  -15.3781 C   0  0  0  0  0  0  0  0  0  0  0  0
   25.2554  -20.5882  -13.0629 O   0  0  0  0  0  0  0  0  0  0  0  0
   24.0248  -20.5093  -13.4146 N   0  0  0  0  0  0  0  0  0  0  0  0
   25.4827  -20.6774  -11.6718 C   0  0  0  0  0  0  0  0  0  0  0  0
   26.7880  -20.7580  -11.0016 C   0  0  0  0  0  0  0  0  0  0  0  0
   26.5617  -21.8594  -10.0167 C   0  0  0  0  0  0  0  0  0  0  0  0
   25.1454  -21.6260   -9.5427 C   0  0  1  0  0  0  0  0  0  0  0  0
   24.5324  -20.6925  -10.5883 C   0  0  0  0  0  0  0  0  0  0  0  0
   24.4315  -19.3162  -10.0277 O   0  0  0  0  0  0  0  0  0  0  0  0
   23.3737  -18.9646   -9.2378 O   0  0  0  0  0  0  0  0  0  0  0  0
  2  1  1  0
  3  2  2  0
  4  2  1  0
  5  6  1  0
  5  4  1  0
  7  6  1  0
  8  7  1  0
  8  9  1  6
 10  8  1  0
 11 10  2  0
 13 12  1  1
 13 15  1  0
 14 13  1  0
 15 17  1  0
 15 16  1  1
 16 10  1  0
 17 18  2  0
 19 20  1  0
 19 17  1  0
 21 20  1  0
 22 21  1  0
 22 23  1  0
 23 19  1  0
 23 24  1  1
 24 25  1  0
 26 24  2  0
M  END
$$$$
