RTP.pdb
     RDKit          3D

 26 26  0  0  1  0  0  0  0  0999 V2000
   25.3060  -20.3813   -9.0958 N   0  0  0  0  0  0  0  0  0  0  0  0
   24.2130  -20.5671   -9.9659 C   0  0  0  0  0  0  0  0  0  0  0  0
   23.0286  -20.1182   -9.7185 N   0  0  0  0  0  0  0  0  0  0  0  0
   24.4305  -21.2959  -11.1943 N   0  0  0  0  0  0  0  0  0  0  0  0
   25.7564  -21.8660  -11.3874 C   0  0  0  0  0  0  0  0  0  0  0  0
   26.3026  -21.4156  -12.7127 C   0  0  0  0  0  0  0  0  0  0  0  0
   26.4177  -22.5457  -13.6662 C   0  0  0  0  0  0  0  0  0  0  0  0
   25.3884  -22.6291  -14.7263 C   0  0  2  0  0  0  0  0  0  0  0  0
   25.4479  -23.7690  -15.5951 N   0  0  0  0  0  0  0  0  0  0  0  0
   25.5765  -21.4158  -15.6059 C   0  0  0  0  0  0  0  0  0  0  0  0
   26.6509  -21.1979  -16.2223 O   0  0  0  0  0  0  0  0  0  0  0  0
   22.2409  -20.2568  -10.3842 C   0  0  0  0  0  0  0  0  0  0  0  0
   24.1062  -20.7767  -18.4002 C   0  0  2  0  0  0  0  0  0  0  0  0
   23.6966  -19.4603  -17.7128 O   0  0  0  0  0  0  0  0  0  0  0  0
   22.4341  -19.7365  -17.1691 C   0  0  2  0  0  0  0  0  0  0  0  0
   24.7315  -19.2779  -16.6130 N   0  0  0  0  0  0  0  0  0  0  0  0
   24.5414  -20.4745  -15.7681 C   0  0  0  0  0  0  0  0  0  0  0  0
   24.5231  -18.0971  -15.7815 O   0  0  0  0  0  0  0  0  0  0  0  0
   23.7534  -18.2220  -14.7635 N   0  0  0  0  0  0  0  0  0  0  0  0
   25.0783  -16.8116  -15.9662 C   0  0  0  0  0  0  0  0  0  0  0  0
   25.9636  -16.3895  -17.0605 C   0  0  0  0  0  0  0  0  0  0  0  0
   27.0283  -15.6415  -16.3250 C   0  0  0  0  0  0  0  0  0  0  0  0
   26.2658  -14.9104  -15.2437 C   0  0  1  0  0  0  0  0  0  0  0  0
   24.9126  -15.6204  -15.1720 C   0  0  0  0  0  0  0  0  0  0  0  0
   23.8698  -14.7681  -15.8085 O   0  0  0  0  0  0  0  0  0  0  0  0
   23.4999  -14.9778  -17.1069 O   0  0  0  0  0  0  0  0  0  0  0  0
  2  1  1  0
  3  2  2  0
  4  2  1  0
  5  6  1  0
  5  4  1  0
  7  6  1  0
  8  7  1  0
  8  9  1  6
 10  8  1  0
 11 10  2  0
 13 12  1  6
 13 15  1  0
 14 13  1  0
 15 17  1  0
 15 16  1  6
 16 10  1  0
 17 18  2  0
 19 20  1  0
 19 17  1  0
 21 20  1  0
 22 21  1  0
 22 23  1  0
 23 19  1  0
 23 24  1  6
 24 25  1  0
 26 24  2  0
M  END
$$$$
