RTP.pdb
     RDKit          3D

 26 26  0  0  1  0  0  0  0  0999 V2000
   27.6033  -27.9547  -16.0609 N   0  0  0  0  0  0  0  0  0  0  0  0
   27.6746  -28.3800  -17.4026 C   0  0  0  0  0  0  0  0  0  0  0  0
   28.0415  -29.5679  -17.7488 N   0  0  0  0  0  0  0  0  0  0  0  0
   27.3193  -27.4393  -18.4400 N   0  0  0  0  0  0  0  0  0  0  0  0
   26.8107  -26.1473  -18.0014 C   0  0  0  0  0  0  0  0  0  0  0  0
   27.9616  -25.2021  -17.8018 C   0  0  0  0  0  0  0  0  0  0  0  0
   27.4960  -23.8610  -17.3727 C   0  0  0  0  0  0  0  0  0  0  0  0
   28.5193  -22.7946  -17.2965 C   0  0  2  0  0  0  0  0  0  0  0  0
   29.8900  -23.2166  -17.2657 N   0  0  0  0  0  0  0  0  0  0  0  0
   28.2749  -22.0545  -16.0028 C   0  0  0  0  0  0  0  0  0  0  0  0
   28.9761  -22.2518  -14.9777 O   0  0  0  0  0  0  0  0  0  0  0  0
   28.2032  -29.8220  -18.7449 C   0  0  0  0  0  0  0  0  0  0  0  0
   28.0713  -18.4948  -15.7794 C   0  0  2  0  0  0  0  0  0  0  0  0
   26.7455  -18.9390  -15.1330 O   0  0  0  0  0  0  0  0  0  0  0  0
   25.8324  -18.9489  -16.1971 C   0  0  2  0  0  0  0  0  0  0  0  0
   27.0249  -20.3527  -14.6462 N   0  0  0  0  0  0  0  0  0  0  0  0
   27.2393  -21.1054  -15.8989 C   0  0  0  0  0  0  0  0  0  0  0  0
   25.9151  -20.9716  -13.9288 O   0  0  0  0  0  0  0  0  0  0  0  0
   25.2898  -21.9229  -14.5189 N   0  0  0  0  0  0  0  0  0  0  0  0
   25.4403  -20.6434  -12.6397 C   0  0  0  0  0  0  0  0  0  0  0  0
   25.8827  -19.5185  -11.8042 C   0  0  0  0  0  0  0  0  0  0  0  0
   26.0603  -20.1742  -10.4727 C   0  0  0  0  0  0  0  0  0  0  0  0
   24.9092  -21.1516  -10.4022 C   0  0  1  0  0  0  0  0  0  0  0  0
   24.4247  -21.2891  -11.8467 C   0  0  0  0  0  0  0  0  0  0  0  0
   23.1466  -20.5429  -12.0155 O   0  0  0  0  0  0  0  0  0  0  0  0
   23.1180  -19.3623  -12.7024 O   0  0  0  0  0  0  0  0  0  0  0  0
  2  1  1  0
  3  2  2  0
  4  2  1  0
  5  6  1  0
  5  4  1  0
  7  6  1  0
  8  7  1  0
  8  9  1  1
 10  8  1  0
 11 10  2  0
 13 12  1  1
 13 15  1  0
 14 13  1  0
 15 17  1  0
 15 16  1  1
 16 10  1  0
 17 18  2  0
 19 20  1  0
 19 17  1  0
 21 20  1  0
 22 21  1  0
 22 23  1  0
 23 19  1  0
 23 24  1  6
 24 25  1  0
 26 24  2  0
M  END
$$$$
