RTP.pdb
     RDKit          3D

 26 26  0  0  1  0  0  0  0  0999 V2000
   33.8419  -13.3841  -19.2816 N   0  0  0  0  0  0  0  0  0  0  0  0
   34.7806  -12.3519  -19.0825 C   0  0  0  0  0  0  0  0  0  0  0  0
   36.0402  -12.4849  -19.3296 N   0  0  0  0  0  0  0  0  0  0  0  0
   34.3082  -11.0835  -18.5769 N   0  0  0  0  0  0  0  0  0  0  0  0
   32.8691  -10.9471  -18.4021 C   0  0  0  0  0  0  0  0  0  0  0  0
   32.2712  -10.3561  -19.6474 C   0  0  0  0  0  0  0  0  0  0  0  0
   30.7920  -10.2909  -19.5626 C   0  0  0  0  0  0  0  0  0  0  0  0
   30.2237   -9.3942  -18.5314 C   0  0  2  0  0  0  0  0  0  0  0  0
   31.1573   -8.7323  -17.6665 N   0  0  0  0  0  0  0  0  0  0  0  0
   29.3586  -10.2548  -17.6414 C   0  0  0  0  0  0  0  0  0  0  0  0
   29.7994  -10.7796  -16.5870 O   0  0  0  0  0  0  0  0  0  0  0  0
   36.7220  -11.7274  -19.1192 C   0  0  0  0  0  0  0  0  0  0  0  0
   27.1223   -9.3248  -15.6193 C   0  0  2  0  0  0  0  0  0  0  0  0
   26.2068  -10.2072  -16.4889 O   0  0  0  0  0  0  0  0  0  0  0  0
   25.7622   -9.3453  -17.5016 C   0  0  2  0  0  0  0  0  0  0  0  0
   27.1396  -11.2685  -17.0520 N   0  0  0  0  0  0  0  0  0  0  0  0
   28.0106  -10.5023  -17.9664 C   0  0  0  0  0  0  0  0  0  0  0  0
   26.4695  -12.3074  -17.8273 O   0  0  0  0  0  0  0  0  0  0  0  0
   26.2800  -12.0811  -19.0752 N   0  0  0  0  0  0  0  0  0  0  0  0
   25.9981  -13.5541  -17.3599 C   0  0  0  0  0  0  0  0  0  0  0  0
   26.0043  -14.0262  -15.9683 C   0  0  0  0  0  0  0  0  0  0  0  0
   26.5304  -15.4174  -16.1169 C   0  0  0  0  0  0  0  0  0  0  0  0
   25.8853  -15.9062  -17.3937 C   0  0  1  0  0  0  0  0  0  0  0  0
   25.3943  -14.6376  -18.0936 C   0  0  0  0  0  0  0  0  0  0  0  0
   23.9146  -14.5355  -17.9568 O   0  0  0  0  0  0  0  0  0  0  0  0
   23.0916  -15.3063  -18.7283 O   0  0  0  0  0  0  0  0  0  0  0  0
  2  1  1  0
  3  2  2  0
  4  2  1  0
  5  6  1  0
  5  4  1  0
  7  6  1  0
  8  7  1  0
  8  9  1  1
 10  8  1  0
 11 10  2  0
 13 12  1  1
 13 15  1  0
 14 13  1  0
 15 17  1  0
 15 16  1  1
 16 10  1  0
 17 18  2  0
 19 20  1  0
 19 17  1  0
 21 20  1  0
 22 21  1  0
 22 23  1  0
 23 19  1  0
 23 24  1  1
 24 25  1  0
 26 24  2  0
M  END
$$$$
