RTP.pdb
     RDKit          3D

 26 26  0  0  1  0  0  0  0  0999 V2000
   18.3718  -24.0790   -9.4574 N   0  0  0  0  0  0  0  0  0  0  0  0
   18.0556  -23.4683  -10.6876 C   0  0  0  0  0  0  0  0  0  0  0  0
   16.9452  -22.8470  -10.9033 N   0  0  0  0  0  0  0  0  0  0  0  0
   19.0225  -23.5425  -11.7586 N   0  0  0  0  0  0  0  0  0  0  0  0
   19.0540  -24.7813  -12.5232 C   0  0  0  0  0  0  0  0  0  0  0  0
   20.1769  -24.7217  -13.5197 C   0  0  0  0  0  0  0  0  0  0  0  0
   20.8841  -26.0213  -13.6209 C   0  0  0  0  0  0  0  0  0  0  0  0
   20.1928  -27.0987  -14.3636 C   0  0  2  0  0  0  0  0  0  0  0  0
   18.8279  -26.8552  -14.7321 N   0  0  0  0  0  0  0  0  0  0  0  0
   20.1775  -28.3061  -13.4564 C   0  0  0  0  0  0  0  0  0  0  0  0
   19.6027  -28.2940  -12.3379 O   0  0  0  0  0  0  0  0  0  0  0  0
   16.7037  -22.4681  -11.8419 C   0  0  0  0  0  0  0  0  0  0  0  0
   20.3725  -33.0632  -12.9984 C   0  0  2  0  0  0  0  0  0  0  0  0
   20.2775  -31.7908  -13.8616 O   0  0  0  0  0  0  0  0  0  0  0  0
   18.9038  -31.6396  -14.0984 C   0  0  1  0  0  0  0  0  0  0  0  0
   20.7951  -30.6861  -12.9531 N   0  0  0  0  0  0  0  0  0  0  0  0
   20.8151  -29.5029  -13.8372 C   0  0  0  0  0  0  0  0  0  0  0  0
   22.1491  -30.9033  -12.4543 O   0  0  0  0  0  0  0  0  0  0  0  0
   23.1131  -30.7666  -13.2887 N   0  0  0  0  0  0  0  0  0  0  0  0
   22.5313  -31.2504  -11.1396 C   0  0  0  0  0  0  0  0  0  0  0  0
   21.6338  -31.4779   -9.9985 C   0  0  0  0  0  0  0  0  0  0  0  0
   22.3120  -30.7048   -8.9137 C   0  0  0  0  0  0  0  0  0  0  0  0
   23.7815  -30.9540   -9.1658 C   0  0  1  0  0  0  0  0  0  0  0  0
   23.8476  -31.4818  -10.6002 C   0  0  0  0  0  0  0  0  0  0  0  0
   24.0991  -32.9498  -10.5785 O   0  0  0  0  0  0  0  0  0  0  0  0
   23.0638  -33.8329  -10.7002 O   0  0  0  0  0  0  0  0  0  0  0  0
  2  1  1  0
  3  2  2  0
  4  2  1  0
  5  6  1  0
  5  4  1  0
  7  6  1  0
  8  7  1  0
  8  9  1  1
 10  8  1  0
 11 10  2  0
 13 12  1  6
 13 15  1  0
 14 13  1  0
 15 17  1  0
 15 16  1  6
 16 10  1  0
 17 18  2  0
 19 20  1  0
 19 17  1  0
 21 20  1  0
 22 21  1  0
 22 23  1  0
 23 19  1  0
 23 24  1  6
 24 25  1  0
 26 24  2  0
M  END
$$$$
