RTP.pdb
     RDKit          3D

 26 26  0  0  1  0  0  0  0  0999 V2000
   23.5480  -21.7883   -7.5177 N   0  0  0  0  0  0  0  0  0  0  0  0
   22.7002  -21.1380   -8.4368 C   0  0  0  0  0  0  0  0  0  0  0  0
   21.4130  -21.2148   -8.3873 N   0  0  0  0  0  0  0  0  0  0  0  0
   23.3032  -20.3475   -9.4851 N   0  0  0  0  0  0  0  0  0  0  0  0
   24.5837  -20.8136   -9.9979 C   0  0  0  0  0  0  0  0  0  0  0  0
   24.3457  -21.8177  -11.0901 C   0  0  0  0  0  0  0  0  0  0  0  0
   23.5677  -21.2312  -12.2082 C   0  0  0  0  0  0  0  0  0  0  0  0
   24.2104  -21.2377  -13.5412 C   0  0  2  0  0  0  0  0  0  0  0  0
   25.3897  -22.0417  -13.6850 N   0  0  0  0  0  0  0  0  0  0  0  0
   24.6310  -19.8148  -13.8237 C   0  0  0  0  0  0  0  0  0  0  0  0
   24.0281  -18.8291  -13.3273 O   0  0  0  0  0  0  0  0  0  0  0  0
   20.8081  -20.7047   -9.0631 C   0  0  0  0  0  0  0  0  0  0  0  0
   28.1026  -18.8189  -13.5137 C   0  0  2  0  0  0  0  0  0  0  0  0
   27.7182  -18.3166  -14.9183 O   0  0  0  0  0  0  0  0  0  0  0  0
   28.0720  -19.3739  -15.7686 C   0  0  2  0  0  0  0  0  0  0  0  0
   26.2070  -18.1557  -14.8544 N   0  0  0  0  0  0  0  0  0  0  0  0
   25.7274  -19.5397  -14.6640 C   0  0  0  0  0  0  0  0  0  0  0  0
   25.6063  -17.6310  -16.0764 O   0  0  0  0  0  0  0  0  0  0  0  0
   25.0823  -18.4768  -16.8853 N   0  0  0  0  0  0  0  0  0  0  0  0
   25.5307  -16.2798  -16.4809 C   0  0  0  0  0  0  0  0  0  0  0  0
   26.1005  -15.1224  -15.7774 C   0  0  0  0  0  0  0  0  0  0  0  0
   24.9669  -14.1489  -15.8164 C   0  0  0  0  0  0  0  0  0  0  0  0
   24.3662  -14.3586  -17.1876 C   0  0  1  0  0  0  0  0  0  0  0  0
   24.9161  -15.7083  -17.6526 C   0  0  0  0  0  0  0  0  0  0  0  0
   25.9709  -15.4877  -18.6808 O   0  0  0  0  0  0  0  0  0  0  0  0
   25.6346  -15.1094  -19.9498 O   0  0  0  0  0  0  0  0  0  0  0  0
  2  1  1  0
  3  2  2  0
  4  2  1  0
  5  6  1  0
  5  4  1  0
  7  6  1  0
  8  7  1  0
  8  9  1  1
 10  8  1  0
 11 10  2  0
 13 12  1  6
 13 15  1  0
 14 13  1  0
 15 17  1  0
 15 16  1  6
 16 10  1  0
 17 18  2  0
 19 20  1  0
 19 17  1  0
 21 20  1  0
 22 21  1  0
 22 23  1  0
 23 19  1  0
 23 24  1  6
 24 25  1  0
 26 24  2  0
M  END
$$$$
