RIR.pdb
     RDKit          3D

 31 30  0  0  1  0  0  0  0  0999 V2000
   29.2659  -27.7644  -16.8902 N   0  0  0  0  0  0  0  0  0  0  0  0
   27.9203  -27.3276  -17.0437 C   0  0  0  0  0  0  0  0  0  0  0  0
   26.9649  -28.1774  -16.8874 N   0  0  0  0  0  0  0  0  0  0  0  0
   27.5733  -25.9936  -17.3624 N   0  0  0  0  0  0  0  0  0  0  0  0
   28.6060  -25.0378  -17.6055 C   0  0  0  0  0  0  0  0  0  0  0  0
   29.2106  -24.4555  -16.3791 C   0  0  0  0  0  0  0  0  0  0  0  0
   28.4778  -23.3558  -15.7159 C   0  0  0  0  0  0  0  0  0  0  0  0
   28.5016  -22.0431  -16.4094 C   0  0  2  0  0  0  0  0  0  0  0  0
   29.8109  -21.5456  -16.7344 N   0  0  0  0  0  0  0  0  0  0  0  0
   27.6844  -21.0043  -15.7402 C   0  0  0  0  0  0  0  0  0  0  0  0
   27.8817  -20.7857  -14.5172 O   0  0  0  0  0  0  0  0  0  0  0  0
   25.9668  -27.8999  -17.0063 C   0  0  0  0  0  0  0  0  0  0  0  0
   27.9255  -16.1337  -16.4130 C   0  0  0  0  0  0  0  0  0  0  0  0
   27.6225  -17.5143  -15.8649 C   0  0  2  0  0  0  0  0  0  0  0  0
   26.1747  -17.8713  -16.1333 C   0  0  0  0  0  0  0  0  0  0  0  0
   25.2416  -16.8693  -15.4948 C   0  0  2  0  0  0  0  0  0  0  0  0
   25.8622  -19.2846  -15.7014 N   0  0  0  0  0  0  0  0  0  0  0  0
   26.6962  -20.2432  -16.3902 C   0  0  0  0  0  0  0  0  0  0  0  0
   24.4094  -19.5135  -16.0420 O   0  0  0  0  0  0  0  0  0  0  0  0
   23.9867  -19.3599  -17.2189 N   0  0  0  0  0  0  0  0  0  0  0  0
   18.9181  -20.4049  -10.8936 C   0  0  0  0  0  0  0  0  0  0  0  0
   17.8108  -20.2214  -11.7861 N   0  0  0  0  0  0  0  0  0  0  0  0
   16.8134  -19.5397  -11.3591 N   0  0  0  0  0  0  0  0  0  0  0  0
   17.8712  -20.7939  -13.0778 C   0  0  0  0  0  0  0  0  0  0  0  0
   19.0503  -21.5730  -13.4138 C   0  0  0  0  0  0  0  0  0  0  0  0
   19.8019  -20.8478  -14.4885 C   0  0  0  0  0  0  0  0  0  0  0  0
   21.2674  -20.7436  -14.2932 C   0  0  1  0  0  0  0  0  0  0  0  0
   22.0453  -20.0238  -15.3318 N   0  0  0  0  0  0  0  0  0  0  0  0
   23.4657  -19.9084  -15.0584 C   0  0  0  0  0  0  0  0  0  0  0  0
   21.5316  -18.6808  -15.6897 O   0  0  0  0  0  0  0  0  0  0  0  0
   21.8124  -17.6414  -15.0391 O   0  0  0  0  0  0  0  0  0  0  0  0
  2  1  1  0
  3  2  2  0
  4  2  1  0
  5  4  1  0
  6  5  1  0
  7  6  1  0
  8  7  1  0
  8  9  1  1
 10  8  1  0
 10 11  2  0
 13 12  1  0
 14 16  1  0
 14 13  1  0
 14 15  1  6
 16 17  1  1
 17 10  1  0
 18 16  1  0
 19 18  2  0
 21 22  2  0
 21 20  1  0
 23 21  1  0
 24 23  1  0
 25 24  1  0
 26 25  1  0
 27 26  1  6
 27 28  1  0
 28 18  1  0
 29 31  1  0
 29 27  1  0
 30 29  2  0
M  END
$$$$
