RIR.pdb
     RDKit          3D

 31 30  0  0  1  0  0  0  0  0999 V2000
   16.8389  -24.8399   -6.8426 N   0  0  0  0  0  0  0  0  0  0  0  0
   16.4083  -24.9920   -8.1903 C   0  0  0  0  0  0  0  0  0  0  0  0
   15.1533  -25.1536   -8.4318 N   0  0  0  0  0  0  0  0  0  0  0  0
   17.2966  -24.9743   -9.2913 N   0  0  0  0  0  0  0  0  0  0  0  0
   18.6616  -24.6078   -9.0870 C   0  0  0  0  0  0  0  0  0  0  0  0
   18.9023  -23.1438   -9.0001 C   0  0  0  0  0  0  0  0  0  0  0  0
   19.7913  -22.5394  -10.0151 C   0  0  0  0  0  0  0  0  0  0  0  0
   21.2477  -22.7509   -9.8173 C   0  0  2  0  0  0  0  0  0  0  0  0
   21.6182  -23.3108   -8.5458 N   0  0  0  0  0  0  0  0  0  0  0  0
   22.0685  -21.5602  -10.1383 C   0  0  0  0  0  0  0  0  0  0  0  0
   21.4775  -20.4875  -10.4254 O   0  0  0  0  0  0  0  0  0  0  0  0
   14.8097  -25.3799   -9.3900 C   0  0  0  0  0  0  0  0  0  0  0  0
   25.5707  -20.8788   -7.2269 C   0  0  0  0  0  0  0  0  0  0  0  0
   25.0242  -19.8581   -8.2056 C   0  0  2  0  0  0  0  0  0  0  0  0
   25.4480  -20.2148   -9.6158 C   0  0  0  0  0  0  0  0  0  0  0  0
   26.4199  -19.1963  -10.1641 C   0  0  2  0  0  0  0  0  0  0  0  0
   24.2552  -20.3989  -10.5241 N   0  0  0  0  0  0  0  0  0  0  0  0
   23.4750  -21.5541  -10.1426 C   0  0  0  0  0  0  0  0  0  0  0  0
   24.8138  -20.5796  -11.9150 O   0  0  0  0  0  0  0  0  0  0  0  0
   25.2947  -21.6845  -12.2827 N   0  0  0  0  0  0  0  0  0  0  0  0
   29.6308  -23.8920  -15.3731 C   0  0  0  0  0  0  0  0  0  0  0  0
   29.0532  -23.4559  -16.6110 N   0  0  0  0  0  0  0  0  0  0  0  0
   28.8584  -24.3405  -17.5172 N   0  0  0  0  0  0  0  0  0  0  0  0
   28.7302  -22.0883  -16.7708 C   0  0  0  0  0  0  0  0  0  0  0  0
   28.6338  -21.2753  -15.5709 C   0  0  0  0  0  0  0  0  0  0  0  0
   27.2957  -20.6003  -15.5671 C   0  0  0  0  0  0  0  0  0  0  0  0
   26.7072  -20.3415  -14.2318 C   0  0  1  0  0  0  0  0  0  0  0  0
   25.3936  -19.6528  -14.1862 N   0  0  0  0  0  0  0  0  0  0  0  0
   24.8205  -19.5207  -12.8597 C   0  0  0  0  0  0  0  0  0  0  0  0
   24.3560  -20.2092  -15.0861 O   0  0  0  0  0  0  0  0  0  0  0  0
   23.2310  -20.5989  -14.6800 O   0  0  0  0  0  0  0  0  0  0  0  0
  2  1  1  0
  3  2  2  0
  4  2  1  0
  5  4  1  0
  6  5  1  0
  7  6  1  0
  8  7  1  0
  8  9  1  1
 10  8  1  0
 10 11  2  0
 13 12  1  0
 14 16  1  0
 14 13  1  0
 14 15  1  6
 16 17  1  6
 17 10  1  0
 18 16  1  0
 19 18  2  0
 21 22  2  0
 21 20  1  0
 23 21  1  0
 24 23  1  0
 25 24  1  0
 26 25  1  0
 27 26  1  1
 27 28  1  0
 28 18  1  0
 29 31  1  0
 29 27  1  0
 30 29  2  0
M  END
$$$$
