RIR.pdb
     RDKit          3D

 31 30  0  0  1  0  0  0  0  0999 V2000
   19.9240  -22.4890   -7.2764 N   0  0  0  0  0  0  0  0  0  0  0  0
   19.7866  -22.9605   -8.6119 C   0  0  0  0  0  0  0  0  0  0  0  0
   18.6239  -23.3247   -9.0305 N   0  0  0  0  0  0  0  0  0  0  0  0
   20.8725  -23.0509   -9.5143 N   0  0  0  0  0  0  0  0  0  0  0  0
   22.0622  -22.3036   -9.2592 C   0  0  0  0  0  0  0  0  0  0  0  0
   22.1038  -20.9671   -9.9080 C   0  0  0  0  0  0  0  0  0  0  0  0
   23.3709  -20.2097   -9.8242 C   0  0  0  0  0  0  0  0  0  0  0  0
   24.5937  -20.9318  -10.2578 C   0  0  2  0  0  0  0  0  0  0  0  0
   25.3925  -21.4773   -9.1941 N   0  0  0  0  0  0  0  0  0  0  0  0
   25.4261  -20.1663  -11.2148 C   0  0  0  0  0  0  0  0  0  0  0  0
   26.1251  -19.2184  -10.7727 O   0  0  0  0  0  0  0  0  0  0  0  0
   18.4876  -23.7043   -9.9921 C   0  0  0  0  0  0  0  0  0  0  0  0
   28.8140  -22.4317  -14.3584 C   0  0  0  0  0  0  0  0  0  0  0  0
   28.0927  -21.4144  -13.4962 C   0  0  2  0  0  0  0  0  0  0  0  0
   27.1727  -20.5692  -14.3533 C   0  0  0  0  0  0  0  0  0  0  0  0
   27.9558  -19.7881  -15.3824 C   0  0  2  0  0  0  0  0  0  0  0  0
   26.2995  -19.6698  -13.5104 N   0  0  0  0  0  0  0  0  0  0  0  0
   25.4840  -20.4343  -12.5943 C   0  0  0  0  0  0  0  0  0  0  0  0
   25.4270  -18.9084  -14.4789 O   0  0  0  0  0  0  0  0  0  0  0  0
   24.5792  -19.5045  -15.1953 N   0  0  0  0  0  0  0  0  0  0  0  0
   20.1656  -12.7236  -15.0981 C   0  0  0  0  0  0  0  0  0  0  0  0
   20.6717  -12.6203  -16.4358 N   0  0  0  0  0  0  0  0  0  0  0  0
   19.9410  -12.0198  -17.3001 N   0  0  0  0  0  0  0  0  0  0  0  0
   21.9364  -13.1788  -16.7336 C   0  0  0  0  0  0  0  0  0  0  0  0
   22.5968  -13.9432  -15.6898 C   0  0  0  0  0  0  0  0  0  0  0  0
   23.9148  -14.4208  -16.2197 C   0  0  0  0  0  0  0  0  0  0  0  0
   24.7136  -15.2636  -15.2988 C   0  0  1  0  0  0  0  0  0  0  0  0
   24.6454  -16.7340  -15.4863 N   0  0  0  0  0  0  0  0  0  0  0  0
   25.5241  -17.4999  -14.6221 C   0  0  0  0  0  0  0  0  0  0  0  0
   24.8394  -17.2040  -16.8782 O   0  0  0  0  0  0  0  0  0  0  0  0
   25.9737  -17.3883  -17.3898 O   0  0  0  0  0  0  0  0  0  0  0  0
  2  1  1  0
  3  2  2  0
  4  2  1  0
  5  4  1  0
  6  5  1  0
  7  6  1  0
  8  7  1  0
  8  9  1  1
 10  8  1  0
 10 11  2  0
 13 12  1  0
 14 16  1  0
 14 13  1  0
 14 15  1  6
 16 17  1  1
 17 10  1  0
 18 16  1  0
 19 18  2  0
 21 22  2  0
 21 20  1  0
 23 21  1  0
 24 23  1  0
 25 24  1  0
 26 25  1  0
 27 26  1  1
 27 28  1  0
 28 18  1  0
 29 31  1  0
 29 27  1  0
 30 29  2  0
M  END
$$$$
