RIR.pdb
     RDKit          3D

 31 30  0  0  1  0  0  0  0  0999 V2000
   27.3374  -17.6488  -18.8555 N   0  0  0  0  0  0  0  0  0  0  0  0
   26.5300  -18.4445  -19.7156 C   0  0  0  0  0  0  0  0  0  0  0  0
   26.6831  -18.3408  -20.9905 N   0  0  0  0  0  0  0  0  0  0  0  0
   25.5572  -19.3540  -19.2381 N   0  0  0  0  0  0  0  0  0  0  0  0
   25.3911  -19.5306  -17.8309 C   0  0  0  0  0  0  0  0  0  0  0  0
   24.3288  -20.4978  -17.4503 C   0  0  0  0  0  0  0  0  0  0  0  0
   24.0553  -20.6748  -16.0082 C   0  0  0  0  0  0  0  0  0  0  0  0
   25.1874  -21.1685  -15.1840 C   0  0  2  0  0  0  0  0  0  0  0  0
   26.0463  -22.1224  -15.8318 N   0  0  0  0  0  0  0  0  0  0  0  0
   24.7809  -21.6395  -13.8396 C   0  0  0  0  0  0  0  0  0  0  0  0
   24.6531  -22.8771  -13.6541 O   0  0  0  0  0  0  0  0  0  0  0  0
   26.1086  -18.9041  -21.6537 C   0  0  0  0  0  0  0  0  0  0  0  0
   26.3410  -18.9292   -9.4426 C   0  0  0  0  0  0  0  0  0  0  0  0
   25.9929  -20.1693  -10.2422 C   0  0  2  0  0  0  0  0  0  0  0  0
   24.4883  -20.3052  -10.3575 C   0  0  0  0  0  0  0  0  0  0  0  0
   23.8754  -20.6919   -9.0318 C   0  0  2  0  0  0  0  0  0  0  0  0
   24.1003  -21.2653  -11.4572 N   0  0  0  0  0  0  0  0  0  0  0  0
   24.5272  -20.7849  -12.7517 C   0  0  0  0  0  0  0  0  0  0  0  0
   22.5951  -21.3708  -11.4073 O   0  0  0  0  0  0  0  0  0  0  0  0
   21.8670  -20.5790  -12.0632 N   0  0  0  0  0  0  0  0  0  0  0  0
   16.8876  -24.7733   -6.2150 C   0  0  0  0  0  0  0  0  0  0  0  0
   16.0383  -24.7922   -7.3703 N   0  0  0  0  0  0  0  0  0  0  0  0
   14.7729  -24.7446   -7.1752 N   0  0  0  0  0  0  0  0  0  0  0  0
   16.6298  -24.8615   -8.6530 C   0  0  0  0  0  0  0  0  0  0  0  0
   18.0802  -24.8977   -8.7238 C   0  0  0  0  0  0  0  0  0  0  0  0
   18.5384  -23.7435   -9.5627 C   0  0  0  0  0  0  0  0  0  0  0  0
   20.0057  -23.5952   -9.7103 C   0  0  1  0  0  0  0  0  0  0  0  0
   20.4977  -22.4819  -10.5590 N   0  0  0  0  0  0  0  0  0  0  0  0
   21.9420  -22.3587  -10.6255 C   0  0  0  0  0  0  0  0  0  0  0  0
   19.9328  -21.1487  -10.2438 O   0  0  0  0  0  0  0  0  0  0  0  0
   20.3645  -20.4220   -9.3121 O   0  0  0  0  0  0  0  0  0  0  0  0
  2  1  1  0
  3  2  2  0
  4  2  1  0
  5  4  1  0
  6  5  1  0
  7  6  1  0
  8  7  1  0
  8  9  1  6
 10  8  1  0
 10 11  2  0
 13 12  1  0
 14 16  1  0
 14 13  1  0
 14 15  1  6
 16 17  1  1
 17 10  1  0
 18 16  1  0
 19 18  2  0
 21 22  2  0
 21 20  1  0
 23 21  1  0
 24 23  1  0
 25 24  1  0
 26 25  1  0
 27 26  1  6
 27 28  1  0
 28 18  1  0
 29 31  1  0
 29 27  1  0
 30 29  2  0
M  END
$$$$
