RIR.pdb
     RDKit          3D

 31 30  0  0  1  0  0  0  0  0999 V2000
   12.9673  -21.3550   -3.1808 N   0  0  0  0  0  0  0  0  0  0  0  0
   12.4081  -22.6635   -3.1873 C   0  0  0  0  0  0  0  0  0  0  0  0
   11.2260  -22.8364   -3.6693 N   0  0  0  0  0  0  0  0  0  0  0  0
   13.0905  -23.7972   -2.6867 N   0  0  0  0  0  0  0  0  0  0  0  0
   14.5136  -23.8611   -2.7855 C   0  0  0  0  0  0  0  0  0  0  0  0
   15.0362  -23.8887   -4.1765 C   0  0  0  0  0  0  0  0  0  0  0  0
   16.5026  -23.9610   -4.3506 C   0  0  0  0  0  0  0  0  0  0  0  0
   17.0701  -25.3173   -4.5580 C   0  0  2  0  0  0  0  0  0  0  0  0
   17.6128  -25.9407   -3.3815 N   0  0  0  0  0  0  0  0  0  0  0  0
   18.0194  -25.3956   -5.6926 C   0  0  0  0  0  0  0  0  0  0  0  0
   19.2358  -25.5939   -5.4404 O   0  0  0  0  0  0  0  0  0  0  0  0
   10.7986  -23.7855   -3.7314 C   0  0  0  0  0  0  0  0  0  0  0  0
   19.2990  -27.7724  -10.9393 C   0  0  0  0  0  0  0  0  0  0  0  0
   19.4573  -26.5064  -10.1203 C   0  0  2  0  0  0  0  0  0  0  0  0
   18.4296  -26.4782   -9.0074 C   0  0  0  0  0  0  0  0  0  0  0  0
   17.0277  -26.5814   -9.5610 C   0  0  2  0  0  0  0  0  0  0  0  0
   18.5979  -25.2624   -8.1270 N   0  0  0  0  0  0  0  0  0  0  0  0
   17.6440  -25.2612   -7.0413 C   0  0  0  0  0  0  0  0  0  0  0  0
   18.3764  -24.0661   -9.0209 O   0  0  0  0  0  0  0  0  0  0  0  0
   17.2147  -23.6416   -9.2610 N   0  0  0  0  0  0  0  0  0  0  0  0
   23.6700  -19.9589  -14.9839 C   0  0  0  0  0  0  0  0  0  0  0  0
   22.3338  -19.5308  -15.2798 N   0  0  0  0  0  0  0  0  0  0  0  0
   22.1648  -18.7891  -16.3108 N   0  0  0  0  0  0  0  0  0  0  0  0
   21.2800  -19.9420  -14.4309 C   0  0  0  0  0  0  0  0  0  0  0  0
   21.6272  -20.7297  -13.2609 C   0  0  0  0  0  0  0  0  0  0  0  0
   20.3653  -21.0489  -12.5183 C   0  0  0  0  0  0  0  0  0  0  0  0
   20.5108  -21.9646  -11.3620 C   0  0  1  0  0  0  0  0  0  0  0  0
   19.2743  -22.3575  -10.6421 N   0  0  0  0  0  0  0  0  0  0  0  0
   19.4591  -23.3745   -9.6237 C   0  0  0  0  0  0  0  0  0  0  0  0
   18.1422  -22.7672  -11.5061 O   0  0  0  0  0  0  0  0  0  0  0  0
   18.0438  -23.9147  -12.0121 O   0  0  0  0  0  0  0  0  0  0  0  0
  2  1  1  0
  3  2  2  0
  4  2  1  0
  5  4  1  0
  6  5  1  0
  7  6  1  0
  8  7  1  0
  8  9  1  1
 10  8  1  0
 10 11  2  0
 13 12  1  0
 14 16  1  0
 14 13  1  0
 14 15  1  1
 16 17  1  6
 17 10  1  0
 18 16  1  0
 19 18  2  0
 21 22  2  0
 21 20  1  0
 23 21  1  0
 24 23  1  0
 25 24  1  0
 26 25  1  0
 27 26  1  1
 27 28  1  0
 28 18  1  0
 29 31  1  0
 29 27  1  0
 30 29  2  0
M  END
$$$$
