RIR.pdb
     RDKit          3D

 31 30  0  0  1  0  0  0  0  0999 V2000
   13.6992  -11.2429    4.4901 N   0  0  0  0  0  0  0  0  0  0  0  0
   12.5435  -12.0322    4.7472 C   0  0  0  0  0  0  0  0  0  0  0  0
   11.4241  -11.6983    4.2041 N   0  0  0  0  0  0  0  0  0  0  0  0
   12.5601  -13.1778    5.5773 N   0  0  0  0  0  0  0  0  0  0  0  0
   13.8055  -13.8055    5.8838 C   0  0  0  0  0  0  0  0  0  0  0  0
   14.3112  -14.7233    4.8298 C   0  0  0  0  0  0  0  0  0  0  0  0
   15.5780  -15.4363    5.0995 C   0  0  0  0  0  0  0  0  0  0  0  0
   16.7732  -14.5838    5.3218 C   0  0  2  0  0  0  0  0  0  0  0  0
   17.0121  -13.5885    4.3119 N   0  0  0  0  0  0  0  0  0  0  0  0
   18.0039  -15.3537    5.6173 C   0  0  0  0  0  0  0  0  0  0  0  0
   18.5233  -16.0276    4.6907 O   0  0  0  0  0  0  0  0  0  0  0  0
   10.5490  -12.2335    4.3914 C   0  0  0  0  0  0  0  0  0  0  0  0
   21.6255  -13.9004    9.5491 C   0  0  0  0  0  0  0  0  0  0  0  0
   21.0122  -14.3809    8.2485 C   0  0  2  0  0  0  0  0  0  0  0  0
   20.4810  -15.7899    8.4163 C   0  0  0  0  0  0  0  0  0  0  0  0
   21.5876  -16.7448    8.7987 C   0  0  2  0  0  0  0  0  0  0  0  0
   19.7391  -16.2537    7.1850 N   0  0  0  0  0  0  0  0  0  0  0  0
   18.6312  -15.3787    6.8758 C   0  0  0  0  0  0  0  0  0  0  0  0
   19.2384  -17.6431    7.4983 O   0  0  0  0  0  0  0  0  0  0  0  0
   18.3444  -17.8304    8.3660 N   0  0  0  0  0  0  0  0  0  0  0  0
   17.9648  -25.0910    2.9286 C   0  0  0  0  0  0  0  0  0  0  0  0
   17.6058  -25.4234    4.2765 N   0  0  0  0  0  0  0  0  0  0  0  0
   17.0831  -26.5748    4.4828 N   0  0  0  0  0  0  0  0  0  0  0  0
   17.8427  -24.4772    5.3006 C   0  0  0  0  0  0  0  0  0  0  0  0
   18.1997  -23.1274    4.8998 C   0  0  0  0  0  0  0  0  0  0  0  0
   18.4843  -22.3301    6.1364 C   0  0  0  0  0  0  0  0  0  0  0  0
   18.9479  -20.9398    5.9155 C   0  0  1  0  0  0  0  0  0  0  0  0
   19.2860  -20.1339    7.1146 N   0  0  0  0  0  0  0  0  0  0  0  0
   19.7494  -18.7879    6.8334 C   0  0  0  0  0  0  0  0  0  0  0  0
   20.2424  -20.7668    8.0531 O   0  0  0  0  0  0  0  0  0  0  0  0
   21.4813  -20.5508    8.0218 O   0  0  0  0  0  0  0  0  0  0  0  0
  2  1  1  0
  3  2  2  0
  4  2  1  0
  5  4  1  0
  6  5  1  0
  7  6  1  0
  8  7  1  0
  8  9  1  6
 10  8  1  0
 10 11  2  0
 13 12  1  0
 14 16  1  0
 14 13  1  0
 14 15  1  1
 16 17  1  6
 17 10  1  0
 18 16  1  0
 19 18  2  0
 21 22  2  0
 21 20  1  0
 23 21  1  0
 24 23  1  0
 25 24  1  0
 26 25  1  0
 27 26  1  1
 27 28  1  0
 28 18  1  0
 29 31  1  0
 29 27  1  0
 30 29  2  0
M  END
$$$$
