HRH.pdb
     RDKit          3D

 32 33  0  0  1  0  0  0  0  0999 V2000
   24.8742  -26.3555  -15.9587 N   0  0  0  0  0  0  0  0  0  0  0  0
   25.7381  -25.8876  -17.0044 C   0  0  1  0  0  0  0  0  0  0  0  0
   25.7987  -24.3853  -16.9754 C   0  0  0  0  0  0  0  0  0  0  0  0
   24.4655  -23.8277  -17.2976 C   0  0  0  0  0  0  0  0  0  0  0  0
   23.6476  -24.2093  -18.3326 C   0  0  0  0  0  0  0  0  0  0  0  0
   22.5299  -23.4434  -18.2642 N   0  0  0  0  0  0  0  0  0  0  0  0
   22.6416  -22.6089  -17.2218 C   0  0  0  0  0  0  0  0  0  0  0  0
   23.8269  -22.8328  -16.6167 N   0  0  0  0  0  0  0  0  0  0  0  0
   27.0949  -26.4826  -16.9195 C   0  0  0  0  0  0  0  0  0  0  0  0
   27.7906  -26.2729  -15.9176 O   0  0  0  0  0  0  0  0  0  0  0  0
   28.7892  -33.8019  -14.9898 N   0  0  0  0  0  0  0  0  0  0  0  0
   28.9420  -33.2613  -16.2903 C   0  0  0  0  0  0  0  0  0  0  0  0
   29.1934  -34.0213  -17.3289 N   0  0  0  0  0  0  0  0  0  0  0  0
   28.8339  -31.8633  -16.5645 N   0  0  0  0  0  0  0  0  0  0  0  0
   28.0604  -30.9499  -15.7510 C   0  0  0  0  0  0  0  0  0  0  0  0
   28.2121  -29.5241  -16.1782 C   0  0  0  0  0  0  0  0  0  0  0  0
   28.5883  -29.4114  -17.6166 C   0  0  0  0  0  0  0  0  0  0  0  0
   28.7870  -27.9570  -17.9683 C   0  0  2  0  0  0  0  0  0  0  0  0
   27.5357  -27.2693  -17.9979 N   0  0  0  0  0  0  0  0  0  0  0  0
   29.3834  -27.8825  -19.3551 C   0  0  0  0  0  0  0  0  0  0  0  0
   28.6012  -27.8604  -20.3383 O   0  0  0  0  0  0  0  0  0  0  0  0
   29.5000  -33.5375  -18.1983 N   0  0  0  0  0  0  0  0  0  0  0  0
   30.7766  -27.8417  -19.4931 C   0  0  2  0  0  0  0  0  0  0  0  0
   31.3631  -27.8460  -20.8360 C   0  0  0  0  0  0  0  0  0  0  0  0
   32.5735  -26.9606  -20.8463 C   0  0  0  0  0  0  0  0  0  0  0  0
   32.1801  -25.5380  -20.9070 C   0  0  0  0  0  0  0  0  0  0  0  0
   30.8665  -25.0803  -21.0193 N   0  0  0  0  0  0  0  0  0  0  0  0
   30.8745  -23.7472  -21.0440 C   0  0  0  0  0  0  0  0  0  0  0  0
   32.1372  -23.3176  -20.9528 N   0  0  0  0  0  0  0  0  0  0  0  0
   32.9058  -24.4132  -20.8715 C   0  0  0  0  0  0  0  0  0  0  0  0
   31.6705  -29.2658  -21.2093 O   0  0  0  0  0  0  0  0  0  0  0  0
   32.1960  -29.4710  -22.4955 O   0  0  0  0  0  0  0  0  0  0  0  0
  2  1  1  1
  2  3  1  0
  4  3  1  0
  5  4  2  0
  6  5  1  0
  7  6  1  0
  7  8  2  0
  8  4  1  0
  9  2  1  0
  9 10  2  0
 12 11  1  0
 13 12  2  0
 14 12  1  0
 15 14  1  0
 16 17  1  0
 16 15  1  0
 18 19  1  0
 18 17  1  6
 19  9  1  0
 20 18  1  0
 21 20  2  0
 22 20  1  0
 23 22  1  0
 23 24  1  1
 24 25  1  0
 25 26  2  0
 25 29  1  0
 26 27  1  0
 27 28  1  0
 29 28  2  0
 30 23  1  0
 30 31  1  0
 32 30  2  0
M  END
$$$$
