HRH.pdb
     RDKit          3D

 32 33  0  0  1  0  0  0  0  0999 V2000
   27.9299  -16.2780  -18.9551 N   0  0  0  0  0  0  0  0  0  0  0  0
   26.5637  -16.3161  -19.3920 C   0  0  1  0  0  0  0  0  0  0  0  0
   26.2626  -17.6616  -19.9923 C   0  0  0  0  0  0  0  0  0  0  0  0
   27.0482  -17.8388  -21.2347 C   0  0  0  0  0  0  0  0  0  0  0  0
   26.9973  -17.0457  -22.3547 C   0  0  0  0  0  0  0  0  0  0  0  0
   27.8712  -17.5642  -23.2536 N   0  0  0  0  0  0  0  0  0  0  0  0
   28.4514  -18.6462  -22.7168 C   0  0  0  0  0  0  0  0  0  0  0  0
   27.9558  -18.8285  -21.4749 N   0  0  0  0  0  0  0  0  0  0  0  0
   25.6156  -15.9908  -18.2977 C   0  0  0  0  0  0  0  0  0  0  0  0
   25.8459  -16.3961  -17.1512 O   0  0  0  0  0  0  0  0  0  0  0  0
   18.3645  -12.5256  -17.3740 N   0  0  0  0  0  0  0  0  0  0  0  0
   18.9152  -11.7211  -16.3463 C   0  0  0  0  0  0  0  0  0  0  0  0
   18.1749  -11.2312  -15.3812 N   0  0  0  0  0  0  0  0  0  0  0  0
   20.3032  -11.3878  -16.2847 N   0  0  0  0  0  0  0  0  0  0  0  0
   21.2644  -11.7920  -17.2883 C   0  0  0  0  0  0  0  0  0  0  0  0
   21.9693  -13.0636  -16.9356 C   0  0  0  0  0  0  0  0  0  0  0  0
   22.9482  -13.4667  -17.9856 C   0  0  0  0  0  0  0  0  0  0  0  0
   23.5502  -14.8020  -17.6208 C   0  0  2  0  0  0  0  0  0  0  0  0
   24.4808  -15.2254  -18.6180 N   0  0  0  0  0  0  0  0  0  0  0  0
   22.4382  -15.8244  -17.5686 C   0  0  0  0  0  0  0  0  0  0  0  0
   21.8126  -16.0771  -18.6287 O   0  0  0  0  0  0  0  0  0  0  0  0
   18.6632  -10.6555  -14.6643 N   0  0  0  0  0  0  0  0  0  0  0  0
   22.1469  -16.4481  -16.3489 C   0  0  2  0  0  0  0  0  0  0  0  0
   21.0641  -17.4337  -16.2897 C   0  0  0  0  0  0  0  0  0  0  0  0
   21.4832  -18.5717  -15.4074 C   0  0  0  0  0  0  0  0  0  0  0  0
   20.4454  -19.6226  -15.3813 C   0  0  0  0  0  0  0  0  0  0  0  0
   19.1949  -19.5206  -15.9924 N   0  0  0  0  0  0  0  0  0  0  0  0
   18.5145  -20.6463  -15.7735 C   0  0  0  0  0  0  0  0  0  0  0  0
   19.2685  -21.4764  -15.0459 N   0  0  0  0  0  0  0  0  0  0  0  0
   20.4266  -20.8389  -14.8216 C   0  0  0  0  0  0  0  0  0  0  0  0
   19.8248  -16.7407  -15.8062 O   0  0  0  0  0  0  0  0  0  0  0  0
   18.6037  -17.3602  -16.1188 O   0  0  0  0  0  0  0  0  0  0  0  0
  2  1  1  1
  2  3  1  0
  4  3  1  0
  5  4  2  0
  6  5  1  0
  7  6  1  0
  7  8  2  0
  8  4  1  0
  9  2  1  0
  9 10  2  0
 12 11  1  0
 13 12  2  0
 14 12  1  0
 15 14  1  0
 16 17  1  0
 16 15  1  0
 18 19  1  0
 18 17  1  6
 19  9  1  0
 20 18  1  0
 21 20  2  0
 22 20  1  0
 23 22  1  0
 23 24  1  1
 24 25  1  0
 25 26  2  0
 25 29  1  0
 26 27  1  0
 27 28  1  0
 29 28  2  0
 30 23  1  0
 30 31  1  0
 32 30  2  0
M  END
$$$$
