HRH.pdb
     RDKit          3D

 32 33  0  0  1  0  0  0  0  0999 V2000
   26.9267  -21.8923  -10.9724 N   0  0  0  0  0  0  0  0  0  0  0  0
   25.6060  -21.4009  -11.2425 C   0  0  1  0  0  0  0  0  0  0  0  0
   25.0856  -20.6633  -10.0398 C   0  0  0  0  0  0  0  0  0  0  0  0
   23.6156  -20.5196  -10.1424 C   0  0  0  0  0  0  0  0  0  0  0  0
   22.9187  -19.9705  -11.1906 C   0  0  0  0  0  0  0  0  0  0  0  0
   21.6011  -20.0340  -10.8735 N   0  0  0  0  0  0  0  0  0  0  0  0
   21.4743  -20.6035   -9.6673 C   0  0  0  0  0  0  0  0  0  0  0  0
   22.7047  -20.9080   -9.2041 N   0  0  0  0  0  0  0  0  0  0  0  0
   25.5619  -20.5490  -12.4568 C   0  0  0  0  0  0  0  0  0  0  0  0
   26.3383  -19.5904  -12.5572 O   0  0  0  0  0  0  0  0  0  0  0  0
   27.7798  -22.7314  -15.9078 N   0  0  0  0  0  0  0  0  0  0  0  0
   27.7977  -22.5235  -17.3090 C   0  0  0  0  0  0  0  0  0  0  0  0
   28.3271  -23.3981  -18.1301 N   0  0  0  0  0  0  0  0  0  0  0  0
   27.2455  -21.3588  -17.9253 N   0  0  0  0  0  0  0  0  0  0  0  0
   26.5858  -20.3038  -17.1862 C   0  0  0  0  0  0  0  0  0  0  0  0
   25.1051  -20.4985  -17.0968 C   0  0  0  0  0  0  0  0  0  0  0  0
   24.7118  -21.2078  -15.8456 C   0  0  0  0  0  0  0  0  0  0  0  0
   24.6077  -20.2102  -14.7177 C   0  0  2  0  0  0  0  0  0  0  0  0
   24.6253  -20.8741  -13.4534 N   0  0  0  0  0  0  0  0  0  0  0  0
   23.2825  -19.4936  -14.8402 C   0  0  0  0  0  0  0  0  0  0  0  0
   22.2299  -20.1540  -14.6526 O   0  0  0  0  0  0  0  0  0  0  0  0
   28.2296  -23.2017  -19.1479 N   0  0  0  0  0  0  0  0  0  0  0  0
   23.2757  -18.1293  -15.1569 C   0  0  2  0  0  0  0  0  0  0  0  0
   21.9945  -17.4267  -15.2678 C   0  0  0  0  0  0  0  0  0  0  0  0
   22.2305  -16.0631  -15.8458 C   0  0  0  0  0  0  0  0  0  0  0  0
   20.9691  -15.2969  -15.9094 C   0  0  0  0  0  0  0  0  0  0  0  0
   19.7757  -15.6773  -15.2940 N   0  0  0  0  0  0  0  0  0  0  0  0
   18.8445  -14.7588  -15.5533 C   0  0  0  0  0  0  0  0  0  0  0  0
   19.3808  -13.7970  -16.3113 N   0  0  0  0  0  0  0  0  0  0  0  0
   20.6606  -14.1421  -16.5131 C   0  0  0  0  0  0  0  0  0  0  0  0
   21.0698  -18.2655  -16.0991 O   0  0  0  0  0  0  0  0  0  0  0  0
   19.7807  -18.4705  -15.5804 O   0  0  0  0  0  0  0  0  0  0  0  0
  2  1  1  1
  2  3  1  0
  4  3  1  0
  5  4  2  0
  6  5  1  0
  7  6  1  0
  7  8  2  0
  8  4  1  0
  9  2  1  0
  9 10  2  0
 12 11  1  0
 13 12  2  0
 14 12  1  0
 15 14  1  0
 16 17  1  0
 16 15  1  0
 18 19  1  0
 18 17  1  6
 19  9  1  0
 20 18  1  0
 21 20  2  0
 22 20  1  0
 23 22  1  0
 23 24  1  1
 24 25  1  0
 25 26  2  0
 25 29  1  0
 26 27  1  0
 27 28  1  0
 29 28  2  0
 30 23  1  0
 30 31  1  0
 32 30  2  0
M  END
$$$$
