HRH.pdb
     RDKit          3D

 32 33  0  0  1  0  0  0  0  0999 V2000
   14.7598  -11.1158  -16.2805 N   0  0  0  0  0  0  0  0  0  0  0  0
   15.6655  -10.0908  -16.7139 C   0  0  1  0  0  0  0  0  0  0  0  0
   14.9433   -8.7735  -16.7806 C   0  0  0  0  0  0  0  0  0  0  0  0
   13.8282   -8.8664  -17.7502 C   0  0  0  0  0  0  0  0  0  0  0  0
   12.4870   -8.7999  -17.4630 C   0  0  0  0  0  0  0  0  0  0  0  0
   11.8184   -8.9323  -18.6361 N   0  0  0  0  0  0  0  0  0  0  0  0
   12.7091   -9.0770  -19.6266 C   0  0  0  0  0  0  0  0  0  0  0  0
   13.9501   -9.0387  -19.0980 N   0  0  0  0  0  0  0  0  0  0  0  0
   16.8679  -10.0020  -15.8486 C   0  0  0  0  0  0  0  0  0  0  0  0
   16.7477   -9.6279  -14.6750 O   0  0  0  0  0  0  0  0  0  0  0  0
   22.1573  -16.2703  -16.9207 N   0  0  0  0  0  0  0  0  0  0  0  0
   21.3772  -16.0767  -15.7541 C   0  0  0  0  0  0  0  0  0  0  0  0
   21.2997  -16.9894  -14.8159 N   0  0  0  0  0  0  0  0  0  0  0  0
   20.6258  -14.8853  -15.5152 N   0  0  0  0  0  0  0  0  0  0  0  0
   20.5589  -13.7846  -16.4525 C   0  0  0  0  0  0  0  0  0  0  0  0
   19.6515  -12.6874  -15.9929 C   0  0  0  0  0  0  0  0  0  0  0  0
   20.2917  -11.3467  -16.1188 C   0  0  0  0  0  0  0  0  0  0  0  0
   19.3217  -10.2852  -15.6599 C   0  0  2  0  0  0  0  0  0  0  0  0
   18.1082  -10.3519  -16.4100 N   0  0  0  0  0  0  0  0  0  0  0  0
   19.9445   -8.9320  -15.9161 C   0  0  0  0  0  0  0  0  0  0  0  0
   19.9006   -8.4686  -17.0833 O   0  0  0  0  0  0  0  0  0  0  0  0
   20.6477  -16.7949  -14.0279 N   0  0  0  0  0  0  0  0  0  0  0  0
   20.5445   -8.2488  -14.8508 C   0  0  2  0  0  0  0  0  0  0  0  0
   21.1494   -6.9361  -15.0925 C   0  0  0  0  0  0  0  0  0  0  0  0
   20.1013   -6.0017  -15.6194 C   0  0  0  0  0  0  0  0  0  0  0  0
   20.6548   -4.6441  -15.8008 C   0  0  0  0  0  0  0  0  0  0  0  0
   21.1644   -4.1469  -17.0011 N   0  0  0  0  0  0  0  0  0  0  0  0
   21.5752   -2.8931  -16.8091 C   0  0  0  0  0  0  0  0  0  0  0  0
   21.3551   -2.5530  -15.5351 N   0  0  0  0  0  0  0  0  0  0  0  0
   20.8005   -3.6228  -14.9471 C   0  0  0  0  0  0  0  0  0  0  0  0
   21.7691   -6.4619  -13.8116 O   0  0  0  0  0  0  0  0  0  0  0  0
   22.6903   -5.4072  -13.9193 O   0  0  0  0  0  0  0  0  0  0  0  0
  2  1  1  1
  2  3  1  0
  4  3  1  0
  5  4  2  0
  6  5  1  0
  7  6  1  0
  7  8  2  0
  8  4  1  0
  9  2  1  0
  9 10  2  0
 12 11  1  0
 13 12  2  0
 14 12  1  0
 15 14  1  0
 16 17  1  0
 16 15  1  0
 18 19  1  0
 18 17  1  6
 19  9  1  0
 20 18  1  0
 21 20  2  0
 22 20  1  0
 23 22  1  0
 23 24  1  1
 24 25  1  0
 25 26  2  0
 25 29  1  0
 26 27  1  0
 27 28  1  0
 29 28  2  0
 30 23  1  0
 30 31  1  0
 32 30  2  0
M  END
$$$$
