HRH.pdb
     RDKit          3D

 32 33  0  0  1  0  0  0  0  0999 V2000
   40.9266  -24.8119    3.4620 N   0  0  0  0  0  0  0  0  0  0  0  0
   39.9841  -25.0742    4.5116 C   0  0  1  0  0  0  0  0  0  0  0  0
   40.0151  -23.9508    5.5109 C   0  0  0  0  0  0  0  0  0  0  0  0
   41.3588  -23.8708    6.1275 C   0  0  0  0  0  0  0  0  0  0  0  0
   42.3083  -22.9057    5.8970 C   0  0  0  0  0  0  0  0  0  0  0  0
   43.3871  -23.2140    6.6597 N   0  0  0  0  0  0  0  0  0  0  0  0
   43.1246  -24.3344    7.3460 C   0  0  0  0  0  0  0  0  0  0  0  0
   41.8806  -24.7511    7.0296 N   0  0  0  0  0  0  0  0  0  0  0  0
   38.6118  -25.2938    3.9913 C   0  0  0  0  0  0  0  0  0  0  0  0
   38.2753  -24.7720    2.9206 O   0  0  0  0  0  0  0  0  0  0  0  0
   37.4585  -31.6973    0.2018 N   0  0  0  0  0  0  0  0  0  0  0  0
   36.2975  -31.0319    0.6665 C   0  0  0  0  0  0  0  0  0  0  0  0
   35.1312  -31.1939    0.0895 N   0  0  0  0  0  0  0  0  0  0  0  0
   36.3103  -30.1451    1.7866 N   0  0  0  0  0  0  0  0  0  0  0  0
   37.5110  -29.8059    2.5199 C   0  0  0  0  0  0  0  0  0  0  0  0
   37.2618  -28.8129    3.6109 C   0  0  0  0  0  0  0  0  0  0  0  0
   36.7347  -27.5233    3.0795 C   0  0  0  0  0  0  0  0  0  0  0  0
   36.5010  -26.5693    4.2256 C   0  0  2  0  0  0  0  0  0  0  0  0
   37.7424  -26.0966    4.7502 N   0  0  0  0  0  0  0  0  0  0  0  0
   35.7935  -27.3203    5.3302 C   0  0  0  0  0  0  0  0  0  0  0  0
   36.4328  -28.2066    5.9506 O   0  0  0  0  0  0  0  0  0  0  0  0
   34.3346  -30.6540    0.4869 N   0  0  0  0  0  0  0  0  0  0  0  0
   34.4602  -27.0040    5.6196 C   0  0  2  0  0  0  0  0  0  0  0  0
   33.7430  -27.7842    6.6317 C   0  0  0  0  0  0  0  0  0  0  0  0
   32.9467  -26.8530    7.4965 C   0  0  0  0  0  0  0  0  0  0  0  0
   33.8198  -26.1737    8.4755 C   0  0  0  0  0  0  0  0  0  0  0  0
   35.1942  -26.3835    8.5952 N   0  0  0  0  0  0  0  0  0  0  0  0
   35.6656  -25.6089    9.5728 C   0  0  0  0  0  0  0  0  0  0  0  0
   34.6566  -24.9040   10.0947 N   0  0  0  0  0  0  0  0  0  0  0  0
   33.5550  -25.2605    9.4185 C   0  0  0  0  0  0  0  0  0  0  0  0
   32.8952  -28.8009    5.9266 O   0  0  0  0  0  0  0  0  0  0  0  0
   32.8959  -28.7458    4.5232 O   0  0  0  0  0  0  0  0  0  0  0  0
  2  1  1  6
  2  3  1  0
  4  3  1  0
  5  4  2  0
  6  5  1  0
  7  6  1  0
  7  8  2  0
  8  4  1  0
  9  2  1  0
  9 10  2  0
 12 11  1  0
 13 12  2  0
 14 12  1  0
 15 14  1  0
 16 17  1  0
 16 15  1  0
 18 19  1  0
 18 17  1  6
 19  9  1  0
 20 18  1  0
 21 20  2  0
 22 20  1  0
 23 22  1  0
 23 24  1  6
 24 25  1  0
 25 26  2  0
 25 29  1  0
 26 27  1  0
 27 28  1  0
 29 28  2  0
 30 23  1  0
 30 31  1  0
 32 30  2  0
M  END
$$$$
