HRH.pdb
     RDKit          3D

 32 33  0  0  1  0  0  0  0  0999 V2000
   26.8368  -35.7226   -6.5431 N   0  0  0  0  0  0  0  0  0  0  0  0
   27.3241  -34.6044   -5.7875 C   0  0  1  0  0  0  0  0  0  0  0  0
   26.2297  -33.5849   -5.6310 C   0  0  0  0  0  0  0  0  0  0  0  0
   25.9486  -32.9524   -6.9398 C   0  0  0  0  0  0  0  0  0  0  0  0
   26.5464  -33.2535   -8.1389 C   0  0  0  0  0  0  0  0  0  0  0  0
   25.9993  -32.4388   -9.0757 N   0  0  0  0  0  0  0  0  0  0  0  0
   25.0888  -31.6526   -8.4854 C   0  0  0  0  0  0  0  0  0  0  0  0
   25.0457  -31.9563   -7.1712 N   0  0  0  0  0  0  0  0  0  0  0  0
   27.8710  -35.0132   -4.4700 C   0  0  0  0  0  0  0  0  0  0  0  0
   27.1599  -35.6574   -3.6883 O   0  0  0  0  0  0  0  0  0  0  0  0
   33.7334  -37.8926   -5.4356 N   0  0  0  0  0  0  0  0  0  0  0  0
   33.9962  -36.5091   -5.5904 C   0  0  0  0  0  0  0  0  0  0  0  0
   34.3324  -35.9956   -6.7491 N   0  0  0  0  0  0  0  0  0  0  0  0
   33.9147  -35.5805   -4.5078 N   0  0  0  0  0  0  0  0  0  0  0  0
   33.5012  -35.9501   -3.1710 C   0  0  0  0  0  0  0  0  0  0  0  0
   32.0194  -36.1165   -3.0488 C   0  0  0  0  0  0  0  0  0  0  0  0
   31.3132  -34.8037   -3.0157 C   0  0  0  0  0  0  0  0  0  0  0  0
   29.8239  -35.0396   -2.9459 C   0  0  2  0  0  0  0  0  0  0  0  0
   29.1926  -34.6441   -4.1644 N   0  0  0  0  0  0  0  0  0  0  0  0
   29.2598  -34.1800   -1.8380 C   0  0  0  0  0  0  0  0  0  0  0  0
   28.7831  -33.0573   -2.1406 O   0  0  0  0  0  0  0  0  0  0  0  0
   34.4616  -34.9630   -6.7825 N   0  0  0  0  0  0  0  0  0  0  0  0
   29.2892  -34.6622   -0.5234 C   0  0  1  0  0  0  0  0  0  0  0  0
   28.7451  -33.8330    0.5554 C   0  0  0  0  0  0  0  0  0  0  0  0
   27.3058  -33.5292    0.2635 C   0  0  0  0  0  0  0  0  0  0  0  0
   26.6509  -32.9208    1.4396 C   0  0  0  0  0  0  0  0  0  0  0  0
   27.3211  -32.4642    2.5753 N   0  0  0  0  0  0  0  0  0  0  0  0
   26.4280  -31.9745    3.4358 C   0  0  0  0  0  0  0  0  0  0  0  0
   25.2051  -32.0930    2.9087 N   0  0  0  0  0  0  0  0  0  0  0  0
   25.3639  -32.6655    1.7067 C   0  0  0  0  0  0  0  0  0  0  0  0
   28.9407  -34.5618    1.8517 O   0  0  0  0  0  0  0  0  0  0  0  0
   29.4297  -33.8004    2.9258 O   0  0  0  0  0  0  0  0  0  0  0  0
  2  1  1  1
  2  3  1  0
  4  3  1  0
  5  4  2  0
  6  5  1  0
  7  6  1  0
  7  8  2  0
  8  4  1  0
  9  2  1  0
  9 10  2  0
 12 11  1  0
 13 12  2  0
 14 12  1  0
 15 14  1  0
 16 17  1  0
 16 15  1  0
 18 19  1  0
 18 17  1  6
 19  9  1  0
 20 18  1  0
 21 20  2  0
 22 20  1  0
 23 22  1  0
 23 24  1  1
 24 25  1  0
 25 26  2  0
 25 29  1  0
 26 27  1  0
 27 28  1  0
 29 28  2  0
 30 23  1  0
 30 31  1  0
 32 30  2  0
M  END
$$$$
