HRH.pdb
     RDKit          3D

 32 33  0  0  1  0  0  0  0  0999 V2000
   44.1748  -14.5250  -10.6144 N   0  0  0  0  0  0  0  0  0  0  0  0
   43.6916  -13.1944  -10.3805 C   0  0  1  0  0  0  0  0  0  0  0  0
   42.4994  -12.9284  -11.2576 C   0  0  0  0  0  0  0  0  0  0  0  0
   42.9407  -12.7707  -12.6621 C   0  0  0  0  0  0  0  0  0  0  0  0
   42.7674  -13.6758  -13.6803 C   0  0  0  0  0  0  0  0  0  0  0  0
   43.3224  -13.1369  -14.7949 N   0  0  0  0  0  0  0  0  0  0  0  0
   43.8272  -11.9343  -14.4875 C   0  0  0  0  0  0  0  0  0  0  0  0
   43.6004  -11.6944  -13.1790 N   0  0  0  0  0  0  0  0  0  0  0  0
   43.3717  -12.9569   -8.9510 C   0  0  0  0  0  0  0  0  0  0  0  0
   42.7572  -13.8208   -8.3124 O   0  0  0  0  0  0  0  0  0  0  0  0
   48.0233   -9.4491   -2.3555 N   0  0  0  0  0  0  0  0  0  0  0  0
   46.7944   -9.9858   -1.8987 C   0  0  0  0  0  0  0  0  0  0  0  0
   46.5353  -10.1278   -0.6211 N   0  0  0  0  0  0  0  0  0  0  0  0
   45.7568  -10.4068   -2.7860 N   0  0  0  0  0  0  0  0  0  0  0  0
   45.7666  -10.1366   -4.2077 C   0  0  0  0  0  0  0  0  0  0  0  0
   44.5526  -10.6637   -4.9054 C   0  0  0  0  0  0  0  0  0  0  0  0
   44.8382  -11.0226   -6.3242 C   0  0  0  0  0  0  0  0  0  0  0  0
   43.5554  -11.4389   -7.0019 C   0  0  2  0  0  0  0  0  0  0  0  0
   43.7870  -11.7422   -8.3781 N   0  0  0  0  0  0  0  0  0  0  0  0
   42.5911  -10.2763   -6.9453 C   0  0  0  0  0  0  0  0  0  0  0  0
   42.8212   -9.2771   -7.6719 O   0  0  0  0  0  0  0  0  0  0  0  0
   45.5935  -10.4964   -0.3738 N   0  0  0  0  0  0  0  0  0  0  0  0
   41.4843  -10.3540   -6.0907 C   0  0  2  0  0  0  0  0  0  0  0  0
   40.5521   -9.2253   -6.0224 C   0  0  0  0  0  0  0  0  0  0  0  0
   39.1527   -9.7506   -5.9007 C   0  0  0  0  0  0  0  0  0  0  0  0
   38.5631   -9.9818   -7.2354 C   0  0  0  0  0  0  0  0  0  0  0  0
   39.2063   -9.7176   -8.4454 N   0  0  0  0  0  0  0  0  0  0  0  0
   38.3904  -10.0442   -9.4481 C   0  0  0  0  0  0  0  0  0  0  0  0
   37.2436  -10.5094   -8.9425 N   0  0  0  0  0  0  0  0  0  0  0  0
   37.3704  -10.4625   -7.6085 C   0  0  0  0  0  0  0  0  0  0  0  0
   40.9548   -8.3532   -4.8705 O   0  0  0  0  0  0  0  0  0  0  0  0
   40.6962   -6.9798   -5.0101 O   0  0  0  0  0  0  0  0  0  0  0  0
  2  1  1  1
  2  3  1  0
  4  3  1  0
  5  4  2  0
  6  5  1  0
  7  6  1  0
  7  8  2  0
  8  4  1  0
  9  2  1  0
  9 10  2  0
 12 11  1  0
 13 12  2  0
 14 12  1  0
 15 14  1  0
 16 17  1  0
 16 15  1  0
 18 19  1  0
 18 17  1  6
 19  9  1  0
 20 18  1  0
 21 20  2  0
 22 20  1  0
 23 22  1  0
 23 24  1  6
 24 25  1  0
 25 26  2  0
 25 29  1  0
 26 27  1  0
 27 28  1  0
 29 28  2  0
 30 23  1  0
 30 31  1  0
 32 30  2  0
M  END
$$$$
