HRH.pdb
     RDKit          3D

 32 33  0  0  1  0  0  0  0  0999 V2000
   25.3244  -12.8683  -17.8750 N   0  0  0  0  0  0  0  0  0  0  0  0
   23.9473  -12.4797  -17.9808 C   0  0  1  0  0  0  0  0  0  0  0  0
   23.0685  -13.6930  -17.8501 C   0  0  0  0  0  0  0  0  0  0  0  0
   23.3926  -14.6597  -18.9236 C   0  0  0  0  0  0  0  0  0  0  0  0
   23.8201  -15.9541  -18.7570 C   0  0  0  0  0  0  0  0  0  0  0  0
   24.0030  -16.4788  -19.9947 N   0  0  0  0  0  0  0  0  0  0  0  0
   23.7008  -15.5459  -20.9079 C   0  0  0  0  0  0  0  0  0  0  0  0
   23.3235  -14.4210  -20.2649 N   0  0  0  0  0  0  0  0  0  0  0  0
   23.5800  -11.4398  -16.9879 C   0  0  0  0  0  0  0  0  0  0  0  0
   23.6427  -11.7015  -15.7799 O   0  0  0  0  0  0  0  0  0  0  0  0
   27.2247   -4.3767  -18.7208 N   0  0  0  0  0  0  0  0  0  0  0  0
   27.7381   -5.6797  -18.5076 C   0  0  0  0  0  0  0  0  0  0  0  0
   29.0057   -5.9608  -18.6905 N   0  0  0  0  0  0  0  0  0  0  0  0
   26.9223   -6.7723  -18.0814 N   0  0  0  0  0  0  0  0  0  0  0  0
   25.5149   -6.6413  -17.7704 C   0  0  0  0  0  0  0  0  0  0  0  0
   24.8895   -7.9375  -17.3616 C   0  0  0  0  0  0  0  0  0  0  0  0
   23.4200   -7.8030  -17.1477 C   0  0  0  0  0  0  0  0  0  0  0  0
   22.8754   -9.0976  -16.5946 C   0  0  2  0  0  0  0  0  0  0  0  0
   23.1706  -10.1851  -17.4720 N   0  0  0  0  0  0  0  0  0  0  0  0
   21.3714   -8.9780  -16.5035 C   0  0  0  0  0  0  0  0  0  0  0  0
   20.7083   -8.9887  -17.5709 O   0  0  0  0  0  0  0  0  0  0  0  0
   29.2837   -6.9579  -18.5793 N   0  0  0  0  0  0  0  0  0  0  0  0
   20.7755   -8.8598  -15.2415 C   0  0  1  0  0  0  0  0  0  0  0  0
   19.3184   -8.7360  -15.1469 C   0  0  0  0  0  0  0  0  0  0  0  0
   18.8061   -9.7213  -14.1389 C   0  0  0  0  0  0  0  0  0  0  0  0
   18.7838  -11.0853  -14.7057 C   0  0  0  0  0  0  0  0  0  0  0  0
   19.1831  -11.4145  -16.0017 N   0  0  0  0  0  0  0  0  0  0  0  0
   19.0355  -12.7278  -16.1783 C   0  0  0  0  0  0  0  0  0  0  0  0
   18.5571  -13.2675  -15.0526 N   0  0  0  0  0  0  0  0  0  0  0  0
   18.4133  -12.2598  -14.1800 C   0  0  0  0  0  0  0  0  0  0  0  0
   18.9898   -7.3145  -14.7988 O   0  0  0  0  0  0  0  0  0  0  0  0
   17.6902   -6.8824  -15.1101 O   0  0  0  0  0  0  0  0  0  0  0  0
  2  1  1  1
  2  3  1  0
  4  3  1  0
  5  4  2  0
  6  5  1  0
  7  6  1  0
  7  8  2  0
  8  4  1  0
  9  2  1  0
  9 10  2  0
 12 11  1  0
 13 12  2  0
 14 12  1  0
 15 14  1  0
 16 17  1  0
 16 15  1  0
 18 19  1  0
 18 17  1  6
 19  9  1  0
 20 18  1  0
 21 20  2  0
 22 20  1  0
 23 22  1  0
 23 24  1  6
 24 25  1  0
 25 26  2  0
 25 29  1  0
 26 27  1  0
 27 28  1  0
 29 28  2  0
 30 23  1  0
 30 31  1  0
 32 30  2  0
M  END
$$$$
