HRH.pdb
     RDKit          3D

 32 33  0  0  1  0  0  0  0  0999 V2000
   26.9779  -18.5601  -18.4640 N   0  0  0  0  0  0  0  0  0  0  0  0
   27.1953  -19.9776  -18.5098 C   0  0  1  0  0  0  0  0  0  0  0  0
   28.6593  -20.2582  -18.7077 C   0  0  0  0  0  0  0  0  0  0  0  0
   29.4345  -19.0110  -18.5189 C   0  0  0  0  0  0  0  0  0  0  0  0
   30.4719  -18.8178  -17.6400 C   0  0  0  0  0  0  0  0  0  0  0  0
   30.8912  -17.5362  -17.7896 N   0  0  0  0  0  0  0  0  0  0  0  0
   30.1430  -16.9443  -18.7305 C   0  0  0  0  0  0  0  0  0  0  0  0
   29.2421  -17.8384  -19.1890 N   0  0  0  0  0  0  0  0  0  0  0  0
   26.6742  -20.6644  -17.3019 C   0  0  0  0  0  0  0  0  0  0  0  0
   26.6092  -21.9002  -17.2840 O   0  0  0  0  0  0  0  0  0  0  0  0
   24.3403  -19.2636  -10.0004 N   0  0  0  0  0  0  0  0  0  0  0  0
   25.0518  -20.3861   -9.5098 C   0  0  0  0  0  0  0  0  0  0  0  0
   24.7004  -20.9969   -8.4039 N   0  0  0  0  0  0  0  0  0  0  0  0
   26.1920  -20.9308  -10.1763 N   0  0  0  0  0  0  0  0  0  0  0  0
   26.7630  -20.3564  -11.3757 C   0  0  0  0  0  0  0  0  0  0  0  0
   26.0234  -20.7508  -12.6150 C   0  0  0  0  0  0  0  0  0  0  0  0
   26.5884  -20.0988  -13.8311 C   0  0  0  0  0  0  0  0  0  0  0  0
   25.7274  -20.4361  -15.0241 C   0  0  2  0  0  0  0  0  0  0  0  0
   26.2713  -19.8677  -16.2160 N   0  0  0  0  0  0  0  0  0  0  0  0
   24.3607  -19.8274  -14.8089 C   0  0  0  0  0  0  0  0  0  0  0  0
   24.2222  -18.5936  -15.0024 O   0  0  0  0  0  0  0  0  0  0  0  0
   25.2773  -21.8154   -8.1190 N   0  0  0  0  0  0  0  0  0  0  0  0
   23.3058  -20.6548  -14.4037 C   0  0  1  0  0  0  0  0  0  0  0  0
   21.9678  -20.0800  -14.2395 C   0  0  0  0  0  0  0  0  0  0  0  0
   22.0967  -18.6272  -13.8904 C   0  0  0  0  0  0  0  0  0  0  0  0
   20.7655  -17.9976  -13.7731 C   0  0  0  0  0  0  0  0  0  0  0  0
   19.8830  -18.1957  -12.7104 N   0  0  0  0  0  0  0  0  0  0  0  0
   18.7810  -17.4764  -12.9247 C   0  0  0  0  0  0  0  0  0  0  0  0
   18.9084  -16.8188  -14.0816 N   0  0  0  0  0  0  0  0  0  0  0  0
   20.1110  -17.1479  -14.5747 C   0  0  0  0  0  0  0  0  0  0  0  0
   21.1979  -20.3142  -15.5053 O   0  0  0  0  0  0  0  0  0  0  0  0
   19.7996  -20.2261  -15.4081 O   0  0  0  0  0  0  0  0  0  0  0  0
  2  1  1  1
  2  3  1  0
  4  3  1  0
  5  4  2  0
  6  5  1  0
  7  6  1  0
  7  8  2  0
  8  4  1  0
  9  2  1  0
  9 10  2  0
 12 11  1  0
 13 12  2  0
 14 12  1  0
 15 14  1  0
 16 17  1  0
 16 15  1  0
 18 19  1  0
 18 17  1  1
 19  9  1  0
 20 18  1  0
 21 20  2  0
 22 20  1  0
 23 22  1  0
 23 24  1  1
 24 25  1  0
 25 26  2  0
 25 29  1  0
 26 27  1  0
 27 28  1  0
 29 28  2  0
 30 23  1  0
 30 31  1  0
 32 30  2  0
M  END
$$$$
