HRH.pdb
     RDKit          3D

 32 33  0  0  1  0  0  0  0  0999 V2000
   25.9372  -12.1541  -19.3023 N   0  0  0  0  0  0  0  0  0  0  0  0
   25.6661  -11.4966  -18.0561 C   0  0  1  0  0  0  0  0  0  0  0  0
   26.8127  -10.5899  -17.7033 C   0  0  0  0  0  0  0  0  0  0  0  0
   28.0526  -11.3872  -17.5648 C   0  0  0  0  0  0  0  0  0  0  0  0
   29.2388  -11.1759  -18.2238 C   0  0  0  0  0  0  0  0  0  0  0  0
   30.1053  -12.1332  -17.8074 N   0  0  0  0  0  0  0  0  0  0  0  0
   29.4848  -12.9192  -16.9170 C   0  0  0  0  0  0  0  0  0  0  0  0
   28.2211  -12.4734  -16.7569 N   0  0  0  0  0  0  0  0  0  0  0  0
   24.3813  -10.7545  -18.0812 C   0  0  0  0  0  0  0  0  0  0  0  0
   24.1078  -10.0425  -19.0560 O   0  0  0  0  0  0  0  0  0  0  0  0
   17.3247  -13.8272  -14.4441 N   0  0  0  0  0  0  0  0  0  0  0  0
   17.8863  -13.8803  -15.7436 C   0  0  0  0  0  0  0  0  0  0  0  0
   17.6848  -14.9011  -16.5417 N   0  0  0  0  0  0  0  0  0  0  0  0
   18.7042  -12.8369  -16.2760 N   0  0  0  0  0  0  0  0  0  0  0  0
   18.8620  -11.5462  -15.6407 C   0  0  0  0  0  0  0  0  0  0  0  0
   19.8665  -10.6797  -16.3324 C   0  0  0  0  0  0  0  0  0  0  0  0
   21.2270  -11.2897  -16.3240 C   0  0  0  0  0  0  0  0  0  0  0  0
   22.2038  -10.3406  -16.9746 C   0  0  2  0  0  0  0  0  0  0  0  0
   23.5198  -10.8955  -16.9794 N   0  0  0  0  0  0  0  0  0  0  0  0
   22.2456   -9.0700  -16.1570 C   0  0  0  0  0  0  0  0  0  0  0  0
   22.8246   -9.0992  -15.0421 O   0  0  0  0  0  0  0  0  0  0  0  0
   18.1262  -14.8519  -17.4833 N   0  0  0  0  0  0  0  0  0  0  0  0
   21.6411   -7.9145  -16.6678 C   0  0  2  0  0  0  0  0  0  0  0  0
   21.7757   -6.6526  -15.9348 C   0  0  0  0  0  0  0  0  0  0  0  0
   21.5117   -5.5106  -16.8703 C   0  0  0  0  0  0  0  0  0  0  0  0
   21.5655   -4.2218  -16.1502 C   0  0  0  0  0  0  0  0  0  0  0  0
   22.6098   -3.3010  -16.2449 N   0  0  0  0  0  0  0  0  0  0  0  0
   22.3329   -2.2529  -15.4686 C   0  0  0  0  0  0  0  0  0  0  0  0
   21.1530   -2.4523  -14.8724 N   0  0  0  0  0  0  0  0  0  0  0  0
   20.7097   -3.6442  -15.2976 C   0  0  0  0  0  0  0  0  0  0  0  0
   20.8348   -6.6855  -14.7672 O   0  0  0  0  0  0  0  0  0  0  0  0
   21.3467   -6.2259  -13.5428 O   0  0  0  0  0  0  0  0  0  0  0  0
  2  1  1  6
  2  3  1  0
  4  3  1  0
  5  4  2  0
  6  5  1  0
  7  6  1  0
  7  8  2  0
  8  4  1  0
  9  2  1  0
  9 10  2  0
 12 11  1  0
 13 12  2  0
 14 12  1  0
 15 14  1  0
 16 17  1  0
 16 15  1  0
 18 19  1  0
 18 17  1  1
 19  9  1  0
 20 18  1  0
 21 20  2  0
 22 20  1  0
 23 22  1  0
 23 24  1  6
 24 25  1  0
 25 26  2  0
 25 29  1  0
 26 27  1  0
 27 28  1  0
 29 28  2  0
 30 23  1  0
 30 31  1  0
 32 30  2  0
M  END
$$$$
