HRH.pdb
     RDKit          3D

 32 33  0  0  1  0  0  0  0  0999 V2000
   21.8229  -15.4487  -17.7953 N   0  0  0  0  0  0  0  0  0  0  0  0
   22.0630  -16.0842  -16.5315 C   0  0  1  0  0  0  0  0  0  0  0  0
   21.0927  -15.5594  -15.5096 C   0  0  0  0  0  0  0  0  0  0  0  0
   21.2379  -14.0905  -15.3944 C   0  0  0  0  0  0  0  0  0  0  0  0
   20.2217  -13.1669  -15.3772 C   0  0  0  0  0  0  0  0  0  0  0  0
   20.7943  -11.9423  -15.2627 N   0  0  0  0  0  0  0  0  0  0  0  0
   22.1249  -12.0912  -15.2097 C   0  0  0  0  0  0  0  0  0  0  0  0
   22.4139  -13.4070  -15.2896 N   0  0  0  0  0  0  0  0  0  0  0  0
   21.9971  -17.5637  -16.6261 C   0  0  0  0  0  0  0  0  0  0  0  0
   20.9333  -18.1068  -16.9502 O   0  0  0  0  0  0  0  0  0  0  0  0
   28.5177  -23.4487  -16.6808 N   0  0  0  0  0  0  0  0  0  0  0  0
   28.1706  -22.5483  -17.7180 C   0  0  0  0  0  0  0  0  0  0  0  0
   29.0247  -22.2109  -18.6540 N   0  0  0  0  0  0  0  0  0  0  0  0
   26.8782  -21.9480  -17.8209 N   0  0  0  0  0  0  0  0  0  0  0  0
   25.7575  -22.3227  -16.9854 C   0  0  0  0  0  0  0  0  0  0  0  0
   24.4982  -21.6012  -17.3486 C   0  0  0  0  0  0  0  0  0  0  0  0
   24.5604  -20.1564  -16.9857 C   0  0  0  0  0  0  0  0  0  0  0  0
   23.2153  -19.7146  -16.4624 C   0  0  2  0  0  0  0  0  0  0  0  0
   23.1641  -18.2927  -16.3384 N   0  0  0  0  0  0  0  0  0  0  0  0
   23.0281  -20.3016  -15.0821 C   0  0  0  0  0  0  0  0  0  0  0  0
   23.8470  -19.9820  -14.1841 O   0  0  0  0  0  0  0  0  0  0  0  0
   28.6641  -21.6020  -19.4177 N   0  0  0  0  0  0  0  0  0  0  0  0
   21.9567  -21.1748  -14.8559 C   0  0  1  0  0  0  0  0  0  0  0  0
   21.8571  -21.8669  -13.5681 C   0  0  0  0  0  0  0  0  0  0  0  0
   21.8221  -20.8507  -12.4657 C   0  0  0  0  0  0  0  0  0  0  0  0
   23.0380  -20.9420  -11.6317 C   0  0  0  0  0  0  0  0  0  0  0  0
   24.0935  -21.8262  -11.8588 N   0  0  0  0  0  0  0  0  0  0  0  0
   25.0231  -21.6384  -10.9215 C   0  0  0  0  0  0  0  0  0  0  0  0
   24.6177  -20.6700  -10.0939 N   0  0  0  0  0  0  0  0  0  0  0  0
   23.4199  -20.2657  -10.5409 C   0  0  0  0  0  0  0  0  0  0  0  0
   20.6399  -22.7427  -13.5989 O   0  0  0  0  0  0  0  0  0  0  0  0
   19.8865  -22.7191  -14.7841 O   0  0  0  0  0  0  0  0  0  0  0  0
  2  1  1  6
  2  3  1  0
  4  3  1  0
  5  4  2  0
  6  5  1  0
  7  6  1  0
  7  8  2  0
  8  4  1  0
  9  2  1  0
  9 10  2  0
 12 11  1  0
 13 12  2  0
 14 12  1  0
 15 14  1  0
 16 17  1  0
 16 15  1  0
 18 19  1  0
 18 17  1  1
 19  9  1  0
 20 18  1  0
 21 20  2  0
 22 20  1  0
 23 22  1  0
 23 24  1  1
 24 25  1  0
 25 26  2  0
 25 29  1  0
 26 27  1  0
 27 28  1  0
 29 28  2  0
 30 23  1  0
 30 31  1  0
 32 30  2  0
M  END
$$$$
