HRH.pdb
     RDKit          3D

 32 33  0  0  1  0  0  0  0  0999 V2000
   44.8373   -7.8724   -5.5639 N   0  0  0  0  0  0  0  0  0  0  0  0
   43.8004   -8.8317   -5.8154 C   0  0  1  0  0  0  0  0  0  0  0  0
   42.6295   -8.5586   -4.9121 C   0  0  0  0  0  0  0  0  0  0  0  0
   43.0439   -8.7165   -3.4995 C   0  0  0  0  0  0  0  0  0  0  0  0
   43.9991   -7.9823   -2.8404 C   0  0  0  0  0  0  0  0  0  0  0  0
   44.0643   -8.4562   -1.5708 N   0  0  0  0  0  0  0  0  0  0  0  0
   43.1802   -9.4542   -1.4368 C   0  0  0  0  0  0  0  0  0  0  0  0
   42.5445   -9.6267   -2.6146 N   0  0  0  0  0  0  0  0  0  0  0  0
   43.3874   -8.8509   -7.2406 C   0  0  0  0  0  0  0  0  0  0  0  0
   43.5824   -7.8521   -7.9450 O   0  0  0  0  0  0  0  0  0  0  0  0
   44.0190  -11.4479  -13.7186 N   0  0  0  0  0  0  0  0  0  0  0  0
   43.0335  -12.4203  -14.0188 C   0  0  0  0  0  0  0  0  0  0  0  0
   42.7539  -12.7616  -15.2536 N   0  0  0  0  0  0  0  0  0  0  0  0
   42.2797  -13.0948  -13.0098 N   0  0  0  0  0  0  0  0  0  0  0  0
   42.5788  -13.0019  -11.5969 C   0  0  0  0  0  0  0  0  0  0  0  0
   42.2216  -11.6702  -11.0161 C   0  0  0  0  0  0  0  0  0  0  0  0
   42.5903  -11.5752   -9.5744 C   0  0  0  0  0  0  0  0  0  0  0  0
   42.4028  -10.1533   -9.1038 C   0  0  2  0  0  0  0  0  0  0  0  0
   42.7837  -10.0207   -7.7338 N   0  0  0  0  0  0  0  0  0  0  0  0
   40.9342   -9.8105   -9.2059 C   0  0  0  0  0  0  0  0  0  0  0  0
   40.0975  -10.6469   -8.7824 O   0  0  0  0  0  0  0  0  0  0  0  0
   42.0547  -13.5224  -15.3809 N   0  0  0  0  0  0  0  0  0  0  0  0
   40.5618   -8.5819   -9.7658 C   0  0  1  0  0  0  0  0  0  0  0  0
   39.1388   -8.2610   -9.9054 C   0  0  0  0  0  0  0  0  0  0  0  0
   38.6576   -7.6033   -8.6463 C   0  0  0  0  0  0  0  0  0  0  0  0
   38.1737   -8.6120   -7.6816 C   0  0  0  0  0  0  0  0  0  0  0  0
   38.2041   -9.9914   -7.8911 N   0  0  0  0  0  0  0  0  0  0  0  0
   37.6940  -10.6017   -6.8209 C   0  0  0  0  0  0  0  0  0  0  0  0
   37.3327   -9.6785   -5.9240 N   0  0  0  0  0  0  0  0  0  0  0  0
   37.6308   -8.4880   -6.4639 C   0  0  0  0  0  0  0  0  0  0  0  0
   38.9693   -7.3985  -11.1207 O   0  0  0  0  0  0  0  0  0  0  0  0
   37.9986   -7.8132  -12.0472 O   0  0  0  0  0  0  0  0  0  0  0  0
  2  1  1  6
  2  3  1  0
  4  3  1  0
  5  4  2  0
  6  5  1  0
  7  6  1  0
  7  8  2  0
  8  4  1  0
  9  2  1  0
  9 10  2  0
 12 11  1  0
 13 12  2  0
 14 12  1  0
 15 14  1  0
 16 17  1  0
 16 15  1  0
 18 19  1  0
 18 17  1  1
 19  9  1  0
 20 18  1  0
 21 20  2  0
 22 20  1  0
 23 22  1  0
 23 24  1  6
 24 25  1  0
 25 26  2  0
 25 29  1  0
 26 27  1  0
 27 28  1  0
 29 28  2  0
 30 23  1  0
 30 31  1  0
 32 30  2  0
M  END
$$$$
