HRH.pdb
     RDKit          3D

 32 33  0  0  1  0  0  0  0  0999 V2000
   26.8874  -19.5735  -17.8641 N   0  0  0  0  0  0  0  0  0  0  0  0
   25.5212  -19.6944  -18.2856 C   0  0  1  0  0  0  0  0  0  0  0  0
   25.4695  -20.2768  -19.6711 C   0  0  0  0  0  0  0  0  0  0  0  0
   26.2160  -19.4040  -20.6054 C   0  0  0  0  0  0  0  0  0  0  0  0
   27.3476  -19.7372  -21.3086 C   0  0  0  0  0  0  0  0  0  0  0  0
   27.7023  -18.6491  -22.0371 N   0  0  0  0  0  0  0  0  0  0  0  0
   26.8235  -17.6657  -21.8000 C   0  0  0  0  0  0  0  0  0  0  0  0
   25.9029  -18.1143  -20.9212 N   0  0  0  0  0  0  0  0  0  0  0  0
   24.7096  -20.4942  -17.3350 C   0  0  0  0  0  0  0  0  0  0  0  0
   24.9594  -21.6968  -17.1823 O   0  0  0  0  0  0  0  0  0  0  0  0
   24.5665  -20.7954   -9.0797 N   0  0  0  0  0  0  0  0  0  0  0  0
   25.6932  -20.9369   -9.9268 C   0  0  0  0  0  0  0  0  0  0  0  0
   26.8984  -21.1275   -9.4467 N   0  0  0  0  0  0  0  0  0  0  0  0
   25.6013  -20.8839  -11.3515 N   0  0  0  0  0  0  0  0  0  0  0  0
   24.4939  -20.2738  -12.0559 C   0  0  0  0  0  0  0  0  0  0  0  0
   24.6739  -20.2889  -13.5410 C   0  0  0  0  0  0  0  0  0  0  0  0
   23.5765  -19.5622  -14.2418 C   0  0  0  0  0  0  0  0  0  0  0  0
   23.1252  -20.3695  -15.4347 C   0  0  2  0  0  0  0  0  0  0  0  0
   23.6772  -19.8399  -16.6406 N   0  0  0  0  0  0  0  0  0  0  0  0
   21.6207  -20.2652  -15.5352 C   0  0  0  0  0  0  0  0  0  0  0  0
   21.1196  -19.1473  -15.8153 O   0  0  0  0  0  0  0  0  0  0  0  0
   27.6733  -21.1856  -10.1396 N   0  0  0  0  0  0  0  0  0  0  0  0
   20.8450  -21.4100  -15.3135 C   0  0  2  0  0  0  0  0  0  0  0  0
   19.3847  -21.2904  -15.2840 C   0  0  0  0  0  0  0  0  0  0  0  0
   18.7794  -22.6625  -15.2811 C   0  0  0  0  0  0  0  0  0  0  0  0
   17.3090  -22.5854  -15.4012 C   0  0  0  0  0  0  0  0  0  0  0  0
   16.6144  -22.4741  -16.6065 N   0  0  0  0  0  0  0  0  0  0  0  0
   15.3068  -22.4320  -16.3487 C   0  0  0  0  0  0  0  0  0  0  0  0
   15.1207  -22.5110  -15.0272 N   0  0  0  0  0  0  0  0  0  0  0  0
   16.3401  -22.6025  -14.4771 C   0  0  0  0  0  0  0  0  0  0  0  0
   19.0047  -20.4779  -14.0818 O   0  0  0  0  0  0  0  0  0  0  0  0
   17.9283  -19.5906  -14.2458 O   0  0  0  0  0  0  0  0  0  0  0  0
  2  1  1  1
  2  3  1  0
  4  3  1  0
  5  4  2  0
  6  5  1  0
  7  6  1  0
  7  8  2  0
  8  4  1  0
  9  2  1  0
  9 10  2  0
 12 11  1  0
 13 12  2  0
 14 12  1  0
 15 14  1  0
 16 17  1  0
 16 15  1  0
 18 19  1  0
 18 17  1  1
 19  9  1  0
 20 18  1  0
 21 20  2  0
 22 20  1  0
 23 22  1  0
 23 24  1  6
 24 25  1  0
 25 26  2  0
 25 29  1  0
 26 27  1  0
 27 28  1  0
 29 28  2  0
 30 23  1  0
 30 31  1  0
 32 30  2  0
M  END
$$$$
