YLY.pdb
     RDKit          3D

 33 34  0  0  1  0  0  0  0  0999 V2000
    8.7982  -21.6140   11.5599 O   0  0  0  0  0  0  0  0  0  0  0  0
    9.1240  -20.8963   12.7169 C   0  0  0  0  0  0  0  0  0  0  0  0
   10.2750  -21.1526   13.4399 C   0  0  0  0  0  0  0  0  0  0  0  0
   10.5680  -20.4269   14.5771 C   0  0  0  0  0  0  0  0  0  0  0  0
    9.7360  -19.4294   15.0334 C   0  0  0  0  0  0  0  0  0  0  0  0
   10.0943  -18.6916   16.2437 C   0  0  0  0  0  0  0  0  0  0  0  0
   10.0904  -17.1866   16.0459 C   0  0  2  0  0  0  0  0  0  0  0  0
   11.1936  -16.7443   15.2385 N   0  0  0  0  0  0  0  0  0  0  0  0
   10.2220  -16.5763   17.3900 C   0  0  0  0  0  0  0  0  0  0  0  0
   11.3673  -16.4831   17.8864 O   0  0  0  0  0  0  0  0  0  0  0  0
    8.5864  -19.1615   14.3255 C   0  0  0  0  0  0  0  0  0  0  0  0
    8.3071  -19.8918   13.1951 C   0  0  0  0  0  0  0  0  0  0  0  0
    6.5906  -12.7203   20.1444 C   0  0  0  0  0  0  0  0  0  0  0  0
    8.0063  -13.2666   19.8021 C   0  0  2  0  0  0  0  0  0  0  0  0
    8.3680  -12.6221   18.4833 C   0  0  0  0  0  0  0  0  0  0  0  0
    7.9559  -14.7571   19.7459 C   0  0  0  0  0  0  0  0  0  0  0  0
    9.2482  -15.4270   19.4286 C   0  0  2  0  0  0  0  0  0  0  0  0
    9.0983  -16.1073   18.1057 N   0  0  0  0  0  0  0  0  0  0  0  0
    9.6548  -16.4663   20.3877 C   0  0  0  0  0  0  0  0  0  0  0  0
    9.6061  -17.7061   20.0142 O   0  0  0  0  0  0  0  0  0  0  0  0
   17.2053  -19.2381   22.8735 O   0  0  0  0  0  0  0  0  0  0  0  0
   15.9876  -18.6599   22.5070 C   0  0  0  0  0  0  0  0  0  0  0  0
   14.8163  -19.3769   22.4142 C   0  0  0  0  0  0  0  0  0  0  0  0
   13.6303  -18.7897   22.0523 C   0  0  0  0  0  0  0  0  0  0  0  0
   13.6126  -17.4333   21.7720 C   0  0  0  0  0  0  0  0  0  0  0  0
   12.3961  -16.7127   21.3712 C   0  0  0  0  0  0  0  0  0  0  0  0
   11.2120  -16.9617   22.2909 C   0  0  2  0  0  0  0  0  0  0  0  0
   10.1050  -16.1953   21.6965 N   0  0  0  0  0  0  0  0  0  0  0  0
   11.4645  -16.4431   23.6366 C   0  0  0  0  0  0  0  0  0  0  0  0
   12.3339  -16.9856   24.3593 O   0  0  0  0  0  0  0  0  0  0  0  0
   14.7954  -16.7294   21.8698 C   0  0  0  0  0  0  0  0  0  0  0  0
   15.9967  -17.3083   22.2331 C   0  0  0  0  0  0  0  0  0  0  0  0
   10.7601  -15.3653   24.1215 O   0  0  0  0  0  0  0  0  0  0  0  0
  2  1  1  0
  3  2  2  0
  4  3  1  0
  5  4  2  0
  5 11  1  0
  6  5  1  0
  7  8  1  6
  7  6  1  0
  9  7  1  0
 10  9  2  0
 11 12  2  0
 12  2  1  0
 14 13  1  6
 14 16  1  0
 15 14  1  0
 17 16  1  1
 17 19  1  0
 17 18  1  0
 18  9  1  0
 19 28  1  0
 20 19  2  0
 22 32  2  0
 22 21  1  0
 23 22  1  0
 24 25  1  0
 24 23  2  0
 25 31  2  0
 26 25  1  0
 27 26  1  6
 27 29  1  0
 28 27  1  0
 29 30  2  0
 29 33  1  0
 31 32  1  0
M  END
$$$$
