YLY.pdb
     RDKit          3D

 33 34  0  0  1  0  0  0  0  0999 V2000
    9.1153  -23.5406   20.6632 O   0  0  0  0  0  0  0  0  0  0  0  0
    9.1628  -22.2049   21.0800 C   0  0  0  0  0  0  0  0  0  0  0  0
    8.2854  -21.6982   22.0217 C   0  0  0  0  0  0  0  0  0  0  0  0
    8.3582  -20.3760   22.4118 C   0  0  0  0  0  0  0  0  0  0  0  0
    9.2965  -19.5169   21.8855 C   0  0  0  0  0  0  0  0  0  0  0  0
    9.3294  -18.1257   22.3340 C   0  0  0  0  0  0  0  0  0  0  0  0
    8.2405  -17.2732   21.7085 C   0  0  2  0  0  0  0  0  0  0  0  0
    8.3829  -17.1747   20.2821 N   0  0  0  0  0  0  0  0  0  0  0  0
    8.3739  -15.9145   22.2853 C   0  0  0  0  0  0  0  0  0  0  0  0
    9.2064  -15.1340   21.7709 O   0  0  0  0  0  0  0  0  0  0  0  0
   10.1772  -20.0051   20.9472 C   0  0  0  0  0  0  0  0  0  0  0  0
   10.0934  -21.3235   20.5681 C   0  0  0  0  0  0  0  0  0  0  0  0
    7.8663  -11.9628   25.5799 C   0  0  0  0  0  0  0  0  0  0  0  0
    6.4143  -12.4634   25.3328 C   0  0  2  0  0  0  0  0  0  0  0  0
    5.7626  -12.4680   26.6969 C   0  0  0  0  0  0  0  0  0  0  0  0
    6.4629  -13.8085   24.6882 C   0  0  0  0  0  0  0  0  0  0  0  0
    7.7166  -14.1133   23.9432 C   0  0  2  0  0  0  0  0  0  0  0  0
    7.5924  -15.4944   23.3842 N   0  0  0  0  0  0  0  0  0  0  0  0
    8.9380  -14.1043   24.7636 C   0  0  0  0  0  0  0  0  0  0  0  0
    9.1984  -13.0525   25.4742 O   0  0  0  0  0  0  0  0  0  0  0  0
   12.1225  -16.9606   32.0669 O   0  0  0  0  0  0  0  0  0  0  0  0
   11.5323  -16.5767   30.8603 C   0  0  0  0  0  0  0  0  0  0  0  0
   11.4142  -15.2621   30.4696 C   0  0  0  0  0  0  0  0  0  0  0  0
   10.8310  -14.9060   29.2799 C   0  0  0  0  0  0  0  0  0  0  0  0
   10.3464  -15.9014   28.4472 C   0  0  0  0  0  0  0  0  0  0  0  0
    9.7010  -15.6238   27.1564 C   0  0  0  0  0  0  0  0  0  0  0  0
   10.6859  -15.3895   26.0229 C   0  0  2  0  0  0  0  0  0  0  0  0
    9.8473  -15.1803   24.8317 N   0  0  0  0  0  0  0  0  0  0  0  0
   11.5271  -16.5664   25.7965 C   0  0  0  0  0  0  0  0  0  0  0  0
   12.6975  -16.5901   26.2459 O   0  0  0  0  0  0  0  0  0  0  0  0
   10.4727  -17.2139   28.8539 C   0  0  0  0  0  0  0  0  0  0  0  0
   11.0579  -17.5863   30.0493 C   0  0  0  0  0  0  0  0  0  0  0  0
   11.0506  -17.6505   25.0962 O   0  0  0  0  0  0  0  0  0  0  0  0
  2  1  1  0
  3  2  2  0
  4  3  1  0
  5  4  2  0
  5 11  1  0
  6  5  1  0
  7  8  1  6
  7  6  1  0
  9  7  1  0
 10  9  2  0
 11 12  2  0
 12  2  1  0
 14 13  1  1
 14 16  1  0
 15 14  1  0
 17 16  1  1
 17 19  1  0
 17 18  1  0
 18  9  1  0
 19 28  1  0
 20 19  2  0
 22 32  2  0
 22 21  1  0
 23 22  1  0
 24 25  1  0
 24 23  2  0
 25 31  2  0
 26 25  1  0
 27 26  1  1
 27 29  1  0
 28 27  1  0
 29 30  2  0
 29 33  1  0
 31 32  1  0
M  END
$$$$
