YLY.pdb
     RDKit          3D

 33 34  0  0  1  0  0  0  0  0999 V2000
    7.6560  -23.2945   29.5405 O   0  0  0  0  0  0  0  0  0  0  0  0
    7.7164  -22.1793   28.6964 C   0  0  0  0  0  0  0  0  0  0  0  0
    6.8391  -21.1170   28.8197 C   0  0  0  0  0  0  0  0  0  0  0  0
    6.9248  -20.0314   27.9713 C   0  0  0  0  0  0  0  0  0  0  0  0
    7.8762  -19.9621   26.9787 C   0  0  0  0  0  0  0  0  0  0  0  0
    7.9226  -18.7887   26.1076 C   0  0  0  0  0  0  0  0  0  0  0  0
    6.7740  -18.7380   25.1165 C   0  0  2  0  0  0  0  0  0  0  0  0
    6.7934  -19.8516   24.2087 N   0  0  0  0  0  0  0  0  0  0  0  0
    6.9395  -17.4927   24.3304 C   0  0  0  0  0  0  0  0  0  0  0  0
    7.4499  -17.5775   23.1906 O   0  0  0  0  0  0  0  0  0  0  0  0
    8.7571  -21.0109   26.8423 C   0  0  0  0  0  0  0  0  0  0  0  0
    8.6604  -22.0854   27.6938 C   0  0  0  0  0  0  0  0  0  0  0  0
    5.6073  -12.7714   26.9318 C   0  0  0  0  0  0  0  0  0  0  0  0
    6.7507  -13.1987   25.9675 C   0  0  2  0  0  0  0  0  0  0  0  0
    7.4982  -11.9226   25.6542 C   0  0  0  0  0  0  0  0  0  0  0  0
    6.1580  -13.8556   24.7656 C   0  0  0  0  0  0  0  0  0  0  0  0
    6.9657  -14.9624   24.1808 C   0  0  2  0  0  0  0  0  0  0  0  0
    6.5386  -16.2364   24.8364 N   0  0  0  0  0  0  0  0  0  0  0  0
    8.4164  -14.8478   24.3989 C   0  0  0  0  0  0  0  0  0  0  0  0
    8.8410  -14.0596   25.3356 O   0  0  0  0  0  0  0  0  0  0  0  0
   11.0692  -13.3567   30.1434 O   0  0  0  0  0  0  0  0  0  0  0  0
   10.9502  -14.0766   28.9521 C   0  0  0  0  0  0  0  0  0  0  0  0
   10.5242  -13.5078   27.7732 C   0  0  0  0  0  0  0  0  0  0  0  0
   10.4142  -14.2327   26.6135 C   0  0  0  0  0  0  0  0  0  0  0  0
   10.7424  -15.5783   26.6311 C   0  0  0  0  0  0  0  0  0  0  0  0
   10.6535  -16.4413   25.4449 C   0  0  0  0  0  0  0  0  0  0  0  0
   10.7667  -15.6832   24.1325 C   0  0  2  0  0  0  0  0  0  0  0  0
    9.3819  -15.5534   23.6512 N   0  0  0  0  0  0  0  0  0  0  0  0
   11.5321  -16.4434   23.1425 C   0  0  0  0  0  0  0  0  0  0  0  0
   12.7586  -16.2236   23.0021 O   0  0  0  0  0  0  0  0  0  0  0  0
   11.1675  -16.1327   27.8210 C   0  0  0  0  0  0  0  0  0  0  0  0
   11.2829  -15.4143   28.9960 C   0  0  0  0  0  0  0  0  0  0  0  0
   10.9235  -17.3989   22.3618 O   0  0  0  0  0  0  0  0  0  0  0  0
  2  1  1  0
  3  2  2  0
  4  3  1  0
  5  4  2  0
  5 11  1  0
  6  5  1  0
  7  8  1  6
  7  6  1  0
  9  7  1  0
 10  9  2  0
 11 12  2  0
 12  2  1  0
 14 13  1  1
 14 16  1  0
 15 14  1  0
 17 16  1  1
 17 19  1  0
 17 18  1  0
 18  9  1  0
 19 28  1  0
 20 19  2  0
 22 32  2  0
 22 21  1  0
 23 22  1  0
 24 25  1  0
 24 23  2  0
 25 31  2  0
 26 25  1  0
 27 26  1  1
 27 29  1  0
 28 27  1  0
 29 30  2  0
 29 33  1  0
 31 32  1  0
M  END
$$$$
