YLY.pdb
     RDKit          3D

 33 34  0  0  1  0  0  0  0  0999 V2000
    7.9509  -23.7440   15.5764 O   0  0  0  0  0  0  0  0  0  0  0  0
    8.3913  -22.5841   16.2249 C   0  0  0  0  0  0  0  0  0  0  0  0
    8.6300  -21.4061   15.5404 C   0  0  0  0  0  0  0  0  0  0  0  0
    9.0639  -20.2790   16.2091 C   0  0  0  0  0  0  0  0  0  0  0  0
    9.2747  -20.2811   17.5696 C   0  0  0  0  0  0  0  0  0  0  0  0
    9.7348  -19.0594   18.2279 C   0  0  0  0  0  0  0  0  0  0  0  0
    8.8657  -18.6545   19.4047 C   0  0  2  0  0  0  0  0  0  0  0  0
    7.5029  -18.4190   19.0149 N   0  0  0  0  0  0  0  0  0  0  0  0
    9.4242  -17.3886   19.9356 C   0  0  0  0  0  0  0  0  0  0  0  0
   10.6397  -17.1554   19.7489 O   0  0  0  0  0  0  0  0  0  0  0  0
    9.0420  -21.4454   18.2660 C   0  0  0  0  0  0  0  0  0  0  0  0
    8.6101  -22.5599   17.5875 C   0  0  0  0  0  0  0  0  0  0  0  0
    6.9757  -12.2465   20.5782 C   0  0  0  0  0  0  0  0  0  0  0  0
    8.1302  -13.2584   20.3270 C   0  0  2  0  0  0  0  0  0  0  0  0
    7.8143  -13.8915   18.9910 C   0  0  0  0  0  0  0  0  0  0  0  0
    8.1802  -14.2344   21.4549 C   0  0  0  0  0  0  0  0  0  0  0  0
    9.2274  -15.2878   21.3403 C   0  0  2  0  0  0  0  0  0  0  0  0
    8.6229  -16.4593   20.6351 N   0  0  0  0  0  0  0  0  0  0  0  0
    9.7363  -15.7924   22.6254 C   0  0  0  0  0  0  0  0  0  0  0  0
    8.9055  -16.3656   23.4379 O   0  0  0  0  0  0  0  0  0  0  0  0
    7.1733  -20.1449   26.9700 O   0  0  0  0  0  0  0  0  0  0  0  0
    8.2523  -19.5631   26.3000 C   0  0  0  0  0  0  0  0  0  0  0  0
    9.4354  -19.2402   26.9251 C   0  0  0  0  0  0  0  0  0  0  0  0
   10.4836  -18.6691   26.2487 C   0  0  0  0  0  0  0  0  0  0  0  0
   10.3455  -18.4101   24.8949 C   0  0  0  0  0  0  0  0  0  0  0  0
   11.4061  -17.7970   24.0832 C   0  0  0  0  0  0  0  0  0  0  0  0
   11.5411  -16.2977   24.2928 C   0  0  2  0  0  0  0  0  0  0  0  0
   11.0844  -15.6975   23.0289 N   0  0  0  0  0  0  0  0  0  0  0  0
   12.9373  -15.9139   24.5101 C   0  0  0  0  0  0  0  0  0  0  0  0
   13.5941  -15.4001   23.5737 O   0  0  0  0  0  0  0  0  0  0  0  0
    9.1531  -18.7399   24.2838 C   0  0  0  0  0  0  0  0  0  0  0  0
    8.0896  -19.3154   24.9531 C   0  0  0  0  0  0  0  0  0  0  0  0
   13.5411  -16.1087   25.7310 O   0  0  0  0  0  0  0  0  0  0  0  0
  2  1  1  0
  3  2  2  0
  4  3  1  0
  5  4  2  0
  5 11  1  0
  6  5  1  0
  7  8  1  6
  7  6  1  0
  9  7  1  0
 10  9  2  0
 11 12  2  0
 12  2  1  0
 14 13  1  1
 14 16  1  0
 15 14  1  0
 17 16  1  1
 17 19  1  0
 17 18  1  0
 18  9  1  0
 19 28  1  0
 20 19  2  0
 22 32  2  0
 22 21  1  0
 23 22  1  0
 24 25  1  0
 24 23  2  0
 25 31  2  0
 26 25  1  0
 27 26  1  6
 27 29  1  0
 28 27  1  0
 29 30  2  0
 29 33  1  0
 31 32  1  0
M  END
$$$$
