YLY.pdb
     RDKit          3D

 33 34  0  0  1  0  0  0  0  0999 V2000
    4.5362  -23.4830   23.9910 O   0  0  0  0  0  0  0  0  0  0  0  0
    5.2381  -22.3071   23.7008 C   0  0  0  0  0  0  0  0  0  0  0  0
    6.6164  -22.2841   23.5867 C   0  0  0  0  0  0  0  0  0  0  0  0
    7.2793  -21.1077   23.2996 C   0  0  0  0  0  0  0  0  0  0  0  0
    6.6034  -19.9222   23.1170 C   0  0  0  0  0  0  0  0  0  0  0  0
    7.3550  -18.7051   22.8147 C   0  0  0  0  0  0  0  0  0  0  0  0
    6.4875  -17.4597   22.7959 C   0  0  2  0  0  0  0  0  0  0  0  0
    5.7722  -17.3174   21.5579 N   0  0  0  0  0  0  0  0  0  0  0  0
    7.3979  -16.2997   22.9444 C   0  0  0  0  0  0  0  0  0  0  0  0
    7.9158  -15.8196   21.9109 O   0  0  0  0  0  0  0  0  0  0  0  0
    5.2314  -19.9276   23.2271 C   0  0  0  0  0  0  0  0  0  0  0  0
    4.5844  -21.1059   23.5134 C   0  0  0  0  0  0  0  0  0  0  0  0
    6.6541  -12.0412   24.2800 C   0  0  0  0  0  0  0  0  0  0  0  0
    6.6558  -13.2123   25.3040 C   0  0  2  0  0  0  0  0  0  0  0  0
    6.0664  -12.6297   26.5684 C   0  0  0  0  0  0  0  0  0  0  0  0
    8.0508  -13.7156   25.4705 C   0  0  0  0  0  0  0  0  0  0  0  0
    8.5695  -14.5405   24.3436 C   0  0  2  0  0  0  0  0  0  0  0  0
    7.6850  -15.7383   24.2082 N   0  0  0  0  0  0  0  0  0  0  0  0
    9.9364  -15.0515   24.5328 C   0  0  0  0  0  0  0  0  0  0  0  0
   10.9219  -14.2111   24.4949 O   0  0  0  0  0  0  0  0  0  0  0  0
   10.0939  -15.1993   31.0003 O   0  0  0  0  0  0  0  0  0  0  0  0
   10.4914  -15.7837   29.7953 C   0  0  0  0  0  0  0  0  0  0  0  0
   11.2616  -15.1265   28.8628 C   0  0  0  0  0  0  0  0  0  0  0  0
   11.6415  -15.7187   27.6849 C   0  0  0  0  0  0  0  0  0  0  0  0
   11.2367  -17.0182   27.4276 C   0  0  0  0  0  0  0  0  0  0  0  0
   11.5860  -17.7381   26.1949 C   0  0  0  0  0  0  0  0  0  0  0  0
   11.6338  -16.8474   24.9643 C   0  0  2  0  0  0  0  0  0  0  0  0
   10.2435  -16.4088   24.7621 N   0  0  0  0  0  0  0  0  0  0  0  0
   12.0601  -17.5966   23.7808 C   0  0  0  0  0  0  0  0  0  0  0  0
   13.2256  -18.0552   23.7216 O   0  0  0  0  0  0  0  0  0  0  0  0
   10.4649  -17.6625   28.3727 C   0  0  0  0  0  0  0  0  0  0  0  0
   10.0754  -17.0779   29.5629 C   0  0  0  0  0  0  0  0  0  0  0  0
   11.1978  -17.8060   22.7294 O   0  0  0  0  0  0  0  0  0  0  0  0
  2  1  1  0
  3  2  2  0
  4  3  1  0
  5  4  2  0
  5 11  1  0
  6  5  1  0
  7  8  1  6
  7  6  1  0
  9  7  1  0
 10  9  2  0
 11 12  2  0
 12  2  1  0
 14 13  1  6
 14 16  1  0
 15 14  1  0
 17 16  1  1
 17 19  1  0
 17 18  1  0
 18  9  1  0
 19 28  1  0
 20 19  2  0
 22 32  2  0
 22 21  1  0
 23 22  1  0
 24 25  1  0
 24 23  2  0
 25 31  2  0
 26 25  1  0
 27 26  1  1
 27 29  1  0
 28 27  1  0
 29 30  2  0
 29 33  1  0
 31 32  1  0
M  END
$$$$
