YLY.pdb
     RDKit          3D

 33 34  0  0  1  0  0  0  0  0999 V2000
    5.4279  -22.3619   18.0103 O   0  0  0  0  0  0  0  0  0  0  0  0
    6.1721  -21.3838   18.6806 C   0  0  0  0  0  0  0  0  0  0  0  0
    7.0398  -20.5371   18.0146 C   0  0  0  0  0  0  0  0  0  0  0  0
    7.7598  -19.5825   18.7047 C   0  0  0  0  0  0  0  0  0  0  0  0
    7.6450  -19.4355   20.0687 C   0  0  0  0  0  0  0  0  0  0  0  0
    8.4310  -18.4079   20.7499 C   0  0  0  0  0  0  0  0  0  0  0  0
    7.5856  -17.4826   21.6061 C   0  0  2  0  0  0  0  0  0  0  0  0
    6.5881  -16.7933   20.8351 N   0  0  0  0  0  0  0  0  0  0  0  0
    8.5046  -16.4753   22.1867 C   0  0  0  0  0  0  0  0  0  0  0  0
    9.5000  -16.1264   21.5126 O   0  0  0  0  0  0  0  0  0  0  0  0
    6.7858  -20.2700   20.7467 C   0  0  0  0  0  0  0  0  0  0  0  0
    6.0753  -21.2160   20.0471 C   0  0  0  0  0  0  0  0  0  0  0  0
    7.6449  -12.3558   23.5112 C   0  0  0  0  0  0  0  0  0  0  0  0
    7.2338  -13.4220   24.5666 C   0  0  2  0  0  0  0  0  0  0  0  0
    6.4979  -12.6507   25.6385 C   0  0  0  0  0  0  0  0  0  0  0  0
    8.4575  -14.1173   25.0629 C   0  0  0  0  0  0  0  0  0  0  0  0
    9.2097  -14.8935   24.0376 C   0  0  2  0  0  0  0  0  0  0  0  0
    8.2800  -15.9137   23.4630 N   0  0  0  0  0  0  0  0  0  0  0  0
   10.3715  -15.6334   24.5553 C   0  0  0  0  0  0  0  0  0  0  0  0
   11.5016  -15.0099   24.6689 O   0  0  0  0  0  0  0  0  0  0  0  0
   10.1617  -13.9320   30.5984 O   0  0  0  0  0  0  0  0  0  0  0  0
   10.4322  -14.9309   29.6600 C   0  0  0  0  0  0  0  0  0  0  0  0
   11.3830  -14.7941   28.6741 C   0  0  0  0  0  0  0  0  0  0  0  0
   11.6336  -15.7877   27.7617 C   0  0  0  0  0  0  0  0  0  0  0  0
   10.9063  -16.9643   27.8363 C   0  0  0  0  0  0  0  0  0  0  0  0
   11.0954  -18.0846   26.9042 C   0  0  0  0  0  0  0  0  0  0  0  0
   11.5174  -17.6502   25.5103 C   0  0  2  0  0  0  0  0  0  0  0  0
   10.3303  -16.9879   24.9460 N   0  0  0  0  0  0  0  0  0  0  0  0
   11.8480  -18.8030   24.6703 C   0  0  0  0  0  0  0  0  0  0  0  0
   12.8639  -19.4908   24.9299 O   0  0  0  0  0  0  0  0  0  0  0  0
    9.9570  -17.0850   28.8304 C   0  0  0  0  0  0  0  0  0  0  0  0
    9.6947  -16.0923   29.7556 C   0  0  0  0  0  0  0  0  0  0  0  0
   11.0576  -19.1444   23.5972 O   0  0  0  0  0  0  0  0  0  0  0  0
  2  1  1  0
  3  2  2  0
  4  3  1  0
  5  4  2  0
  5 11  1  0
  6  5  1  0
  7  8  1  6
  7  6  1  0
  9  7  1  0
 10  9  2  0
 11 12  2  0
 12  2  1  0
 14 13  1  6
 14 16  1  0
 15 14  1  0
 17 16  1  1
 17 19  1  0
 17 18  1  0
 18  9  1  0
 19 28  1  0
 20 19  2  0
 22 32  2  0
 22 21  1  0
 23 22  1  0
 24 25  1  0
 24 23  2  0
 25 31  2  0
 26 25  1  0
 27 26  1  1
 27 29  1  0
 28 27  1  0
 29 30  2  0
 29 33  1  0
 31 32  1  0
M  END
$$$$
