YLY.pdb
     RDKit          3D

 33 34  0  0  1  0  0  0  0  0999 V2000
    8.2118  -21.9029   18.6265 O   0  0  0  0  0  0  0  0  0  0  0  0
    8.5197  -20.9201   19.5748 C   0  0  0  0  0  0  0  0  0  0  0  0
    9.8134  -20.4743   19.7764 C   0  0  0  0  0  0  0  0  0  0  0  0
   10.0843  -19.5034   20.7197 C   0  0  0  0  0  0  0  0  0  0  0  0
    9.0890  -18.9452   21.4899 C   0  0  0  0  0  0  0  0  0  0  0  0
    9.4313  -17.9202   22.4747 C   0  0  0  0  0  0  0  0  0  0  0  0
    9.0893  -16.5149   22.0139 C   0  0  2  0  0  0  0  0  0  0  0  0
    9.9439  -16.0727   20.9467 N   0  0  0  0  0  0  0  0  0  0  0  0
    9.2944  -15.6195   23.1768 C   0  0  0  0  0  0  0  0  0  0  0  0
   10.4255  -15.1075   23.3355 O   0  0  0  0  0  0  0  0  0  0  0  0
    7.7959  -19.3776   21.3019 C   0  0  0  0  0  0  0  0  0  0  0  0
    7.5406  -20.3448   20.3593 C   0  0  0  0  0  0  0  0  0  0  0  0
    5.9469  -12.0732   26.8947 C   0  0  0  0  0  0  0  0  0  0  0  0
    7.3329  -12.7536   26.7048 C   0  0  2  0  0  0  0  0  0  0  0  0
    8.3078  -11.6136   26.5164 C   0  0  0  0  0  0  0  0  0  0  0  0
    7.2667  -13.6833   25.5394 C   0  0  0  0  0  0  0  0  0  0  0  0
    8.4915  -14.4979   25.3035 C   0  0  2  0  0  0  0  0  0  0  0  0
    8.2546  -15.3400   24.0910 N   0  0  0  0  0  0  0  0  0  0  0  0
    8.8340  -15.4248   26.3939 C   0  0  0  0  0  0  0  0  0  0  0  0
    8.0950  -15.4281   27.4582 O   0  0  0  0  0  0  0  0  0  0  0  0
   14.2932  -17.5375   22.2108 O   0  0  0  0  0  0  0  0  0  0  0  0
   13.7423  -17.1730   23.4417 C   0  0  0  0  0  0  0  0  0  0  0  0
   13.2166  -18.0870   24.3266 C   0  0  0  0  0  0  0  0  0  0  0  0
   12.6800  -17.7082   25.5312 C   0  0  0  0  0  0  0  0  0  0  0  0
   12.6677  -16.3641   25.8658 C   0  0  0  0  0  0  0  0  0  0  0  0
   12.1117  -15.8567   27.1280 C   0  0  0  0  0  0  0  0  0  0  0  0
   10.7962  -16.5103   27.5183 C   0  0  2  0  0  0  0  0  0  0  0  0
    9.9207  -16.3227   26.3501 N   0  0  0  0  0  0  0  0  0  0  0  0
   10.1870  -15.8369   28.6668 C   0  0  0  0  0  0  0  0  0  0  0  0
    9.7665  -16.5149   29.6342 O   0  0  0  0  0  0  0  0  0  0  0  0
   13.1985  -15.4611   24.9676 C   0  0  0  0  0  0  0  0  0  0  0  0
   13.7420  -15.8291   23.7512 C   0  0  0  0  0  0  0  0  0  0  0  0
   10.0692  -14.4665   28.7008 O   0  0  0  0  0  0  0  0  0  0  0  0
  2  1  1  0
  3  2  2  0
  4  3  1  0
  5  4  2  0
  5 11  1  0
  6  5  1  0
  7  8  1  6
  7  6  1  0
  9  7  1  0
 10  9  2  0
 11 12  2  0
 12  2  1  0
 14 13  1  6
 14 16  1  0
 15 14  1  0
 17 16  1  1
 17 19  1  0
 17 18  1  0
 18  9  1  0
 19 28  1  0
 20 19  2  0
 22 32  2  0
 22 21  1  0
 23 22  1  0
 24 25  1  0
 24 23  2  0
 25 31  2  0
 26 25  1  0
 27 26  1  6
 27 29  1  0
 28 27  1  0
 29 30  2  0
 29 33  1  0
 31 32  1  0
M  END
$$$$
