FQA.pdb
     RDKit          3D

 26 26  0  0  1  0  0  0  0  0999 V2000
   32.9159  -30.9490  -18.2252 N   0  0  0  0  0  0  0  0  0  0  0  0
   32.0032  -30.0876  -18.9076 C   0  0  1  0  0  0  0  0  0  0  0  0
   31.5277  -30.6432  -20.2250 C   0  0  0  0  0  0  0  0  0  0  0  0
   32.5369  -30.5846  -21.2850 C   0  0  0  0  0  0  0  0  0  0  0  0
   33.3908  -31.6604  -21.4240 C   0  0  0  0  0  0  0  0  0  0  0  0
   34.3732  -31.6922  -22.3961 C   0  0  0  0  0  0  0  0  0  0  0  0
   34.5244  -30.6372  -23.2595 C   0  0  0  0  0  0  0  0  0  0  0  0
   33.6910  -29.5648  -23.1390 C   0  0  0  0  0  0  0  0  0  0  0  0
   32.6999  -29.5305  -22.1597 C   0  0  0  0  0  0  0  0  0  0  0  0
   30.7703  -29.8219  -18.0824 C   0  0  0  0  0  0  0  0  0  0  0  0
   30.4088  -30.6286  -17.1889 O   0  0  0  0  0  0  0  0  0  0  0  0
   28.3245  -24.1093  -17.2872 N   0  0  0  0  0  0  0  0  0  0  0  0
   27.4777  -24.9015  -16.4772 C   0  0  0  0  0  0  0  0  0  0  0  0
   26.6561  -24.2679  -15.7397 O   0  0  0  0  0  0  0  0  0  0  0  0
   27.5396  -26.3867  -16.4832 C   0  0  0  0  0  0  0  0  0  0  0  0
   28.6418  -26.8004  -17.4008 C   0  0  0  0  0  0  0  0  0  0  0  0
   28.8690  -28.2955  -17.4147 C   0  0  2  0  0  0  0  0  0  0  0  0
   29.9749  -28.6643  -18.2762 N   0  0  0  0  0  0  0  0  0  0  0  0
   27.6338  -29.0196  -17.8425 C   0  0  0  0  0  0  0  0  0  0  0  0
   27.3742  -29.1486  -19.0720 O   0  0  0  0  0  0  0  0  0  0  0  0
   25.1220  -31.1927  -16.1414 C   0  0  0  0  0  0  0  0  0  0  0  0
   25.5697  -30.3338  -17.2852 C   0  0  2  0  0  0  0  0  0  0  0  0
   26.7256  -29.5777  -16.9025 N   0  0  0  0  0  0  0  0  0  0  0  0
   24.4738  -29.4679  -17.8020 C   0  0  0  0  0  0  0  0  0  0  0  0
   23.4187  -29.9623  -18.5563 O   0  0  0  0  0  0  0  0  0  0  0  0
   24.4811  -28.2345  -17.5590 O   0  0  0  0  0  0  0  0  0  0  0  0
  2  1  1  1
  2 10  1  0
  3  2  1  0
  3  4  1  0
  4  5  2  0
  4  9  1  0
  5  6  1  0
  6  7  2  0
  8  7  1  0
  9  8  2  0
 10 11  2  0
 13 12  1  0
 13 15  1  0
 14 13  2  0
 16 15  1  0
 17 16  1  6
 17 19  1  0
 18 17  1  0
 18 10  1  0
 19 20  2  0
 22 21  1  1
 22 24  1  0
 23 22  1  0
 23 19  1  0
 24 26  2  0
 24 25  1  0
M  END
$$$$
