FQA.pdb
     RDKit          3D

 26 26  0  0  1  0  0  0  0  0999 V2000
   25.2729  -18.6064  -15.8123 N   0  0  0  0  0  0  0  0  0  0  0  0
   26.3161  -18.7512  -14.8470 C   0  0  1  0  0  0  0  0  0  0  0  0
   27.1247  -17.4956  -14.6475 C   0  0  0  0  0  0  0  0  0  0  0  0
   27.7916  -17.0277  -15.8648 C   0  0  0  0  0  0  0  0  0  0  0  0
   28.9028  -17.7217  -16.3000 C   0  0  0  0  0  0  0  0  0  0  0  0
   29.5951  -17.3523  -17.4382 C   0  0  0  0  0  0  0  0  0  0  0  0
   29.1865  -16.2690  -18.1735 C   0  0  0  0  0  0  0  0  0  0  0  0
   28.0911  -15.5699  -17.7607 C   0  0  0  0  0  0  0  0  0  0  0  0
   27.3916  -15.9404  -16.6136 C   0  0  0  0  0  0  0  0  0  0  0  0
   25.7701  -19.1310  -13.4944 C   0  0  0  0  0  0  0  0  0  0  0  0
   24.9088  -18.4145  -12.9247 O   0  0  0  0  0  0  0  0  0  0  0  0
   24.4071  -23.6706  -13.7810 N   0  0  0  0  0  0  0  0  0  0  0  0
   23.4170  -23.2195  -12.8771 C   0  0  0  0  0  0  0  0  0  0  0  0
   22.2154  -23.5256  -13.1653 O   0  0  0  0  0  0  0  0  0  0  0  0
   23.7545  -22.4340  -11.6612 C   0  0  0  0  0  0  0  0  0  0  0  0
   25.2320  -22.2235  -11.6412 C   0  0  0  0  0  0  0  0  0  0  0  0
   25.6199  -20.7635  -11.5701 C   0  0  2  0  0  0  0  0  0  0  0  0
   26.1995  -20.2989  -12.8149 N   0  0  0  0  0  0  0  0  0  0  0  0
   26.5748  -20.5184  -10.4471 C   0  0  0  0  0  0  0  0  0  0  0  0
   27.6513  -21.1761  -10.3820 O   0  0  0  0  0  0  0  0  0  0  0  0
   26.6565  -18.4086   -7.3546 C   0  0  0  0  0  0  0  0  0  0  0  0
   26.7307  -19.7223   -8.0723 C   0  0  2  0  0  0  0  0  0  0  0  0
   26.3128  -19.5575   -9.4333 N   0  0  0  0  0  0  0  0  0  0  0  0
   25.9658  -20.7909   -7.3718 C   0  0  0  0  0  0  0  0  0  0  0  0
   26.3105  -21.2574   -6.1108 O   0  0  0  0  0  0  0  0  0  0  0  0
   24.9618  -21.3085   -7.9238 O   0  0  0  0  0  0  0  0  0  0  0  0
  2  1  1  6
  2 10  1  0
  3  2  1  0
  3  4  1  0
  4  5  2  0
  4  9  1  0
  5  6  1  0
  6  7  2  0
  8  7  1  0
  9  8  2  0
 10 11  2  0
 13 12  1  0
 13 15  1  0
 14 13  2  0
 16 15  1  0
 17 16  1  6
 17 19  1  0
 18 17  1  0
 18 10  1  0
 19 20  2  0
 22 21  1  1
 22 24  1  0
 23 22  1  0
 23 19  1  0
 24 26  2  0
 24 25  1  0
M  END
$$$$
