FQA.pdb
     RDKit          3D

 26 26  0  0  1  0  0  0  0  0999 V2000
   28.3162  -20.3537  -10.0908 N   0  0  0  0  0  0  0  0  0  0  0  0
   27.0052  -20.8291   -9.7806 C   0  0  1  0  0  0  0  0  0  0  0  0
   26.3665  -20.1086   -8.6216 C   0  0  0  0  0  0  0  0  0  0  0  0
   27.2270  -20.0203   -7.4396 C   0  0  0  0  0  0  0  0  0  0  0  0
   27.2309  -18.8359   -6.7305 C   0  0  0  0  0  0  0  0  0  0  0  0
   28.0114  -18.6624   -5.6028 C   0  0  0  0  0  0  0  0  0  0  0  0
   28.8135  -19.6809   -5.1550 C   0  0  0  0  0  0  0  0  0  0  0  0
   28.8242  -20.8591   -5.8413 C   0  0  0  0  0  0  0  0  0  0  0  0
   28.0382  -21.0363   -6.9784 C   0  0  0  0  0  0  0  0  0  0  0  0
   26.0689  -20.6755  -10.9517 C   0  0  0  0  0  0  0  0  0  0  0  0
   26.0472  -19.6125  -11.6220 O   0  0  0  0  0  0  0  0  0  0  0  0
   25.3531  -22.3692  -15.4567 N   0  0  0  0  0  0  0  0  0  0  0  0
   23.9481  -22.5202  -15.5177 C   0  0  0  0  0  0  0  0  0  0  0  0
   23.4175  -22.3596  -16.6636 O   0  0  0  0  0  0  0  0  0  0  0  0
   23.1346  -22.8470  -14.3172 C   0  0  0  0  0  0  0  0  0  0  0  0
   24.0539  -22.9342  -13.1446 C   0  0  0  0  0  0  0  0  0  0  0  0
   24.2628  -21.6033  -12.4575 C   0  0  2  0  0  0  0  0  0  0  0  0
   25.1832  -21.7111  -11.3429 N   0  0  0  0  0  0  0  0  0  0  0  0
   22.9634  -21.0362  -11.9850 C   0  0  0  0  0  0  0  0  0  0  0  0
   22.7430  -20.9150  -10.7471 O   0  0  0  0  0  0  0  0  0  0  0  0
   20.9416  -18.5145  -12.3412 C   0  0  0  0  0  0  0  0  0  0  0  0
   20.7329  -19.9931  -12.4694 C   0  0  2  0  0  0  0  0  0  0  0  0
   21.9501  -20.6216  -12.8911 N   0  0  0  0  0  0  0  0  0  0  0  0
   19.5873  -20.3250  -13.3612 C   0  0  0  0  0  0  0  0  0  0  0  0
   18.2685  -20.0585  -13.0200 O   0  0  0  0  0  0  0  0  0  0  0  0
   19.7963  -20.8695  -14.4749 O   0  0  0  0  0  0  0  0  0  0  0  0
  2  1  1  6
  2 10  1  0
  3  2  1  0
  3  4  1  0
  4  5  2  0
  4  9  1  0
  5  6  1  0
  6  7  2  0
  8  7  1  0
  9  8  2  0
 10 11  2  0
 13 12  1  0
 13 15  1  0
 14 13  2  0
 16 15  1  0
 17 16  1  1
 17 19  1  0
 18 17  1  0
 18 10  1  0
 19 20  2  0
 22 21  1  6
 22 24  1  0
 23 22  1  0
 23 19  1  0
 24 26  2  0
 24 25  1  0
M  END
$$$$
