FQA.pdb
     RDKit          3D

 26 26  0  0  1  0  0  0  0  0999 V2000
   21.3214   -5.0927  -14.2781 N   0  0  0  0  0  0  0  0  0  0  0  0
   21.1839   -6.1390  -15.2412 C   0  0  1  0  0  0  0  0  0  0  0  0
   22.4072   -7.0112  -15.3554 C   0  0  0  0  0  0  0  0  0  0  0  0
   23.4924   -6.4016  -16.1275 C   0  0  0  0  0  0  0  0  0  0  0  0
   24.3375   -5.5268  -15.4745 C   0  0  0  0  0  0  0  0  0  0  0  0
   25.3881   -4.9051  -16.1231 C   0  0  0  0  0  0  0  0  0  0  0  0
   25.6187   -5.1475  -17.4532 C   0  0  0  0  0  0  0  0  0  0  0  0
   24.7954   -6.0084  -18.1167 C   0  0  0  0  0  0  0  0  0  0  0  0
   23.7356   -6.6363  -17.4650 C   0  0  0  0  0  0  0  0  0  0  0  0
   20.0334   -7.0530  -14.9054 C   0  0  0  0  0  0  0  0  0  0  0  0
   19.7981   -7.3790  -13.7146 O   0  0  0  0  0  0  0  0  0  0  0  0
   14.1612   -5.6676  -16.2210 N   0  0  0  0  0  0  0  0  0  0  0  0
   15.4783   -5.8144  -15.7267 C   0  0  0  0  0  0  0  0  0  0  0  0
   16.2293   -4.7911  -15.8234 O   0  0  0  0  0  0  0  0  0  0  0  0
   15.9619   -7.0864  -15.1286 C   0  0  0  0  0  0  0  0  0  0  0  0
   16.7498   -7.8155  -16.1656 C   0  0  0  0  0  0  0  0  0  0  0  0
   18.0282   -8.4145  -15.6234 C   0  0  2  0  0  0  0  0  0  0  0  0
   19.1775   -7.5777  -15.9064 N   0  0  0  0  0  0  0  0  0  0  0  0
   18.2534   -9.7841  -16.1773 C   0  0  0  0  0  0  0  0  0  0  0  0
   18.7635   -9.9226  -17.3246 O   0  0  0  0  0  0  0  0  0  0  0  0
   18.9781  -13.0816  -15.1391 C   0  0  0  0  0  0  0  0  0  0  0  0
   18.0403  -12.2774  -15.9877 C   0  0  2  0  0  0  0  0  0  0  0  0
   17.9094  -10.9554  -15.4496 N   0  0  0  0  0  0  0  0  0  0  0  0
   16.7227  -12.9490  -16.1630 C   0  0  0  0  0  0  0  0  0  0  0  0
   15.9057  -13.2901  -15.0940 O   0  0  0  0  0  0  0  0  0  0  0  0
   16.3101  -13.2297  -17.3170 O   0  0  0  0  0  0  0  0  0  0  0  0
  2  1  1  1
  2 10  1  0
  3  2  1  0
  3  4  1  0
  4  5  2  0
  4  9  1  0
  5  6  1  0
  6  7  2  0
  8  7  1  0
  9  8  2  0
 10 11  2  0
 13 12  1  0
 13 15  1  0
 14 13  2  0
 16 15  1  0
 17 16  1  6
 17 19  1  0
 18 17  1  0
 18 10  1  0
 19 20  2  0
 22 21  1  1
 22 24  1  0
 23 22  1  0
 23 19  1  0
 24 26  2  0
 24 25  1  0
M  END
$$$$
