FQA.pdb
     RDKit          3D

 26 26  0  0  1  0  0  0  0  0999 V2000
   15.8108   -9.0972   -9.5452 N   0  0  0  0  0  0  0  0  0  0  0  0
   15.3727   -7.7375   -9.5575 C   0  0  1  0  0  0  0  0  0  0  0  0
   15.0133   -7.2126   -8.1917 C   0  0  0  0  0  0  0  0  0  0  0  0
   13.6541   -7.5586   -7.7693 C   0  0  0  0  0  0  0  0  0  0  0  0
   12.6800   -6.5853   -7.8665 C   0  0  0  0  0  0  0  0  0  0  0  0
   11.3707   -6.8223   -7.4912 C   0  0  0  0  0  0  0  0  0  0  0  0
   11.0036   -8.0512   -7.0053 C   0  0  0  0  0  0  0  0  0  0  0  0
   11.9508   -9.0265   -6.9013 C   0  0  0  0  0  0  0  0  0  0  0  0
   13.2713   -8.7899   -7.2790 C   0  0  0  0  0  0  0  0  0  0  0  0
   16.4342   -6.8187  -10.1061 C   0  0  0  0  0  0  0  0  0  0  0  0
   17.5824   -6.7864   -9.5960 O   0  0  0  0  0  0  0  0  0  0  0  0
   17.1506   -7.6228  -16.1079 N   0  0  0  0  0  0  0  0  0  0  0  0
   17.7424   -6.8872  -15.0547 C   0  0  0  0  0  0  0  0  0  0  0  0
   19.0045   -6.7343  -15.1195 O   0  0  0  0  0  0  0  0  0  0  0  0
   16.9422   -6.3238  -13.9358 C   0  0  0  0  0  0  0  0  0  0  0  0
   17.8848   -5.7039  -12.9586 C   0  0  0  0  0  0  0  0  0  0  0  0
   17.1814   -5.0749  -11.7768 C   0  0  2  0  0  0  0  0  0  0  0  0
   16.1859   -5.9618  -11.2080 N   0  0  0  0  0  0  0  0  0  0  0  0
   16.5418   -3.7807  -12.1627 C   0  0  0  0  0  0  0  0  0  0  0  0
   15.3844   -3.7774  -12.6689 O   0  0  0  0  0  0  0  0  0  0  0  0
   16.7748   -0.2832  -11.2591 C   0  0  0  0  0  0  0  0  0  0  0  0
   16.6195   -1.2807  -12.3671 C   0  0  2  0  0  0  0  0  0  0  0  0
   17.1975   -2.5333  -11.9785 N   0  0  0  0  0  0  0  0  0  0  0  0
   17.1704   -0.7801  -13.6569 C   0  0  0  0  0  0  0  0  0  0  0  0
   16.5733    0.2416  -14.3822 O   0  0  0  0  0  0  0  0  0  0  0  0
   18.2189   -1.2871  -14.1302 O   0  0  0  0  0  0  0  0  0  0  0  0
  2  1  1  1
  2 10  1  0
  3  2  1  0
  3  4  1  0
  4  5  2  0
  4  9  1  0
  5  6  1  0
  6  7  2  0
  8  7  1  0
  9  8  2  0
 10 11  2  0
 13 12  1  0
 13 15  1  0
 14 13  2  0
 16 15  1  0
 17 16  1  6
 17 19  1  0
 18 17  1  0
 18 10  1  0
 19 20  2  0
 22 21  1  1
 22 24  1  0
 23 22  1  0
 23 19  1  0
 24 26  2  0
 24 25  1  0
M  END
$$$$
