FQA.pdb
     RDKit          3D

 26 26  0  0  1  0  0  0  0  0999 V2000
   26.0841  -18.5730   -8.0376 N   0  0  0  0  0  0  0  0  0  0  0  0
   26.8661  -19.6383   -8.5802 C   0  0  1  0  0  0  0  0  0  0  0  0
   27.0430  -20.7943   -7.6300 C   0  0  0  0  0  0  0  0  0  0  0  0
   27.7786  -20.4454   -6.4123 C   0  0  0  0  0  0  0  0  0  0  0  0
   29.0572  -19.9438   -6.5514 C   0  0  0  0  0  0  0  0  0  0  0  0
   29.8249  -19.5877   -5.4583 C   0  0  0  0  0  0  0  0  0  0  0  0
   29.3250  -19.7273   -4.1887 C   0  0  0  0  0  0  0  0  0  0  0  0
   28.0640  -20.2211   -4.0295 C   0  0  0  0  0  0  0  0  0  0  0  0
   27.2881  -20.5806   -5.1300 C   0  0  0  0  0  0  0  0  0  0  0  0
   26.2424  -20.2014   -9.8315 C   0  0  0  0  0  0  0  0  0  0  0  0
   24.9957  -20.3300   -9.9263 O   0  0  0  0  0  0  0  0  0  0  0  0
   25.9518  -18.5318  -15.3807 N   0  0  0  0  0  0  0  0  0  0  0  0
   27.2190  -19.0936  -15.0990 C   0  0  0  0  0  0  0  0  0  0  0  0
   28.2147  -18.3070  -15.2006 O   0  0  0  0  0  0  0  0  0  0  0  0
   27.3837  -20.5180  -14.7071 C   0  0  0  0  0  0  0  0  0  0  0  0
   27.7918  -20.5591  -13.2720 C   0  0  0  0  0  0  0  0  0  0  0  0
   26.6249  -20.4115  -12.3215 C   0  0  2  0  0  0  0  0  0  0  0  0
   27.0259  -20.6051  -10.9420 N   0  0  0  0  0  0  0  0  0  0  0  0
   25.5301  -21.3682  -12.6670 C   0  0  0  0  0  0  0  0  0  0  0  0
   25.6098  -22.5744  -12.3002 O   0  0  0  0  0  0  0  0  0  0  0  0
   22.1833  -21.6648  -12.7522 C   0  0  0  0  0  0  0  0  0  0  0  0
   23.3073  -21.8550  -13.7253 C   0  0  2  0  0  0  0  0  0  0  0  0
   24.3842  -20.9652  -13.4047 N   0  0  0  0  0  0  0  0  0  0  0  0
   22.8590  -21.7134  -15.1383 C   0  0  0  0  0  0  0  0  0  0  0  0
   21.9702  -22.5962  -15.7361 O   0  0  0  0  0  0  0  0  0  0  0  0
   23.2886  -20.7633  -15.8407 O   0  0  0  0  0  0  0  0  0  0  0  0
  2  1  1  1
  2 10  1  0
  3  2  1  0
  3  4  1  0
  4  5  2  0
  4  9  1  0
  5  6  1  0
  6  7  2  0
  8  7  1  0
  9  8  2  0
 10 11  2  0
 13 12  1  0
 13 15  1  0
 14 13  2  0
 16 15  1  0
 17 16  1  6
 17 19  1  0
 18 17  1  0
 18 10  1  0
 19 20  2  0
 22 21  1  1
 22 24  1  0
 23 22  1  0
 23 19  1  0
 24 26  2  0
 24 25  1  0
M  END
$$$$
