FQA.pdb
     RDKit          3D

 26 26  0  0  1  0  0  0  0  0999 V2000
   28.6654  -21.3981   -9.0589 N   0  0  0  0  0  0  0  0  0  0  0  0
   27.3055  -20.9607   -9.0405 C   0  0  1  0  0  0  0  0  0  0  0  0
   27.1061  -19.6577   -8.3106 C   0  0  0  0  0  0  0  0  0  0  0  0
   27.5977  -19.6770   -6.9309 C   0  0  0  0  0  0  0  0  0  0  0  0
   26.7159  -20.0495   -5.9362 C   0  0  0  0  0  0  0  0  0  0  0  0
   27.0921  -20.0964   -4.6068 C   0  0  0  0  0  0  0  0  0  0  0  0
   28.3723  -19.7683   -4.2396 C   0  0  0  0  0  0  0  0  0  0  0  0
   29.2588  -19.3977   -5.2070 C   0  0  0  0  0  0  0  0  0  0  0  0
   28.8819  -19.3496   -6.5479 C   0  0  0  0  0  0  0  0  0  0  0  0
   26.7697  -20.7593  -10.4348 C   0  0  0  0  0  0  0  0  0  0  0  0
   27.4883  -20.2516  -11.3323 O   0  0  0  0  0  0  0  0  0  0  0  0
   22.8315  -23.2088  -14.4100 N   0  0  0  0  0  0  0  0  0  0  0  0
   24.1784  -23.2504  -14.8396 C   0  0  0  0  0  0  0  0  0  0  0  0
   24.3656  -23.5321  -16.0668 O   0  0  0  0  0  0  0  0  0  0  0  0
   25.3121  -22.9819  -13.9164 C   0  0  0  0  0  0  0  0  0  0  0  0
   24.7486  -22.6639  -12.5714 C   0  0  0  0  0  0  0  0  0  0  0  0
   24.9806  -21.2277  -12.1582 C   0  0  2  0  0  0  0  0  0  0  0  0
   25.4479  -21.1297  -10.7896 N   0  0  0  0  0  0  0  0  0  0  0  0
   23.7370  -20.4162  -12.3254 C   0  0  0  0  0  0  0  0  0  0  0  0
   22.8945  -20.3555  -11.3862 O   0  0  0  0  0  0  0  0  0  0  0  0
   22.3008  -18.2615  -15.0523 C   0  0  0  0  0  0  0  0  0  0  0  0
   22.2352  -18.9931  -13.7458 C   0  0  2  0  0  0  0  0  0  0  0  0
   23.4624  -19.6985  -13.5210 N   0  0  0  0  0  0  0  0  0  0  0  0
   21.0464  -19.8859  -13.6593 C   0  0  0  0  0  0  0  0  0  0  0  0
   21.1023  -21.2412  -13.9535 O   0  0  0  0  0  0  0  0  0  0  0  0
   19.9341  -19.4172  -13.3076 O   0  0  0  0  0  0  0  0  0  0  0  0
  2  1  1  6
  2 10  1  0
  3  2  1  0
  3  4  1  0
  4  5  2  0
  4  9  1  0
  5  6  1  0
  6  7  2  0
  8  7  1  0
  9  8  2  0
 10 11  2  0
 13 12  1  0
 13 15  1  0
 14 13  2  0
 16 15  1  0
 17 16  1  1
 17 19  1  0
 18 17  1  0
 18 10  1  0
 19 20  2  0
 22 21  1  6
 22 24  1  0
 23 22  1  0
 23 19  1  0
 24 26  2  0
 24 25  1  0
M  END
$$$$
