FQA.pdb
     RDKit          3D

 26 26  0  0  1  0  0  0  0  0999 V2000
   27.5661  -20.6573  -11.4663 N   0  0  0  0  0  0  0  0  0  0  0  0
   26.2901  -21.1978  -11.1193 C   0  0  1  0  0  0  0  0  0  0  0  0
   25.7527  -20.6718   -9.8136 C   0  0  0  0  0  0  0  0  0  0  0  0
   26.7708  -20.5471   -8.7680 C   0  0  0  0  0  0  0  0  0  0  0  0
   26.6725  -19.4827   -7.8944 C   0  0  0  0  0  0  0  0  0  0  0  0
   27.5878  -19.2856   -6.8773 C   0  0  0  0  0  0  0  0  0  0  0  0
   28.6326  -20.1584   -6.7102 C   0  0  0  0  0  0  0  0  0  0  0  0
   28.7477  -21.2165   -7.5625 C   0  0  0  0  0  0  0  0  0  0  0  0
   27.8262  -21.4172   -8.5886 C   0  0  0  0  0  0  0  0  0  0  0  0
   25.2531  -20.8867  -12.1681 C   0  0  0  0  0  0  0  0  0  0  0  0
   25.2401  -19.7718  -12.7481 O   0  0  0  0  0  0  0  0  0  0  0  0
   25.1632  -25.0593  -13.9980 N   0  0  0  0  0  0  0  0  0  0  0  0
   25.1713  -23.8470  -14.7268 C   0  0  0  0  0  0  0  0  0  0  0  0
   26.2874  -23.2377  -14.7864 O   0  0  0  0  0  0  0  0  0  0  0  0
   23.9512  -23.3118  -15.3859 C   0  0  0  0  0  0  0  0  0  0  0  0
   22.9793  -22.9286  -14.3198 C   0  0  0  0  0  0  0  0  0  0  0  0
   23.3338  -21.6262  -13.6377 C   0  0  2  0  0  0  0  0  0  0  0  0
   24.2598  -21.8272  -12.5408 N   0  0  0  0  0  0  0  0  0  0  0  0
   22.1072  -20.9321  -13.1410 C   0  0  0  0  0  0  0  0  0  0  0  0
   21.6894  -21.1545  -11.9698 O   0  0  0  0  0  0  0  0  0  0  0  0
   19.9861  -18.1009  -14.3284 C   0  0  0  0  0  0  0  0  0  0  0  0
   20.2125  -19.3246  -13.4930 C   0  0  2  0  0  0  0  0  0  0  0  0
   21.3816  -20.0164  -13.9501 N   0  0  0  0  0  0  0  0  0  0  0  0
   19.0139  -20.2074  -13.4507 C   0  0  0  0  0  0  0  0  0  0  0  0
   17.9306  -19.9632  -12.6179 O   0  0  0  0  0  0  0  0  0  0  0  0
   18.9559  -21.2225  -14.1901 O   0  0  0  0  0  0  0  0  0  0  0  0
  2  1  1  6
  2 10  1  0
  3  2  1  0
  3  4  1  0
  4  5  2  0
  4  9  1  0
  5  6  1  0
  6  7  2  0
  8  7  1  0
  9  8  2  0
 10 11  2  0
 13 12  1  0
 13 15  1  0
 14 13  2  0
 16 15  1  0
 17 16  1  1
 17 19  1  0
 18 17  1  0
 18 10  1  0
 19 20  2  0
 22 21  1  6
 22 24  1  0
 23 22  1  0
 23 19  1  0
 24 26  2  0
 24 25  1  0
M  END
$$$$
