AMQ.pdb
     RDKit          3D

 23 22  0  0  1  0  0  0  0  0999 V2000
    7.4472  -17.6442   20.0145 C   0  0  0  0  0  0  0  0  0  0  0  0
    7.6032  -16.1379   19.9480 C   0  0  2  0  0  0  0  0  0  0  0  0
    8.5183  -15.8344   18.8816 N   0  0  0  0  0  0  0  0  0  0  0  0
    8.1659  -15.6772   21.2472 C   0  0  0  0  0  0  0  0  0  0  0  0
    9.3972  -15.7990   21.4867 O   0  0  0  0  0  0  0  0  0  0  0  0
    7.6313  -11.2488   27.6293 C   0  0  0  0  0  0  0  0  0  0  0  0
    6.5290  -12.1871   26.5367 S   0  0  0  0  0  0  0  0  0  0  0  0
    7.4887  -13.4424   25.7039 C   0  0  0  0  0  0  0  0  0  0  0  0
    7.0408  -13.8151   24.3430 C   0  0  0  0  0  0  0  0  0  0  0  0
    7.9272  -14.6879   23.5380 C   0  0  2  0  0  0  0  0  0  0  0  0
    7.3672  -15.0874   22.2688 N   0  0  0  0  0  0  0  0  0  0  0  0
    8.4520  -15.8552   24.2983 C   0  0  0  0  0  0  0  0  0  0  0  0
    7.6760  -16.8583   24.4534 O   0  0  0  0  0  0  0  0  0  0  0  0
   14.1297  -18.6927   25.0291 N   0  0  0  0  0  0  0  0  0  0  0  0
   13.4955  -18.3030   23.8298 C   0  0  0  0  0  0  0  0  0  0  0  0
   14.0278  -18.6160   22.7386 O   0  0  0  0  0  0  0  0  0  0  0  0
   12.2441  -17.5580   23.8563 C   0  0  0  0  0  0  0  0  0  0  0  0
   11.7740  -17.0437   25.1543 C   0  0  0  0  0  0  0  0  0  0  0  0
   10.3283  -17.1016   25.4783 C   0  0  2  0  0  0  0  0  0  0  0  0
    9.7480  -15.8927   24.8422 N   0  0  0  0  0  0  0  0  0  0  0  0
   10.0569  -16.9395   26.9085 C   0  0  0  0  0  0  0  0  0  0  0  0
   10.1815  -17.8911   27.7468 O   0  0  0  0  0  0  0  0  0  0  0  0
    9.6497  -15.7107   27.4307 O   0  0  0  0  0  0  0  0  0  0  0  0
  2  1  1  1
  2  3  1  0
  4  5  2  0
  4  2  1  0
  7  6  1  0
  8  7  1  0
  8  9  1  0
 10  9  1  1
 10 11  1  0
 10 12  1  0
 11  4  1  0
 12 20  1  0
 13 12  2  0
 15 14  1  0
 15 16  2  0
 17 15  1  0
 18 17  1  0
 19 18  1  1
 19 21  1  0
 20 19  1  0
 21 22  2  0
 21 23  1  0
M  END
$$$$
