AMQ.pdb
     RDKit          3D

 23 22  0  0  1  0  0  0  0  0999 V2000
    7.7966  -13.2792   19.2180 C   0  0  0  0  0  0  0  0  0  0  0  0
    7.9566  -14.6680   19.8041 C   0  0  2  0  0  0  0  0  0  0  0  0
    6.6661  -15.3013   19.8002 N   0  0  0  0  0  0  0  0  0  0  0  0
    8.4468  -14.5220   21.2024 C   0  0  0  0  0  0  0  0  0  0  0  0
    9.6522  -14.2306   21.4273 O   0  0  0  0  0  0  0  0  0  0  0  0
    7.2066  -11.1987   27.7773 C   0  0  0  0  0  0  0  0  0  0  0  0
    6.3102  -12.5137   26.9073 S   0  0  0  0  0  0  0  0  0  0  0  0
    7.4803  -13.4541   25.9393 C   0  0  0  0  0  0  0  0  0  0  0  0
    7.0864  -13.7534   24.5440 C   0  0  0  0  0  0  0  0  0  0  0  0
    8.0729  -14.4431   23.6798 C   0  0  2  0  0  0  0  0  0  0  0  0
    7.6051  -14.6983   22.3381 N   0  0  0  0  0  0  0  0  0  0  0  0
    8.6470  -15.6671   24.3030 C   0  0  0  0  0  0  0  0  0  0  0  0
    7.9147  -16.7134   24.3375 O   0  0  0  0  0  0  0  0  0  0  0  0
   14.7414  -16.3552   24.2237 N   0  0  0  0  0  0  0  0  0  0  0  0
   13.7600  -16.3918   23.2099 C   0  0  0  0  0  0  0  0  0  0  0  0
   14.1186  -16.2297   22.0194 O   0  0  0  0  0  0  0  0  0  0  0  0
   12.3589  -16.6199   23.5364 C   0  0  0  0  0  0  0  0  0  0  0  0
   12.0058  -16.8356   24.9504 C   0  0  0  0  0  0  0  0  0  0  0  0
   10.5786  -16.9622   25.3316 C   0  0  2  0  0  0  0  0  0  0  0  0
    9.9434  -15.7120   24.8455 N   0  0  0  0  0  0  0  0  0  0  0  0
   10.3717  -16.9485   26.7816 C   0  0  0  0  0  0  0  0  0  0  0  0
    9.9161  -15.9343   27.4042 O   0  0  0  0  0  0  0  0  0  0  0  0
   10.6615  -18.0688   27.5622 O   0  0  0  0  0  0  0  0  0  0  0  0
  2  1  1  1
  2  3  1  0
  4  5  2  0
  4  2  1  0
  7  6  1  0
  8  7  1  0
  8  9  1  0
 10  9  1  1
 10 11  1  0
 10 12  1  0
 11  4  1  0
 12 20  1  0
 13 12  2  0
 15 14  1  0
 15 16  2  0
 17 15  1  0
 18 17  1  0
 19 18  1  1
 19 21  1  0
 20 19  1  0
 21 22  2  0
 21 23  1  0
M  END
$$$$
