AMQ.pdb
     RDKit          3D

 23 22  0  0  1  0  0  0  0  0999 V2000
    6.6945  -16.4659   20.5050 C   0  0  0  0  0  0  0  0  0  0  0  0
    7.1315  -15.0219   20.6518 C   0  0  2  0  0  0  0  0  0  0  0  0
    7.9908  -14.7048   19.5438 N   0  0  0  0  0  0  0  0  0  0  0  0
    7.8842  -14.8981   21.9304 C   0  0  0  0  0  0  0  0  0  0  0  0
    9.1274  -15.1031   21.9597 O   0  0  0  0  0  0  0  0  0  0  0  0
    7.7785  -11.4868   27.7831 C   0  0  0  0  0  0  0  0  0  0  0  0
    6.4093  -11.3883   26.5978 S   0  0  0  0  0  0  0  0  0  0  0  0
    6.8014  -12.4162   25.1906 C   0  0  0  0  0  0  0  0  0  0  0  0
    7.3109  -13.7731   25.4914 C   0  0  0  0  0  0  0  0  0  0  0  0
    7.9961  -14.5112   24.4045 C   0  0  2  0  0  0  0  0  0  0  0  0
    7.2605  -14.5501   23.1630 N   0  0  0  0  0  0  0  0  0  0  0  0
    8.4559  -15.8669   24.8128 C   0  0  0  0  0  0  0  0  0  0  0  0
    7.6003  -16.8154   24.7864 O   0  0  0  0  0  0  0  0  0  0  0  0
   13.8464  -19.8927   23.1440 N   0  0  0  0  0  0  0  0  0  0  0  0
   13.6048  -18.8797   24.0967 C   0  0  0  0  0  0  0  0  0  0  0  0
   14.4914  -18.0153   24.2936 O   0  0  0  0  0  0  0  0  0  0  0  0
   12.3487  -18.8328   24.8328 C   0  0  0  0  0  0  0  0  0  0  0  0
   11.5048  -17.6347   24.6825 C   0  0  0  0  0  0  0  0  0  0  0  0
   10.2754  -17.5047   25.5011 C   0  0  2  0  0  0  0  0  0  0  0  0
    9.7746  -16.1363   25.2194 N   0  0  0  0  0  0  0  0  0  0  0  0
   10.5443  -17.5164   26.9409 C   0  0  0  0  0  0  0  0  0  0  0  0
   10.8842  -18.5706   27.5710 O   0  0  0  0  0  0  0  0  0  0  0  0
   10.4472  -16.3505   27.7023 O   0  0  0  0  0  0  0  0  0  0  0  0
  2  1  1  6
  2  3  1  0
  4  5  2  0
  4  2  1  0
  7  6  1  0
  8  7  1  0
  8  9  1  0
 10  9  1  1
 10 11  1  0
 10 12  1  0
 11  4  1  0
 12 20  1  0
 13 12  2  0
 15 14  1  0
 15 16  2  0
 17 15  1  0
 18 17  1  0
 19 18  1  6
 19 21  1  0
 20 19  1  0
 21 22  2  0
 21 23  1  0
M  END
$$$$
