AMQ.pdb
     RDKit          3D

 23 22  0  0  1  0  0  0  0  0999 V2000
    8.3656  -16.4415   19.1897 C   0  0  0  0  0  0  0  0  0  0  0  0
    8.7084  -17.1877   20.4639 C   0  0  2  0  0  0  0  0  0  0  0  0
    7.5414  -17.9189   20.8762 N   0  0  0  0  0  0  0  0  0  0  0  0
    9.0710  -16.1824   21.5007 C   0  0  0  0  0  0  0  0  0  0  0  0
   10.1369  -15.5179   21.3979 O   0  0  0  0  0  0  0  0  0  0  0  0
    6.5979  -11.2169   27.1066 C   0  0  0  0  0  0  0  0  0  0  0  0
    6.2757  -12.7757   26.2372 S   0  0  0  0  0  0  0  0  0  0  0  0
    7.6277  -13.0885   25.1126 C   0  0  0  0  0  0  0  0  0  0  0  0
    7.3994  -14.1309   24.0865 C   0  0  0  0  0  0  0  0  0  0  0  0
    8.5778  -14.8732   23.5806 C   0  0  2  0  0  0  0  0  0  0  0  0
    8.2564  -15.9195   22.6394 N   0  0  0  0  0  0  0  0  0  0  0  0
    9.4729  -15.3649   24.6636 C   0  0  0  0  0  0  0  0  0  0  0  0
    9.8001  -14.5393   25.5821 O   0  0  0  0  0  0  0  0  0  0  0  0
   11.5645  -18.7581   29.4176 N   0  0  0  0  0  0  0  0  0  0  0  0
   10.6712  -19.2531   28.4433 C   0  0  0  0  0  0  0  0  0  0  0  0
    9.5104  -19.5690   28.7966 O   0  0  0  0  0  0  0  0  0  0  0  0
   11.0846  -19.3887   27.0532 C   0  0  0  0  0  0  0  0  0  0  0  0
   10.3898  -18.5714   26.0434 C   0  0  0  0  0  0  0  0  0  0  0  0
   10.8458  -17.1828   25.7937 C   0  0  2  0  0  0  0  0  0  0  0  0
    9.9626  -16.6821   24.7111 N   0  0  0  0  0  0  0  0  0  0  0  0
   12.1980  -17.1179   25.2344 C   0  0  0  0  0  0  0  0  0  0  0  0
   13.2419  -17.0340   25.9604 O   0  0  0  0  0  0  0  0  0  0  0  0
   12.4106  -17.1537   23.8553 O   0  0  0  0  0  0  0  0  0  0  0  0
  2  1  1  6
  2  3  1  0
  4  5  2  0
  4  2  1  0
  7  6  1  0
  8  7  1  0
  8  9  1  0
 10  9  1  1
 10 11  1  0
 10 12  1  0
 11  4  1  0
 12 20  1  0
 13 12  2  0
 15 14  1  0
 15 16  2  0
 17 15  1  0
 18 17  1  0
 19 18  1  6
 19 21  1  0
 20 19  1  0
 21 22  2  0
 21 23  1  0
M  END
$$$$
