AMQ.pdb
     RDKit          3D

 23 22  0  0  1  0  0  0  0  0999 V2000
    7.8828  -14.4140   18.9218 C   0  0  0  0  0  0  0  0  0  0  0  0
    7.9939  -15.6156   19.8392 C   0  0  2  0  0  0  0  0  0  0  0  0
    6.6878  -16.2045   19.9570 N   0  0  0  0  0  0  0  0  0  0  0  0
    8.4568  -15.1352   21.1703 C   0  0  0  0  0  0  0  0  0  0  0  0
    9.6496  -14.7624   21.3330 O   0  0  0  0  0  0  0  0  0  0  0  0
    6.7799  -11.7030   28.0543 C   0  0  0  0  0  0  0  0  0  0  0  0
    6.0699  -12.4237   26.5490 S   0  0  0  0  0  0  0  0  0  0  0  0
    7.3630  -13.2842   25.6670 C   0  0  0  0  0  0  0  0  0  0  0  0
    6.9984  -13.8356   24.3424 C   0  0  0  0  0  0  0  0  0  0  0  0
    8.0526  -14.5338   23.5699 C   0  0  2  0  0  0  0  0  0  0  0  0
    7.6017  -15.0702   22.3079 N   0  0  0  0  0  0  0  0  0  0  0  0
    8.7895  -15.5522   24.3674 C   0  0  0  0  0  0  0  0  0  0  0  0
    8.1760  -16.6346   24.6575 O   0  0  0  0  0  0  0  0  0  0  0  0
   15.2709  -18.0983   23.7801 N   0  0  0  0  0  0  0  0  0  0  0  0
   14.6621  -16.8957   24.1989 C   0  0  0  0  0  0  0  0  0  0  0  0
   15.1237  -15.8090   23.7768 O   0  0  0  0  0  0  0  0  0  0  0  0
   13.5161  -16.9139   25.0979 C   0  0  0  0  0  0  0  0  0  0  0  0
   12.3544  -16.0763   24.7526 C   0  0  0  0  0  0  0  0  0  0  0  0
   11.0022  -16.4900   25.1986 C   0  0  2  0  0  0  0  0  0  0  0  0
   10.1131  -15.3687   24.8050 N   0  0  0  0  0  0  0  0  0  0  0  0
   10.8816  -16.5701   26.6561 C   0  0  0  0  0  0  0  0  0  0  0  0
   11.4007  -17.5111   27.3409 O   0  0  0  0  0  0  0  0  0  0  0  0
   10.1868  -15.5975   27.3770 O   0  0  0  0  0  0  0  0  0  0  0  0
  2  1  1  6
  2  3  1  0
  4  5  2  0
  4  2  1  0
  7  6  1  0
  8  7  1  0
  8  9  1  0
 10  9  1  1
 10 11  1  0
 10 12  1  0
 11  4  1  0
 12 20  1  0
 13 12  2  0
 15 14  1  0
 15 16  2  0
 17 15  1  0
 18 17  1  0
 19 18  1  1
 19 21  1  0
 20 19  1  0
 21 22  2  0
 21 23  1  0
M  END
$$$$
