AMQ.pdb
     RDKit          3D

 23 22  0  0  1  0  0  0  0  0999 V2000
    6.7489  -17.0014   20.0046 C   0  0  0  0  0  0  0  0  0  0  0  0
    7.1517  -15.5425   19.9189 C   0  0  2  0  0  0  0  0  0  0  0  0
    8.0994  -15.4074   18.8464 N   0  0  0  0  0  0  0  0  0  0  0  0
    7.7889  -15.1660   21.2108 C   0  0  0  0  0  0  0  0  0  0  0  0
    9.0311  -15.3047   21.3722 O   0  0  0  0  0  0  0  0  0  0  0  0
    7.3281  -11.4706   28.2215 C   0  0  0  0  0  0  0  0  0  0  0  0
    6.4125  -11.8979   26.7153 S   0  0  0  0  0  0  0  0  0  0  0  0
    7.4326  -12.9706   25.7157 C   0  0  0  0  0  0  0  0  0  0  0  0
    6.8818  -13.3578   24.3973 C   0  0  0  0  0  0  0  0  0  0  0  0
    7.6958  -14.2551   23.5442 C   0  0  2  0  0  0  0  0  0  0  0  0
    7.0520  -14.6407   22.3110 N   0  0  0  0  0  0  0  0  0  0  0  0
    8.2326  -15.4353   24.2757 C   0  0  0  0  0  0  0  0  0  0  0  0
    7.4283  -16.3980   24.5177 O   0  0  0  0  0  0  0  0  0  0  0  0
   13.6128  -17.7117   22.8485 N   0  0  0  0  0  0  0  0  0  0  0  0
   13.5598  -18.2234   24.1629 C   0  0  0  0  0  0  0  0  0  0  0  0
   14.4199  -19.0645   24.5161 O   0  0  0  0  0  0  0  0  0  0  0  0
   12.5317  -17.7799   25.0947 C   0  0  0  0  0  0  0  0  0  0  0  0
   11.5529  -16.7860   24.6210 C   0  0  0  0  0  0  0  0  0  0  0  0
   10.1832  -16.7874   25.1886 C   0  0  2  0  0  0  0  0  0  0  0  0
    9.5693  -15.5268   24.7022 N   0  0  0  0  0  0  0  0  0  0  0  0
   10.1702  -16.6716   26.6487 C   0  0  0  0  0  0  0  0  0  0  0  0
   10.4595  -17.6433   27.4207 O   0  0  0  0  0  0  0  0  0  0  0  0
    9.8424  -15.4674   27.2739 O   0  0  0  0  0  0  0  0  0  0  0  0
  2  1  1  1
  2  3  1  0
  4  5  2  0
  4  2  1  0
  7  6  1  0
  8  7  1  0
  8  9  1  0
 10  9  1  1
 10 11  1  0
 10 12  1  0
 11  4  1  0
 12 20  1  0
 13 12  2  0
 15 14  1  0
 15 16  2  0
 17 15  1  0
 18 17  1  0
 19 18  1  6
 19 21  1  0
 20 19  1  0
 21 22  2  0
 21 23  1  0
M  END
$$$$
