AMQ.pdb
     RDKit          3D

 23 22  0  0  1  0  0  0  0  0999 V2000
    7.8542  -12.9851   19.0713 C   0  0  0  0  0  0  0  0  0  0  0  0
    7.8570  -14.4009   19.6129 C   0  0  2  0  0  0  0  0  0  0  0  0
    6.5059  -14.8909   19.5774 N   0  0  0  0  0  0  0  0  0  0  0  0
    8.3435  -14.3531   21.0192 C   0  0  0  0  0  0  0  0  0  0  0  0
    9.5774  -14.2751   21.2637 O   0  0  0  0  0  0  0  0  0  0  0  0
    7.2465  -11.6117   28.2298 C   0  0  0  0  0  0  0  0  0  0  0  0
    6.4801  -11.8936   26.6104 S   0  0  0  0  0  0  0  0  0  0  0  0
    7.4368  -13.1223   25.7355 C   0  0  0  0  0  0  0  0  0  0  0  0
    7.0099  -13.4212   24.3498 C   0  0  0  0  0  0  0  0  0  0  0  0
    7.9434  -14.1838   23.4880 C   0  0  2  0  0  0  0  0  0  0  0  0
    7.4666  -14.3916   22.1413 N   0  0  0  0  0  0  0  0  0  0  0  0
    8.4110  -15.4543   24.1069 C   0  0  0  0  0  0  0  0  0  0  0  0
    7.5609  -16.3996   24.2331 O   0  0  0  0  0  0  0  0  0  0  0  0
   12.8835  -18.6540   22.6042 N   0  0  0  0  0  0  0  0  0  0  0  0
   13.1391  -18.9030   23.9698 C   0  0  0  0  0  0  0  0  0  0  0  0
   13.8659  -19.8771   24.2781 O   0  0  0  0  0  0  0  0  0  0  0  0
   12.5769  -18.0429   25.0024 C   0  0  0  0  0  0  0  0  0  0  0  0
   11.6933  -16.9429   24.5790 C   0  0  0  0  0  0  0  0  0  0  0  0
   10.2631  -16.9685   24.9692 C   0  0  2  0  0  0  0  0  0  0  0  0
    9.7313  -15.6479   24.5499 N   0  0  0  0  0  0  0  0  0  0  0  0
   10.0680  -17.0074   26.4204 C   0  0  0  0  0  0  0  0  0  0  0  0
    9.9971  -15.9552   27.1357 O   0  0  0  0  0  0  0  0  0  0  0  0
    9.9402  -18.2206   27.0988 O   0  0  0  0  0  0  0  0  0  0  0  0
  2  1  1  1
  2  3  1  0
  4  5  2  0
  4  2  1  0
  7  6  1  0
  8  7  1  0
  8  9  1  0
 10  9  1  1
 10 11  1  0
 10 12  1  0
 11  4  1  0
 12 20  1  0
 13 12  2  0
 15 14  1  0
 15 16  2  0
 17 15  1  0
 18 17  1  0
 19 18  1  1
 19 21  1  0
 20 19  1  0
 21 22  2  0
 21 23  1  0
M  END
$$$$
