AMQ.pdb
     RDKit          3D

 23 22  0  0  1  0  0  0  0  0999 V2000
    7.6521  -12.7595   19.2561 C   0  0  0  0  0  0  0  0  0  0  0  0
    7.9373  -14.1565   19.7706 C   0  0  2  0  0  0  0  0  0  0  0  0
    6.7090  -14.9023   19.7302 N   0  0  0  0  0  0  0  0  0  0  0  0
    8.4147  -14.0392   21.1760 C   0  0  0  0  0  0  0  0  0  0  0  0
    9.6184  -13.7546   21.4178 O   0  0  0  0  0  0  0  0  0  0  0  0
    5.9671  -11.3466   27.1510 C   0  0  0  0  0  0  0  0  0  0  0  0
    7.6586  -11.9413   26.8777 S   0  0  0  0  0  0  0  0  0  0  0  0
    7.5782  -13.5176   26.0415 C   0  0  0  0  0  0  0  0  0  0  0  0
    7.2060  -13.4818   24.6091 C   0  0  0  0  0  0  0  0  0  0  0  0
    8.0673  -14.2153   23.6522 C   0  0  2  0  0  0  0  0  0  0  0  0
    7.5620  -14.2363   22.3001 N   0  0  0  0  0  0  0  0  0  0  0  0
    8.4387  -15.5787   24.1206 C   0  0  0  0  0  0  0  0  0  0  0  0
    7.5104  -16.4535   24.1926 O   0  0  0  0  0  0  0  0  0  0  0  0
   14.1304  -17.8038   23.1291 N   0  0  0  0  0  0  0  0  0  0  0  0
   13.6406  -18.7796   24.0237 C   0  0  0  0  0  0  0  0  0  0  0  0
   14.3853  -19.7396   24.3334 O   0  0  0  0  0  0  0  0  0  0  0  0
   12.2999  -18.6723   24.5829 C   0  0  0  0  0  0  0  0  0  0  0  0
   11.5015  -17.4829   24.2391 C   0  0  0  0  0  0  0  0  0  0  0  0
   10.1533  -17.3163   24.8331 C   0  0  2  0  0  0  0  0  0  0  0  0
    9.7513  -15.9319   24.4802 N   0  0  0  0  0  0  0  0  0  0  0  0
   10.1678  -17.3405   26.2976 C   0  0  0  0  0  0  0  0  0  0  0  0
   10.2161  -16.2817   27.0049 O   0  0  0  0  0  0  0  0  0  0  0  0
   10.1202  -18.5461   26.9995 O   0  0  0  0  0  0  0  0  0  0  0  0
  2  1  1  1
  2  3  1  0
  4  5  2  0
  4  2  1  0
  7  6  1  0
  8  7  1  0
  8  9  1  0
 10  9  1  1
 10 11  1  0
 10 12  1  0
 11  4  1  0
 12 20  1  0
 13 12  2  0
 15 14  1  0
 15 16  2  0
 17 15  1  0
 18 17  1  0
 19 18  1  6
 19 21  1  0
 20 19  1  0
 21 22  2  0
 21 23  1  0
M  END
$$$$
