AMQ.pdb
     RDKit          3D

 23 22  0  0  1  0  0  0  0  0999 V2000
   10.5009  -17.5724   15.7537 C   0  0  0  0  0  0  0  0  0  0  0  0
   10.5192  -18.0163   17.2029 C   0  0  2  0  0  0  0  0  0  0  0  0
    9.1755  -18.3659   17.5757 N   0  0  0  0  0  0  0  0  0  0  0  0
   10.9938  -16.8710   18.0275 C   0  0  0  0  0  0  0  0  0  0  0  0
   12.1606  -16.4188   17.8774 O   0  0  0  0  0  0  0  0  0  0  0  0
    8.0328  -11.5534   20.7269 C   0  0  0  0  0  0  0  0  0  0  0  0
    7.7146  -12.2973   19.1037 S   0  0  0  0  0  0  0  0  0  0  0  0
    8.9342  -13.5697   18.8134 C   0  0  0  0  0  0  0  0  0  0  0  0
    9.6801  -14.0460   20.0001 C   0  0  0  0  0  0  0  0  0  0  0  0
   10.6656  -15.1354   19.8061 C   0  0  2  0  0  0  0  0  0  0  0  0
   10.1790  -16.2358   19.0084 N   0  0  0  0  0  0  0  0  0  0  0  0
   11.2782  -15.6081   21.0778 C   0  0  0  0  0  0  0  0  0  0  0  0
   10.7313  -16.6023   21.6650 O   0  0  0  0  0  0  0  0  0  0  0  0
   13.7376  -16.8235   26.3570 N   0  0  0  0  0  0  0  0  0  0  0  0
   12.7049  -17.3728   25.5671 C   0  0  0  0  0  0  0  0  0  0  0  0
   11.5764  -17.5436   26.0863 O   0  0  0  0  0  0  0  0  0  0  0  0
   12.9405  -17.7288   24.1744 C   0  0  0  0  0  0  0  0  0  0  0  0
   12.4112  -16.8309   23.1333 C   0  0  0  0  0  0  0  0  0  0  0  0
   13.1563  -15.5952   22.7922 C   0  0  2  0  0  0  0  0  0  0  0  0
   12.4169  -15.0102   21.6460 N   0  0  0  0  0  0  0  0  0  0  0  0
   14.4998  -15.8634   22.2739 C   0  0  0  0  0  0  0  0  0  0  0  0
   15.5476  -15.7745   22.9935 O   0  0  0  0  0  0  0  0  0  0  0  0
   14.6978  -16.2438   20.9455 O   0  0  0  0  0  0  0  0  0  0  0  0
  2  1  1  6
  2  3  1  0
  4  5  2  0
  4  2  1  0
  7  6  1  0
  8  7  1  0
  8  9  1  0
 10  9  1  1
 10 11  1  0
 10 12  1  0
 11  4  1  0
 12 20  1  0
 13 12  2  0
 15 14  1  0
 15 16  2  0
 17 15  1  0
 18 17  1  0
 19 18  1  6
 19 21  1  0
 20 19  1  0
 21 22  2  0
 21 23  1  0
M  END
$$$$
