KDF.pdb
     RDKit          3D

 29 29  0  0  1  0  0  0  0  0999 V2000
   22.7390  -24.4119  -20.3382 N   0  0  0  0  0  0  0  0  0  0  0  0
   23.5038  -23.8868  -19.1962 C   0  0  1  0  0  0  0  0  0  0  0  0
   23.2051  -22.4054  -19.1152 C   0  0  0  0  0  0  0  0  0  0  0  0
   22.8781  -21.8055  -20.4338 C   0  0  0  0  0  0  0  0  0  0  0  0
   23.8392  -20.7823  -20.9320 C   0  0  0  0  0  0  0  0  0  0  0  0
   23.4455  -20.1548  -22.2403 C   0  0  0  0  0  0  0  0  0  0  0  0
   24.4484  -19.2085  -22.6889 N   0  0  0  0  0  0  0  0  0  0  0  0
   22.9970  -24.6159  -18.0055 C   0  0  0  0  0  0  0  0  0  0  0  0
   21.8439  -25.0701  -17.8959 O   0  0  0  0  0  0  0  0  0  0  0  0
   23.9000  -24.8138  -16.8965 N   0  0  0  0  0  0  0  0  0  0  0  0
   23.4578  -25.4736  -15.6878 C   0  0  1  0  0  0  0  0  0  0  0  0
   24.6044  -25.7456  -14.7555 C   0  0  0  0  0  0  0  0  0  0  0  0
   25.6174  -26.6357  -15.3642 C   0  0  0  0  0  0  0  0  0  0  0  0
   26.8450  -26.3822  -15.3525 O   0  0  0  0  0  0  0  0  0  0  0  0
   22.4379  -24.6795  -14.9641 C   0  0  0  0  0  0  0  0  0  0  0  0
   22.5821  -23.4539  -14.7252 O   0  0  0  0  0  0  0  0  0  0  0  0
   25.2039  -27.8078  -15.9795 O   0  0  0  0  0  0  0  0  0  0  0  0
   21.2425  -25.2999  -14.5117 N   0  0  0  0  0  0  0  0  0  0  0  0
   20.2119  -24.5736  -13.8187 C   0  0  1  0  0  0  0  0  0  0  0  0
   18.9750  -24.5338  -14.7004 C   0  0  0  0  0  0  0  0  0  0  0  0
   19.1409  -23.6479  -15.8543 C   0  0  0  0  0  0  0  0  0  0  0  0
   19.1806  -22.2830  -15.6732 C   0  0  0  0  0  0  0  0  0  0  0  0
   19.3343  -21.4170  -16.7245 C   0  0  0  0  0  0  0  0  0  0  0  0
   19.4537  -21.9007  -18.0002 C   0  0  0  0  0  0  0  0  0  0  0  0
   19.4139  -23.2694  -18.1819 C   0  0  0  0  0  0  0  0  0  0  0  0
   19.2602  -24.1414  -17.1325 C   0  0  0  0  0  0  0  0  0  0  0  0
   19.9191  -25.1787  -12.5094 C   0  0  0  0  0  0  0  0  0  0  0  0
   20.6136  -26.3162  -12.1337 O   0  0  0  0  0  0  0  0  0  0  0  0
   19.0774  -24.7340  -11.7011 O   0  0  0  0  0  0  0  0  0  0  0  0
  2  1  1  6
  2  3  1  0
  4  3  1  0
  4  5  1  0
  6  7  1  0
  6  5  1  0
  8  2  1  0
  9  8  2  0
 10  8  1  0
 11 10  1  0
 11 12  1  1
 12 13  1  0
 13 17  1  0
 14 13  2  0
 15 16  2  0
 15 11  1  0
 18 15  1  0
 19 18  1  0
 19 20  1  6
 20 21  1  0
 21 26  2  0
 21 22  1  0
 22 23  2  0
 23 24  1  0
 25 24  2  0
 26 25  1  0
 27 28  1  0
 27 19  1  0
 29 27  2  0
M  END
$$$$
