KDF.pdb
     RDKit          3D

 29 29  0  0  1  0  0  0  0  0999 V2000
   31.1861  -25.6115  -20.5405 N   0  0  0  0  0  0  0  0  0  0  0  0
   30.2513  -26.6059  -19.9908 C   0  0  1  0  0  0  0  0  0  0  0  0
   30.7974  -27.9685  -20.3590 C   0  0  0  0  0  0  0  0  0  0  0  0
   32.2478  -28.1100  -20.0729 C   0  0  0  0  0  0  0  0  0  0  0  0
   32.5910  -28.9188  -18.8699 C   0  0  0  0  0  0  0  0  0  0  0  0
   34.0669  -29.0330  -18.6068 C   0  0  0  0  0  0  0  0  0  0  0  0
   34.3219  -29.6162  -17.3040 N   0  0  0  0  0  0  0  0  0  0  0  0
   30.2558  -26.3904  -18.5211 C   0  0  0  0  0  0  0  0  0  0  0  0
   29.7269  -27.1562  -17.6955 O   0  0  0  0  0  0  0  0  0  0  0  0
   30.9180  -25.2135  -18.0105 N   0  0  0  0  0  0  0  0  0  0  0  0
   30.9186  -24.9175  -16.5948 C   0  0  1  0  0  0  0  0  0  0  0  0
   32.2708  -24.4588  -16.1267 C   0  0  0  0  0  0  0  0  0  0  0  0
   33.3188  -25.4735  -16.3738 C   0  0  0  0  0  0  0  0  0  0  0  0
   33.0879  -26.7056  -16.3841 O   0  0  0  0  0  0  0  0  0  0  0  0
   29.9201  -23.8807  -16.2448 C   0  0  0  0  0  0  0  0  0  0  0  0
   29.9655  -23.2377  -15.1657 O   0  0  0  0  0  0  0  0  0  0  0  0
   34.6209  -25.0566  -16.6063 O   0  0  0  0  0  0  0  0  0  0  0  0
   28.8608  -23.5811  -17.1430 N   0  0  0  0  0  0  0  0  0  0  0  0
   27.8635  -22.5854  -16.8537 C   0  0  1  0  0  0  0  0  0  0  0  0
   27.8311  -21.5889  -18.0004 C   0  0  0  0  0  0  0  0  0  0  0  0
   29.0213  -20.7366  -18.0322 C   0  0  0  0  0  0  0  0  0  0  0  0
   28.9766  -19.4727  -17.4863 C   0  0  0  0  0  0  0  0  0  0  0  0
   30.0664  -18.6414  -17.4942 C   0  0  0  0  0  0  0  0  0  0  0  0
   31.2438  -19.0587  -18.0557 C   0  0  0  0  0  0  0  0  0  0  0  0
   31.2886  -20.3260  -18.6031 C   0  0  0  0  0  0  0  0  0  0  0  0
   30.2001  -21.1629  -18.5979 C   0  0  0  0  0  0  0  0  0  0  0  0
   26.5430  -23.1982  -16.6371 C   0  0  0  0  0  0  0  0  0  0  0  0
   25.4986  -22.3927  -16.2158 O   0  0  0  0  0  0  0  0  0  0  0  0
   26.2927  -24.4097  -16.8083 O   0  0  0  0  0  0  0  0  0  0  0  0
  2  1  1  6
  2  3  1  0
  4  3  1  0
  4  5  1  0
  6  7  1  0
  6  5  1  0
  8  2  1  0
  9  8  2  0
 10  8  1  0
 11 10  1  0
 11 12  1  6
 12 13  1  0
 13 17  1  0
 14 13  2  0
 15 16  2  0
 15 11  1  0
 18 15  1  0
 19 18  1  0
 19 20  1  6
 20 21  1  0
 21 26  2  0
 21 22  1  0
 22 23  2  0
 23 24  1  0
 25 24  2  0
 26 25  1  0
 27 28  1  0
 27 19  1  0
 29 27  2  0
M  END
$$$$
