KDF.pdb
     RDKit          3D

 29 29  0  0  1  0  0  0  0  0999 V2000
   23.6319  -18.8572  -13.4332 N   0  0  0  0  0  0  0  0  0  0  0  0
   23.1700  -20.1556  -12.9177 C   0  0  1  0  0  0  0  0  0  0  0  0
   22.2704  -20.7514  -13.9789 C   0  0  0  0  0  0  0  0  0  0  0  0
   21.0560  -19.9362  -14.2359 C   0  0  0  0  0  0  0  0  0  0  0  0
   20.2848  -19.5309  -13.0275 C   0  0  0  0  0  0  0  0  0  0  0  0
   18.7936  -19.6419  -13.1843 C   0  0  0  0  0  0  0  0  0  0  0  0
   18.2387  -18.4379  -13.7715 N   0  0  0  0  0  0  0  0  0  0  0  0
   24.3979  -20.9673  -12.7185 C   0  0  0  0  0  0  0  0  0  0  0  0
   24.4050  -22.1935  -12.5081 O   0  0  0  0  0  0  0  0  0  0  0  0
   25.6730  -20.2922  -12.7719 N   0  0  0  0  0  0  0  0  0  0  0  0
   26.9072  -21.0207  -12.5774 C   0  0  1  0  0  0  0  0  0  0  0  0
   28.0580  -20.3550  -13.2777 C   0  0  0  0  0  0  0  0  0  0  0  0
   27.7302  -20.0049  -14.6773 C   0  0  0  0  0  0  0  0  0  0  0  0
   26.6639  -20.3533  -15.2369 O   0  0  0  0  0  0  0  0  0  0  0  0
   27.2459  -21.1643  -11.1424 C   0  0  0  0  0  0  0  0  0  0  0  0
   28.3419  -21.6403  -10.7525 O   0  0  0  0  0  0  0  0  0  0  0  0
   28.6351  -19.2573  -15.4160 O   0  0  0  0  0  0  0  0  0  0  0  0
   26.3165  -20.7572  -10.1478 N   0  0  0  0  0  0  0  0  0  0  0  0
   26.5628  -20.9395   -8.7422 C   0  0  1  0  0  0  0  0  0  0  0  0
   27.8420  -20.2046   -8.3782 C   0  0  0  0  0  0  0  0  0  0  0  0
   28.1193  -20.2460   -6.9411 C   0  0  0  0  0  0  0  0  0  0  0  0
   28.6919  -21.3679   -6.3834 C   0  0  0  0  0  0  0  0  0  0  0  0
   28.9687  -21.4498   -5.0434 C   0  0  0  0  0  0  0  0  0  0  0  0
   28.6759  -20.3980   -4.2167 C   0  0  0  0  0  0  0  0  0  0  0  0
   28.1017  -19.2731   -4.7758 C   0  0  0  0  0  0  0  0  0  0  0  0
   27.8224  -19.1856   -6.1173 C   0  0  0  0  0  0  0  0  0  0  0  0
   25.4254  -20.4703   -7.9345 C   0  0  0  0  0  0  0  0  0  0  0  0
   25.2245  -21.0287   -6.6835 O   0  0  0  0  0  0  0  0  0  0  0  0
   24.6166  -19.5922   -8.3013 O   0  0  0  0  0  0  0  0  0  0  0  0
  2  1  1  6
  2  3  1  0
  4  3  1  0
  4  5  1  0
  6  7  1  0
  6  5  1  0
  8  2  1  0
  9  8  2  0
 10  8  1  0
 11 10  1  0
 11 12  1  6
 12 13  1  0
 13 17  1  0
 14 13  2  0
 15 16  2  0
 15 11  1  0
 18 15  1  0
 19 18  1  0
 19 20  1  1
 20 21  1  0
 21 26  2  0
 21 22  1  0
 22 23  2  0
 23 24  1  0
 25 24  2  0
 26 25  1  0
 27 28  1  0
 27 19  1  0
 29 27  2  0
M  END
$$$$
