KDF.pdb
     RDKit          3D

 29 29  0  0  1  0  0  0  0  0999 V2000
   20.7712  -12.7120  -18.2003 N   0  0  0  0  0  0  0  0  0  0  0  0
   19.7653  -11.7307  -17.7644 C   0  0  1  0  0  0  0  0  0  0  0  0
   19.4600  -12.0339  -16.3135 C   0  0  0  0  0  0  0  0  0  0  0  0
   18.5963  -13.2293  -16.1388 C   0  0  0  0  0  0  0  0  0  0  0  0
   17.1372  -13.0044  -16.3381 C   0  0  0  0  0  0  0  0  0  0  0  0
   16.2934  -14.2330  -16.1407 C   0  0  0  0  0  0  0  0  0  0  0  0
   16.3707  -14.7057  -14.7720 N   0  0  0  0  0  0  0  0  0  0  0  0
   20.4070  -10.4008  -17.9250 C   0  0  0  0  0  0  0  0  0  0  0  0
   21.6362  -10.2116  -17.9586 O   0  0  0  0  0  0  0  0  0  0  0  0
   19.5505   -9.2454  -18.0512 N   0  0  0  0  0  0  0  0  0  0  0  0
   20.1094   -7.9206  -18.2069 C   0  0  1  0  0  0  0  0  0  0  0  0
   19.4387   -7.1650  -19.3191 C   0  0  0  0  0  0  0  0  0  0  0  0
   20.0668   -5.8461  -19.5535 C   0  0  0  0  0  0  0  0  0  0  0  0
   21.3044   -5.6915  -19.6794 O   0  0  0  0  0  0  0  0  0  0  0  0
   20.0024   -7.1241  -16.9623 C   0  0  0  0  0  0  0  0  0  0  0  0
   18.9862   -7.1606  -16.2236 O   0  0  0  0  0  0  0  0  0  0  0  0
   19.2613   -4.7204  -19.6401 O   0  0  0  0  0  0  0  0  0  0  0  0
   21.0729   -6.2789  -16.5644 N   0  0  0  0  0  0  0  0  0  0  0  0
   21.0587   -5.5494  -15.3245 C   0  0  1  0  0  0  0  0  0  0  0  0
   22.3363   -5.8656  -14.5651 C   0  0  0  0  0  0  0  0  0  0  0  0
   22.4039   -7.2670  -14.1465 C   0  0  0  0  0  0  0  0  0  0  0  0
   21.6123   -7.7145  -13.1117 C   0  0  0  0  0  0  0  0  0  0  0  0
   21.6433   -9.0174  -12.6872 C   0  0  0  0  0  0  0  0  0  0  0  0
   22.4778   -9.9174  -13.2948 C   0  0  0  0  0  0  0  0  0  0  0  0
   23.2715   -9.4689  -14.3323 C   0  0  0  0  0  0  0  0  0  0  0  0
   23.2445   -8.1649  -14.7617 C   0  0  0  0  0  0  0  0  0  0  0  0
   20.9157   -4.1030  -15.5566 C   0  0  0  0  0  0  0  0  0  0  0  0
   20.8254   -3.2609  -14.4612 O   0  0  0  0  0  0  0  0  0  0  0  0
   20.8692   -3.5728  -16.6863 O   0  0  0  0  0  0  0  0  0  0  0  0
  2  1  1  1
  2  3  1  0
  4  3  1  0
  4  5  1  0
  6  7  1  0
  6  5  1  0
  8  2  1  0
  9  8  2  0
 10  8  1  0
 11 10  1  0
 11 12  1  6
 12 13  1  0
 13 17  1  0
 14 13  2  0
 15 16  2  0
 15 11  1  0
 18 15  1  0
 19 18  1  0
 19 20  1  6
 20 21  1  0
 21 26  2  0
 21 22  1  0
 22 23  2  0
 23 24  1  0
 25 24  2  0
 26 25  1  0
 27 28  1  0
 27 19  1  0
 29 27  2  0
M  END
$$$$
