KDF.pdb
     RDKit          3D

 29 29  0  0  1  0  0  0  0  0999 V2000
   22.8233  -14.8743  -19.3769 N   0  0  0  0  0  0  0  0  0  0  0  0
   22.8630  -14.3248  -18.0126 C   0  0  1  0  0  0  0  0  0  0  0  0
   24.3150  -14.3204  -17.5861 C   0  0  0  0  0  0  0  0  0  0  0  0
   25.1237  -15.3638  -18.2663 C   0  0  0  0  0  0  0  0  0  0  0  0
   26.5650  -15.4074  -17.8920 C   0  0  0  0  0  0  0  0  0  0  0  0
   27.3472  -16.4889  -18.5841 C   0  0  0  0  0  0  0  0  0  0  0  0
   27.9355  -16.0012  -19.8165 N   0  0  0  0  0  0  0  0  0  0  0  0
   22.3170  -12.9476  -18.1195 C   0  0  0  0  0  0  0  0  0  0  0  0
   22.4516  -12.2119  -19.1137 O   0  0  0  0  0  0  0  0  0  0  0  0
   21.5789  -12.4217  -16.9955 N   0  0  0  0  0  0  0  0  0  0  0  0
   20.9428  -11.1248  -17.0666 C   0  0  1  0  0  0  0  0  0  0  0  0
   19.4560  -11.2272  -16.8751 C   0  0  0  0  0  0  0  0  0  0  0  0
   18.7878   -9.9125  -16.9937 C   0  0  0  0  0  0  0  0  0  0  0  0
   17.8620   -9.5455  -16.2324 O   0  0  0  0  0  0  0  0  0  0  0  0
   21.4859  -10.1850  -16.0584 C   0  0  0  0  0  0  0  0  0  0  0  0
   21.4473  -10.4229  -14.8248 O   0  0  0  0  0  0  0  0  0  0  0  0
   19.1944   -9.0358  -17.9884 O   0  0  0  0  0  0  0  0  0  0  0  0
   22.0783   -8.9617  -16.4724 N   0  0  0  0  0  0  0  0  0  0  0  0
   22.5103   -7.9589  -15.5357 C   0  0  1  0  0  0  0  0  0  0  0  0
   23.8839   -7.4652  -15.9582 C   0  0  0  0  0  0  0  0  0  0  0  0
   24.8978   -8.5200  -15.8999 C   0  0  0  0  0  0  0  0  0  0  0  0
   25.6370   -8.8258  -17.0213 C   0  0  0  0  0  0  0  0  0  0  0  0
   26.5959   -9.8052  -17.0118 C   0  0  0  0  0  0  0  0  0  0  0  0
   26.8428  -10.5128  -15.8654 C   0  0  0  0  0  0  0  0  0  0  0  0
   26.1016  -10.2061  -14.7410 C   0  0  0  0  0  0  0  0  0  0  0  0
   25.1400   -9.2261  -14.7449 C   0  0  0  0  0  0  0  0  0  0  0  0
   21.5437   -6.8521  -15.4532 C   0  0  0  0  0  0  0  0  0  0  0  0
   21.6682   -5.9378  -14.4209 O   0  0  0  0  0  0  0  0  0  0  0  0
   20.6057   -6.6755  -16.2586 O   0  0  0  0  0  0  0  0  0  0  0  0
  2  1  1  6
  2  3  1  0
  4  3  1  0
  4  5  1  0
  6  7  1  0
  6  5  1  0
  8  2  1  0
  9  8  2  0
 10  8  1  0
 11 10  1  0
 11 12  1  1
 12 13  1  0
 13 17  1  0
 14 13  2  0
 15 16  2  0
 15 11  1  0
 18 15  1  0
 19 18  1  0
 19 20  1  6
 20 21  1  0
 21 26  2  0
 21 22  1  0
 22 23  2  0
 23 24  1  0
 25 24  2  0
 26 25  1  0
 27 28  1  0
 27 19  1  0
 29 27  2  0
M  END
$$$$
