KDF.pdb
     RDKit          3D

 29 29  0  0  1  0  0  0  0  0999 V2000
   22.8511  -16.4666  -17.4500 N   0  0  0  0  0  0  0  0  0  0  0  0
   24.0908  -17.0088  -16.8719 C   0  0  1  0  0  0  0  0  0  0  0  0
   25.1148  -15.8952  -16.9129 C   0  0  0  0  0  0  0  0  0  0  0  0
   25.1213  -15.1589  -18.2026 C   0  0  0  0  0  0  0  0  0  0  0  0
   24.6834  -13.7366  -18.1345 C   0  0  0  0  0  0  0  0  0  0  0  0
   24.7755  -13.0019  -19.4430 C   0  0  0  0  0  0  0  0  0  0  0  0
   24.1314  -11.7054  -19.3608 N   0  0  0  0  0  0  0  0  0  0  0  0
   23.7491  -17.3906  -15.4778 C   0  0  0  0  0  0  0  0  0  0  0  0
   23.2122  -16.6315  -14.6512 O   0  0  0  0  0  0  0  0  0  0  0  0
   24.0592  -18.7334  -15.0472 N   0  0  0  0  0  0  0  0  0  0  0  0
   23.8125  -19.1515  -13.6848 C   0  0  1  0  0  0  0  0  0  0  0  0
   22.6468  -20.0958  -13.5990 C   0  0  0  0  0  0  0  0  0  0  0  0
   21.7001  -19.9144  -14.7215 C   0  0  0  0  0  0  0  0  0  0  0  0
   21.0723  -18.8477  -14.9200 O   0  0  0  0  0  0  0  0  0  0  0  0
   24.9971  -19.8065  -13.0829 C   0  0  0  0  0  0  0  0  0  0  0  0
   25.9699  -20.2055  -13.7717 O   0  0  0  0  0  0  0  0  0  0  0  0
   21.4880  -20.9644  -15.6023 O   0  0  0  0  0  0  0  0  0  0  0  0
   25.0634  -20.0042  -11.6775 N   0  0  0  0  0  0  0  0  0  0  0  0
   26.0888  -20.8016  -11.0590 C   0  0  1  0  0  0  0  0  0  0  0  0
   25.7650  -20.9403   -9.5809 C   0  0  0  0  0  0  0  0  0  0  0  0
   26.7321  -20.2436   -8.7304 C   0  0  0  0  0  0  0  0  0  0  0  0
   26.4573  -18.9729   -8.2751 C   0  0  0  0  0  0  0  0  0  0  0  0
   27.3335  -18.2841   -7.4772 C   0  0  0  0  0  0  0  0  0  0  0  0
   28.5223  -18.8564   -7.1098 C   0  0  0  0  0  0  0  0  0  0  0  0
   28.7979  -20.1305   -7.5663 C   0  0  0  0  0  0  0  0  0  0  0  0
   27.9238  -20.8250   -8.3657 C   0  0  0  0  0  0  0  0  0  0  0  0
   26.2082  -22.1169  -11.7084 C   0  0  0  0  0  0  0  0  0  0  0  0
   27.4730  -22.6114  -11.9785 O   0  0  0  0  0  0  0  0  0  0  0  0
   25.2372  -22.8296  -12.0383 O   0  0  0  0  0  0  0  0  0  0  0  0
  2  1  1  1
  2  3  1  0
  4  3  1  0
  4  5  1  0
  6  7  1  0
  6  5  1  0
  8  2  1  0
  9  8  2  0
 10  8  1  0
 11 10  1  0
 11 12  1  6
 12 13  1  0
 13 17  1  0
 14 13  2  0
 15 16  2  0
 15 11  1  0
 18 15  1  0
 19 18  1  0
 19 20  1  1
 20 21  1  0
 21 26  2  0
 21 22  1  0
 22 23  2  0
 23 24  1  0
 25 24  2  0
 26 25  1  0
 27 28  1  0
 27 19  1  0
 29 27  2  0
M  END
$$$$
