KDF.pdb
     RDKit          3D

 29 29  0  0  1  0  0  0  0  0999 V2000
   27.3774  -20.0494  -15.3330 N   0  0  0  0  0  0  0  0  0  0  0  0
   27.9881  -19.0550  -14.4368 C   0  0  1  0  0  0  0  0  0  0  0  0
   27.9340  -17.7258  -15.1584 C   0  0  0  0  0  0  0  0  0  0  0  0
   28.4962  -17.7868  -16.5317 C   0  0  0  0  0  0  0  0  0  0  0  0
   29.7674  -18.5503  -16.6739 C   0  0  0  0  0  0  0  0  0  0  0  0
   30.3648  -18.4979  -18.0526 C   0  0  0  0  0  0  0  0  0  0  0  0
   30.5526  -17.1279  -18.4890 N   0  0  0  0  0  0  0  0  0  0  0  0
   27.1480  -19.0503  -13.2119 C   0  0  0  0  0  0  0  0  0  0  0  0
   27.2118  -18.1879  -12.3175 O   0  0  0  0  0  0  0  0  0  0  0  0
   26.1901  -20.1173  -13.0426 N   0  0  0  0  0  0  0  0  0  0  0  0
   25.3268  -20.1627  -11.8831 C   0  0  1  0  0  0  0  0  0  0  0  0
   23.9956  -20.7787  -12.2090 C   0  0  0  0  0  0  0  0  0  0  0  0
   23.0546  -20.7050  -11.0696 C   0  0  0  0  0  0  0  0  0  0  0  0
   22.0076  -21.3910  -11.0029 O   0  0  0  0  0  0  0  0  0  0  0  0
   25.9380  -20.9203  -10.7664 C   0  0  0  0  0  0  0  0  0  0  0  0
   26.3148  -22.1133  -10.8874 O   0  0  0  0  0  0  0  0  0  0  0  0
   23.3312  -19.8415  -10.0202 O   0  0  0  0  0  0  0  0  0  0  0  0
   26.1173  -20.3008   -9.5004 N   0  0  0  0  0  0  0  0  0  0  0  0
   26.6344  -21.0111   -8.3612 C   0  0  1  0  0  0  0  0  0  0  0  0
   28.0282  -20.4869   -8.0589 C   0  0  0  0  0  0  0  0  0  0  0  0
   28.1861  -20.0994   -6.6557 C   0  0  0  0  0  0  0  0  0  0  0  0
   27.8451  -18.8277   -6.2510 C   0  0  0  0  0  0  0  0  0  0  0  0
   27.9766  -18.4225   -4.9482 C   0  0  0  0  0  0  0  0  0  0  0  0
   28.4590  -19.2905   -4.0050 C   0  0  0  0  0  0  0  0  0  0  0  0
   28.8010  -20.5657   -4.4107 C   0  0  0  0  0  0  0  0  0  0  0  0
   28.6712  -20.9768   -5.7144 C   0  0  0  0  0  0  0  0  0  0  0  0
   25.7448  -20.8745   -7.1967 C   0  0  0  0  0  0  0  0  0  0  0  0
   24.7139  -19.9520   -7.2536 O   0  0  0  0  0  0  0  0  0  0  0  0
   25.8541  -21.5402   -6.1457 O   0  0  0  0  0  0  0  0  0  0  0  0
  2  1  1  6
  2  3  1  0
  4  3  1  0
  4  5  1  0
  6  7  1  0
  6  5  1  0
  8  2  1  0
  9  8  2  0
 10  8  1  0
 11 10  1  0
 11 12  1  6
 12 13  1  0
 13 17  1  0
 14 13  2  0
 15 16  2  0
 15 11  1  0
 18 15  1  0
 19 18  1  0
 19 20  1  1
 20 21  1  0
 21 26  2  0
 21 22  1  0
 22 23  2  0
 23 24  1  0
 25 24  2  0
 26 25  1  0
 27 28  1  0
 27 19  1  0
 29 27  2  0
M  END
$$$$
