LIE.pdb
     RDKit          3D

 26 25  0  0  1  0  0  0  0  0999 V2000
   27.4496  -20.3164  -19.6904 C   0  0  0  0  0  0  0  0  0  0  0  0
   28.0523  -20.9273  -18.4540 C   0  0  1  0  0  0  0  0  0  0  0  0
   28.8091  -19.8753  -17.6433 C   0  0  0  0  0  0  0  0  0  0  0  0
   27.0357  -21.5427  -17.5656 C   0  0  0  0  0  0  0  0  0  0  0  0
   27.6246  -22.0441  -16.2876 C   0  0  2  0  0  0  0  0  0  0  0  0
   27.9647  -23.4853  -16.4916 N   0  0  0  0  0  0  0  0  0  0  0  0
   26.7149  -22.0222  -15.1256 C   0  0  0  0  0  0  0  0  0  0  0  0
   25.8084  -22.9210  -15.0669 O   0  0  0  0  0  0  0  0  0  0  0  0
   25.4647  -21.2691   -9.5720 C   0  0  0  0  0  0  0  0  0  0  0  0
   25.2307  -20.2706  -10.6854 C   0  0  0  0  0  0  0  0  0  0  0  0
   26.2366  -20.4491  -11.7878 C   0  0  2  0  0  0  0  0  0  0  0  0
   26.8517  -19.1317  -12.2072 C   0  0  0  0  0  0  0  0  0  0  0  0
   25.6944  -21.1141  -13.0064 C   0  0  2  0  0  0  0  0  0  0  0  0
   26.7332  -21.1078  -14.0517 N   0  0  0  0  0  0  0  0  0  0  0  0
   24.4473  -20.4823  -13.5228 C   0  0  0  0  0  0  0  0  0  0  0  0
   24.4384  -19.3628  -14.1011 O   0  0  0  0  0  0  0  0  0  0  0  0
   23.1862  -21.1241  -13.3850 N   0  0  0  0  0  0  0  0  0  0  0  0
   21.9595  -20.5178  -13.9182 C   0  0  1  0  0  0  0  0  0  0  0  0
   21.0683  -21.6667  -14.3288 C   0  0  0  0  0  0  0  0  0  0  0  0
   19.7464  -21.2616  -14.8779 C   0  0  0  0  0  0  0  0  0  0  0  0
   19.0209  -22.4867  -15.3104 C   0  0  0  0  0  0  0  0  0  0  0  0
   19.4711  -23.6017  -14.9524 O   0  0  0  0  0  0  0  0  0  0  0  0
   21.3576  -19.7289  -12.8266 C   0  0  0  0  0  0  0  0  0  0  0  0
   20.6127  -18.5993  -13.0939 O   0  0  0  0  0  0  0  0  0  0  0  0
   17.8910  -22.3998  -16.0794 O   0  0  0  0  0  0  0  0  0  0  0  0
   21.4970  -20.0495  -11.6236 O   0  0  0  0  0  0  0  0  0  0  0  0
  2  3  1  1
  2  1  1  0
  4  2  1  0
  4  5  1  0
  5  7  1  0
  5  6  1  6
  7  8  2  0
 10  9  1  0
 11 10  1  0
 11 12  1  6
 13 11  1  0
 13 14  1  6
 14  7  1  0
 15 16  2  0
 15 13  1  0
 17 15  1  0
 18 23  1  0
 18 17  1  0
 18 19  1  1
 20 19  1  0
 20 21  1  0
 21 25  1  0
 22 21  2  0
 23 24  1  0
 26 23  2  0
M  END
$$$$
