LIE.pdb
     RDKit          3D

 26 25  0  0  1  0  0  0  0  0999 V2000
   26.4223  -37.6792  -14.6220 C   0  0  0  0  0  0  0  0  0  0  0  0
   25.7256  -36.3467  -14.5606 C   0  0  1  0  0  0  0  0  0  0  0  0
   24.2099  -36.5304  -14.4854 C   0  0  0  0  0  0  0  0  0  0  0  0
   26.1447  -35.5349  -13.3915 C   0  0  0  0  0  0  0  0  0  0  0  0
   25.4137  -34.2346  -13.3093 C   0  0  2  0  0  0  0  0  0  0  0  0
   26.0623  -33.2994  -14.2782 N   0  0  0  0  0  0  0  0  0  0  0  0
   25.4905  -33.5524  -12.0028 C   0  0  0  0  0  0  0  0  0  0  0  0
   26.5469  -32.8801  -11.7476 O   0  0  0  0  0  0  0  0  0  0  0  0
   22.0311  -30.1213  -10.2917 C   0  0  0  0  0  0  0  0  0  0  0  0
   23.3127  -30.8888  -10.5368 C   0  0  0  0  0  0  0  0  0  0  0  0
   23.5109  -31.9517   -9.4928 C   0  0  2  0  0  0  0  0  0  0  0  0
   23.6227  -31.3621   -8.1036 C   0  0  0  0  0  0  0  0  0  0  0  0
   24.7008  -32.8189   -9.7234 C   0  0  2  0  0  0  0  0  0  0  0  0
   24.5128  -33.5555  -10.9860 N   0  0  0  0  0  0  0  0  0  0  0  0
   24.9647  -33.7738   -8.6101 C   0  0  0  0  0  0  0  0  0  0  0  0
   24.3176  -34.8448   -8.4619 O   0  0  0  0  0  0  0  0  0  0  0  0
   25.9769  -33.5172   -7.6454 N   0  0  0  0  0  0  0  0  0  0  0  0
   26.2582  -34.4692   -6.5632 C   0  0  1  0  0  0  0  0  0  0  0  0
   27.3340  -33.8330   -5.7143 C   0  0  0  0  0  0  0  0  0  0  0  0
   27.7078  -34.6089   -4.5013 C   0  0  0  0  0  0  0  0  0  0  0  0
   28.7180  -33.8289   -3.7363 C   0  0  0  0  0  0  0  0  0  0  0  0
   28.9827  -32.6634   -4.1181 O   0  0  0  0  0  0  0  0  0  0  0  0
   25.0044  -34.6454   -5.8060 C   0  0  0  0  0  0  0  0  0  0  0  0
   24.6811  -35.8612   -5.2406 O   0  0  0  0  0  0  0  0  0  0  0  0
   29.3427  -34.3687   -2.6438 O   0  0  0  0  0  0  0  0  0  0  0  0
   24.1897  -33.7071   -5.6470 O   0  0  0  0  0  0  0  0  0  0  0  0
  2  3  1  1
  2  1  1  0
  4  2  1  0
  4  5  1  0
  5  7  1  0
  5  6  1  6
  7  8  2  0
 10  9  1  0
 11 10  1  0
 11 12  1  1
 13 11  1  0
 13 14  1  6
 14  7  1  0
 15 16  2  0
 15 13  1  0
 17 15  1  0
 18 23  1  0
 18 17  1  0
 18 19  1  1
 20 19  1  0
 20 21  1  0
 21 25  1  0
 22 21  2  0
 23 24  1  0
 26 23  2  0
M  END
$$$$
