LIE.pdb
     RDKit          3D

 26 25  0  0  1  0  0  0  0  0999 V2000
   26.7483  -12.0503  -15.9434 C   0  0  0  0  0  0  0  0  0  0  0  0
   25.4066  -12.7011  -16.1462 C   0  0  1  0  0  0  0  0  0  0  0  0
   25.0036  -13.5084  -14.9122 C   0  0  0  0  0  0  0  0  0  0  0  0
   24.3290  -11.7183  -16.4195 C   0  0  0  0  0  0  0  0  0  0  0  0
   23.0144  -12.3746  -16.6890 C   0  0  2  0  0  0  0  0  0  0  0  0
   23.1174  -13.0425  -18.0223 N   0  0  0  0  0  0  0  0  0  0  0  0
   21.8655  -11.4554  -16.8048 C   0  0  0  0  0  0  0  0  0  0  0  0
   21.8391  -10.6648  -17.8084 O   0  0  0  0  0  0  0  0  0  0  0  0
   16.9000   -9.9646  -17.7961 C   0  0  0  0  0  0  0  0  0  0  0  0
   17.1761  -10.2551  -16.3363 C   0  0  0  0  0  0  0  0  0  0  0  0
   18.3870  -11.1320  -16.1823 C   0  0  2  0  0  0  0  0  0  0  0  0
   18.3058  -11.9903  -14.9387 C   0  0  0  0  0  0  0  0  0  0  0  0
   19.6781  -10.3883  -16.1464 C   0  0  2  0  0  0  0  0  0  0  0  0
   20.7723  -11.3491  -15.9197 N   0  0  0  0  0  0  0  0  0  0  0  0
   19.7177   -9.3166  -15.1116 C   0  0  0  0  0  0  0  0  0  0  0  0
   19.9816   -9.5463  -13.9011 O   0  0  0  0  0  0  0  0  0  0  0  0
   19.4550   -7.9603  -15.4470 N   0  0  0  0  0  0  0  0  0  0  0  0
   19.5342   -6.8959  -14.4384 C   0  0  1  0  0  0  0  0  0  0  0  0
   20.8014   -6.1291  -14.7367 C   0  0  0  0  0  0  0  0  0  0  0  0
   20.9782   -4.8868  -13.9375 C   0  0  0  0  0  0  0  0  0  0  0  0
   22.2413   -4.2272  -14.3661 C   0  0  0  0  0  0  0  0  0  0  0  0
   22.2696   -2.9739  -14.4174 O   0  0  0  0  0  0  0  0  0  0  0  0
   18.3372   -6.0505  -14.6072 C   0  0  0  0  0  0  0  0  0  0  0  0
   17.7048   -5.9506  -15.8289 O   0  0  0  0  0  0  0  0  0  0  0  0
   23.3444   -4.9685  -14.6961 O   0  0  0  0  0  0  0  0  0  0  0  0
   17.8506   -5.3948  -13.6571 O   0  0  0  0  0  0  0  0  0  0  0  0
  2  3  1  1
  2  1  1  0
  4  2  1  0
  4  5  1  0
  5  7  1  0
  5  6  1  6
  7  8  2  0
 10  9  1  0
 11 10  1  0
 11 12  1  1
 13 11  1  0
 13 14  1  1
 14  7  1  0
 15 16  2  0
 15 13  1  0
 17 15  1  0
 18 23  1  0
 18 17  1  0
 18 19  1  6
 20 19  1  0
 20 21  1  0
 21 25  1  0
 22 21  2  0
 23 24  1  0
 26 23  2  0
M  END
$$$$
