LIE.pdb
     RDKit          3D

 26 25  0  0  1  0  0  0  0  0999 V2000
   27.1304  -20.2934   -8.9785 C   0  0  0  0  0  0  0  0  0  0  0  0
   26.7628  -20.5596  -10.4134 C   0  0  1  0  0  0  0  0  0  0  0  0
   27.1949  -21.9649  -10.8319 C   0  0  0  0  0  0  0  0  0  0  0  0
   25.3053  -20.4378  -10.6631 C   0  0  0  0  0  0  0  0  0  0  0  0
   24.9399  -20.7636  -12.0745 C   0  0  2  0  0  0  0  0  0  0  0  0
   25.6093  -19.7538  -12.9501 N   0  0  0  0  0  0  0  0  0  0  0  0
   23.5023  -20.6580  -12.3915 C   0  0  0  0  0  0  0  0  0  0  0  0
   22.8611  -19.6643  -11.9074 O   0  0  0  0  0  0  0  0  0  0  0  0
   21.0824  -18.4685  -15.1128 C   0  0  0  0  0  0  0  0  0  0  0  0
   21.9049  -19.7283  -15.2795 C   0  0  0  0  0  0  0  0  0  0  0  0
   21.1212  -20.9411  -14.8624 C   0  0  2  0  0  0  0  0  0  0  0  0
   19.6391  -20.7671  -15.1132 C   0  0  0  0  0  0  0  0  0  0  0  0
   21.3059  -21.3251  -13.4342 C   0  0  2  0  0  0  0  0  0  0  0  0
   22.7417  -21.5431  -13.1840 N   0  0  0  0  0  0  0  0  0  0  0  0
   20.5299  -22.5346  -13.0393 C   0  0  0  0  0  0  0  0  0  0  0  0
   20.5947  -23.6232  -13.6706 O   0  0  0  0  0  0  0  0  0  0  0  0
   19.6644  -22.5174  -11.9115 N   0  0  0  0  0  0  0  0  0  0  0  0
   18.9936  -23.7379  -11.4461 C   0  0  1  0  0  0  0  0  0  0  0  0
   19.0710  -23.7096   -9.9374 C   0  0  0  0  0  0  0  0  0  0  0  0
   18.5056  -24.9096   -9.2640 C   0  0  0  0  0  0  0  0  0  0  0  0
   18.6701  -24.7457   -7.7942 C   0  0  0  0  0  0  0  0  0  0  0  0
   19.1633  -23.6740   -7.3671 O   0  0  0  0  0  0  0  0  0  0  0  0
   17.5975  -23.6705  -11.9180 C   0  0  0  0  0  0  0  0  0  0  0  0
   16.9155  -24.8123  -12.2836 O   0  0  0  0  0  0  0  0  0  0  0  0
   18.2930  -25.7387   -6.9298 O   0  0  0  0  0  0  0  0  0  0  0  0
   16.9801  -22.5840  -12.0053 O   0  0  0  0  0  0  0  0  0  0  0  0
  2  3  1  1
  2  1  1  0
  4  2  1  0
  4  5  1  0
  5  7  1  0
  5  6  1  6
  7  8  2  0
 10  9  1  0
 11 10  1  0
 11 12  1  1
 13 11  1  0
 13 14  1  6
 14  7  1  0
 15 16  2  0
 15 13  1  0
 17 15  1  0
 18 23  1  0
 18 17  1  0
 18 19  1  1
 20 19  1  0
 20 21  1  0
 21 25  1  0
 22 21  2  0
 23 24  1  0
 26 23  2  0
M  END
$$$$
