LIE.pdb
     RDKit          3D

 26 25  0  0  1  0  0  0  0  0999 V2000
   17.1682  -14.6023  -14.0699 C   0  0  0  0  0  0  0  0  0  0  0  0
   16.3178  -14.1228  -12.9246 C   0  0  1  0  0  0  0  0  0  0  0  0
   16.8374  -14.6726  -11.5963 C   0  0  0  0  0  0  0  0  0  0  0  0
   16.2785  -12.6431  -12.8212 C   0  0  0  0  0  0  0  0  0  0  0  0
   15.4243  -12.1738  -11.6890 C   0  0  2  0  0  0  0  0  0  0  0  0
   14.0041  -12.4604  -12.0567 N   0  0  0  0  0  0  0  0  0  0  0  0
   15.4706  -10.7220  -11.4272 C   0  0  0  0  0  0  0  0  0  0  0  0
   15.1093   -9.9389  -12.3702 O   0  0  0  0  0  0  0  0  0  0  0  0
   12.8022   -8.0145   -9.9410 C   0  0  0  0  0  0  0  0  0  0  0  0
   13.5679   -8.7882   -8.8891 C   0  0  0  0  0  0  0  0  0  0  0  0
   15.0003   -8.3372   -8.8265 C   0  0  2  0  0  0  0  0  0  0  0  0
   15.1119   -6.8560   -8.5376 C   0  0  0  0  0  0  0  0  0  0  0  0
   15.7856   -8.6274  -10.0596 C   0  0  2  0  0  0  0  0  0  0  0  0
   15.8729  -10.0883  -10.2329 N   0  0  0  0  0  0  0  0  0  0  0  0
   17.1520   -8.0327  -10.0473 C   0  0  0  0  0  0  0  0  0  0  0  0
   17.9769   -8.2371   -9.1170 O   0  0  0  0  0  0  0  0  0  0  0  0
   17.5975   -7.1915  -11.1033 N   0  0  0  0  0  0  0  0  0  0  0  0
   18.9300   -6.5750  -11.0770 C   0  0  1  0  0  0  0  0  0  0  0  0
   19.6080   -6.9867  -12.3629 C   0  0  0  0  0  0  0  0  0  0  0  0
   20.8938   -6.2908  -12.6375 C   0  0  0  0  0  0  0  0  0  0  0  0
   21.4537   -6.8210  -13.9101 C   0  0  0  0  0  0  0  0  0  0  0  0
   21.3557   -8.0513  -14.1356 O   0  0  0  0  0  0  0  0  0  0  0  0
   18.7295   -5.1148  -11.0140 C   0  0  0  0  0  0  0  0  0  0  0  0
   17.5610   -4.5382  -11.4662 O   0  0  0  0  0  0  0  0  0  0  0  0
   22.0602   -5.9880  -14.8121 O   0  0  0  0  0  0  0  0  0  0  0  0
   19.6039   -4.3459  -10.5516 O   0  0  0  0  0  0  0  0  0  0  0  0
  2  3  1  1
  2  1  1  0
  4  2  1  0
  4  5  1  0
  5  7  1  0
  5  6  1  6
  7  8  2  0
 10  9  1  0
 11 10  1  0
 11 12  1  6
 13 11  1  0
 13 14  1  1
 14  7  1  0
 15 16  2  0
 15 13  1  0
 17 15  1  0
 18 23  1  0
 18 17  1  0
 18 19  1  6
 20 19  1  0
 20 21  1  0
 21 25  1  0
 22 21  2  0
 23 24  1  0
 26 23  2  0
M  END
$$$$
