LIE.pdb
     RDKit          3D

 26 25  0  0  1  0  0  0  0  0999 V2000
   13.3854   -8.9561  -12.8767 C   0  0  0  0  0  0  0  0  0  0  0  0
   14.6915   -9.6167  -12.5266 C   0  0  1  0  0  0  0  0  0  0  0  0
   15.0326  -10.7123  -13.5365 C   0  0  0  0  0  0  0  0  0  0  0  0
   15.8254   -8.6604  -12.4913 C   0  0  0  0  0  0  0  0  0  0  0  0
   17.1068   -9.3109  -12.0829 C   0  0  2  0  0  0  0  0  0  0  0  0
   17.0716   -9.4651  -10.5966 N   0  0  0  0  0  0  0  0  0  0  0  0
   18.3258   -8.5270  -12.3617 C   0  0  0  0  0  0  0  0  0  0  0  0
   18.6236   -7.5871  -11.5487 O   0  0  0  0  0  0  0  0  0  0  0  0
   23.0570  -10.6282  -13.4498 C   0  0  0  0  0  0  0  0  0  0  0  0
   21.9376   -9.7379  -12.9541 C   0  0  0  0  0  0  0  0  0  0  0  0
   21.5631   -8.7170  -13.9916 C   0  0  2  0  0  0  0  0  0  0  0  0
   22.7280   -7.8170  -14.3418 C   0  0  0  0  0  0  0  0  0  0  0  0
   20.4107   -7.8528  -13.6089 C   0  0  2  0  0  0  0  0  0  0  0  0
   19.2174   -8.7011  -13.4408 N   0  0  0  0  0  0  0  0  0  0  0  0
   20.1306   -6.7671  -14.5906 C   0  0  0  0  0  0  0  0  0  0  0  0
   19.7993   -6.9955  -15.7847 O   0  0  0  0  0  0  0  0  0  0  0  0
   20.2257   -5.3979  -14.2200 N   0  0  0  0  0  0  0  0  0  0  0  0
   19.8132   -4.3287  -15.1382 C   0  0  1  0  0  0  0  0  0  0  0  0
   19.0722   -3.3160  -14.2967 C   0  0  0  0  0  0  0  0  0  0  0  0
   18.6092   -2.1122  -15.0381 C   0  0  0  0  0  0  0  0  0  0  0  0
   17.6203   -1.3901  -14.1926 C   0  0  0  0  0  0  0  0  0  0  0  0
   18.0351   -0.4703  -13.4469 O   0  0  0  0  0  0  0  0  0  0  0  0
   21.0441   -3.7561  -15.7155 C   0  0  0  0  0  0  0  0  0  0  0  0
   21.0537   -3.2340  -16.9921 O   0  0  0  0  0  0  0  0  0  0  0  0
   16.2918   -1.7207  -14.2272 O   0  0  0  0  0  0  0  0  0  0  0  0
   22.1209   -3.7209  -15.0762 O   0  0  0  0  0  0  0  0  0  0  0  0
  2  3  1  6
  2  1  1  0
  4  2  1  0
  4  5  1  0
  5  7  1  0
  5  6  1  1
  7  8  2  0
 10  9  1  0
 11 10  1  0
 11 12  1  1
 13 11  1  0
 13 14  1  6
 14  7  1  0
 15 16  2  0
 15 13  1  0
 17 15  1  0
 18 23  1  0
 18 17  1  0
 18 19  1  1
 20 19  1  0
 20 21  1  0
 21 25  1  0
 22 21  2  0
 23 24  1  0
 26 23  2  0
M  END
$$$$
