LIE.pdb
     RDKit          3D

 26 25  0  0  1  0  0  0  0  0999 V2000
   16.2178  -14.4394  -17.9792 C   0  0  0  0  0  0  0  0  0  0  0  0
   17.0567  -13.2458  -18.3485 C   0  0  1  0  0  0  0  0  0  0  0  0
   16.1921  -12.1442  -18.9614 C   0  0  0  0  0  0  0  0  0  0  0  0
   17.7737  -12.6679  -17.1851 C   0  0  0  0  0  0  0  0  0  0  0  0
   18.5282  -11.4282  -17.5392 C   0  0  2  0  0  0  0  0  0  0  0  0
   19.6036  -11.8227  -18.4994 N   0  0  0  0  0  0  0  0  0  0  0  0
   19.2317  -10.7787  -16.4161 C   0  0  0  0  0  0  0  0  0  0  0  0
   18.5554  -10.5239  -15.3622 O   0  0  0  0  0  0  0  0  0  0  0  0
   24.4154  -10.6066  -13.3287 C   0  0  0  0  0  0  0  0  0  0  0  0
   23.1423   -9.8470  -13.6345 C   0  0  0  0  0  0  0  0  0  0  0  0
   22.4300  -10.4448  -14.8152 C   0  0  2  0  0  0  0  0  0  0  0  0
   23.3200  -10.5060  -16.0376 C   0  0  0  0  0  0  0  0  0  0  0  0
   21.1746   -9.7361  -15.1932 C   0  0  2  0  0  0  0  0  0  0  0  0
   20.5905  -10.4023  -16.3709 N   0  0  0  0  0  0  0  0  0  0  0  0
   21.3726   -8.2858  -15.4735 C   0  0  0  0  0  0  0  0  0  0  0  0
   21.9048   -7.8622  -16.5341 O   0  0  0  0  0  0  0  0  0  0  0  0
   20.9630   -7.2939  -14.5410 N   0  0  0  0  0  0  0  0  0  0  0  0
   21.1077   -5.8628  -14.8368 C   0  0  1  0  0  0  0  0  0  0  0  0
   19.7045   -5.3129  -14.9439 C   0  0  0  0  0  0  0  0  0  0  0  0
   19.6269   -3.8358  -15.1031 C   0  0  0  0  0  0  0  0  0  0  0  0
   18.1959   -3.4519  -15.2417 C   0  0  0  0  0  0  0  0  0  0  0  0
   17.3465   -4.3645  -15.3818 O   0  0  0  0  0  0  0  0  0  0  0  0
   21.8408   -5.2600  -13.7074 C   0  0  0  0  0  0  0  0  0  0  0  0
   22.5029   -4.0587  -13.8507 O   0  0  0  0  0  0  0  0  0  0  0  0
   17.8156   -2.1365  -15.2171 O   0  0  0  0  0  0  0  0  0  0  0  0
   21.8915   -5.8093  -12.5826 O   0  0  0  0  0  0  0  0  0  0  0  0
  2  3  1  1
  2  1  1  0
  4  2  1  0
  4  5  1  0
  5  7  1  0
  5  6  1  6
  7  8  2  0
 10  9  1  0
 11 10  1  0
 11 12  1  6
 13 11  1  0
 13 14  1  6
 14  7  1  0
 15 16  2  0
 15 13  1  0
 17 15  1  0
 18 23  1  0
 18 17  1  0
 18 19  1  1
 20 19  1  0
 20 21  1  0
 21 25  1  0
 22 21  2  0
 23 24  1  0
 26 23  2  0
M  END
$$$$
