LIE.pdb
     RDKit          3D

 26 25  0  0  1  0  0  0  0  0999 V2000
   18.8055  -10.9300  -20.3565 C   0  0  0  0  0  0  0  0  0  0  0  0
   17.8249  -11.2485  -19.2602 C   0  0  1  0  0  0  0  0  0  0  0  0
   17.4474  -12.7296  -19.2840 C   0  0  0  0  0  0  0  0  0  0  0  0
   18.3540  -10.9348  -17.9099 C   0  0  0  0  0  0  0  0  0  0  0  0
   19.6071  -11.6867  -17.6003 C   0  0  2  0  0  0  0  0  0  0  0  0
   19.2024  -12.9975  -17.0066 N   0  0  0  0  0  0  0  0  0  0  0  0
   20.4830  -11.0594  -16.5915 C   0  0  0  0  0  0  0  0  0  0  0  0
   20.0876  -11.0692  -15.3764 O   0  0  0  0  0  0  0  0  0  0  0  0
   26.1675  -10.1124  -14.7954 C   0  0  0  0  0  0  0  0  0  0  0  0
   24.7543   -9.5749  -14.7213 C   0  0  0  0  0  0  0  0  0  0  0  0
   23.8589  -10.2800  -15.7011 C   0  0  2  0  0  0  0  0  0  0  0  0
   24.4183  -10.2371  -17.1065 C   0  0  0  0  0  0  0  0  0  0  0  0
   22.4654   -9.7530  -15.7426 C   0  0  2  0  0  0  0  0  0  0  0  0
   21.7304  -10.4411  -16.8188 N   0  0  0  0  0  0  0  0  0  0  0  0
   22.3940   -8.2774  -15.9387 C   0  0  0  0  0  0  0  0  0  0  0  0
   22.7303   -7.7150  -17.0149 O   0  0  0  0  0  0  0  0  0  0  0  0
   21.9349   -7.4192  -14.9025 N   0  0  0  0  0  0  0  0  0  0  0  0
   21.7892   -5.9738  -15.1176 C   0  0  1  0  0  0  0  0  0  0  0  0
   20.3049   -5.7139  -15.2281 C   0  0  0  0  0  0  0  0  0  0  0  0
   19.9298   -4.2760  -15.2986 C   0  0  0  0  0  0  0  0  0  0  0  0
   18.4512   -4.1815  -15.4359 C   0  0  0  0  0  0  0  0  0  0  0  0
   17.8568   -5.0724  -16.0894 O   0  0  0  0  0  0  0  0  0  0  0  0
   22.3707   -5.3009  -13.9406 C   0  0  0  0  0  0  0  0  0  0  0  0
   22.8354   -4.0048  -14.0211 O   0  0  0  0  0  0  0  0  0  0  0  0
   17.7568   -3.1489  -14.8640 O   0  0  0  0  0  0  0  0  0  0  0  0
   22.4653   -5.8736  -12.8304 O   0  0  0  0  0  0  0  0  0  0  0  0
  2  3  1  1
  2  1  1  0
  4  2  1  0
  4  5  1  0
  5  7  1  0
  5  6  1  1
  7  8  2  0
 10  9  1  0
 11 10  1  0
 11 12  1  6
 13 11  1  0
 13 14  1  6
 14  7  1  0
 15 16  2  0
 15 13  1  0
 17 15  1  0
 18 23  1  0
 18 17  1  0
 18 19  1  1
 20 19  1  0
 20 21  1  0
 21 25  1  0
 22 21  2  0
 23 24  1  0
 26 23  2  0
M  END
$$$$
