LIE.pdb
     RDKit          3D

 26 25  0  0  1  0  0  0  0  0999 V2000
   27.1687  -18.8472  -18.8711 C   0  0  0  0  0  0  0  0  0  0  0  0
   27.8315  -19.6780  -17.8055 C   0  0  1  0  0  0  0  0  0  0  0  0
   28.9192  -18.8759  -17.0912 C   0  0  0  0  0  0  0  0  0  0  0  0
   26.8752  -20.1627  -16.7799 C   0  0  0  0  0  0  0  0  0  0  0  0
   27.5523  -20.9087  -15.6769 C   0  0  2  0  0  0  0  0  0  0  0  0
   28.0014  -22.2192  -16.2386 N   0  0  0  0  0  0  0  0  0  0  0  0
   26.6895  -21.2547  -14.5305 C   0  0  0  0  0  0  0  0  0  0  0  0
   25.9294  -22.2751  -14.6487 O   0  0  0  0  0  0  0  0  0  0  0  0
   28.4633  -20.9379   -9.6300 C   0  0  0  0  0  0  0  0  0  0  0  0
   27.6362  -21.5372  -10.7472 C   0  0  0  0  0  0  0  0  0  0  0  0
   26.3384  -20.7973  -10.9118 C   0  0  2  0  0  0  0  0  0  0  0  0
   25.3430  -21.1597   -9.8311 C   0  0  0  0  0  0  0  0  0  0  0  0
   25.6811  -21.0051  -12.2332 C   0  0  2  0  0  0  0  0  0  0  0  0
   26.6080  -20.5771  -13.2960 N   0  0  0  0  0  0  0  0  0  0  0  0
   24.3821  -20.2875  -12.3698 C   0  0  0  0  0  0  0  0  0  0  0  0
   24.2377  -19.0735  -12.0649 O   0  0  0  0  0  0  0  0  0  0  0  0
   23.2236  -20.9505  -12.8594 N   0  0  0  0  0  0  0  0  0  0  0  0
   21.9654  -20.2257  -13.0785 C   0  0  1  0  0  0  0  0  0  0  0  0
   21.3153  -20.8685  -14.2814 C   0  0  0  0  0  0  0  0  0  0  0  0
   20.0153  -21.5357  -14.0023 C   0  0  0  0  0  0  0  0  0  0  0  0
   19.5187  -22.1460  -15.2653 C   0  0  0  0  0  0  0  0  0  0  0  0
   20.2366  -22.0578  -16.2904 O   0  0  0  0  0  0  0  0  0  0  0  0
   21.1482  -20.4013  -11.8629 C   0  0  0  0  0  0  0  0  0  0  0  0
   20.1670  -19.4912  -11.5291 O   0  0  0  0  0  0  0  0  0  0  0  0
   18.3095  -22.7874  -15.3079 O   0  0  0  0  0  0  0  0  0  0  0  0
   21.3103  -21.3749  -11.0913 O   0  0  0  0  0  0  0  0  0  0  0  0
  2  3  1  1
  2  1  1  0
  4  2  1  0
  4  5  1  0
  5  7  1  0
  5  6  1  6
  7  8  2  0
 10  9  1  0
 11 10  1  0
 11 12  1  1
 13 11  1  0
 13 14  1  6
 14  7  1  0
 15 16  2  0
 15 13  1  0
 17 15  1  0
 18 23  1  0
 18 17  1  0
 18 19  1  6
 20 19  1  0
 20 21  1  0
 21 25  1  0
 22 21  2  0
 23 24  1  0
 26 23  2  0
M  END
$$$$
