LIE.pdb
     RDKit          3D

 26 25  0  0  1  0  0  0  0  0999 V2000
   27.4097  -19.6589   -6.8557 C   0  0  0  0  0  0  0  0  0  0  0  0
   26.6386  -20.5174   -7.8218 C   0  0  1  0  0  0  0  0  0  0  0  0
   25.2743  -20.8928   -7.2436 C   0  0  0  0  0  0  0  0  0  0  0  0
   26.4121  -19.8490   -9.1269 C   0  0  0  0  0  0  0  0  0  0  0  0
   25.7253  -20.7386  -10.1110 C   0  0  2  0  0  0  0  0  0  0  0  0
   26.5857  -21.9475  -10.2917 N   0  0  0  0  0  0  0  0  0  0  0  0
   25.5649  -20.1723  -11.4645 C   0  0  0  0  0  0  0  0  0  0  0  0
   24.8499  -19.1200  -11.5846 O   0  0  0  0  0  0  0  0  0  0  0  0
   29.5840  -20.3149  -13.8577 C   0  0  0  0  0  0  0  0  0  0  0  0
   28.4025  -19.3707  -13.9215 C   0  0  0  0  0  0  0  0  0  0  0  0
   27.2595  -19.9900  -14.6756 C   0  0  2  0  0  0  0  0  0  0  0  0
   27.0539  -19.3346  -16.0240 C   0  0  0  0  0  0  0  0  0  0  0  0
   25.9604  -19.9614  -13.9456 C   0  0  2  0  0  0  0  0  0  0  0  0
   26.1225  -20.6671  -12.6620 N   0  0  0  0  0  0  0  0  0  0  0  0
   24.8326  -20.5572  -14.7165 C   0  0  0  0  0  0  0  0  0  0  0  0
   24.8522  -21.7401  -15.1501 O   0  0  0  0  0  0  0  0  0  0  0  0
   23.6605  -19.8060  -15.0041 N   0  0  0  0  0  0  0  0  0  0  0  0
   22.5098  -20.4172  -15.6816 C   0  0  1  0  0  0  0  0  0  0  0  0
   21.2947  -19.6450  -15.2233 C   0  0  0  0  0  0  0  0  0  0  0  0
   20.9272  -18.4935  -16.0905 C   0  0  0  0  0  0  0  0  0  0  0  0
   19.6881  -17.8729  -15.5489 C   0  0  0  0  0  0  0  0  0  0  0  0
   18.7297  -18.6244  -15.2473 O   0  0  0  0  0  0  0  0  0  0  0  0
   22.7320  -20.2662  -17.1321 C   0  0  0  0  0  0  0  0  0  0  0  0
   22.1244  -21.1128  -18.0356 O   0  0  0  0  0  0  0  0  0  0  0  0
   19.5957  -16.5165  -15.3836 O   0  0  0  0  0  0  0  0  0  0  0  0
   23.4746  -19.3713  -17.5983 O   0  0  0  0  0  0  0  0  0  0  0  0
  2  3  1  1
  2  1  1  0
  4  2  1  0
  4  5  1  0
  5  7  1  0
  5  6  1  6
  7  8  2  0
 10  9  1  0
 11 10  1  0
 11 12  1  6
 13 11  1  0
 13 14  1  1
 14  7  1  0
 15 16  2  0
 15 13  1  0
 17 15  1  0
 18 23  1  0
 18 17  1  0
 18 19  1  1
 20 19  1  0
 20 21  1  0
 21 25  1  0
 22 21  2  0
 23 24  1  0
 26 23  2  0
M  END
$$$$
