CCD.pdb
     RDKit          3D

 21 20  0  0  1  0  0  0  0  0999 V2000
    8.5830  -15.0596   20.0615 N   0  0  0  0  0  0  0  0  0  0  0  0
    7.6581  -15.2011   21.1654 C   0  0  1  0  0  0  0  0  0  0  0  0
    7.3854  -16.6845   21.3185 C   0  0  0  0  0  0  0  0  0  0  0  0
    6.2659  -17.2176   20.0014 S   0  0  0  0  0  0  0  0  0  0  0  0
    8.2672  -14.7513   22.4515 C   0  0  0  0  0  0  0  0  0  0  0  0
    9.4989  -14.8954   22.6457 O   0  0  0  0  0  0  0  0  0  0  0  0
    7.5021  -14.1539   23.4910 N   0  0  0  0  0  0  0  0  0  0  0  0
    8.0200  -13.8650   24.7972 C   0  0  1  0  0  0  0  0  0  0  0  0
    6.9583  -13.0952   25.5777 C   0  0  0  0  0  0  0  0  0  0  0  0
    7.5861  -12.7065   27.2544 S   0  0  0  0  0  0  0  0  0  0  0  0
    8.4112  -15.1060   25.5361 C   0  0  0  0  0  0  0  0  0  0  0  0
    7.6381  -16.0979   25.6086 O   0  0  0  0  0  0  0  0  0  0  0  0
    9.6726  -15.2088   26.1836 N   0  0  0  0  0  0  0  0  0  0  0  0
   10.1301  -16.3816   26.8760 C   0  0  1  0  0  0  0  0  0  0  0  0
   11.3741  -16.9665   26.2573 C   0  0  0  0  0  0  0  0  0  0  0  0
   11.1829  -18.3255   25.7037 C   0  0  0  0  0  0  0  0  0  0  0  0
   10.5999  -19.2538   26.3433 O   0  0  0  0  0  0  0  0  0  0  0  0
   10.2272  -16.1769   28.3374 C   0  0  0  0  0  0  0  0  0  0  0  0
   10.3098  -17.2454   29.2362 O   0  0  0  0  0  0  0  0  0  0  0  0
   11.6328  -18.6868   24.4296 O   0  0  0  0  0  0  0  0  0  0  0  0
   10.2415  -15.0359   28.8586 O   0  0  0  0  0  0  0  0  0  0  0  0
  2  3  1  0
  2  1  1  6
  4  3  1  0
  5  6  2  0
  5  2  1  0
  7  5  1  0
  8 11  1  0
  8  7  1  0
  9 10  1  0
  8  9  1  1
 11 13  1  0
 12 11  2  0
 13 14  1  0
 14 18  1  0
 14 15  1  6
 16 15  1  0
 17 16  2  0
 18 21  2  0
 18 19  1  0
 20 16  1  0
M  END
$$$$
