CCD.pdb
     RDKit          3D

 21 20  0  0  1  0  0  0  0  0999 V2000
    8.3654  -13.2288   19.6002 N   0  0  0  0  0  0  0  0  0  0  0  0
    7.3669  -13.1322   20.6431 C   0  0  1  0  0  0  0  0  0  0  0  0
    6.3705  -14.2480   20.3975 C   0  0  0  0  0  0  0  0  0  0  0  0
    7.2057  -15.8400   20.5985 S   0  0  0  0  0  0  0  0  0  0  0  0
    7.9562  -13.3847   21.9908 C   0  0  0  0  0  0  0  0  0  0  0  0
    9.0476  -13.9962   22.0930 O   0  0  0  0  0  0  0  0  0  0  0  0
    7.3264  -12.9563   23.1920 N   0  0  0  0  0  0  0  0  0  0  0  0
    7.8166  -13.2666   24.5039 C   0  0  1  0  0  0  0  0  0  0  0  0
    6.9067  -12.5968   25.5298 C   0  0  0  0  0  0  0  0  0  0  0  0
    7.5600  -12.8875   27.2166 S   0  0  0  0  0  0  0  0  0  0  0  0
    7.8791  -14.7415   24.7484 C   0  0  0  0  0  0  0  0  0  0  0  0
    7.1313  -15.5422   24.1268 O   0  0  0  0  0  0  0  0  0  0  0  0
    8.7875  -15.2917   25.6934 N   0  0  0  0  0  0  0  0  0  0  0  0
    9.4598  -16.5505   25.5269 C   0  0  1  0  0  0  0  0  0  0  0  0
   10.1711  -16.6520   24.2015 C   0  0  0  0  0  0  0  0  0  0  0  0
   10.9614  -17.8929   24.0419 C   0  0  0  0  0  0  0  0  0  0  0  0
   10.8310  -18.8956   24.8088 O   0  0  0  0  0  0  0  0  0  0  0  0
   10.3049  -16.9014   26.6886 C   0  0  0  0  0  0  0  0  0  0  0  0
   10.5236  -18.2267   27.0784 O   0  0  0  0  0  0  0  0  0  0  0  0
   11.9136  -18.0510   23.0298 O   0  0  0  0  0  0  0  0  0  0  0  0
   10.8756  -16.0344   27.3932 O   0  0  0  0  0  0  0  0  0  0  0  0
  2  3  1  0
  2  1  1  6
  4  3  1  0
  5  6  2  0
  5  2  1  0
  7  5  1  0
  8 11  1  0
  8  7  1  0
  9 10  1  0
  8  9  1  1
 11 13  1  0
 12 11  2  0
 13 14  1  0
 14 18  1  0
 14 15  1  6
 16 15  1  0
 17 16  2  0
 18 21  2  0
 18 19  1  0
 20 16  1  0
M  END
$$$$
