CCD.pdb
     RDKit          3D

 21 20  0  0  1  0  0  0  0  0999 V2000
    8.4214  -13.3072   16.4240 N   0  0  0  0  0  0  0  0  0  0  0  0
    7.7415  -14.2117   17.3260 C   0  0  1  0  0  0  0  0  0  0  0  0
    7.9685  -15.6124   16.7923 C   0  0  0  0  0  0  0  0  0  0  0  0
    7.2028  -15.7529   15.1594 S   0  0  0  0  0  0  0  0  0  0  0  0
    8.3440  -14.1798   18.6910 C   0  0  0  0  0  0  0  0  0  0  0  0
    9.5870  -14.0677   18.8249 O   0  0  0  0  0  0  0  0  0  0  0  0
    7.5599  -14.2726   19.8741 N   0  0  0  0  0  0  0  0  0  0  0  0
    8.1152  -14.3593   21.1939 C   0  0  1  0  0  0  0  0  0  0  0  0
    7.0276  -13.9933   22.1999 C   0  0  0  0  0  0  0  0  0  0  0  0
    7.6442  -14.2694   23.9029 S   0  0  0  0  0  0  0  0  0  0  0  0
    8.6592  -15.7218   21.4886 C   0  0  0  0  0  0  0  0  0  0  0  0
    8.2673  -16.7366   20.8534 O   0  0  0  0  0  0  0  0  0  0  0  0
    9.6402  -15.9187   22.4985 N   0  0  0  0  0  0  0  0  0  0  0  0
   10.5777  -17.0073   22.5103 C   0  0  1  0  0  0  0  0  0  0  0  0
   11.3137  -17.1470   21.2021 C   0  0  0  0  0  0  0  0  0  0  0  0
   12.2315  -18.3069   21.1547 C   0  0  0  0  0  0  0  0  0  0  0  0
   13.1229  -18.5159   22.0337 O   0  0  0  0  0  0  0  0  0  0  0  0
   11.4619  -16.9829   23.6955 C   0  0  0  0  0  0  0  0  0  0  0  0
   12.2966  -15.8974   23.9807 O   0  0  0  0  0  0  0  0  0  0  0  0
   12.1827  -19.2611   20.1333 O   0  0  0  0  0  0  0  0  0  0  0  0
   11.5170  -17.9312   24.5149 O   0  0  0  0  0  0  0  0  0  0  0  0
  2  3  1  0
  2  1  1  6
  4  3  1  0
  5  6  2  0
  5  2  1  0
  7  5  1  0
  8 11  1  0
  8  7  1  0
  9 10  1  0
  8  9  1  1
 11 13  1  0
 12 11  2  0
 13 14  1  0
 14 18  1  0
 14 15  1  6
 16 15  1  0
 17 16  2  0
 18 21  2  0
 18 19  1  0
 20 16  1  0
M  END
$$$$
