CCD.pdb
     RDKit          3D

 21 20  0  0  1  0  0  0  0  0999 V2000
    8.2130  -14.6241   19.9298 N   0  0  0  0  0  0  0  0  0  0  0  0
    7.2646  -14.2913   20.9709 C   0  0  1  0  0  0  0  0  0  0  0  0
    6.2347  -15.4034   20.9943 C   0  0  0  0  0  0  0  0  0  0  0  0
    7.0405  -16.9436   21.4951 S   0  0  0  0  0  0  0  0  0  0  0  0
    7.9083  -14.2867   22.3173 C   0  0  0  0  0  0  0  0  0  0  0  0
    9.0199  -14.8457   22.4824 O   0  0  0  0  0  0  0  0  0  0  0  0
    7.3092  -13.6656   23.4479 N   0  0  0  0  0  0  0  0  0  0  0  0
    7.8724  -13.6972   24.7669 C   0  0  1  0  0  0  0  0  0  0  0  0
    7.0760  -12.7449   25.6545 C   0  0  0  0  0  0  0  0  0  0  0  0
    7.8073  -12.7101   27.3339 S   0  0  0  0  0  0  0  0  0  0  0  0
    7.8692  -15.0759   25.3487 C   0  0  0  0  0  0  0  0  0  0  0  0
    6.9902  -15.9204   25.0308 O   0  0  0  0  0  0  0  0  0  0  0  0
    8.8611  -15.4814   26.2828 N   0  0  0  0  0  0  0  0  0  0  0  0
    9.3308  -16.8318   26.4245 C   0  0  1  0  0  0  0  0  0  0  0  0
    9.7281  -17.4441   25.1055 C   0  0  0  0  0  0  0  0  0  0  0  0
   10.2288  -18.8321   25.2187 C   0  0  0  0  0  0  0  0  0  0  0  0
    9.8523  -19.6274   26.1333 O   0  0  0  0  0  0  0  0  0  0  0  0
   10.3559  -16.9688   27.4816 C   0  0  0  0  0  0  0  0  0  0  0  0
   10.4290  -18.0948   28.3080 O   0  0  0  0  0  0  0  0  0  0  0  0
   11.1573  -19.3703   24.3218 O   0  0  0  0  0  0  0  0  0  0  0  0
   11.2200  -16.0861   27.7008 O   0  0  0  0  0  0  0  0  0  0  0  0
  2  3  1  0
  2  1  1  6
  4  3  1  0
  5  6  2  0
  5  2  1  0
  7  5  1  0
  8 11  1  0
  8  7  1  0
  9 10  1  0
  8  9  1  1
 11 13  1  0
 12 11  2  0
 13 14  1  0
 14 18  1  0
 14 15  1  6
 16 15  1  0
 17 16  2  0
 18 21  2  0
 18 19  1  0
 20 16  1  0
M  END
$$$$
