CCD.pdb
     RDKit          3D

 21 20  0  0  1  0  0  0  0  0999 V2000
   -3.4107  -58.2337   -0.2743 N   0  0  0  0  0  0  0  0  0  0  0  0
   -4.1627  -58.4964   -1.4824 C   0  0  1  0  0  0  0  0  0  0  0  0
   -3.2705  -59.3334   -2.3779 C   0  0  0  0  0  0  0  0  0  0  0  0
   -3.4724  -58.7856   -4.0901 S   0  0  0  0  0  0  0  0  0  0  0  0
   -5.3736  -59.3234   -1.2051 C   0  0  0  0  0  0  0  0  0  0  0  0
   -5.2507  -60.5417   -0.9289 O   0  0  0  0  0  0  0  0  0  0  0  0
   -6.6899  -58.7855   -1.2396 N   0  0  0  0  0  0  0  0  0  0  0  0
   -7.7923  -59.3273   -0.4987 C   0  0  1  0  0  0  0  0  0  0  0  0
   -7.8379  -58.6459    0.8660 C   0  0  0  0  0  0  0  0  0  0  0  0
   -6.1404  -58.4998    1.5396 S   0  0  0  0  0  0  0  0  0  0  0  0
   -9.0947  -59.1480   -1.2134 C   0  0  0  0  0  0  0  0  0  0  0  0
   -9.5923  -58.0050   -1.3942 O   0  0  0  0  0  0  0  0  0  0  0  0
   -9.8175  -60.2648   -1.7148 N   0  0  0  0  0  0  0  0  0  0  0  0
  -10.0072  -60.5408   -3.1120 C   0  0  1  0  0  0  0  0  0  0  0  0
   -8.9649  -61.4825   -3.6592 C   0  0  0  0  0  0  0  0  0  0  0  0
   -8.9006  -61.5076   -5.1374 C   0  0  0  0  0  0  0  0  0  0  0  0
   -9.2690  -62.5082   -5.8257 O   0  0  0  0  0  0  0  0  0  0  0  0
  -11.3967  -60.9352   -3.4296 C   0  0  0  0  0  0  0  0  0  0  0  0
  -12.2927  -60.0661   -4.0605 O   0  0  0  0  0  0  0  0  0  0  0  0
   -8.4270  -60.4254   -5.8862 O   0  0  0  0  0  0  0  0  0  0  0  0
  -11.8550  -62.0699   -3.1535 O   0  0  0  0  0  0  0  0  0  0  0  0
  2  3  1  0
  2  1  1  1
  4  3  1  0
  5  6  2  0
  5  2  1  0
  7  5  1  0
  8 11  1  0
  8  7  1  0
  9 10  1  0
  8  9  1  1
 11 13  1  0
 12 11  2  0
 13 14  1  0
 14 18  1  0
 14 15  1  1
 16 15  1  0
 17 16  2  0
 18 21  2  0
 18 19  1  0
 20 16  1  0
M  END
$$$$
