CCD.pdb
     RDKit          3D

 21 20  0  0  1  0  0  0  0  0999 V2000
    8.3604  -15.1535   20.3947 N   0  0  0  0  0  0  0  0  0  0  0  0
    7.6697  -15.5471   21.6039 C   0  0  1  0  0  0  0  0  0  0  0  0
    7.8145  -17.0519   21.7185 C   0  0  0  0  0  0  0  0  0  0  0  0
    6.3359  -17.8405   21.0371 S   0  0  0  0  0  0  0  0  0  0  0  0
    8.3178  -14.9694   22.8177 C   0  0  0  0  0  0  0  0  0  0  0  0
    9.5658  -14.8424   22.8615 O   0  0  0  0  0  0  0  0  0  0  0  0
    7.5726  -14.5463   23.9530 N   0  0  0  0  0  0  0  0  0  0  0  0
    8.1698  -14.0499   25.1591 C   0  0  1  0  0  0  0  0  0  0  0  0
    7.1085  -13.2830   25.9428 C   0  0  0  0  0  0  0  0  0  0  0  0
    7.8183  -12.6888   27.5238 S   0  0  0  0  0  0  0  0  0  0  0  0
    8.7436  -15.1483   25.9979 C   0  0  0  0  0  0  0  0  0  0  0  0
    8.0498  -16.1415   26.3428 O   0  0  0  0  0  0  0  0  0  0  0  0
   10.0956  -15.1088   26.4355 N   0  0  0  0  0  0  0  0  0  0  0  0
   10.6852  -16.0758   27.3195 C   0  0  1  0  0  0  0  0  0  0  0  0
   12.1420  -16.3189   27.0170 C   0  0  0  0  0  0  0  0  0  0  0  0
   12.4103  -16.6469   25.5991 C   0  0  0  0  0  0  0  0  0  0  0  0
   13.3496  -16.1115   24.9345 O   0  0  0  0  0  0  0  0  0  0  0  0
   10.4093  -15.7866   28.7433 C   0  0  0  0  0  0  0  0  0  0  0  0
    9.7411  -14.6281   29.1530 O   0  0  0  0  0  0  0  0  0  0  0  0
   11.6447  -17.5748   24.8858 O   0  0  0  0  0  0  0  0  0  0  0  0
   10.7564  -16.5604   29.6677 O   0  0  0  0  0  0  0  0  0  0  0  0
  2  3  1  0
  2  1  1  6
  4  3  1  0
  5  6  2  0
  5  2  1  0
  7  5  1  0
  8 11  1  0
  8  7  1  0
  9 10  1  0
  8  9  1  1
 11 13  1  0
 12 11  2  0
 13 14  1  0
 14 18  1  0
 14 15  1  1
 16 15  1  0
 17 16  2  0
 18 21  2  0
 18 19  1  0
 20 16  1  0
M  END
$$$$
