CCD.pdb
     RDKit          3D

 21 20  0  0  1  0  0  0  0  0999 V2000
    7.7714  -12.7598   19.4952 N   0  0  0  0  0  0  0  0  0  0  0  0
    7.2801  -13.7311   20.4488 C   0  0  1  0  0  0  0  0  0  0  0  0
    7.4886  -15.0975   19.8261 C   0  0  0  0  0  0  0  0  0  0  0  0
    5.8791  -15.8861   19.5809 S   0  0  0  0  0  0  0  0  0  0  0  0
    8.0815  -13.7167   21.7076 C   0  0  0  0  0  0  0  0  0  0  0  0
    9.3353  -13.6967   21.6523 O   0  0  0  0  0  0  0  0  0  0  0  0
    7.4793  -13.7248   22.9962 N   0  0  0  0  0  0  0  0  0  0  0  0
    8.2182  -13.8335   24.2210 C   0  0  1  0  0  0  0  0  0  0  0  0
    7.3436  -13.3160   25.3595 C   0  0  0  0  0  0  0  0  0  0  0  0
    5.8021  -14.3018   25.4505 S   0  0  0  0  0  0  0  0  0  0  0  0
    8.6516  -15.2392   24.4956 C   0  0  0  0  0  0  0  0  0  0  0  0
    7.9553  -16.2237   24.1313 O   0  0  0  0  0  0  0  0  0  0  0  0
    9.8678  -15.5128   25.1787 N   0  0  0  0  0  0  0  0  0  0  0  0
   10.3819  -16.8341   25.4117 C   0  0  1  0  0  0  0  0  0  0  0  0
   11.7919  -17.0006   24.9049 C   0  0  0  0  0  0  0  0  0  0  0  0
   12.3497  -18.3532   25.1264 C   0  0  0  0  0  0  0  0  0  0  0  0
   12.8809  -19.0391   24.2000 O   0  0  0  0  0  0  0  0  0  0  0  0
   10.1909  -17.2799   26.8088 C   0  0  0  0  0  0  0  0  0  0  0  0
    9.6712  -16.4365   27.7961 O   0  0  0  0  0  0  0  0  0  0  0  0
   12.3320  -18.9763   26.3784 O   0  0  0  0  0  0  0  0  0  0  0  0
   10.4824  -18.4381   27.1924 O   0  0  0  0  0  0  0  0  0  0  0  0
  2  3  1  0
  2  1  1  6
  4  3  1  0
  5  6  2  0
  5  2  1  0
  7  5  1  0
  8 11  1  0
  8  7  1  0
  9 10  1  0
  8  9  1  1
 11 13  1  0
 12 11  2  0
 13 14  1  0
 14 18  1  0
 14 15  1  1
 16 15  1  0
 17 16  2  0
 18 21  2  0
 18 19  1  0
 20 16  1  0
M  END
$$$$
