CCD.pdb
     RDKit          3D

 21 20  0  0  1  0  0  0  0  0999 V2000
    8.2270  -14.3561   19.7324 N   0  0  0  0  0  0  0  0  0  0  0  0
    7.4201  -14.8108   20.8442 C   0  0  1  0  0  0  0  0  0  0  0  0
    7.3343  -16.3202   20.7322 C   0  0  0  0  0  0  0  0  0  0  0  0
    6.2952  -16.7487   19.3148 S   0  0  0  0  0  0  0  0  0  0  0  0
    8.0784  -14.5237   22.1524 C   0  0  0  0  0  0  0  0  0  0  0  0
    9.3303  -14.5406   22.2411 O   0  0  0  0  0  0  0  0  0  0  0  0
    7.3388  -14.2251   23.3301 N   0  0  0  0  0  0  0  0  0  0  0  0
    7.9128  -14.1876   24.6442 C   0  0  1  0  0  0  0  0  0  0  0  0
    6.8889  -13.5833   25.6009 C   0  0  0  0  0  0  0  0  0  0  0  0
    7.7541  -12.7163   26.9633 S   0  0  0  0  0  0  0  0  0  0  0  0
    8.3289  -15.5450   25.1170 C   0  0  0  0  0  0  0  0  0  0  0  0
    7.5299  -16.5188   25.1017 O   0  0  0  0  0  0  0  0  0  0  0  0
    9.6442  -15.7833   25.6009 N   0  0  0  0  0  0  0  0  0  0  0  0
   10.1231  -17.0662   26.0356 C   0  0  1  0  0  0  0  0  0  0  0  0
   11.3576  -17.5028   25.2886 C   0  0  0  0  0  0  0  0  0  0  0  0
   11.9085  -18.7962   25.7508 C   0  0  0  0  0  0  0  0  0  0  0  0
   11.1877  -19.7103   26.2562 O   0  0  0  0  0  0  0  0  0  0  0  0
   10.2493  -17.1571   27.5062 C   0  0  0  0  0  0  0  0  0  0  0  0
   10.4497  -18.3754   28.1635 O   0  0  0  0  0  0  0  0  0  0  0  0
   13.2696  -19.1060   25.6637 O   0  0  0  0  0  0  0  0  0  0  0  0
   10.1845  -16.1503   28.2517 O   0  0  0  0  0  0  0  0  0  0  0  0
  2  3  1  0
  2  1  1  6
  4  3  1  0
  5  6  2  0
  5  2  1  0
  7  5  1  0
  8 11  1  0
  8  7  1  0
  9 10  1  0
  8  9  1  1
 11 13  1  0
 12 11  2  0
 13 14  1  0
 14 18  1  0
 14 15  1  6
 16 15  1  0
 17 16  2  0
 18 21  2  0
 18 19  1  0
 20 16  1  0
M  END
$$$$
