NMT.pdb
     RDKit          3D

 24 23  0  0  1  0  0  0  0  0999 V2000
    7.4595  -12.8827   17.7254 N   0  0  0  0  0  0  0  0  0  0  0  0
    8.0939  -13.9567   18.4095 C   0  0  0  0  0  0  0  0  0  0  0  0
    8.3263  -15.0039   17.7819 O   0  0  0  0  0  0  0  0  0  0  0  0
    8.4421  -13.7669   19.8321 C   0  0  0  0  0  0  0  0  0  0  0  0
    8.4065  -15.0711   20.5853 C   0  0  2  0  0  0  0  0  0  0  0  0
    7.0627  -15.6235   20.5719 N   0  0  0  0  0  0  0  0  0  0  0  0
    8.8421  -14.7708   21.9866 C   0  0  0  0  0  0  0  0  0  0  0  0
   10.0156  -14.3457   22.1321 O   0  0  0  0  0  0  0  0  0  0  0  0
    5.6593  -12.0521   27.2918 C   0  0  0  0  0  0  0  0  0  0  0  0
    7.2752  -11.7136   26.5591 S   0  0  0  0  0  0  0  0  0  0  0  0
    7.3886  -12.6550   25.0068 C   0  0  0  0  0  0  0  0  0  0  0  0
    7.4200  -14.1240   25.2335 C   0  0  0  0  0  0  0  0  0  0  0  0
    8.4816  -14.8200   24.4289 C   0  0  2  0  0  0  0  0  0  0  0  0
    7.9665  -14.9629   23.0619 N   0  0  0  0  0  0  0  0  0  0  0  0
    8.7338  -16.1742   24.9557 C   0  0  0  0  0  0  0  0  0  0  0  0
    7.8234  -17.0451   25.1027 O   0  0  0  0  0  0  0  0  0  0  0  0
   11.9605  -19.7671   25.5188 C   0  0  0  0  0  0  0  0  0  0  0  0
   11.6418  -18.3368   25.1413 C   0  0  1  0  0  0  0  0  0  0  0  0
   11.5526  -18.2062   23.7453 O   0  0  0  0  0  0  0  0  0  0  0  0
   10.3196  -17.9070   25.7416 C   0  0  2  0  0  0  0  0  0  0  0  0
   10.0512  -16.5479   25.3247 N   0  0  0  0  0  0  0  0  0  0  0  0
   10.3681  -17.9893   27.2042 C   0  0  0  0  0  0  0  0  0  0  0  0
   10.0285  -19.1847   27.8239 O   0  0  0  0  0  0  0  0  0  0  0  0
   10.7092  -17.0103   27.9390 O   0  0  0  0  0  0  0  0  0  0  0  0
  1  2  1  0
  2  3  2  0
  4  2  1  0
  5  7  1  0
  5  4  1  0
  5  6  1  1
  7  8  2  0
  9 10  1  0
 10 11  1  0
 11 12  1  0
 13 12  1  1
 14  7  1  0
 14 13  1  0
 15 21  1  0
 15 13  1  0
 16 15  2  0
 18 17  1  6
 18 19  1  0
 20 22  1  0
 20 18  1  0
 20 21  1  1
 22 23  1  0
 24 22  2  0
M  END
$$$$
