NMT.pdb
     RDKit          3D

 24 23  0  0  1  0  0  0  0  0999 V2000
    7.0729  -12.7429   18.4125 N   0  0  0  0  0  0  0  0  0  0  0  0
    8.0421  -13.6820   18.8628 C   0  0  0  0  0  0  0  0  0  0  0  0
    8.4459  -14.5452   18.0651 O   0  0  0  0  0  0  0  0  0  0  0  0
    8.5161  -13.5784   20.2577 C   0  0  0  0  0  0  0  0  0  0  0  0
    8.6160  -14.9344   20.9062 C   0  0  2  0  0  0  0  0  0  0  0  0
    7.3582  -15.6497   20.7735 N   0  0  0  0  0  0  0  0  0  0  0  0
    8.9418  -14.6985   22.3491 C   0  0  0  0  0  0  0  0  0  0  0  0
   10.0460  -14.1512   22.5943 O   0  0  0  0  0  0  0  0  0  0  0  0
    7.2230  -11.4144   27.2990 C   0  0  0  0  0  0  0  0  0  0  0  0
    5.8798  -12.1354   26.3302 S   0  0  0  0  0  0  0  0  0  0  0  0
    6.6255  -13.1192   24.9942 C   0  0  0  0  0  0  0  0  0  0  0  0
    7.1610  -14.4196   25.4764 C   0  0  0  0  0  0  0  0  0  0  0  0
    8.4099  -14.8441   24.7560 C   0  0  2  0  0  0  0  0  0  0  0  0
    8.0440  -15.0781   23.3539 N   0  0  0  0  0  0  0  0  0  0  0  0
    8.9230  -16.1142   25.3023 C   0  0  0  0  0  0  0  0  0  0  0  0
    9.0009  -16.3571   26.5448 O   0  0  0  0  0  0  0  0  0  0  0  0
    8.4762  -19.7571   23.4798 C   0  0  0  0  0  0  0  0  0  0  0  0
    9.8983  -19.4041   23.8578 C   0  0  1  0  0  0  0  0  0  0  0  0
   10.5884  -18.8917   22.7466 O   0  0  0  0  0  0  0  0  0  0  0  0
    9.9168  -18.3555   24.9503 C   0  0  2  0  0  0  0  0  0  0  0  0
    9.3584  -17.1324   24.4163 N   0  0  0  0  0  0  0  0  0  0  0  0
   11.2864  -18.1260   25.4194 C   0  0  0  0  0  0  0  0  0  0  0  0
   11.9523  -19.1486   26.0822 O   0  0  0  0  0  0  0  0  0  0  0  0
   11.8991  -17.0263   25.2472 O   0  0  0  0  0  0  0  0  0  0  0  0
  1  2  1  0
  2  3  2  0
  4  2  1  0
  5  7  1  0
  5  4  1  0
  5  6  1  1
  7  8  2  0
  9 10  1  0
 10 11  1  0
 11 12  1  0
 13 12  1  1
 14  7  1  0
 14 13  1  0
 15 21  1  0
 15 13  1  0
 16 15  2  0
 18 17  1  6
 18 19  1  0
 20 22  1  0
 20 18  1  0
 20 21  1  6
 22 23  1  0
 24 22  2  0
M  END
$$$$
