NMT.pdb
     RDKit          3D

 24 23  0  0  1  0  0  0  0  0999 V2000
    8.3554  -17.1345   18.4070 N   0  0  0  0  0  0  0  0  0  0  0  0
    8.9800  -15.8686   18.5843 C   0  0  0  0  0  0  0  0  0  0  0  0
    9.3538  -15.2460   17.5758 O   0  0  0  0  0  0  0  0  0  0  0  0
    9.1501  -15.3632   19.9615 C   0  0  0  0  0  0  0  0  0  0  0  0
    8.6781  -16.3696   20.9783 C   0  0  2  0  0  0  0  0  0  0  0  0
    7.2359  -16.5268   20.8990 N   0  0  0  0  0  0  0  0  0  0  0  0
    9.0808  -15.8449   22.3223 C   0  0  0  0  0  0  0  0  0  0  0  0
   10.3072  -15.6372   22.5007 O   0  0  0  0  0  0  0  0  0  0  0  0
    7.2573  -11.8483   27.3734 C   0  0  0  0  0  0  0  0  0  0  0  0
    6.2969  -12.0871   25.8624 S   0  0  0  0  0  0  0  0  0  0  0  0
    7.2535  -13.1760   24.7633 C   0  0  0  0  0  0  0  0  0  0  0  0
    7.4587  -14.5300   25.3421 C   0  0  0  0  0  0  0  0  0  0  0  0
    8.5679  -15.2926   24.6737 C   0  0  2  0  0  0  0  0  0  0  0  0
    8.1196  -15.6065   23.3117 N   0  0  0  0  0  0  0  0  0  0  0  0
    8.8173  -16.5696   25.3680 C   0  0  0  0  0  0  0  0  0  0  0  0
    7.9177  -17.4412   25.5675 O   0  0  0  0  0  0  0  0  0  0  0  0
   12.7709  -17.9364   25.6460 C   0  0  0  0  0  0  0  0  0  0  0  0
   11.5240  -18.7908   25.5721 C   0  0  1  0  0  0  0  0  0  0  0  0
   11.7793  -20.0759   26.0791 O   0  0  0  0  0  0  0  0  0  0  0  0
   10.4049  -18.1754   26.3859 C   0  0  2  0  0  0  0  0  0  0  0  0
   10.1194  -16.8634   25.8474 N   0  0  0  0  0  0  0  0  0  0  0  0
   10.7911  -18.0725   27.7961 C   0  0  0  0  0  0  0  0  0  0  0  0
   11.0318  -19.2355   28.5158 O   0  0  0  0  0  0  0  0  0  0  0  0
   10.9174  -16.9601   28.3970 O   0  0  0  0  0  0  0  0  0  0  0  0
  1  2  1  0
  2  3  2  0
  4  2  1  0
  5  7  1  0
  5  4  1  0
  5  6  1  1
  7  8  2  0
  9 10  1  0
 10 11  1  0
 11 12  1  0
 13 12  1  1
 14  7  1  0
 14 13  1  0
 15 21  1  0
 15 13  1  0
 16 15  2  0
 18 17  1  1
 18 19  1  0
 20 22  1  0
 20 18  1  0
 20 21  1  6
 22 23  1  0
 24 22  2  0
M  END
$$$$
