NMT.pdb
     RDKit          3D

 24 23  0  0  1  0  0  0  0  0999 V2000
    8.1831  -17.6108   18.1357 N   0  0  0  0  0  0  0  0  0  0  0  0
    8.7941  -16.3270   18.1859 C   0  0  0  0  0  0  0  0  0  0  0  0
    9.1357  -15.7914   17.1179 O   0  0  0  0  0  0  0  0  0  0  0  0
    8.9890  -15.7002   19.5089 C   0  0  0  0  0  0  0  0  0  0  0  0
    8.5730  -16.6260   20.6222 C   0  0  2  0  0  0  0  0  0  0  0  0
    7.1326  -16.8161   20.6068 N   0  0  0  0  0  0  0  0  0  0  0  0
    9.0089  -15.9825   21.9026 C   0  0  0  0  0  0  0  0  0  0  0  0
   10.2468  -15.8490   22.0721 O   0  0  0  0  0  0  0  0  0  0  0  0
    7.2319  -11.0337   26.4003 C   0  0  0  0  0  0  0  0  0  0  0  0
    6.5658  -12.6608   26.8144 S   0  0  0  0  0  0  0  0  0  0  0  0
    7.7277  -13.9119   26.1871 C   0  0  0  0  0  0  0  0  0  0  0  0
    7.4570  -14.2810   24.7726 C   0  0  0  0  0  0  0  0  0  0  0  0
    8.5275  -15.1522   24.1777 C   0  0  2  0  0  0  0  0  0  0  0  0
    8.0646  -15.5604   22.8459 N   0  0  0  0  0  0  0  0  0  0  0  0
    8.7133  -16.3750   24.9809 C   0  0  0  0  0  0  0  0  0  0  0  0
    7.7942  -17.2274   25.1749 O   0  0  0  0  0  0  0  0  0  0  0  0
   11.7162  -19.8775   26.2780 C   0  0  0  0  0  0  0  0  0  0  0  0
   11.3673  -18.5899   25.5637 C   0  0  1  0  0  0  0  0  0  0  0  0
   11.0066  -18.8505   24.2311 O   0  0  0  0  0  0  0  0  0  0  0  0
   10.2024  -17.9003   26.2424 C   0  0  2  0  0  0  0  0  0  0  0  0
    9.9729  -16.6357   25.5784 N   0  0  0  0  0  0  0  0  0  0  0  0
   10.4904  -17.6830   27.6631 C   0  0  0  0  0  0  0  0  0  0  0  0
   10.1838  -18.6851   28.5742 O   0  0  0  0  0  0  0  0  0  0  0  0
   11.0120  -16.6119   28.1049 O   0  0  0  0  0  0  0  0  0  0  0  0
  1  2  1  0
  2  3  2  0
  4  2  1  0
  5  7  1  0
  5  4  1  0
  5  6  1  1
  7  8  2  0
  9 10  1  0
 10 11  1  0
 11 12  1  0
 13 12  1  1
 14  7  1  0
 14 13  1  0
 15 21  1  0
 15 13  1  0
 16 15  2  0
 18 17  1  1
 18 19  1  0
 20 22  1  0
 20 18  1  0
 20 21  1  6
 22 23  1  0
 24 22  2  0
M  END
$$$$
