NMT.pdb
     RDKit          3D

 24 23  0  0  1  0  0  0  0  0999 V2000
   11.7714  -18.3163   18.3337 N   0  0  0  0  0  0  0  0  0  0  0  0
   10.9490  -17.1712   18.5246 C   0  0  0  0  0  0  0  0  0  0  0  0
   10.2647  -16.7673   17.5691 O   0  0  0  0  0  0  0  0  0  0  0  0
   10.9542  -16.5241   19.8521 C   0  0  0  0  0  0  0  0  0  0  0  0
    9.7151  -16.8689   20.6364 C   0  0  2  0  0  0  0  0  0  0  0  0
    8.5301  -16.4065   19.9343 N   0  0  0  0  0  0  0  0  0  0  0  0
    9.8433  -16.1886   21.9648 C   0  0  0  0  0  0  0  0  0  0  0  0
   11.0084  -16.0431   22.4122 O   0  0  0  0  0  0  0  0  0  0  0  0
    6.6871  -11.5012   27.3193 C   0  0  0  0  0  0  0  0  0  0  0  0
    6.3982  -12.3768   25.7660 S   0  0  0  0  0  0  0  0  0  0  0  0
    7.7410  -13.5851   25.5524 C   0  0  0  0  0  0  0  0  0  0  0  0
    7.7036  -14.2476   24.2219 C   0  0  0  0  0  0  0  0  0  0  0  0
    8.8688  -15.1685   23.9913 C   0  0  2  0  0  0  0  0  0  0  0  0
    8.7065  -15.7469   22.6520 N   0  0  0  0  0  0  0  0  0  0  0  0
    8.8586  -16.2785   24.9622 C   0  0  0  0  0  0  0  0  0  0  0  0
    7.8424  -17.0067   25.1771 O   0  0  0  0  0  0  0  0  0  0  0  0
   10.5066  -19.2821   24.7689 C   0  0  0  0  0  0  0  0  0  0  0  0
   10.9957  -18.7325   26.0912 C   0  0  1  0  0  0  0  0  0  0  0  0
   12.2568  -18.1329   25.9369 O   0  0  0  0  0  0  0  0  0  0  0  0
   10.0376  -17.6875   26.6235 C   0  0  2  0  0  0  0  0  0  0  0  0
   10.0303  -16.5682   25.7070 N   0  0  0  0  0  0  0  0  0  0  0  0
   10.4480  -17.2469   27.9599 C   0  0  0  0  0  0  0  0  0  0  0  0
   10.9071  -15.9474   28.1300 O   0  0  0  0  0  0  0  0  0  0  0  0
   10.4034  -18.0038   28.9794 O   0  0  0  0  0  0  0  0  0  0  0  0
  1  2  1  0
  2  3  2  0
  4  2  1  0
  5  7  1  0
  5  4  1  0
  5  6  1  6
  7  8  2  0
  9 10  1  0
 10 11  1  0
 11 12  1  0
 13 12  1  1
 14  7  1  0
 14 13  1  0
 15 21  1  0
 15 13  1  0
 16 15  2  0
 18 17  1  6
 18 19  1  0
 20 22  1  0
 20 18  1  0
 20 21  1  6
 22 23  1  0
 24 22  2  0
M  END
$$$$
