NMT.pdb
     RDKit          3D

 24 23  0  0  1  0  0  0  0  0999 V2000
    7.2097  -16.5102   18.2497 N   0  0  0  0  0  0  0  0  0  0  0  0
    8.1895  -15.4860   18.1265 C   0  0  0  0  0  0  0  0  0  0  0  0
    8.1789  -14.7756   17.1070 O   0  0  0  0  0  0  0  0  0  0  0  0
    9.1680  -15.3237   19.2208 C   0  0  0  0  0  0  0  0  0  0  0  0
    8.9127  -16.3037   20.3360 C   0  0  2  0  0  0  0  0  0  0  0  0
    7.5469  -16.7951   20.2714 N   0  0  0  0  0  0  0  0  0  0  0  0
    9.1509  -15.5677   21.6187 C   0  0  0  0  0  0  0  0  0  0  0  0
   10.3144  -15.1338   21.8106 O   0  0  0  0  0  0  0  0  0  0  0  0
    6.7446  -11.3443   27.5757 C   0  0  0  0  0  0  0  0  0  0  0  0
    6.1709  -12.2764   26.1388 S   0  0  0  0  0  0  0  0  0  0  0  0
    7.4790  -13.4558   25.6843 C   0  0  0  0  0  0  0  0  0  0  0  0
    7.3042  -13.9975   24.3108 C   0  0  0  0  0  0  0  0  0  0  0  0
    8.4357  -14.8892   23.8826 C   0  0  2  0  0  0  0  0  0  0  0  0
    8.1125  -15.3862   22.5399 N   0  0  0  0  0  0  0  0  0  0  0  0
    8.5490  -16.0567   24.7765 C   0  0  0  0  0  0  0  0  0  0  0  0
    7.6027  -16.8781   24.9727 O   0  0  0  0  0  0  0  0  0  0  0  0
   12.3534  -17.3505   25.2820 C   0  0  0  0  0  0  0  0  0  0  0  0
   11.1437  -18.2582   25.3331 C   0  0  1  0  0  0  0  0  0  0  0  0
   11.4557  -19.4540   26.0012 O   0  0  0  0  0  0  0  0  0  0  0  0
   10.0031  -17.5885   26.0704 C   0  0  2  0  0  0  0  0  0  0  0  0
    9.7660  -16.2965   25.4642 N   0  0  0  0  0  0  0  0  0  0  0  0
   10.3310  -17.4308   27.4903 C   0  0  0  0  0  0  0  0  0  0  0  0
   10.4821  -18.5648   28.2774 O   0  0  0  0  0  0  0  0  0  0  0  0
   10.4850  -16.2958   28.0404 O   0  0  0  0  0  0  0  0  0  0  0  0
  1  2  1  0
  2  3  2  0
  4  2  1  0
  5  7  1  0
  5  4  1  0
  5  6  1  1
  7  8  2  0
  9 10  1  0
 10 11  1  0
 11 12  1  0
 13 12  1  1
 14  7  1  0
 14 13  1  0
 15 21  1  0
 15 13  1  0
 16 15  2  0
 18 17  1  1
 18 19  1  0
 20 22  1  0
 20 18  1  0
 20 21  1  6
 22 23  1  0
 24 22  2  0
M  END
$$$$
