GGA.pdb
     RDKit          3D

 14 13  0  0  1  0  0  0  0  0999 V2000
    1.9920  -19.7115   20.3811 N   0  0  0  0  0  0  0  0  0  0  0  0
    2.4069  -18.9621   21.5505 C   0  0  0  0  0  0  0  0  0  0  0  0
    3.8886  -18.9716   21.6069 C   0  0  0  0  0  0  0  0  0  0  0  0
    4.5688  -19.2854   20.6154 O   0  0  0  0  0  0  0  0  0  0  0  0
    4.5821  -18.6224   22.7961 N   0  0  0  0  0  0  0  0  0  0  0  0
    6.0061  -18.4002   22.8138 C   0  0  0  0  0  0  0  0  0  0  0  0
    6.4459  -17.9849   24.1776 C   0  0  0  0  0  0  0  0  0  0  0  0
    5.8409  -17.0556   24.7722 O   0  0  0  0  0  0  0  0  0  0  0  0
    6.9192  -18.4131   27.1496 C   0  0  0  0  0  0  0  0  0  0  0  0
    7.9867  -18.0668   26.1071 C   0  0  2  0  0  0  0  0  0  0  0  0
    7.5249  -18.5867   24.8551 N   0  0  0  0  0  0  0  0  0  0  0  0
    9.2449  -18.6676   26.5717 C   0  0  0  0  0  0  0  0  0  0  0  0
    9.7996  -19.5376   25.8674 O   0  0  0  0  0  0  0  0  0  0  0  0
    9.8423  -18.3076   27.7616 O   0  0  0  0  0  0  0  0  0  0  0  0
  2  1  1  0
  3  2  1  0
  4  3  2  0
  5  3  1  0
  6  5  1  0
  7  8  2  0
  7  6  1  0
 10  9  1  1
 10 11  1  0
 11  7  1  0
 12 10  1  0
 13 12  2  0
 14 12  1  0
M  END
$$$$
