GGA.pdb
     RDKit          3D

 14 13  0  0  1  0  0  0  0  0999 V2000
    8.4870  -12.9771   18.0881 N   0  0  0  0  0  0  0  0  0  0  0  0
    8.3555  -14.1410   18.9421 C   0  0  0  0  0  0  0  0  0  0  0  0
    7.8260  -13.6972   20.2541 C   0  0  0  0  0  0  0  0  0  0  0  0
    7.8533  -12.5006   20.5882 O   0  0  0  0  0  0  0  0  0  0  0  0
    7.2691  -14.6243   21.1747 N   0  0  0  0  0  0  0  0  0  0  0  0
    6.5753  -14.1981   22.3640 C   0  0  0  0  0  0  0  0  0  0  0  0
    7.5396  -14.0271   23.4896 C   0  0  0  0  0  0  0  0  0  0  0  0
    8.7520  -14.3188   23.3223 O   0  0  0  0  0  0  0  0  0  0  0  0
    7.5218  -12.3822   26.8035 C   0  0  0  0  0  0  0  0  0  0  0  0
    8.1397  -13.3484   25.7881 C   0  0  2  0  0  0  0  0  0  0  0  0
    7.1631  -13.5466   24.7596 N   0  0  0  0  0  0  0  0  0  0  0  0
    8.4851  -14.5733   26.5230 C   0  0  0  0  0  0  0  0  0  0  0  0
    9.4092  -14.5381   27.3629 O   0  0  0  0  0  0  0  0  0  0  0  0
    7.8261  -15.7682   26.3219 O   0  0  0  0  0  0  0  0  0  0  0  0
  2  1  1  0
  3  2  1  0
  4  3  2  0
  5  3  1  0
  6  5  1  0
  7  8  2  0
  7  6  1  0
 10  9  1  1
 10 11  1  0
 11  7  1  0
 12 10  1  0
 13 12  2  0
 14 12  1  0
M  END
$$$$
