GGA.pdb
     RDKit          3D

 14 13  0  0  1  0  0  0  0  0999 V2000
    7.7096  -17.8420   18.1703 N   0  0  0  0  0  0  0  0  0  0  0  0
    6.8291  -16.7857   18.6288 C   0  0  0  0  0  0  0  0  0  0  0  0
    7.6147  -15.5312   18.7163 C   0  0  0  0  0  0  0  0  0  0  0  0
    8.8521  -15.5369   18.6020 O   0  0  0  0  0  0  0  0  0  0  0  0
    6.9804  -14.2792   18.9339 N   0  0  0  0  0  0  0  0  0  0  0  0
    7.7320  -13.0690   19.1528 C   0  0  0  0  0  0  0  0  0  0  0  0
    8.2865  -13.0502   20.5377 C   0  0  0  0  0  0  0  0  0  0  0  0
    9.4401  -12.5912   20.7417 O   0  0  0  0  0  0  0  0  0  0  0  0
    7.0342  -13.5216   23.9743 C   0  0  0  0  0  0  0  0  0  0  0  0
    8.1792  -13.5400   22.9569 C   0  0  2  0  0  0  0  0  0  0  0  0
    7.5771  -13.5278   21.6576 N   0  0  0  0  0  0  0  0  0  0  0  0
    8.9728  -14.7458   23.2323 C   0  0  0  0  0  0  0  0  0  0  0  0
    9.6030  -14.8262   24.3080 O   0  0  0  0  0  0  0  0  0  0  0  0
    9.0507  -15.7996   22.3457 O   0  0  0  0  0  0  0  0  0  0  0  0
  2  1  1  0
  3  2  1  0
  4  3  2  0
  5  3  1  0
  6  5  1  0
  7  8  2  0
  7  6  1  0
 10  9  1  1
 10 11  1  0
 11  7  1  0
 12 10  1  0
 13 12  2  0
 14 12  1  0
M  END
$$$$
