GGA.pdb
     RDKit          3D

 14 13  0  0  1  0  0  0  0  0999 V2000
   -2.8229  -25.6205   27.5621 N   0  0  0  0  0  0  0  0  0  0  0  0
   -4.1072  -25.4809   28.2196 C   0  0  0  0  0  0  0  0  0  0  0  0
   -4.8479  -24.3770   27.5628 C   0  0  0  0  0  0  0  0  0  0  0  0
   -5.0693  -24.3879   26.3401 O   0  0  0  0  0  0  0  0  0  0  0  0
   -5.3301  -23.2683   28.3083 N   0  0  0  0  0  0  0  0  0  0  0  0
   -6.2195  -22.2898   27.7348 C   0  0  0  0  0  0  0  0  0  0  0  0
   -7.5221  -22.2887   28.4622 C   0  0  0  0  0  0  0  0  0  0  0  0
   -8.3455  -21.3578   28.2659 O   0  0  0  0  0  0  0  0  0  0  0  0
   -9.4573  -24.7026   30.4866 C   0  0  0  0  0  0  0  0  0  0  0  0
   -9.1810  -23.2752   30.0045 C   0  0  2  0  0  0  0  0  0  0  0  0
   -7.8933  -23.2931   29.3782 N   0  0  0  0  0  0  0  0  0  0  0  0
   -9.2541  -22.4058   31.1871 C   0  0  0  0  0  0  0  0  0  0  0  0
   -8.1962  -21.9622   31.6818 O   0  0  0  0  0  0  0  0  0  0  0  0
  -10.4511  -22.0572   31.7771 O   0  0  0  0  0  0  0  0  0  0  0  0
  2  1  1  0
  3  2  1  0
  4  3  2  0
  5  3  1  0
  6  5  1  0
  7  8  2  0
  7  6  1  0
 10  9  1  1
 10 11  1  0
 11  7  1  0
 12 10  1  0
 13 12  2  0
 14 12  1  0
M  END
$$$$
