GGA.pdb
     RDKit          3D

 14 13  0  0  1  0  0  0  0  0999 V2000
    4.9467  -20.2380   21.5589 N   0  0  0  0  0  0  0  0  0  0  0  0
    5.2550  -20.0925   22.9678 C   0  0  0  0  0  0  0  0  0  0  0  0
    5.9205  -18.7821   23.1648 C   0  0  0  0  0  0  0  0  0  0  0  0
    6.7399  -18.6074   24.0825 O   0  0  0  0  0  0  0  0  0  0  0  0
    5.6445  -17.6807   22.3115 N   0  0  0  0  0  0  0  0  0  0  0  0
    6.6703  -17.0528   21.5172 C   0  0  0  0  0  0  0  0  0  0  0  0
    7.5318  -16.1901   22.3771 C   0  0  0  0  0  0  0  0  0  0  0  0
    8.6710  -15.8434   21.9704 O   0  0  0  0  0  0  0  0  0  0  0  0
    7.1857  -14.2636   25.5219 C   0  0  0  0  0  0  0  0  0  0  0  0
    8.0383  -14.9852   24.4736 C   0  0  2  0  0  0  0  0  0  0  0  0
    7.1351  -15.7296   23.6483 N   0  0  0  0  0  0  0  0  0  0  0  0
    8.9974  -15.8215   25.2087 C   0  0  0  0  0  0  0  0  0  0  0  0
    8.7672  -17.0430   25.3348 O   0  0  0  0  0  0  0  0  0  0  0  0
   10.1491  -15.3095   25.7690 O   0  0  0  0  0  0  0  0  0  0  0  0
  2  1  1  0
  3  2  1  0
  4  3  2  0
  5  3  1  0
  6  5  1  0
  7  8  2  0
  7  6  1  0
 10  9  1  1
 10 11  1  0
 11  7  1  0
 12 10  1  0
 13 12  2  0
 14 12  1  0
M  END
$$$$
