GGA.pdb
     RDKit          3D

 14 13  0  0  1  0  0  0  0  0999 V2000
    6.2130  -19.3972   20.0826 N   0  0  0  0  0  0  0  0  0  0  0  0
    5.5597  -18.2945   20.7596 C   0  0  0  0  0  0  0  0  0  0  0  0
    6.2654  -17.0422   20.3957 C   0  0  0  0  0  0  0  0  0  0  0  0
    7.3654  -17.0674   19.8181 O   0  0  0  0  0  0  0  0  0  0  0  0
    5.7087  -15.7701   20.6945 N   0  0  0  0  0  0  0  0  0  0  0  0
    6.3701  -14.5418   20.3323 C   0  0  0  0  0  0  0  0  0  0  0  0
    7.4489  -14.2286   21.3142 C   0  0  0  0  0  0  0  0  0  0  0  0
    8.1082  -13.1633   21.1980 O   0  0  0  0  0  0  0  0  0  0  0  0
    8.4329  -13.9284   24.3695 C   0  0  0  0  0  0  0  0  0  0  0  0
    8.9212  -14.8054   23.2124 C   0  0  2  0  0  0  0  0  0  0  0  0
    7.7807  -15.0762   22.3898 N   0  0  0  0  0  0  0  0  0  0  0  0
    9.5190  -16.0063   23.8126 C   0  0  0  0  0  0  0  0  0  0  0  0
    8.8760  -17.0773   23.7988 O   0  0  0  0  0  0  0  0  0  0  0  0
   10.7695  -15.9991   24.3945 O   0  0  0  0  0  0  0  0  0  0  0  0
  2  1  1  0
  3  2  1  0
  4  3  2  0
  5  3  1  0
  6  5  1  0
  7  8  2  0
  7  6  1  0
 10  9  1  1
 10 11  1  0
 11  7  1  0
 12 10  1  0
 13 12  2  0
 14 12  1  0
M  END
$$$$
