GGA.pdb
     RDKit          3D

 14 13  0  0  1  0  0  0  0  0999 V2000
    8.5559  -18.3749   19.7083 N   0  0  0  0  0  0  0  0  0  0  0  0
    7.1493  -18.0865   19.5092 C   0  0  0  0  0  0  0  0  0  0  0  0
    6.8025  -16.8886   20.3113 C   0  0  0  0  0  0  0  0  0  0  0  0
    6.2747  -16.9941   21.4313 O   0  0  0  0  0  0  0  0  0  0  0  0
    7.0617  -15.5785   19.8275 N   0  0  0  0  0  0  0  0  0  0  0  0
    6.8073  -14.4048   20.6245 C   0  0  0  0  0  0  0  0  0  0  0  0
    7.7090  -14.3837   21.8129 C   0  0  0  0  0  0  0  0  0  0  0  0
    8.9531  -14.2883   21.6506 O   0  0  0  0  0  0  0  0  0  0  0  0
    7.3619  -13.5828   25.3441 C   0  0  0  0  0  0  0  0  0  0  0  0
    8.1339  -14.3206   24.2459 C   0  0  2  0  0  0  0  0  0  0  0  0
    7.2379  -14.4665   23.1383 N   0  0  0  0  0  0  0  0  0  0  0  0
    8.5775  -15.5973   24.8229 C   0  0  0  0  0  0  0  0  0  0  0  0
    9.4888  -15.5941   25.6775 O   0  0  0  0  0  0  0  0  0  0  0  0
    8.0251  -16.8070   24.4570 O   0  0  0  0  0  0  0  0  0  0  0  0
  2  1  1  0
  3  2  1  0
  4  3  2  0
  5  3  1  0
  6  5  1  0
  7  8  2  0
  7  6  1  0
 10  9  1  1
 10 11  1  0
 11  7  1  0
 12 10  1  0
 13 12  2  0
 14 12  1  0
M  END
$$$$
