GGA.pdb
     RDKit          3D

 14 13  0  0  1  0  0  0  0  0999 V2000
    6.5291  -17.8041   19.0516 N   0  0  0  0  0  0  0  0  0  0  0  0
    5.8952  -16.5346   19.3480 C   0  0  0  0  0  0  0  0  0  0  0  0
    6.9352  -15.4780   19.3189 C   0  0  0  0  0  0  0  0  0  0  0  0
    8.1431  -15.7646   19.2630 O   0  0  0  0  0  0  0  0  0  0  0  0
    6.5871  -14.1015   19.3541 N   0  0  0  0  0  0  0  0  0  0  0  0
    7.5840  -13.0605   19.3590 C   0  0  0  0  0  0  0  0  0  0  0  0
    8.1402  -12.8863   20.7324 C   0  0  0  0  0  0  0  0  0  0  0  0
    9.2145  -12.2515   20.8945 O   0  0  0  0  0  0  0  0  0  0  0  0
    7.0534  -13.2255   24.2130 C   0  0  0  0  0  0  0  0  0  0  0  0
    8.1634  -13.3300   23.1626 C   0  0  2  0  0  0  0  0  0  0  0  0
    7.5183  -13.4033   21.8862 N   0  0  0  0  0  0  0  0  0  0  0  0
    8.9542  -14.5226   23.4976 C   0  0  0  0  0  0  0  0  0  0  0  0
    9.6276  -14.5296   24.5499 O   0  0  0  0  0  0  0  0  0  0  0  0
    8.9835  -15.6419   22.6923 O   0  0  0  0  0  0  0  0  0  0  0  0
  2  1  1  0
  3  2  1  0
  4  3  2  0
  5  3  1  0
  6  5  1  0
  7  8  2  0
  7  6  1  0
 10  9  1  1
 10 11  1  0
 11  7  1  0
 12 10  1  0
 13 12  2  0
 14 12  1  0
M  END
$$$$
