FFK.pdb
     RDKit          3D

 32 33  0  0  1  0  0  0  0  0999 V2000
   10.7532  -17.7079   20.7272 N   0  0  0  0  0  0  0  0  0  0  0  0
    9.9064  -16.5342   20.8103 C   0  0  1  0  0  0  0  0  0  0  0  0
    8.7702  -16.6485   19.8166 C   0  0  0  0  0  0  0  0  0  0  0  0
    8.0207  -15.3746   19.8310 C   0  0  0  0  0  0  0  0  0  0  0  0
    6.7333  -15.3176   20.3094 C   0  0  0  0  0  0  0  0  0  0  0  0
    6.0132  -14.1207   20.3294 C   0  0  0  0  0  0  0  0  0  0  0  0
    6.6214  -12.9626   19.8514 C   0  0  0  0  0  0  0  0  0  0  0  0
    7.9043  -13.0111   19.3729 C   0  0  0  0  0  0  0  0  0  0  0  0
    8.5881  -14.2068   19.3665 C   0  0  0  0  0  0  0  0  0  0  0  0
    9.4198  -16.4195   22.2024 C   0  0  0  0  0  0  0  0  0  0  0  0
    9.6451  -17.3121   23.0477 O   0  0  0  0  0  0  0  0  0  0  0  0
    8.6833  -15.2642   22.5669 N   0  0  0  0  0  0  0  0  0  0  0  0
    8.5192  -14.9151   23.9483 C   0  0  1  0  0  0  0  0  0  0  0  0
    7.6675  -13.6408   24.0243 C   0  0  0  0  0  0  0  0  0  0  0  0
    7.3851  -13.2655   25.4122 C   0  0  0  0  0  0  0  0  0  0  0  0
    8.4059  -12.9255   26.2687 C   0  0  0  0  0  0  0  0  0  0  0  0
    8.1274  -12.5679   27.5952 C   0  0  0  0  0  0  0  0  0  0  0  0
    6.8390  -12.5511   28.0594 C   0  0  0  0  0  0  0  0  0  0  0  0
    5.8153  -12.8899   27.2079 C   0  0  0  0  0  0  0  0  0  0  0  0
    6.0966  -13.2450   25.8889 C   0  0  0  0  0  0  0  0  0  0  0  0
    7.7889  -15.9552   24.7147 C   0  0  0  0  0  0  0  0  0  0  0  0
    6.6104  -16.2256   24.3649 O   0  0  0  0  0  0  0  0  0  0  0  0
    8.3265  -16.6583   25.8049 N   0  0  0  0  0  0  0  0  0  0  0  0
    7.7569  -17.8955   26.3094 C   0  0  1  0  0  0  0  0  0  0  0  0
    7.7165  -18.9632   25.2367 C   0  0  0  0  0  0  0  0  0  0  0  0
    7.0974  -20.2433   25.6585 C   0  0  0  0  0  0  0  0  0  0  0  0
    6.4026  -21.0455   24.6317 C   0  0  0  0  0  0  0  0  0  0  0  0
    5.7820  -22.3234   25.0661 C   0  0  0  0  0  0  0  0  0  0  0  0
    5.1699  -22.9911   23.9478 N   0  0  0  0  0  0  0  0  0  0  0  0
    8.6236  -18.3587   27.4114 C   0  0  0  0  0  0  0  0  0  0  0  0
    8.1758  -19.2832   28.3337 O   0  0  0  0  0  0  0  0  0  0  0  0
    9.7799  -17.9139   27.5197 O   0  0  0  0  0  0  0  0  0  0  0  0
  2  1  1  1
  3  2  1  0
  3  4  1  0
  4  5  2  0
  5  6  1  0
  7  6  2  0
  8  7  1  0
  9  4  1  0
  9  8  2  0
 10 12  1  0
 10  2  1  0
 11 10  2  0
 13 12  1  0
 13 14  1  6
 15 16  2  0
 15 14  1  0
 17 16  1  0
 18 17  2  0
 19 18  1  0
 19 20  2  0
 20 15  1  0
 21 22  2  0
 21 13  1  0
 23 21  1  0
 24 25  1  6
 24 23  1  0
 26 27  1  0
 26 25  1  0
 27 28  1  0
 28 29  1  0
 30 24  1  0
 31 30  1  0
 32 30  2  0
M  END
$$$$
