FFK.pdb
     RDKit          3D

 32 33  0  0  1  0  0  0  0  0999 V2000
    4.5895  -17.0304   21.3261 N   0  0  0  0  0  0  0  0  0  0  0  0
    4.7835  -17.4720   22.6931 C   0  0  1  0  0  0  0  0  0  0  0  0
    4.8743  -18.9824   22.7377 C   0  0  0  0  0  0  0  0  0  0  0  0
    3.5382  -19.5299   22.4219 C   0  0  0  0  0  0  0  0  0  0  0  0
    2.4918  -19.3918   23.3025 C   0  0  0  0  0  0  0  0  0  0  0  0
    1.2237  -19.9039   23.0172 C   0  0  0  0  0  0  0  0  0  0  0  0
    1.0237  -20.5687   21.8099 C   0  0  0  0  0  0  0  0  0  0  0  0
    2.0616  -20.7106   20.9268 C   0  0  0  0  0  0  0  0  0  0  0  0
    3.3004  -20.1944   21.2372 C   0  0  0  0  0  0  0  0  0  0  0  0
    6.0076  -16.8246   23.2130 C   0  0  0  0  0  0  0  0  0  0  0  0
    7.0364  -16.7163   22.5115 O   0  0  0  0  0  0  0  0  0  0  0  0
    5.9944  -16.3219   24.5386 N   0  0  0  0  0  0  0  0  0  0  0  0
    7.1347  -15.6267   25.0617 C   0  0  1  0  0  0  0  0  0  0  0  0
    6.7719  -15.0847   26.4507 C   0  0  0  0  0  0  0  0  0  0  0  0
    7.8860  -14.3418   27.0453 C   0  0  0  0  0  0  0  0  0  0  0  0
    8.0414  -12.9971   26.8028 C   0  0  0  0  0  0  0  0  0  0  0  0
    9.1102  -12.2935   27.3750 C   0  0  0  0  0  0  0  0  0  0  0  0
   10.0147  -12.9305   28.1823 C   0  0  0  0  0  0  0  0  0  0  0  0
    9.8642  -14.2739   28.4280 C   0  0  0  0  0  0  0  0  0  0  0  0
    8.7994  -14.9703   27.8568 C   0  0  0  0  0  0  0  0  0  0  0  0
    8.3062  -16.5179   25.2509 C   0  0  0  0  0  0  0  0  0  0  0  0
    8.1206  -17.6191   25.8318 O   0  0  0  0  0  0  0  0  0  0  0  0
    9.6090  -16.2135   24.8243 N   0  0  0  0  0  0  0  0  0  0  0  0
   10.6210  -17.2267   24.5812 C   0  0  1  0  0  0  0  0  0  0  0  0
   11.4990  -16.8596   23.4037 C   0  0  0  0  0  0  0  0  0  0  0  0
   12.5519  -17.8532   23.0813 C   0  0  0  0  0  0  0  0  0  0  0  0
   13.3916  -17.6080   21.8916 C   0  0  0  0  0  0  0  0  0  0  0  0
   14.4494  -18.6043   21.5836 C   0  0  0  0  0  0  0  0  0  0  0  0
   15.2257  -18.1794   20.4488 N   0  0  0  0  0  0  0  0  0  0  0  0
   11.4587  -17.3081   25.7942 C   0  0  0  0  0  0  0  0  0  0  0  0
   11.6745  -16.2012   26.5904 O   0  0  0  0  0  0  0  0  0  0  0  0
   11.9843  -18.3891   26.1133 O   0  0  0  0  0  0  0  0  0  0  0  0
  2  1  1  6
  3  2  1  0
  3  4  1  0
  4  5  2  0
  5  6  1  0
  7  6  2  0
  8  7  1  0
  9  4  1  0
  9  8  2  0
 10 12  1  0
 10  2  1  0
 11 10  2  0
 13 12  1  0
 13 14  1  1
 15 16  2  0
 15 14  1  0
 17 16  1  0
 18 17  2  0
 19 18  1  0
 19 20  2  0
 20 15  1  0
 21 22  2  0
 21 13  1  0
 23 21  1  0
 24 25  1  6
 24 23  1  0
 26 27  1  0
 26 25  1  0
 27 28  1  0
 28 29  1  0
 30 24  1  0
 31 30  1  0
 32 30  2  0
M  END
$$$$
