FFK.pdb
     RDKit          3D

 32 33  0  0  1  0  0  0  0  0999 V2000
   10.3856  -17.0690   20.0584 N   0  0  0  0  0  0  0  0  0  0  0  0
    9.5210  -17.4737   21.1493 C   0  0  1  0  0  0  0  0  0  0  0  0
    9.9516  -18.8276   21.6716 C   0  0  0  0  0  0  0  0  0  0  0  0
    9.5431  -19.8492   20.6846 C   0  0  0  0  0  0  0  0  0  0  0  0
    8.2204  -20.1866   20.5230 C   0  0  0  0  0  0  0  0  0  0  0  0
    7.8199  -21.1499   19.5939 C   0  0  0  0  0  0  0  0  0  0  0  0
    8.7900  -21.7784   18.8171 C   0  0  0  0  0  0  0  0  0  0  0  0
   10.1106  -21.4477   18.9721 C   0  0  0  0  0  0  0  0  0  0  0  0
   10.4736  -20.4936   19.8969 C   0  0  0  0  0  0  0  0  0  0  0  0
    9.5831  -16.4280   22.1936 C   0  0  0  0  0  0  0  0  0  0  0  0
   10.6587  -15.8639   22.4886 O   0  0  0  0  0  0  0  0  0  0  0  0
    8.3856  -16.0712   22.8636 N   0  0  0  0  0  0  0  0  0  0  0  0
    8.4086  -15.1070   23.9251 C   0  0  1  0  0  0  0  0  0  0  0  0
    6.9899  -14.5480   24.0977 C   0  0  0  0  0  0  0  0  0  0  0  0
    6.9200  -13.5932   25.2068 C   0  0  0  0  0  0  0  0  0  0  0  0
    7.4137  -12.3173   25.0663 C   0  0  0  0  0  0  0  0  0  0  0  0
    7.3434  -11.4098   26.1324 C   0  0  0  0  0  0  0  0  0  0  0  0
    6.7842  -11.7766   27.3275 C   0  0  0  0  0  0  0  0  0  0  0  0
    6.2895  -13.0501   27.4734 C   0  0  0  0  0  0  0  0  0  0  0  0
    6.3613  -13.9499   26.4102 C   0  0  0  0  0  0  0  0  0  0  0  0
    8.7859  -15.7063   25.2293 C   0  0  0  0  0  0  0  0  0  0  0  0
    8.1534  -16.7240   25.6147 O   0  0  0  0  0  0  0  0  0  0  0  0
    9.8028  -15.2125   26.0623 N   0  0  0  0  0  0  0  0  0  0  0  0
   10.3726  -15.9778   27.1574 C   0  0  1  0  0  0  0  0  0  0  0  0
   11.8433  -16.2566   26.9305 C   0  0  0  0  0  0  0  0  0  0  0  0
   12.1602  -17.6601   26.5701 C   0  0  0  0  0  0  0  0  0  0  0  0
   13.5490  -17.9758   26.1798 C   0  0  0  0  0  0  0  0  0  0  0  0
   13.8608  -19.3888   25.8435 C   0  0  0  0  0  0  0  0  0  0  0  0
   15.2072  -19.5028   25.3483 N   0  0  0  0  0  0  0  0  0  0  0  0
   10.2240  -15.1665   28.3820 C   0  0  0  0  0  0  0  0  0  0  0  0
   10.3994  -13.7973   28.3588 O   0  0  0  0  0  0  0  0  0  0  0  0
    9.9359  -15.7169   29.4593 O   0  0  0  0  0  0  0  0  0  0  0  0
  2  1  1  6
  3  2  1  0
  3  4  1  0
  4  5  2  0
  5  6  1  0
  7  6  2  0
  8  7  1  0
  9  4  1  0
  9  8  2  0
 10 12  1  0
 10  2  1  0
 11 10  2  0
 13 12  1  0
 13 14  1  1
 15 16  2  0
 15 14  1  0
 17 16  1  0
 18 17  2  0
 19 18  1  0
 19 20  2  0
 20 15  1  0
 21 22  2  0
 21 13  1  0
 23 21  1  0
 24 25  1  6
 24 23  1  0
 26 27  1  0
 26 25  1  0
 27 28  1  0
 28 29  1  0
 30 24  1  0
 31 30  1  0
 32 30  2  0
M  END
$$$$
