FFK.pdb
     RDKit          3D

 32 33  0  0  1  0  0  0  0  0999 V2000
    7.0902  -17.3907   26.8986 N   0  0  0  0  0  0  0  0  0  0  0  0
    7.1497  -16.3391   25.9025 C   0  0  1  0  0  0  0  0  0  0  0  0
    8.2295  -15.3438   26.2693 C   0  0  0  0  0  0  0  0  0  0  0  0
    7.5832  -14.0367   26.5109 C   0  0  0  0  0  0  0  0  0  0  0  0
    6.2186  -13.8962   26.4235 C   0  0  0  0  0  0  0  0  0  0  0  0
    5.5941  -12.6672   26.6495 C   0  0  0  0  0  0  0  0  0  0  0  0
    6.3802  -11.5632   26.9704 C   0  0  0  0  0  0  0  0  0  0  0  0
    7.7411  -11.6949   27.0594 C   0  0  0  0  0  0  0  0  0  0  0  0
    8.3269  -12.9204   26.8309 C   0  0  0  0  0  0  0  0  0  0  0  0
    7.3961  -16.9692   24.5872 C   0  0  0  0  0  0  0  0  0  0  0  0
    7.7163  -18.1735   24.4906 O   0  0  0  0  0  0  0  0  0  0  0  0
    7.2612  -16.1734   23.4216 N   0  0  0  0  0  0  0  0  0  0  0  0
    7.3663  -16.7689   22.1211 C   0  0  1  0  0  0  0  0  0  0  0  0
    6.7367  -15.8106   21.1011 C   0  0  0  0  0  0  0  0  0  0  0  0
    7.4989  -14.5639   20.9937 C   0  0  0  0  0  0  0  0  0  0  0  0
    8.1734  -14.2514   19.8367 C   0  0  0  0  0  0  0  0  0  0  0  0
    8.9008  -13.0569   19.7421 C   0  0  0  0  0  0  0  0  0  0  0  0
    8.9521  -12.1838   20.7959 C   0  0  0  0  0  0  0  0  0  0  0  0
    8.2801  -12.4910   21.9543 C   0  0  0  0  0  0  0  0  0  0  0  0
    7.5575  -13.6805   22.0444 C   0  0  0  0  0  0  0  0  0  0  0  0
    8.7752  -16.9664   21.6984 C   0  0  0  0  0  0  0  0  0  0  0  0
    8.9894  -17.6551   20.6669 O   0  0  0  0  0  0  0  0  0  0  0  0
    9.8857  -16.4351   22.3739 N   0  0  0  0  0  0  0  0  0  0  0  0
   11.2498  -16.8620   22.1157 C   0  0  1  0  0  0  0  0  0  0  0  0
   11.9914  -15.8562   21.2610 C   0  0  0  0  0  0  0  0  0  0  0  0
   12.0514  -16.1930   19.8178 C   0  0  0  0  0  0  0  0  0  0  0  0
   13.0086  -15.4492   18.9745 C   0  0  0  0  0  0  0  0  0  0  0  0
   12.9438  -15.6711   17.5071 C   0  0  0  0  0  0  0  0  0  0  0  0
   13.7674  -14.7141   16.8167 N   0  0  0  0  0  0  0  0  0  0  0  0
   11.9288  -16.9709   23.4222 C   0  0  0  0  0  0  0  0  0  0  0  0
   13.1856  -17.5319   23.5310 O   0  0  0  0  0  0  0  0  0  0  0  0
   11.3669  -16.5526   24.4499 O   0  0  0  0  0  0  0  0  0  0  0  0
  2  1  1  1
  3  2  1  0
  3  4  1  0
  4  5  2  0
  5  6  1  0
  7  6  2  0
  8  7  1  0
  9  4  1  0
  9  8  2  0
 10 12  1  0
 10  2  1  0
 11 10  2  0
 13 12  1  0
 13 14  1  6
 15 16  2  0
 15 14  1  0
 17 16  1  0
 18 17  2  0
 19 18  1  0
 19 20  2  0
 20 15  1  0
 21 22  2  0
 21 13  1  0
 23 21  1  0
 24 25  1  6
 24 23  1  0
 26 27  1  0
 26 25  1  0
 27 28  1  0
 28 29  1  0
 30 24  1  0
 31 30  1  0
 32 30  2  0
M  END
$$$$
