FFK.pdb
     RDKit          3D

 32 33  0  0  1  0  0  0  0  0999 V2000
   10.7349  -17.7898   20.9686 N   0  0  0  0  0  0  0  0  0  0  0  0
    9.9309  -16.5837   20.9909 C   0  0  1  0  0  0  0  0  0  0  0  0
    8.9063  -16.6280   19.8775 C   0  0  0  0  0  0  0  0  0  0  0  0
    8.1818  -15.3397   19.8718 C   0  0  0  0  0  0  0  0  0  0  0  0
    6.8749  -15.2621   20.2909 C   0  0  0  0  0  0  0  0  0  0  0  0
    6.1779  -14.0514   20.2913 C   0  0  0  0  0  0  0  0  0  0  0  0
    6.8300  -12.9007   19.8550 C   0  0  0  0  0  0  0  0  0  0  0  0
    8.1325  -12.9697   19.4357 C   0  0  0  0  0  0  0  0  0  0  0  0
    8.7926  -14.1786   19.4473 C   0  0  0  0  0  0  0  0  0  0  0  0
    9.3004  -16.4796   22.3248 C   0  0  0  0  0  0  0  0  0  0  0  0
    9.3484  -17.4220   23.1443 O   0  0  0  0  0  0  0  0  0  0  0  0
    8.6312  -15.2763   22.6630 N   0  0  0  0  0  0  0  0  0  0  0  0
    8.4721  -14.8968   24.0370 C   0  0  1  0  0  0  0  0  0  0  0  0
    7.7045  -13.5688   24.0832 C   0  0  0  0  0  0  0  0  0  0  0  0
    7.5294  -13.0972   25.4593 C   0  0  0  0  0  0  0  0  0  0  0  0
    8.6102  -12.9688   26.2999 C   0  0  0  0  0  0  0  0  0  0  0  0
    8.4342  -12.5173   27.6153 C   0  0  0  0  0  0  0  0  0  0  0  0
    7.1878  -12.1977   28.0842 C   0  0  0  0  0  0  0  0  0  0  0  0
    6.1044  -12.3242   27.2487 C   0  0  0  0  0  0  0  0  0  0  0  0
    6.2838  -12.7736   25.9407 C   0  0  0  0  0  0  0  0  0  0  0  0
    7.6656  -15.8757   24.8074 C   0  0  0  0  0  0  0  0  0  0  0  0
    6.4144  -15.8423   24.6741 O   0  0  0  0  0  0  0  0  0  0  0  0
    8.2066  -16.8375   25.6758 N   0  0  0  0  0  0  0  0  0  0  0  0
    7.3949  -17.8090   26.3880 C   0  0  1  0  0  0  0  0  0  0  0  0
    7.0084  -18.9679   25.4938 C   0  0  0  0  0  0  0  0  0  0  0  0
    8.1524  -19.7027   24.9011 C   0  0  0  0  0  0  0  0  0  0  0  0
    7.8543  -20.8502   24.0208 C   0  0  0  0  0  0  0  0  0  0  0  0
    9.0039  -21.5313   23.3716 C   0  0  0  0  0  0  0  0  0  0  0  0
    8.5562  -22.6866   22.6397 N   0  0  0  0  0  0  0  0  0  0  0  0
    8.2085  -18.3213   27.5085 C   0  0  0  0  0  0  0  0  0  0  0  0
    9.4913  -17.8616   27.7301 O   0  0  0  0  0  0  0  0  0  0  0  0
    7.7390  -19.1831   28.2724 O   0  0  0  0  0  0  0  0  0  0  0  0
  2  1  1  1
  3  2  1  0
  3  4  1  0
  4  5  2  0
  5  6  1  0
  7  6  2  0
  8  7  1  0
  9  4  1  0
  9  8  2  0
 10 12  1  0
 10  2  1  0
 11 10  2  0
 13 12  1  0
 13 14  1  6
 15 16  2  0
 15 14  1  0
 17 16  1  0
 18 17  2  0
 19 18  1  0
 19 20  2  0
 20 15  1  0
 21 22  2  0
 21 13  1  0
 23 21  1  0
 24 25  1  6
 24 23  1  0
 26 27  1  0
 26 25  1  0
 27 28  1  0
 28 29  1  0
 30 24  1  0
 31 30  1  0
 32 30  2  0
M  END
$$$$
