FFK.pdb
     RDKit          3D

 32 33  0  0  1  0  0  0  0  0999 V2000
    5.5434  -18.5277   20.6542 N   0  0  0  0  0  0  0  0  0  0  0  0
    5.0904  -18.2697   22.0069 C   0  0  1  0  0  0  0  0  0  0  0  0
    4.6654  -19.5661   22.6629 C   0  0  0  0  0  0  0  0  0  0  0  0
    3.2006  -19.6950   22.5135 C   0  0  0  0  0  0  0  0  0  0  0  0
    2.6300  -19.8811   21.2769 C   0  0  0  0  0  0  0  0  0  0  0  0
    1.2473  -20.0049   21.1208 C   0  0  0  0  0  0  0  0  0  0  0  0
    0.4350  -19.9369   22.2500 C   0  0  0  0  0  0  0  0  0  0  0  0
    0.9959  -19.7515   23.4862 C   0  0  0  0  0  0  0  0  0  0  0  0
    2.3629  -19.6330   23.6072 C   0  0  0  0  0  0  0  0  0  0  0  0
    6.1927  -17.6096   22.7397 C   0  0  0  0  0  0  0  0  0  0  0  0
    7.3881  -17.7957   22.4259 O   0  0  0  0  0  0  0  0  0  0  0  0
    5.8662  -16.7501   23.8190 N   0  0  0  0  0  0  0  0  0  0  0  0
    6.8842  -15.9630   24.4524 C   0  0  1  0  0  0  0  0  0  0  0  0
    6.2104  -15.0394   25.4762 C   0  0  0  0  0  0  0  0  0  0  0  0
    7.1664  -14.0931   26.0568 C   0  0  0  0  0  0  0  0  0  0  0  0
    7.3540  -14.0314   27.4178 C   0  0  0  0  0  0  0  0  0  0  0  0
    8.2703  -13.1229   27.9656 C   0  0  0  0  0  0  0  0  0  0  0  0
    8.9917  -12.2843   27.1581 C   0  0  0  0  0  0  0  0  0  0  0  0
    8.8083  -12.3417   25.7977 C   0  0  0  0  0  0  0  0  0  0  0  0
    7.8957  -13.2471   25.2567 C   0  0  0  0  0  0  0  0  0  0  0  0
    7.8552  -16.7918   25.2090 C   0  0  0  0  0  0  0  0  0  0  0  0
    7.4057  -17.5616   26.0977 O   0  0  0  0  0  0  0  0  0  0  0  0
    9.2435  -16.7740   24.9987 N   0  0  0  0  0  0  0  0  0  0  0  0
   10.1535  -17.7135   25.6302 C   0  0  1  0  0  0  0  0  0  0  0  0
   11.3808  -17.9531   24.7766 C   0  0  0  0  0  0  0  0  0  0  0  0
   11.2719  -19.0993   23.8415 C   0  0  0  0  0  0  0  0  0  0  0  0
   12.3863  -19.3308   22.9006 C   0  0  0  0  0  0  0  0  0  0  0  0
   12.2363  -20.4379   21.9216 C   0  0  0  0  0  0  0  0  0  0  0  0
   13.3873  -20.5077   21.0607 N   0  0  0  0  0  0  0  0  0  0  0  0
   10.5741  -17.1190   26.9146 C   0  0  0  0  0  0  0  0  0  0  0  0
   10.4302  -15.7679   27.1589 O   0  0  0  0  0  0  0  0  0  0  0  0
   11.0682  -17.8400   27.7993 O   0  0  0  0  0  0  0  0  0  0  0  0
  2  1  1  6
  3  2  1  0
  3  4  1  0
  4  5  2  0
  5  6  1  0
  7  6  2  0
  8  7  1  0
  9  4  1  0
  9  8  2  0
 10 12  1  0
 10  2  1  0
 11 10  2  0
 13 12  1  0
 13 14  1  1
 15 16  2  0
 15 14  1  0
 17 16  1  0
 18 17  2  0
 19 18  1  0
 19 20  2  0
 20 15  1  0
 21 22  2  0
 21 13  1  0
 23 21  1  0
 24 25  1  6
 24 23  1  0
 26 27  1  0
 26 25  1  0
 27 28  1  0
 28 29  1  0
 30 24  1  0
 31 30  1  0
 32 30  2  0
M  END
$$$$
