FFK.pdb
     RDKit          3D

 32 33  0  0  1  0  0  0  0  0999 V2000
    7.4339  -17.4155   21.0006 N   0  0  0  0  0  0  0  0  0  0  0  0
    8.7714  -16.9734   20.6587 C   0  0  1  0  0  0  0  0  0  0  0  0
    8.7129  -16.0159   19.4877 C   0  0  0  0  0  0  0  0  0  0  0  0
    8.1578  -14.7347   19.9725 C   0  0  0  0  0  0  0  0  0  0  0  0
    8.9167  -13.5886   19.9669 C   0  0  0  0  0  0  0  0  0  0  0  0
    8.4051  -12.3707   20.4216 C   0  0  0  0  0  0  0  0  0  0  0  0
    7.0943  -12.3257   20.8900 C   0  0  0  0  0  0  0  0  0  0  0  0
    6.3313  -13.4637   20.8989 C   0  0  0  0  0  0  0  0  0  0  0  0
    6.8647  -14.6493   20.4438 C   0  0  0  0  0  0  0  0  0  0  0  0
    9.3673  -16.3491   21.8599 C   0  0  0  0  0  0  0  0  0  0  0  0
   10.4877  -15.7967   21.8202 O   0  0  0  0  0  0  0  0  0  0  0  0
    8.6362  -16.3882   23.0740 N   0  0  0  0  0  0  0  0  0  0  0  0
    9.2278  -15.9154   24.2920 C   0  0  1  0  0  0  0  0  0  0  0  0
    8.1113  -15.3532   25.1822 C   0  0  0  0  0  0  0  0  0  0  0  0
    8.6495  -14.7635   26.4107 C   0  0  0  0  0  0  0  0  0  0  0  0
    9.0150  -15.5607   27.4701 C   0  0  0  0  0  0  0  0  0  0  0  0
    9.5287  -14.9887   28.6422 C   0  0  0  0  0  0  0  0  0  0  0  0
    9.6749  -13.6315   28.7524 C   0  0  0  0  0  0  0  0  0  0  0  0
    9.3113  -12.8302   27.6971 C   0  0  0  0  0  0  0  0  0  0  0  0
    8.8007  -13.4033   26.5326 C   0  0  0  0  0  0  0  0  0  0  0  0
    9.8773  -17.0012   25.0675 C   0  0  0  0  0  0  0  0  0  0  0  0
    9.1536  -17.9459   25.4776 O   0  0  0  0  0  0  0  0  0  0  0  0
   11.2470  -17.0443   25.3743 N   0  0  0  0  0  0  0  0  0  0  0  0
   11.8986  -18.2170   25.9306 C   0  0  1  0  0  0  0  0  0  0  0  0
   13.1797  -18.5405   25.1914 C   0  0  0  0  0  0  0  0  0  0  0  0
   12.9949  -18.9364   23.7740 C   0  0  0  0  0  0  0  0  0  0  0  0
   14.2035  -19.2071   22.9697 C   0  0  0  0  0  0  0  0  0  0  0  0
   14.0092  -19.5553   21.5387 C   0  0  0  0  0  0  0  0  0  0  0  0
   15.2776  -19.6361   20.8639 N   0  0  0  0  0  0  0  0  0  0  0  0
   12.2239  -17.9105   27.3378 C   0  0  0  0  0  0  0  0  0  0  0  0
   12.6931  -18.8874   28.1929 O   0  0  0  0  0  0  0  0  0  0  0  0
   12.0759  -16.7540   27.7707 O   0  0  0  0  0  0  0  0  0  0  0  0
  2  1  1  1
  3  2  1  0
  3  4  1  0
  4  5  2  0
  5  6  1  0
  7  6  2  0
  8  7  1  0
  9  4  1  0
  9  8  2  0
 10 12  1  0
 10  2  1  0
 11 10  2  0
 13 12  1  0
 13 14  1  1
 15 16  2  0
 15 14  1  0
 17 16  1  0
 18 17  2  0
 19 18  1  0
 19 20  2  0
 20 15  1  0
 21 22  2  0
 21 13  1  0
 23 21  1  0
 24 25  1  6
 24 23  1  0
 26 27  1  0
 26 25  1  0
 27 28  1  0
 28 29  1  0
 30 24  1  0
 31 30  1  0
 32 30  2  0
M  END
$$$$
