FFK.pdb
     RDKit          3D

 32 33  0  0  1  0  0  0  0  0999 V2000
    7.5225  -17.4523   20.6697 N   0  0  0  0  0  0  0  0  0  0  0  0
    8.9017  -17.0112   20.5997 C   0  0  1  0  0  0  0  0  0  0  0  0
    9.1046  -16.1505   19.3711 C   0  0  0  0  0  0  0  0  0  0  0  0
    8.3925  -14.8731   19.5854 C   0  0  0  0  0  0  0  0  0  0  0  0
    7.0196  -14.8298   19.6393 C   0  0  0  0  0  0  0  0  0  0  0  0
    6.3334  -13.6299   19.8416 C   0  0  0  0  0  0  0  0  0  0  0  0
    7.0652  -12.4545   19.9911 C   0  0  0  0  0  0  0  0  0  0  0  0
    8.4339  -12.4892   19.9387 C   0  0  0  0  0  0  0  0  0  0  0  0
    9.0813  -13.6883   19.7379 C   0  0  0  0  0  0  0  0  0  0  0  0
    9.2120  -16.2819   21.8485 C   0  0  0  0  0  0  0  0  0  0  0  0
   10.3322  -15.7613   22.0387 O   0  0  0  0  0  0  0  0  0  0  0  0
    8.2035  -16.1817   22.8400 N   0  0  0  0  0  0  0  0  0  0  0  0
    8.4740  -15.5235   24.0853 C   0  0  1  0  0  0  0  0  0  0  0  0
    7.1602  -14.9294   24.6105 C   0  0  0  0  0  0  0  0  0  0  0  0
    7.3947  -14.0107   25.7275 C   0  0  0  0  0  0  0  0  0  0  0  0
    7.9386  -14.4641   26.9064 C   0  0  0  0  0  0  0  0  0  0  0  0
    8.1595  -13.5789   27.9707 C   0  0  0  0  0  0  0  0  0  0  0  0
    7.8386  -12.2525   27.8553 C   0  0  0  0  0  0  0  0  0  0  0  0
    7.2948  -11.7941   26.6797 C   0  0  0  0  0  0  0  0  0  0  0  0
    7.0767  -12.6782   25.6233 C   0  0  0  0  0  0  0  0  0  0  0  0
    8.9592  -16.4596   25.1295 C   0  0  0  0  0  0  0  0  0  0  0  0
    8.1462  -17.3051   25.5862 O   0  0  0  0  0  0  0  0  0  0  0  0
   10.2666  -16.4645   25.6421 N   0  0  0  0  0  0  0  0  0  0  0  0
   10.8742  -17.6334   26.2538 C   0  0  1  0  0  0  0  0  0  0  0  0
   12.3461  -17.7331   25.9137 C   0  0  0  0  0  0  0  0  0  0  0  0
   13.0657  -18.8396   26.5902 C   0  0  0  0  0  0  0  0  0  0  0  0
   14.4839  -19.0566   26.2405 C   0  0  0  0  0  0  0  0  0  0  0  0
   15.1931  -20.1715   26.9193 C   0  0  0  0  0  0  0  0  0  0  0  0
   15.7461  -21.0802   25.9500 N   0  0  0  0  0  0  0  0  0  0  0  0
   10.7311  -17.4862   27.7160 C   0  0  0  0  0  0  0  0  0  0  0  0
   10.1908  -16.3432   28.2706 O   0  0  0  0  0  0  0  0  0  0  0  0
   11.1012  -18.4028   28.4706 O   0  0  0  0  0  0  0  0  0  0  0  0
  2  1  1  1
  3  2  1  0
  3  4  1  0
  4  5  2  0
  5  6  1  0
  7  6  2  0
  8  7  1  0
  9  4  1  0
  9  8  2  0
 10 12  1  0
 10  2  1  0
 11 10  2  0
 13 12  1  0
 13 14  1  1
 15 16  2  0
 15 14  1  0
 17 16  1  0
 18 17  2  0
 19 18  1  0
 19 20  2  0
 20 15  1  0
 21 22  2  0
 21 13  1  0
 23 21  1  0
 24 25  1  1
 24 23  1  0
 26 27  1  0
 26 25  1  0
 27 28  1  0
 28 29  1  0
 30 24  1  0
 31 30  1  0
 32 30  2  0
M  END
$$$$
