DYT.pdb
     RDKit          3D

 28 28  0  0  1  0  0  0  0  0999 V2000
   23.5639   -2.4912  -18.2454 N   0  0  0  0  0  0  0  0  0  0  0  0
   22.8161   -2.6985  -16.9939 C   0  0  1  0  0  0  0  0  0  0  0  0
   21.7828   -1.6355  -16.8267 C   0  0  0  0  0  0  0  0  0  0  0  0
   22.3080   -0.3027  -16.5265 C   0  0  0  0  0  0  0  0  0  0  0  0
   22.8238    0.0264  -15.4442 O   0  0  0  0  0  0  0  0  0  0  0  0
   22.1808   -4.0598  -17.1226 C   0  0  0  0  0  0  0  0  0  0  0  0
   22.1190   -4.6148  -18.2251 O   0  0  0  0  0  0  0  0  0  0  0  0
   22.2459    0.7124  -17.5048 O   0  0  0  0  0  0  0  0  0  0  0  0
   20.1362  -12.3048  -14.5214 O   0  0  0  0  0  0  0  0  0  0  0  0
   20.5634  -10.9931  -14.6554 C   0  0  0  0  0  0  0  0  0  0  0  0
   20.2469  -10.0089  -13.7114 C   0  0  0  0  0  0  0  0  0  0  0  0
   20.7060   -8.7293  -13.9115 C   0  0  0  0  0  0  0  0  0  0  0  0
   21.4769   -8.3775  -15.0236 C   0  0  0  0  0  0  0  0  0  0  0  0
   21.8885   -7.0019  -15.1810 C   0  0  0  0  0  0  0  0  0  0  0  0
   21.1023   -6.1053  -16.0658 C   0  0  2  0  0  0  0  0  0  0  0  0
   21.6413   -4.7297  -15.9750 N   0  0  0  0  0  0  0  0  0  0  0  0
   19.6867   -6.0040  -15.7156 C   0  0  0  0  0  0  0  0  0  0  0  0
   19.3738   -5.4220  -14.6145 O   0  0  0  0  0  0  0  0  0  0  0  0
   21.7705   -9.3745  -15.9356 C   0  0  0  0  0  0  0  0  0  0  0  0
   21.3239  -10.6630  -15.7597 C   0  0  0  0  0  0  0  0  0  0  0  0
   16.5977   -4.8119  -17.7460 C   0  0  0  0  0  0  0  0  0  0  0  0
   16.2313   -6.1238  -17.0826 C   0  0  1  0  0  0  0  0  0  0  0  0
   16.3512   -7.1428  -18.0303 O   0  0  0  0  0  0  0  0  0  0  0  0
   17.2130   -6.4056  -15.9583 C   0  0  2  0  0  0  0  0  0  0  0  0
   18.5716   -6.4700  -16.4524 N   0  0  0  0  0  0  0  0  0  0  0  0
   16.8204   -7.5413  -15.1375 C   0  0  0  0  0  0  0  0  0  0  0  0
   15.8093   -7.4961  -14.2107 O   0  0  0  0  0  0  0  0  0  0  0  0
   17.4167   -8.6636  -15.2463 O   0  0  0  0  0  0  0  0  0  0  0  0
  2  1  1  6
  2  3  1  0
  4  3  1  0
  4  8  1  0
  5  4  2  0
  6  7  2  0
  6  2  1  0
  9 10  1  0
 10 11  2  0
 11 12  1  0
 13 12  2  0
 13 14  1  0
 15 14  1  1
 15 16  1  0
 16  6  1  0
 17 18  2  0
 17 15  1  0
 19 13  1  0
 20 10  1  0
 20 19  2  0
 22 21  1  6
 22 23  1  0
 24 22  1  0
 24 25  1  6
 25 17  1  0
 26 24  1  0
 27 26  1  0
 28 26  2  0
M  END
$$$$
