DYT.pdb
     RDKit          3D

 28 28  0  0  1  0  0  0  0  0999 V2000
   27.4817  -23.6572  -17.7796 N   0  0  0  0  0  0  0  0  0  0  0  0
   27.2368  -22.2557  -17.4000 C   0  0  1  0  0  0  0  0  0  0  0  0
   26.4022  -21.5781  -18.4343 C   0  0  0  0  0  0  0  0  0  0  0  0
   27.1138  -21.2050  -19.6577 C   0  0  0  0  0  0  0  0  0  0  0  0
   28.2202  -20.6388  -19.6871 O   0  0  0  0  0  0  0  0  0  0  0  0
   26.5198  -22.3145  -16.0749 C   0  0  0  0  0  0  0  0  0  0  0  0
   25.6191  -23.1407  -15.8920 O   0  0  0  0  0  0  0  0  0  0  0  0
   26.5416  -21.4887  -20.9161 O   0  0  0  0  0  0  0  0  0  0  0  0
   24.9626  -20.1667   -7.4728 O   0  0  0  0  0  0  0  0  0  0  0  0
   25.4783  -20.2908   -8.7533 C   0  0  0  0  0  0  0  0  0  0  0  0
   26.0548  -19.2090   -9.4297 C   0  0  0  0  0  0  0  0  0  0  0  0
   26.5453  -19.4080  -10.6977 C   0  0  0  0  0  0  0  0  0  0  0  0
   26.4882  -20.6516  -11.3343 C   0  0  0  0  0  0  0  0  0  0  0  0
   26.9911  -20.7693  -12.6831 C   0  0  0  0  0  0  0  0  0  0  0  0
   26.1637  -21.4521  -13.7098 C   0  0  2  0  0  0  0  0  0  0  0  0
   26.8690  -21.4187  -15.0108 N   0  0  0  0  0  0  0  0  0  0  0  0
   24.8618  -20.8304  -13.9447 C   0  0  0  0  0  0  0  0  0  0  0  0
   24.7869  -19.8880  -14.8138 O   0  0  0  0  0  0  0  0  0  0  0  0
   25.9122  -21.6975  -10.6371 C   0  0  0  0  0  0  0  0  0  0  0  0
   25.4137  -21.5260   -9.3671 C   0  0  0  0  0  0  0  0  0  0  0  0
   22.0834  -22.3781  -15.4962 C   0  0  0  0  0  0  0  0  0  0  0  0
   22.1538  -20.8819  -15.2685 C   0  0  1  0  0  0  0  0  0  0  0  0
   20.9312  -20.3229  -15.6477 O   0  0  0  0  0  0  0  0  0  0  0  0
   22.3584  -20.6116  -13.7879 C   0  0  2  0  0  0  0  0  0  0  0  0
   23.6253  -21.1390  -13.3288 N   0  0  0  0  0  0  0  0  0  0  0  0
   21.2163  -21.0090  -12.9784 C   0  0  0  0  0  0  0  0  0  0  0  0
   19.9342  -20.5765  -13.2081 O   0  0  0  0  0  0  0  0  0  0  0  0
   21.3602  -21.8013  -11.9892 O   0  0  0  0  0  0  0  0  0  0  0  0
  2  1  1  6
  2  3  1  0
  4  3  1  0
  4  8  1  0
  5  4  2  0
  6  7  2  0
  6  2  1  0
  9 10  1  0
 10 11  2  0
 11 12  1  0
 13 12  2  0
 13 14  1  0
 15 14  1  1
 15 16  1  0
 16  6  1  0
 17 18  2  0
 17 15  1  0
 19 13  1  0
 20 10  1  0
 20 19  2  0
 22 21  1  1
 22 23  1  0
 24 22  1  0
 24 25  1  1
 25 17  1  0
 26 24  1  0
 27 26  1  0
 28 26  2  0
M  END
$$$$
