DYT.pdb
     RDKit          3D

 28 28  0  0  1  0  0  0  0  0999 V2000
   16.6006  -13.0524  -15.9080 N   0  0  0  0  0  0  0  0  0  0  0  0
   15.7878  -12.0893  -15.1464 C   0  0  1  0  0  0  0  0  0  0  0  0
   14.8283  -12.8094  -14.2597 C   0  0  0  0  0  0  0  0  0  0  0  0
   13.7362  -13.4929  -14.9542 C   0  0  0  0  0  0  0  0  0  0  0  0
   13.1412  -13.0444  -15.9494 O   0  0  0  0  0  0  0  0  0  0  0  0
   16.7706  -11.2783  -14.3402 C   0  0  0  0  0  0  0  0  0  0  0  0
   17.7583  -11.8228  -13.8347 O   0  0  0  0  0  0  0  0  0  0  0  0
   13.2939  -14.7526  -14.4969 O   0  0  0  0  0  0  0  0  0  0  0  0
   22.2236   -4.6305  -12.4862 O   0  0  0  0  0  0  0  0  0  0  0  0
   21.3271   -5.5948  -12.9190 C   0  0  0  0  0  0  0  0  0  0  0  0
   21.5496   -6.9615  -12.7127 C   0  0  0  0  0  0  0  0  0  0  0  0
   20.6157   -7.8596  -13.1702 C   0  0  0  0  0  0  0  0  0  0  0  0
   19.4531   -7.4557  -13.8336 C   0  0  0  0  0  0  0  0  0  0  0  0
   18.5393   -8.4641  -14.3179 C   0  0  0  0  0  0  0  0  0  0  0  0
   17.5479   -9.0547  -13.3835 C   0  0  2  0  0  0  0  0  0  0  0  0
   16.5776   -9.8704  -14.1480 N   0  0  0  0  0  0  0  0  0  0  0  0
   16.7529   -8.0719  -12.6491 C   0  0  0  0  0  0  0  0  0  0  0  0
   15.7196   -7.5737  -13.2259 O   0  0  0  0  0  0  0  0  0  0  0  0
   19.2657   -6.0985  -14.0202 C   0  0  0  0  0  0  0  0  0  0  0  0
   20.1841   -5.1784  -13.5724 C   0  0  0  0  0  0  0  0  0  0  0  0
   15.4897   -5.4057   -8.6441 C   0  0  0  0  0  0  0  0  0  0  0  0
   16.3981   -6.4635   -9.2369 C   0  0  1  0  0  0  0  0  0  0  0  0
   16.0715   -7.6939   -8.6622 O   0  0  0  0  0  0  0  0  0  0  0  0
   16.1451   -6.5576  -10.7317 C   0  0  2  0  0  0  0  0  0  0  0  0
   16.9690   -7.5802  -11.3395 N   0  0  0  0  0  0  0  0  0  0  0  0
   16.2076   -5.2651  -11.3973 C   0  0  0  0  0  0  0  0  0  0  0  0
   17.3814   -4.6469  -11.7491 O   0  0  0  0  0  0  0  0  0  0  0  0
   15.1417   -4.6297  -11.6927 O   0  0  0  0  0  0  0  0  0  0  0  0
  2  1  1  1
  2  3  1  0
  4  3  1  0
  4  8  1  0
  5  4  2  0
  6  7  2  0
  6  2  1  0
  9 10  1  0
 10 11  2  0
 11 12  1  0
 13 12  2  0
 13 14  1  0
 15 14  1  6
 15 16  1  0
 16  6  1  0
 17 18  2  0
 17 15  1  0
 19 13  1  0
 20 10  1  0
 20 19  2  0
 22 21  1  1
 22 23  1  0
 24 22  1  0
 24 25  1  6
 25 17  1  0
 26 24  1  0
 27 26  1  0
 28 26  2  0
M  END
$$$$
