DYT.pdb
     RDKit          3D

 28 28  0  0  1  0  0  0  0  0999 V2000
   23.4525  -17.3173  -18.5482 N   0  0  0  0  0  0  0  0  0  0  0  0
   24.4732  -18.2401  -18.0240 C   0  0  1  0  0  0  0  0  0  0  0  0
   25.8403  -17.7266  -18.3291 C   0  0  0  0  0  0  0  0  0  0  0  0
   26.2077  -17.7468  -19.7458 C   0  0  0  0  0  0  0  0  0  0  0  0
   27.3335  -17.4594  -20.1881 O   0  0  0  0  0  0  0  0  0  0  0  0
   24.2354  -18.3042  -16.5364 C   0  0  0  0  0  0  0  0  0  0  0  0
   24.9285  -17.6299  -15.7669 O   0  0  0  0  0  0  0  0  0  0  0  0
   25.2484  -18.1124  -20.7139 O   0  0  0  0  0  0  0  0  0  0  0  0
   19.8738  -20.6847   -9.0544 O   0  0  0  0  0  0  0  0  0  0  0  0
   20.2697  -20.3912  -10.3498 C   0  0  0  0  0  0  0  0  0  0  0  0
   20.4133  -21.3849  -11.3255 C   0  0  0  0  0  0  0  0  0  0  0  0
   20.8096  -21.0181  -12.5891 C   0  0  0  0  0  0  0  0  0  0  0  0
   21.0740  -19.6888  -12.9327 C   0  0  0  0  0  0  0  0  0  0  0  0
   21.5236  -19.3901  -14.2725 C   0  0  0  0  0  0  0  0  0  0  0  0
   22.9772  -19.2366  -14.5335 C   0  0  2  0  0  0  0  0  0  0  0  0
   23.2070  -19.1430  -15.9928 N   0  0  0  0  0  0  0  0  0  0  0  0
   23.7935  -20.3577  -14.0713 C   0  0  0  0  0  0  0  0  0  0  0  0
   24.0609  -21.2979  -14.9039 O   0  0  0  0  0  0  0  0  0  0  0  0
   20.9221  -18.7338  -11.9445 C   0  0  0  0  0  0  0  0  0  0  0  0
   20.5266  -19.0733  -10.6721 C   0  0  0  0  0  0  0  0  0  0  0  0
   27.1491  -19.6065  -13.1372 C   0  0  0  0  0  0  0  0  0  0  0  0
   26.6605  -20.9976  -13.4859 C   0  0  1  0  0  0  0  0  0  0  0  0
   27.7104  -21.8954  -13.2793 O   0  0  0  0  0  0  0  0  0  0  0  0
   25.5240  -21.3759  -12.5520 C   0  0  2  0  0  0  0  0  0  0  0  0
   24.3563  -20.5543  -12.7875 N   0  0  0  0  0  0  0  0  0  0  0  0
   25.9371  -21.4430  -11.1583 C   0  0  0  0  0  0  0  0  0  0  0  0
   26.8893  -22.3126  -10.6886 O   0  0  0  0  0  0  0  0  0  0  0  0
   25.4169  -20.6731  -10.2845 O   0  0  0  0  0  0  0  0  0  0  0  0
  2  1  1  6
  2  3  1  0
  4  3  1  0
  4  8  1  0
  5  4  2  0
  6  7  2  0
  6  2  1  0
  9 10  1  0
 10 11  2  0
 11 12  1  0
 13 12  2  0
 13 14  1  0
 15 14  1  6
 15 16  1  0
 16  6  1  0
 17 18  2  0
 17 15  1  0
 19 13  1  0
 20 10  1  0
 20 19  2  0
 22 21  1  1
 22 23  1  0
 24 22  1  0
 24 25  1  1
 25 17  1  0
 26 24  1  0
 27 26  1  0
 28 26  2  0
M  END
$$$$
