DYT.pdb
     RDKit          3D

 28 28  0  0  1  0  0  0  0  0999 V2000
   27.9035  -23.1918  -17.1698 N   0  0  0  0  0  0  0  0  0  0  0  0
   27.9964  -21.8849  -16.4979 C   0  0  1  0  0  0  0  0  0  0  0  0
   27.5427  -20.7987  -17.4145 C   0  0  0  0  0  0  0  0  0  0  0  0
   28.5594  -20.3099  -18.3470 C   0  0  0  0  0  0  0  0  0  0  0  0
   29.2507  -21.0354  -19.0828 O   0  0  0  0  0  0  0  0  0  0  0  0
   27.1010  -21.9864  -15.2890 C   0  0  0  0  0  0  0  0  0  0  0  0
   26.1594  -22.7869  -15.2789 O   0  0  0  0  0  0  0  0  0  0  0  0
   28.8066  -18.9245  -18.4520 O   0  0  0  0  0  0  0  0  0  0  0  0
   24.7913  -20.3867   -6.7081 O   0  0  0  0  0  0  0  0  0  0  0  0
   25.4206  -20.4637   -7.9405 C   0  0  0  0  0  0  0  0  0  0  0  0
   26.6825  -19.9010   -8.1665 C   0  0  0  0  0  0  0  0  0  0  0  0
   27.2440  -20.0173   -9.4152 C   0  0  0  0  0  0  0  0  0  0  0  0
   26.5992  -20.6771  -10.4658 C   0  0  0  0  0  0  0  0  0  0  0  0
   27.2397  -20.7226  -11.7596 C   0  0  0  0  0  0  0  0  0  0  0  0
   26.5076  -21.3057  -12.9124 C   0  0  2  0  0  0  0  0  0  0  0  0
   27.3258  -21.1617  -14.1376 N   0  0  0  0  0  0  0  0  0  0  0  0
   25.2311  -20.6565  -13.2055 C   0  0  0  0  0  0  0  0  0  0  0  0
   25.2499  -19.4476  -13.6380 O   0  0  0  0  0  0  0  0  0  0  0  0
   25.3544  -21.2207  -10.2073 C   0  0  0  0  0  0  0  0  0  0  0  0
   24.7697  -21.1190   -8.9670 C   0  0  0  0  0  0  0  0  0  0  0  0
   23.1853  -20.5563  -15.8014 C   0  0  0  0  0  0  0  0  0  0  0  0
   22.1543  -20.8338  -14.7264 C   0  0  1  0  0  0  0  0  0  0  0  0
   21.8939  -22.2060  -14.7127 O   0  0  0  0  0  0  0  0  0  0  0  0
   22.7276  -20.4476  -13.3739 C   0  0  2  0  0  0  0  0  0  0  0  0
   23.9294  -21.1982  -13.0801 N   0  0  0  0  0  0  0  0  0  0  0  0
   21.7331  -20.4708  -12.3118 C   0  0  0  0  0  0  0  0  0  0  0  0
   20.6144  -19.6759  -12.3002 O   0  0  0  0  0  0  0  0  0  0  0  0
   21.8605  -21.2551  -11.3140 O   0  0  0  0  0  0  0  0  0  0  0  0
  2  1  1  6
  2  3  1  0
  4  3  1  0
  4  8  1  0
  5  4  2  0
  6  7  2  0
  6  2  1  0
  9 10  1  0
 10 11  2  0
 11 12  1  0
 13 12  2  0
 13 14  1  0
 15 14  1  1
 15 16  1  0
 16  6  1  0
 17 18  2  0
 17 15  1  0
 19 13  1  0
 20 10  1  0
 20 19  2  0
 22 21  1  6
 22 23  1  0
 24 22  1  0
 24 25  1  1
 25 17  1  0
 26 24  1  0
 27 26  1  0
 28 26  2  0
M  END
$$$$
