DYT.pdb
     RDKit          3D

 28 28  0  0  1  0  0  0  0  0999 V2000
   22.8873  -10.3555  -17.6707 N   0  0  0  0  0  0  0  0  0  0  0  0
   21.4372  -10.4923  -17.8867 C   0  0  1  0  0  0  0  0  0  0  0  0
   20.9956  -11.8813  -17.5684 C   0  0  0  0  0  0  0  0  0  0  0  0
   21.6083  -12.9290  -18.3865 C   0  0  0  0  0  0  0  0  0  0  0  0
   22.4784  -12.7315  -19.2524 O   0  0  0  0  0  0  0  0  0  0  0  0
   20.7937   -9.4910  -16.9611 C   0  0  0  0  0  0  0  0  0  0  0  0
   19.5625   -9.4292  -16.8720 O   0  0  0  0  0  0  0  0  0  0  0  0
   21.2144  -14.2732  -18.2148 O   0  0  0  0  0  0  0  0  0  0  0  0
   19.2140   -6.1032   -9.0928 O   0  0  0  0  0  0  0  0  0  0  0  0
   19.7648   -6.6153  -10.2569 C   0  0  0  0  0  0  0  0  0  0  0  0
   19.3904   -7.8632  -10.7693 C   0  0  0  0  0  0  0  0  0  0  0  0
   19.9800   -8.3054  -11.9290 C   0  0  0  0  0  0  0  0  0  0  0  0
   20.9395   -7.5531  -12.6133 C   0  0  0  0  0  0  0  0  0  0  0  0
   21.5403   -8.1055  -13.8050 C   0  0  0  0  0  0  0  0  0  0  0  0
   20.9917   -7.7343  -15.1339 C   0  0  2  0  0  0  0  0  0  0  0  0
   21.5941   -8.5994  -16.1731 N   0  0  0  0  0  0  0  0  0  0  0  0
   21.2794   -6.3602  -15.5416 C   0  0  0  0  0  0  0  0  0  0  0  0
   22.4419   -6.0999  -16.0207 O   0  0  0  0  0  0  0  0  0  0  0  0
   21.2855   -6.3256  -12.0789 C   0  0  0  0  0  0  0  0  0  0  0  0
   20.7109   -5.8590  -10.9201 C   0  0  0  0  0  0  0  0  0  0  0  0
   18.4607   -3.2563  -16.4138 C   0  0  0  0  0  0  0  0  0  0  0  0
   19.8343   -3.4293  -17.0291 C   0  0  1  0  0  0  0  0  0  0  0  0
   20.2778   -2.1803  -17.4697 O   0  0  0  0  0  0  0  0  0  0  0  0
   20.7985   -3.9254  -15.9654 C   0  0  2  0  0  0  0  0  0  0  0  0
   20.4200   -5.2369  -15.4852 N   0  0  0  0  0  0  0  0  0  0  0  0
   21.0306   -2.9471  -14.9134 C   0  0  0  0  0  0  0  0  0  0  0  0
   21.6866   -1.7581  -15.1121 O   0  0  0  0  0  0  0  0  0  0  0  0
   20.6219   -3.1573  -13.7235 O   0  0  0  0  0  0  0  0  0  0  0  0
  2  1  1  1
  2  3  1  0
  4  3  1  0
  4  8  1  0
  5  4  2  0
  6  7  2  0
  6  2  1  0
  9 10  1  0
 10 11  2  0
 11 12  1  0
 13 12  2  0
 13 14  1  0
 15 14  1  1
 15 16  1  0
 16  6  1  0
 17 18  2  0
 17 15  1  0
 19 13  1  0
 20 10  1  0
 20 19  2  0
 22 21  1  1
 22 23  1  0
 24 22  1  0
 24 25  1  1
 25 17  1  0
 26 24  1  0
 27 26  1  0
 28 26  2  0
M  END
$$$$
