DYT.pdb
     RDKit          3D

 28 28  0  0  1  0  0  0  0  0999 V2000
   25.3047  -19.9578  -17.3523 N   0  0  0  0  0  0  0  0  0  0  0  0
   25.3030  -20.8728  -16.1986 C   0  0  1  0  0  0  0  0  0  0  0  0
   26.6985  -21.1205  -15.7328 C   0  0  0  0  0  0  0  0  0  0  0  0
   27.5453  -21.8533  -16.6752 C   0  0  0  0  0  0  0  0  0  0  0  0
   28.6082  -21.4211  -17.1539 O   0  0  0  0  0  0  0  0  0  0  0  0
   24.4886  -20.1815  -15.1346 C   0  0  0  0  0  0  0  0  0  0  0  0
   24.7003  -18.9944  -14.8636 O   0  0  0  0  0  0  0  0  0  0  0  0
   27.1681  -23.1456  -17.0984 O   0  0  0  0  0  0  0  0  0  0  0  0
   19.1418  -17.1609  -17.9405 O   0  0  0  0  0  0  0  0  0  0  0  0
   19.6612  -17.9542  -16.9298 C   0  0  0  0  0  0  0  0  0  0  0  0
   19.9845  -19.3009  -17.1347 C   0  0  0  0  0  0  0  0  0  0  0  0
   20.4957  -20.0250  -16.0847 C   0  0  0  0  0  0  0  0  0  0  0  0
   20.7032  -19.4638  -14.8210 C   0  0  0  0  0  0  0  0  0  0  0  0
   21.2083  -20.3023  -13.7589 C   0  0  0  0  0  0  0  0  0  0  0  0
   22.6431  -20.2171  -13.3862 C   0  0  2  0  0  0  0  0  0  0  0  0
   23.4607  -20.8849  -14.4238 N   0  0  0  0  0  0  0  0  0  0  0  0
   22.9781  -20.8784  -12.1263 C   0  0  0  0  0  0  0  0  0  0  0  0
   22.8124  -22.1491  -12.0447 O   0  0  0  0  0  0  0  0  0  0  0  0
   20.3728  -18.1315  -14.6542 C   0  0  0  0  0  0  0  0  0  0  0  0
   19.8599  -17.3839  -15.6880 C   0  0  0  0  0  0  0  0  0  0  0  0
   26.0514  -21.4506  -10.3221 C   0  0  0  0  0  0  0  0  0  0  0  0
   25.1296  -20.9219   -9.2421 C   0  0  1  0  0  0  0  0  0  0  0  0
   25.4193  -19.5703   -9.0416 O   0  0  0  0  0  0  0  0  0  0  0  0
   23.6908  -21.0320   -9.7163 C   0  0  2  0  0  0  0  0  0  0  0  0
   23.4846  -20.2912  -10.9421 N   0  0  0  0  0  0  0  0  0  0  0  0
   22.7265  -20.7343   -8.6680 C   0  0  0  0  0  0  0  0  0  0  0  0
   22.6658  -21.4118   -7.4760 O   0  0  0  0  0  0  0  0  0  0  0  0
   21.8687  -19.8018   -8.8145 O   0  0  0  0  0  0  0  0  0  0  0  0
  2  1  1  6
  2  3  1  0
  4  3  1  0
  4  8  1  0
  5  4  2  0
  6  7  2  0
  6  2  1  0
  9 10  1  0
 10 11  2  0
 11 12  1  0
 13 12  2  0
 13 14  1  0
 15 14  1  6
 15 16  1  0
 16  6  1  0
 17 18  2  0
 17 15  1  0
 19 13  1  0
 20 10  1  0
 20 19  2  0
 22 21  1  6
 22 23  1  0
 24 22  1  0
 24 25  1  6
 25 17  1  0
 26 24  1  0
 27 26  1  0
 28 26  2  0
M  END
$$$$
