DYT.pdb
     RDKit          3D

 28 28  0  0  1  0  0  0  0  0999 V2000
   27.2082  -23.2458  -17.0008 N   0  0  0  0  0  0  0  0  0  0  0  0
   26.9799  -21.8580  -16.5647 C   0  0  1  0  0  0  0  0  0  0  0  0
   26.1860  -21.1182  -17.5884 C   0  0  0  0  0  0  0  0  0  0  0  0
   26.8478  -19.9416  -18.1541 C   0  0  0  0  0  0  0  0  0  0  0  0
   26.9602  -18.8472  -17.5751 O   0  0  0  0  0  0  0  0  0  0  0  0
   26.2271  -21.9614  -15.2624 C   0  0  0  0  0  0  0  0  0  0  0  0
   25.2854  -22.7540  -15.1504 O   0  0  0  0  0  0  0  0  0  0  0  0
   27.4128  -20.0079  -19.4455 O   0  0  0  0  0  0  0  0  0  0  0  0
   24.6824  -20.4250   -6.5443 O   0  0  0  0  0  0  0  0  0  0  0  0
   25.1697  -20.5148   -7.8387 C   0  0  0  0  0  0  0  0  0  0  0  0
   24.5684  -21.3319   -8.8035 C   0  0  0  0  0  0  0  0  0  0  0  0
   25.1079  -21.3698  -10.0667 C   0  0  0  0  0  0  0  0  0  0  0  0
   26.2349  -20.6217  -10.4205 C   0  0  0  0  0  0  0  0  0  0  0  0
   26.7638  -20.7463  -11.7588 C   0  0  0  0  0  0  0  0  0  0  0  0
   25.8898  -21.2690  -12.8394 C   0  0  2  0  0  0  0  0  0  0  0  0
   26.5890  -21.1475  -14.1385 N   0  0  0  0  0  0  0  0  0  0  0  0
   24.6282  -20.5472  -12.9953 C   0  0  0  0  0  0  0  0  0  0  0  0
   24.6316  -19.4586  -13.6762 O   0  0  0  0  0  0  0  0  0  0  0  0
   26.8030  -19.8259   -9.4429 C   0  0  0  0  0  0  0  0  0  0  0  0
   26.2834  -19.7692   -8.1711 C   0  0  0  0  0  0  0  0  0  0  0  0
   21.8877  -21.8273  -14.8874 C   0  0  0  0  0  0  0  0  0  0  0  0
   22.0160  -20.3770  -14.4684 C   0  0  1  0  0  0  0  0  0  0  0  0
   20.8549  -19.7044  -14.8562 O   0  0  0  0  0  0  0  0  0  0  0  0
   22.1226  -20.3025  -12.9550 C   0  0  2  0  0  0  0  0  0  0  0  0
   23.3551  -20.8986  -12.4862 N   0  0  0  0  0  0  0  0  0  0  0  0
   20.9285  -20.7886  -12.2804 C   0  0  0  0  0  0  0  0  0  0  0  0
   19.6667  -20.3090  -12.5282 O   0  0  0  0  0  0  0  0  0  0  0  0
   21.0034  -21.7104  -11.4019 O   0  0  0  0  0  0  0  0  0  0  0  0
  2  1  1  6
  2  3  1  0
  4  3  1  0
  4  8  1  0
  5  4  2  0
  6  7  2  0
  6  2  1  0
  9 10  1  0
 10 11  2  0
 11 12  1  0
 13 12  2  0
 13 14  1  0
 15 14  1  1
 15 16  1  0
 16  6  1  0
 17 18  2  0
 17 15  1  0
 19 13  1  0
 20 10  1  0
 20 19  2  0
 22 21  1  1
 22 23  1  0
 24 22  1  0
 24 25  1  1
 25 17  1  0
 26 24  1  0
 27 26  1  0
 28 26  2  0
M  END
$$$$
