DYT.pdb
     RDKit          3D

 28 28  0  0  1  0  0  0  0  0999 V2000
   18.6787  -14.2048  -18.8987 N   0  0  0  0  0  0  0  0  0  0  0  0
   19.5349  -14.2790  -17.7031 C   0  0  1  0  0  0  0  0  0  0  0  0
   20.4406  -15.4615  -17.7881 C   0  0  0  0  0  0  0  0  0  0  0  0
   19.7689  -16.7610  -17.7399 C   0  0  0  0  0  0  0  0  0  0  0  0
   18.5451  -16.9189  -17.5886 O   0  0  0  0  0  0  0  0  0  0  0  0
   20.3202  -12.9920  -17.6868 C   0  0  0  0  0  0  0  0  0  0  0  0
   21.3001  -12.8715  -16.9433 O   0  0  0  0  0  0  0  0  0  0  0  0
   20.5240  -17.9460  -17.8702 O   0  0  0  0  0  0  0  0  0  0  0  0
   22.6934   -4.8682  -20.7168 O   0  0  0  0  0  0  0  0  0  0  0  0
   22.1470   -6.1276  -20.5268 C   0  0  0  0  0  0  0  0  0  0  0  0
   20.7832   -6.3147  -20.2719 C   0  0  0  0  0  0  0  0  0  0  0  0
   20.3134   -7.5937  -20.0940 C   0  0  0  0  0  0  0  0  0  0  0  0
   21.1496   -8.7125  -20.1587 C   0  0  0  0  0  0  0  0  0  0  0  0
   20.5850  -10.0208  -19.9222 C   0  0  0  0  0  0  0  0  0  0  0  0
   20.7576  -10.6565  -18.5915 C   0  0  2  0  0  0  0  0  0  0  0  0
   19.9463  -11.8931  -18.5289 N   0  0  0  0  0  0  0  0  0  0  0  0
   20.3163   -9.8315  -17.4683 C   0  0  0  0  0  0  0  0  0  0  0  0
   19.0588   -9.7735  -17.2148 O   0  0  0  0  0  0  0  0  0  0  0  0
   22.4907   -8.4908  -20.4121 C   0  0  0  0  0  0  0  0  0  0  0  0
   22.9870   -7.2215  -20.5942 C   0  0  0  0  0  0  0  0  0  0  0  0
   20.2943   -8.0680  -13.0488 C   0  0  0  0  0  0  0  0  0  0  0  0
   20.7723   -8.9777  -14.1621 C   0  0  1  0  0  0  0  0  0  0  0  0
   19.9922  -10.1362  -14.1468 O   0  0  0  0  0  0  0  0  0  0  0  0
   20.5632   -8.2844  -15.4973 C   0  0  2  0  0  0  0  0  0  0  0  0
   21.1131   -9.0645  -16.5850 N   0  0  0  0  0  0  0  0  0  0  0  0
   20.9894   -6.8931  -15.4838 C   0  0  0  0  0  0  0  0  0  0  0  0
   20.1461   -5.8420  -15.2236 O   0  0  0  0  0  0  0  0  0  0  0  0
   22.2028   -6.5787  -15.7202 O   0  0  0  0  0  0  0  0  0  0  0  0
  2  1  1  6
  2  3  1  0
  4  3  1  0
  4  8  1  0
  5  4  2  0
  6  7  2  0
  6  2  1  0
  9 10  1  0
 10 11  2  0
 11 12  1  0
 13 12  2  0
 13 14  1  0
 15 14  1  6
 15 16  1  0
 16  6  1  0
 17 18  2  0
 17 15  1  0
 19 13  1  0
 20 10  1  0
 20 19  2  0
 22 21  1  1
 22 23  1  0
 24 22  1  0
 24 25  1  6
 25 17  1  0
 26 24  1  0
 27 26  1  0
 28 26  2  0
M  END
$$$$
