SVP.pdb
     RDKit          3D

 21 21  0  0  1  0  0  0  0  0999 V2000
   10.3040  -17.5757   21.7810 O   0  0  0  0  0  0  0  0  0  0  0  0
    9.0027  -17.2792   21.4545 C   0  0  0  0  0  0  0  0  0  0  0  0
    8.7391  -15.8008   21.2883 C   0  0  2  0  0  0  0  0  0  0  0  0
    9.6262  -15.3248   20.2491 N   0  0  0  0  0  0  0  0  0  0  0  0
    9.0224  -15.0384   22.5175 C   0  0  0  0  0  0  0  0  0  0  0  0
   10.0926  -14.4522   22.6605 O   0  0  0  0  0  0  0  0  0  0  0  0
    5.9602  -14.5459   25.6254 C   0  0  0  0  0  0  0  0  0  0  0  0
    7.0438  -13.5422   25.3363 C   0  0  1  0  0  0  0  0  0  0  0  0
    7.2977  -12.5872   26.4386 C   0  0  0  0  0  0  0  0  0  0  0  0
    8.2300  -14.2534   24.7728 C   0  0  2  0  0  0  0  0  0  0  0  0
    8.0895  -14.9483   23.5721 N   0  0  0  0  0  0  0  0  0  0  0  0
    8.9881  -15.0056   25.7891 C   0  0  0  0  0  0  0  0  0  0  0  0
    9.0420  -16.2981   25.6772 O   0  0  0  0  0  0  0  0  0  0  0  0
    9.6885  -14.4899   26.9061 N   0  0  0  0  0  0  0  0  0  0  0  0
    9.7637  -13.1391   27.3857 C   0  0  0  0  0  0  0  0  0  0  0  0
   10.2757  -13.2489   28.8144 C   0  0  0  0  0  0  0  0  0  0  0  0
   11.0578  -14.5407   28.8527 C   0  0  0  0  0  0  0  0  0  0  0  0
   10.4927  -15.3794   27.7689 C   0  0  1  0  0  0  0  0  0  0  0  0
    9.6230  -16.4221   28.3712 C   0  0  0  0  0  0  0  0  0  0  0  0
   10.2203  -17.4256   29.0922 O   0  0  0  0  0  0  0  0  0  0  0  0
    8.3872  -16.4081   28.2401 O   0  0  0  0  0  0  0  0  0  0  0  0
  2  1  1  0
  3  4  1  6
  3  2  1  0
  5  6  2  0
  5  3  1  0
  8  7  1  1
  8 10  1  0
  9  8  1  0
 10 11  1  6
 10 12  1  0
 11  5  1  0
 12 14  1  0
 13 12  2  0
 14 15  1  0
 14 18  1  0
 15 16  1  0
 16 17  1  0
 18 17  1  0
 19 20  1  0
 18 19  1  1
 21 19  2  0
M  END
$$$$
