SVP.pdb
     RDKit          3D

 21 21  0  0  1  0  0  0  0  0999 V2000
    9.6846  -20.2304   17.7114 O   0  0  0  0  0  0  0  0  0  0  0  0
    9.6820  -19.3133   18.7346 C   0  0  0  0  0  0  0  0  0  0  0  0
    9.9520  -17.8971   18.2826 C   0  0  2  0  0  0  0  0  0  0  0  0
   11.3215  -17.8527   17.8181 N   0  0  0  0  0  0  0  0  0  0  0  0
    9.8075  -16.9212   19.3777 C   0  0  0  0  0  0  0  0  0  0  0  0
   10.7886  -16.5339   20.0076 O   0  0  0  0  0  0  0  0  0  0  0  0
    6.9033  -13.7636   21.8210 C   0  0  0  0  0  0  0  0  0  0  0  0
    7.3079  -14.3805   20.5092 C   0  0  1  0  0  0  0  0  0  0  0  0
    7.6722  -13.3990   19.4625 C   0  0  0  0  0  0  0  0  0  0  0  0
    8.2809  -15.4835   20.7681 C   0  0  2  0  0  0  0  0  0  0  0  0
    8.5520  -16.3942   19.7477 N   0  0  0  0  0  0  0  0  0  0  0  0
    8.0867  -16.1281   22.0797 C   0  0  0  0  0  0  0  0  0  0  0  0
    7.2943  -17.1548   22.1435 O   0  0  0  0  0  0  0  0  0  0  0  0
    8.6685  -15.7658   23.3185 N   0  0  0  0  0  0  0  0  0  0  0  0
    9.5290  -14.6594   23.6281 C   0  0  0  0  0  0  0  0  0  0  0  0
    9.4827  -14.5275   25.1433 C   0  0  0  0  0  0  0  0  0  0  0  0
    9.1405  -15.9099   25.6473 C   0  0  0  0  0  0  0  0  0  0  0  0
    8.4257  -16.5738   24.5312 C   0  0  1  0  0  0  0  0  0  0  0  0
    6.9728  -16.6010   24.8387 C   0  0  0  0  0  0  0  0  0  0  0  0
    6.5186  -17.5353   25.7355 O   0  0  0  0  0  0  0  0  0  0  0  0
    6.1711  -15.8107   24.3120 O   0  0  0  0  0  0  0  0  0  0  0  0
  2  1  1  0
  3  4  1  1
  3  2  1  0
  5  6  2  0
  5  3  1  0
  8  7  1  1
  8 10  1  0
  9  8  1  0
 10 11  1  6
 10 12  1  0
 11  5  1  0
 12 14  1  0
 13 12  2  0
 14 15  1  0
 14 18  1  0
 15 16  1  0
 16 17  1  0
 18 17  1  0
 19 20  1  0
 18 19  1  1
 21 19  2  0
M  END
$$$$
