SVP.pdb
     RDKit          3D

 21 21  0  0  1  0  0  0  0  0999 V2000
    7.6143  -21.0919   23.5388 O   0  0  0  0  0  0  0  0  0  0  0  0
    7.2819  -19.9262   22.8919 C   0  0  0  0  0  0  0  0  0  0  0  0
    6.2136  -19.1229   23.5964 C   0  0  2  0  0  0  0  0  0  0  0  0
    4.9364  -19.5807   23.0938 N   0  0  0  0  0  0  0  0  0  0  0  0
    6.3237  -17.6792   23.3212 C   0  0  0  0  0  0  0  0  0  0  0  0
    5.5816  -17.1367   22.5060 O   0  0  0  0  0  0  0  0  0  0  0  0
    8.2591  -13.2805   24.4153 C   0  0  0  0  0  0  0  0  0  0  0  0
    7.8045  -14.6256   24.9145 C   0  0  1  0  0  0  0  0  0  0  0  0
    6.7622  -14.5640   25.9639 C   0  0  0  0  0  0  0  0  0  0  0  0
    7.5331  -15.5139   23.7450 C   0  0  2  0  0  0  0  0  0  0  0  0
    7.2740  -16.8649   23.9728 N   0  0  0  0  0  0  0  0  0  0  0  0
    8.4585  -15.2859   22.6203 C   0  0  0  0  0  0  0  0  0  0  0  0
    9.5658  -15.9635   22.5943 O   0  0  0  0  0  0  0  0  0  0  0  0
    8.2951  -14.3987   21.5292 N   0  0  0  0  0  0  0  0  0  0  0  0
    7.2463  -13.4511   21.2791 C   0  0  0  0  0  0  0  0  0  0  0  0
    7.8034  -12.5057   20.2249 C   0  0  0  0  0  0  0  0  0  0  0  0
    8.8405  -13.3142   19.4814 C   0  0  0  0  0  0  0  0  0  0  0  0
    9.2836  -14.3619   20.4319 C   0  0  1  0  0  0  0  0  0  0  0  0
   10.6195  -13.9930   20.9664 C   0  0  0  0  0  0  0  0  0  0  0  0
   11.7071  -14.1296   20.1405 O   0  0  0  0  0  0  0  0  0  0  0  0
   10.7738  -13.5703   22.1248 O   0  0  0  0  0  0  0  0  0  0  0  0
  2  1  1  0
  3  4  1  6
  3  2  1  0
  5  6  2  0
  5  3  1  0
  8  7  1  6
  8 10  1  0
  9  8  1  0
 10 11  1  1
 10 12  1  0
 11  5  1  0
 12 14  1  0
 13 12  2  0
 14 15  1  0
 14 18  1  0
 15 16  1  0
 16 17  1  0
 18 17  1  0
 19 20  1  0
 18 19  1  1
 21 19  2  0
M  END
$$$$
