SVP.pdb
     RDKit          3D

 21 21  0  0  1  0  0  0  0  0999 V2000
   12.7360  -16.9289   23.9760 O   0  0  0  0  0  0  0  0  0  0  0  0
   12.2056  -17.7980   23.0534 C   0  0  0  0  0  0  0  0  0  0  0  0
   11.5431  -17.1115   21.8818 C   0  0  2  0  0  0  0  0  0  0  0  0
   12.5955  -16.7087   20.9743 N   0  0  0  0  0  0  0  0  0  0  0  0
   10.7992  -15.9048   22.2855 C   0  0  0  0  0  0  0  0  0  0  0  0
   11.3385  -14.8010   22.2733 O   0  0  0  0  0  0  0  0  0  0  0  0
    7.7450  -13.9951   21.0119 C   0  0  0  0  0  0  0  0  0  0  0  0
    7.3871  -14.6254   22.3309 C   0  0  1  0  0  0  0  0  0  0  0  0
    6.4085  -15.7316   22.2303 C   0  0  0  0  0  0  0  0  0  0  0  0
    8.6397  -14.8999   23.0965 C   0  0  2  0  0  0  0  0  0  0  0  0
    9.4514  -15.9617   22.6990 N   0  0  0  0  0  0  0  0  0  0  0  0
    8.4494  -14.8348   24.5569 C   0  0  0  0  0  0  0  0  0  0  0  0
    8.8789  -15.8291   25.2731 O   0  0  0  0  0  0  0  0  0  0  0  0
    7.8420  -13.7989   25.3067 N   0  0  0  0  0  0  0  0  0  0  0  0
    7.2288  -12.5852   24.8470 C   0  0  0  0  0  0  0  0  0  0  0  0
    6.3905  -12.0915   26.0171 C   0  0  0  0  0  0  0  0  0  0  0  0
    7.0570  -12.6634   27.2462 C   0  0  0  0  0  0  0  0  0  0  0  0
    7.7783  -13.8721   26.7809 C   0  0  1  0  0  0  0  0  0  0  0  0
    7.0151  -15.0772   27.1952 C   0  0  0  0  0  0  0  0  0  0  0  0
    7.1974  -15.5519   28.4699 O   0  0  0  0  0  0  0  0  0  0  0  0
    6.2280  -15.6568   26.4278 O   0  0  0  0  0  0  0  0  0  0  0  0
  2  1  1  0
  3  4  1  6
  3  2  1  0
  5  6  2  0
  5  3  1  0
  8  7  1  6
  8 10  1  0
  9  8  1  0
 10 11  1  1
 10 12  1  0
 11  5  1  0
 12 14  1  0
 13 12  2  0
 14 15  1  0
 14 18  1  0
 15 16  1  0
 16 17  1  0
 18 17  1  0
 19 20  1  0
 18 19  1  6
 21 19  2  0
M  END
$$$$
