SVP.pdb
     RDKit          3D

 21 21  0  0  1  0  0  0  0  0999 V2000
   13.0927  -17.3860   24.0473 O   0  0  0  0  0  0  0  0  0  0  0  0
   12.1304  -18.0431   23.3193 C   0  0  0  0  0  0  0  0  0  0  0  0
   11.6410  -17.2678   22.1184 C   0  0  2  0  0  0  0  0  0  0  0  0
   12.8111  -16.8417   21.3817 N   0  0  0  0  0  0  0  0  0  0  0  0
   10.8764  -16.0667   22.4991 C   0  0  0  0  0  0  0  0  0  0  0  0
   11.4244  -14.9694   22.5697 O   0  0  0  0  0  0  0  0  0  0  0  0
    6.5282  -13.8883   23.1279 C   0  0  0  0  0  0  0  0  0  0  0  0
    7.4580  -14.7741   22.3431 C   0  0  1  0  0  0  0  0  0  0  0  0
    7.6908  -14.3289   20.9506 C   0  0  0  0  0  0  0  0  0  0  0  0
    8.6674  -15.0659   23.1694 C   0  0  2  0  0  0  0  0  0  0  0  0
    9.4981  -16.1216   22.7959 N   0  0  0  0  0  0  0  0  0  0  0  0
    8.3988  -15.0283   24.6185 C   0  0  0  0  0  0  0  0  0  0  0  0
    8.5712  -16.1204   25.2994 O   0  0  0  0  0  0  0  0  0  0  0  0
    7.9650  -13.9245   25.3916 N   0  0  0  0  0  0  0  0  0  0  0  0
    7.7092  -12.5731   24.9807 C   0  0  0  0  0  0  0  0  0  0  0  0
    6.8770  -11.9647   26.0999 C   0  0  0  0  0  0  0  0  0  0  0  0
    7.2429  -12.7542   27.3348 C   0  0  0  0  0  0  0  0  0  0  0  0
    7.7129  -14.0701   26.8400 C   0  0  1  0  0  0  0  0  0  0  0  0
    6.6472  -15.0791   27.0692 C   0  0  0  0  0  0  0  0  0  0  0  0
    6.6299  -15.7401   28.2718 O   0  0  0  0  0  0  0  0  0  0  0  0
    5.7845  -15.3352   26.2121 O   0  0  0  0  0  0  0  0  0  0  0  0
  2  1  1  0
  3  4  1  1
  3  2  1  0
  5  6  2  0
  5  3  1  0
  8  7  1  1
  8 10  1  0
  9  8  1  0
 10 11  1  6
 10 12  1  0
 11  5  1  0
 12 14  1  0
 13 12  2  0
 14 15  1  0
 14 18  1  0
 15 16  1  0
 16 17  1  0
 18 17  1  0
 19 20  1  0
 18 19  1  6
 21 19  2  0
M  END
$$$$
