SVP.pdb
     RDKit          3D

 21 21  0  0  1  0  0  0  0  0999 V2000
    8.9471  -17.1845   21.9576 O   0  0  0  0  0  0  0  0  0  0  0  0
    8.7936  -16.2695   20.9442 C   0  0  0  0  0  0  0  0  0  0  0  0
    7.8639  -15.1296   21.2896 C   0  0  2  0  0  0  0  0  0  0  0  0
    7.8708  -14.2195   20.1650 N   0  0  0  0  0  0  0  0  0  0  0  0
    8.3060  -14.3866   22.4833 C   0  0  0  0  0  0  0  0  0  0  0  0
    9.2299  -13.5797   22.4145 O   0  0  0  0  0  0  0  0  0  0  0  0
    5.8339  -14.0481   26.0071 C   0  0  0  0  0  0  0  0  0  0  0  0
    6.9865  -13.1459   25.6568 C   0  0  1  0  0  0  0  0  0  0  0  0
    7.4456  -12.2858   26.7708 C   0  0  0  0  0  0  0  0  0  0  0  0
    8.0303  -13.9419   24.9444 C   0  0  2  0  0  0  0  0  0  0  0  0
    7.6963  -14.5659   23.7430 N   0  0  0  0  0  0  0  0  0  0  0  0
    8.8111  -14.8079   25.8464 C   0  0  0  0  0  0  0  0  0  0  0  0
    8.7224  -16.0934   25.6862 O   0  0  0  0  0  0  0  0  0  0  0  0
    9.6733  -14.4120   26.8972 N   0  0  0  0  0  0  0  0  0  0  0  0
    9.8893  -13.1052   27.4505 C   0  0  0  0  0  0  0  0  0  0  0  0
   10.5648  -13.3449   28.7928 C   0  0  0  0  0  0  0  0  0  0  0  0
   11.2652  -14.6755   28.6475 C   0  0  0  0  0  0  0  0  0  0  0  0
   10.5213  -15.4027   27.5915 C   0  0  1  0  0  0  0  0  0  0  0  0
    9.6696  -16.4390   28.2295 C   0  0  0  0  0  0  0  0  0  0  0  0
   10.2849  -17.5448   28.7608 O   0  0  0  0  0  0  0  0  0  0  0  0
    8.4332  -16.3308   28.2929 O   0  0  0  0  0  0  0  0  0  0  0  0
  2  1  1  0
  3  4  1  6
  3  2  1  0
  5  6  2  0
  5  3  1  0
  8  7  1  1
  8 10  1  0
  9  8  1  0
 10 11  1  6
 10 12  1  0
 11  5  1  0
 12 14  1  0
 13 12  2  0
 14 15  1  0
 14 18  1  0
 15 16  1  0
 16 17  1  0
 18 17  1  0
 19 20  1  0
 18 19  1  1
 21 19  2  0
M  END
$$$$
