SVP.pdb
     RDKit          3D

 21 21  0  0  1  0  0  0  0  0999 V2000
   13.9115  -17.5646   21.8204 O   0  0  0  0  0  0  0  0  0  0  0  0
   13.1864  -16.4043   21.6941 C   0  0  0  0  0  0  0  0  0  0  0  0
   11.8056  -16.6099   21.1163 C   0  0  2  0  0  0  0  0  0  0  0  0
   11.9167  -16.4522   19.6824 N   0  0  0  0  0  0  0  0  0  0  0  0
   10.8358  -15.6172   21.6129 C   0  0  0  0  0  0  0  0  0  0  0  0
   10.9435  -14.4302   21.3150 O   0  0  0  0  0  0  0  0  0  0  0  0
    6.9887  -16.8307   22.5211 C   0  0  0  0  0  0  0  0  0  0  0  0
    7.3427  -15.3739   22.3885 C   0  0  1  0  0  0  0  0  0  0  0  0
    6.2953  -14.4471   22.8739 C   0  0  0  0  0  0  0  0  0  0  0  0
    8.7269  -15.1590   22.9065 C   0  0  2  0  0  0  0  0  0  0  0  0
    9.7536  -15.9803   22.4422 N   0  0  0  0  0  0  0  0  0  0  0  0
    8.7710  -14.9494   24.3651 C   0  0  0  0  0  0  0  0  0  0  0  0
    9.3201  -15.8704   25.0974 O   0  0  0  0  0  0  0  0  0  0  0  0
    8.2796  -13.8418   25.0971 N   0  0  0  0  0  0  0  0  0  0  0  0
    7.6092  -12.6649   24.6218 C   0  0  0  0  0  0  0  0  0  0  0  0
    6.9484  -12.0564   25.8500 C   0  0  0  0  0  0  0  0  0  0  0  0
    7.7832  -12.5263   27.0181 C   0  0  0  0  0  0  0  0  0  0  0  0
    8.4277  -13.7822   26.5658 C   0  0  1  0  0  0  0  0  0  0  0  0
    7.7295  -14.9340   27.1920 C   0  0  0  0  0  0  0  0  0  0  0  0
    8.0468  -15.2563   28.4877 O   0  0  0  0  0  0  0  0  0  0  0  0
    6.8784  -15.6023   26.5808 O   0  0  0  0  0  0  0  0  0  0  0  0
  2  1  1  0
  3  4  1  6
  3  2  1  0
  5  6  2  0
  5  3  1  0
  8  7  1  1
  8 10  1  0
  9  8  1  0
 10 11  1  1
 10 12  1  0
 11  5  1  0
 12 14  1  0
 13 12  2  0
 14 15  1  0
 14 18  1  0
 15 16  1  0
 16 17  1  0
 18 17  1  0
 19 20  1  0
 18 19  1  1
 21 19  2  0
M  END
$$$$
