SVP.pdb
     RDKit          3D

 21 21  0  0  1  0  0  0  0  0999 V2000
   10.6757  -17.6590   22.3156 O   0  0  0  0  0  0  0  0  0  0  0  0
   10.3611  -16.8617   21.2418 C   0  0  0  0  0  0  0  0  0  0  0  0
    9.1075  -16.0418   21.4397 C   0  0  2  0  0  0  0  0  0  0  0  0
    8.9582  -15.2039   20.2697 N   0  0  0  0  0  0  0  0  0  0  0  0
    9.1900  -15.1667   22.6228 C   0  0  0  0  0  0  0  0  0  0  0  0
    9.8370  -14.1228   22.5881 O   0  0  0  0  0  0  0  0  0  0  0  0
    6.8549  -13.0850   24.6226 C   0  0  0  0  0  0  0  0  0  0  0  0
    7.3094  -14.1759   25.5544 C   0  0  1  0  0  0  0  0  0  0  0  0
    6.2413  -15.1214   25.9504 C   0  0  0  0  0  0  0  0  0  0  0  0
    8.5757  -14.7693   25.0302 C   0  0  2  0  0  0  0  0  0  0  0  0
    8.5383  -15.4838   23.8334 N   0  0  0  0  0  0  0  0  0  0  0  0
    9.3767  -15.4344   26.0740 C   0  0  0  0  0  0  0  0  0  0  0  0
    9.6378  -16.6982   25.9300 O   0  0  0  0  0  0  0  0  0  0  0  0
    9.9172  -14.8601   27.2497 N   0  0  0  0  0  0  0  0  0  0  0  0
    9.7560  -13.5311   27.7676 C   0  0  0  0  0  0  0  0  0  0  0  0
   10.1853  -13.6142   29.2251 C   0  0  0  0  0  0  0  0  0  0  0  0
   11.1498  -14.7753   29.2845 C   0  0  0  0  0  0  0  0  0  0  0  0
   10.7894  -15.6498   28.1431 C   0  0  1  0  0  0  0  0  0  0  0  0
   10.0504  -16.8315   28.6568 C   0  0  0  0  0  0  0  0  0  0  0  0
   10.7496  -17.7711   29.3721 O   0  0  0  0  0  0  0  0  0  0  0  0
    8.8336  -16.9874   28.4578 O   0  0  0  0  0  0  0  0  0  0  0  0
  2  1  1  0
  3  4  1  6
  3  2  1  0
  5  6  2  0
  5  3  1  0
  8  7  1  6
  8 10  1  0
  9  8  1  0
 10 11  1  6
 10 12  1  0
 11  5  1  0
 12 14  1  0
 13 12  2  0
 14 15  1  0
 14 18  1  0
 15 16  1  0
 16 17  1  0
 18 17  1  0
 19 20  1  0
 18 19  1  1
 21 19  2  0
M  END
$$$$
