SQW.pdb
     RDKit          3D

 30 31  0  0  1  0  0  0  0  0999 V2000
   19.5922  -13.5552  -19.0048 O   0  0  0  0  0  0  0  0  0  0  0  0
   18.4195  -12.8269  -18.7780 C   0  0  0  0  0  0  0  0  0  0  0  0
   18.2905  -11.7166  -19.8157 C   0  0  2  0  0  0  0  0  0  0  0  0
   18.8147  -12.1755  -21.0904 N   0  0  0  0  0  0  0  0  0  0  0  0
   19.0346  -10.5414  -19.3098 C   0  0  0  0  0  0  0  0  0  0  0  0
   20.2289  -10.4017  -19.6801 O   0  0  0  0  0  0  0  0  0  0  0  0
   16.5551   -5.6183  -16.3064 N   0  0  0  0  0  0  0  0  0  0  0  0
   17.9279   -5.2630  -16.3151 C   0  0  0  0  0  0  0  0  0  0  0  0
   18.3077   -4.1597  -15.8946 O   0  0  0  0  0  0  0  0  0  0  0  0
   18.9490   -6.2267  -16.8382 C   0  0  0  0  0  0  0  0  0  0  0  0
   18.2395   -7.4604  -17.2907 C   0  0  0  0  0  0  0  0  0  0  0  0
   19.1553   -8.4229  -17.9491 C   0  0  2  0  0  0  0  0  0  0  0  0
   18.4377   -9.5968  -18.4401 N   0  0  0  0  0  0  0  0  0  0  0  0
   20.2173   -8.8617  -17.0483 C   0  0  0  0  0  0  0  0  0  0  0  0
   20.1173   -9.8255  -16.2796 O   0  0  0  0  0  0  0  0  0  0  0  0
   21.4791   -8.1549  -17.0209 N   0  0  0  0  0  0  0  0  0  0  0  0
   22.5682   -8.6022  -16.1454 C   0  0  1  0  0  0  0  0  0  0  0  0
   23.5433   -9.3677  -17.0126 C   0  0  0  0  0  0  0  0  0  0  0  0
   24.7399   -9.8205  -16.2972 C   0  0  0  0  0  0  0  0  0  0  0  0
   24.7578  -10.4003  -15.0527 C   0  0  0  0  0  0  0  0  0  0  0  0
   26.0449  -10.6620  -14.7702 N   0  0  0  0  0  0  0  0  0  0  0  0
   26.8446  -10.2724  -15.7840 C   0  0  0  0  0  0  0  0  0  0  0  0
   28.2229  -10.3345  -15.9496 C   0  0  0  0  0  0  0  0  0  0  0  0
   28.7983   -9.8633  -17.0879 C   0  0  0  0  0  0  0  0  0  0  0  0
   27.9893   -9.3210  -18.0787 C   0  0  0  0  0  0  0  0  0  0  0  0
   26.6224   -9.2596  -17.9142 C   0  0  0  0  0  0  0  0  0  0  0  0
   26.0343   -9.7361  -16.7616 C   0  0  0  0  0  0  0  0  0  0  0  0
   23.1913   -7.4706  -15.4554 C   0  0  0  0  0  0  0  0  0  0  0  0
   23.6662   -7.5797  -14.1652 O   0  0  0  0  0  0  0  0  0  0  0  0
   23.2996   -6.3684  -16.0487 O   0  0  0  0  0  0  0  0  0  0  0  0
  1  2  1  0
  2  3  1  0
  3  4  1  6
  3  5  1  0
  5  6  2  0
  8  7  1  0
  8  9  2  0
 10 11  1  0
 10  8  1  0
 12 11  1  1
 12 14  1  0
 13  5  1  0
 13 12  1  0
 14 15  2  0
 16 17  1  0
 16 14  1  0
 17 28  1  0
 17 18  1  6
 19 18  1  0
 20 19  2  0
 21 22  1  0
 21 20  1  0
 22 27  2  0
 23 24  2  0
 23 22  1  0
 24 25  1  0
 25 26  2  0
 27 26  1  0
 27 19  1  0
 28 30  2  0
 28 29  1  0
M  END
$$$$
