SQW.pdb
     RDKit          3D

 30 31  0  0  1  0  0  0  0  0999 V2000
   26.0108  -20.3247  -19.2900 O   0  0  0  0  0  0  0  0  0  0  0  0
   26.4490  -19.0077  -19.1157 C   0  0  0  0  0  0  0  0  0  0  0  0
   25.4997  -18.2655  -18.1808 C   0  0  2  0  0  0  0  0  0  0  0  0
   25.2886  -19.0489  -16.9758 N   0  0  0  0  0  0  0  0  0  0  0  0
   24.2342  -18.0387  -18.9142 C   0  0  0  0  0  0  0  0  0  0  0  0
   24.2799  -17.3337  -19.9553 O   0  0  0  0  0  0  0  0  0  0  0  0
   20.8387  -22.0854  -21.1317 N   0  0  0  0  0  0  0  0  0  0  0  0
   19.9367  -21.0141  -21.3542 C   0  0  0  0  0  0  0  0  0  0  0  0
   18.9331  -21.1582  -22.0688 O   0  0  0  0  0  0  0  0  0  0  0  0
   20.1868  -19.6790  -20.7219 C   0  0  0  0  0  0  0  0  0  0  0  0
   21.4335  -19.7742  -19.9053 C   0  0  0  0  0  0  0  0  0  0  0  0
   21.7772  -18.4860  -19.2564 C   0  0  2  0  0  0  0  0  0  0  0  0
   23.0065  -18.5901  -18.4741 N   0  0  0  0  0  0  0  0  0  0  0  0
   20.7030  -18.0149  -18.3869 C   0  0  0  0  0  0  0  0  0  0  0  0
   20.5730  -18.3525  -17.2042 O   0  0  0  0  0  0  0  0  0  0  0  0
   19.7093  -17.0970  -18.8991 N   0  0  0  0  0  0  0  0  0  0  0  0
   18.6495  -16.5787  -18.0267 C   0  0  1  0  0  0  0  0  0  0  0  0
   18.5118  -15.1032  -18.3311 C   0  0  0  0  0  0  0  0  0  0  0  0
   17.1222  -14.6412  -18.3966 C   0  0  0  0  0  0  0  0  0  0  0  0
   16.2530  -14.5637  -17.3365 C   0  0  0  0  0  0  0  0  0  0  0  0
   15.0932  -14.0938  -17.8254 N   0  0  0  0  0  0  0  0  0  0  0  0
   15.1904  -13.8698  -19.1519 C   0  0  0  0  0  0  0  0  0  0  0  0
   14.2703  -13.3942  -20.0783 C   0  0  0  0  0  0  0  0  0  0  0  0
   14.6215  -13.2573  -21.3847 C   0  0  0  0  0  0  0  0  0  0  0  0
   15.9097  -13.5993  -21.7768 C   0  0  0  0  0  0  0  0  0  0  0  0
   16.8219  -14.0710  -20.8578 C   0  0  0  0  0  0  0  0  0  0  0  0
   16.4706  -14.2115  -19.5319 C   0  0  0  0  0  0  0  0  0  0  0  0
   17.3986  -17.3159  -18.2182 C   0  0  0  0  0  0  0  0  0  0  0  0
   16.3891  -17.2886  -17.2789 O   0  0  0  0  0  0  0  0  0  0  0  0
   17.2338  -17.9929  -19.2637 O   0  0  0  0  0  0  0  0  0  0  0  0
  1  2  1  0
  2  3  1  0
  3  4  1  1
  3  5  1  0
  5  6  2  0
  8  7  1  0
  8  9  2  0
 10 11  1  0
 10  8  1  0
 12 11  1  1
 12 14  1  0
 13  5  1  0
 13 12  1  0
 14 15  2  0
 16 17  1  0
 16 14  1  0
 17 28  1  0
 17 18  1  6
 19 18  1  0
 20 19  2  0
 21 22  1  0
 21 20  1  0
 22 27  2  0
 23 24  2  0
 23 22  1  0
 24 25  1  0
 25 26  2  0
 27 26  1  0
 27 19  1  0
 28 30  2  0
 28 29  1  0
M  END
$$$$
