SQW.pdb
     RDKit          3D

 30 31  0  0  1  0  0  0  0  0999 V2000
   26.1970  -16.5541  -14.4746 O   0  0  0  0  0  0  0  0  0  0  0  0
   27.3090  -17.3365  -14.1457 C   0  0  0  0  0  0  0  0  0  0  0  0
   27.7078  -18.1977  -15.3396 C   0  0  2  0  0  0  0  0  0  0  0  0
   27.8476  -17.3624  -16.5199 N   0  0  0  0  0  0  0  0  0  0  0  0
   26.6600  -19.2275  -15.5197 C   0  0  0  0  0  0  0  0  0  0  0  0
   25.7658  -19.0082  -16.3772 O   0  0  0  0  0  0  0  0  0  0  0  0
   27.3226  -25.2002  -15.5247 N   0  0  0  0  0  0  0  0  0  0  0  0
   25.9276  -25.1093  -15.7619 C   0  0  0  0  0  0  0  0  0  0  0  0
   25.2433  -26.1243  -15.9621 O   0  0  0  0  0  0  0  0  0  0  0  0
   25.2542  -23.7709  -15.7737 C   0  0  0  0  0  0  0  0  0  0  0  0
   26.2730  -22.7314  -15.4395 C   0  0  0  0  0  0  0  0  0  0  0  0
   25.6520  -21.4707  -14.9668 C   0  0  2  0  0  0  0  0  0  0  0  0
   26.6504  -20.4240  -14.7628 N   0  0  0  0  0  0  0  0  0  0  0  0
   24.9118  -21.6656  -13.7234 C   0  0  0  0  0  0  0  0  0  0  0  0
   24.0744  -22.5591  -13.5504 O   0  0  0  0  0  0  0  0  0  0  0  0
   25.1408  -20.7827  -12.6007 N   0  0  0  0  0  0  0  0  0  0  0  0
   24.3731  -20.9361  -11.3598 C   0  0  1  0  0  0  0  0  0  0  0  0
   25.0701  -20.1041  -10.3058 C   0  0  0  0  0  0  0  0  0  0  0  0
   26.4341  -20.5506  -10.0080 C   0  0  0  0  0  0  0  0  0  0  0  0
   27.1751  -21.4226  -10.7668 C   0  0  0  0  0  0  0  0  0  0  0  0
   28.3584  -21.5610  -10.1458 N   0  0  0  0  0  0  0  0  0  0  0  0
   28.3990  -20.8127   -9.0244 C   0  0  0  0  0  0  0  0  0  0  0  0
   29.3923  -20.6329   -8.0693 C   0  0  0  0  0  0  0  0  0  0  0  0
   29.1821  -19.8082   -7.0089 C   0  0  0  0  0  0  0  0  0  0  0  0
   27.9633  -19.1509   -6.8961 C   0  0  0  0  0  0  0  0  0  0  0  0
   26.9785  -19.3295   -7.8434 C   0  0  0  0  0  0  0  0  0  0  0  0
   27.1869  -20.1648   -8.9206 C   0  0  0  0  0  0  0  0  0  0  0  0
   22.9735  -20.5502  -11.5521 C   0  0  0  0  0  0  0  0  0  0  0  0
   22.4907  -20.1613  -12.7841 O   0  0  0  0  0  0  0  0  0  0  0  0
   22.1861  -20.5720  -10.5732 O   0  0  0  0  0  0  0  0  0  0  0  0
  1  2  1  0
  2  3  1  0
  3  4  1  6
  3  5  1  0
  5  6  2  0
  8  7  1  0
  8  9  2  0
 10 11  1  0
 10  8  1  0
 12 11  1  1
 12 14  1  0
 13  5  1  0
 13 12  1  0
 14 15  2  0
 16 17  1  0
 16 14  1  0
 17 28  1  0
 17 18  1  1
 19 18  1  0
 20 19  2  0
 21 22  1  0
 21 20  1  0
 22 27  2  0
 23 24  2  0
 23 22  1  0
 24 25  1  0
 25 26  2  0
 27 26  1  0
 27 19  1  0
 28 30  2  0
 28 29  1  0
M  END
$$$$
