SQW.pdb
     RDKit          3D

 30 31  0  0  1  0  0  0  0  0999 V2000
   29.5177  -19.8609  -17.9074 O   0  0  0  0  0  0  0  0  0  0  0  0
   28.8009  -18.8703  -18.5870 C   0  0  0  0  0  0  0  0  0  0  0  0
   29.0009  -17.5231  -17.9004 C   0  0  2  0  0  0  0  0  0  0  0  0
   30.4060  -17.1570  -17.9423 N   0  0  0  0  0  0  0  0  0  0  0  0
   28.5105  -17.6514  -16.5097 C   0  0  0  0  0  0  0  0  0  0  0  0
   29.2143  -17.1534  -15.5933 O   0  0  0  0  0  0  0  0  0  0  0  0
   23.0657  -18.1221  -13.9022 N   0  0  0  0  0  0  0  0  0  0  0  0
   23.3350  -18.3453  -15.2763 C   0  0  0  0  0  0  0  0  0  0  0  0
   22.6053  -19.0767  -15.9627 O   0  0  0  0  0  0  0  0  0  0  0  0
   24.5179  -17.6930  -15.9247 C   0  0  0  0  0  0  0  0  0  0  0  0
   25.5055  -17.3494  -14.8584 C   0  0  0  0  0  0  0  0  0  0  0  0
   26.6848  -18.2480  -14.8774 C   0  0  2  0  0  0  0  0  0  0  0  0
   27.2934  -18.3071  -16.2041 N   0  0  0  0  0  0  0  0  0  0  0  0
   26.3393  -19.6026  -14.4560 C   0  0  0  0  0  0  0  0  0  0  0  0
   25.9253  -20.4804  -15.2226 O   0  0  0  0  0  0  0  0  0  0  0  0
   26.4745  -19.9834  -13.0671 N   0  0  0  0  0  0  0  0  0  0  0  0
   26.2157  -21.3635  -12.6413 C   0  0  1  0  0  0  0  0  0  0  0  0
   27.1309  -21.6409  -11.4690 C   0  0  0  0  0  0  0  0  0  0  0  0
   26.7248  -20.9689  -10.2312 C   0  0  0  0  0  0  0  0  0  0  0  0
   25.4832  -20.4406   -9.9767 C   0  0  0  0  0  0  0  0  0  0  0  0
   25.5335  -19.9230   -8.7380 N   0  0  0  0  0  0  0  0  0  0  0  0
   26.7555  -20.1011   -8.1956 C   0  0  0  0  0  0  0  0  0  0  0  0
   27.2785  -19.7430   -6.9590 C   0  0  0  0  0  0  0  0  0  0  0  0
   28.5677  -20.0424   -6.6475 C   0  0  0  0  0  0  0  0  0  0  0  0
   29.3506  -20.7092   -7.5817 C   0  0  0  0  0  0  0  0  0  0  0  0
   28.8316  -21.0642   -8.8080 C   0  0  0  0  0  0  0  0  0  0  0  0
   27.5248  -20.7629   -9.1285 C   0  0  0  0  0  0  0  0  0  0  0  0
   24.8016  -21.5604  -12.3151 C   0  0  0  0  0  0  0  0  0  0  0  0
   24.2400  -22.8184  -12.2511 O   0  0  0  0  0  0  0  0  0  0  0  0
   24.0751  -20.5612  -12.0860 O   0  0  0  0  0  0  0  0  0  0  0  0
  1  2  1  0
  2  3  1  0
  3  4  1  1
  3  5  1  0
  5  6  2  0
  8  7  1  0
  8  9  2  0
 10 11  1  0
 10  8  1  0
 12 11  1  6
 12 14  1  0
 13  5  1  0
 13 12  1  0
 14 15  2  0
 16 17  1  0
 16 14  1  0
 17 28  1  0
 17 18  1  1
 19 18  1  0
 20 19  2  0
 21 22  1  0
 21 20  1  0
 22 27  2  0
 23 24  2  0
 23 22  1  0
 24 25  1  0
 25 26  2  0
 27 26  1  0
 27 19  1  0
 28 30  2  0
 28 29  1  0
M  END
$$$$
