SQW.pdb
     RDKit          3D

 30 31  0  0  1  0  0  0  0  0999 V2000
   29.3751  -19.9110  -18.0410 O   0  0  0  0  0  0  0  0  0  0  0  0
   28.7085  -18.9199  -18.7693 C   0  0  0  0  0  0  0  0  0  0  0  0
   28.8117  -17.5840  -18.0406 C   0  0  2  0  0  0  0  0  0  0  0  0
   30.1908  -17.1275  -18.0497 N   0  0  0  0  0  0  0  0  0  0  0  0
   28.3115  -17.7853  -16.6622 C   0  0  0  0  0  0  0  0  0  0  0  0
   29.1257  -17.6282  -15.7159 O   0  0  0  0  0  0  0  0  0  0  0  0
   23.4953  -15.9968  -16.4677 N   0  0  0  0  0  0  0  0  0  0  0  0
   23.2206  -17.3865  -16.5301 C   0  0  0  0  0  0  0  0  0  0  0  0
   22.2918  -17.8264  -17.2247 O   0  0  0  0  0  0  0  0  0  0  0  0
   24.0582  -18.3527  -15.7492 C   0  0  0  0  0  0  0  0  0  0  0  0
   25.0734  -17.5750  -14.9781 C   0  0  0  0  0  0  0  0  0  0  0  0
   26.4203  -18.1914  -15.0459 C   0  0  2  0  0  0  0  0  0  0  0  0
   26.9663  -18.1407  -16.4000 N   0  0  0  0  0  0  0  0  0  0  0  0
   26.4027  -19.5803  -14.5959 C   0  0  0  0  0  0  0  0  0  0  0  0
   26.4744  -20.5538  -15.3554 O   0  0  0  0  0  0  0  0  0  0  0  0
   26.2963  -19.8810  -13.1850 N   0  0  0  0  0  0  0  0  0  0  0  0
   26.3656  -21.2669  -12.7083 C   0  0  1  0  0  0  0  0  0  0  0  0
   27.3947  -21.2997  -11.5998 C   0  0  0  0  0  0  0  0  0  0  0  0
   26.8985  -20.7893  -10.3184 C   0  0  0  0  0  0  0  0  0  0  0  0
   25.6203  -20.3534  -10.0706 C   0  0  0  0  0  0  0  0  0  0  0  0
   25.5876  -19.9742   -8.7822 N   0  0  0  0  0  0  0  0  0  0  0  0
   26.7922  -20.1517   -8.2020 C   0  0  0  0  0  0  0  0  0  0  0  0
   27.2398  -19.9076   -6.9093 C   0  0  0  0  0  0  0  0  0  0  0  0
   28.5282  -20.1765   -6.5680 C   0  0  0  0  0  0  0  0  0  0  0  0
   29.3864  -20.6971   -7.5286 C   0  0  0  0  0  0  0  0  0  0  0  0
   28.9422  -20.9390   -8.8105 C   0  0  0  0  0  0  0  0  0  0  0  0
   27.6366  -20.6679   -9.1614 C   0  0  0  0  0  0  0  0  0  0  0  0
   25.0505  -21.7438  -12.2747 C   0  0  0  0  0  0  0  0  0  0  0  0
   24.8048  -23.0803  -12.0391 O   0  0  0  0  0  0  0  0  0  0  0  0
   24.1170  -20.9191  -12.1107 O   0  0  0  0  0  0  0  0  0  0  0  0
  1  2  1  0
  2  3  1  0
  3  4  1  1
  3  5  1  0
  5  6  2  0
  8  7  1  0
  8  9  2  0
 10 11  1  0
 10  8  1  0
 12 11  1  6
 12 14  1  0
 13  5  1  0
 13 12  1  0
 14 15  2  0
 16 17  1  0
 16 14  1  0
 17 28  1  0
 17 18  1  1
 19 18  1  0
 20 19  2  0
 21 22  1  0
 21 20  1  0
 22 27  2  0
 23 24  2  0
 23 22  1  0
 24 25  1  0
 25 26  2  0
 27 26  1  0
 27 19  1  0
 28 30  2  0
 28 29  1  0
M  END
$$$$
