SQW.pdb
     RDKit          3D

 30 31  0  0  1  0  0  0  0  0999 V2000
   26.9523  -23.4157  -16.2682 O   0  0  0  0  0  0  0  0  0  0  0  0
   27.4488  -22.4625  -17.1637 C   0  0  0  0  0  0  0  0  0  0  0  0
   28.7934  -21.9388  -16.6700 C   0  0  2  0  0  0  0  0  0  0  0  0
   29.8011  -22.9766  -16.8038 N   0  0  0  0  0  0  0  0  0  0  0  0
   28.6220  -21.5217  -15.2602 C   0  0  0  0  0  0  0  0  0  0  0  0
   29.3477  -22.0754  -14.3943 O   0  0  0  0  0  0  0  0  0  0  0  0
   26.7374  -15.8434  -13.7166 N   0  0  0  0  0  0  0  0  0  0  0  0
   25.7560  -16.7386  -14.2127 C   0  0  0  0  0  0  0  0  0  0  0  0
   24.6477  -16.3301  -14.5911 O   0  0  0  0  0  0  0  0  0  0  0  0
   26.0483  -18.2062  -14.2873 C   0  0  0  0  0  0  0  0  0  0  0  0
   27.3821  -18.4501  -13.6613 C   0  0  0  0  0  0  0  0  0  0  0  0
   27.7011  -19.8952  -13.5691 C   0  0  2  0  0  0  0  0  0  0  0  0
   27.6800  -20.5345  -14.8824 N   0  0  0  0  0  0  0  0  0  0  0  0
   26.7742  -20.5984  -12.6870 C   0  0  0  0  0  0  0  0  0  0  0  0
   25.6943  -21.0742  -13.0573 O   0  0  0  0  0  0  0  0  0  0  0  0
   27.0990  -20.7715  -11.2882 N   0  0  0  0  0  0  0  0  0  0  0  0
   26.2331  -21.5689  -10.4122 C   0  0  1  0  0  0  0  0  0  0  0  0
   26.9787  -21.7563   -9.1092 C   0  0  0  0  0  0  0  0  0  0  0  0
   26.9221  -20.5896   -8.2237 C   0  0  0  0  0  0  0  0  0  0  0  0
   26.1371  -19.4788   -8.4113 C   0  0  0  0  0  0  0  0  0  0  0  0
   26.3849  -18.6554   -7.3791 N   0  0  0  0  0  0  0  0  0  0  0  0
   27.2947  -19.1978   -6.5440 C   0  0  0  0  0  0  0  0  0  0  0  0
   27.8583  -18.7309   -5.3628 C   0  0  0  0  0  0  0  0  0  0  0  0
   28.7736  -19.4834   -4.6958 C   0  0  0  0  0  0  0  0  0  0  0  0
   29.1348  -20.7215   -5.2123 C   0  0  0  0  0  0  0  0  0  0  0  0
   28.5757  -21.1843   -6.3838 C   0  0  0  0  0  0  0  0  0  0  0  0
   27.6471  -20.4248   -7.0637 C   0  0  0  0  0  0  0  0  0  0  0  0
   24.9288  -20.9279  -10.2315 C   0  0  0  0  0  0  0  0  0  0  0  0
   23.8628  -21.5979   -9.6685 O   0  0  0  0  0  0  0  0  0  0  0  0
   24.7697  -19.7362  -10.5964 O   0  0  0  0  0  0  0  0  0  0  0  0
  1  2  1  0
  2  3  1  0
  3  4  1  1
  3  5  1  0
  5  6  2  0
  8  7  1  0
  8  9  2  0
 10 11  1  0
 10  8  1  0
 12 11  1  6
 12 14  1  0
 13  5  1  0
 13 12  1  0
 14 15  2  0
 16 17  1  0
 16 14  1  0
 17 28  1  0
 17 18  1  1
 19 18  1  0
 20 19  2  0
 21 22  1  0
 21 20  1  0
 22 27  2  0
 23 24  2  0
 23 22  1  0
 24 25  1  0
 25 26  2  0
 27 26  1  0
 27 19  1  0
 28 30  2  0
 28 29  1  0
M  END
$$$$
