SQW.pdb
     RDKit          3D

 30 31  0  0  1  0  0  0  0  0999 V2000
   24.8025  -11.2864  -20.2091 O   0  0  0  0  0  0  0  0  0  0  0  0
   24.2241  -10.1317  -19.6714 C   0  0  0  0  0  0  0  0  0  0  0  0
   22.9591   -9.7771  -20.4462 C   0  0  2  0  0  0  0  0  0  0  0  0
   23.3174   -9.2307  -21.7435 N   0  0  0  0  0  0  0  0  0  0  0  0
   22.1946   -8.8033  -19.6350 C   0  0  0  0  0  0  0  0  0  0  0  0
   22.2161   -7.5979  -19.9948 O   0  0  0  0  0  0  0  0  0  0  0  0
   16.8512   -9.7388  -16.9068 N   0  0  0  0  0  0  0  0  0  0  0  0
   17.1128   -8.4164  -16.4670 C   0  0  0  0  0  0  0  0  0  0  0  0
   16.2287   -7.7323  -15.9295 O   0  0  0  0  0  0  0  0  0  0  0  0
   18.4760   -7.8215  -16.6476 C   0  0  0  0  0  0  0  0  0  0  0  0
   19.3047   -8.7812  -17.4365 C   0  0  0  0  0  0  0  0  0  0  0  0
   20.6637   -8.2546  -17.7091 C   0  0  2  0  0  0  0  0  0  0  0  0
   21.4580   -9.1981  -18.4920 N   0  0  0  0  0  0  0  0  0  0  0  0
   21.3807   -7.9438  -16.4757 C   0  0  0  0  0  0  0  0  0  0  0  0
   21.8506   -8.7986  -15.7154 O   0  0  0  0  0  0  0  0  0  0  0  0
   21.5758   -6.5659  -16.0813 N   0  0  0  0  0  0  0  0  0  0  0  0
   22.3976   -6.2314  -14.9128 C   0  0  1  0  0  0  0  0  0  0  0  0
   23.2417   -5.0359  -15.2965 C   0  0  0  0  0  0  0  0  0  0  0  0
   22.4995   -3.7721  -15.3189 C   0  0  0  0  0  0  0  0  0  0  0  0
   22.3242   -2.9271  -14.2510 C   0  0  0  0  0  0  0  0  0  0  0  0
   21.5914   -1.8930  -14.6966 N   0  0  0  0  0  0  0  0  0  0  0  0
   21.2946   -2.0467  -16.0034 C   0  0  0  0  0  0  0  0  0  0  0  0
   20.5717   -1.2534  -16.8860 C   0  0  0  0  0  0  0  0  0  0  0  0
   20.4119   -1.6385  -18.1802 C   0  0  0  0  0  0  0  0  0  0  0  0
   20.9807   -2.8331  -18.6042 C   0  0  0  0  0  0  0  0  0  0  0  0
   21.6976   -3.6196  -17.7286 C   0  0  0  0  0  0  0  0  0  0  0  0
   21.8623   -3.2333  -16.4152 C   0  0  0  0  0  0  0  0  0  0  0  0
   21.5650   -5.9821  -13.7340 C   0  0  0  0  0  0  0  0  0  0  0  0
   22.0975   -5.9551  -12.4621 O   0  0  0  0  0  0  0  0  0  0  0  0
   20.3323   -5.7866  -13.8780 O   0  0  0  0  0  0  0  0  0  0  0  0
  1  2  1  0
  2  3  1  0
  3  4  1  6
  3  5  1  0
  5  6  2  0
  8  7  1  0
  8  9  2  0
 10 11  1  0
 10  8  1  0
 12 11  1  1
 12 14  1  0
 13  5  1  0
 13 12  1  0
 14 15  2  0
 16 17  1  0
 16 14  1  0
 17 28  1  0
 17 18  1  6
 19 18  1  0
 20 19  2  0
 21 22  1  0
 21 20  1  0
 22 27  2  0
 23 24  2  0
 23 22  1  0
 24 25  1  0
 25 26  2  0
 27 26  1  0
 27 19  1  0
 28 30  2  0
 28 29  1  0
M  END
$$$$
