ISQ.pdb
     RDKit          3D

 24 23  0  0  1  0  0  0  0  0999 V2000
   10.4849  -15.9301   16.8318 C   0  0  0  0  0  0  0  0  0  0  0  0
   10.0525  -14.7548   17.6789 C   0  0  0  0  0  0  0  0  0  0  0  0
    8.5426  -14.7615   17.8699 C   0  0  2  0  0  0  0  0  0  0  0  0
    7.8309  -14.6479   16.5417 C   0  0  0  0  0  0  0  0  0  0  0  0
    8.1239  -13.5855   18.7370 C   0  0  2  0  0  0  0  0  0  0  0  0
    8.4729  -12.3229   18.1291 N   0  0  0  0  0  0  0  0  0  0  0  0
    8.6954  -13.7255   20.0971 C   0  0  0  0  0  0  0  0  0  0  0  0
    9.8407  -13.2944   20.3679 O   0  0  0  0  0  0  0  0  0  0  0  0
    6.7994  -16.0009   23.1747 O   0  0  0  0  0  0  0  0  0  0  0  0
    7.6161  -14.9386   23.5050 C   0  0  0  0  0  0  0  0  0  0  0  0
    8.6036  -14.5977   22.4136 C   0  0  2  0  0  0  0  0  0  0  0  0
    7.9670  -14.3526   21.1418 N   0  0  0  0  0  0  0  0  0  0  0  0
    9.5960  -15.7059   22.3280 C   0  0  0  0  0  0  0  0  0  0  0  0
    9.4960  -16.6868   21.5778 O   0  0  0  0  0  0  0  0  0  0  0  0
   15.2437  -15.7020   21.1383 N   0  0  0  0  0  0  0  0  0  0  0  0
   14.0418  -15.0091   20.8525 C   0  0  0  0  0  0  0  0  0  0  0  0
   14.0988  -14.1440   19.9092 O   0  0  0  0  0  0  0  0  0  0  0  0
   12.7575  -15.2262   21.5573 C   0  0  0  0  0  0  0  0  0  0  0  0
   12.8875  -16.3123   22.5469 C   0  0  0  0  0  0  0  0  0  0  0  0
   11.6908  -16.7538   23.2989 C   0  0  2  0  0  0  0  0  0  0  0  0
   10.7330  -15.6254   23.1670 N   0  0  0  0  0  0  0  0  0  0  0  0
   11.7942  -17.1362   24.6839 C   0  0  0  0  0  0  0  0  0  0  0  0
   12.5254  -18.2081   25.1751 O   0  0  0  0  0  0  0  0  0  0  0  0
   11.1749  -16.4718   25.5891 O   0  0  0  0  0  0  0  0  0  0  0  0
  1  2  1  0
  3  5  1  0
  3  2  1  0
  3  4  1  6
  5  7  1  0
  5  6  1  6
  7  8  2  0
 10  9  1  0
 11 10  1  1
 12 11  1  0
 12  7  1  0
 13 21  1  0
 13 11  1  0
 14 13  2  0
 16 17  2  0
 16 15  1  0
 18 16  1  0
 19 18  1  0
 20 21  1  0
 20 19  1  1
 22 20  1  0
 23 22  1  0
 24 22  2  0
M  END
$$$$
