ISQ.pdb
     RDKit          3D

 24 23  0  0  1  0  0  0  0  0999 V2000
    8.0156  -11.8519   19.0250 C   0  0  0  0  0  0  0  0  0  0  0  0
    7.4139  -13.1964   19.3660 C   0  0  0  0  0  0  0  0  0  0  0  0
    8.2706  -13.9186   20.3960 C   0  0  2  0  0  0  0  0  0  0  0  0
    9.6493  -14.2028   19.8463 C   0  0  0  0  0  0  0  0  0  0  0  0
    7.6252  -15.2424   20.7715 C   0  0  2  0  0  0  0  0  0  0  0  0
    6.2572  -15.0671   21.1995 N   0  0  0  0  0  0  0  0  0  0  0  0
    8.4435  -15.9375   21.7929 C   0  0  0  0  0  0  0  0  0  0  0  0
    8.4501  -15.5588   22.9876 O   0  0  0  0  0  0  0  0  0  0  0  0
    9.8902  -19.7720   21.3704 O   0  0  0  0  0  0  0  0  0  0  0  0
    9.9598  -19.1225   22.5861 C   0  0  0  0  0  0  0  0  0  0  0  0
   10.1327  -17.6285   22.4428 C   0  0  2  0  0  0  0  0  0  0  0  0
    9.2490  -17.0566   21.4554 N   0  0  0  0  0  0  0  0  0  0  0  0
   11.5630  -17.3591   22.1233 C   0  0  0  0  0  0  0  0  0  0  0  0
   12.0440  -17.3611   20.9815 O   0  0  0  0  0  0  0  0  0  0  0  0
   12.7952  -14.2368   19.9513 N   0  0  0  0  0  0  0  0  0  0  0  0
   14.1793  -14.5064   20.0841 C   0  0  0  0  0  0  0  0  0  0  0  0
   14.9091  -14.2294   19.0683 O   0  0  0  0  0  0  0  0  0  0  0  0
   14.8143  -15.0679   21.2986 C   0  0  0  0  0  0  0  0  0  0  0  0
   13.7934  -15.3981   22.3108 C   0  0  0  0  0  0  0  0  0  0  0  0
   13.8522  -16.7084   22.9980 C   0  0  2  0  0  0  0  0  0  0  0  0
   12.4291  -17.0810   23.2077 N   0  0  0  0  0  0  0  0  0  0  0  0
   14.5746  -16.8563   24.2354 C   0  0  0  0  0  0  0  0  0  0  0  0
   14.0084  -17.0935   25.4797 O   0  0  0  0  0  0  0  0  0  0  0  0
   15.8536  -16.7649   24.2558 O   0  0  0  0  0  0  0  0  0  0  0  0
  1  2  1  0
  3  5  1  0
  3  2  1  0
  3  4  1  6
  5  7  1  0
  5  6  1  1
  7  8  2  0
 10  9  1  0
 11 10  1  6
 12 11  1  0
 12  7  1  0
 13 21  1  0
 13 11  1  0
 14 13  2  0
 16 17  2  0
 16 15  1  0
 18 16  1  0
 19 18  1  0
 20 21  1  0
 20 19  1  1
 22 20  1  0
 23 22  1  0
 24 22  2  0
M  END
$$$$
