ISQ.pdb
     RDKit          3D

 24 23  0  0  1  0  0  0  0  0999 V2000
   36.4524   29.6413   14.5625 C   0  0  0  0  0  0  0  0  0  0  0  0
   36.1230   28.6496   13.4699 C   0  0  0  0  0  0  0  0  0  0  0  0
   34.9373   27.7850   13.8738 C   0  0  2  0  0  0  0  0  0  0  0  0
   33.8354   27.8659   12.8429 C   0  0  0  0  0  0  0  0  0  0  0  0
   34.3794   28.2589   15.2058 C   0  0  2  0  0  0  0  0  0  0  0  0
   33.9213   29.6266   15.1367 N   0  0  0  0  0  0  0  0  0  0  0  0
   35.3825   28.0612   16.2786 C   0  0  0  0  0  0  0  0  0  0  0  0
   36.3360   28.8602   16.4314 O   0  0  0  0  0  0  0  0  0  0  0  0
   37.2682   26.6403   15.3110 O   0  0  0  0  0  0  0  0  0  0  0  0
   37.6596   26.5242   16.6292 C   0  0  0  0  0  0  0  0  0  0  0  0
   36.5012   26.2630   17.5632 C   0  0  2  0  0  0  0  0  0  0  0  0
   35.3000   26.9605   17.1711 N   0  0  0  0  0  0  0  0  0  0  0  0
   36.9283   26.6345   18.9416 C   0  0  0  0  0  0  0  0  0  0  0  0
   37.8189   26.0603   19.5837 O   0  0  0  0  0  0  0  0  0  0  0  0
   38.2405   31.9617   17.6422 N   0  0  0  0  0  0  0  0  0  0  0  0
   39.2142   31.1815   18.3125 C   0  0  0  0  0  0  0  0  0  0  0  0
   40.3999   31.6656   18.3478 O   0  0  0  0  0  0  0  0  0  0  0  0
   38.9462   29.8780   18.9624 C   0  0  0  0  0  0  0  0  0  0  0  0
   37.4955   29.6742   19.1346 C   0  0  0  0  0  0  0  0  0  0  0  0
   37.0111   28.8125   20.2371 C   0  0  2  0  0  0  0  0  0  0  0  0
   36.2645   27.7234   19.5555 N   0  0  0  0  0  0  0  0  0  0  0  0
   36.2016   29.3603   21.2952 C   0  0  0  0  0  0  0  0  0  0  0  0
   34.8291   29.2058   21.4269 O   0  0  0  0  0  0  0  0  0  0  0  0
   36.7360   30.0665   22.2226 O   0  0  0  0  0  0  0  0  0  0  0  0
  1  2  1  0
  3  5  1  0
  3  2  1  0
  3  4  1  6
  5  7  1  0
  5  6  1  6
  7  8  2  0
 10  9  1  0
 11 10  1  6
 12 11  1  0
 12  7  1  0
 13 21  1  0
 13 11  1  0
 14 13  2  0
 16 17  2  0
 16 15  1  0
 18 16  1  0
 19 18  1  0
 20 21  1  0
 20 19  1  6
 22 20  1  0
 23 22  1  0
 24 22  2  0
M  END
$$$$
