ISQ.pdb
     RDKit          3D

 24 23  0  0  1  0  0  0  0  0999 V2000
    8.6633  -11.8224   20.0047 C   0  0  0  0  0  0  0  0  0  0  0  0
    8.1894  -13.1459   20.5611 C   0  0  0  0  0  0  0  0  0  0  0  0
    8.9155  -14.2998   19.8846 C   0  0  2  0  0  0  0  0  0  0  0  0
    8.5543  -14.3790   18.4194 C   0  0  0  0  0  0  0  0  0  0  0  0
    8.5280  -15.6139   20.5427 C   0  0  2  0  0  0  0  0  0  0  0  0
    7.1225  -15.9004   20.3762 N   0  0  0  0  0  0  0  0  0  0  0  0
    8.9300  -15.6084   21.9691 C   0  0  0  0  0  0  0  0  0  0  0  0
   10.1379  -15.6012   22.3033 O   0  0  0  0  0  0  0  0  0  0  0  0
    6.1555  -16.2232   25.1263 O   0  0  0  0  0  0  0  0  0  0  0  0
    7.2651  -15.4368   25.3603 C   0  0  0  0  0  0  0  0  0  0  0  0
    8.3872  -15.7017   24.3840 C   0  0  2  0  0  0  0  0  0  0  0  0
    7.9623  -15.6113   23.0077 N   0  0  0  0  0  0  0  0  0  0  0  0
    8.9622  -17.0406   24.6957 C   0  0  0  0  0  0  0  0  0  0  0  0
    8.8963  -18.0282   23.9506 O   0  0  0  0  0  0  0  0  0  0  0  0
   13.6924  -20.3936   23.2839 N   0  0  0  0  0  0  0  0  0  0  0  0
   13.4644  -19.4909   24.3513 C   0  0  0  0  0  0  0  0  0  0  0  0
   14.2434  -18.4754   24.4089 O   0  0  0  0  0  0  0  0  0  0  0  0
   12.4025  -19.6459   25.3720 C   0  0  0  0  0  0  0  0  0  0  0  0
   11.4288  -18.5420   25.2776 C   0  0  0  0  0  0  0  0  0  0  0  0
   10.3545  -18.4354   26.2910 C   0  0  2  0  0  0  0  0  0  0  0  0
    9.6312  -17.1874   25.9344 N   0  0  0  0  0  0  0  0  0  0  0  0
   10.6700  -18.4225   27.6964 C   0  0  0  0  0  0  0  0  0  0  0  0
   11.0500  -19.5232   28.4508 O   0  0  0  0  0  0  0  0  0  0  0  0
   10.6070  -17.3307   28.3662 O   0  0  0  0  0  0  0  0  0  0  0  0
  1  2  1  0
  3  5  1  0
  3  2  1  0
  3  4  1  6
  5  7  1  0
  5  6  1  1
  7  8  2  0
 10  9  1  0
 11 10  1  1
 12 11  1  0
 12  7  1  0
 13 21  1  0
 13 11  1  0
 14 13  2  0
 16 17  2  0
 16 15  1  0
 18 16  1  0
 19 18  1  0
 20 21  1  0
 20 19  1  6
 22 20  1  0
 23 22  1  0
 24 22  2  0
M  END
$$$$
