ISQ.pdb
     RDKit          3D

 24 23  0  0  1  0  0  0  0  0999 V2000
    6.8450  -12.7497   18.7723 C   0  0  0  0  0  0  0  0  0  0  0  0
    8.1140  -13.4672   19.1730 C   0  0  0  0  0  0  0  0  0  0  0  0
    7.9359  -14.1547   20.5191 C   0  0  2  0  0  0  0  0  0  0  0  0
    7.5558  -13.1565   21.5881 C   0  0  0  0  0  0  0  0  0  0  0  0
    9.2344  -14.8266   20.9346 C   0  0  2  0  0  0  0  0  0  0  0  0
    9.6953  -15.7617   19.9353 N   0  0  0  0  0  0  0  0  0  0  0  0
    9.0768  -15.4641   22.2631 C   0  0  0  0  0  0  0  0  0  0  0  0
    8.6811  -14.8084   23.2552 O   0  0  0  0  0  0  0  0  0  0  0  0
   11.3540  -18.7132   23.4193 O   0  0  0  0  0  0  0  0  0  0  0  0
   10.0490  -18.7385   23.8675 C   0  0  0  0  0  0  0  0  0  0  0  0
    9.3787  -17.3866   23.7955 C   0  0  2  0  0  0  0  0  0  0  0  0
    9.3682  -16.8394   22.4600 N   0  0  0  0  0  0  0  0  0  0  0  0
   10.0671  -16.4795   24.7566 C   0  0  0  0  0  0  0  0  0  0  0  0
   10.7957  -15.5308   24.4341 O   0  0  0  0  0  0  0  0  0  0  0  0
    6.7567  -13.0547   25.9833 N   0  0  0  0  0  0  0  0  0  0  0  0
    7.5666  -12.6827   27.0841 C   0  0  0  0  0  0  0  0  0  0  0  0
    7.2246  -11.6134   27.7015 O   0  0  0  0  0  0  0  0  0  0  0  0
    8.7488  -13.4414   27.5532 C   0  0  0  0  0  0  0  0  0  0  0  0
    8.9152  -14.6783   26.7670 C   0  0  0  0  0  0  0  0  0  0  0  0
    9.9733  -15.6416   27.1478 C   0  0  2  0  0  0  0  0  0  0  0  0
    9.8694  -16.7252   26.1364 N   0  0  0  0  0  0  0  0  0  0  0  0
   10.0006  -16.2179   28.4678 C   0  0  0  0  0  0  0  0  0  0  0  0
    9.4619  -17.4451   28.8264 O   0  0  0  0  0  0  0  0  0  0  0  0
   10.5506  -15.5882   29.4401 O   0  0  0  0  0  0  0  0  0  0  0  0
  1  2  1  0
  3  5  1  0
  3  2  1  0
  3  4  1  1
  5  7  1  0
  5  6  1  6
  7  8  2  0
 10  9  1  0
 11 10  1  6
 12 11  1  0
 12  7  1  0
 13 21  1  0
 13 11  1  0
 14 13  2  0
 16 17  2  0
 16 15  1  0
 18 16  1  0
 19 18  1  0
 20 21  1  0
 20 19  1  1
 22 20  1  0
 23 22  1  0
 24 22  2  0
M  END
$$$$
