ISQ.pdb
     RDKit          3D

 24 23  0  0  1  0  0  0  0  0999 V2000
    7.3499  -12.2195   26.5470 C   0  0  0  0  0  0  0  0  0  0  0  0
    7.0650  -13.4921   25.7820 C   0  0  0  0  0  0  0  0  0  0  0  0
    7.5988  -13.3908   24.3603 C   0  0  2  0  0  0  0  0  0  0  0  0
    6.9641  -12.2315   23.6276 C   0  0  0  0  0  0  0  0  0  0  0  0
    7.2850  -14.6666   23.5960 C   0  0  2  0  0  0  0  0  0  0  0  0
    5.9363  -15.1194   23.8435 N   0  0  0  0  0  0  0  0  0  0  0  0
    8.2892  -15.7101   23.9108 C   0  0  0  0  0  0  0  0  0  0  0  0
    8.2090  -16.3936   24.9583 O   0  0  0  0  0  0  0  0  0  0  0  0
   11.8706  -16.3295   21.6383 O   0  0  0  0  0  0  0  0  0  0  0  0
   11.2060  -17.3951   22.2103 C   0  0  0  0  0  0  0  0  0  0  0  0
   10.3447  -16.9872   23.3826 C   0  0  2  0  0  0  0  0  0  0  0  0
    9.3776  -15.9728   23.0382 N   0  0  0  0  0  0  0  0  0  0  0  0
   11.2455  -16.5385   24.4816 C   0  0  0  0  0  0  0  0  0  0  0  0
   11.7027  -15.3927   24.5964 O   0  0  0  0  0  0  0  0  0  0  0  0
    8.4158  -15.1024   28.4496 N   0  0  0  0  0  0  0  0  0  0  0  0
    9.7729  -15.4198   28.7023 C   0  0  0  0  0  0  0  0  0  0  0  0
   10.4015  -14.6277   29.4889 O   0  0  0  0  0  0  0  0  0  0  0  0
   10.4847  -16.5860   28.1306 C   0  0  0  0  0  0  0  0  0  0  0  0
   11.6759  -16.1478   27.3793 C   0  0  0  0  0  0  0  0  0  0  0  0
   12.4622  -17.1476   26.6211 C   0  0  2  0  0  0  0  0  0  0  0  0
   11.5998  -17.4957   25.4621 N   0  0  0  0  0  0  0  0  0  0  0  0
   12.9218  -18.3554   27.2574 C   0  0  0  0  0  0  0  0  0  0  0  0
   13.8583  -18.4263   28.2785 O   0  0  0  0  0  0  0  0  0  0  0  0
   12.4685  -19.4969   26.8884 O   0  0  0  0  0  0  0  0  0  0  0  0
  1  2  1  0
  3  5  1  0
  3  2  1  0
  3  4  1  6
  5  7  1  0
  5  6  1  1
  7  8  2  0
 10  9  1  0
 11 10  1  6
 12 11  1  0
 12  7  1  0
 13 21  1  0
 13 11  1  0
 14 13  2  0
 16 17  2  0
 16 15  1  0
 18 16  1  0
 19 18  1  0
 20 21  1  0
 20 19  1  1
 22 20  1  0
 23 22  1  0
 24 22  2  0
M  END
$$$$
