ISQ.pdb
     RDKit          3D

 24 23  0  0  1  0  0  0  0  0999 V2000
    7.0312  -12.3284   18.9797 C   0  0  0  0  0  0  0  0  0  0  0  0
    7.4457  -13.7563   19.2540 C   0  0  0  0  0  0  0  0  0  0  0  0
    7.5004  -14.0175   20.7524 C   0  0  2  0  0  0  0  0  0  0  0  0
    8.5157  -13.1187   21.4195 C   0  0  0  0  0  0  0  0  0  0  0  0
    7.8978  -15.4612   21.0133 C   0  0  2  0  0  0  0  0  0  0  0  0
    6.9307  -16.3873   20.4727 N   0  0  0  0  0  0  0  0  0  0  0  0
    8.1234  -15.6744   22.4624 C   0  0  0  0  0  0  0  0  0  0  0  0
    9.0654  -15.1068   23.0634 O   0  0  0  0  0  0  0  0  0  0  0  0
    6.0301  -18.6316   24.6951 O   0  0  0  0  0  0  0  0  0  0  0  0
    6.4657  -17.4888   25.3344 C   0  0  0  0  0  0  0  0  0  0  0  0
    7.5960  -16.8033   24.6031 C   0  0  2  0  0  0  0  0  0  0  0  0
    7.2815  -16.5288   23.2216 N   0  0  0  0  0  0  0  0  0  0  0  0
    8.8117  -17.6554   24.7321 C   0  0  0  0  0  0  0  0  0  0  0  0
    9.2224  -18.4359   23.8620 O   0  0  0  0  0  0  0  0  0  0  0  0
   15.5413  -17.6560   24.8745 N   0  0  0  0  0  0  0  0  0  0  0  0
   14.1346  -17.5975   24.7195 C   0  0  0  0  0  0  0  0  0  0  0  0
   13.6968  -16.7785   23.8369 O   0  0  0  0  0  0  0  0  0  0  0  0
   13.1685  -18.4112   25.4927 C   0  0  0  0  0  0  0  0  0  0  0  0
   11.8298  -17.7926   25.4623 C   0  0  0  0  0  0  0  0  0  0  0  0
   10.7212  -18.4281   26.2104 C   0  0  2  0  0  0  0  0  0  0  0  0
    9.5456  -17.5608   25.9386 N   0  0  0  0  0  0  0  0  0  0  0  0
   10.8300  -18.6588   27.6281 C   0  0  0  0  0  0  0  0  0  0  0  0
   10.4273  -17.7810   28.6242 O   0  0  0  0  0  0  0  0  0  0  0  0
   11.3404  -19.7485   28.0716 O   0  0  0  0  0  0  0  0  0  0  0  0
  1  2  1  0
  3  5  1  0
  3  2  1  0
  3  4  1  1
  5  7  1  0
  5  6  1  1
  7  8  2  0
 10  9  1  0
 11 10  1  6
 12 11  1  0
 12  7  1  0
 13 21  1  0
 13 11  1  0
 14 13  2  0
 16 17  2  0
 16 15  1  0
 18 16  1  0
 19 18  1  0
 20 21  1  0
 20 19  1  1
 22 20  1  0
 23 22  1  0
 24 22  2  0
M  END
$$$$
