ISQ.pdb
     RDKit          3D

 24 23  0  0  1  0  0  0  0  0999 V2000
    8.0662  -12.0018   19.1803 C   0  0  0  0  0  0  0  0  0  0  0  0
    7.9529  -13.5083   19.1209 C   0  0  0  0  0  0  0  0  0  0  0  0
    7.8834  -14.0940   20.5239 C   0  0  2  0  0  0  0  0  0  0  0  0
    9.1597  -13.8212   21.2856 C   0  0  0  0  0  0  0  0  0  0  0  0
    7.6857  -15.5991   20.4488 C   0  0  2  0  0  0  0  0  0  0  0  0
    6.5140  -15.9460   19.6792 N   0  0  0  0  0  0  0  0  0  0  0  0
    7.6475  -16.1775   21.8127 C   0  0  0  0  0  0  0  0  0  0  0  0
    7.1715  -15.5346   22.7776 O   0  0  0  0  0  0  0  0  0  0  0  0
    9.1278  -20.1182   22.8678 O   0  0  0  0  0  0  0  0  0  0  0  0
    8.0675  -19.4908   23.4895 C   0  0  0  0  0  0  0  0  0  0  0  0
    8.1604  -17.9842   23.4276 C   0  0  2  0  0  0  0  0  0  0  0  0
    8.1483  -17.4795   22.0755 N   0  0  0  0  0  0  0  0  0  0  0  0
    9.3900  -17.5683   24.1594 C   0  0  0  0  0  0  0  0  0  0  0  0
   10.4940  -17.3739   23.6317 O   0  0  0  0  0  0  0  0  0  0  0  0
    8.8608  -13.7918   28.7994 N   0  0  0  0  0  0  0  0  0  0  0  0
   10.0506  -14.4467   29.2016 C   0  0  0  0  0  0  0  0  0  0  0  0
   10.4954  -14.1467   30.3650 O   0  0  0  0  0  0  0  0  0  0  0  0
   10.7855  -15.4357   28.3798 C   0  0  0  0  0  0  0  0  0  0  0  0
    9.9295  -15.9415   27.2903 C   0  0  0  0  0  0  0  0  0  0  0  0
   10.4501  -16.9959   26.3904 C   0  0  2  0  0  0  0  0  0  0  0  0
    9.2814  -17.3832   25.5584 N   0  0  0  0  0  0  0  0  0  0  0  0
   11.0698  -18.1797   26.9284 C   0  0  0  0  0  0  0  0  0  0  0  0
   10.4121  -19.3508   27.2761 O   0  0  0  0  0  0  0  0  0  0  0  0
   12.3354  -18.2145   27.1329 O   0  0  0  0  0  0  0  0  0  0  0  0
  1  2  1  0
  3  5  1  0
  3  2  1  0
  3  4  1  6
  5  7  1  0
  5  6  1  1
  7  8  2  0
 10  9  1  0
 11 10  1  6
 12 11  1  0
 12  7  1  0
 13 21  1  0
 13 11  1  0
 14 13  2  0
 16 17  2  0
 16 15  1  0
 18 16  1  0
 19 18  1  0
 20 21  1  0
 20 19  1  1
 22 20  1  0
 23 22  1  0
 24 22  2  0
M  END
$$$$
