ISQ.pdb
     RDKit          3D

 24 23  0  0  1  0  0  0  0  0999 V2000
    8.8059  -16.3318   14.1885 C   0  0  0  0  0  0  0  0  0  0  0  0
    8.1857  -15.2557   15.0507 C   0  0  0  0  0  0  0  0  0  0  0  0
    8.8772  -15.1927   16.4050 C   0  0  2  0  0  0  0  0  0  0  0  0
    8.8009  -16.5262   17.1117 C   0  0  0  0  0  0  0  0  0  0  0  0
    8.2055  -14.1492   17.2826 C   0  0  2  0  0  0  0  0  0  0  0  0
    8.2143  -12.8448   16.6632 N   0  0  0  0  0  0  0  0  0  0  0  0
    8.8318  -14.1322   18.6256 C   0  0  0  0  0  0  0  0  0  0  0  0
   10.0695  -13.9903   18.7632 O   0  0  0  0  0  0  0  0  0  0  0  0
    6.8285  -15.3067   22.1689 O   0  0  0  0  0  0  0  0  0  0  0  0
    7.7021  -14.2407   22.2384 C   0  0  0  0  0  0  0  0  0  0  0  0
    8.6917  -14.2191   21.0971 C   0  0  2  0  0  0  0  0  0  0  0  0
    8.0534  -14.2761   19.8039 N   0  0  0  0  0  0  0  0  0  0  0  0
    9.6434  -15.3492   21.2913 C   0  0  0  0  0  0  0  0  0  0  0  0
    9.5673  -16.4434   20.7152 O   0  0  0  0  0  0  0  0  0  0  0  0
   15.4150  -14.3540   21.4286 N   0  0  0  0  0  0  0  0  0  0  0  0
   14.4922  -14.6631   20.3994 C   0  0  0  0  0  0  0  0  0  0  0  0
   14.8427  -14.3400   19.2103 O   0  0  0  0  0  0  0  0  0  0  0  0
   13.1851  -15.3261   20.6127 C   0  0  0  0  0  0  0  0  0  0  0  0
   12.9950  -15.6485   22.0394 C   0  0  0  0  0  0  0  0  0  0  0  0
   11.7035  -16.2176   22.4874 C   0  0  2  0  0  0  0  0  0  0  0  0
   10.7093  -15.1510   22.2012 N   0  0  0  0  0  0  0  0  0  0  0  0
   11.5355  -16.6798   23.8413 C   0  0  0  0  0  0  0  0  0  0  0  0
   10.6265  -16.1773   24.7611 O   0  0  0  0  0  0  0  0  0  0  0  0
   12.2637  -17.6316   24.2978 O   0  0  0  0  0  0  0  0  0  0  0  0
  1  2  1  0
  3  5  1  0
  3  2  1  0
  3  4  1  1
  5  7  1  0
  5  6  1  6
  7  8  2  0
 10  9  1  0
 11 10  1  1
 12 11  1  0
 12  7  1  0
 13 21  1  0
 13 11  1  0
 14 13  2  0
 16 17  2  0
 16 15  1  0
 18 16  1  0
 19 18  1  0
 20 21  1  0
 20 19  1  1
 22 20  1  0
 23 22  1  0
 24 22  2  0
M  END
$$$$
