ISQ.pdb
     RDKit          3D

 24 23  0  0  1  0  0  0  0  0999 V2000
    8.8805  -14.8462   15.1643 C   0  0  0  0  0  0  0  0  0  0  0  0
    8.0577  -14.2330   16.2747 C   0  0  0  0  0  0  0  0  0  0  0  0
    8.8205  -14.2775   17.5910 C   0  0  2  0  0  0  0  0  0  0  0  0
    9.2177  -15.6941   17.9360 C   0  0  0  0  0  0  0  0  0  0  0  0
    7.9489  -13.7399   18.7142 C   0  0  2  0  0  0  0  0  0  0  0  0
    7.5891  -12.3585   18.4964 N   0  0  0  0  0  0  0  0  0  0  0  0
    8.6185  -13.9416   20.0208 C   0  0  0  0  0  0  0  0  0  0  0  0
    9.6680  -13.3229   20.3151 O   0  0  0  0  0  0  0  0  0  0  0  0
    7.3217  -16.9099   22.6922 O   0  0  0  0  0  0  0  0  0  0  0  0
    8.0165  -15.8458   23.2301 C   0  0  0  0  0  0  0  0  0  0  0  0
    8.8312  -15.0979   22.2010 C   0  0  2  0  0  0  0  0  0  0  0  0
    8.0961  -14.8425   20.9855 N   0  0  0  0  0  0  0  0  0  0  0  0
   10.0725  -15.8798   21.9395 C   0  0  0  0  0  0  0  0  0  0  0  0
   10.3963  -16.3428   20.8368 O   0  0  0  0  0  0  0  0  0  0  0  0
   15.2893  -15.6308   19.2334 N   0  0  0  0  0  0  0  0  0  0  0  0
   14.8999  -15.2827   20.5499 C   0  0  0  0  0  0  0  0  0  0  0  0
   15.0127  -14.0458   20.8643 O   0  0  0  0  0  0  0  0  0  0  0  0
   14.3780  -16.2387   21.5534 C   0  0  0  0  0  0  0  0  0  0  0  0
   12.9715  -15.9336   21.8765 C   0  0  0  0  0  0  0  0  0  0  0  0
   12.2574  -16.7723   22.8660 C   0  0  2  0  0  0  0  0  0  0  0  0
   10.9401  -16.1058   23.0347 N   0  0  0  0  0  0  0  0  0  0  0  0
   12.8338  -17.0311   24.1606 C   0  0  0  0  0  0  0  0  0  0  0  0
   12.3378  -16.5746   25.3732 O   0  0  0  0  0  0  0  0  0  0  0  0
   13.9018  -17.7328   24.2675 O   0  0  0  0  0  0  0  0  0  0  0  0
  1  2  1  0
  3  5  1  0
  3  2  1  0
  3  4  1  1
  5  7  1  0
  5  6  1  6
  7  8  2  0
 10  9  1  0
 11 10  1  1
 12 11  1  0
 12  7  1  0
 13 21  1  0
 13 11  1  0
 14 13  2  0
 16 17  2  0
 16 15  1  0
 18 16  1  0
 19 18  1  0
 20 21  1  0
 20 19  1  6
 22 20  1  0
 23 22  1  0
 24 22  2  0
M  END
$$$$
