TKP.pdb
     RDKit          3D

 24 24  0  0  1  0  0  0  0  0999 V2000
   31.1255  -26.5572  -18.4780 C   0  0  0  0  0  0  0  0  0  0  0  0
   29.7964  -26.1192  -17.8850 C   0  0  1  0  0  0  0  0  0  0  0  0
   29.1455  -27.2026  -17.3112 O   0  0  0  0  0  0  0  0  0  0  0  0
   30.0808  -25.0315  -16.8908 C   0  0  2  0  0  0  0  0  0  0  0  0
   30.8980  -25.4989  -15.8133 N   0  0  0  0  0  0  0  0  0  0  0  0
   28.8536  -24.3495  -16.4090 C   0  0  0  0  0  0  0  0  0  0  0  0
   28.2692  -24.6626  -15.3474 O   0  0  0  0  0  0  0  0  0  0  0  0
   28.3346  -23.2941  -17.2059 N   0  0  0  0  0  0  0  0  0  0  0  0
   27.1212  -22.5529  -16.7984 C   0  0  1  0  0  0  0  0  0  0  0  0
   27.1496  -21.3597  -17.7633 C   0  0  0  0  0  0  0  0  0  0  0  0
   25.8893  -20.5872  -17.8111 C   0  0  0  0  0  0  0  0  0  0  0  0
   25.6685  -19.8539  -16.4721 C   0  0  0  0  0  0  0  0  0  0  0  0
   24.3508  -19.1031  -16.5137 C   0  0  0  0  0  0  0  0  0  0  0  0
   24.2204  -18.4238  -15.2349 N   0  0  0  0  0  0  0  0  0  0  0  0
   25.9607  -23.4288  -17.2099 C   0  0  0  0  0  0  0  0  0  0  0  0
   25.9191  -23.6290  -18.4680 O   0  0  0  0  0  0  0  0  0  0  0  0
   25.0585  -23.9434  -16.2822 N   0  0  0  0  0  0  0  0  0  0  0  0
   25.3740  -24.1378  -14.8488 C   0  0  0  0  0  0  0  0  0  0  0  0
   24.1127  -23.7134  -14.1369 C   0  0  0  0  0  0  0  0  0  0  0  0
   23.1116  -23.4899  -15.2388 C   0  0  0  0  0  0  0  0  0  0  0  0
   23.7194  -24.3853  -16.3640 C   0  0  1  0  0  0  0  0  0  0  0  0
   22.9624  -24.2270  -17.5831 C   0  0  0  0  0  0  0  0  0  0  0  0
   22.8401  -25.3284  -18.4415 O   0  0  0  0  0  0  0  0  0  0  0  0
   22.4036  -23.1930  -17.9447 O   0  0  0  0  0  0  0  0  0  0  0  0
  2  1  1  1
  2  3  1  0
  4  2  1  0
  4  5  1  1
  6  4  1  0
  7  6  2  0
  8  6  1  0
  9  8  1  0
 10 11  1  0
  9 10  1  6
 12 11  1  0
 13 14  1  0
 13 12  1  0
 15 17  1  0
 15  9  1  0
 16 15  2  0
 17 18  1  0
 19 18  1  0
 20 19  1  0
 21 17  1  0
 21 20  1  0
 22 23  1  0
 21 22  1  6
 24 22  2  0
M  END
$$$$
