TKP.pdb
     RDKit          3D

 24 24  0  0  1  0  0  0  0  0999 V2000
   15.9089  -21.8661    3.9677 C   0  0  0  0  0  0  0  0  0  0  0  0
   16.1342  -22.2468    2.5136 C   0  0  1  0  0  0  0  0  0  0  0  0
   15.9577  -23.6127    2.3412 O   0  0  0  0  0  0  0  0  0  0  0  0
   15.1824  -21.4382    1.6812 C   0  0  2  0  0  0  0  0  0  0  0  0
   15.1676  -21.8748    0.3188 N   0  0  0  0  0  0  0  0  0  0  0  0
   15.4060  -19.9755    1.7991 C   0  0  0  0  0  0  0  0  0  0  0  0
   16.3132  -19.3707    1.1843 O   0  0  0  0  0  0  0  0  0  0  0  0
   14.5380  -19.2467    2.6556 N   0  0  0  0  0  0  0  0  0  0  0  0
   14.6618  -17.7801    2.8026 C   0  0  1  0  0  0  0  0  0  0  0  0
   13.3464  -17.4287    3.5111 C   0  0  0  0  0  0  0  0  0  0  0  0
   13.1542  -15.9821    3.7522 C   0  0  0  0  0  0  0  0  0  0  0  0
   11.8182  -15.7420    4.4848 C   0  0  0  0  0  0  0  0  0  0  0  0
   11.6091  -14.2532    4.6880 C   0  0  0  0  0  0  0  0  0  0  0  0
   10.2777  -14.0946    5.2501 N   0  0  0  0  0  0  0  0  0  0  0  0
   15.7745  -17.5713    3.8033 C   0  0  0  0  0  0  0  0  0  0  0  0
   15.6671  -18.3301    4.8218 O   0  0  0  0  0  0  0  0  0  0  0  0
   16.7899  -16.6412    3.5954 N   0  0  0  0  0  0  0  0  0  0  0  0
   17.1420  -16.0914    2.2665 C   0  0  0  0  0  0  0  0  0  0  0  0
   17.4168  -14.6322    2.5368 C   0  0  0  0  0  0  0  0  0  0  0  0
   17.3824  -14.5108    4.0369 C   0  0  0  0  0  0  0  0  0  0  0  0
   17.7004  -15.9821    4.4507 C   0  0  1  0  0  0  0  0  0  0  0  0
   17.6020  -16.1234    5.8842 C   0  0  0  0  0  0  0  0  0  0  0  0
   18.7824  -16.2894    6.6218 O   0  0  0  0  0  0  0  0  0  0  0  0
   16.5560  -16.1111    6.5304 O   0  0  0  0  0  0  0  0  0  0  0  0
  2  1  1  1
  2  3  1  0
  4  2  1  0
  4  5  1  6
  6  4  1  0
  7  6  2  0
  8  6  1  0
  9  8  1  0
 10 11  1  0
  9 10  1  1
 12 11  1  0
 13 14  1  0
 13 12  1  0
 15 17  1  0
 15  9  1  0
 16 15  2  0
 17 18  1  0
 19 18  1  0
 20 19  1  0
 21 17  1  0
 21 20  1  0
 22 23  1  0
 21 22  1  1
 24 22  2  0
M  END
$$$$
