TKP.pdb
     RDKit          3D

 24 24  0  0  1  0  0  0  0  0999 V2000
   26.9475  -12.4041  -18.6016 C   0  0  0  0  0  0  0  0  0  0  0  0
   26.0622  -13.5359  -18.1064 C   0  0  1  0  0  0  0  0  0  0  0  0
   26.8273  -14.6621  -17.8365 O   0  0  0  0  0  0  0  0  0  0  0  0
   25.3286  -13.0397  -16.8947 C   0  0  2  0  0  0  0  0  0  0  0  0
   24.6218  -14.0942  -16.2346 N   0  0  0  0  0  0  0  0  0  0  0  0
   24.4564  -11.8732  -17.1809 C   0  0  0  0  0  0  0  0  0  0  0  0
   24.8828  -10.8060  -17.6767 O   0  0  0  0  0  0  0  0  0  0  0  0
   23.0757  -11.9952  -16.8695 N   0  0  0  0  0  0  0  0  0  0  0  0
   22.1169  -10.9210  -17.2082 C   0  0  1  0  0  0  0  0  0  0  0  0
   20.8002  -11.7030  -17.3097 C   0  0  0  0  0  0  0  0  0  0  0  0
   19.6343  -10.8810  -17.7001 C   0  0  0  0  0  0  0  0  0  0  0  0
   18.3598  -11.7496  -17.7228 C   0  0  0  0  0  0  0  0  0  0  0  0
   17.1561  -10.8800  -18.0334 C   0  0  0  0  0  0  0  0  0  0  0  0
   15.9796  -11.6990  -17.7910 N   0  0  0  0  0  0  0  0  0  0  0  0
   22.0275  -10.0601  -15.9696 C   0  0  0  0  0  0  0  0  0  0  0  0
   21.7516  -10.7333  -14.9231 O   0  0  0  0  0  0  0  0  0  0  0  0
   22.2336   -8.6834  -16.0106 N   0  0  0  0  0  0  0  0  0  0  0  0
   22.8907   -7.9835  -17.1378 C   0  0  0  0  0  0  0  0  0  0  0  0
   22.0825   -6.7197  -17.3032 C   0  0  0  0  0  0  0  0  0  0  0  0
   21.1420   -6.7138  -16.1277 C   0  0  0  0  0  0  0  0  0  0  0  0
   21.9253   -7.6233  -15.1296 C   0  0  1  0  0  0  0  0  0  0  0  0
   21.1318   -7.8538  -13.9456 C   0  0  0  0  0  0  0  0  0  0  0  0
   21.6127   -7.3813  -12.7166 O   0  0  0  0  0  0  0  0  0  0  0  0
   20.0506   -8.4387  -13.9162 O   0  0  0  0  0  0  0  0  0  0  0  0
  2  1  1  1
  2  3  1  0
  4  2  1  0
  4  5  1  6
  6  4  1  0
  7  6  2  0
  8  6  1  0
  9  8  1  0
 10 11  1  0
  9 10  1  1
 12 11  1  0
 13 14  1  0
 13 12  1  0
 15 17  1  0
 15  9  1  0
 16 15  2  0
 17 18  1  0
 19 18  1  0
 20 19  1  0
 21 17  1  0
 21 20  1  0
 22 23  1  0
 21 22  1  1
 24 22  2  0
M  END
$$$$
