TKP.pdb
     RDKit          3D

 24 24  0  0  1  0  0  0  0  0999 V2000
   25.6317  -26.1519  -18.6709 C   0  0  0  0  0  0  0  0  0  0  0  0
   25.7738  -24.9381  -17.7673 C   0  0  1  0  0  0  0  0  0  0  0  0
   26.2197  -25.3237  -16.5106 O   0  0  0  0  0  0  0  0  0  0  0  0
   26.7154  -23.9815  -18.4389 C   0  0  2  0  0  0  0  0  0  0  0  0
   27.9835  -24.5872  -18.7077 N   0  0  0  0  0  0  0  0  0  0  0  0
   26.8514  -22.6941  -17.7127 C   0  0  0  0  0  0  0  0  0  0  0  0
   27.8919  -22.3597  -17.1028 O   0  0  0  0  0  0  0  0  0  0  0  0
   25.7356  -21.8147  -17.7232 N   0  0  0  0  0  0  0  0  0  0  0  0
   25.8055  -20.4821  -17.0854 C   0  0  1  0  0  0  0  0  0  0  0  0
   24.7726  -19.6941  -17.9025 C   0  0  0  0  0  0  0  0  0  0  0  0
   24.6085  -18.2867  -17.4785 C   0  0  0  0  0  0  0  0  0  0  0  0
   23.5438  -17.5926  -18.3526 C   0  0  0  0  0  0  0  0  0  0  0  0
   23.4920  -16.1145  -18.0148 C   0  0  0  0  0  0  0  0  0  0  0  0
   22.4657  -15.5312  -18.8634 N   0  0  0  0  0  0  0  0  0  0  0  0
   25.2272  -20.6702  -15.7021 C   0  0  0  0  0  0  0  0  0  0  0  0
   24.0752  -21.2153  -15.7220 O   0  0  0  0  0  0  0  0  0  0  0  0
   25.9131  -20.2785  -14.5552 N   0  0  0  0  0  0  0  0  0  0  0  0
   27.3882  -20.1827  -14.4717 C   0  0  0  0  0  0  0  0  0  0  0  0
   27.6272  -18.9297  -13.6650 C   0  0  0  0  0  0  0  0  0  0  0  0
   26.2592  -18.5157  -13.1922 C   0  0  0  0  0  0  0  0  0  0  0  0
   25.5065  -19.8816  -13.2621 C   0  0  1  0  0  0  0  0  0  0  0  0
   24.1092  -19.6909  -12.9530 C   0  0  0  0  0  0  0  0  0  0  0  0
   23.6595  -20.0141  -11.6653 O   0  0  0  0  0  0  0  0  0  0  0  0
   23.2600  -19.2622  -13.7322 O   0  0  0  0  0  0  0  0  0  0  0  0
  2  1  1  6
  2  3  1  0
  4  2  1  0
  4  5  1  1
  6  4  1  0
  7  6  2  0
  8  6  1  0
  9  8  1  0
 10 11  1  0
  9 10  1  6
 12 11  1  0
 13 14  1  0
 13 12  1  0
 15 17  1  0
 15  9  1  0
 16 15  2  0
 17 18  1  0
 19 18  1  0
 20 19  1  0
 21 17  1  0
 21 20  1  0
 22 23  1  0
 21 22  1  6
 24 22  2  0
M  END
$$$$
