TKP.pdb
     RDKit          3D

 24 24  0  0  1  0  0  0  0  0999 V2000
   28.7982  -18.2836  -17.1235 C   0  0  0  0  0  0  0  0  0  0  0  0
   27.5007  -18.9586  -16.7102 C   0  0  1  0  0  0  0  0  0  0  0  0
   26.7248  -19.2342  -17.8278 O   0  0  0  0  0  0  0  0  0  0  0  0
   27.8594  -20.1982  -15.9439 C   0  0  2  0  0  0  0  0  0  0  0  0
   28.6053  -21.1193  -16.7454 N   0  0  0  0  0  0  0  0  0  0  0  0
   26.6883  -20.8396  -15.2955 C   0  0  0  0  0  0  0  0  0  0  0  0
   26.1826  -21.9099  -15.7020 O   0  0  0  0  0  0  0  0  0  0  0  0
   26.1304  -20.1910  -14.1613 N   0  0  0  0  0  0  0  0  0  0  0  0
   24.9482  -20.7459  -13.4668 C   0  0  1  0  0  0  0  0  0  0  0  0
   25.0286  -20.0386  -12.1071 C   0  0  0  0  0  0  0  0  0  0  0  0
   23.8671  -20.2844  -11.2251 C   0  0  0  0  0  0  0  0  0  0  0  0
   24.3493  -20.7252   -9.8277 C   0  0  0  0  0  0  0  0  0  0  0  0
   23.1512  -21.0154   -8.9435 C   0  0  0  0  0  0  0  0  0  0  0  0
   23.6788  -21.4439   -7.6583 N   0  0  0  0  0  0  0  0  0  0  0  0
   23.7530  -20.1750  -14.1940 C   0  0  0  0  0  0  0  0  0  0  0  0
   23.7109  -18.9021  -14.1450 O   0  0  0  0  0  0  0  0  0  0  0  0
   22.8228  -20.9874  -14.8376 N   0  0  0  0  0  0  0  0  0  0  0  0
   23.0863  -22.3919  -15.2251 C   0  0  0  0  0  0  0  0  0  0  0  0
   21.7939  -23.1054  -14.9114 C   0  0  0  0  0  0  0  0  0  0  0  0
   20.8325  -22.0063  -14.5455 C   0  0  0  0  0  0  0  0  0  0  0  0
   21.4933  -20.7936  -15.2733 C   0  0  1  0  0  0  0  0  0  0  0  0
   20.7809  -19.5791  -14.9541 C   0  0  0  0  0  0  0  0  0  0  0  0
   20.6770  -19.1993  -13.6088 O   0  0  0  0  0  0  0  0  0  0  0  0
   20.2459  -18.8321  -15.7713 O   0  0  0  0  0  0  0  0  0  0  0  0
  2  1  1  6
  2  3  1  0
  4  2  1  0
  4  5  1  6
  6  4  1  0
  7  6  2  0
  8  6  1  0
  9  8  1  0
 10 11  1  0
  9 10  1  1
 12 11  1  0
 13 14  1  0
 13 12  1  0
 15 17  1  0
 15  9  1  0
 16 15  2  0
 17 18  1  0
 19 18  1  0
 20 19  1  0
 21 17  1  0
 21 20  1  0
 22 23  1  0
 21 22  1  1
 24 22  2  0
M  END
$$$$
