TKP.pdb
     RDKit          3D

 24 24  0  0  1  0  0  0  0  0999 V2000
   35.5070   -5.2343  -15.3505 C   0  0  0  0  0  0  0  0  0  0  0  0
   34.1121   -4.6329  -15.2993 C   0  0  1  0  0  0  0  0  0  0  0  0
   34.1344   -3.3263  -15.7674 O   0  0  0  0  0  0  0  0  0  0  0  0
   33.2088   -5.5151  -16.1106 C   0  0  2  0  0  0  0  0  0  0  0  0
   31.8738   -5.0027  -16.1614 N   0  0  0  0  0  0  0  0  0  0  0  0
   33.2482   -6.9362  -15.6839 C   0  0  0  0  0  0  0  0  0  0  0  0
   32.6633   -7.3597  -14.6616 O   0  0  0  0  0  0  0  0  0  0  0  0
   33.9909   -7.8417  -16.4882 N   0  0  0  0  0  0  0  0  0  0  0  0
   34.0166   -9.2894  -16.1865 C   0  0  1  0  0  0  0  0  0  0  0  0
   33.1605   -9.8577  -17.3265 C   0  0  0  0  0  0  0  0  0  0  0  0
   32.8709  -11.3031  -17.2061 C   0  0  0  0  0  0  0  0  0  0  0  0
   32.1200  -11.7973  -18.4596 C   0  0  0  0  0  0  0  0  0  0  0  0
   31.7720  -13.2652  -18.2993 C   0  0  0  0  0  0  0  0  0  0  0  0
   31.0319  -13.6482  -19.4906 N   0  0  0  0  0  0  0  0  0  0  0  0
   35.4407   -9.7255  -16.4410 C   0  0  0  0  0  0  0  0  0  0  0  0
   35.8040   -9.5346  -17.6477 O   0  0  0  0  0  0  0  0  0  0  0  0
   36.2371  -10.2702  -15.4368 N   0  0  0  0  0  0  0  0  0  0  0  0
   35.9190  -10.1772  -13.9937 C   0  0  0  0  0  0  0  0  0  0  0  0
   36.2886  -11.5359  -13.4505 C   0  0  0  0  0  0  0  0  0  0  0  0
   36.9673  -12.2326  -14.5996 C   0  0  0  0  0  0  0  0  0  0  0  0
   37.4435  -11.0048  -15.4379 C   0  0  1  0  0  0  0  0  0  0  0  0
   38.0344  -11.4528  -16.6767 C   0  0  0  0  0  0  0  0  0  0  0  0
   37.2516  -12.2184  -17.5519 O   0  0  0  0  0  0  0  0  0  0  0  0
   39.1852  -11.2195  -17.0416 O   0  0  0  0  0  0  0  0  0  0  0  0
  2  1  1  6
  2  3  1  0
  4  2  1  0
  4  5  1  1
  6  4  1  0
  7  6  2  0
  8  6  1  0
  9  8  1  0
 10 11  1  0
  9 10  1  6
 12 11  1  0
 13 14  1  0
 13 12  1  0
 15 17  1  0
 15  9  1  0
 16 15  2  0
 17 18  1  0
 19 18  1  0
 20 19  1  0
 21 17  1  0
 21 20  1  0
 22 23  1  0
 21 22  1  6
 24 22  2  0
M  END
$$$$
