TKP.pdb
     RDKit          3D

 24 24  0  0  1  0  0  0  0  0999 V2000
   26.9750  -23.7353  -15.9430 C   0  0  0  0  0  0  0  0  0  0  0  0
   28.1563  -22.9963  -16.5500 C   0  0  1  0  0  0  0  0  0  0  0  0
   28.7197  -23.7476  -17.5722 O   0  0  0  0  0  0  0  0  0  0  0  0
   27.6593  -21.6632  -17.0279 C   0  0  2  0  0  0  0  0  0  0  0  0
   28.6672  -20.9502  -17.7510 N   0  0  0  0  0  0  0  0  0  0  0  0
   27.0608  -20.8440  -15.9444 C   0  0  0  0  0  0  0  0  0  0  0  0
   27.7391  -20.1257  -15.1760 O   0  0  0  0  0  0  0  0  0  0  0  0
   25.6493  -20.8921  -15.7899 N   0  0  0  0  0  0  0  0  0  0  0  0
   24.9642  -20.0818  -14.7595 C   0  0  1  0  0  0  0  0  0  0  0  0
   23.8429  -19.4264  -15.5772 C   0  0  0  0  0  0  0  0  0  0  0  0
   22.9389  -18.5637  -14.7859 C   0  0  0  0  0  0  0  0  0  0  0  0
   21.7630  -18.0865  -15.6628 C   0  0  0  0  0  0  0  0  0  0  0  0
   20.8337  -17.2153  -14.8387 C   0  0  0  0  0  0  0  0  0  0  0  0
   19.7110  -16.8780  -15.6985 N   0  0  0  0  0  0  0  0  0  0  0  0
   24.3118  -21.0816  -13.8332 C   0  0  0  0  0  0  0  0  0  0  0  0
   23.4309  -21.7919  -14.4200 O   0  0  0  0  0  0  0  0  0  0  0  0
   24.6660  -21.1849  -12.4904 N   0  0  0  0  0  0  0  0  0  0  0  0
   26.0617  -21.1199  -12.0007 C   0  0  0  0  0  0  0  0  0  0  0  0
   25.9667  -20.3016  -10.7361 C   0  0  0  0  0  0  0  0  0  0  0  0
   24.4892  -20.1264  -10.5072 C   0  0  0  0  0  0  0  0  0  0  0  0
   23.9298  -21.3516  -11.2965 C   0  0  1  0  0  0  0  0  0  0  0  0
   22.4866  -21.3141  -11.3072 C   0  0  0  0  0  0  0  0  0  0  0  0
   21.7914  -22.0704  -10.3535 O   0  0  0  0  0  0  0  0  0  0  0  0
   21.7973  -20.6660  -12.0927 O   0  0  0  0  0  0  0  0  0  0  0  0
  2  1  1  6
  2  3  1  0
  4  2  1  0
  4  5  1  1
  6  4  1  0
  7  6  2  0
  8  6  1  0
  9  8  1  0
 10 11  1  0
  9 10  1  6
 12 11  1  0
 13 14  1  0
 13 12  1  0
 15 17  1  0
 15  9  1  0
 16 15  2  0
 17 18  1  0
 19 18  1  0
 20 19  1  0
 21 17  1  0
 21 20  1  0
 22 23  1  0
 21 22  1  6
 24 22  2  0
M  END
$$$$
