TKP.pdb
     RDKit          3D

 24 24  0  0  1  0  0  0  0  0999 V2000
   28.4772  -21.7750  -18.3537 C   0  0  0  0  0  0  0  0  0  0  0  0
   28.6083  -23.2888  -18.3188 C   0  0  1  0  0  0  0  0  0  0  0  0
   29.7415  -23.6894  -19.0131 O   0  0  0  0  0  0  0  0  0  0  0  0
   28.6436  -23.7070  -16.8778 C   0  0  2  0  0  0  0  0  0  0  0  0
   28.7345  -25.1283  -16.7408 N   0  0  0  0  0  0  0  0  0  0  0  0
   27.5294  -23.1367  -16.0800 C   0  0  0  0  0  0  0  0  0  0  0  0
   26.4226  -23.7059  -15.9467 O   0  0  0  0  0  0  0  0  0  0  0  0
   27.7509  -21.8848  -15.4462 N   0  0  0  0  0  0  0  0  0  0  0  0
   26.7120  -21.2623  -14.5970 C   0  0  1  0  0  0  0  0  0  0  0  0
   27.5540  -20.3390  -13.7059 C   0  0  0  0  0  0  0  0  0  0  0  0
   26.7747  -19.6018  -12.6876 C   0  0  0  0  0  0  0  0  0  0  0  0
   26.2241  -20.5827  -11.6321 C   0  0  0  0  0  0  0  0  0  0  0  0
   25.4309  -19.8171  -10.5898 C   0  0  0  0  0  0  0  0  0  0  0  0
   25.0200  -20.7864   -9.5873 N   0  0  0  0  0  0  0  0  0  0  0  0
   25.9145  -20.3766  -15.5258 C   0  0  0  0  0  0  0  0  0  0  0  0
   26.6225  -19.4596  -16.0573 O   0  0  0  0  0  0  0  0  0  0  0  0
   24.5549  -20.5766  -15.7507 N   0  0  0  0  0  0  0  0  0  0  0  0
   23.8203  -21.7890  -15.3235 C   0  0  0  0  0  0  0  0  0  0  0  0
   22.4979  -21.2580  -14.8263 C   0  0  0  0  0  0  0  0  0  0  0  0
   22.5150  -19.7969  -15.1886 C   0  0  0  0  0  0  0  0  0  0  0  0
   23.5428  -19.8051  -16.3636 C   0  0  1  0  0  0  0  0  0  0  0  0
   23.8053  -18.4538  -16.7986 C   0  0  0  0  0  0  0  0  0  0  0  0
   23.9028  -17.4466  -15.8286 O   0  0  0  0  0  0  0  0  0  0  0  0
   23.9541  -18.0982  -17.9663 O   0  0  0  0  0  0  0  0  0  0  0  0
  2  1  1  1
  2  3  1  0
  4  2  1  0
  4  5  1  6
  6  4  1  0
  7  6  2  0
  8  6  1  0
  9  8  1  0
 10 11  1  0
  9 10  1  1
 12 11  1  0
 13 14  1  0
 13 12  1  0
 15 17  1  0
 15  9  1  0
 16 15  2  0
 17 18  1  0
 19 18  1  0
 20 19  1  0
 21 17  1  0
 21 20  1  0
 22 23  1  0
 21 22  1  1
 24 22  2  0
M  END
$$$$
