QIC.pdb
     RDKit          3D

 24 23  0  0  1  0  0  0  0  0999 V2000
   20.0377  -15.9698  -17.7551 N   0  0  0  0  0  0  0  0  0  0  0  0
   20.7446  -16.2260  -18.9869 C   0  0  0  0  0  0  0  0  0  0  0  0
   20.3615  -17.2028  -19.6693 O   0  0  0  0  0  0  0  0  0  0  0  0
   21.8496  -15.3496  -19.3705 C   0  0  0  0  0  0  0  0  0  0  0  0
   22.0763  -14.2317  -18.4087 C   0  0  0  0  0  0  0  0  0  0  0  0
   23.4189  -14.2663  -17.7607 C   0  0  2  0  0  0  0  0  0  0  0  0
   23.6154  -15.5407  -17.0531 N   0  0  0  0  0  0  0  0  0  0  0  0
   23.5922  -13.1446  -16.7806 C   0  0  0  0  0  0  0  0  0  0  0  0
   23.1659  -13.3235  -15.6106 O   0  0  0  0  0  0  0  0  0  0  0  0
   28.2578  -11.2399  -16.2747 C   0  0  0  0  0  0  0  0  0  0  0  0
   26.8083  -11.6039  -16.0451 C   0  0  0  0  0  0  0  0  0  0  0  0
   25.8635  -10.4845  -16.3067 C   0  0  2  0  0  0  0  0  0  0  0  0
   26.2393   -9.2191  -15.5570 C   0  0  0  0  0  0  0  0  0  0  0  0
   24.4210  -10.8296  -16.1406 C   0  0  2  0  0  0  0  0  0  0  0  0
   24.1998  -11.9282  -17.1139 N   0  0  0  0  0  0  0  0  0  0  0  0
   23.4591   -9.7834  -16.4875 C   0  0  0  0  0  0  0  0  0  0  0  0
   23.4231   -9.2896  -17.6758 O   0  0  0  0  0  0  0  0  0  0  0  0
   22.4919   -9.2092  -15.6136 N   0  0  0  0  0  0  0  0  0  0  0  0
   21.5814   -8.1621  -16.0411 C   0  0  1  0  0  0  0  0  0  0  0  0
   20.1865   -8.5613  -15.5433 C   0  0  0  0  0  0  0  0  0  0  0  0
   19.7835  -10.2583  -16.0413 S   0  0  0  0  0  0  0  0  0  0  0  0
   21.8948   -6.8663  -15.4046 C   0  0  0  0  0  0  0  0  0  0  0  0
   21.2402   -5.7070  -15.7548 O   0  0  0  0  0  0  0  0  0  0  0  0
   22.7789   -6.8259  -14.5244 O   0  0  0  0  0  0  0  0  0  0  0  0
  1  2  1  0
  2  3  2  0
  4  5  1  0
  4  2  1  0
  5  6  1  0
  6  7  1  1
  8  6  1  0
  9  8  2  0
 11 10  1  0
 11 12  1  0
 12 14  1  0
 12 13  1  1
 14 15  1  6
 15  8  1  0
 16 17  2  0
 16 14  1  0
 18 16  1  0
 19 18  1  0
 19 20  1  1
 21 20  1  0
 22 19  1  0
 23 22  1  0
 24 22  2  0
M  END
$$$$
