QIC.pdb
     RDKit          3D

 24 23  0  0  1  0  0  0  0  0999 V2000
   26.9916  -25.5716  -16.2313 N   0  0  0  0  0  0  0  0  0  0  0  0
   27.8051  -25.9851  -17.3493 C   0  0  0  0  0  0  0  0  0  0  0  0
   27.4549  -27.0238  -17.9535 O   0  0  0  0  0  0  0  0  0  0  0  0
   28.9733  -25.1865  -17.7152 C   0  0  0  0  0  0  0  0  0  0  0  0
   29.1831  -24.0074  -16.8252 C   0  0  0  0  0  0  0  0  0  0  0  0
   28.5398  -22.7596  -17.3280 C   0  0  2  0  0  0  0  0  0  0  0  0
   29.2462  -22.2604  -18.5177 N   0  0  0  0  0  0  0  0  0  0  0  0
   28.5342  -21.6792  -16.2881 C   0  0  0  0  0  0  0  0  0  0  0  0
   29.3966  -20.7691  -16.3904 O   0  0  0  0  0  0  0  0  0  0  0  0
   27.5450  -17.6496  -17.0117 C   0  0  0  0  0  0  0  0  0  0  0  0
   28.0316  -18.7621  -16.1109 C   0  0  0  0  0  0  0  0  0  0  0  0
   26.9493  -19.4009  -15.3140 C   0  0  2  0  0  0  0  0  0  0  0  0
   26.0435  -18.3841  -14.6432 C   0  0  0  0  0  0  0  0  0  0  0  0
   27.4092  -20.4573  -14.3653 C   0  0  2  0  0  0  0  0  0  0  0  0
   27.6212  -21.6469  -15.2273 N   0  0  0  0  0  0  0  0  0  0  0  0
   26.4521  -20.8686  -13.3381 C   0  0  0  0  0  0  0  0  0  0  0  0
   25.3139  -21.3743  -13.6633 O   0  0  0  0  0  0  0  0  0  0  0  0
   26.6405  -20.7742  -11.9294 N   0  0  0  0  0  0  0  0  0  0  0  0
   25.5939  -21.1091  -10.9804 C   0  0  1  0  0  0  0  0  0  0  0  0
   26.0554  -20.5874   -9.6137 C   0  0  0  0  0  0  0  0  0  0  0  0
   24.8102  -20.9250   -8.3388 S   0  0  0  0  0  0  0  0  0  0  0  0
   24.3290  -20.4100  -11.2864 C   0  0  0  0  0  0  0  0  0  0  0  0
   23.1058  -21.0271  -11.1508 O   0  0  0  0  0  0  0  0  0  0  0  0
   24.3750  -19.2260  -11.6790 O   0  0  0  0  0  0  0  0  0  0  0  0
  1  2  1  0
  2  3  2  0
  4  5  1  0
  4  2  1  0
  5  6  1  0
  6  7  1  6
  8  6  1  0
  9  8  2  0
 11 10  1  0
 11 12  1  0
 12 14  1  0
 12 13  1  1
 14 15  1  6
 15  8  1  0
 16 17  2  0
 16 14  1  0
 18 16  1  0
 19 18  1  0
 19 20  1  1
 21 20  1  0
 22 19  1  0
 23 22  1  0
 24 22  2  0
M  END
$$$$
