QIC.pdb
     RDKit          3D

 24 23  0  0  1  0  0  0  0  0999 V2000
   29.0999  -18.0870  -17.5695 N   0  0  0  0  0  0  0  0  0  0  0  0
   28.1887  -18.8589  -18.3796 C   0  0  0  0  0  0  0  0  0  0  0  0
   28.3731  -18.8399  -19.6175 O   0  0  0  0  0  0  0  0  0  0  0  0
   27.1177  -19.6111  -17.7287 C   0  0  0  0  0  0  0  0  0  0  0  0
   27.0670  -19.4056  -16.2517 C   0  0  0  0  0  0  0  0  0  0  0  0
   27.5062  -20.5965  -15.4691 C   0  0  2  0  0  0  0  0  0  0  0  0
   27.8753  -21.6974  -16.3721 N   0  0  0  0  0  0  0  0  0  0  0  0
   26.4313  -21.0798  -14.5421 C   0  0  0  0  0  0  0  0  0  0  0  0
   25.6965  -22.0190  -14.9429 O   0  0  0  0  0  0  0  0  0  0  0  0
   27.5593  -20.7834   -9.3553 C   0  0  0  0  0  0  0  0  0  0  0  0
   26.9624  -21.2895  -10.6490 C   0  0  0  0  0  0  0  0  0  0  0  0
   25.6619  -20.6542  -10.9946 C   0  0  2  0  0  0  0  0  0  0  0  0
   24.6121  -20.8545   -9.9165 C   0  0  0  0  0  0  0  0  0  0  0  0
   25.1431  -20.9870  -12.3540 C   0  0  2  0  0  0  0  0  0  0  0  0
   26.2194  -20.5342  -13.2703 N   0  0  0  0  0  0  0  0  0  0  0  0
   23.9315  -20.2843  -12.7763 C   0  0  0  0  0  0  0  0  0  0  0  0
   24.0046  -19.1476  -13.3761 O   0  0  0  0  0  0  0  0  0  0  0  0
   22.5928  -20.7362  -12.5954 N   0  0  0  0  0  0  0  0  0  0  0  0
   21.4988  -20.2841  -13.4361 C   0  0  1  0  0  0  0  0  0  0  0  0
   21.7795  -20.8154  -14.8475 C   0  0  0  0  0  0  0  0  0  0  0  0
   20.3946  -20.4538  -15.9617 S   0  0  0  0  0  0  0  0  0  0  0  0
   20.2074  -20.8693  -13.0211 C   0  0  0  0  0  0  0  0  0  0  0  0
   20.1045  -22.1729  -12.5907 O   0  0  0  0  0  0  0  0  0  0  0  0
   19.1826  -20.1580  -13.0635 O   0  0  0  0  0  0  0  0  0  0  0  0
  1  2  1  0
  2  3  2  0
  4  5  1  0
  4  2  1  0
  5  6  1  0
  6  7  1  6
  8  6  1  0
  9  8  2  0
 11 10  1  0
 11 12  1  0
 12 14  1  0
 12 13  1  1
 14 15  1  6
 15  8  1  0
 16 17  2  0
 16 14  1  0
 18 16  1  0
 19 18  1  0
 19 20  1  6
 21 20  1  0
 22 19  1  0
 23 22  1  0
 24 22  2  0
M  END
$$$$
