QIC.pdb
     RDKit          3D

 24 23  0  0  1  0  0  0  0  0999 V2000
   27.3624  -16.6528  -14.8574 N   0  0  0  0  0  0  0  0  0  0  0  0
   28.1497  -16.9191  -16.0372 C   0  0  0  0  0  0  0  0  0  0  0  0
   28.9994  -16.0584  -16.3596 O   0  0  0  0  0  0  0  0  0  0  0  0
   27.9223  -18.1560  -16.7819 C   0  0  0  0  0  0  0  0  0  0  0  0
   26.9739  -19.0866  -16.1032 C   0  0  0  0  0  0  0  0  0  0  0  0
   27.6249  -19.9664  -15.0903 C   0  0  2  0  0  0  0  0  0  0  0  0
   28.5286  -20.9240  -15.7460 N   0  0  0  0  0  0  0  0  0  0  0  0
   26.6156  -20.7340  -14.2899 C   0  0  0  0  0  0  0  0  0  0  0  0
   26.3594  -21.9112  -14.6523 O   0  0  0  0  0  0  0  0  0  0  0  0
   26.8705  -20.1481   -9.0596 C   0  0  0  0  0  0  0  0  0  0  0  0
   26.5988  -20.7850  -10.4037 C   0  0  0  0  0  0  0  0  0  0  0  0
   25.2535  -20.4663  -10.9538 C   0  0  2  0  0  0  0  0  0  0  0  0
   24.1322  -20.8394  -10.0009 C   0  0  0  0  0  0  0  0  0  0  0  0
   25.0066  -20.9686  -12.3374 C   0  0  2  0  0  0  0  0  0  0  0  0
   25.9601  -20.1985  -13.1748 N   0  0  0  0  0  0  0  0  0  0  0  0
   23.6792  -20.7093  -12.8950 C   0  0  0  0  0  0  0  0  0  0  0  0
   23.2473  -19.5046  -13.0342 O   0  0  0  0  0  0  0  0  0  0  0  0
   22.7468  -21.6923  -13.3344 N   0  0  0  0  0  0  0  0  0  0  0  0
   21.4420  -21.3436  -13.8674 C   0  0  1  0  0  0  0  0  0  0  0  0
   20.9796  -22.5358  -14.7147 C   0  0  0  0  0  0  0  0  0  0  0  0
   22.2681  -23.0310  -15.8914 S   0  0  0  0  0  0  0  0  0  0  0  0
   20.4363  -21.1792  -12.7978 C   0  0  0  0  0  0  0  0  0  0  0  0
   19.2127  -20.5942  -13.0338 O   0  0  0  0  0  0  0  0  0  0  0  0
   20.7079  -21.5836  -11.6485 O   0  0  0  0  0  0  0  0  0  0  0  0
  1  2  1  0
  2  3  2  0
  4  5  1  0
  4  2  1  0
  5  6  1  0
  6  7  1  6
  8  6  1  0
  9  8  2  0
 11 10  1  0
 11 12  1  0
 12 14  1  0
 12 13  1  1
 14 15  1  6
 15  8  1  0
 16 17  2  0
 16 14  1  0
 18 16  1  0
 19 18  1  0
 19 20  1  6
 21 20  1  0
 22 19  1  0
 23 22  1  0
 24 22  2  0
M  END
$$$$
