QIC.pdb
     RDKit          3D

 24 23  0  0  1  0  0  0  0  0999 V2000
   23.7057  -24.5666  -15.4891 N   0  0  0  0  0  0  0  0  0  0  0  0
   25.0076  -24.7880  -14.9071 C   0  0  0  0  0  0  0  0  0  0  0  0
   25.6465  -25.7871  -15.3074 O   0  0  0  0  0  0  0  0  0  0  0  0
   25.5070  -23.8534  -13.9004 C   0  0  0  0  0  0  0  0  0  0  0  0
   24.5861  -22.7057  -13.6536 C   0  0  0  0  0  0  0  0  0  0  0  0
   24.6569  -21.6486  -14.7031 C   0  0  2  0  0  0  0  0  0  0  0  0
   25.9600  -20.9677  -14.6597 N   0  0  0  0  0  0  0  0  0  0  0  0
   23.5766  -20.6228  -14.5327 C   0  0  0  0  0  0  0  0  0  0  0  0
   23.7171  -19.7777  -13.6114 O   0  0  0  0  0  0  0  0  0  0  0  0
   20.9279  -16.3244  -16.9638 C   0  0  0  0  0  0  0  0  0  0  0  0
   20.4119  -17.6865  -16.5581 C   0  0  0  0  0  0  0  0  0  0  0  0
   21.4828  -18.7079  -16.4025 C   0  0  2  0  0  0  0  0  0  0  0  0
   21.6898  -19.5300  -17.6617 C   0  0  0  0  0  0  0  0  0  0  0  0
   21.3613  -19.5634  -15.1856 C   0  0  2  0  0  0  0  0  0  0  0  0
   22.4384  -20.5720  -15.3463 N   0  0  0  0  0  0  0  0  0  0  0  0
   20.1173  -20.3204  -15.0457 C   0  0  0  0  0  0  0  0  0  0  0  0
   19.7448  -21.1495  -15.9573 O   0  0  0  0  0  0  0  0  0  0  0  0
   19.2101  -20.2491  -13.9499 N   0  0  0  0  0  0  0  0  0  0  0  0
   17.9731  -21.0085  -13.9133 C   0  0  1  0  0  0  0  0  0  0  0  0
   17.6305  -21.2208  -12.4333 C   0  0  0  0  0  0  0  0  0  0  0  0
   19.0061  -22.0168  -11.5591 S   0  0  0  0  0  0  0  0  0  0  0  0
   16.8456  -20.2527  -14.4965 C   0  0  0  0  0  0  0  0  0  0  0  0
   15.6317  -20.8459  -14.7606 O   0  0  0  0  0  0  0  0  0  0  0  0
   17.0024  -19.0418  -14.7557 O   0  0  0  0  0  0  0  0  0  0  0  0
  1  2  1  0
  2  3  2  0
  4  5  1  0
  4  2  1  0
  5  6  1  0
  6  7  1  1
  8  6  1  0
  9  8  2  0
 11 10  1  0
 11 12  1  0
 12 14  1  0
 12 13  1  6
 14 15  1  6
 15  8  1  0
 16 17  2  0
 16 14  1  0
 18 16  1  0
 19 18  1  0
 19 20  1  1
 21 20  1  0
 22 19  1  0
 23 22  1  0
 24 22  2  0
M  END
$$$$
