MGH.pdb
     RDKit          3D

 23 23  0  0  1  0  0  0  0  0999 V2000
    5.3349  -11.3982   26.3916 C   0  0  0  0  0  0  0  0  0  0  0  0
    6.6015  -12.1957   25.3351 S   0  0  0  0  0  0  0  0  0  0  0  0
    6.2628  -13.9719   25.2413 C   0  0  0  0  0  0  0  0  0  0  0  0
    6.1374  -14.4128   23.7771 C   0  0  0  0  0  0  0  0  0  0  0  0
    6.8813  -15.6990   23.5478 C   0  0  2  0  0  0  0  0  0  0  0  0
    7.1207  -16.4022   24.7918 N   0  0  0  0  0  0  0  0  0  0  0  0
    8.1524  -15.4491   22.8180 C   0  0  0  0  0  0  0  0  0  0  0  0
    8.1601  -14.9338   21.6708 O   0  0  0  0  0  0  0  0  0  0  0  0
    9.3982  -15.7801   23.3838 N   0  0  0  0  0  0  0  0  0  0  0  0
   10.6624  -15.5525   22.7269 C   0  0  0  0  0  0  0  0  0  0  0  0
   11.7800  -15.9646   23.5925 C   0  0  0  0  0  0  0  0  0  0  0  0
   12.9473  -15.9722   23.1298 O   0  0  0  0  0  0  0  0  0  0  0  0
   11.6321  -16.3637   24.9447 N   0  0  0  0  0  0  0  0  0  0  0  0
   12.6661  -17.0558   25.6947 C   0  0  1  0  0  0  0  0  0  0  0  0
   12.2498  -17.4001   27.0775 C   0  0  0  0  0  0  0  0  0  0  0  0
   11.6765  -16.2107   27.7370 C   0  0  0  0  0  0  0  0  0  0  0  0
   11.3242  -15.0519   27.0440 C   0  0  0  0  0  0  0  0  0  0  0  0
   10.8327  -14.1413   27.8958 N   0  0  0  0  0  0  0  0  0  0  0  0
   10.8624  -14.6907   29.1165 C   0  0  0  0  0  0  0  0  0  0  0  0
   11.3781  -15.9511   29.0080 N   0  0  0  0  0  0  0  0  0  0  0  0
   12.9656  -18.3051   24.9529 C   0  0  0  0  0  0  0  0  0  0  0  0
   14.0538  -19.1207   25.1789 O   0  0  0  0  0  0  0  0  0  0  0  0
   12.1878  -18.7063   24.0165 O   0  0  0  0  0  0  0  0  0  0  0  0
  2  1  1  0
  3  4  1  0
  3  2  1  0
  5  7  1  0
  5  4  1  0
  5  6  1  1
  7  9  1  0
  8  7  2  0
  9 10  1  0
 11 10  1  0
 11 12  2  0
 13 11  1  0
 14 13  1  0
 14 15  1  1
 15 16  1  0
 16 20  1  0
 16 17  2  0
 17 18  1  0
 19 18  1  0
 20 19  2  0
 21 14  1  0
 22 21  1  0
 23 21  2  0
M  END
$$$$
