MGH.pdb
     RDKit          3D

 23 23  0  0  1  0  0  0  0  0999 V2000
    7.7960  -11.9718   21.4975 C   0  0  0  0  0  0  0  0  0  0  0  0
    7.3793  -12.6547   23.1457 S   0  0  0  0  0  0  0  0  0  0  0  0
    6.9498  -14.4049   22.9713 C   0  0  0  0  0  0  0  0  0  0  0  0
    7.4932  -14.9565   21.6467 C   0  0  0  0  0  0  0  0  0  0  0  0
    8.1413  -16.2963   21.8593 C   0  0  2  0  0  0  0  0  0  0  0  0
    7.4817  -17.0436   22.9108 N   0  0  0  0  0  0  0  0  0  0  0  0
    9.5931  -16.1403   22.1396 C   0  0  0  0  0  0  0  0  0  0  0  0
   10.3656  -15.5903   21.3136 O   0  0  0  0  0  0  0  0  0  0  0  0
   10.1599  -16.6029   23.3423 N   0  0  0  0  0  0  0  0  0  0  0  0
   11.5185  -16.3310   23.7444 C   0  0  0  0  0  0  0  0  0  0  0  0
   11.5758  -15.9644   25.1693 C   0  0  0  0  0  0  0  0  0  0  0  0
   12.6534  -15.5382   25.6531 O   0  0  0  0  0  0  0  0  0  0  0  0
   10.4760  -16.0591   26.0588 N   0  0  0  0  0  0  0  0  0  0  0  0
   10.5813  -15.8397   27.4910 C   0  0  1  0  0  0  0  0  0  0  0  0
    9.2986  -15.4224   28.1113 C   0  0  0  0  0  0  0  0  0  0  0  0
    8.6322  -14.4220   27.2549 C   0  0  0  0  0  0  0  0  0  0  0  0
    9.0726  -13.1027   27.1418 C   0  0  0  0  0  0  0  0  0  0  0  0
    8.2789  -12.4264   26.2997 N   0  0  0  0  0  0  0  0  0  0  0  0
    7.3420  -13.2820   25.8721 C   0  0  0  0  0  0  0  0  0  0  0  0
    7.5668  -14.4945   26.4603 N   0  0  0  0  0  0  0  0  0  0  0  0
   11.0126  -17.1274   28.0881 C   0  0  0  0  0  0  0  0  0  0  0  0
   11.3372  -17.3180   29.4143 O   0  0  0  0  0  0  0  0  0  0  0  0
   11.1109  -18.1789   27.3619 O   0  0  0  0  0  0  0  0  0  0  0  0
  2  1  1  0
  3  4  1  0
  3  2  1  0
  5  7  1  0
  5  4  1  0
  5  6  1  1
  7  9  1  0
  8  7  2  0
  9 10  1  0
 11 10  1  0
 11 12  2  0
 13 11  1  0
 14 13  1  0
 14 15  1  1
 15 16  1  0
 16 20  1  0
 16 17  2  0
 17 18  1  0
 19 18  1  0
 20 19  2  0
 21 14  1  0
 22 21  1  0
 23 21  2  0
M  END
$$$$
