MGH.pdb
     RDKit          3D

 23 23  0  0  1  0  0  0  0  0999 V2000
    8.0138  -11.5021   20.2669 C   0  0  0  0  0  0  0  0  0  0  0  0
    8.1217  -12.8896   19.0753 S   0  0  0  0  0  0  0  0  0  0  0  0
    6.8220  -14.0938   19.4479 C   0  0  0  0  0  0  0  0  0  0  0  0
    6.8575  -14.4720   20.9344 C   0  0  0  0  0  0  0  0  0  0  0  0
    8.1419  -15.1783   21.2686 C   0  0  2  0  0  0  0  0  0  0  0  0
    8.5926  -16.0077   20.1695 N   0  0  0  0  0  0  0  0  0  0  0  0
    7.9967  -15.9723   22.5173 C   0  0  0  0  0  0  0  0  0  0  0  0
    7.1269  -15.6864   23.3793 O   0  0  0  0  0  0  0  0  0  0  0  0
    8.8285  -17.0764   22.7831 N   0  0  0  0  0  0  0  0  0  0  0  0
   10.2055  -16.9608   23.1979 C   0  0  0  0  0  0  0  0  0  0  0  0
   10.2908  -16.5579   24.6116 C   0  0  0  0  0  0  0  0  0  0  0  0
   11.3995  -16.2096   25.0872 O   0  0  0  0  0  0  0  0  0  0  0  0
    9.1854  -16.5332   25.4986 N   0  0  0  0  0  0  0  0  0  0  0  0
    9.2743  -16.0902   26.8794 C   0  0  1  0  0  0  0  0  0  0  0  0
    7.9567  -15.7287   27.4602 C   0  0  0  0  0  0  0  0  0  0  0  0
    7.5015  -14.4405   26.9019 C   0  0  0  0  0  0  0  0  0  0  0  0
    6.3610  -14.3158   26.1076 C   0  0  0  0  0  0  0  0  0  0  0  0
    6.1942  -13.0364   25.7446 N   0  0  0  0  0  0  0  0  0  0  0  0
    7.2009  -12.3407   26.2881 C   0  0  0  0  0  0  0  0  0  0  0  0
    7.9910  -13.2059   26.9908 N   0  0  0  0  0  0  0  0  0  0  0  0
    9.8521  -17.2174   27.6515 C   0  0  0  0  0  0  0  0  0  0  0  0
   10.3999  -17.1171   28.9126 O   0  0  0  0  0  0  0  0  0  0  0  0
    9.8724  -18.3997   27.1572 O   0  0  0  0  0  0  0  0  0  0  0  0
  2  1  1  0
  3  4  1  0
  3  2  1  0
  5  7  1  0
  5  4  1  0
  5  6  1  6
  7  9  1  0
  8  7  2  0
  9 10  1  0
 11 10  1  0
 11 12  2  0
 13 11  1  0
 14 13  1  0
 14 15  1  1
 15 16  1  0
 16 20  1  0
 16 17  2  0
 17 18  1  0
 19 18  1  0
 20 19  2  0
 21 14  1  0
 22 21  1  0
 23 21  2  0
M  END
$$$$
