MGH.pdb
     RDKit          3D

 23 23  0  0  1  0  0  0  0  0999 V2000
    6.4693  -12.3717   27.1339 C   0  0  0  0  0  0  0  0  0  0  0  0
    7.2818  -12.2243   25.4985 S   0  0  0  0  0  0  0  0  0  0  0  0
    6.8575  -13.6691   24.4931 C   0  0  0  0  0  0  0  0  0  0  0  0
    7.5402  -13.5819   23.1218 C   0  0  0  0  0  0  0  0  0  0  0  0
    7.8213  -14.9574   22.5840 C   0  0  2  0  0  0  0  0  0  0  0  0
    7.0789  -15.9710   23.3055 N   0  0  0  0  0  0  0  0  0  0  0  0
    9.2804  -15.2427   22.6044 C   0  0  0  0  0  0  0  0  0  0  0  0
   10.1125  -14.4430   22.1047 O   0  0  0  0  0  0  0  0  0  0  0  0
    9.7875  -16.4207   23.1846 N   0  0  0  0  0  0  0  0  0  0  0  0
   11.1920  -16.7460   23.2407 C   0  0  0  0  0  0  0  0  0  0  0  0
   11.5989  -17.0586   24.6208 C   0  0  0  0  0  0  0  0  0  0  0  0
   12.8170  -17.2129   24.8841 O   0  0  0  0  0  0  0  0  0  0  0  0
   10.6940  -17.2020   25.7026 N   0  0  0  0  0  0  0  0  0  0  0  0
   11.1045  -17.5567   27.0503 C   0  0  1  0  0  0  0  0  0  0  0  0
   10.1989  -17.0161   28.0952 C   0  0  0  0  0  0  0  0  0  0  0  0
   10.0553  -15.5571   27.9254 C   0  0  0  0  0  0  0  0  0  0  0  0
   10.6369  -14.6294   28.7904 C   0  0  0  0  0  0  0  0  0  0  0  0
   10.3388  -13.3844   28.3932 N   0  0  0  0  0  0  0  0  0  0  0  0
    9.5809  -13.4946   27.2950 C   0  0  0  0  0  0  0  0  0  0  0  0
    9.4146  -14.8223   27.0191 N   0  0  0  0  0  0  0  0  0  0  0  0
   11.0972  -19.0384   27.1211 C   0  0  0  0  0  0  0  0  0  0  0  0
   10.7290  -19.8802   26.0934 O   0  0  0  0  0  0  0  0  0  0  0  0
   11.4497  -19.6385   28.1974 O   0  0  0  0  0  0  0  0  0  0  0  0
  2  1  1  0
  3  4  1  0
  3  2  1  0
  5  7  1  0
  5  4  1  0
  5  6  1  1
  7  9  1  0
  8  7  2  0
  9 10  1  0
 11 10  1  0
 11 12  2  0
 13 11  1  0
 14 13  1  0
 14 15  1  1
 15 16  1  0
 16 20  1  0
 16 17  2  0
 17 18  1  0
 19 18  1  0
 20 19  2  0
 21 14  1  0
 22 21  1  0
 23 21  2  0
M  END
$$$$
