MGH.pdb
     RDKit          3D

 23 23  0  0  1  0  0  0  0  0999 V2000
    7.5859  -10.9020   20.2210 C   0  0  0  0  0  0  0  0  0  0  0  0
    8.7850  -12.0421   19.4344 S   0  0  0  0  0  0  0  0  0  0  0  0
    8.1315  -13.7293   19.5019 C   0  0  0  0  0  0  0  0  0  0  0  0
    9.1505  -14.7181   18.9206 C   0  0  0  0  0  0  0  0  0  0  0  0
    8.5822  -16.1098   18.8992 C   0  0  2  0  0  0  0  0  0  0  0  0
    7.5006  -16.2264   17.9422 N   0  0  0  0  0  0  0  0  0  0  0  0
    8.1437  -16.5204   20.2593 C   0  0  0  0  0  0  0  0  0  0  0  0
    6.9711  -16.3100   20.6621 O   0  0  0  0  0  0  0  0  0  0  0  0
    9.0254  -17.1617   21.1498 N   0  0  0  0  0  0  0  0  0  0  0  0
    8.6449  -17.6182   22.4644 C   0  0  0  0  0  0  0  0  0  0  0  0
    9.2735  -16.7881   23.5055 C   0  0  0  0  0  0  0  0  0  0  0  0
   10.4067  -16.2896   23.2952 O   0  0  0  0  0  0  0  0  0  0  0  0
    8.6789  -16.5024   24.7602 N   0  0  0  0  0  0  0  0  0  0  0  0
    9.3644  -15.8005   25.8317 C   0  0  1  0  0  0  0  0  0  0  0  0
    8.4422  -15.2982   26.8812 C   0  0  0  0  0  0  0  0  0  0  0  0
    7.6334  -14.1864   26.3447 C   0  0  0  0  0  0  0  0  0  0  0  0
    8.0888  -13.3283   25.3429 C   0  0  0  0  0  0  0  0  0  0  0  0
    7.1471  -12.4183   25.0573 N   0  0  0  0  0  0  0  0  0  0  0  0
    6.1009  -12.6745   25.8526 C   0  0  0  0  0  0  0  0  0  0  0  0
    6.4080  -13.7535   26.6325 N   0  0  0  0  0  0  0  0  0  0  0  0
   10.3090  -16.7697   26.4392 C   0  0  0  0  0  0  0  0  0  0  0  0
   11.3946  -16.4364   27.2208 O   0  0  0  0  0  0  0  0  0  0  0  0
   10.1543  -18.0287   26.2559 O   0  0  0  0  0  0  0  0  0  0  0  0
  2  1  1  0
  3  4  1  0
  3  2  1  0
  5  7  1  0
  5  4  1  0
  5  6  1  6
  7  9  1  0
  8  7  2  0
  9 10  1  0
 11 10  1  0
 11 12  2  0
 13 11  1  0
 14 13  1  0
 14 15  1  1
 15 16  1  0
 16 20  1  0
 16 17  2  0
 17 18  1  0
 19 18  1  0
 20 19  2  0
 21 14  1  0
 22 21  1  0
 23 21  2  0
M  END
$$$$
