MGH.pdb
     RDKit          3D

 23 23  0  0  1  0  0  0  0  0999 V2000
    6.1030  -11.2165   26.8492 C   0  0  0  0  0  0  0  0  0  0  0  0
    7.3449  -11.9916   25.7476 S   0  0  0  0  0  0  0  0  0  0  0  0
    6.5006  -13.0922   24.5838 C   0  0  0  0  0  0  0  0  0  0  0  0
    7.5137  -13.7285   23.6232 C   0  0  0  0  0  0  0  0  0  0  0  0
    8.0164  -15.0335   24.1751 C   0  0  2  0  0  0  0  0  0  0  0  0
    8.5729  -14.8687   25.5026 N   0  0  0  0  0  0  0  0  0  0  0  0
    9.0039  -15.6507   23.2506 C   0  0  0  0  0  0  0  0  0  0  0  0
    8.6377  -16.3224   22.2525 O   0  0  0  0  0  0  0  0  0  0  0  0
   10.3889  -15.5067   23.4572 N   0  0  0  0  0  0  0  0  0  0  0  0
   11.3658  -16.4878   23.0516 C   0  0  0  0  0  0  0  0  0  0  0  0
   11.8388  -17.2614   24.2117 C   0  0  0  0  0  0  0  0  0  0  0  0
   12.8201  -18.0335   24.0788 O   0  0  0  0  0  0  0  0  0  0  0  0
   11.2534  -17.1975   25.5012 N   0  0  0  0  0  0  0  0  0  0  0  0
   11.8134  -17.8539   26.6700 C   0  0  1  0  0  0  0  0  0  0  0  0
   11.0346  -17.6005   27.9083 C   0  0  0  0  0  0  0  0  0  0  0  0
   10.5840  -16.1953   27.9360 C   0  0  0  0  0  0  0  0  0  0  0  0
   11.0020  -15.2437   27.0050 C   0  0  0  0  0  0  0  0  0  0  0  0
   10.4353  -14.0596   27.2756 N   0  0  0  0  0  0  0  0  0  0  0  0
    9.6651  -14.2321   28.3572 C   0  0  0  0  0  0  0  0  0  0  0  0
    9.7632  -15.5366   28.7510 N   0  0  0  0  0  0  0  0  0  0  0  0
   11.8092  -19.3094   26.3835 C   0  0  0  0  0  0  0  0  0  0  0  0
   11.0749  -19.9203   25.3894 O   0  0  0  0  0  0  0  0  0  0  0  0
   12.5237  -20.1108   27.0834 O   0  0  0  0  0  0  0  0  0  0  0  0
  2  1  1  0
  3  4  1  0
  3  2  1  0
  5  7  1  0
  5  4  1  0
  5  6  1  1
  7  9  1  0
  8  7  2  0
  9 10  1  0
 11 10  1  0
 11 12  2  0
 13 11  1  0
 14 13  1  0
 14 15  1  1
 15 16  1  0
 16 20  1  0
 16 17  2  0
 17 18  1  0
 19 18  1  0
 20 19  2  0
 21 14  1  0
 22 21  1  0
 23 21  2  0
M  END
$$$$
