MGH.pdb
     RDKit          3D

 23 23  0  0  1  0  0  0  0  0999 V2000
    7.1648  -10.7255   27.4011 C   0  0  0  0  0  0  0  0  0  0  0  0
    7.3440  -11.8709   25.9825 S   0  0  0  0  0  0  0  0  0  0  0  0
    6.2158  -13.2697   26.2034 C   0  0  0  0  0  0  0  0  0  0  0  0
    6.2982  -14.2151   24.9977 C   0  0  0  0  0  0  0  0  0  0  0  0
    7.0527  -15.4646   25.3577 C   0  0  2  0  0  0  0  0  0  0  0  0
    8.4769  -15.3039   25.1455 N   0  0  0  0  0  0  0  0  0  0  0  0
    6.5253  -16.6334   24.6050 C   0  0  0  0  0  0  0  0  0  0  0  0
    5.3623  -17.0698   24.8012 O   0  0  0  0  0  0  0  0  0  0  0  0
    7.3085  -17.2975   23.6421 N   0  0  0  0  0  0  0  0  0  0  0  0
    7.7257  -18.6737   23.7592 C   0  0  0  0  0  0  0  0  0  0  0  0
    9.1454  -18.7562   24.1408 C   0  0  0  0  0  0  0  0  0  0  0  0
    9.7328  -19.8650   24.0932 O   0  0  0  0  0  0  0  0  0  0  0  0
    9.9185  -17.6479   24.5692 N   0  0  0  0  0  0  0  0  0  0  0  0
   11.3492  -17.7138   24.8129 C   0  0  1  0  0  0  0  0  0  0  0  0
   12.0606  -16.4650   24.4408 C   0  0  0  0  0  0  0  0  0  0  0  0
   11.8488  -16.1774   23.0088 C   0  0  0  0  0  0  0  0  0  0  0  0
   12.6529  -16.7076   21.9991 C   0  0  0  0  0  0  0  0  0  0  0  0
   12.2289  -16.2763   20.8030 N   0  0  0  0  0  0  0  0  0  0  0  0
   11.1729  -15.4833   21.0244 C   0  0  0  0  0  0  0  0  0  0  0  0
   10.9504  -15.4303   22.3714 N   0  0  0  0  0  0  0  0  0  0  0  0
   11.5225  -17.9564   26.2660 C   0  0  0  0  0  0  0  0  0  0  0  0
   12.6470  -18.4977   26.8516 O   0  0  0  0  0  0  0  0  0  0  0  0
   10.5860  -17.6607   27.0896 O   0  0  0  0  0  0  0  0  0  0  0  0
  2  1  1  0
  3  4  1  0
  3  2  1  0
  5  7  1  0
  5  4  1  0
  5  6  1  6
  7  9  1  0
  8  7  2  0
  9 10  1  0
 11 10  1  0
 11 12  2  0
 13 11  1  0
 14 13  1  0
 14 15  1  1
 15 16  1  0
 16 20  1  0
 16 17  2  0
 17 18  1  0
 19 18  1  0
 20 19  2  0
 21 14  1  0
 22 21  1  0
 23 21  2  0
M  END
$$$$
