MGH.pdb
     RDKit          3D

 23 23  0  0  1  0  0  0  0  0999 V2000
    6.6822  -11.7357   19.0161 C   0  0  0  0  0  0  0  0  0  0  0  0
    8.2173  -12.6943   18.7315 S   0  0  0  0  0  0  0  0  0  0  0  0
    7.8069  -14.2250   17.8558 C   0  0  0  0  0  0  0  0  0  0  0  0
    9.0856  -14.9993   17.5102 C   0  0  0  0  0  0  0  0  0  0  0  0
    9.5985  -15.7360   18.7163 C   0  0  2  0  0  0  0  0  0  0  0  0
    8.8552  -15.3834   19.9089 N   0  0  0  0  0  0  0  0  0  0  0  0
   11.0545  -15.4968   18.8996 C   0  0  0  0  0  0  0  0  0  0  0  0
   11.8925  -15.8547   18.0328 O   0  0  0  0  0  0  0  0  0  0  0  0
   11.5519  -14.8595   20.0520 N   0  0  0  0  0  0  0  0  0  0  0  0
   12.9516  -14.5940   20.2797 C   0  0  0  0  0  0  0  0  0  0  0  0
   13.3323  -14.9545   21.6556 C   0  0  0  0  0  0  0  0  0  0  0  0
   12.4432  -15.0430   22.5379 O   0  0  0  0  0  0  0  0  0  0  0  0
   14.6629  -15.2160   22.0690 N   0  0  0  0  0  0  0  0  0  0  0  0
   15.0303  -16.3192   22.9400 C   0  0  1  0  0  0  0  0  0  0  0  0
   14.7270  -17.6490   22.3537 C   0  0  0  0  0  0  0  0  0  0  0  0
   13.3259  -18.0134   22.6408 C   0  0  0  0  0  0  0  0  0  0  0  0
   12.6743  -17.6591   23.8227 C   0  0  0  0  0  0  0  0  0  0  0  0
   11.4169  -18.1230   23.8084 N   0  0  0  0  0  0  0  0  0  0  0  0
   11.2496  -18.7652   22.6454 C   0  0  0  0  0  0  0  0  0  0  0  0
   12.4187  -18.6921   21.9422 N   0  0  0  0  0  0  0  0  0  0  0  0
   16.4920  -16.2118   23.1690 C   0  0  0  0  0  0  0  0  0  0  0  0
   17.1362  -16.5281   24.3461 O   0  0  0  0  0  0  0  0  0  0  0  0
   17.2664  -15.7968   22.2359 O   0  0  0  0  0  0  0  0  0  0  0  0
  2  1  1  0
  3  4  1  0
  3  2  1  0
  5  7  1  0
  5  4  1  0
  5  6  1  1
  7  9  1  0
  8  7  2  0
  9 10  1  0
 11 10  1  0
 11 12  2  0
 13 11  1  0
 14 13  1  0
 14 15  1  6
 15 16  1  0
 16 20  1  0
 16 17  2  0
 17 18  1  0
 19 18  1  0
 20 19  2  0
 21 14  1  0
 22 21  1  0
 23 21  2  0
M  END
$$$$
