MGH.pdb
     RDKit          3D

 23 23  0  0  1  0  0  0  0  0999 V2000
    6.1226  -11.5040   25.6606 C   0  0  0  0  0  0  0  0  0  0  0  0
    6.1979  -13.1863   26.3823 S   0  0  0  0  0  0  0  0  0  0  0  0
    6.4233  -14.3931   25.0514 C   0  0  0  0  0  0  0  0  0  0  0  0
    7.2836  -13.7946   23.9308 C   0  0  0  0  0  0  0  0  0  0  0  0
    7.6003  -14.8371   22.8948 C   0  0  2  0  0  0  0  0  0  0  0  0
    6.8166  -16.0391   23.0951 N   0  0  0  0  0  0  0  0  0  0  0  0
    9.0559  -15.1402   22.8807 C   0  0  0  0  0  0  0  0  0  0  0  0
    9.9138  -14.2324   22.7339 O   0  0  0  0  0  0  0  0  0  0  0  0
    9.5306  -16.4568   23.0313 N   0  0  0  0  0  0  0  0  0  0  0  0
   10.9169  -16.8300   22.8887 C   0  0  0  0  0  0  0  0  0  0  0  0
   11.5490  -16.9974   24.2080 C   0  0  0  0  0  0  0  0  0  0  0  0
   12.8004  -16.9539   24.3017 O   0  0  0  0  0  0  0  0  0  0  0  0
   10.8308  -17.2095   25.4116 N   0  0  0  0  0  0  0  0  0  0  0  0
   11.4574  -17.6083   26.6602 C   0  0  1  0  0  0  0  0  0  0  0  0
   10.6338  -17.2868   27.8529 C   0  0  0  0  0  0  0  0  0  0  0  0
   10.7197  -15.8426   28.1444 C   0  0  0  0  0  0  0  0  0  0  0  0
   11.0729  -14.8923   27.1855 C   0  0  0  0  0  0  0  0  0  0  0  0
   11.0695  -13.6684   27.7318 N   0  0  0  0  0  0  0  0  0  0  0  0
   10.7226  -13.8140   29.0168 C   0  0  0  0  0  0  0  0  0  0  0  0
   10.5119  -15.1423   29.2572 N   0  0  0  0  0  0  0  0  0  0  0  0
   11.6538  -19.0769   26.5876 C   0  0  0  0  0  0  0  0  0  0  0  0
   12.3061  -19.8380   27.5340 O   0  0  0  0  0  0  0  0  0  0  0  0
   11.2046  -19.7432   25.5891 O   0  0  0  0  0  0  0  0  0  0  0  0
  2  1  1  0
  3  4  1  0
  3  2  1  0
  5  7  1  0
  5  4  1  0
  5  6  1  1
  7  9  1  0
  8  7  2  0
  9 10  1  0
 11 10  1  0
 11 12  2  0
 13 11  1  0
 14 13  1  0
 14 15  1  1
 15 16  1  0
 16 20  1  0
 16 17  2  0
 17 18  1  0
 19 18  1  0
 20 19  2  0
 21 14  1  0
 22 21  1  0
 23 21  2  0
M  END
$$$$
