FHS.pdb
     RDKit          3D

 28 29  0  0  1  0  0  0  0  0999 V2000
   23.0256  -13.7273  -18.2674 N   0  0  0  0  0  0  0  0  0  0  0  0
   22.8302  -12.3385  -18.5348 C   0  0  1  0  0  0  0  0  0  0  0  0
   21.4280  -12.1628  -19.1012 C   0  0  0  0  0  0  0  0  0  0  0  0
   21.2290  -12.8879  -20.3763 C   0  0  0  0  0  0  0  0  0  0  0  0
   20.4385  -14.0171  -20.3904 C   0  0  0  0  0  0  0  0  0  0  0  0
   20.2214  -14.7408  -21.5651 C   0  0  0  0  0  0  0  0  0  0  0  0
   20.8201  -14.3038  -22.7384 C   0  0  0  0  0  0  0  0  0  0  0  0
   21.6143  -13.1773  -22.7468 C   0  0  0  0  0  0  0  0  0  0  0  0
   21.8008  -12.4951  -21.5662 C   0  0  0  0  0  0  0  0  0  0  0  0
   23.0239  -11.4795  -17.3464 C   0  0  0  0  0  0  0  0  0  0  0  0
   22.5143  -11.7681  -16.2384 O   0  0  0  0  0  0  0  0  0  0  0  0
   23.8016  -10.3066  -17.4637 N   0  0  0  0  0  0  0  0  0  0  0  0
   24.1527   -9.4389  -16.3644 C   0  0  1  0  0  0  0  0  0  0  0  0
   25.6254   -9.2281  -16.3315 C   0  0  0  0  0  0  0  0  0  0  0  0
   26.4398  -10.4368  -16.0885 C   0  0  0  0  0  0  0  0  0  0  0  0
   26.0849  -11.7295  -15.8749 C   0  0  0  0  0  0  0  0  0  0  0  0
   27.2000  -12.4742  -15.6804 N   0  0  0  0  0  0  0  0  0  0  0  0
   28.2405  -11.6485  -15.7723 C   0  0  0  0  0  0  0  0  0  0  0  0
   27.8123  -10.4205  -16.0166 N   0  0  0  0  0  0  0  0  0  0  0  0
   23.5326   -8.0818  -16.5468 C   0  0  0  0  0  0  0  0  0  0  0  0
   23.2698   -7.6793  -17.7064 O   0  0  0  0  0  0  0  0  0  0  0  0
   20.2867   -5.2075  -16.1977 O   0  0  0  0  0  0  0  0  0  0  0  0
   20.9935   -6.4202  -16.0926 C   0  0  0  0  0  0  0  0  0  0  0  0
   22.3671   -6.0635  -15.5738 C   0  0  2  0  0  0  0  0  0  0  0  0
   23.2272   -7.2269  -15.4657 N   0  0  0  0  0  0  0  0  0  0  0  0
   22.2857   -5.3501  -14.3002 C   0  0  0  0  0  0  0  0  0  0  0  0
   22.5037   -5.9906  -13.0988 O   0  0  0  0  0  0  0  0  0  0  0  0
   22.0112   -4.1260  -14.2956 O   0  0  0  0  0  0  0  0  0  0  0  0
  2  1  1  1
  2  3  1  0
  3  4  1  0
  4  9  2  0
  5  6  2  0
  5  4  1  0
  6  7  1  0
  7  8  2  0
  9  8  1  0
 10  2  1  0
 10 12  1  0
 11 10  2  0
 13 12  1  0
 13 14  1  6
 14 15  1  0
 15 19  1  0
 15 16  2  0
 16 17  1  0
 18 17  1  0
 19 18  2  0
 20 21  2  0
 20 13  1  0
 22 23  1  0
 24 23  1  1
 24 25  1  0
 24 26  1  0
 25 20  1  0
 26 28  2  0
 26 27  1  0
M  END
$$$$
