FHS.pdb
     RDKit          3D

 28 29  0  0  1  0  0  0  0  0999 V2000
   14.5384  -13.7894    5.5163 N   0  0  0  0  0  0  0  0  0  0  0  0
   15.9587  -13.9231    5.5730 C   0  0  1  0  0  0  0  0  0  0  0  0
   16.5018  -12.7938    6.4376 C   0  0  0  0  0  0  0  0  0  0  0  0
   17.9309  -12.5085    6.1779 C   0  0  0  0  0  0  0  0  0  0  0  0
   18.8374  -12.6258    7.2098 C   0  0  0  0  0  0  0  0  0  0  0  0
   20.1963  -12.3643    7.0200 C   0  0  0  0  0  0  0  0  0  0  0  0
   20.6320  -11.9784    5.7602 C   0  0  0  0  0  0  0  0  0  0  0  0
   19.7427  -11.8548    4.7144 C   0  0  0  0  0  0  0  0  0  0  0  0
   18.4129  -12.1225    4.9467 C   0  0  0  0  0  0  0  0  0  0  0  0
   16.4040  -15.2356    6.0895 C   0  0  0  0  0  0  0  0  0  0  0  0
   15.8464  -15.7771    7.0726 O   0  0  0  0  0  0  0  0  0  0  0  0
   17.4831  -15.8937    5.4594 N   0  0  0  0  0  0  0  0  0  0  0  0
   18.0124  -17.1756    5.8609 C   0  0  1  0  0  0  0  0  0  0  0  0
   18.2059  -18.0435    4.6677 C   0  0  0  0  0  0  0  0  0  0  0  0
   16.9798  -18.6560    4.1159 C   0  0  0  0  0  0  0  0  0  0  0  0
   15.7110  -18.7115    4.5952 C   0  0  0  0  0  0  0  0  0  0  0  0
   14.9351  -19.4081    3.7300 N   0  0  0  0  0  0  0  0  0  0  0  0
   15.7177  -19.7829    2.7201 C   0  0  0  0  0  0  0  0  0  0  0  0
   16.9491  -19.3448    2.9268 N   0  0  0  0  0  0  0  0  0  0  0  0
   19.3668  -17.0110    6.4916 C   0  0  0  0  0  0  0  0  0  0  0  0
   20.1672  -16.1705    6.0134 O   0  0  0  0  0  0  0  0  0  0  0  0
   20.1939  -17.0875   10.2952 O   0  0  0  0  0  0  0  0  0  0  0  0
   21.1146  -16.6264    9.3355 C   0  0  0  0  0  0  0  0  0  0  0  0
   21.1005  -17.6417    8.2165 C   0  0  2  0  0  0  0  0  0  0  0  0
   19.7888  -17.7639    7.6088 N   0  0  0  0  0  0  0  0  0  0  0  0
   21.5918  -18.9414    8.6716 C   0  0  0  0  0  0  0  0  0  0  0  0
   22.8601  -19.0922    9.1910 O   0  0  0  0  0  0  0  0  0  0  0  0
   20.8449  -19.9460    8.5896 O   0  0  0  0  0  0  0  0  0  0  0  0
  2  1  1  1
  2  3  1  0
  3  4  1  0
  4  9  2  0
  5  6  2  0
  5  4  1  0
  6  7  1  0
  7  8  2  0
  9  8  1  0
 10  2  1  0
 10 12  1  0
 11 10  2  0
 13 12  1  0
 13 14  1  6
 14 15  1  0
 15 19  1  0
 15 16  2  0
 16 17  1  0
 18 17  1  0
 19 18  2  0
 20 21  2  0
 20 13  1  0
 22 23  1  0
 24 23  1  1
 24 25  1  0
 24 26  1  0
 25 20  1  0
 26 28  2  0
 26 27  1  0
M  END
$$$$
