FHS.pdb
     RDKit          3D

 28 29  0  0  1  0  0  0  0  0999 V2000
   26.3896  -18.6352   -7.5845 N   0  0  0  0  0  0  0  0  0  0  0  0
   26.9007  -19.8349   -8.1657 C   0  0  1  0  0  0  0  0  0  0  0  0
   26.8782  -20.9198   -7.0977 C   0  0  0  0  0  0  0  0  0  0  0  0
   27.7540  -20.6092   -5.9455 C   0  0  0  0  0  0  0  0  0  0  0  0
   27.1902  -20.4464   -4.6981 C   0  0  0  0  0  0  0  0  0  0  0  0
   27.9701  -20.1483   -3.5785 C   0  0  0  0  0  0  0  0  0  0  0  0
   29.3424  -20.0154   -3.7374 C   0  0  0  0  0  0  0  0  0  0  0  0
   29.9268  -20.1740   -4.9755 C   0  0  0  0  0  0  0  0  0  0  0  0
   29.1199  -20.4671   -6.0511 C   0  0  0  0  0  0  0  0  0  0  0  0
   26.1539  -20.2695   -9.3661 C   0  0  0  0  0  0  0  0  0  0  0  0
   24.9009  -20.2858   -9.3889 O   0  0  0  0  0  0  0  0  0  0  0  0
   26.8702  -20.6754  -10.5135 N   0  0  0  0  0  0  0  0  0  0  0  0
   26.6065  -20.2111  -11.8550 C   0  0  1  0  0  0  0  0  0  0  0  0
   27.8192  -20.3805  -12.7007 C   0  0  0  0  0  0  0  0  0  0  0  0
   27.6868  -19.9409  -14.1051 C   0  0  0  0  0  0  0  0  0  0  0  0
   27.7694  -20.6295  -15.2721 C   0  0  0  0  0  0  0  0  0  0  0  0
   27.5965  -19.7754  -16.3096 N   0  0  0  0  0  0  0  0  0  0  0  0
   27.4081  -18.5642  -15.7897 C   0  0  0  0  0  0  0  0  0  0  0  0
   27.4576  -18.6355  -14.4693 N   0  0  0  0  0  0  0  0  0  0  0  0
   25.5238  -21.0355  -12.4935 C   0  0  0  0  0  0  0  0  0  0  0  0
   25.5618  -22.2855  -12.3860 O   0  0  0  0  0  0  0  0  0  0  0  0
   22.9376  -19.2866  -15.0481 O   0  0  0  0  0  0  0  0  0  0  0  0
   22.3072  -20.3700  -14.4078 C   0  0  0  0  0  0  0  0  0  0  0  0
   23.4158  -21.2438  -13.8688 C   0  0  2  0  0  0  0  0  0  0  0  0
   24.4532  -20.4668  -13.2170 N   0  0  0  0  0  0  0  0  0  0  0  0
   23.9773  -22.0964  -14.9155 C   0  0  0  0  0  0  0  0  0  0  0  0
   23.5286  -23.3848  -15.1152 O   0  0  0  0  0  0  0  0  0  0  0  0
   24.8892  -21.6491  -15.6518 O   0  0  0  0  0  0  0  0  0  0  0  0
  2  1  1  1
  2  3  1  0
  3  4  1  0
  4  9  2  0
  5  6  2  0
  5  4  1  0
  6  7  1  0
  7  8  2  0
  9  8  1  0
 10  2  1  0
 10 12  1  0
 11 10  2  0
 13 12  1  0
 13 14  1  6
 14 15  1  0
 15 19  1  0
 15 16  2  0
 16 17  1  0
 18 17  1  0
 19 18  2  0
 20 21  2  0
 20 13  1  0
 22 23  1  0
 24 23  1  6
 24 25  1  0
 24 26  1  0
 25 20  1  0
 26 28  2  0
 26 27  1  0
M  END
$$$$
