FHS.pdb
     RDKit          3D

 28 29  0  0  1  0  0  0  0  0999 V2000
   17.6497  -11.6967  -15.3561 N   0  0  0  0  0  0  0  0  0  0  0  0
   16.8625  -10.5658  -14.9821 C   0  0  1  0  0  0  0  0  0  0  0  0
   15.4417  -11.0482  -14.7243 C   0  0  0  0  0  0  0  0  0  0  0  0
   14.7450  -11.4688  -15.9609 C   0  0  0  0  0  0  0  0  0  0  0  0
   14.2898  -10.5058  -16.8359 C   0  0  0  0  0  0  0  0  0  0  0  0
   13.6228  -10.8479  -18.0144 C   0  0  0  0  0  0  0  0  0  0  0  0
   13.4194  -12.1906  -18.3003 C   0  0  0  0  0  0  0  0  0  0  0  0
   13.8663  -13.1698  -17.4393 C   0  0  0  0  0  0  0  0  0  0  0  0
   14.5187  -12.7871  -16.2896 C   0  0  0  0  0  0  0  0  0  0  0  0
   17.3913   -9.8475  -13.8023 C   0  0  0  0  0  0  0  0  0  0  0  0
   17.7885  -10.4612  -12.7844 O   0  0  0  0  0  0  0  0  0  0  0  0
   17.4500   -8.4366  -13.8240 N   0  0  0  0  0  0  0  0  0  0  0  0
   18.0192   -7.6206  -12.7777 C   0  0  1  0  0  0  0  0  0  0  0  0
   18.9739   -6.6386  -13.3596 C   0  0  0  0  0  0  0  0  0  0  0  0
   20.2315   -7.2049  -13.8895 C   0  0  0  0  0  0  0  0  0  0  0  0
   20.7160   -8.4730  -13.8852 C   0  0  0  0  0  0  0  0  0  0  0  0
   21.9336   -8.4895  -14.4795 N   0  0  0  0  0  0  0  0  0  0  0  0
   22.2031   -7.2393  -14.8499 C   0  0  0  0  0  0  0  0  0  0  0  0
   21.1987   -6.4488  -14.5077 N   0  0  0  0  0  0  0  0  0  0  0  0
   16.9472   -6.8186  -12.0944 C   0  0  0  0  0  0  0  0  0  0  0  0
   16.0808   -6.2353  -12.7908 O   0  0  0  0  0  0  0  0  0  0  0  0
   16.8041   -6.6073   -7.9993 O   0  0  0  0  0  0  0  0  0  0  0  0
   15.5551   -6.4451   -8.6278 C   0  0  0  0  0  0  0  0  0  0  0  0
   15.8457   -5.9107  -10.0109 C   0  0  2  0  0  0  0  0  0  0  0  0
   16.8653   -6.6868  -10.6913 N   0  0  0  0  0  0  0  0  0  0  0  0
   16.2047   -4.4939   -9.9689 C   0  0  0  0  0  0  0  0  0  0  0  0
   15.3223   -3.5389   -9.5102 O   0  0  0  0  0  0  0  0  0  0  0  0
   17.3417   -4.1342  -10.3583 O   0  0  0  0  0  0  0  0  0  0  0  0
  2  1  1  1
  2  3  1  0
  3  4  1  0
  4  9  2  0
  5  6  2  0
  5  4  1  0
  6  7  1  0
  7  8  2  0
  9  8  1  0
 10  2  1  0
 10 12  1  0
 11 10  2  0
 13 12  1  0
 13 14  1  6
 14 15  1  0
 15 19  1  0
 15 16  2  0
 16 17  1  0
 18 17  1  0
 19 18  2  0
 20 21  2  0
 20 13  1  0
 22 23  1  0
 24 23  1  1
 24 25  1  0
 24 26  1  0
 25 20  1  0
 26 28  2  0
 26 27  1  0
M  END
$$$$
