FHS.pdb
     RDKit          3D

 28 29  0  0  1  0  0  0  0  0999 V2000
   16.6018  -13.9087    5.2380 N   0  0  0  0  0  0  0  0  0  0  0  0
   17.0667  -15.2498    5.3918 C   0  0  1  0  0  0  0  0  0  0  0  0
   18.3649  -15.3887    4.6086 C   0  0  0  0  0  0  0  0  0  0  0  0
   18.1426  -15.5659    3.1558 C   0  0  0  0  0  0  0  0  0  0  0  0
   18.5326  -14.5666    2.2900 C   0  0  0  0  0  0  0  0  0  0  0  0
   18.3422  -14.6810    0.9111 C   0  0  0  0  0  0  0  0  0  0  0  0
   17.7460  -15.8309    0.4129 C   0  0  0  0  0  0  0  0  0  0  0  0
   17.3484  -16.8423    1.2607 C   0  0  0  0  0  0  0  0  0  0  0  0
   17.5556  -16.6871    2.6123 C   0  0  0  0  0  0  0  0  0  0  0  0
   17.2650  -15.6435    6.8037 C   0  0  0  0  0  0  0  0  0  0  0  0
   17.5536  -14.8008    7.6852 O   0  0  0  0  0  0  0  0  0  0  0  0
   17.1255  -17.0013    7.1662 N   0  0  0  0  0  0  0  0  0  0  0  0
   17.4888  -17.5513    8.4508 C   0  0  1  0  0  0  0  0  0  0  0  0
   16.5362  -18.6292    8.8317 C   0  0  0  0  0  0  0  0  0  0  0  0
   16.8021  -19.2909   10.1258 C   0  0  0  0  0  0  0  0  0  0  0  0
   17.7650  -20.1706   10.5022 C   0  0  0  0  0  0  0  0  0  0  0  0
   17.5786  -20.5106   11.8005 N   0  0  0  0  0  0  0  0  0  0  0  0
   16.5064  -19.8463   12.2270 C   0  0  0  0  0  0  0  0  0  0  0  0
   16.0215  -19.1074   11.2421 N   0  0  0  0  0  0  0  0  0  0  0  0
   18.8484  -18.1889    8.3843 C   0  0  0  0  0  0  0  0  0  0  0  0
   19.0879  -19.0282    7.4822 O   0  0  0  0  0  0  0  0  0  0  0  0
   22.1834  -16.3341    9.4928 O   0  0  0  0  0  0  0  0  0  0  0  0
   22.2094  -17.4548    8.6417 C   0  0  0  0  0  0  0  0  0  0  0  0
   21.2199  -18.4423    9.2151 C   0  0  2  0  0  0  0  0  0  0  0  0
   19.8821  -17.8870    9.2972 N   0  0  0  0  0  0  0  0  0  0  0  0
   21.6616  -18.9430   10.5159 C   0  0  0  0  0  0  0  0  0  0  0  0
   22.8758  -19.5776   10.6708 O   0  0  0  0  0  0  0  0  0  0  0  0
   20.9213  -18.7938   11.5177 O   0  0  0  0  0  0  0  0  0  0  0  0
  2  1  1  1
  2  3  1  0
  3  4  1  0
  4  9  2  0
  5  6  2  0
  5  4  1  0
  6  7  1  0
  7  8  2  0
  9  8  1  0
 10  2  1  0
 10 12  1  0
 11 10  2  0
 13 12  1  0
 13 14  1  6
 14 15  1  0
 15 19  1  0
 15 16  2  0
 16 17  1  0
 18 17  1  0
 19 18  2  0
 20 21  2  0
 20 13  1  0
 22 23  1  0
 24 23  1  1
 24 25  1  0
 24 26  1  0
 25 20  1  0
 26 28  2  0
 26 27  1  0
M  END
$$$$
