FHS.pdb
     RDKit          3D

 28 29  0  0  1  0  0  0  0  0999 V2000
   15.9384   -9.1872   -9.7789 N   0  0  0  0  0  0  0  0  0  0  0  0
   16.2777   -7.9747  -10.4519 C   0  0  1  0  0  0  0  0  0  0  0  0
   16.3734   -6.8701   -9.4085 C   0  0  0  0  0  0  0  0  0  0  0  0
   15.0525   -6.4711   -8.8724 C   0  0  0  0  0  0  0  0  0  0  0  0
   14.1929   -5.7497   -9.6730 C   0  0  0  0  0  0  0  0  0  0  0  0
   12.9371   -5.3444   -9.2153 C   0  0  0  0  0  0  0  0  0  0  0  0
   12.5570   -5.6812   -7.9237 C   0  0  0  0  0  0  0  0  0  0  0  0
   13.4010   -6.4019   -7.1063 C   0  0  0  0  0  0  0  0  0  0  0  0
   14.6290   -6.7804   -7.5988 C   0  0  0  0  0  0  0  0  0  0  0  0
   17.5324   -8.0670  -11.2298 C   0  0  0  0  0  0  0  0  0  0  0  0
   18.5365   -8.6713  -10.7857 O   0  0  0  0  0  0  0  0  0  0  0  0
   17.5998   -7.4598  -12.5030 N   0  0  0  0  0  0  0  0  0  0  0  0
   18.7529   -7.4946  -13.3712 C   0  0  1  0  0  0  0  0  0  0  0  0
   18.3485   -7.9185  -14.7391 C   0  0  0  0  0  0  0  0  0  0  0  0
   18.1020   -9.3647  -14.9146 C   0  0  0  0  0  0  0  0  0  0  0  0
   18.2764  -10.4132  -14.0703 C   0  0  0  0  0  0  0  0  0  0  0  0
   17.9250  -11.5598  -14.7011 N   0  0  0  0  0  0  0  0  0  0  0  0
   17.5354  -11.2248  -15.9294 C   0  0  0  0  0  0  0  0  0  0  0  0
   17.6319   -9.9141  -16.0836 N   0  0  0  0  0  0  0  0  0  0  0  0
   19.3485   -6.1215  -13.5097 C   0  0  0  0  0  0  0  0  0  0  0  0
   18.6042   -5.1169  -13.3984 O   0  0  0  0  0  0  0  0  0  0  0  0
   23.1913   -3.3571  -14.5841 O   0  0  0  0  0  0  0  0  0  0  0  0
   22.7624   -4.6803  -14.3686 C   0  0  0  0  0  0  0  0  0  0  0  0
   21.2983   -4.5945  -14.0048 C   0  0  2  0  0  0  0  0  0  0  0  0
   20.7202   -5.9028  -13.7619 N   0  0  0  0  0  0  0  0  0  0  0  0
   20.5400   -3.8654  -15.0203 C   0  0  0  0  0  0  0  0  0  0  0  0
   20.1281   -2.5651  -14.8186 O   0  0  0  0  0  0  0  0  0  0  0  0
   20.2553   -4.4325  -16.1025 O   0  0  0  0  0  0  0  0  0  0  0  0
  2  1  1  1
  2  3  1  0
  3  4  1  0
  4  9  2  0
  5  6  2  0
  5  4  1  0
  6  7  1  0
  7  8  2  0
  9  8  1  0
 10  2  1  0
 10 12  1  0
 11 10  2  0
 13 12  1  0
 13 14  1  6
 14 15  1  0
 15 19  1  0
 15 16  2  0
 16 17  1  0
 18 17  1  0
 19 18  2  0
 20 21  2  0
 20 13  1  0
 22 23  1  0
 24 23  1  6
 24 25  1  0
 24 26  1  0
 25 20  1  0
 26 28  2  0
 26 27  1  0
M  END
$$$$
