WEW.pdb
     RDKit          3D

 38 41  0  0  1  0  0  0  0  0999 V2000
   29.2586  -20.5653  -17.8682 N   0  0  0  0  0  0  0  0  0  0  0  0
   28.8341  -21.5123  -16.8629 C   0  0  1  0  0  0  0  0  0  0  0  0
   30.0362  -22.3506  -16.4864 C   0  0  0  0  0  0  0  0  0  0  0  0
   30.4199  -23.0929  -17.7049 C   0  0  0  0  0  0  0  0  0  0  0  0
   31.5981  -23.0280  -18.4004 C   0  0  0  0  0  0  0  0  0  0  0  0
   31.5057  -23.8789  -19.4536 N   0  0  0  0  0  0  0  0  0  0  0  0
   30.2994  -24.4848  -19.4480 C   0  0  0  0  0  0  0  0  0  0  0  0
   29.6575  -25.4198  -20.2452 C   0  0  0  0  0  0  0  0  0  0  0  0
   28.3761  -25.8666  -19.9800 C   0  0  0  0  0  0  0  0  0  0  0  0
   27.6885  -25.3790  -18.8864 C   0  0  0  0  0  0  0  0  0  0  0  0
   28.3281  -24.4520  -18.0981 C   0  0  0  0  0  0  0  0  0  0  0  0
   29.6180  -23.9973  -18.3584 C   0  0  0  0  0  0  0  0  0  0  0  0
   28.2568  -20.7653  -15.7197 C   0  0  0  0  0  0  0  0  0  0  0  0
   28.7660  -19.6667  -15.3353 O   0  0  0  0  0  0  0  0  0  0  0  0
   27.1338  -21.2204  -15.0074 N   0  0  0  0  0  0  0  0  0  0  0  0
   26.5229  -20.4436  -13.9198 C   0  0  1  0  0  0  0  0  0  0  0  0
   25.3190  -19.7869  -14.5056 C   0  0  0  0  0  0  0  0  0  0  0  0
   24.4019  -19.0466  -13.6176 C   0  0  0  0  0  0  0  0  0  0  0  0
   23.1568  -19.8029  -13.3927 C   0  0  0  0  0  0  0  0  0  0  0  0
   22.6269  -20.4230  -14.3457 O   0  0  0  0  0  0  0  0  0  0  0  0
   26.3025  -21.2312  -12.7469 C   0  0  0  0  0  0  0  0  0  0  0  0
   25.7998  -22.4126  -12.7939 O   0  0  0  0  0  0  0  0  0  0  0  0
   22.5693  -19.8367  -12.1495 O   0  0  0  0  0  0  0  0  0  0  0  0
   26.5969  -20.8309  -11.4084 N   0  0  0  0  0  0  0  0  0  0  0  0
   26.3225  -21.5758  -10.2577 C   0  0  1  0  0  0  0  0  0  0  0  0
   27.3184  -21.6930   -9.1852 C   0  0  0  0  0  0  0  0  0  0  0  0
   27.3489  -20.5598   -8.2328 C   0  0  0  0  0  0  0  0  0  0  0  0
   26.5922  -19.4110   -8.1926 C   0  0  0  0  0  0  0  0  0  0  0  0
   26.9799  -18.6579   -7.1184 N   0  0  0  0  0  0  0  0  0  0  0  0
   27.9609  -19.2839   -6.4668 C   0  0  0  0  0  0  0  0  0  0  0  0
   28.6631  -18.9211   -5.3395 C   0  0  0  0  0  0  0  0  0  0  0  0
   29.6622  -19.7484   -4.8304 C   0  0  0  0  0  0  0  0  0  0  0  0
   29.9051  -20.9263   -5.5030 C   0  0  0  0  0  0  0  0  0  0  0  0
   29.1976  -21.2835   -6.6325 C   0  0  0  0  0  0  0  0  0  0  0  0
   28.2086  -20.4626   -7.1350 C   0  0  0  0  0  0  0  0  0  0  0  0
   25.0484  -21.0536   -9.6381 C   0  0  0  0  0  0  0  0  0  0  0  0
   24.4109  -21.7898   -8.6571 O   0  0  0  0  0  0  0  0  0  0  0  0
   24.5310  -19.9731   -9.9705 O   0  0  0  0  0  0  0  0  0  0  0  0
  2  1  1  6
  2 13  1  0
  2  3  1  0
  4  3  1  0
  5  4  2  0
  6  5  1  0
  7  6  1  0
  7 12  2  0
  8  7  1  0
  9  8  2  0
  9 10  1  0
 10 11  2  0
 11 12  1  0
 12  4  1  0
 13 14  2  0
 15 13  1  0
 15 16  1  0
 16 17  1  6
 18 19  1  0
 18 17  1  0
 19 20  2  0
 21 22  2  0
 21 16  1  0
 23 19  1  0
 24 21  1  0
 25 24  1  0
 26 27  1  0
 25 26  1  1
 27 28  2  0
 27 35  1  0
 28 29  1  0
 29 30  1  0
 30 31  2  0
 31 32  1  0
 33 32  2  0
 34 33  1  0
 35 34  2  0
 35 30  1  0
 36 37  1  0
 36 25  1  0
 38 36  2  0
M  END
$$$$
