WEW.pdb
     RDKit          3D

 38 41  0  0  1  0  0  0  0  0999 V2000
   26.6712  -22.2993  -10.5880 N   0  0  0  0  0  0  0  0  0  0  0  0
   26.0788  -20.9932  -10.4118 C   0  0  1  0  0  0  0  0  0  0  0  0
   27.1782  -19.9660  -10.5718 C   0  0  0  0  0  0  0  0  0  0  0  0
   28.2387  -20.3438   -9.6149 C   0  0  0  0  0  0  0  0  0  0  0  0
   29.4194  -20.9892   -9.8706 C   0  0  0  0  0  0  0  0  0  0  0  0
   30.0787  -21.1306   -8.6928 N   0  0  0  0  0  0  0  0  0  0  0  0
   29.3493  -20.5920   -7.6926 C   0  0  0  0  0  0  0  0  0  0  0  0
   29.5050  -20.4429   -6.3231 C   0  0  0  0  0  0  0  0  0  0  0  0
   28.5548  -19.8252   -5.5310 C   0  0  0  0  0  0  0  0  0  0  0  0
   27.3987  -19.3297   -6.1008 C   0  0  0  0  0  0  0  0  0  0  0  0
   27.2478  -19.4792   -7.4590 C   0  0  0  0  0  0  0  0  0  0  0  0
   28.1998  -20.0998   -8.2633 C   0  0  0  0  0  0  0  0  0  0  0  0
   24.9781  -20.8342  -11.3925 C   0  0  0  0  0  0  0  0  0  0  0  0
   24.4092  -19.7102  -11.5567 O   0  0  0  0  0  0  0  0  0  0  0  0
   24.5083  -21.8975  -12.1824 N   0  0  0  0  0  0  0  0  0  0  0  0
   23.5651  -21.6981  -13.2915 C   0  0  1  0  0  0  0  0  0  0  0  0
   23.9897  -22.6363  -14.3699 C   0  0  0  0  0  0  0  0  0  0  0  0
   25.3199  -22.4668  -14.9860 C   0  0  0  0  0  0  0  0  0  0  0  0
   25.3766  -21.2349  -15.7934 C   0  0  0  0  0  0  0  0  0  0  0  0
   24.3112  -20.6686  -16.1366 O   0  0  0  0  0  0  0  0  0  0  0  0
   22.2023  -21.7980  -12.8704 C   0  0  0  0  0  0  0  0  0  0  0  0
   21.8628  -22.3382  -11.7553 O   0  0  0  0  0  0  0  0  0  0  0  0
   26.5845  -20.6990  -16.1749 O   0  0  0  0  0  0  0  0  0  0  0  0
   21.0689  -21.3309  -13.6023 N   0  0  0  0  0  0  0  0  0  0  0  0
   19.7635  -21.2411  -13.1101 C   0  0  1  0  0  0  0  0  0  0  0  0
   18.9218  -20.0798  -13.4247 C   0  0  0  0  0  0  0  0  0  0  0  0
   19.4068  -18.7901  -12.8828 C   0  0  0  0  0  0  0  0  0  0  0  0
   20.0707  -18.5114  -11.7100 C   0  0  0  0  0  0  0  0  0  0  0  0
   20.3177  -17.1674  -11.6450 N   0  0  0  0  0  0  0  0  0  0  0  0
   19.8346  -16.5728  -12.7366 C   0  0  0  0  0  0  0  0  0  0  0  0
   19.8433  -15.2491  -13.1151 C   0  0  0  0  0  0  0  0  0  0  0  0
   19.2683  -14.8534  -14.3213 C   0  0  0  0  0  0  0  0  0  0  0  0
   18.7014  -15.8391  -15.0996 C   0  0  0  0  0  0  0  0  0  0  0  0
   18.6960  -17.1639  -14.7138 C   0  0  0  0  0  0  0  0  0  0  0  0
   19.2660  -17.5535  -13.5189 C   0  0  0  0  0  0  0  0  0  0  0  0
   19.0046  -22.4776  -13.5284 C   0  0  0  0  0  0  0  0  0  0  0  0
   17.9770  -22.9527  -12.7353 O   0  0  0  0  0  0  0  0  0  0  0  0
   19.2604  -23.1048  -14.5710 O   0  0  0  0  0  0  0  0  0  0  0  0
  2  1  1  6
  2 13  1  0
  2  3  1  0
  4  3  1  0
  5  4  2  0
  6  5  1  0
  7  6  1  0
  7 12  2  0
  8  7  1  0
  9  8  2  0
  9 10  1  0
 10 11  2  0
 11 12  1  0
 12  4  1  0
 13 14  2  0
 15 13  1  0
 15 16  1  0
 16 17  1  6
 18 19  1  0
 18 17  1  0
 19 20  2  0
 21 22  2  0
 21 16  1  0
 23 19  1  0
 24 21  1  0
 25 24  1  0
 26 27  1  0
 25 26  1  6
 27 28  2  0
 27 35  1  0
 28 29  1  0
 29 30  1  0
 30 31  2  0
 31 32  1  0
 33 32  2  0
 34 33  1  0
 35 34  2  0
 35 30  1  0
 36 37  1  0
 36 25  1  0
 38 36  2  0
M  END
$$$$
