WEW.pdb
     RDKit          3D

 38 41  0  0  1  0  0  0  0  0999 V2000
   19.8857  -21.3570  -13.5215 N   0  0  0  0  0  0  0  0  0  0  0  0
   20.9847  -20.4224  -13.6019 C   0  0  1  0  0  0  0  0  0  0  0  0
   20.5968  -19.1899  -12.8146 C   0  0  0  0  0  0  0  0  0  0  0  0
   19.8631  -18.3150  -13.7522 C   0  0  0  0  0  0  0  0  0  0  0  0
   18.5239  -18.0280  -13.7711 C   0  0  0  0  0  0  0  0  0  0  0  0
   18.2949  -17.1843  -14.8092 N   0  0  0  0  0  0  0  0  0  0  0  0
   19.4531  -16.9256  -15.4527 C   0  0  0  0  0  0  0  0  0  0  0  0
   19.8285  -16.1606  -16.5462 C   0  0  0  0  0  0  0  0  0  0  0  0
   21.1371  -16.0874  -16.9866 C   0  0  0  0  0  0  0  0  0  0  0  0
   22.1260  -16.7931  -16.3302 C   0  0  0  0  0  0  0  0  0  0  0  0
   21.7501  -17.5505  -15.2463 C   0  0  0  0  0  0  0  0  0  0  0  0
   20.4348  -17.6293  -14.7966 C   0  0  0  0  0  0  0  0  0  0  0  0
   22.2099  -21.0842  -13.0926 C   0  0  0  0  0  0  0  0  0  0  0  0
   22.1993  -21.7148  -11.9897 O   0  0  0  0  0  0  0  0  0  0  0  0
   23.4317  -21.0528  -13.7866 N   0  0  0  0  0  0  0  0  0  0  0  0
   24.6643  -21.6356  -13.2382 C   0  0  1  0  0  0  0  0  0  0  0  0
   25.5308  -21.9498  -14.4104 C   0  0  0  0  0  0  0  0  0  0  0  0
   26.9217  -22.3851  -14.1785 C   0  0  0  0  0  0  0  0  0  0  0  0
   27.6315  -22.5926  -15.4536 C   0  0  0  0  0  0  0  0  0  0  0  0
   28.8375  -22.9375  -15.4431 O   0  0  0  0  0  0  0  0  0  0  0  0
   25.2496  -20.8142  -12.2247 C   0  0  0  0  0  0  0  0  0  0  0  0
   25.4834  -19.5632  -12.4006 O   0  0  0  0  0  0  0  0  0  0  0  0
   26.9865  -22.4125  -16.6549 O   0  0  0  0  0  0  0  0  0  0  0  0
   25.6437  -21.2515  -10.9240 N   0  0  0  0  0  0  0  0  0  0  0  0
   26.3764  -20.5000  -10.0005 C   0  0  1  0  0  0  0  0  0  0  0  0
   26.5140  -20.9490   -8.6093 C   0  0  0  0  0  0  0  0  0  0  0  0
   27.1304  -19.9639   -7.6917 C   0  0  0  0  0  0  0  0  0  0  0  0
   27.1779  -18.5904   -7.7629 C   0  0  0  0  0  0  0  0  0  0  0  0
   27.8561  -18.1099   -6.6764 N   0  0  0  0  0  0  0  0  0  0  0  0
   28.2465  -19.1286   -5.9093 C   0  0  0  0  0  0  0  0  0  0  0  0
   28.9507  -19.1421   -4.7262 C   0  0  0  0  0  0  0  0  0  0  0  0
   29.2491  -20.3471   -4.0931 C   0  0  0  0  0  0  0  0  0  0  0  0
   28.8101  -21.5022   -4.7030 C   0  0  0  0  0  0  0  0  0  0  0  0
   28.1050  -21.4812   -5.8889 C   0  0  0  0  0  0  0  0  0  0  0  0
   27.8107  -20.2867   -6.5142 C   0  0  0  0  0  0  0  0  0  0  0  0
   27.7673  -20.2871  -10.5479 C   0  0  0  0  0  0  0  0  0  0  0  0
   28.2003  -19.0077  -10.8419 O   0  0  0  0  0  0  0  0  0  0  0  0
   28.5614  -21.2216  -10.7527 O   0  0  0  0  0  0  0  0  0  0  0  0
  2  1  1  1
  2 13  1  0
  2  3  1  0
  4  3  1  0
  5  4  2  0
  6  5  1  0
  7  6  1  0
  7 12  2  0
  8  7  1  0
  9  8  2  0
  9 10  1  0
 10 11  2  0
 11 12  1  0
 12  4  1  0
 13 14  2  0
 15 13  1  0
 15 16  1  0
 16 17  1  6
 18 19  1  0
 18 17  1  0
 19 20  2  0
 21 22  2  0
 21 16  1  0
 23 19  1  0
 24 21  1  0
 25 24  1  0
 26 27  1  0
 25 26  1  1
 27 28  2  0
 27 35  1  0
 28 29  1  0
 29 30  1  0
 30 31  2  0
 31 32  1  0
 33 32  2  0
 34 33  1  0
 35 34  2  0
 35 30  1  0
 36 37  1  0
 36 25  1  0
 38 36  2  0
M  END
$$$$
