WEW.pdb
     RDKit          3D

 38 41  0  0  1  0  0  0  0  0999 V2000
   23.6508  -19.5678  -16.6546 N   0  0  0  0  0  0  0  0  0  0  0  0
   23.6619  -19.1219  -15.2803 C   0  0  1  0  0  0  0  0  0  0  0  0
   22.2442  -19.2085  -14.7589 C   0  0  0  0  0  0  0  0  0  0  0  0
   21.4862  -18.1416  -15.4446 C   0  0  0  0  0  0  0  0  0  0  0  0
   21.5777  -16.7871  -15.2633 C   0  0  0  0  0  0  0  0  0  0  0  0
   20.6905  -16.1951  -16.1025 N   0  0  0  0  0  0  0  0  0  0  0  0
   20.0357  -17.1367  -16.8145 C   0  0  0  0  0  0  0  0  0  0  0  0
   19.0516  -17.1333  -17.7909 C   0  0  0  0  0  0  0  0  0  0  0  0
   18.5620  -18.2968  -18.3552 C   0  0  0  0  0  0  0  0  0  0  0  0
   19.0549  -19.5209  -17.9485 C   0  0  0  0  0  0  0  0  0  0  0  0
   20.0306  -19.5204  -16.9801 C   0  0  0  0  0  0  0  0  0  0  0  0
   20.5288  -18.3534  -16.4072 C   0  0  0  0  0  0  0  0  0  0  0  0
   24.6211  -19.9565  -14.5174 C   0  0  0  0  0  0  0  0  0  0  0  0
   24.3418  -21.1583  -14.2147 O   0  0  0  0  0  0  0  0  0  0  0  0
   25.8715  -19.4759  -14.0921 N   0  0  0  0  0  0  0  0  0  0  0  0
   26.7865  -20.2801  -13.2702 C   0  0  1  0  0  0  0  0  0  0  0  0
   28.1624  -19.9579  -13.7463 C   0  0  0  0  0  0  0  0  0  0  0  0
   28.4719  -20.0825  -15.1839 C   0  0  0  0  0  0  0  0  0  0  0  0
   28.5477  -21.4978  -15.5887 C   0  0  0  0  0  0  0  0  0  0  0  0
   28.9625  -22.3551  -14.7722 O   0  0  0  0  0  0  0  0  0  0  0  0
   26.5492  -20.1122  -11.8702 C   0  0  0  0  0  0  0  0  0  0  0  0
   26.6550  -18.9737  -11.2844 O   0  0  0  0  0  0  0  0  0  0  0  0
   28.1688  -21.8894  -16.8514 O   0  0  0  0  0  0  0  0  0  0  0  0
   26.1769  -21.1468  -10.9594 N   0  0  0  0  0  0  0  0  0  0  0  0
   26.0441  -21.0029   -9.5752 C   0  0  1  0  0  0  0  0  0  0  0  0
   26.6217  -19.8439   -8.8830 C   0  0  0  0  0  0  0  0  0  0  0  0
   27.9187  -20.0963   -8.2151 C   0  0  0  0  0  0  0  0  0  0  0  0
   29.0347  -20.7654   -8.6632 C   0  0  0  0  0  0  0  0  0  0  0  0
   29.9953  -20.7343   -7.6897 N   0  0  0  0  0  0  0  0  0  0  0  0
   29.5341  -20.0679   -6.6306 C   0  0  0  0  0  0  0  0  0  0  0  0
   30.1296  -19.7798   -5.4231 C   0  0  0  0  0  0  0  0  0  0  0  0
   29.4433  -19.0568   -4.4493 C   0  0  0  0  0  0  0  0  0  0  0  0
   28.1613  -18.6537   -4.7538 C   0  0  0  0  0  0  0  0  0  0  0  0
   27.5706  -18.9463   -5.9660 C   0  0  0  0  0  0  0  0  0  0  0  0
   28.2520  -19.6625   -6.9289 C   0  0  0  0  0  0  0  0  0  0  0  0
   24.5765  -21.0555   -9.2240 C   0  0  0  0  0  0  0  0  0  0  0  0
   23.6283  -20.8279  -10.2037 O   0  0  0  0  0  0  0  0  0  0  0  0
   24.1666  -21.2979   -8.0755 O   0  0  0  0  0  0  0  0  0  0  0  0
  2  1  1  6
  2 13  1  0
  2  3  1  0
  4  3  1  0
  5  4  2  0
  6  5  1  0
  7  6  1  0
  7 12  2  0
  8  7  1  0
  9  8  2  0
  9 10  1  0
 10 11  2  0
 11 12  1  0
 12  4  1  0
 13 14  2  0
 15 13  1  0
 15 16  1  0
 16 17  1  1
 18 19  1  0
 18 17  1  0
 19 20  2  0
 21 22  2  0
 21 16  1  0
 23 19  1  0
 24 21  1  0
 25 24  1  0
 26 27  1  0
 25 26  1  6
 27 28  2  0
 27 35  1  0
 28 29  1  0
 29 30  1  0
 30 31  2  0
 31 32  1  0
 33 32  2  0
 34 33  1  0
 35 34  2  0
 35 30  1  0
 36 37  1  0
 36 25  1  0
 38 36  2  0
M  END
$$$$
