WEW.pdb
     RDKit          3D

 38 41  0  0  1  0  0  0  0  0999 V2000
   21.8683  -23.8204  -15.9567 N   0  0  0  0  0  0  0  0  0  0  0  0
   22.0148  -22.4984  -15.3924 C   0  0  1  0  0  0  0  0  0  0  0  0
   21.3260  -22.4962  -14.0452 C   0  0  0  0  0  0  0  0  0  0  0  0
   19.8944  -22.7452  -14.3131 C   0  0  0  0  0  0  0  0  0  0  0  0
   19.1405  -23.8291  -13.9484 C   0  0  0  0  0  0  0  0  0  0  0  0
   17.8799  -23.6323  -14.4110 N   0  0  0  0  0  0  0  0  0  0  0  0
   17.8101  -22.4513  -15.0610 C   0  0  0  0  0  0  0  0  0  0  0  0
   16.8184  -21.7410  -15.7198 C   0  0  0  0  0  0  0  0  0  0  0  0
   17.0523  -20.5119  -16.3084 C   0  0  0  0  0  0  0  0  0  0  0  0
   18.3119  -19.9489  -16.2519 C   0  0  0  0  0  0  0  0  0  0  0  0
   19.2927  -20.6560  -15.5978 C   0  0  0  0  0  0  0  0  0  0  0  0
   19.0652  -21.8939  -15.0027 C   0  0  0  0  0  0  0  0  0  0  0  0
   23.4591  -22.1719  -15.3149 C   0  0  0  0  0  0  0  0  0  0  0  0
   24.2623  -22.9182  -14.6731 O   0  0  0  0  0  0  0  0  0  0  0  0
   24.0135  -21.0388  -15.9348 N   0  0  0  0  0  0  0  0  0  0  0  0
   25.4471  -20.7238  -15.8628 C   0  0  1  0  0  0  0  0  0  0  0  0
   25.7834  -20.0312  -17.1398 C   0  0  0  0  0  0  0  0  0  0  0  0
   27.1565  -19.5307  -17.3447 C   0  0  0  0  0  0  0  0  0  0  0  0
   27.2798  -18.8370  -18.6394 C   0  0  0  0  0  0  0  0  0  0  0  0
   26.2752  -18.7274  -19.3826 O   0  0  0  0  0  0  0  0  0  0  0  0
   25.7913  -20.0303  -14.6607 C   0  0  0  0  0  0  0  0  0  0  0  0
   25.0589  -19.0959  -14.1697 O   0  0  0  0  0  0  0  0  0  0  0  0
   28.4839  -18.3081  -19.0420 O   0  0  0  0  0  0  0  0  0  0  0  0
   26.9542  -20.2676  -13.8670 N   0  0  0  0  0  0  0  0  0  0  0  0
   27.3448  -19.5195  -12.7525 C   0  0  1  0  0  0  0  0  0  0  0  0
   28.1132  -20.1391  -11.6655 C   0  0  0  0  0  0  0  0  0  0  0  0
   27.3088  -20.5828  -10.5043 C   0  0  0  0  0  0  0  0  0  0  0  0
   26.3397  -21.5556  -10.4132 C   0  0  0  0  0  0  0  0  0  0  0  0
   25.8796  -21.6087   -9.1259 N   0  0  0  0  0  0  0  0  0  0  0  0
   26.5203  -20.7023   -8.3866 C   0  0  0  0  0  0  0  0  0  0  0  0
   26.4005  -20.3867   -7.0518 C   0  0  0  0  0  0  0  0  0  0  0  0
   27.1884  -19.3855   -6.4871 C   0  0  0  0  0  0  0  0  0  0  0  0
   28.0766  -18.7408   -7.3203 C   0  0  0  0  0  0  0  0  0  0  0  0
   28.1911  -19.0621   -8.6573 C   0  0  0  0  0  0  0  0  0  0  0  0
   27.4098  -20.0539   -9.2145 C   0  0  0  0  0  0  0  0  0  0  0  0
   28.1224  -18.3160  -13.2285 C   0  0  0  0  0  0  0  0  0  0  0  0
   28.1995  -17.1898  -12.4306 O   0  0  0  0  0  0  0  0  0  0  0  0
   28.7100  -18.2832  -14.3237 O   0  0  0  0  0  0  0  0  0  0  0  0
  2  1  1  1
  2 13  1  0
  2  3  1  0
  4  3  1  0
  5  4  2  0
  6  5  1  0
  7  6  1  0
  7 12  2  0
  8  7  1  0
  9  8  2  0
  9 10  1  0
 10 11  2  0
 11 12  1  0
 12  4  1  0
 13 14  2  0
 15 13  1  0
 15 16  1  0
 16 17  1  6
 18 19  1  0
 18 17  1  0
 19 20  2  0
 21 22  2  0
 21 16  1  0
 23 19  1  0
 24 21  1  0
 25 24  1  0
 26 27  1  0
 25 26  1  1
 27 28  2  0
 27 35  1  0
 28 29  1  0
 29 30  1  0
 30 31  2  0
 31 32  1  0
 33 32  2  0
 34 33  1  0
 35 34  2  0
 35 30  1  0
 36 37  1  0
 36 25  1  0
 38 36  2  0
M  END
$$$$
