WEW.pdb
     RDKit          3D

 38 41  0  0  1  0  0  0  0  0999 V2000
   27.4915  -18.2871  -17.7185 N   0  0  0  0  0  0  0  0  0  0  0  0
   27.8888  -17.6359  -16.4914 C   0  0  1  0  0  0  0  0  0  0  0  0
   27.8962  -16.1444  -16.7456 C   0  0  0  0  0  0  0  0  0  0  0  0
   28.7761  -15.9289  -17.9128 C   0  0  0  0  0  0  0  0  0  0  0  0
   28.4988  -15.2477  -19.0683 C   0  0  0  0  0  0  0  0  0  0  0  0
   29.5981  -15.3113  -19.8615 N   0  0  0  0  0  0  0  0  0  0  0  0
   30.5694  -16.0151  -19.2422 C   0  0  0  0  0  0  0  0  0  0  0  0
   31.8661  -16.3962  -19.5508 C   0  0  0  0  0  0  0  0  0  0  0  0
   32.6466  -17.1409  -18.6860 C   0  0  0  0  0  0  0  0  0  0  0  0
   32.1391  -17.5323  -17.4628 C   0  0  0  0  0  0  0  0  0  0  0  0
   30.8530  -17.1526  -17.1601 C   0  0  0  0  0  0  0  0  0  0  0  0
   30.0609  -16.4028  -18.0254 C   0  0  0  0  0  0  0  0  0  0  0  0
   26.9564  -18.0441  -15.4132 C   0  0  0  0  0  0  0  0  0  0  0  0
   26.9384  -17.4309  -14.3007 O   0  0  0  0  0  0  0  0  0  0  0  0
   26.0554  -19.1133  -15.5559 N   0  0  0  0  0  0  0  0  0  0  0  0
   25.0506  -19.4385  -14.5341 C   0  0  1  0  0  0  0  0  0  0  0  0
   23.7542  -19.5775  -15.2577 C   0  0  0  0  0  0  0  0  0  0  0  0
   23.1483  -18.3845  -15.8802 C   0  0  0  0  0  0  0  0  0  0  0  0
   21.8366  -18.7041  -16.4718 C   0  0  0  0  0  0  0  0  0  0  0  0
   21.1570  -17.7931  -17.0028 O   0  0  0  0  0  0  0  0  0  0  0  0
   25.4408  -20.5489  -13.7222 C   0  0  0  0  0  0  0  0  0  0  0  0
   25.9542  -21.6179  -14.2165 O   0  0  0  0  0  0  0  0  0  0  0  0
   21.3491  -19.9900  -16.4486 O   0  0  0  0  0  0  0  0  0  0  0  0
   25.3183  -20.6249  -12.3017 N   0  0  0  0  0  0  0  0  0  0  0  0
   25.3287  -21.8012  -11.5462 C   0  0  1  0  0  0  0  0  0  0  0  0
   26.3617  -22.0292  -10.5280 C   0  0  0  0  0  0  0  0  0  0  0  0
   26.4019  -21.0244   -9.4413 C   0  0  0  0  0  0  0  0  0  0  0  0
   25.3866  -20.2943   -8.8668 C   0  0  0  0  0  0  0  0  0  0  0  0
   25.9104  -19.4924   -7.8901 N   0  0  0  0  0  0  0  0  0  0  0  0
   27.2284  -19.6822   -7.8176 C   0  0  0  0  0  0  0  0  0  0  0  0
   28.1737  -19.1072   -6.9982 C   0  0  0  0  0  0  0  0  0  0  0  0
   29.5159  -19.4668   -7.1040 C   0  0  0  0  0  0  0  0  0  0  0  0
   29.8400  -20.4104   -8.0545 C   0  0  0  0  0  0  0  0  0  0  0  0
   28.8873  -20.9823   -8.8726 C   0  0  0  0  0  0  0  0  0  0  0  0
   27.5587  -20.6247   -8.7662 C   0  0  0  0  0  0  0  0  0  0  0  0
   23.9862  -21.9525  -10.8719 C   0  0  0  0  0  0  0  0  0  0  0  0
   23.7335  -23.0630  -10.0884 O   0  0  0  0  0  0  0  0  0  0  0  0
   23.0761  -21.1131  -10.9862 O   0  0  0  0  0  0  0  0  0  0  0  0
  2  1  1  6
  2 13  1  0
  2  3  1  0
  4  3  1  0
  5  4  2  0
  6  5  1  0
  7  6  1  0
  7 12  2  0
  8  7  1  0
  9  8  2  0
  9 10  1  0
 10 11  2  0
 11 12  1  0
 12  4  1  0
 13 14  2  0
 15 13  1  0
 15 16  1  0
 16 17  1  6
 18 19  1  0
 18 17  1  0
 19 20  2  0
 21 22  2  0
 21 16  1  0
 23 19  1  0
 24 21  1  0
 25 24  1  0
 26 27  1  0
 25 26  1  1
 27 28  2  0
 27 35  1  0
 28 29  1  0
 29 30  1  0
 30 31  2  0
 31 32  1  0
 33 32  2  0
 34 33  1  0
 35 34  2  0
 35 30  1  0
 36 37  1  0
 36 25  1  0
 38 36  2  0
M  END
$$$$
