WEW.pdb
     RDKit          3D

 38 41  0  0  1  0  0  0  0  0999 V2000
   26.3489  -22.5271  -11.4039 N   0  0  0  0  0  0  0  0  0  0  0  0
   25.6715  -21.4026  -10.8004 C   0  0  1  0  0  0  0  0  0  0  0  0
   26.5440  -20.1822  -10.9978 C   0  0  0  0  0  0  0  0  0  0  0  0
   27.7331  -20.3824  -10.1440 C   0  0  0  0  0  0  0  0  0  0  0  0
   28.9979  -20.7448  -10.5248 C   0  0  0  0  0  0  0  0  0  0  0  0
   29.7643  -20.8132   -9.4069 N   0  0  0  0  0  0  0  0  0  0  0  0
   29.0214  -20.5037   -8.3231 C   0  0  0  0  0  0  0  0  0  0  0  0
   29.2519  -20.4077   -6.9594 C   0  0  0  0  0  0  0  0  0  0  0  0
   28.2606  -20.0556   -6.0621 C   0  0  0  0  0  0  0  0  0  0  0  0
   26.9849  -19.7843   -6.5156 C   0  0  0  0  0  0  0  0  0  0  0  0
   26.7600  -19.8804   -7.8684 C   0  0  0  0  0  0  0  0  0  0  0  0
   27.7527  -20.2342   -8.7781 C   0  0  0  0  0  0  0  0  0  0  0  0
   24.3285  -21.2709  -11.4150 C   0  0  0  0  0  0  0  0  0  0  0  0
   24.1060  -21.6952  -12.5917 O   0  0  0  0  0  0  0  0  0  0  0  0
   23.2437  -20.6799  -10.7447 N   0  0  0  0  0  0  0  0  0  0  0  0
   21.8861  -20.6611  -11.3067 C   0  0  1  0  0  0  0  0  0  0  0  0
   20.9880  -20.2105  -10.2048 C   0  0  0  0  0  0  0  0  0  0  0  0
   20.6292  -21.1633   -9.1365 C   0  0  0  0  0  0  0  0  0  0  0  0
   19.8092  -22.2681   -9.6655 C   0  0  0  0  0  0  0  0  0  0  0  0
   20.3296  -23.3950   -9.8469 O   0  0  0  0  0  0  0  0  0  0  0  0
   21.8122  -19.9148  -12.5242 C   0  0  0  0  0  0  0  0  0  0  0  0
   22.3940  -18.7792  -12.6734 O   0  0  0  0  0  0  0  0  0  0  0  0
   18.4799  -22.0777   -9.9623 O   0  0  0  0  0  0  0  0  0  0  0  0
   21.1070  -20.3102  -13.7010 N   0  0  0  0  0  0  0  0  0  0  0  0
   21.1168  -19.6298  -14.9223 C   0  0  1  0  0  0  0  0  0  0  0  0
   22.1156  -19.9487  -15.9501 C   0  0  0  0  0  0  0  0  0  0  0  0
   22.0319  -19.1287  -17.1801 C   0  0  0  0  0  0  0  0  0  0  0  0
   22.5175  -17.8683  -17.4435 C   0  0  0  0  0  0  0  0  0  0  0  0
   22.1976  -17.5258  -18.7288 N   0  0  0  0  0  0  0  0  0  0  0  0
   21.5222  -18.5238  -19.3002 C   0  0  0  0  0  0  0  0  0  0  0  0
   20.9956  -18.6406  -20.5670 C   0  0  0  0  0  0  0  0  0  0  0  0
   20.3177  -19.7968  -20.9485 C   0  0  0  0  0  0  0  0  0  0  0  0
   20.2048  -20.7976  -20.0079 C   0  0  0  0  0  0  0  0  0  0  0  0
   20.7348  -20.6735  -18.7400 C   0  0  0  0  0  0  0  0  0  0  0  0
   21.4057  -19.5276  -18.3643 C   0  0  0  0  0  0  0  0  0  0  0  0
   19.7538  -19.7618  -15.5582 C   0  0  0  0  0  0  0  0  0  0  0  0
   19.1165  -18.6395  -16.0534 O   0  0  0  0  0  0  0  0  0  0  0  0
   19.1612  -20.8498  -15.6626 O   0  0  0  0  0  0  0  0  0  0  0  0
  2  1  1  6
  2 13  1  0
  2  3  1  0
  4  3  1  0
  5  4  2  0
  6  5  1  0
  7  6  1  0
  7 12  2  0
  8  7  1  0
  9  8  2  0
  9 10  1  0
 10 11  2  0
 11 12  1  0
 12  4  1  0
 13 14  2  0
 15 13  1  0
 15 16  1  0
 16 17  1  1
 18 19  1  0
 18 17  1  0
 19 20  2  0
 21 22  2  0
 21 16  1  0
 23 19  1  0
 24 21  1  0
 25 24  1  0
 26 27  1  0
 25 26  1  6
 27 28  2  0
 27 35  1  0
 28 29  1  0
 29 30  1  0
 30 31  2  0
 31 32  1  0
 33 32  2  0
 34 33  1  0
 35 34  2  0
 35 30  1  0
 36 37  1  0
 36 25  1  0
 38 36  2  0
M  END
$$$$
