WEW.pdb
     RDKit          3D

 38 41  0  0  1  0  0  0  0  0999 V2000
   14.7341  -17.4455  -16.5810 N   0  0  0  0  0  0  0  0  0  0  0  0
   15.9989  -17.7909  -17.1883 C   0  0  1  0  0  0  0  0  0  0  0  0
   16.5380  -16.5483  -17.8626 C   0  0  0  0  0  0  0  0  0  0  0  0
   15.6776  -16.3113  -19.0401 C   0  0  0  0  0  0  0  0  0  0  0  0
   14.5904  -15.4844  -19.1421 C   0  0  0  0  0  0  0  0  0  0  0  0
   14.1076  -15.5876  -20.4062 N   0  0  0  0  0  0  0  0  0  0  0  0
   14.8584  -16.4587  -21.1132 C   0  0  0  0  0  0  0  0  0  0  0  0
   14.8482  -16.9494  -22.4097 C   0  0  0  0  0  0  0  0  0  0  0  0
   15.7791  -17.8652  -22.8640 C   0  0  0  0  0  0  0  0  0  0  0  0
   16.7662  -18.3242  -22.0143 C   0  0  0  0  0  0  0  0  0  0  0  0
   16.7733  -17.8355  -20.7295 C   0  0  0  0  0  0  0  0  0  0  0  0
   15.8396  -16.9132  -20.2647 C   0  0  0  0  0  0  0  0  0  0  0  0
   16.8988  -18.3282  -16.1395 C   0  0  0  0  0  0  0  0  0  0  0  0
   17.2418  -17.6137  -15.1466 O   0  0  0  0  0  0  0  0  0  0  0  0
   17.4156  -19.6346  -16.1818 N   0  0  0  0  0  0  0  0  0  0  0  0
   18.3515  -20.1446  -15.1701 C   0  0  1  0  0  0  0  0  0  0  0  0
   18.0945  -21.6100  -15.0697 C   0  0  0  0  0  0  0  0  0  0  0  0
   18.9317  -22.4253  -14.1685 C   0  0  0  0  0  0  0  0  0  0  0  0
   18.3946  -22.4187  -12.7959 C   0  0  0  0  0  0  0  0  0  0  0  0
   17.1632  -22.2647  -12.6124 O   0  0  0  0  0  0  0  0  0  0  0  0
   19.7025  -19.7590  -15.4361 C   0  0  0  0  0  0  0  0  0  0  0  0
   20.2370  -19.8765  -16.5984 O   0  0  0  0  0  0  0  0  0  0  0  0
   19.2280  -22.5796  -11.7137 O   0  0  0  0  0  0  0  0  0  0  0  0
   20.6144  -19.2114  -14.4837 N   0  0  0  0  0  0  0  0  0  0  0  0
   21.9585  -18.9111  -14.7240 C   0  0  1  0  0  0  0  0  0  0  0  0
   22.8646  -18.5889  -13.6146 C   0  0  0  0  0  0  0  0  0  0  0  0
   22.9339  -19.6112  -12.5459 C   0  0  0  0  0  0  0  0  0  0  0  0
   23.8689  -20.5942  -12.3145 C   0  0  0  0  0  0  0  0  0  0  0  0
   23.5105  -21.2976  -11.1973 N   0  0  0  0  0  0  0  0  0  0  0  0
   22.3763  -20.8000  -10.7028 C   0  0  0  0  0  0  0  0  0  0  0  0
   21.6374  -21.1733   -9.6027 C   0  0  0  0  0  0  0  0  0  0  0  0
   20.4650  -20.4958   -9.2736 C   0  0  0  0  0  0  0  0  0  0  0  0
   20.0921  -19.4522  -10.0925 C   0  0  0  0  0  0  0  0  0  0  0  0
   20.8374  -19.0836  -11.1937 C   0  0  0  0  0  0  0  0  0  0  0  0
   21.9980  -19.7561  -11.5179 C   0  0  0  0  0  0  0  0  0  0  0  0
   22.5761  -20.0515  -15.4973 C   0  0  0  0  0  0  0  0  0  0  0  0
   23.7568  -19.8518  -16.1878 O   0  0  0  0  0  0  0  0  0  0  0  0
   22.0682  -21.1852  -15.5470 O   0  0  0  0  0  0  0  0  0  0  0  0
  2  1  1  1
  2 13  1  0
  2  3  1  0
  4  3  1  0
  5  4  2  0
  6  5  1  0
  7  6  1  0
  7 12  2  0
  8  7  1  0
  9  8  2  0
  9 10  1  0
 10 11  2  0
 11 12  1  0
 12  4  1  0
 13 14  2  0
 15 13  1  0
 15 16  1  0
 16 17  1  6
 18 19  1  0
 18 17  1  0
 19 20  2  0
 21 22  2  0
 21 16  1  0
 23 19  1  0
 24 21  1  0
 25 24  1  0
 26 27  1  0
 25 26  1  1
 27 28  2  0
 27 35  1  0
 28 29  1  0
 29 30  1  0
 30 31  2  0
 31 32  1  0
 33 32  2  0
 34 33  1  0
 35 34  2  0
 35 30  1  0
 36 37  1  0
 36 25  1  0
 38 36  2  0
M  END
$$$$
