EWL.pdb
     RDKit          3D

 32 33  0  0  1  0  0  0  0  0999 V2000
   25.6424  -20.8943  -14.9058 N   0  0  0  0  0  0  0  0  0  0  0  0
   24.5914  -20.4290  -14.0275 C   0  0  1  0  0  0  0  0  0  0  0  0
   23.2918  -20.9928  -14.4684 C   0  0  0  0  0  0  0  0  0  0  0  0
   22.7719  -20.4462  -15.7599 C   0  0  0  0  0  0  0  0  0  0  0  0
   23.1532  -19.0815  -16.0850 C   0  0  0  0  0  0  0  0  0  0  0  0
   22.5770  -18.0894  -15.5867 O   0  0  0  0  0  0  0  0  0  0  0  0
   24.9379  -20.8697  -12.6282 C   0  0  0  0  0  0  0  0  0  0  0  0
   24.9216  -22.0944  -12.3299 O   0  0  0  0  0  0  0  0  0  0  0  0
   24.1990  -18.7917  -16.9844 O   0  0  0  0  0  0  0  0  0  0  0  0
   25.2888  -19.9403  -11.6278 N   0  0  0  0  0  0  0  0  0  0  0  0
   25.6309  -20.2184  -10.2873 C   0  0  1  0  0  0  0  0  0  0  0  0
   26.6456  -19.3890   -9.6150 C   0  0  0  0  0  0  0  0  0  0  0  0
   27.6192  -20.1223   -8.7752 C   0  0  0  0  0  0  0  0  0  0  0  0
   28.2599  -21.3196   -9.0711 C   0  0  0  0  0  0  0  0  0  0  0  0
   29.0873  -21.6406   -8.0593 N   0  0  0  0  0  0  0  0  0  0  0  0
   29.0074  -20.6937   -7.1137 C   0  0  0  0  0  0  0  0  0  0  0  0
   29.6390  -20.5566   -5.8928 C   0  0  0  0  0  0  0  0  0  0  0  0
   29.3360  -19.4435   -5.1141 C   0  0  0  0  0  0  0  0  0  0  0  0
   28.4316  -18.4984   -5.5404 C   0  0  0  0  0  0  0  0  0  0  0  0
   27.8261  -18.6643   -6.7510 C   0  0  0  0  0  0  0  0  0  0  0  0
   28.1068  -19.7575   -7.5464 C   0  0  0  0  0  0  0  0  0  0  0  0
   24.4319  -20.4441   -9.3894 C   0  0  0  0  0  0  0  0  0  0  0  0
   23.5913  -19.5114   -9.1680 O   0  0  0  0  0  0  0  0  0  0  0  0
   24.6728  -20.6574   -4.4167 C   0  0  0  0  0  0  0  0  0  0  0  0
   24.5600  -21.5593   -5.6839 C   0  0  1  0  0  0  0  0  0  0  0  0
   24.1561  -22.9191   -5.0963 C   0  0  0  0  0  0  0  0  0  0  0  0
   23.5237  -21.0125   -6.5792 C   0  0  0  0  0  0  0  0  0  0  0  0
   23.0694  -21.8113   -7.7407 C   0  0  2  0  0  0  0  0  0  0  0  0
   24.1669  -21.6629   -8.7553 N   0  0  0  0  0  0  0  0  0  0  0  0
   21.8189  -21.5166   -8.3966 C   0  0  0  0  0  0  0  0  0  0  0  0
   20.9918  -22.4621   -8.6501 O   0  0  0  0  0  0  0  0  0  0  0  0
   21.4229  -20.2611   -8.7793 O   0  0  0  0  0  0  0  0  0  0  0  0
  2  3  1  0
  2  1  1  6
  3  4  1  0
  4  5  1  0
  5  9  1  0
  6  5  2  0
  7  2  1  0
  8  7  2  0
 10  7  1  0
 11 10  1  0
 12 13  1  0
 11 12  1  1
 13 14  2  0
 14 15  1  0
 16 17  2  0
 16 15  1  0
 18 17  1  0
 19 18  2  0
 20 19  1  0
 20 21  2  0
 21 13  1  0
 21 16  1  0
 22 29  1  0
 22 11  1  0
 23 22  2  0
 25 24  1  1
 25 27  1  0
 26 25  1  0
 28 27  1  1
 28 29  1  0
 28 30  1  0
 30 32  1  0
 31 30  2  0
M  END
$$$$
