EWL.pdb
     RDKit          3D

 32 33  0  0  1  0  0  0  0  0999 V2000
   28.8777  -25.4634  -17.4412 N   0  0  0  0  0  0  0  0  0  0  0  0
   27.5443  -24.9066  -17.3738 C   0  0  1  0  0  0  0  0  0  0  0  0
   26.6170  -25.9107  -16.7965 C   0  0  0  0  0  0  0  0  0  0  0  0
   26.2909  -27.0599  -17.6965 C   0  0  0  0  0  0  0  0  0  0  0  0
   27.1996  -28.1939  -17.6530 C   0  0  0  0  0  0  0  0  0  0  0  0
   27.6544  -28.7266  -18.6892 O   0  0  0  0  0  0  0  0  0  0  0  0
   27.6114  -23.6639  -16.5231 C   0  0  0  0  0  0  0  0  0  0  0  0
   28.1502  -23.7070  -15.3842 O   0  0  0  0  0  0  0  0  0  0  0  0
   27.6252  -28.7644  -16.4364 O   0  0  0  0  0  0  0  0  0  0  0  0
   27.0850  -22.4348  -16.9701 N   0  0  0  0  0  0  0  0  0  0  0  0
   27.0180  -21.2232  -16.2498 C   0  0  1  0  0  0  0  0  0  0  0  0
   26.9732  -19.9481  -16.9857 C   0  0  0  0  0  0  0  0  0  0  0  0
   26.8507  -18.7309  -16.1526 C   0  0  0  0  0  0  0  0  0  0  0  0
   27.7348  -18.2777  -15.1807 C   0  0  0  0  0  0  0  0  0  0  0  0
   27.2755  -17.1203  -14.6698 N   0  0  0  0  0  0  0  0  0  0  0  0
   26.1219  -16.8039  -15.2751 C   0  0  0  0  0  0  0  0  0  0  0  0
   25.2602  -15.7366  -15.1132 C   0  0  0  0  0  0  0  0  0  0  0  0
   24.1130  -15.6890  -15.9001 C   0  0  0  0  0  0  0  0  0  0  0  0
   23.8356  -16.6752  -16.8184 C   0  0  0  0  0  0  0  0  0  0  0  0
   24.7077  -17.7149  -16.9530 C   0  0  0  0  0  0  0  0  0  0  0  0
   25.8543  -17.7893  -16.1873 C   0  0  0  0  0  0  0  0  0  0  0  0
   25.9992  -21.2393  -15.1287 C   0  0  0  0  0  0  0  0  0  0  0  0
   24.8434  -21.7502  -15.2979 O   0  0  0  0  0  0  0  0  0  0  0  0
   25.1607  -21.9950   -9.7547 C   0  0  0  0  0  0  0  0  0  0  0  0
   25.3578  -20.5151  -10.2048 C   0  0  1  0  0  0  0  0  0  0  0  0
   26.2457  -19.9388   -9.0926 C   0  0  0  0  0  0  0  0  0  0  0  0
   26.0287  -20.4915  -11.5178 C   0  0  0  0  0  0  0  0  0  0  0  0
   25.2570  -20.8295  -12.7360 C   0  0  2  0  0  0  0  0  0  0  0  0
   26.2481  -20.7089  -13.8580 N   0  0  0  0  0  0  0  0  0  0  0  0
   24.0834  -20.0742  -13.1006 C   0  0  0  0  0  0  0  0  0  0  0  0
   24.2092  -18.9299  -13.6637 O   0  0  0  0  0  0  0  0  0  0  0  0
   22.7958  -20.4975  -12.8942 O   0  0  0  0  0  0  0  0  0  0  0  0
  2  3  1  0
  2  1  1  1
  3  4  1  0
  4  5  1  0
  5  9  1  0
  6  5  2  0
  7  2  1  0
  8  7  2  0
 10  7  1  0
 11 10  1  0
 12 13  1  0
 11 12  1  6
 13 14  2  0
 14 15  1  0
 16 17  2  0
 16 15  1  0
 18 17  1  0
 19 18  2  0
 20 19  1  0
 20 21  2  0
 21 13  1  0
 21 16  1  0
 22 29  1  0
 22 11  1  0
 23 22  2  0
 25 24  1  1
 25 27  1  0
 26 25  1  0
 28 27  1  1
 28 29  1  0
 28 30  1  0
 30 32  1  0
 31 30  2  0
M  END
$$$$
