EWL.pdb
     RDKit          3D

 32 33  0  0  1  0  0  0  0  0999 V2000
   28.8764  -20.6247  -14.3437 N   0  0  0  0  0  0  0  0  0  0  0  0
   27.5360  -21.0979  -14.6117 C   0  0  1  0  0  0  0  0  0  0  0  0
   27.6027  -22.3671  -15.3772 C   0  0  0  0  0  0  0  0  0  0  0  0
   28.2863  -22.2690  -16.7039 C   0  0  0  0  0  0  0  0  0  0  0  0
   28.0929  -21.0313  -17.4415 C   0  0  0  0  0  0  0  0  0  0  0  0
   26.9718  -20.6735  -17.8653 O   0  0  0  0  0  0  0  0  0  0  0  0
   26.8460  -21.2891  -13.2851 C   0  0  0  0  0  0  0  0  0  0  0  0
   25.7243  -21.8620  -13.2339 O   0  0  0  0  0  0  0  0  0  0  0  0
   29.1604  -20.1556  -17.7251 O   0  0  0  0  0  0  0  0  0  0  0  0
   27.4272  -20.8433  -12.0805 N   0  0  0  0  0  0  0  0  0  0  0  0
   26.8272  -20.8140  -10.8036 C   0  0  1  0  0  0  0  0  0  0  0  0
   27.6122  -20.3466   -9.6484 C   0  0  0  0  0  0  0  0  0  0  0  0
   26.9622  -20.4993   -8.3274 C   0  0  0  0  0  0  0  0  0  0  0  0
   25.7263  -21.0729   -8.0531 C   0  0  0  0  0  0  0  0  0  0  0  0
   25.5085  -21.0411   -6.7254 N   0  0  0  0  0  0  0  0  0  0  0  0
   26.5600  -20.4658   -6.1248 C   0  0  0  0  0  0  0  0  0  0  0  0
   26.8252  -20.1920   -4.7971 C   0  0  0  0  0  0  0  0  0  0  0  0
   28.0268  -19.5654   -4.4795 C   0  0  0  0  0  0  0  0  0  0  0  0
   28.9337  -19.2232   -5.4559 C   0  0  0  0  0  0  0  0  0  0  0  0
   28.6406  -19.5083   -6.7569 C   0  0  0  0  0  0  0  0  0  0  0  0
   27.4573  -20.1299   -7.1030 C   0  0  0  0  0  0  0  0  0  0  0  0
   25.4396  -20.2063  -10.7991 C   0  0  0  0  0  0  0  0  0  0  0  0
   25.2745  -18.9435  -10.8575 O   0  0  0  0  0  0  0  0  0  0  0  0
   22.5753  -21.1010  -14.8264 C   0  0  0  0  0  0  0  0  0  0  0  0
   23.0325  -20.2783  -13.5830 C   0  0  1  0  0  0  0  0  0  0  0  0
   22.3498  -18.9212  -13.8059 C   0  0  0  0  0  0  0  0  0  0  0  0
   22.5550  -20.9443  -12.3571 C   0  0  0  0  0  0  0  0  0  0  0  0
   22.9182  -20.3837  -11.0351 C   0  0  2  0  0  0  0  0  0  0  0  0
   24.2682  -20.9689  -10.7333 N   0  0  0  0  0  0  0  0  0  0  0  0
   22.0760  -20.5996   -9.8841 C   0  0  0  0  0  0  0  0  0  0  0  0
   22.2494  -21.6362   -9.1508 O   0  0  0  0  0  0  0  0  0  0  0  0
   21.0727  -19.7527   -9.4897 O   0  0  0  0  0  0  0  0  0  0  0  0
  2  3  1  0
  2  1  1  1
  3  4  1  0
  4  5  1  0
  5  9  1  0
  6  5  2  0
  7  2  1  0
  8  7  2  0
 10  7  1  0
 11 10  1  0
 12 13  1  0
 11 12  1  1
 13 14  2  0
 14 15  1  0
 16 17  2  0
 16 15  1  0
 18 17  1  0
 19 18  2  0
 20 19  1  0
 20 21  2  0
 21 13  1  0
 21 16  1  0
 22 29  1  0
 22 11  1  0
 23 22  2  0
 25 24  1  6
 25 27  1  0
 26 25  1  0
 28 27  1  6
 28 29  1  0
 28 30  1  0
 30 32  1  0
 31 30  2  0
M  END
$$$$
