EWL.pdb
     RDKit          3D

 32 33  0  0  1  0  0  0  0  0999 V2000
   27.9479  -20.5460  -16.9190 N   0  0  0  0  0  0  0  0  0  0  0  0
   27.2487  -21.8114  -16.8691 C   0  0  1  0  0  0  0  0  0  0  0  0
   28.1688  -22.9019  -17.2761 C   0  0  0  0  0  0  0  0  0  0  0  0
   29.6127  -22.5178  -17.3426 C   0  0  0  0  0  0  0  0  0  0  0  0
   30.3240  -22.8824  -18.5570 C   0  0  0  0  0  0  0  0  0  0  0  0
   30.4089  -22.1124  -19.5390 O   0  0  0  0  0  0  0  0  0  0  0  0
   26.7546  -22.0041  -15.4581 C   0  0  0  0  0  0  0  0  0  0  0  0
   26.1020  -23.0387  -15.1536 O   0  0  0  0  0  0  0  0  0  0  0  0
   30.9636  -24.1299  -18.7026 O   0  0  0  0  0  0  0  0  0  0  0  0
   27.0067  -21.0496  -14.4515 N   0  0  0  0  0  0  0  0  0  0  0  0
   26.4391  -21.0013  -13.1604 C   0  0  1  0  0  0  0  0  0  0  0  0
   27.2182  -20.4252  -12.0512 C   0  0  0  0  0  0  0  0  0  0  0  0
   26.5508  -20.4271  -10.7300 C   0  0  0  0  0  0  0  0  0  0  0  0
   25.1854  -20.4132  -10.4712 C   0  0  0  0  0  0  0  0  0  0  0  0
   24.9869  -20.4465   -9.1405 N   0  0  0  0  0  0  0  0  0  0  0  0
   26.1763  -20.4811   -8.5230 C   0  0  0  0  0  0  0  0  0  0  0  0
   26.5179  -20.5168   -7.1850 C   0  0  0  0  0  0  0  0  0  0  0  0
   27.8685  -20.5394   -6.8489 C   0  0  0  0  0  0  0  0  0  0  0  0
   28.8457  -20.5263   -7.8173 C   0  0  0  0  0  0  0  0  0  0  0  0
   28.4737  -20.4911   -9.1288 C   0  0  0  0  0  0  0  0  0  0  0  0
   27.1422  -20.4690   -9.4934 C   0  0  0  0  0  0  0  0  0  0  0  0
   25.0122  -20.4930  -13.1435 C   0  0  0  0  0  0  0  0  0  0  0  0
   24.7437  -19.2780  -13.4215 O   0  0  0  0  0  0  0  0  0  0  0  0
   20.7397  -20.2579  -15.6819 C   0  0  0  0  0  0  0  0  0  0  0  0
   20.7590  -21.5862  -14.8653 C   0  0  1  0  0  0  0  0  0  0  0  0
   20.4679  -22.6464  -15.9370 C   0  0  0  0  0  0  0  0  0  0  0  0
   22.0906  -21.7638  -14.2572 C   0  0  0  0  0  0  0  0  0  0  0  0
   22.5040  -20.8841  -13.1396 C   0  0  2  0  0  0  0  0  0  0  0  0
   23.9135  -21.3009  -12.8306 N   0  0  0  0  0  0  0  0  0  0  0  0
   21.7665  -20.8680  -11.9001 C   0  0  0  0  0  0  0  0  0  0  0  0
   21.9657  -21.7838  -11.0260 O   0  0  0  0  0  0  0  0  0  0  0  0
   20.8408  -19.9148  -11.5627 O   0  0  0  0  0  0  0  0  0  0  0  0
  2  3  1  0
  2  1  1  1
  3  4  1  0
  4  5  1  0
  5  9  1  0
  6  5  2  0
  7  2  1  0
  8  7  2  0
 10  7  1  0
 11 10  1  0
 12 13  1  0
 11 12  1  1
 13 14  2  0
 14 15  1  0
 16 17  2  0
 16 15  1  0
 18 17  1  0
 19 18  2  0
 20 19  1  0
 20 21  2  0
 21 13  1  0
 21 16  1  0
 22 29  1  0
 22 11  1  0
 23 22  2  0
 25 24  1  6
 25 27  1  0
 26 25  1  0
 28 27  1  6
 28 29  1  0
 28 30  1  0
 30 32  1  0
 31 30  2  0
M  END
$$$$
