EWL.pdb
     RDKit          3D

 32 33  0  0  1  0  0  0  0  0999 V2000
   28.3933  -23.1076  -16.2460 N   0  0  0  0  0  0  0  0  0  0  0  0
   27.7512  -21.8364  -15.9926 C   0  0  1  0  0  0  0  0  0  0  0  0
   26.9799  -21.4237  -17.1910 C   0  0  0  0  0  0  0  0  0  0  0  0
   27.8080  -20.9477  -18.3419 C   0  0  0  0  0  0  0  0  0  0  0  0
   28.4365  -19.6454  -18.1918 C   0  0  0  0  0  0  0  0  0  0  0  0
   27.7774  -18.6070  -17.9639 O   0  0  0  0  0  0  0  0  0  0  0  0
   26.8558  -22.0089  -14.7923 C   0  0  0  0  0  0  0  0  0  0  0  0
   26.2389  -23.0940  -14.6158 O   0  0  0  0  0  0  0  0  0  0  0  0
   29.8316  -19.4725  -18.2941 O   0  0  0  0  0  0  0  0  0  0  0  0
   26.6868  -20.9793  -13.8442 N   0  0  0  0  0  0  0  0  0  0  0  0
   25.8403  -20.9899  -12.7152 C   0  0  1  0  0  0  0  0  0  0  0  0
   26.2323  -20.2352  -11.5126 C   0  0  0  0  0  0  0  0  0  0  0  0
   27.3791  -20.7855  -10.7558 C   0  0  0  0  0  0  0  0  0  0  0  0
   28.5268  -21.3774  -11.2695 C   0  0  0  0  0  0  0  0  0  0  0  0
   29.3392  -21.7229  -10.2536 N   0  0  0  0  0  0  0  0  0  0  0  0
   28.7600  -21.3769   -9.0951 C   0  0  0  0  0  0  0  0  0  0  0  0
   29.1704  -21.5156   -7.7835 C   0  0  0  0  0  0  0  0  0  0  0  0
   28.3274  -21.0555   -6.7759 C   0  0  0  0  0  0  0  0  0  0  0  0
   27.1144  -20.4762   -7.0687 C   0  0  0  0  0  0  0  0  0  0  0  0
   26.7400  -20.3546   -8.3743 C   0  0  0  0  0  0  0  0  0  0  0  0
   27.5549  -20.8006   -9.3958 C   0  0  0  0  0  0  0  0  0  0  0  0
   24.3807  -20.7598  -13.0490 C   0  0  0  0  0  0  0  0  0  0  0  0
   23.9855  -19.6525  -13.5420 O   0  0  0  0  0  0  0  0  0  0  0  0
   19.8043  -22.4351  -15.2733 C   0  0  0  0  0  0  0  0  0  0  0  0
   19.9516  -22.9319  -13.8025 C   0  0  1  0  0  0  0  0  0  0  0  0
   19.5024  -24.3972  -13.8939 C   0  0  0  0  0  0  0  0  0  0  0  0
   21.3611  -22.8091  -13.3868 C   0  0  0  0  0  0  0  0  0  0  0  0
   21.9452  -21.4636  -13.1816 C   0  0  2  0  0  0  0  0  0  0  0  0
   23.3862  -21.7231  -12.8465 N   0  0  0  0  0  0  0  0  0  0  0  0
   21.4130  -20.5716  -12.1807 C   0  0  0  0  0  0  0  0  0  0  0  0
   20.5120  -19.7179  -12.4996 O   0  0  0  0  0  0  0  0  0  0  0  0
   21.7995  -20.5656  -10.8653 O   0  0  0  0  0  0  0  0  0  0  0  0
  2  3  1  0
  2  1  1  6
  3  4  1  0
  4  5  1  0
  5  9  1  0
  6  5  2  0
  7  2  1  0
  8  7  2  0
 10  7  1  0
 11 10  1  0
 12 13  1  0
 11 12  1  1
 13 14  2  0
 14 15  1  0
 16 17  2  0
 16 15  1  0
 18 17  1  0
 19 18  2  0
 20 19  1  0
 20 21  2  0
 21 13  1  0
 21 16  1  0
 22 29  1  0
 22 11  1  0
 23 22  2  0
 25 24  1  6
 25 27  1  0
 26 25  1  0
 28 27  1  1
 28 29  1  0
 28 30  1  0
 30 32  1  0
 31 30  2  0
M  END
$$$$
