YPT.pdb
     RDKit          3D

 27 28  0  0  1  0  0  0  0  0999 V2000
   18.9896  -13.5119  -17.6355 O   0  0  0  0  0  0  0  0  0  0  0  0
   19.7090  -14.5711  -17.0690 C   0  0  0  0  0  0  0  0  0  0  0  0
   19.0552  -15.7427  -16.7527 C   0  0  0  0  0  0  0  0  0  0  0  0
   19.7756  -16.7920  -16.1899 C   0  0  0  0  0  0  0  0  0  0  0  0
   21.1214  -16.6928  -15.9409 C   0  0  0  0  0  0  0  0  0  0  0  0
   21.8760  -17.8094  -15.3533 C   0  0  0  0  0  0  0  0  0  0  0  0
   22.7877  -18.4681  -16.3720 C   0  0  2  0  0  0  0  0  0  0  0  0
   22.0442  -19.2452  -17.2533 N   0  0  0  0  0  0  0  0  0  0  0  0
   23.9701  -19.0781  -15.7438 C   0  0  0  0  0  0  0  0  0  0  0  0
   23.9981  -20.3576  -15.7825 O   0  0  0  0  0  0  0  0  0  0  0  0
   21.7491  -15.5127  -16.2660 C   0  0  0  0  0  0  0  0  0  0  0  0
   21.0590  -14.4473  -16.8284 C   0  0  0  0  0  0  0  0  0  0  0  0
   25.0437  -18.4226  -15.1215 N   0  0  0  0  0  0  0  0  0  0  0  0
   25.2699  -17.0189  -14.8604 C   0  0  0  0  0  0  0  0  0  0  0  0
   26.7525  -16.8667  -14.9667 C   0  0  0  0  0  0  0  0  0  0  0  0
   27.3381  -18.2444  -15.1146 C   0  0  0  0  0  0  0  0  0  0  0  0
   26.2162  -19.1040  -14.5807 C   0  0  1  0  0  0  0  0  0  0  0  0
   26.2507  -19.0489  -13.1011 C   0  0  0  0  0  0  0  0  0  0  0  0
   25.7036  -18.1227  -12.4567 O   0  0  0  0  0  0  0  0  0  0  0  0
   28.3572  -22.0755  -11.0284 C   0  0  0  0  0  0  0  0  0  0  0  0
   26.9845  -22.3486  -11.5380 C   0  0  1  0  0  0  0  0  0  0  0  0
   26.2783  -23.2844  -10.8222 O   0  0  0  0  0  0  0  0  0  0  0  0
   26.1863  -21.0651  -11.6018 C   0  0  2  0  0  0  0  0  0  0  0  0
   26.9116  -20.0534  -12.3473 N   0  0  0  0  0  0  0  0  0  0  0  0
   25.9121  -20.5883  -10.2360 C   0  0  0  0  0  0  0  0  0  0  0  0
   24.8911  -21.1578   -9.5072 O   0  0  0  0  0  0  0  0  0  0  0  0
   26.5953  -19.6728   -9.7306 O   0  0  0  0  0  0  0  0  0  0  0  0
  1  2  1  0
  2  3  2  0
  3  4  1  0
  5  6  1  0
  5  4  2  0
  7  6  1  0
  7  9  1  0
  7  8  1  1
  9 13  1  0
 10  9  2  0
 11  5  1  0
 12 11  2  0
 12  2  1  0
 13 17  1  0
 13 14  1  0
 14 15  1  0
 16 15  1  0
 17 16  1  0
 18 19  2  0
 17 18  1  1
 21 20  1  1
 21 22  1  0
 23 21  1  0
 23 24  1  6
 24 18  1  0
 25 23  1  0
 26 25  1  0
 27 25  2  0
M  END
$$$$
