YPT.pdb
     RDKit          3D

 27 28  0  0  1  0  0  0  0  0999 V2000
   20.6898  -18.1500  -18.3263 O   0  0  0  0  0  0  0  0  0  0  0  0
   21.3312  -18.7573  -17.2400 C   0  0  0  0  0  0  0  0  0  0  0  0
   22.6304  -18.4094  -16.9382 C   0  0  0  0  0  0  0  0  0  0  0  0
   23.2627  -19.0166  -15.8572 C   0  0  0  0  0  0  0  0  0  0  0  0
   22.6273  -19.9536  -15.0817 C   0  0  0  0  0  0  0  0  0  0  0  0
   23.3004  -20.5841  -13.9367 C   0  0  0  0  0  0  0  0  0  0  0  0
   24.5355  -21.3541  -14.3663 C   0  0  2  0  0  0  0  0  0  0  0  0
   24.1804  -22.4099  -15.1985 N   0  0  0  0  0  0  0  0  0  0  0  0
   25.4312  -21.6394  -13.2344 C   0  0  0  0  0  0  0  0  0  0  0  0
   25.1616  -22.7153  -12.5949 O   0  0  0  0  0  0  0  0  0  0  0  0
   21.3313  -20.2824  -15.4048 C   0  0  0  0  0  0  0  0  0  0  0  0
   20.6726  -19.6952  -16.4768 C   0  0  0  0  0  0  0  0  0  0  0  0
   26.5225  -20.8758  -12.7920 N   0  0  0  0  0  0  0  0  0  0  0  0
   27.1156  -19.6738  -13.3332 C   0  0  0  0  0  0  0  0  0  0  0  0
   28.5673  -19.8093  -13.0066 C   0  0  0  0  0  0  0  0  0  0  0  0
   28.7206  -21.0190  -12.1257 C   0  0  0  0  0  0  0  0  0  0  0  0
   27.3126  -21.1887  -11.6048 C   0  0  1  0  0  0  0  0  0  0  0  0
   27.0939  -20.2015  -10.5227 C   0  0  0  0  0  0  0  0  0  0  0  0
   26.6367  -19.0560  -10.7493 O   0  0  0  0  0  0  0  0  0  0  0  0
   24.5336  -20.0275   -9.0270 C   0  0  0  0  0  0  0  0  0  0  0  0
   25.3755  -20.3105   -7.8313 C   0  0  1  0  0  0  0  0  0  0  0  0
   25.4142  -21.6301   -7.4516 O   0  0  0  0  0  0  0  0  0  0  0  0
   26.7873  -19.8166   -8.0580 C   0  0  2  0  0  0  0  0  0  0  0  0
   27.3969  -20.5174   -9.1727 N   0  0  0  0  0  0  0  0  0  0  0  0
   27.5820  -20.0215   -6.8355 C   0  0  0  0  0  0  0  0  0  0  0  0
   27.3844  -19.1990   -5.7480 O   0  0  0  0  0  0  0  0  0  0  0  0
   28.4336  -20.9330   -6.7734 O   0  0  0  0  0  0  0  0  0  0  0  0
  1  2  1  0
  2  3  2  0
  3  4  1  0
  5  6  1  0
  5  4  2  0
  7  6  1  0
  7  9  1  0
  7  8  1  1
  9 13  1  0
 10  9  2  0
 11  5  1  0
 12 11  2  0
 12  2  1  0
 13 17  1  0
 13 14  1  0
 14 15  1  0
 16 15  1  0
 17 16  1  0
 18 19  2  0
 17 18  1  1
 21 20  1  6
 21 22  1  0
 23 21  1  0
 23 24  1  6
 24 18  1  0
 25 23  1  0
 26 25  1  0
 27 25  2  0
M  END
$$$$
