YPT.pdb
     RDKit          3D

 27 28  0  0  1  0  0  0  0  0999 V2000
   22.7604  -16.0897  -21.2922 O   0  0  0  0  0  0  0  0  0  0  0  0
   22.5210  -14.8779  -20.6331 C   0  0  0  0  0  0  0  0  0  0  0  0
   22.9858  -13.7028  -21.1837 C   0  0  0  0  0  0  0  0  0  0  0  0
   22.7447  -12.5014  -20.5239 C   0  0  0  0  0  0  0  0  0  0  0  0
   22.0555  -12.4538  -19.3383 C   0  0  0  0  0  0  0  0  0  0  0  0
   21.7985  -11.1792  -18.6522 C   0  0  0  0  0  0  0  0  0  0  0  0
   20.3316  -10.7952  -18.7126 C   0  0  2  0  0  0  0  0  0  0  0  0
   19.8879  -10.7916  -20.0303 N   0  0  0  0  0  0  0  0  0  0  0  0
   20.0329   -9.6187  -17.8812 C   0  0  0  0  0  0  0  0  0  0  0  0
   19.9356   -8.5168  -18.5260 O   0  0  0  0  0  0  0  0  0  0  0  0
   21.6029  -13.6410  -18.8108 C   0  0  0  0  0  0  0  0  0  0  0  0
   21.8270  -14.8561  -19.4441 C   0  0  0  0  0  0  0  0  0  0  0  0
   19.8483   -9.5769  -16.4905 N   0  0  0  0  0  0  0  0  0  0  0  0
   19.9787  -10.6110  -15.4889 C   0  0  0  0  0  0  0  0  0  0  0  0
   18.9474  -10.2562  -14.4677 C   0  0  0  0  0  0  0  0  0  0  0  0
   18.3792   -8.9159  -14.8469 C   0  0  0  0  0  0  0  0  0  0  0  0
   19.4631   -8.3780  -15.7517 C   0  0  1  0  0  0  0  0  0  0  0  0
   20.5693   -7.8745  -14.9052 C   0  0  0  0  0  0  0  0  0  0  0  0
   21.3593   -8.6477  -14.3132 O   0  0  0  0  0  0  0  0  0  0  0  0
   23.1034   -5.9559  -16.5235 C   0  0  0  0  0  0  0  0  0  0  0  0
   22.6686   -5.0941  -15.3891 C   0  0  1  0  0  0  0  0  0  0  0  0
   21.7941   -4.0906  -15.7285 O   0  0  0  0  0  0  0  0  0  0  0  0
   22.0543   -5.9405  -14.2960 C   0  0  2  0  0  0  0  0  0  0  0  0
   20.7800   -6.4821  -14.7297 N   0  0  0  0  0  0  0  0  0  0  0  0
   21.8712   -5.1226  -13.0853 C   0  0  0  0  0  0  0  0  0  0  0  0
   22.9736   -4.6975  -12.3767 O   0  0  0  0  0  0  0  0  0  0  0  0
   20.7272   -4.8100  -12.6936 O   0  0  0  0  0  0  0  0  0  0  0  0
  1  2  1  0
  2  3  2  0
  3  4  1  0
  5  6  1  0
  5  4  2  0
  7  6  1  0
  7  9  1  0
  7  8  1  6
  9 13  1  0
 10  9  2  0
 11  5  1  0
 12 11  2  0
 12  2  1  0
 13 17  1  0
 13 14  1  0
 14 15  1  0
 16 15  1  0
 17 16  1  0
 18 19  2  0
 17 18  1  1
 21 20  1  6
 21 22  1  0
 23 21  1  0
 23 24  1  6
 24 18  1  0
 25 23  1  0
 26 25  1  0
 27 25  2  0
M  END
$$$$
