YPT.pdb
     RDKit          3D

 27 28  0  0  1  0  0  0  0  0999 V2000
   28.1526  -15.4839  -20.3886 O   0  0  0  0  0  0  0  0  0  0  0  0
   27.7716  -16.2758  -19.2987 C   0  0  0  0  0  0  0  0  0  0  0  0
   28.7098  -16.6195  -18.3491 C   0  0  0  0  0  0  0  0  0  0  0  0
   28.3251  -17.4070  -17.2679 C   0  0  0  0  0  0  0  0  0  0  0  0
   27.0352  -17.8514  -17.1205 C   0  0  0  0  0  0  0  0  0  0  0  0
   26.6360  -18.6763  -15.9709 C   0  0  0  0  0  0  0  0  0  0  0  0
   27.2356  -20.0684  -16.0439 C   0  0  2  0  0  0  0  0  0  0  0  0
   26.8034  -20.7199  -17.1937 N   0  0  0  0  0  0  0  0  0  0  0  0
   27.1281  -20.7852  -14.7636 C   0  0  0  0  0  0  0  0  0  0  0  0
   26.3595  -21.8090  -14.7848 O   0  0  0  0  0  0  0  0  0  0  0  0
   26.1192  -17.4940  -18.0824 C   0  0  0  0  0  0  0  0  0  0  0  0
   26.4710  -16.7098  -19.1729 C   0  0  0  0  0  0  0  0  0  0  0  0
   27.7625  -20.4732  -13.5511 N   0  0  0  0  0  0  0  0  0  0  0  0
   28.6845  -19.4124  -13.2133 C   0  0  0  0  0  0  0  0  0  0  0  0
   29.5756  -20.0240  -12.1816 C   0  0  0  0  0  0  0  0  0  0  0  0
   29.0092  -21.3750  -11.8398 C   0  0  0  0  0  0  0  0  0  0  0  0
   27.5825  -21.2289  -12.3151 C   0  0  1  0  0  0  0  0  0  0  0  0
   26.8307  -20.4541  -11.3012 C   0  0  0  0  0  0  0  0  0  0  0  0
   27.0543  -19.2379  -11.0927 O   0  0  0  0  0  0  0  0  0  0  0  0
   23.6568  -19.8781  -12.0945 C   0  0  0  0  0  0  0  0  0  0  0  0
   23.4690  -20.4590  -10.7358 C   0  0  1  0  0  0  0  0  0  0  0  0
   23.0803  -21.7765  -10.7198 O   0  0  0  0  0  0  0  0  0  0  0  0
   24.7348  -20.3040   -9.9221 C   0  0  2  0  0  0  0  0  0  0  0  0
   25.8170  -21.0650  -10.5180 N   0  0  0  0  0  0  0  0  0  0  0  0
   24.4925  -20.7623   -8.5440 C   0  0  0  0  0  0  0  0  0  0  0  0
   23.5919  -20.0873   -7.7494 O   0  0  0  0  0  0  0  0  0  0  0  0
   25.0947  -21.7566   -8.0871 O   0  0  0  0  0  0  0  0  0  0  0  0
  1  2  1  0
  2  3  2  0
  3  4  1  0
  5  6  1  0
  5  4  2  0
  7  6  1  0
  7  9  1  0
  7  8  1  6
  9 13  1  0
 10  9  2  0
 11  5  1  0
 12 11  2  0
 12  2  1  0
 13 17  1  0
 13 14  1  0
 14 15  1  0
 16 15  1  0
 17 16  1  0
 18 19  2  0
 17 18  1  1
 21 20  1  6
 21 22  1  0
 23 21  1  0
 23 24  1  6
 24 18  1  0
 25 23  1  0
 26 25  1  0
 27 25  2  0
M  END
$$$$
