YPT.pdb
     RDKit          3D

 27 28  0  0  1  0  0  0  0  0999 V2000
   27.9874  -14.1921  -17.5576 O   0  0  0  0  0  0  0  0  0  0  0  0
   27.1901  -15.2957  -17.2309 C   0  0  0  0  0  0  0  0  0  0  0  0
   26.9402  -15.5837  -15.9063 C   0  0  0  0  0  0  0  0  0  0  0  0
   26.1469  -16.6819  -15.5878 C   0  0  0  0  0  0  0  0  0  0  0  0
   25.6053  -17.4876  -16.5576 C   0  0  0  0  0  0  0  0  0  0  0  0
   24.7619  -18.6412  -16.2122 C   0  0  0  0  0  0  0  0  0  0  0  0
   25.5219  -19.9489  -16.3355 C   0  0  2  0  0  0  0  0  0  0  0  0
   24.9272  -20.7639  -17.2922 N   0  0  0  0  0  0  0  0  0  0  0  0
   25.8275  -20.5372  -15.0220 C   0  0  0  0  0  0  0  0  0  0  0  0
   25.0883  -21.5298  -14.6937 O   0  0  0  0  0  0  0  0  0  0  0  0
   25.8705  -17.1778  -17.8714 C   0  0  0  0  0  0  0  0  0  0  0  0
   26.6580  -16.0894  -18.2223 C   0  0  0  0  0  0  0  0  0  0  0  0
   26.8185  -20.1356  -14.1130 N   0  0  0  0  0  0  0  0  0  0  0  0
   27.7567  -19.0370  -14.1630 C   0  0  0  0  0  0  0  0  0  0  0  0
   28.9660  -19.5633  -13.4608 C   0  0  0  0  0  0  0  0  0  0  0  0
   28.6021  -20.9008  -12.8763 C   0  0  0  0  0  0  0  0  0  0  0  0
   27.0940  -20.8141  -12.8500 C   0  0  1  0  0  0  0  0  0  0  0  0
   26.6949  -19.9912  -11.6851 C   0  0  0  0  0  0  0  0  0  0  0  0
   26.6783  -18.7381  -11.7298 O   0  0  0  0  0  0  0  0  0  0  0  0
   23.9572  -22.0760  -11.0374 C   0  0  0  0  0  0  0  0  0  0  0  0
   23.8853  -20.6374  -10.6578 C   0  0  1  0  0  0  0  0  0  0  0  0
   22.7250  -20.2648  -10.0239 O   0  0  0  0  0  0  0  0  0  0  0  0
   25.0674  -20.2667   -9.7897 C   0  0  2  0  0  0  0  0  0  0  0  0
   26.3115  -20.5960  -10.4597 N   0  0  0  0  0  0  0  0  0  0  0  0
   24.9786  -20.9829   -8.5063 C   0  0  0  0  0  0  0  0  0  0  0  0
   24.0439  -20.5940   -7.5718 O   0  0  0  0  0  0  0  0  0  0  0  0
   25.7415  -21.9394   -8.2553 O   0  0  0  0  0  0  0  0  0  0  0  0
  1  2  1  0
  2  3  2  0
  3  4  1  0
  5  6  1  0
  5  4  2  0
  7  6  1  0
  7  9  1  0
  7  8  1  6
  9 13  1  0
 10  9  2  0
 11  5  1  0
 12 11  2  0
 12  2  1  0
 13 17  1  0
 13 14  1  0
 14 15  1  0
 16 15  1  0
 17 16  1  0
 18 19  2  0
 17 18  1  1
 21 20  1  1
 21 22  1  0
 23 21  1  0
 23 24  1  6
 24 18  1  0
 25 23  1  0
 26 25  1  0
 27 25  2  0
M  END
$$$$
