YPT.pdb
     RDKit          3D

 27 28  0  0  1  0  0  0  0  0999 V2000
   21.4722  -16.9919  -23.0221 O   0  0  0  0  0  0  0  0  0  0  0  0
   21.2453  -16.0264  -22.0339 C   0  0  0  0  0  0  0  0  0  0  0  0
   22.3002  -15.2709  -21.5686 C   0  0  0  0  0  0  0  0  0  0  0  0
   22.0684  -14.3127  -20.5863 C   0  0  0  0  0  0  0  0  0  0  0  0
   20.8163  -14.0984  -20.0671 C   0  0  0  0  0  0  0  0  0  0  0  0
   20.5792  -13.0784  -19.0352 C   0  0  0  0  0  0  0  0  0  0  0  0
   20.8220  -13.6245  -17.6403 C   0  0  2  0  0  0  0  0  0  0  0  0
   19.9430  -14.6676  -17.3709 N   0  0  0  0  0  0  0  0  0  0  0  0
   20.9470  -12.5525  -16.6403 C   0  0  0  0  0  0  0  0  0  0  0  0
   19.9184  -12.3915  -15.8950 O   0  0  0  0  0  0  0  0  0  0  0  0
   19.7815  -14.8661  -20.5490 C   0  0  0  0  0  0  0  0  0  0  0  0
   19.9797  -15.8301  -21.5283 C   0  0  0  0  0  0  0  0  0  0  0  0
   22.0467  -11.7080  -16.4224 N   0  0  0  0  0  0  0  0  0  0  0  0
   23.3108  -11.6055  -17.1161 C   0  0  0  0  0  0  0  0  0  0  0  0
   24.2788  -11.2174  -16.0462 C   0  0  0  0  0  0  0  0  0  0  0  0
   23.4852  -10.9398  -14.7986 C   0  0  0  0  0  0  0  0  0  0  0  0
   22.1074  -10.6985  -15.3696 C   0  0  1  0  0  0  0  0  0  0  0  0
   22.0658   -9.3248  -15.9217 C   0  0  0  0  0  0  0  0  0  0  0  0
   22.7739   -8.9778  -16.8967 O   0  0  0  0  0  0  0  0  0  0  0  0
   19.4431   -8.2894  -17.7552 C   0  0  0  0  0  0  0  0  0  0  0  0
   19.4473   -7.2787  -16.6611 C   0  0  1  0  0  0  0  0  0  0  0  0
   18.5610   -7.5276  -15.6416 O   0  0  0  0  0  0  0  0  0  0  0  0
   20.8395   -7.1372  -16.0864 C   0  0  2  0  0  0  0  0  0  0  0  0
   21.2136   -8.3375  -15.3622 N   0  0  0  0  0  0  0  0  0  0  0  0
   20.8849   -5.9700  -15.1899 C   0  0  0  0  0  0  0  0  0  0  0  0
   20.8345   -4.6999  -15.7211 O   0  0  0  0  0  0  0  0  0  0  0  0
   20.9687   -6.1188  -13.9526 O   0  0  0  0  0  0  0  0  0  0  0  0
  1  2  1  0
  2  3  2  0
  3  4  1  0
  5  6  1  0
  5  4  2  0
  7  6  1  0
  7  9  1  0
  7  8  1  1
  9 13  1  0
 10  9  2  0
 11  5  1  0
 12 11  2  0
 12  2  1  0
 13 17  1  0
 13 14  1  0
 14 15  1  0
 16 15  1  0
 17 16  1  0
 18 19  2  0
 17 18  1  6
 21 20  1  6
 21 22  1  0
 23 21  1  0
 23 24  1  1
 24 18  1  0
 25 23  1  0
 26 25  1  0
 27 25  2  0
M  END
$$$$
