KMT.pdb
     RDKit          3D

 25 24  0  0  1  0  0  0  0  0999 V2000
    9.3390  -15.7021   19.4774 N   0  0  0  0  0  0  0  0  0  0  0  0
    8.4376  -16.0728   20.5155 C   0  0  1  0  0  0  0  0  0  0  0  0
    8.0404  -17.5078   20.4411 C   0  0  0  0  0  0  0  0  0  0  0  0
    8.7800  -18.3546   19.4826 C   0  0  0  0  0  0  0  0  0  0  0  0
    8.2490  -19.7288   19.2706 C   0  0  0  0  0  0  0  0  0  0  0  0
    9.1389  -20.4605   18.2372 C   0  0  0  0  0  0  0  0  0  0  0  0
    8.6163  -21.7978   18.0389 N   0  0  0  0  0  0  0  0  0  0  0  0
    8.9352  -15.6929   21.8656 C   0  0  0  0  0  0  0  0  0  0  0  0
   10.1630  -15.8136   22.0843 O   0  0  0  0  0  0  0  0  0  0  0  0
    5.3387  -12.5069   26.4858 C   0  0  0  0  0  0  0  0  0  0  0  0
    7.0733  -12.1122   26.9269 S   0  0  0  0  0  0  0  0  0  0  0  0
    8.0974  -13.4342   26.2386 C   0  0  0  0  0  0  0  0  0  0  0  0
    7.7143  -13.8189   24.8585 C   0  0  0  0  0  0  0  0  0  0  0  0
    8.6306  -14.7750   24.1792 C   0  0  2  0  0  0  0  0  0  0  0  0
    8.1200  -15.2119   22.8992 N   0  0  0  0  0  0  0  0  0  0  0  0
    8.9725  -15.9822   24.9770 C   0  0  0  0  0  0  0  0  0  0  0  0
    8.1398  -16.9270   24.9947 O   0  0  0  0  0  0  0  0  0  0  0  0
   11.9889  -19.2884   26.6029 C   0  0  0  0  0  0  0  0  0  0  0  0
   11.7827  -17.9780   25.8482 C   0  0  1  0  0  0  0  0  0  0  0  0
   11.6083  -18.3104   24.5038 O   0  0  0  0  0  0  0  0  0  0  0  0
   10.4647  -17.4106   26.3322 C   0  0  2  0  0  0  0  0  0  0  0  0
   10.1536  -16.1460   25.7110 N   0  0  0  0  0  0  0  0  0  0  0  0
   10.3916  -17.3592   27.8009 C   0  0  0  0  0  0  0  0  0  0  0  0
   10.3316  -18.4870   28.5961 O   0  0  0  0  0  0  0  0  0  0  0  0
   10.3830  -16.2384   28.3630 O   0  0  0  0  0  0  0  0  0  0  0  0
  2  1  1  6
  2  3  1  0
  4  5  1  0
  4  3  1  0
  6  5  1  0
  6  7  1  0
  8  2  1  0
  9  8  2  0
 11 10  1  0
 11 12  1  0
 13 12  1  0
 14 13  1  1
 14 15  1  0
 15  8  1  0
 16 14  1  0
 16 17  2  0
 19 21  1  0
 19 18  1  1
 20 19  1  0
 21 22  1  6
 22 16  1  0
 23 21  1  0
 24 23  1  0
 25 23  2  0
M  END
$$$$
