KMT.pdb
     RDKit          3D

 25 24  0  0  1  0  0  0  0  0999 V2000
    9.6743  -16.7079   19.8601 N   0  0  0  0  0  0  0  0  0  0  0  0
    8.5374  -16.5151   20.6954 C   0  0  1  0  0  0  0  0  0  0  0  0
    7.8168  -17.7885   20.9814 C   0  0  0  0  0  0  0  0  0  0  0  0
    8.6077  -18.8796   21.5870 C   0  0  0  0  0  0  0  0  0  0  0  0
    7.8834  -20.1539   21.8458 C   0  0  0  0  0  0  0  0  0  0  0  0
    8.8425  -21.1472   22.5449 C   0  0  0  0  0  0  0  0  0  0  0  0
    8.0925  -22.3286   22.9226 N   0  0  0  0  0  0  0  0  0  0  0  0
    8.8621  -15.7583   21.9350 C   0  0  0  0  0  0  0  0  0  0  0  0
   10.0680  -15.6808   22.2658 O   0  0  0  0  0  0  0  0  0  0  0  0
    6.8839  -12.1234   28.1322 C   0  0  0  0  0  0  0  0  0  0  0  0
    6.1253  -12.1793   26.4648 S   0  0  0  0  0  0  0  0  0  0  0  0
    7.4829  -12.3520   25.2826 C   0  0  0  0  0  0  0  0  0  0  0  0
    7.1842  -13.2922   24.1752 C   0  0  0  0  0  0  0  0  0  0  0  0
    8.2490  -14.2864   23.8703 C   0  0  2  0  0  0  0  0  0  0  0  0
    7.9080  -15.1318   22.7482 N   0  0  0  0  0  0  0  0  0  0  0  0
    8.6270  -15.1622   25.0109 C   0  0  0  0  0  0  0  0  0  0  0  0
    9.1410  -14.6160   26.0227 O   0  0  0  0  0  0  0  0  0  0  0  0
    6.5834  -18.2330   26.3371 C   0  0  0  0  0  0  0  0  0  0  0  0
    8.0616  -18.6123   26.3184 C   0  0  1  0  0  0  0  0  0  0  0  0
    8.2824  -19.3145   25.1325 O   0  0  0  0  0  0  0  0  0  0  0  0
    8.8330  -17.3139   26.2071 C   0  0  2  0  0  0  0  0  0  0  0  0
    8.4534  -16.5512   25.0427 N   0  0  0  0  0  0  0  0  0  0  0  0
   10.2861  -17.5248   26.3035 C   0  0  0  0  0  0  0  0  0  0  0  0
   10.8884  -18.1755   27.3625 O   0  0  0  0  0  0  0  0  0  0  0  0
   11.0179  -17.0942   25.3809 O   0  0  0  0  0  0  0  0  0  0  0  0
  2  1  1  1
  2  3  1  0
  4  5  1  0
  4  3  1  0
  6  5  1  0
  6  7  1  0
  8  2  1  0
  9  8  2  0
 11 10  1  0
 11 12  1  0
 13 12  1  0
 14 13  1  1
 14 15  1  0
 15  8  1  0
 16 14  1  0
 16 17  2  0
 19 21  1  0
 19 18  1  6
 20 19  1  0
 21 22  1  6
 22 16  1  0
 23 21  1  0
 24 23  1  0
 25 23  2  0
M  END
$$$$
