KMT.pdb
     RDKit          3D

 25 24  0  0  1  0  0  0  0  0999 V2000
    9.8020  -16.1045   19.5920 N   0  0  0  0  0  0  0  0  0  0  0  0
    8.7608  -16.3818   20.5228 C   0  0  1  0  0  0  0  0  0  0  0  0
    8.3760  -17.8221   20.5366 C   0  0  0  0  0  0  0  0  0  0  0  0
    7.7169  -18.3469   19.3230 C   0  0  0  0  0  0  0  0  0  0  0  0
    7.3884  -19.7986   19.3264 C   0  0  0  0  0  0  0  0  0  0  0  0
    6.8010  -20.1869   17.9483 C   0  0  0  0  0  0  0  0  0  0  0  0
    6.3371  -21.5587   18.0114 N   0  0  0  0  0  0  0  0  0  0  0  0
    9.0607  -15.8634   21.8852 C   0  0  0  0  0  0  0  0  0  0  0  0
   10.2511  -15.9121   22.2731 O   0  0  0  0  0  0  0  0  0  0  0  0
    6.8898  -11.4554   28.0520 C   0  0  0  0  0  0  0  0  0  0  0  0
    6.3320  -12.1415   26.4467 S   0  0  0  0  0  0  0  0  0  0  0  0
    7.5806  -13.3454   25.9350 C   0  0  0  0  0  0  0  0  0  0  0  0
    7.3865  -13.8444   24.5520 C   0  0  0  0  0  0  0  0  0  0  0  0
    8.4136  -14.8049   24.0644 C   0  0  2  0  0  0  0  0  0  0  0  0
    8.0998  -15.3282   22.7537 N   0  0  0  0  0  0  0  0  0  0  0  0
    8.6707  -15.9543   24.9718 C   0  0  0  0  0  0  0  0  0  0  0  0
    7.7281  -16.7659   25.1694 O   0  0  0  0  0  0  0  0  0  0  0  0
   10.5400  -18.7160   24.5230 C   0  0  0  0  0  0  0  0  0  0  0  0
   11.0367  -18.3494   25.9188 C   0  0  1  0  0  0  0  0  0  0  0  0
   12.2409  -17.6638   25.7508 O   0  0  0  0  0  0  0  0  0  0  0  0
   10.0416  -17.3537   26.4770 C   0  0  2  0  0  0  0  0  0  0  0  0
    9.8852  -16.2010   25.6235 N   0  0  0  0  0  0  0  0  0  0  0  0
   10.3422  -16.9954   27.8721 C   0  0  0  0  0  0  0  0  0  0  0  0
   10.4005  -17.9206   28.8960 O   0  0  0  0  0  0  0  0  0  0  0  0
   10.5568  -15.7917   28.1502 O   0  0  0  0  0  0  0  0  0  0  0  0
  2  1  1  6
  2  3  1  0
  4  5  1  0
  4  3  1  0
  6  5  1  0
  6  7  1  0
  8  2  1  0
  9  8  2  0
 11 10  1  0
 11 12  1  0
 13 12  1  0
 14 13  1  1
 14 15  1  0
 15  8  1  0
 16 14  1  0
 16 17  2  0
 19 21  1  0
 19 18  1  6
 20 19  1  0
 21 22  1  6
 22 16  1  0
 23 21  1  0
 24 23  1  0
 25 23  2  0
M  END
$$$$
