KMT.pdb
     RDKit          3D

 25 24  0  0  1  0  0  0  0  0999 V2000
    8.7542  -15.9925   19.3372 N   0  0  0  0  0  0  0  0  0  0  0  0
    7.9675  -16.4004   20.4517 C   0  0  1  0  0  0  0  0  0  0  0  0
    7.7786  -17.8782   20.5067 C   0  0  0  0  0  0  0  0  0  0  0  0
    6.9581  -18.4848   19.4384 C   0  0  0  0  0  0  0  0  0  0  0  0
    6.7216  -19.9509   19.5406 C   0  0  0  0  0  0  0  0  0  0  0  0
    5.9274  -20.4223   18.2987 C   0  0  0  0  0  0  0  0  0  0  0  0
    5.7147  -21.8525   18.3993 N   0  0  0  0  0  0  0  0  0  0  0  0
    8.4702  -15.8461   21.7381 C   0  0  0  0  0  0  0  0  0  0  0  0
    9.7104  -15.7279   21.8713 O   0  0  0  0  0  0  0  0  0  0  0  0
    7.0822  -11.2459   27.9328 C   0  0  0  0  0  0  0  0  0  0  0  0
    6.2623  -12.1953   26.5967 S   0  0  0  0  0  0  0  0  0  0  0  0
    7.5014  -13.3331   25.9330 C   0  0  0  0  0  0  0  0  0  0  0  0
    7.1128  -13.9360   24.6349 C   0  0  0  0  0  0  0  0  0  0  0  0
    8.1415  -14.7988   23.9927 C   0  0  2  0  0  0  0  0  0  0  0  0
    7.6467  -15.4514   22.8013 N   0  0  0  0  0  0  0  0  0  0  0  0
    8.7239  -15.8388   24.8815 C   0  0  0  0  0  0  0  0  0  0  0  0
    7.9330  -16.6576   25.4204 O   0  0  0  0  0  0  0  0  0  0  0  0
   12.3588  -18.6261   26.5220 C   0  0  0  0  0  0  0  0  0  0  0  0
   12.0255  -17.3870   25.6956 C   0  0  1  0  0  0  0  0  0  0  0  0
   12.1159  -17.7611   24.3540 O   0  0  0  0  0  0  0  0  0  0  0  0
   10.5684  -17.0749   25.9647 C   0  0  2  0  0  0  0  0  0  0  0  0
   10.0886  -15.9749   25.1637 N   0  0  0  0  0  0  0  0  0  0  0  0
   10.2974  -16.8976   27.4001 C   0  0  0  0  0  0  0  0  0  0  0  0
   10.4297  -15.6870   28.0519 O   0  0  0  0  0  0  0  0  0  0  0  0
    9.9278  -17.8917   28.0689 O   0  0  0  0  0  0  0  0  0  0  0  0
  2  1  1  6
  2  3  1  0
  4  5  1  0
  4  3  1  0
  6  5  1  0
  6  7  1  0
  8  2  1  0
  9  8  2  0
 11 10  1  0
 11 12  1  0
 13 12  1  0
 14 13  1  1
 14 15  1  0
 15  8  1  0
 16 14  1  0
 16 17  2  0
 19 21  1  0
 19 18  1  1
 20 19  1  0
 21 22  1  6
 22 16  1  0
 23 21  1  0
 24 23  1  0
 25 23  2  0
M  END
$$$$
