KMT.pdb
     RDKit          3D

 25 24  0  0  1  0  0  0  0  0999 V2000
    9.0725  -15.5762   20.0034 N   0  0  0  0  0  0  0  0  0  0  0  0
    8.0657  -15.9463   20.9398 C   0  0  1  0  0  0  0  0  0  0  0  0
    7.5611  -17.3315   20.7177 C   0  0  0  0  0  0  0  0  0  0  0  0
    7.6307  -17.8520   19.3368 C   0  0  0  0  0  0  0  0  0  0  0  0
    6.9206  -19.1346   19.0790 C   0  0  0  0  0  0  0  0  0  0  0  0
    6.9412  -19.4268   17.5594 C   0  0  0  0  0  0  0  0  0  0  0  0
    6.3395  -20.7251   17.3283 N   0  0  0  0  0  0  0  0  0  0  0  0
    8.4852  -15.7163   22.3491 C   0  0  0  0  0  0  0  0  0  0  0  0
    9.7088  -15.7926   22.6078 O   0  0  0  0  0  0  0  0  0  0  0  0
    7.4249  -11.1225   27.1303 C   0  0  0  0  0  0  0  0  0  0  0  0
    6.0502  -11.7692   26.1051 S   0  0  0  0  0  0  0  0  0  0  0  0
    6.7858  -12.9113   24.9115 C   0  0  0  0  0  0  0  0  0  0  0  0
    7.0318  -14.2649   25.4652 C   0  0  0  0  0  0  0  0  0  0  0  0
    8.0345  -15.0867   24.7341 C   0  0  2  0  0  0  0  0  0  0  0  0
    7.6014  -15.4218   23.3961 N   0  0  0  0  0  0  0  0  0  0  0  0
    8.4275  -16.3451   25.4216 C   0  0  0  0  0  0  0  0  0  0  0  0
    7.6854  -17.3514   25.2693 O   0  0  0  0  0  0  0  0  0  0  0  0
    9.9251  -18.6441   24.4981 C   0  0  0  0  0  0  0  0  0  0  0  0
   10.7193  -18.6178   25.8011 C   0  0  1  0  0  0  0  0  0  0  0  0
   11.8954  -17.9122   25.5420 O   0  0  0  0  0  0  0  0  0  0  0  0
    9.9141  -17.7821   26.7739 C   0  0  2  0  0  0  0  0  0  0  0  0
    9.5632  -16.4939   26.2268 N   0  0  0  0  0  0  0  0  0  0  0  0
   10.5650  -17.6860   28.0900 C   0  0  0  0  0  0  0  0  0  0  0  0
   10.8092  -18.7809   28.8959 O   0  0  0  0  0  0  0  0  0  0  0  0
   10.9172  -16.5564   28.5049 O   0  0  0  0  0  0  0  0  0  0  0  0
  2  1  1  6
  2  3  1  0
  4  5  1  0
  4  3  1  0
  6  5  1  0
  6  7  1  0
  8  2  1  0
  9  8  2  0
 11 10  1  0
 11 12  1  0
 13 12  1  0
 14 13  1  1
 14 15  1  0
 15  8  1  0
 16 14  1  0
 16 17  2  0
 19 21  1  0
 19 18  1  6
 20 19  1  0
 21 22  1  6
 22 16  1  0
 23 21  1  0
 24 23  1  0
 25 23  2  0
M  END
$$$$
