KMT.pdb
     RDKit          3D

 25 24  0  0  1  0  0  0  0  0999 V2000
    7.3322  -15.6371   19.1590 N   0  0  0  0  0  0  0  0  0  0  0  0
    6.8610  -16.1359   20.4066 C   0  0  1  0  0  0  0  0  0  0  0  0
    6.7695  -17.6238   20.4286 C   0  0  0  0  0  0  0  0  0  0  0  0
    7.2664  -18.3391   19.2352 C   0  0  0  0  0  0  0  0  0  0  0  0
    7.0738  -19.8150   19.2233 C   0  0  0  0  0  0  0  0  0  0  0  0
    7.6417  -20.3880   17.9026 C   0  0  0  0  0  0  0  0  0  0  0  0
    7.5767  -21.8349   17.9586 N   0  0  0  0  0  0  0  0  0  0  0  0
    7.6297  -15.5994   21.5625 C   0  0  0  0  0  0  0  0  0  0  0  0
    8.8605  -15.4239   21.4068 O   0  0  0  0  0  0  0  0  0  0  0  0
    7.5161  -11.5521   28.3283 C   0  0  0  0  0  0  0  0  0  0  0  0
    6.5102  -12.1897   26.9352 S   0  0  0  0  0  0  0  0  0  0  0  0
    7.5943  -13.2586   25.9591 C   0  0  0  0  0  0  0  0  0  0  0  0
    6.9319  -13.8371   24.7649 C   0  0  0  0  0  0  0  0  0  0  0  0
    7.8032  -14.6574   23.8799 C   0  0  2  0  0  0  0  0  0  0  0  0
    7.0646  -15.2810   22.8049 N   0  0  0  0  0  0  0  0  0  0  0  0
    8.5817  -15.7135   24.5795 C   0  0  0  0  0  0  0  0  0  0  0  0
    7.9437  -16.6816   25.0714 O   0  0  0  0  0  0  0  0  0  0  0  0
   12.6778  -18.1701   25.5543 C   0  0  0  0  0  0  0  0  0  0  0  0
   12.1044  -16.9202   24.8923 C   0  0  1  0  0  0  0  0  0  0  0  0
   12.1109  -17.1538   23.5163 O   0  0  0  0  0  0  0  0  0  0  0  0
   10.6524  -16.8424   25.3152 C   0  0  2  0  0  0  0  0  0  0  0  0
    9.9736  -15.7107   24.7317 N   0  0  0  0  0  0  0  0  0  0  0  0
   10.4984  -16.9097   26.7770 C   0  0  0  0  0  0  0  0  0  0  0  0
   10.4267  -18.0982   27.4771 O   0  0  0  0  0  0  0  0  0  0  0  0
   10.4285  -15.8376   27.4236 O   0  0  0  0  0  0  0  0  0  0  0  0
  2  1  1  6
  2  3  1  0
  4  5  1  0
  4  3  1  0
  6  5  1  0
  6  7  1  0
  8  2  1  0
  9  8  2  0
 11 10  1  0
 11 12  1  0
 13 12  1  0
 14 13  1  1
 14 15  1  0
 15  8  1  0
 16 14  1  0
 16 17  2  0
 19 21  1  0
 19 18  1  1
 20 19  1  0
 21 22  1  1
 22 16  1  0
 23 21  1  0
 24 23  1  0
 25 23  2  0
M  END
$$$$
