KMT.pdb
     RDKit          3D

 25 24  0  0  1  0  0  0  0  0999 V2000
    6.8177  -15.7545   20.7524 N   0  0  0  0  0  0  0  0  0  0  0  0
    8.0196  -14.9916   20.7823 C   0  0  1  0  0  0  0  0  0  0  0  0
    7.9279  -13.7498   19.9624 C   0  0  0  0  0  0  0  0  0  0  0  0
    7.5504  -13.9149   18.5437 C   0  0  0  0  0  0  0  0  0  0  0  0
    8.5891  -13.5583   17.5391 C   0  0  0  0  0  0  0  0  0  0  0  0
    7.9932  -13.7134   16.1192 C   0  0  0  0  0  0  0  0  0  0  0  0
    8.9601  -13.2284   15.1546 N   0  0  0  0  0  0  0  0  0  0  0  0
    8.4890  -14.7209   22.1683 C   0  0  0  0  0  0  0  0  0  0  0  0
    9.5870  -14.1324   22.3022 O   0  0  0  0  0  0  0  0  0  0  0  0
    7.2687  -11.4967   27.5989 C   0  0  0  0  0  0  0  0  0  0  0  0
    5.9452  -12.0213   26.4447 S   0  0  0  0  0  0  0  0  0  0  0  0
    6.7504  -12.9549   25.1217 C   0  0  0  0  0  0  0  0  0  0  0  0
    7.2881  -14.2635   25.5666 C   0  0  0  0  0  0  0  0  0  0  0  0
    8.2926  -14.8873   24.6627 C   0  0  2  0  0  0  0  0  0  0  0  0
    7.7828  -15.0817   23.3238 N   0  0  0  0  0  0  0  0  0  0  0  0
    8.8399  -16.1840   25.1418 C   0  0  0  0  0  0  0  0  0  0  0  0
    8.0689  -17.1800   25.1427 O   0  0  0  0  0  0  0  0  0  0  0  0
   12.1716  -19.5021   26.0272 C   0  0  0  0  0  0  0  0  0  0  0  0
   11.9200  -18.0813   25.5300 C   0  0  1  0  0  0  0  0  0  0  0  0
   11.7740  -18.1592   24.1441 O   0  0  0  0  0  0  0  0  0  0  0  0
   10.5747  -17.6667   26.0881 C   0  0  2  0  0  0  0  0  0  0  0  0
   10.1510  -16.3796   25.5926 N   0  0  0  0  0  0  0  0  0  0  0  0
   10.5348  -17.7552   27.5564 C   0  0  0  0  0  0  0  0  0  0  0  0
   10.5929  -18.9512   28.2449 O   0  0  0  0  0  0  0  0  0  0  0  0
   10.4436  -16.6951   28.2197 O   0  0  0  0  0  0  0  0  0  0  0  0
  2  1  1  1
  2  3  1  0
  4  5  1  0
  4  3  1  0
  6  5  1  0
  6  7  1  0
  8  2  1  0
  9  8  2  0
 11 10  1  0
 11 12  1  0
 13 12  1  0
 14 13  1  1
 14 15  1  0
 15  8  1  0
 16 14  1  0
 16 17  2  0
 19 21  1  0
 19 18  1  1
 20 19  1  0
 21 22  1  1
 22 16  1  0
 23 21  1  0
 24 23  1  0
 25 23  2  0
M  END
$$$$
