KMT.pdb
     RDKit          3D

 25 24  0  0  1  0  0  0  0  0999 V2000
    9.5068  -16.2737   19.6421 N   0  0  0  0  0  0  0  0  0  0  0  0
    8.4721  -16.4659   20.6012 C   0  0  1  0  0  0  0  0  0  0  0  0
    7.9735  -17.8707   20.6292 C   0  0  0  0  0  0  0  0  0  0  0  0
    7.7358  -18.5189   19.3231 C   0  0  0  0  0  0  0  0  0  0  0  0
    7.2830  -19.9363   19.3631 C   0  0  0  0  0  0  0  0  0  0  0  0
    6.9647  -20.4058   17.9232 C   0  0  0  0  0  0  0  0  0  0  0  0
    6.4484  -21.7590   17.9797 N   0  0  0  0  0  0  0  0  0  0  0  0
    8.8492  -15.9726   21.9537 C   0  0  0  0  0  0  0  0  0  0  0  0
   10.0663  -15.9745   22.2512 O   0  0  0  0  0  0  0  0  0  0  0  0
    7.2562  -11.2616   28.0060 C   0  0  0  0  0  0  0  0  0  0  0  0
    6.5491  -12.0341   26.5020 S   0  0  0  0  0  0  0  0  0  0  0  0
    7.6971  -13.3379   25.9996 C   0  0  0  0  0  0  0  0  0  0  0  0
    7.3668  -13.9399   24.6850 C   0  0  0  0  0  0  0  0  0  0  0  0
    8.3219  -14.9686   24.1902 C   0  0  2  0  0  0  0  0  0  0  0  0
    7.9324  -15.5096   22.9073 N   0  0  0  0  0  0  0  0  0  0  0  0
    8.5494  -16.1051   25.1215 C   0  0  0  0  0  0  0  0  0  0  0  0
    7.5573  -16.8180   25.4280 O   0  0  0  0  0  0  0  0  0  0  0  0
   10.2251  -18.9991   24.5321 C   0  0  0  0  0  0  0  0  0  0  0  0
   10.8348  -18.6527   25.8877 C   0  0  1  0  0  0  0  0  0  0  0  0
   12.0519  -18.0191   25.6322 O   0  0  0  0  0  0  0  0  0  0  0  0
    9.9248  -17.6152   26.5112 C   0  0  2  0  0  0  0  0  0  0  0  0
    9.7870  -16.4415   25.6834 N   0  0  0  0  0  0  0  0  0  0  0  0
   10.3158  -17.2968   27.8936 C   0  0  0  0  0  0  0  0  0  0  0  0
   10.3436  -18.2341   28.9078 O   0  0  0  0  0  0  0  0  0  0  0  0
   10.6406  -16.1176   28.1695 O   0  0  0  0  0  0  0  0  0  0  0  0
  2  1  1  6
  2  3  1  0
  4  5  1  0
  4  3  1  0
  6  5  1  0
  6  7  1  0
  8  2  1  0
  9  8  2  0
 11 10  1  0
 11 12  1  0
 13 12  1  0
 14 13  1  1
 14 15  1  0
 15  8  1  0
 16 14  1  0
 16 17  2  0
 19 21  1  0
 19 18  1  6
 20 19  1  0
 21 22  1  6
 22 16  1  0
 23 21  1  0
 24 23  1  0
 25 23  2  0
M  END
$$$$
