KMT.pdb
     RDKit          3D

 25 24  0  0  1  0  0  0  0  0999 V2000
    8.7549  -16.4746   19.5005 N   0  0  0  0  0  0  0  0  0  0  0  0
    7.8025  -16.4644   20.5589 C   0  0  1  0  0  0  0  0  0  0  0  0
    7.1346  -17.7851   20.7386 C   0  0  0  0  0  0  0  0  0  0  0  0
    7.6368  -18.9029   19.9134 C   0  0  0  0  0  0  0  0  0  0  0  0
    8.6046  -19.8239   20.5695 C   0  0  0  0  0  0  0  0  0  0  0  0
    8.1331  -21.2834   20.3625 C   0  0  0  0  0  0  0  0  0  0  0  0
    8.4180  -21.6737   18.9960 N   0  0  0  0  0  0  0  0  0  0  0  0
    8.3691  -15.9394   21.8310 C   0  0  0  0  0  0  0  0  0  0  0  0
    9.6161  -15.8536   21.9164 O   0  0  0  0  0  0  0  0  0  0  0  0
    7.3080  -11.6142   28.3052 C   0  0  0  0  0  0  0  0  0  0  0  0
    6.4415  -12.3997   26.8942 S   0  0  0  0  0  0  0  0  0  0  0  0
    7.6077  -13.5666   26.1536 C   0  0  0  0  0  0  0  0  0  0  0  0
    7.2011  -14.0306   24.8049 C   0  0  0  0  0  0  0  0  0  0  0  0
    8.1593  -14.9423   24.1222 C   0  0  2  0  0  0  0  0  0  0  0  0
    7.5982  -15.5382   22.9305 N   0  0  0  0  0  0  0  0  0  0  0  0
    8.6951  -16.0344   24.9770 C   0  0  0  0  0  0  0  0  0  0  0  0
    7.9070  -16.9603   25.3058 O   0  0  0  0  0  0  0  0  0  0  0  0
   12.2113  -19.0185   26.3057 C   0  0  0  0  0  0  0  0  0  0  0  0
   11.8489  -17.7357   25.5624 C   0  0  1  0  0  0  0  0  0  0  0  0
   11.6638  -18.0842   24.2236 O   0  0  0  0  0  0  0  0  0  0  0  0
   10.4975  -17.3039   26.0921 C   0  0  2  0  0  0  0  0  0  0  0  0
   10.0131  -16.1094   25.4438 N   0  0  0  0  0  0  0  0  0  0  0  0
   10.4863  -17.2021   27.5600 C   0  0  0  0  0  0  0  0  0  0  0  0
   10.4618  -18.3019   28.3953 O   0  0  0  0  0  0  0  0  0  0  0  0
   10.4998  -16.0627   28.0831 O   0  0  0  0  0  0  0  0  0  0  0  0
  2  1  1  6
  2  3  1  0
  4  5  1  0
  4  3  1  0
  6  5  1  0
  6  7  1  0
  8  2  1  0
  9  8  2  0
 11 10  1  0
 11 12  1  0
 13 12  1  0
 14 13  1  1
 14 15  1  0
 15  8  1  0
 16 14  1  0
 16 17  2  0
 19 21  1  0
 19 18  1  1
 20 19  1  0
 21 22  1  6
 22 16  1  0
 23 21  1  0
 24 23  1  0
 25 23  2  0
M  END
$$$$
