GHW.pdb
     RDKit          3D

 29 31  0  0  1  0  0  0  0  0999 V2000
    8.5912  -14.9462   15.2166 N   0  0  0  0  0  0  0  0  0  0  0  0
    9.8470  -14.7746   15.8659 C   0  0  0  0  0  0  0  0  0  0  0  0
    9.9679  -15.6328   17.1084 C   0  0  0  0  0  0  0  0  0  0  0  0
    9.0769  -15.6785   17.9561 O   0  0  0  0  0  0  0  0  0  0  0  0
   11.1548  -16.3829   17.2527 N   0  0  0  0  0  0  0  0  0  0  0  0
   11.4718  -17.1763   18.3761 C   0  0  1  0  0  0  0  0  0  0  0  0
   12.3535  -18.3884   18.1438 C   0  0  0  0  0  0  0  0  0  0  0  0
   11.7442  -19.3838   17.2401 C   0  0  0  0  0  0  0  0  0  0  0  0
   10.4210  -19.4258   16.8022 C   0  0  0  0  0  0  0  0  0  0  0  0
   10.2880  -20.4901   15.9946 N   0  0  0  0  0  0  0  0  0  0  0  0
   11.4657  -21.1171   15.9060 C   0  0  0  0  0  0  0  0  0  0  0  0
   12.3315  -20.4284   16.6689 N   0  0  0  0  0  0  0  0  0  0  0  0
   11.8410  -16.5078   19.6115 C   0  0  0  0  0  0  0  0  0  0  0  0
   12.6152  -15.4936   19.4865 O   0  0  0  0  0  0  0  0  0  0  0  0
   11.4264  -16.8762   20.9086 N   0  0  0  0  0  0  0  0  0  0  0  0
   11.7918  -16.0674   22.0669 C   0  0  1  0  0  0  0  0  0  0  0  0
   11.3019  -14.6509   21.8946 C   0  0  0  0  0  0  0  0  0  0  0  0
    9.8424  -14.6657   21.6794 C   0  0  0  0  0  0  0  0  0  0  0  0
    8.9866  -15.3915   22.5226 C   0  0  0  0  0  0  0  0  0  0  0  0
    7.7483  -15.1507   22.0860 N   0  0  0  0  0  0  0  0  0  0  0  0
    7.7751  -14.3264   21.0300 C   0  0  0  0  0  0  0  0  0  0  0  0
    6.8145  -13.7767   20.2103 C   0  0  0  0  0  0  0  0  0  0  0  0
    7.1495  -12.9501   19.1656 C   0  0  0  0  0  0  0  0  0  0  0  0
    8.4765  -12.6389   18.8986 C   0  0  0  0  0  0  0  0  0  0  0  0
    9.4469  -13.1839   19.7136 C   0  0  0  0  0  0  0  0  0  0  0  0
    9.1012  -14.0065   20.7544 C   0  0  0  0  0  0  0  0  0  0  0  0
   11.4520  -16.7150   23.3322 C   0  0  0  0  0  0  0  0  0  0  0  0
   11.9111  -16.2705   24.5448 O   0  0  0  0  0  0  0  0  0  0  0  0
   10.7033  -17.7424   23.3463 O   0  0  0  0  0  0  0  0  0  0  0  0
  1  2  1  0
  2  3  1  0
  3  4  2  0
  5  3  1  0
  5  6  1  0
  6 13  1  0
  6  7  1  6
  8  7  1  0
  9  8  2  0
 10  9  1  0
 11 10  1  0
 11 12  2  0
 12  8  1  0
 13 14  2  0
 15 16  1  0
 15 13  1  0
 16 27  1  0
 16 17  1  6
 18 17  1  0
 18 19  2  0
 20 19  1  0
 21 20  1  0
 22 21  2  0
 23 22  1  0
 24 23  2  0
 24 25  1  0
 25 26  2  0
 26 21  1  0
 26 18  1  0
 27 29  2  0
 27 28  1  0
M  END
$$$$
