GHW.pdb
     RDKit          3D

 29 31  0  0  1  0  0  0  0  0999 V2000
   13.7242  -17.3304   18.7605 N   0  0  0  0  0  0  0  0  0  0  0  0
   12.5916  -17.8994   19.4099 C   0  0  0  0  0  0  0  0  0  0  0  0
   11.9712  -16.9472   20.4115 C   0  0  0  0  0  0  0  0  0  0  0  0
   12.6560  -16.1916   21.1006 O   0  0  0  0  0  0  0  0  0  0  0  0
   10.5642  -16.9641   20.5210 N   0  0  0  0  0  0  0  0  0  0  0  0
    9.8238  -16.2296   21.4719 C   0  0  1  0  0  0  0  0  0  0  0  0
    8.3776  -15.9187   21.1367 C   0  0  0  0  0  0  0  0  0  0  0  0
    8.2341  -14.9179   20.0612 C   0  0  0  0  0  0  0  0  0  0  0  0
    9.2575  -14.2502   19.3894 C   0  0  0  0  0  0  0  0  0  0  0  0
    8.6926  -13.4304   18.4888 N   0  0  0  0  0  0  0  0  0  0  0  0
    7.3633  -13.5527   18.5648 C   0  0  0  0  0  0  0  0  0  0  0  0
    7.1101  -14.4591   19.5241 N   0  0  0  0  0  0  0  0  0  0  0  0
    9.9560  -16.5848   22.8741 C   0  0  0  0  0  0  0  0  0  0  0  0
   10.4280  -17.7531   23.1109 O   0  0  0  0  0  0  0  0  0  0  0  0
    9.6143  -15.7671   23.9715 N   0  0  0  0  0  0  0  0  0  0  0  0
    9.8996  -16.1936   25.3376 C   0  0  1  0  0  0  0  0  0  0  0  0
    9.6961  -15.0488   26.2990 C   0  0  0  0  0  0  0  0  0  0  0  0
    8.2776  -14.6437   26.2769 C   0  0  0  0  0  0  0  0  0  0  0  0
    7.2567  -15.5707   26.0153 C   0  0  0  0  0  0  0  0  0  0  0  0
    6.1101  -14.8955   26.1211 N   0  0  0  0  0  0  0  0  0  0  0  0
    6.3474  -13.6133   26.4297 C   0  0  0  0  0  0  0  0  0  0  0  0
    5.5526  -12.5088   26.6416 C   0  0  0  0  0  0  0  0  0  0  0  0
    6.0931  -11.2817   26.9398 C   0  0  0  0  0  0  0  0  0  0  0  0
    7.4682  -11.1122   27.0382 C   0  0  0  0  0  0  0  0  0  0  0  0
    8.2737  -12.2121   26.8281 C   0  0  0  0  0  0  0  0  0  0  0  0
    7.7235  -13.4324   26.5324 C   0  0  0  0  0  0  0  0  0  0  0  0
    9.2349  -17.4483   25.6833 C   0  0  0  0  0  0  0  0  0  0  0  0
    8.2542  -18.0113   24.9087 O   0  0  0  0  0  0  0  0  0  0  0  0
    9.5515  -18.0706   26.7458 O   0  0  0  0  0  0  0  0  0  0  0  0
  1  2  1  0
  2  3  1  0
  3  4  2  0
  5  3  1  0
  5  6  1  0
  6 13  1  0
  6  7  1  6
  8  7  1  0
  9  8  2  0
 10  9  1  0
 11 10  1  0
 11 12  2  0
 12  8  1  0
 13 14  2  0
 15 16  1  0
 15 13  1  0
 16 27  1  0
 16 17  1  1
 18 17  1  0
 18 19  2  0
 20 19  1  0
 21 20  1  0
 22 21  2  0
 23 22  1  0
 24 23  2  0
 24 25  1  0
 25 26  2  0
 26 21  1  0
 26 18  1  0
 27 29  2  0
 27 28  1  0
M  END
$$$$
