GHW.pdb
     RDKit          3D

 29 31  0  0  1  0  0  0  0  0999 V2000
    7.0924  -18.2664   18.8948 N   0  0  0  0  0  0  0  0  0  0  0  0
    8.1628  -17.3485   19.0941 C   0  0  0  0  0  0  0  0  0  0  0  0
    8.9554  -17.6609   20.3468 C   0  0  0  0  0  0  0  0  0  0  0  0
    8.4981  -18.3649   21.2467 O   0  0  0  0  0  0  0  0  0  0  0  0
   10.2498  -17.1057   20.4379 N   0  0  0  0  0  0  0  0  0  0  0  0
   11.0579  -17.1380   21.5946 C   0  0  1  0  0  0  0  0  0  0  0  0
   12.5556  -17.2669   21.3921 C   0  0  0  0  0  0  0  0  0  0  0  0
   12.9443  -18.5260   20.7269 C   0  0  0  0  0  0  0  0  0  0  0  0
   12.1976  -19.7007   20.6441 C   0  0  0  0  0  0  0  0  0  0  0  0
   12.9181  -20.5988   19.9536 N   0  0  0  0  0  0  0  0  0  0  0  0
   14.0812  -20.0422   19.5999 C   0  0  0  0  0  0  0  0  0  0  0  0
   14.0737  -18.7869   20.0796 N   0  0  0  0  0  0  0  0  0  0  0  0
   10.7681  -16.2008   22.6657 C   0  0  0  0  0  0  0  0  0  0  0  0
   10.5694  -14.9866   22.3053 O   0  0  0  0  0  0  0  0  0  0  0  0
   10.6899  -16.5115   24.0395 N   0  0  0  0  0  0  0  0  0  0  0  0
    9.6976  -15.8685   24.8948 C   0  0  1  0  0  0  0  0  0  0  0  0
    8.3237  -15.9800   24.2816 C   0  0  0  0  0  0  0  0  0  0  0  0
    7.5716  -14.7392   24.5488 C   0  0  0  0  0  0  0  0  0  0  0  0
    6.5211  -14.3272   23.7142 C   0  0  0  0  0  0  0  0  0  0  0  0
    6.0313  -13.2126   24.2616 N   0  0  0  0  0  0  0  0  0  0  0  0
    6.7047  -12.9029   25.3779 C   0  0  0  0  0  0  0  0  0  0  0  0
    6.6260  -11.8840   26.3011 C   0  0  0  0  0  0  0  0  0  0  0  0
    7.4843  -11.8169   27.3715 C   0  0  0  0  0  0  0  0  0  0  0  0
    8.4669  -12.7804   27.5602 C   0  0  0  0  0  0  0  0  0  0  0  0
    8.5544  -13.8057   26.6415 C   0  0  0  0  0  0  0  0  0  0  0  0
    7.6917  -13.8636   25.5777 C   0  0  0  0  0  0  0  0  0  0  0  0
    9.8122  -16.2794   26.2926 C   0  0  0  0  0  0  0  0  0  0  0  0
   10.1804  -15.4203   27.2951 O   0  0  0  0  0  0  0  0  0  0  0  0
    9.5721  -17.4815   26.6298 O   0  0  0  0  0  0  0  0  0  0  0  0
  1  2  1  0
  2  3  1  0
  3  4  2  0
  5  3  1  0
  5  6  1  0
  6 13  1  0
  6  7  1  6
  8  7  1  0
  9  8  2  0
 10  9  1  0
 11 10  1  0
 11 12  2  0
 12  8  1  0
 13 14  2  0
 15 16  1  0
 15 13  1  0
 16 27  1  0
 16 17  1  6
 18 17  1  0
 18 19  2  0
 20 19  1  0
 21 20  1  0
 22 21  2  0
 23 22  1  0
 24 23  2  0
 24 25  1  0
 25 26  2  0
 26 21  1  0
 26 18  1  0
 27 29  2  0
 27 28  1  0
M  END
$$$$
