GHW.pdb
     RDKit          3D

 29 31  0  0  1  0  0  0  0  0999 V2000
    7.6230  -12.6758   18.7500 N   0  0  0  0  0  0  0  0  0  0  0  0
    8.8045  -13.0012   19.4754 C   0  0  0  0  0  0  0  0  0  0  0  0
    8.6317  -14.2503   20.3149 C   0  0  0  0  0  0  0  0  0  0  0  0
    7.5248  -14.7477   20.5201 O   0  0  0  0  0  0  0  0  0  0  0  0
    9.8030  -14.8230   20.8553 N   0  0  0  0  0  0  0  0  0  0  0  0
    9.8395  -16.0144   21.6110 C   0  0  1  0  0  0  0  0  0  0  0  0
   10.6116  -17.1829   21.0287 C   0  0  0  0  0  0  0  0  0  0  0  0
   10.4771  -17.2937   19.5629 C   0  0  0  0  0  0  0  0  0  0  0  0
    9.3785  -16.9250   18.7873 C   0  0  0  0  0  0  0  0  0  0  0  0
    9.6718  -17.1919   17.5046 N   0  0  0  0  0  0  0  0  0  0  0  0
   10.9024  -17.7108   17.4400 C   0  0  0  0  0  0  0  0  0  0  0  0
   11.3695  -17.7625   18.6990 N   0  0  0  0  0  0  0  0  0  0  0  0
   10.0664  -15.9175   23.0424 C   0  0  0  0  0  0  0  0  0  0  0  0
   10.8647  -14.9875   23.4184 O   0  0  0  0  0  0  0  0  0  0  0  0
    9.4926  -16.7454   24.0299 N   0  0  0  0  0  0  0  0  0  0  0  0
    9.7856  -16.5339   25.4437 C   0  0  1  0  0  0  0  0  0  0  0  0
    8.5246  -16.6466   26.2644 C   0  0  0  0  0  0  0  0  0  0  0  0
    7.5782  -15.5952   25.8455 C   0  0  0  0  0  0  0  0  0  0  0  0
    6.5061  -15.8776   24.9848 C   0  0  0  0  0  0  0  0  0  0  0  0
    5.8285  -14.7351   24.8535 N   0  0  0  0  0  0  0  0  0  0  0  0
    6.4051  -13.7622   25.5722 C   0  0  0  0  0  0  0  0  0  0  0  0
    6.1349  -12.4282   25.7824 C   0  0  0  0  0  0  0  0  0  0  0  0
    6.9337  -11.6517   26.5861 C   0  0  0  0  0  0  0  0  0  0  0  0
    8.0480  -12.1889   27.2178 C   0  0  0  0  0  0  0  0  0  0  0  0
    8.3278  -13.5243   27.0143 C   0  0  0  0  0  0  0  0  0  0  0  0
    7.5229  -14.2903   26.2113 C   0  0  0  0  0  0  0  0  0  0  0  0
   10.9244  -17.3253   25.9044 C   0  0  0  0  0  0  0  0  0  0  0  0
   11.6140  -18.1853   25.0897 O   0  0  0  0  0  0  0  0  0  0  0  0
   11.3180  -17.2417   27.1105 O   0  0  0  0  0  0  0  0  0  0  0  0
  1  2  1  0
  2  3  1  0
  3  4  2  0
  5  3  1  0
  5  6  1  0
  6 13  1  0
  6  7  1  6
  8  7  1  0
  9  8  2  0
 10  9  1  0
 11 10  1  0
 11 12  2  0
 12  8  1  0
 13 14  2  0
 15 16  1  0
 15 13  1  0
 16 27  1  0
 16 17  1  1
 18 17  1  0
 18 19  2  0
 20 19  1  0
 21 20  1  0
 22 21  2  0
 23 22  1  0
 24 23  2  0
 24 25  1  0
 25 26  2  0
 26 21  1  0
 26 18  1  0
 27 29  2  0
 27 28  1  0
M  END
$$$$
