GHW.pdb
     RDKit          3D

 29 31  0  0  1  0  0  0  0  0999 V2000
    9.8025  -18.8166   18.6239 N   0  0  0  0  0  0  0  0  0  0  0  0
    9.1994  -18.5407   19.8841 C   0  0  0  0  0  0  0  0  0  0  0  0
    9.7543  -17.2816   20.5179 C   0  0  0  0  0  0  0  0  0  0  0  0
   10.9608  -17.0390   20.5334 O   0  0  0  0  0  0  0  0  0  0  0  0
    8.8215  -16.3926   21.0936 N   0  0  0  0  0  0  0  0  0  0  0  0
    9.1551  -15.1706   21.7162 C   0  0  1  0  0  0  0  0  0  0  0  0
    8.2900  -13.9675   21.3930 C   0  0  0  0  0  0  0  0  0  0  0  0
    8.0101  -13.8255   19.9506 C   0  0  0  0  0  0  0  0  0  0  0  0
    8.5601  -12.8914   19.0735 C   0  0  0  0  0  0  0  0  0  0  0  0
    8.0369  -13.1111   17.8567 N   0  0  0  0  0  0  0  0  0  0  0  0
    7.1846  -14.1388   17.9302 C   0  0  0  0  0  0  0  0  0  0  0  0
    7.1855  -14.5544   19.2082 N   0  0  0  0  0  0  0  0  0  0  0  0
    9.4987  -15.1859   23.1274 C   0  0  0  0  0  0  0  0  0  0  0  0
   10.0474  -14.1188   23.5789 O   0  0  0  0  0  0  0  0  0  0  0  0
    9.2829  -16.2559   24.0209 N   0  0  0  0  0  0  0  0  0  0  0  0
    9.7948  -16.2029   25.3864 C   0  0  1  0  0  0  0  0  0  0  0  0
    8.6706  -16.3826   26.3765 C   0  0  0  0  0  0  0  0  0  0  0  0
    7.5912  -15.4270   26.0629 C   0  0  0  0  0  0  0  0  0  0  0  0
    6.3788  -15.8533   25.4987 C   0  0  0  0  0  0  0  0  0  0  0  0
    5.6175  -14.7618   25.3938 N   0  0  0  0  0  0  0  0  0  0  0  0
    6.2727  -13.6868   25.8529 C   0  0  0  0  0  0  0  0  0  0  0  0
    5.9701  -12.3481   25.9668 C   0  0  0  0  0  0  0  0  0  0  0  0
    6.8726  -11.4491   26.4809 C   0  0  0  0  0  0  0  0  0  0  0  0
    8.1288  -11.8623   26.9057 C   0  0  0  0  0  0  0  0  0  0  0  0
    8.4423  -13.2011   26.7963 C   0  0  0  0  0  0  0  0  0  0  0  0
    7.5334  -14.0899   26.2831 C   0  0  0  0  0  0  0  0  0  0  0  0
   10.9639  -17.0579   25.5802 C   0  0  0  0  0  0  0  0  0  0  0  0
   11.6706  -17.1010   26.7538 O   0  0  0  0  0  0  0  0  0  0  0  0
   11.3758  -17.8051   24.6375 O   0  0  0  0  0  0  0  0  0  0  0  0
  1  2  1  0
  2  3  1  0
  3  4  2  0
  5  3  1  0
  5  6  1  0
  6 13  1  0
  6  7  1  1
  8  7  1  0
  9  8  2  0
 10  9  1  0
 11 10  1  0
 11 12  2  0
 12  8  1  0
 13 14  2  0
 15 16  1  0
 15 13  1  0
 16 27  1  0
 16 17  1  1
 18 17  1  0
 18 19  2  0
 20 19  1  0
 21 20  1  0
 22 21  2  0
 23 22  1  0
 24 23  2  0
 24 25  1  0
 25 26  2  0
 26 21  1  0
 26 18  1  0
 27 29  2  0
 27 28  1  0
M  END
$$$$
