GHW.pdb
     RDKit          3D

 29 31  0  0  1  0  0  0  0  0999 V2000
    8.4670  -19.5220   19.2029 N   0  0  0  0  0  0  0  0  0  0  0  0
    8.3071  -19.1389   20.5652 C   0  0  0  0  0  0  0  0  0  0  0  0
    9.1866  -17.9617   20.9330 C   0  0  0  0  0  0  0  0  0  0  0  0
   10.4147  -18.0423   20.9319 O   0  0  0  0  0  0  0  0  0  0  0  0
    8.5323  -16.7600   21.2793 N   0  0  0  0  0  0  0  0  0  0  0  0
    9.1844  -15.5895   21.7228 C   0  0  1  0  0  0  0  0  0  0  0  0
    8.5805  -14.2601   21.3122 C   0  0  0  0  0  0  0  0  0  0  0  0
    8.3167  -14.1662   19.8630 C   0  0  0  0  0  0  0  0  0  0  0  0
    8.6570  -15.0973   18.8824 C   0  0  0  0  0  0  0  0  0  0  0  0
    8.2335  -14.6235   17.6998 N   0  0  0  0  0  0  0  0  0  0  0  0
    7.6439  -13.4391   17.8931 C   0  0  0  0  0  0  0  0  0  0  0  0
    7.7067  -13.1836   19.2110 N   0  0  0  0  0  0  0  0  0  0  0  0
    9.6458  -15.5354   23.0990 C   0  0  0  0  0  0  0  0  0  0  0  0
   10.4509  -14.5780   23.3796 O   0  0  0  0  0  0  0  0  0  0  0  0
    9.2881  -16.4312   24.1283 N   0  0  0  0  0  0  0  0  0  0  0  0
    9.8810  -16.3168   25.4568 C   0  0  1  0  0  0  0  0  0  0  0  0
    8.8082  -16.3599   26.5167 C   0  0  0  0  0  0  0  0  0  0  0  0
    7.7137  -15.4468   26.1359 C   0  0  0  0  0  0  0  0  0  0  0  0
    6.5155  -15.9305   25.5882 C   0  0  0  0  0  0  0  0  0  0  0  0
    5.7344  -14.8627   25.4102 N   0  0  0  0  0  0  0  0  0  0  0  0
    6.3642  -13.7491   25.8085 C   0  0  0  0  0  0  0  0  0  0  0  0
    6.0347  -12.4122   25.8379 C   0  0  0  0  0  0  0  0  0  0  0  0
    6.9146  -11.4659   26.3040 C   0  0  0  0  0  0  0  0  0  0  0  0
    8.1742  -11.8274   26.7643 C   0  0  0  0  0  0  0  0  0  0  0  0
    8.5145  -13.1640   26.7396 C   0  0  0  0  0  0  0  0  0  0  0  0
    7.6281  -14.1002   26.2736 C   0  0  0  0  0  0  0  0  0  0  0  0
   11.0088  -17.2265   25.6473 C   0  0  0  0  0  0  0  0  0  0  0  0
   11.8191  -17.1893   26.7522 O   0  0  0  0  0  0  0  0  0  0  0  0
   11.2835  -18.1012   24.7665 O   0  0  0  0  0  0  0  0  0  0  0  0
  1  2  1  0
  2  3  1  0
  3  4  2  0
  5  3  1  0
  5  6  1  0
  6 13  1  0
  6  7  1  1
  8  7  1  0
  9  8  2  0
 10  9  1  0
 11 10  1  0
 11 12  2  0
 12  8  1  0
 13 14  2  0
 15 16  1  0
 15 13  1  0
 16 27  1  0
 16 17  1  1
 18 17  1  0
 18 19  2  0
 20 19  1  0
 21 20  1  0
 22 21  2  0
 23 22  1  0
 24 23  2  0
 24 25  1  0
 25 26  2  0
 26 21  1  0
 26 18  1  0
 27 29  2  0
 27 28  1  0
M  END
$$$$
