GHW.pdb
     RDKit          3D

 29 31  0  0  1  0  0  0  0  0999 V2000
    8.2797  -19.8341   20.7058 N   0  0  0  0  0  0  0  0  0  0  0  0
    8.2942  -18.8281   19.6980 C   0  0  0  0  0  0  0  0  0  0  0  0
    9.1325  -17.6318   20.0992 C   0  0  0  0  0  0  0  0  0  0  0  0
   10.3230  -17.5426   19.8003 O   0  0  0  0  0  0  0  0  0  0  0  0
    8.4847  -16.6169   20.8356 N   0  0  0  0  0  0  0  0  0  0  0  0
    9.1177  -15.4585   21.3351 C   0  0  1  0  0  0  0  0  0  0  0  0
    8.4778  -14.1223   21.0100 C   0  0  0  0  0  0  0  0  0  0  0  0
    8.2505  -13.9248   19.5649 C   0  0  0  0  0  0  0  0  0  0  0  0
    8.8626  -12.9851   18.7363 C   0  0  0  0  0  0  0  0  0  0  0  0
    8.3717  -13.1468   17.4972 N   0  0  0  0  0  0  0  0  0  0  0  0
    7.4806  -14.1436   17.5104 C   0  0  0  0  0  0  0  0  0  0  0  0
    7.4246  -14.5988   18.7736 N   0  0  0  0  0  0  0  0  0  0  0  0
    9.6002  -15.4716   22.7051 C   0  0  0  0  0  0  0  0  0  0  0  0
   10.4791  -14.5843   22.9949 O   0  0  0  0  0  0  0  0  0  0  0  0
    9.1896  -16.3619   23.7193 N   0  0  0  0  0  0  0  0  0  0  0  0
    9.8239  -16.3400   25.0334 C   0  0  1  0  0  0  0  0  0  0  0  0
    9.6986  -14.9710   25.6549 C   0  0  0  0  0  0  0  0  0  0  0  0
    8.2713  -14.6641   25.8674 C   0  0  0  0  0  0  0  0  0  0  0  0
    7.2813  -15.6467   25.7117 C   0  0  0  0  0  0  0  0  0  0  0  0
    6.1251  -15.0575   26.0245 N   0  0  0  0  0  0  0  0  0  0  0  0
    6.3276  -13.7770   26.3632 C   0  0  0  0  0  0  0  0  0  0  0  0
    5.5082  -12.7403   26.7513 C   0  0  0  0  0  0  0  0  0  0  0  0
    6.0116  -11.4932   27.0313 C   0  0  0  0  0  0  0  0  0  0  0  0
    7.3725  -11.2339   26.9317 C   0  0  0  0  0  0  0  0  0  0  0  0
    8.2024  -12.2652   26.5440 C   0  0  0  0  0  0  0  0  0  0  0  0
    7.6894  -13.5063   26.2683 C   0  0  0  0  0  0  0  0  0  0  0  0
    9.4157  -17.4655   25.8714 C   0  0  0  0  0  0  0  0  0  0  0  0
    9.9500  -17.7055   27.1106 O   0  0  0  0  0  0  0  0  0  0  0  0
    8.5311  -18.2822   25.4627 O   0  0  0  0  0  0  0  0  0  0  0  0
  1  2  1  0
  2  3  1  0
  3  4  2  0
  5  3  1  0
  5  6  1  0
  6 13  1  0
  6  7  1  1
  8  7  1  0
  9  8  2  0
 10  9  1  0
 11 10  1  0
 11 12  2  0
 12  8  1  0
 13 14  2  0
 15 16  1  0
 15 13  1  0
 16 27  1  0
 16 17  1  1
 18 17  1  0
 18 19  2  0
 20 19  1  0
 21 20  1  0
 22 21  2  0
 23 22  1  0
 24 23  2  0
 24 25  1  0
 25 26  2  0
 26 21  1  0
 26 18  1  0
 27 29  2  0
 27 28  1  0
M  END
$$$$
