GHW.pdb
     RDKit          3D

 29 31  0  0  1  0  0  0  0  0999 V2000
    9.9412  -19.2959   19.0566 N   0  0  0  0  0  0  0  0  0  0  0  0
    9.1434  -18.7226   20.0876 C   0  0  0  0  0  0  0  0  0  0  0  0
    9.6821  -17.3832   20.5466 C   0  0  0  0  0  0  0  0  0  0  0  0
   10.8842  -17.1207   20.5154 O   0  0  0  0  0  0  0  0  0  0  0  0
    8.7395  -16.4428   21.0147 N   0  0  0  0  0  0  0  0  0  0  0  0
    9.0669  -15.2055   21.6096 C   0  0  1  0  0  0  0  0  0  0  0  0
    8.2002  -14.0127   21.2533 C   0  0  0  0  0  0  0  0  0  0  0  0
    7.9550  -13.8869   19.8032 C   0  0  0  0  0  0  0  0  0  0  0  0
    8.4047  -12.8735   18.9574 C   0  0  0  0  0  0  0  0  0  0  0  0
    7.9594  -13.1424   17.7197 N   0  0  0  0  0  0  0  0  0  0  0  0
    7.2516  -14.2764   17.7502 C   0  0  0  0  0  0  0  0  0  0  0  0
    7.2633  -14.7083   19.0227 N   0  0  0  0  0  0  0  0  0  0  0  0
    9.4033  -15.1861   23.0224 C   0  0  0  0  0  0  0  0  0  0  0  0
    9.9049  -14.0907   23.4608 O   0  0  0  0  0  0  0  0  0  0  0  0
    9.2272  -16.2511   23.9305 N   0  0  0  0  0  0  0  0  0  0  0  0
    9.7413  -16.1627   25.2933 C   0  0  1  0  0  0  0  0  0  0  0  0
    8.6329  -16.3981   26.2895 C   0  0  0  0  0  0  0  0  0  0  0  0
    7.5786  -15.3855   26.0896 C   0  0  0  0  0  0  0  0  0  0  0  0
    6.3047  -15.7400   25.6188 C   0  0  0  0  0  0  0  0  0  0  0  0
    5.5909  -14.6121   25.6034 N   0  0  0  0  0  0  0  0  0  0  0  0
    6.3326  -13.5814   26.0312 C   0  0  0  0  0  0  0  0  0  0  0  0
    6.1052  -12.2338   26.2013 C   0  0  0  0  0  0  0  0  0  0  0  0
    7.0891  -11.3917   26.6591 C   0  0  0  0  0  0  0  0  0  0  0  0
    8.3547  -11.8737   26.9678 C   0  0  0  0  0  0  0  0  0  0  0  0
    8.5933  -13.2221   26.8013 C   0  0  0  0  0  0  0  0  0  0  0  0
    7.6035  -14.0537   26.3451 C   0  0  0  0  0  0  0  0  0  0  0  0
   10.9562  -16.9517   25.4862 C   0  0  0  0  0  0  0  0  0  0  0  0
   11.6819  -16.9321   26.6488 O   0  0  0  0  0  0  0  0  0  0  0  0
   11.3920  -17.6972   24.5531 O   0  0  0  0  0  0  0  0  0  0  0  0
  1  2  1  0
  2  3  1  0
  3  4  2  0
  5  3  1  0
  5  6  1  0
  6 13  1  0
  6  7  1  1
  8  7  1  0
  9  8  2  0
 10  9  1  0
 11 10  1  0
 11 12  2  0
 12  8  1  0
 13 14  2  0
 15 16  1  0
 15 13  1  0
 16 27  1  0
 16 17  1  1
 18 17  1  0
 18 19  2  0
 20 19  1  0
 21 20  1  0
 22 21  2  0
 23 22  1  0
 24 23  2  0
 24 25  1  0
 25 26  2  0
 26 21  1  0
 26 18  1  0
 27 29  2  0
 27 28  1  0
M  END
$$$$
