PWF.pdb
     RDKit          3D

 33 36  0  0  1  0  0  0  0  0999 V2000
   28.3497  -22.5441  -17.4739 N   0  0  0  0  0  0  0  0  0  0  0  0
   28.9926  -22.0107  -18.6588 C   0  0  0  0  0  0  0  0  0  0  0  0
   27.9473  -21.1173  -19.2851 C   0  0  0  0  0  0  0  0  0  0  0  0
   26.8036  -21.0643  -18.2629 C   0  0  0  0  0  0  0  0  0  0  0  0
   27.5682  -21.4444  -17.0108 C   0  0  1  0  0  0  0  0  0  0  0  0
   26.6213  -21.8089  -15.9288 C   0  0  0  0  0  0  0  0  0  0  0  0
   26.1474  -22.9718  -15.8853 O   0  0  0  0  0  0  0  0  0  0  0  0
   26.2201  -20.8941  -14.9280 N   0  0  0  0  0  0  0  0  0  0  0  0
   25.1687  -21.1236  -13.9539 C   0  0  1  0  0  0  0  0  0  0  0  0
   25.4911  -20.2049  -12.7979 C   0  0  0  0  0  0  0  0  0  0  0  0
   24.6894  -20.4188  -11.5938 C   0  0  0  0  0  0  0  0  0  0  0  0
   25.1533  -21.1027  -10.4692 C   0  0  0  0  0  0  0  0  0  0  0  0
   24.2205  -21.1163   -9.5100 N   0  0  0  0  0  0  0  0  0  0  0  0
   23.1412  -20.4427  -10.0006 C   0  0  0  0  0  0  0  0  0  0  0  0
   21.9290  -20.1912   -9.3955 C   0  0  0  0  0  0  0  0  0  0  0  0
   21.0037  -19.4848  -10.1355 C   0  0  0  0  0  0  0  0  0  0  0  0
   21.2509  -19.0450  -11.4067 C   0  0  0  0  0  0  0  0  0  0  0  0
   22.4616  -19.3015  -11.9984 C   0  0  0  0  0  0  0  0  0  0  0  0
   23.4264  -20.0051  -11.3005 C   0  0  0  0  0  0  0  0  0  0  0  0
   23.8170  -21.0364  -14.4625 C   0  0  0  0  0  0  0  0  0  0  0  0
   23.4831  -20.0221  -15.1644 O   0  0  0  0  0  0  0  0  0  0  0  0
   22.8139  -22.0122  -14.2438 N   0  0  0  0  0  0  0  0  0  0  0  0
   21.4587  -21.8790  -14.7783 C   0  0  1  0  0  0  0  0  0  0  0  0
   21.1998  -23.2067  -15.4885 C   0  0  0  0  0  0  0  0  0  0  0  0
   21.2434  -24.3718  -14.5950 C   0  0  0  0  0  0  0  0  0  0  0  0
   20.1279  -24.6701  -13.8440 C   0  0  0  0  0  0  0  0  0  0  0  0
   20.1351  -25.7779  -12.9891 C   0  0  0  0  0  0  0  0  0  0  0  0
   21.2379  -26.5791  -12.8825 C   0  0  0  0  0  0  0  0  0  0  0  0
   22.3556  -26.2901  -13.6275 C   0  0  0  0  0  0  0  0  0  0  0  0
   22.3390  -25.1862  -14.4751 C   0  0  0  0  0  0  0  0  0  0  0  0
   20.4346  -21.7445  -13.7219 C   0  0  0  0  0  0  0  0  0  0  0  0
   19.1233  -21.4647  -14.1226 O   0  0  0  0  0  0  0  0  0  0  0  0
   20.6825  -21.8664  -12.5019 O   0  0  0  0  0  0  0  0  0  0  0  0
  1  5  1  0
  1  2  1  0
  2  3  1  0
  3  4  1  0
  5  4  1  0
  6  7  2  0
  5  6  1  1
  8  6  1  0
  9  8  1  0
  9 10  1  1
 11 10  1  0
 12 11  2  0
 13 12  1  0
 14 13  1  0
 14 19  2  0
 15 14  1  0
 16 15  2  0
 16 17  1  0
 17 18  2  0
 18 19  1  0
 19 11  1  0
 20 22  1  0
 20  9  1  0
 21 20  2  0
 23 22  1  0
 23 31  1  0
 23 24  1  1
 24 25  1  0
 25 26  2  0
 25 30  1  0
 26 27  1  0
 27 28  2  0
 29 28  1  0
 30 29  2  0
 31 32  1  0
 33 31  2  0
M  END
$$$$
