PWF.pdb
     RDKit          3D

 33 36  0  0  1  0  0  0  0  0999 V2000
   27.2628  -18.7937  -17.7828 N   0  0  0  0  0  0  0  0  0  0  0  0
   28.5832  -18.3637  -18.1992 C   0  0  0  0  0  0  0  0  0  0  0  0
   28.6070  -16.8816  -17.9060 C   0  0  0  0  0  0  0  0  0  0  0  0
   27.3061  -16.6057  -17.1397 C   0  0  0  0  0  0  0  0  0  0  0  0
   27.0188  -18.0010  -16.6224 C   0  0  1  0  0  0  0  0  0  0  0  0
   25.6200  -18.0839  -16.1358 C   0  0  0  0  0  0  0  0  0  0  0  0
   25.2656  -17.3941  -15.1472 O   0  0  0  0  0  0  0  0  0  0  0  0
   24.6511  -18.9168  -16.7417 N   0  0  0  0  0  0  0  0  0  0  0  0
   23.2768  -19.0650  -16.2991 C   0  0  1  0  0  0  0  0  0  0  0  0
   22.4953  -19.4214  -17.5427 C   0  0  0  0  0  0  0  0  0  0  0  0
   22.1744  -18.2943  -18.4174 C   0  0  0  0  0  0  0  0  0  0  0  0
   22.8555  -17.0766  -18.3884 C   0  0  0  0  0  0  0  0  0  0  0  0
   22.3710  -16.2453  -19.3181 N   0  0  0  0  0  0  0  0  0  0  0  0
   21.3704  -16.9129  -19.9603 C   0  0  0  0  0  0  0  0  0  0  0  0
   20.5628  -16.4808  -20.9898 C   0  0  0  0  0  0  0  0  0  0  0  0
   19.6151  -17.3725  -21.4478 C   0  0  0  0  0  0  0  0  0  0  0  0
   19.4635  -18.6269  -20.9245 C   0  0  0  0  0  0  0  0  0  0  0  0
   20.2737  -19.0457  -19.8998 C   0  0  0  0  0  0  0  0  0  0  0  0
   21.2417  -18.1917  -19.4032 C   0  0  0  0  0  0  0  0  0  0  0  0
   23.0776  -19.9402  -15.1643 C   0  0  0  0  0  0  0  0  0  0  0  0
   23.5549  -21.1250  -15.2041 O   0  0  0  0  0  0  0  0  0  0  0  0
   22.3851  -19.5766  -13.9835 N   0  0  0  0  0  0  0  0  0  0  0  0
   22.3157  -20.4510  -12.8127 C   0  0  1  0  0  0  0  0  0  0  0  0
   22.6572  -19.5372  -11.6370 C   0  0  0  0  0  0  0  0  0  0  0  0
   22.6402  -20.2187  -10.3359 C   0  0  0  0  0  0  0  0  0  0  0  0
   21.4488  -20.3015   -9.6495 C   0  0  0  0  0  0  0  0  0  0  0  0
   21.3980  -20.9510   -8.4110 C   0  0  0  0  0  0  0  0  0  0  0  0
   22.5180  -21.5111   -7.8622 C   0  0  0  0  0  0  0  0  0  0  0  0
   23.7113  -21.4339   -8.5389 C   0  0  0  0  0  0  0  0  0  0  0  0
   23.7520  -20.7860   -9.7701 C   0  0  0  0  0  0  0  0  0  0  0  0
   20.9579  -20.9811  -12.5706 C   0  0  0  0  0  0  0  0  0  0  0  0
   20.8477  -22.3078  -12.1398 O   0  0  0  0  0  0  0  0  0  0  0  0
   19.9161  -20.3078  -12.7320 O   0  0  0  0  0  0  0  0  0  0  0  0
  1  5  1  0
  1  2  1  0
  2  3  1  0
  3  4  1  0
  5  4  1  0
  6  7  2  0
  5  6  1  6
  8  6  1  0
  9  8  1  0
  9 10  1  6
 11 10  1  0
 12 11  2  0
 13 12  1  0
 14 13  1  0
 14 19  2  0
 15 14  1  0
 16 15  2  0
 16 17  1  0
 17 18  2  0
 18 19  1  0
 19 11  1  0
 20 22  1  0
 20  9  1  0
 21 20  2  0
 23 22  1  0
 23 31  1  0
 23 24  1  1
 24 25  1  0
 25 26  2  0
 25 30  1  0
 26 27  1  0
 27 28  2  0
 29 28  1  0
 30 29  2  0
 31 32  1  0
 33 31  2  0
M  END
$$$$
