PWF.pdb
     RDKit          3D

 33 36  0  0  1  0  0  0  0  0999 V2000
   27.1194  -19.6037  -18.6137 N   0  0  0  0  0  0  0  0  0  0  0  0
   27.4245  -19.6367  -20.0306 C   0  0  0  0  0  0  0  0  0  0  0  0
   28.9342  -19.6434  -20.0911 C   0  0  0  0  0  0  0  0  0  0  0  0
   29.3910  -19.8081  -18.6352 C   0  0  0  0  0  0  0  0  0  0  0  0
   28.1381  -20.4258  -18.0473 C   0  0  1  0  0  0  0  0  0  0  0  0
   28.1888  -20.3647  -16.5662 C   0  0  0  0  0  0  0  0  0  0  0  0
   29.0555  -21.0316  -15.9474 O   0  0  0  0  0  0  0  0  0  0  0  0
   27.2926  -19.5788  -15.8054 N   0  0  0  0  0  0  0  0  0  0  0  0
   27.3279  -19.4251  -14.3625 C   0  0  1  0  0  0  0  0  0  0  0  0
   27.3081  -17.9333  -14.1215 C   0  0  0  0  0  0  0  0  0  0  0  0
   26.4149  -17.1756  -14.9971 C   0  0  0  0  0  0  0  0  0  0  0  0
   25.0985  -16.8534  -14.6641 C   0  0  0  0  0  0  0  0  0  0  0  0
   24.5321  -16.1293  -15.6362 N   0  0  0  0  0  0  0  0  0  0  0  0
   25.4731  -15.9738  -16.6108 C   0  0  0  0  0  0  0  0  0  0  0  0
   25.3717  -15.3111  -17.8147 C   0  0  0  0  0  0  0  0  0  0  0  0
   26.4909  -15.3199  -18.6211 C   0  0  0  0  0  0  0  0  0  0  0  0
   27.6540  -15.9468  -18.2682 C   0  0  0  0  0  0  0  0  0  0  0  0
   27.7428  -16.6031  -17.0668 C   0  0  0  0  0  0  0  0  0  0  0  0
   26.6502  -16.6245  -16.2190 C   0  0  0  0  0  0  0  0  0  0  0  0
   26.3420  -20.1892  -13.6294 C   0  0  0  0  0  0  0  0  0  0  0  0
   25.2360  -20.4819  -14.1986 O   0  0  0  0  0  0  0  0  0  0  0  0
   26.5129  -20.6542  -12.3024 N   0  0  0  0  0  0  0  0  0  0  0  0
   25.5150  -21.4827  -11.6258 C   0  0  1  0  0  0  0  0  0  0  0  0
   26.2880  -22.1575  -10.4938 C   0  0  0  0  0  0  0  0  0  0  0  0
   26.8487  -21.2137   -9.5179 C   0  0  0  0  0  0  0  0  0  0  0  0
   28.2180  -21.1194   -9.4020 C   0  0  0  0  0  0  0  0  0  0  0  0
   28.7833  -20.2242   -8.4870 C   0  0  0  0  0  0  0  0  0  0  0  0
   27.9966  -19.4327   -7.6972 C   0  0  0  0  0  0  0  0  0  0  0  0
   26.6296  -19.5190   -7.8053 C   0  0  0  0  0  0  0  0  0  0  0  0
   26.0766  -20.4123   -8.7182 C   0  0  0  0  0  0  0  0  0  0  0  0
   24.4361  -20.6891  -11.0021 C   0  0  0  0  0  0  0  0  0  0  0  0
   23.2922  -21.3731  -10.5756 O   0  0  0  0  0  0  0  0  0  0  0  0
   24.4966  -19.4502  -10.8409 O   0  0  0  0  0  0  0  0  0  0  0  0
  1  5  1  0
  1  2  1  0
  2  3  1  0
  3  4  1  0
  5  4  1  0
  6  7  2  0
  5  6  1  1
  8  6  1  0
  9  8  1  0
  9 10  1  6
 11 10  1  0
 12 11  2  0
 13 12  1  0
 14 13  1  0
 14 19  2  0
 15 14  1  0
 16 15  2  0
 16 17  1  0
 17 18  2  0
 18 19  1  0
 19 11  1  0
 20 22  1  0
 20  9  1  0
 21 20  2  0
 23 22  1  0
 23 31  1  0
 23 24  1  1
 24 25  1  0
 25 26  2  0
 25 30  1  0
 26 27  1  0
 27 28  2  0
 29 28  1  0
 30 29  2  0
 31 32  1  0
 33 31  2  0
M  END
$$$$
