PWF.pdb
     RDKit          3D

 33 36  0  0  1  0  0  0  0  0999 V2000
   20.1007  -11.1781  -18.1303 N   0  0  0  0  0  0  0  0  0  0  0  0
   20.2497  -12.5959  -18.3936 C   0  0  0  0  0  0  0  0  0  0  0  0
   21.5567  -12.7048  -19.1438 C   0  0  0  0  0  0  0  0  0  0  0  0
   22.1689  -11.2986  -19.0847 C   0  0  0  0  0  0  0  0  0  0  0  0
   21.4390  -10.7579  -17.8715 C   0  0  1  0  0  0  0  0  0  0  0  0
   21.5908   -9.2840  -17.8028 C   0  0  0  0  0  0  0  0  0  0  0  0
   22.7232   -8.7870  -17.5802 O   0  0  0  0  0  0  0  0  0  0  0  0
   20.5032   -8.3975  -17.9785 N   0  0  0  0  0  0  0  0  0  0  0  0
   20.5847   -6.9491  -17.9297 C   0  0  1  0  0  0  0  0  0  0  0  0
   19.7282   -6.4644  -19.0767 C   0  0  0  0  0  0  0  0  0  0  0  0
   20.3493   -6.5589  -20.3972 C   0  0  0  0  0  0  0  0  0  0  0  0
   20.2292   -7.6734  -21.2285 C   0  0  0  0  0  0  0  0  0  0  0  0
   20.8710   -7.4684  -22.3845 N   0  0  0  0  0  0  0  0  0  0  0  0
   21.4151   -6.2199  -22.3168 C   0  0  0  0  0  0  0  0  0  0  0  0
   22.1737   -5.5538  -23.2547 C   0  0  0  0  0  0  0  0  0  0  0  0
   22.6056   -4.2886  -22.9147 C   0  0  0  0  0  0  0  0  0  0  0  0
   22.3105   -3.7019  -21.7151 C   0  0  0  0  0  0  0  0  0  0  0  0
   21.5542   -4.3750  -20.7895 C   0  0  0  0  0  0  0  0  0  0  0  0
   21.0942   -5.6468  -21.0794 C   0  0  0  0  0  0  0  0  0  0  0  0
   20.3016   -6.3512  -16.6429 C   0  0  0  0  0  0  0  0  0  0  0  0
   19.0929   -6.0604  -16.3471 O   0  0  0  0  0  0  0  0  0  0  0  0
   21.2803   -6.0622  -15.6607 N   0  0  0  0  0  0  0  0  0  0  0  0
   20.9505   -5.4201  -14.3883 C   0  0  1  0  0  0  0  0  0  0  0  0
   20.1645   -6.4820  -13.6210 C   0  0  0  0  0  0  0  0  0  0  0  0
   20.9850   -7.6161  -13.1755 C   0  0  0  0  0  0  0  0  0  0  0  0
   21.3600   -7.6799  -11.8517 C   0  0  0  0  0  0  0  0  0  0  0  0
   22.1352   -8.7515  -11.3944 C   0  0  0  0  0  0  0  0  0  0  0  0
   22.5323   -9.7470  -12.2431 C   0  0  0  0  0  0  0  0  0  0  0  0
   22.1633   -9.6927  -13.5655 C   0  0  0  0  0  0  0  0  0  0  0  0
   21.3922   -8.6231  -14.0110 C   0  0  0  0  0  0  0  0  0  0  0  0
   22.1448   -5.0960  -13.5811 C   0  0  0  0  0  0  0  0  0  0  0  0
   23.3961   -5.4233  -14.1152 O   0  0  0  0  0  0  0  0  0  0  0  0
   22.0896   -4.5508  -12.4567 O   0  0  0  0  0  0  0  0  0  0  0  0
  1  5  1  0
  1  2  1  0
  2  3  1  0
  3  4  1  0
  5  4  1  0
  6  7  2  0
  5  6  1  6
  8  6  1  0
  9  8  1  0
  9 10  1  6
 11 10  1  0
 12 11  2  0
 13 12  1  0
 14 13  1  0
 14 19  2  0
 15 14  1  0
 16 15  2  0
 16 17  1  0
 17 18  2  0
 18 19  1  0
 19 11  1  0
 20 22  1  0
 20  9  1  0
 21 20  2  0
 23 22  1  0
 23 31  1  0
 23 24  1  1
 24 25  1  0
 25 26  2  0
 25 30  1  0
 26 27  1  0
 27 28  2  0
 29 28  1  0
 30 29  2  0
 31 32  1  0
 33 31  2  0
M  END
$$$$
