PWF.pdb
     RDKit          3D

 33 36  0  0  1  0  0  0  0  0999 V2000
   26.9193  -19.6253  -14.7334 N   0  0  0  0  0  0  0  0  0  0  0  0
   27.9398  -19.5916  -15.7625 C   0  0  0  0  0  0  0  0  0  0  0  0
   28.9065  -20.6848  -15.3708 C   0  0  0  0  0  0  0  0  0  0  0  0
   28.2333  -21.4112  -14.1983 C   0  0  0  0  0  0  0  0  0  0  0  0
   26.7921  -21.0181  -14.4537 C   0  0  1  0  0  0  0  0  0  0  0  0
   25.9674  -21.3053  -13.2547 C   0  0  0  0  0  0  0  0  0  0  0  0
   25.6050  -22.4852  -13.0196 O   0  0  0  0  0  0  0  0  0  0  0  0
   25.5630  -20.2971  -12.3494 N   0  0  0  0  0  0  0  0  0  0  0  0
   24.7895  -20.5155  -11.1407 C   0  0  1  0  0  0  0  0  0  0  0  0
   25.5369  -19.7796  -10.0526 C   0  0  0  0  0  0  0  0  0  0  0  0
   26.7372  -20.4542   -9.5598 C   0  0  0  0  0  0  0  0  0  0  0  0
   27.5580  -21.2508  -10.3593 C   0  0  0  0  0  0  0  0  0  0  0  0
   28.5975  -21.7106   -9.6536 N   0  0  0  0  0  0  0  0  0  0  0  0
   28.4634  -21.2188   -8.3889 C   0  0  0  0  0  0  0  0  0  0  0  0
   29.2766  -21.4128   -7.2935 C   0  0  0  0  0  0  0  0  0  0  0  0
   28.8924  -20.7950   -6.1215 C   0  0  0  0  0  0  0  0  0  0  0  0
   27.7667  -20.0244   -6.0242 C   0  0  0  0  0  0  0  0  0  0  0  0
   26.9651  -19.8385   -7.1217 C   0  0  0  0  0  0  0  0  0  0  0  0
   27.3045  -20.4345   -8.3229 C   0  0  0  0  0  0  0  0  0  0  0  0
   23.3776  -20.2158  -11.2409 C   0  0  0  0  0  0  0  0  0  0  0  0
   23.0161  -19.0292  -11.5481 O   0  0  0  0  0  0  0  0  0  0  0  0
   22.3412  -21.1572  -11.0264 N   0  0  0  0  0  0  0  0  0  0  0  0
   20.9276  -20.8214  -11.1960 C   0  0  1  0  0  0  0  0  0  0  0  0
   20.7652  -20.6169  -12.7013 C   0  0  0  0  0  0  0  0  0  0  0  0
   21.1309  -21.7945  -13.4995 C   0  0  0  0  0  0  0  0  0  0  0  0
   22.2520  -21.7294  -14.2970 C   0  0  0  0  0  0  0  0  0  0  0  0
   22.6314  -22.8370  -15.0636 C   0  0  0  0  0  0  0  0  0  0  0  0
   21.9047  -23.9948  -15.0371 C   0  0  0  0  0  0  0  0  0  0  0  0
   20.7848  -24.0700  -14.2447 C   0  0  0  0  0  0  0  0  0  0  0  0
   20.4154  -22.9633  -13.4859 C   0  0  0  0  0  0  0  0  0  0  0  0
   20.0240  -21.9239  -10.8075 C   0  0  0  0  0  0  0  0  0  0  0  0
   20.6000  -23.0604  -10.2291 O   0  0  0  0  0  0  0  0  0  0  0  0
   18.7843  -21.8892  -10.9707 O   0  0  0  0  0  0  0  0  0  0  0  0
  1  5  1  0
  1  2  1  0
  2  3  1  0
  3  4  1  0
  5  4  1  0
  6  7  2  0
  5  6  1  1
  8  6  1  0
  9  8  1  0
  9 10  1  1
 11 10  1  0
 12 11  2  0
 13 12  1  0
 14 13  1  0
 14 19  2  0
 15 14  1  0
 16 15  2  0
 16 17  1  0
 17 18  2  0
 18 19  1  0
 19 11  1  0
 20 22  1  0
 20  9  1  0
 21 20  2  0
 23 22  1  0
 23 31  1  0
 23 24  1  6
 24 25  1  0
 25 26  2  0
 25 30  1  0
 26 27  1  0
 27 28  2  0
 29 28  1  0
 30 29  2  0
 31 32  1  0
 33 31  2  0
M  END
$$$$
