PWF.pdb
     RDKit          3D

 33 36  0  0  1  0  0  0  0  0999 V2000
   24.0973  -11.8690  -19.7762 N   0  0  0  0  0  0  0  0  0  0  0  0
   25.0326  -12.1795  -20.8394 C   0  0  0  0  0  0  0  0  0  0  0  0
   24.7926  -11.1081  -21.8775 C   0  0  0  0  0  0  0  0  0  0  0  0
   23.8252  -10.1189  -21.2134 C   0  0  0  0  0  0  0  0  0  0  0  0
   24.0950  -10.4428  -19.7576 C   0  0  1  0  0  0  0  0  0  0  0  0
   23.0284   -9.8664  -18.9031 C   0  0  0  0  0  0  0  0  0  0  0  0
   23.0814   -8.6536  -18.5787 O   0  0  0  0  0  0  0  0  0  0  0  0
   21.9372  -10.6302  -18.4283 N   0  0  0  0  0  0  0  0  0  0  0  0
   20.8496  -10.1226  -17.6120 C   0  0  1  0  0  0  0  0  0  0  0  0
   19.6917  -11.0603  -17.8659 C   0  0  0  0  0  0  0  0  0  0  0  0
   18.5169  -10.8367  -17.0242 C   0  0  0  0  0  0  0  0  0  0  0  0
   17.9207   -9.5873  -16.8477 C   0  0  0  0  0  0  0  0  0  0  0  0
   16.8475   -9.6871  -16.0549 N   0  0  0  0  0  0  0  0  0  0  0  0
   16.7352  -11.0009  -15.7075 C   0  0  0  0  0  0  0  0  0  0  0  0
   15.7960  -11.6062  -14.9011 C   0  0  0  0  0  0  0  0  0  0  0  0
   15.9285  -12.9661  -14.7115 C   0  0  0  0  0  0  0  0  0  0  0  0
   16.9315  -13.6999  -15.2825 C   0  0  0  0  0  0  0  0  0  0  0  0
   17.8605  -13.0860  -16.0836 C   0  0  0  0  0  0  0  0  0  0  0  0
   17.7738  -11.7240  -16.3083 C   0  0  0  0  0  0  0  0  0  0  0  0
   21.1702   -9.8887  -16.2207 C   0  0  0  0  0  0  0  0  0  0  0  0
   21.6720  -10.8408  -15.5317 O   0  0  0  0  0  0  0  0  0  0  0  0
   20.9728   -8.6575  -15.5488 N   0  0  0  0  0  0  0  0  0  0  0  0
   21.1794   -8.5069  -14.1084 C   0  0  1  0  0  0  0  0  0  0  0  0
   22.4853   -7.7224  -13.9934 C   0  0  0  0  0  0  0  0  0  0  0  0
   22.4354   -6.3977  -14.6262 C   0  0  0  0  0  0  0  0  0  0  0  0
   22.8987   -6.2645  -15.9165 C   0  0  0  0  0  0  0  0  0  0  0  0
   22.8577   -5.0174  -16.5500 C   0  0  0  0  0  0  0  0  0  0  0  0
   22.3620   -3.9167  -15.9082 C   0  0  0  0  0  0  0  0  0  0  0  0
   21.8972   -4.0391  -14.6210 C   0  0  0  0  0  0  0  0  0  0  0  0
   21.9421   -5.2835  -13.9993 C   0  0  0  0  0  0  0  0  0  0  0  0
   20.1280   -7.6978  -13.4582 C   0  0  0  0  0  0  0  0  0  0  0  0
   20.0870   -7.6917  -12.0595 O   0  0  0  0  0  0  0  0  0  0  0  0
   19.2831   -7.0276  -14.0921 O   0  0  0  0  0  0  0  0  0  0  0  0
  1  5  1  0
  1  2  1  0
  2  3  1  0
  3  4  1  0
  5  4  1  0
  6  7  2  0
  5  6  1  1
  8  6  1  0
  9  8  1  0
  9 10  1  1
 11 10  1  0
 12 11  2  0
 13 12  1  0
 14 13  1  0
 14 19  2  0
 15 14  1  0
 16 15  2  0
 16 17  1  0
 17 18  2  0
 18 19  1  0
 19 11  1  0
 20 22  1  0
 20  9  1  0
 21 20  2  0
 23 22  1  0
 23 31  1  0
 23 24  1  6
 24 25  1  0
 25 26  2  0
 25 30  1  0
 26 27  1  0
 27 28  2  0
 29 28  1  0
 30 29  2  0
 31 32  1  0
 33 31  2  0
M  END
$$$$
