PWF.pdb
     RDKit          3D

 33 36  0  0  1  0  0  0  0  0999 V2000
   20.9468  -10.2114  -16.6126 N   0  0  0  0  0  0  0  0  0  0  0  0
   21.8696  -11.2950  -16.8883 C   0  0  0  0  0  0  0  0  0  0  0  0
   23.2323  -10.7154  -16.5881 C   0  0  0  0  0  0  0  0  0  0  0  0
   22.9524   -9.3435  -15.9594 C   0  0  0  0  0  0  0  0  0  0  0  0
   21.5328   -9.5717  -15.4804 C   0  0  1  0  0  0  0  0  0  0  0  0
   20.8967   -8.2753  -15.1415 C   0  0  0  0  0  0  0  0  0  0  0  0
   21.3474   -7.5944  -14.1865 O   0  0  0  0  0  0  0  0  0  0  0  0
   19.7886   -7.7615  -15.8541 N   0  0  0  0  0  0  0  0  0  0  0  0
   19.1184   -6.5054  -15.5717 C   0  0  1  0  0  0  0  0  0  0  0  0
   18.7069   -5.9628  -16.9209 C   0  0  0  0  0  0  0  0  0  0  0  0
   19.8117   -5.5621  -17.7912 C   0  0  0  0  0  0  0  0  0  0  0  0
   20.4685   -6.4375  -18.6571 C   0  0  0  0  0  0  0  0  0  0  0  0
   21.4118   -5.7911  -19.3517 N   0  0  0  0  0  0  0  0  0  0  0  0
   21.3788   -4.4901  -18.9447 C   0  0  0  0  0  0  0  0  0  0  0  0
   22.1590   -3.4328  -19.3596 C   0  0  0  0  0  0  0  0  0  0  0  0
   21.9123   -2.2123  -18.7658 C   0  0  0  0  0  0  0  0  0  0  0  0
   20.9490   -2.0334  -17.8116 C   0  0  0  0  0  0  0  0  0  0  0  0
   20.1784   -3.0937  -17.4069 C   0  0  0  0  0  0  0  0  0  0  0  0
   20.3831   -4.3400  -17.9707 C   0  0  0  0  0  0  0  0  0  0  0  0
   18.0693   -6.5676  -14.5773 C   0  0  0  0  0  0  0  0  0  0  0  0
   17.0362   -7.2829  -14.8102 O   0  0  0  0  0  0  0  0  0  0  0  0
   18.1009   -5.8878  -13.3351 N   0  0  0  0  0  0  0  0  0  0  0  0
   17.0349   -6.0169  -12.3417 C   0  0  1  0  0  0  0  0  0  0  0  0
   17.6160   -6.9518  -11.2823 C   0  0  0  0  0  0  0  0  0  0  0  0
   18.8678   -6.4643  -10.6881 C   0  0  0  0  0  0  0  0  0  0  0  0
   20.0615   -6.8329  -11.2682 C   0  0  0  0  0  0  0  0  0  0  0  0
   21.2710   -6.3789  -10.7305 C   0  0  0  0  0  0  0  0  0  0  0  0
   21.2930   -5.5684   -9.6297 C   0  0  0  0  0  0  0  0  0  0  0  0
   20.1077   -5.1949   -9.0437 C   0  0  0  0  0  0  0  0  0  0  0  0
   18.9097   -5.6514   -9.5856 C   0  0  0  0  0  0  0  0  0  0  0  0
   16.7189   -4.7403  -11.6681 C   0  0  0  0  0  0  0  0  0  0  0  0
   15.6771   -4.7412  -10.7339 O   0  0  0  0  0  0  0  0  0  0  0  0
   17.3309   -3.6727  -11.8923 O   0  0  0  0  0  0  0  0  0  0  0  0
  1  5  1  0
  1  2  1  0
  2  3  1  0
  3  4  1  0
  5  4  1  0
  6  7  2  0
  5  6  1  6
  8  6  1  0
  9  8  1  0
  9 10  1  6
 11 10  1  0
 12 11  2  0
 13 12  1  0
 14 13  1  0
 14 19  2  0
 15 14  1  0
 16 15  2  0
 16 17  1  0
 17 18  2  0
 18 19  1  0
 19 11  1  0
 20 22  1  0
 20  9  1  0
 21 20  2  0
 23 22  1  0
 23 31  1  0
 23 24  1  1
 24 25  1  0
 25 26  2  0
 25 30  1  0
 26 27  1  0
 27 28  2  0
 29 28  1  0
 30 29  2  0
 31 32  1  0
 33 31  2  0
M  END
$$$$
