PWF.pdb
     RDKit          3D

 33 36  0  0  1  0  0  0  0  0999 V2000
   28.8452  -21.5033  -18.2034 N   0  0  0  0  0  0  0  0  0  0  0  0
   29.9002  -21.6534  -19.1863 C   0  0  0  0  0  0  0  0  0  0  0  0
   30.5305  -20.2830  -19.2752 C   0  0  0  0  0  0  0  0  0  0  0  0
   29.8763  -19.4695  -18.1501 C   0  0  0  0  0  0  0  0  0  0  0  0
   29.4159  -20.6030  -17.2557 C   0  0  1  0  0  0  0  0  0  0  0  0
   28.4392  -20.0991  -16.2596 C   0  0  0  0  0  0  0  0  0  0  0  0
   28.7981  -19.2339  -15.4221 O   0  0  0  0  0  0  0  0  0  0  0  0
   27.1014  -20.5544  -16.2071 N   0  0  0  0  0  0  0  0  0  0  0  0
   26.1038  -20.1192  -15.2468 C   0  0  1  0  0  0  0  0  0  0  0  0
   24.8991  -19.7325  -16.0735 C   0  0  0  0  0  0  0  0  0  0  0  0
   23.7661  -19.2094  -15.3112 C   0  0  0  0  0  0  0  0  0  0  0  0
   23.6469  -17.8738  -14.9246 C   0  0  0  0  0  0  0  0  0  0  0  0
   22.4970  -17.6753  -14.2700 N   0  0  0  0  0  0  0  0  0  0  0  0
   21.8574  -18.8787  -14.2236 C   0  0  0  0  0  0  0  0  0  0  0  0
   20.6435  -19.1927  -13.6522 C   0  0  0  0  0  0  0  0  0  0  0  0
   20.2373  -20.5076  -13.7474 C   0  0  0  0  0  0  0  0  0  0  0  0
   20.9821  -21.4702  -14.3711 C   0  0  0  0  0  0  0  0  0  0  0  0
   22.1891  -21.1452  -14.9364 C   0  0  0  0  0  0  0  0  0  0  0  0
   22.6437  -19.8406  -14.8708 C   0  0  0  0  0  0  0  0  0  0  0  0
   25.8454  -21.0352  -14.1571 C   0  0  0  0  0  0  0  0  0  0  0  0
   25.7757  -22.2873  -14.4032 O   0  0  0  0  0  0  0  0  0  0  0  0
   25.6656  -20.6448  -12.8075 N   0  0  0  0  0  0  0  0  0  0  0  0
   25.1035  -21.5425  -11.7984 C   0  0  1  0  0  0  0  0  0  0  0  0
   26.3109  -21.9926  -10.9775 C   0  0  0  0  0  0  0  0  0  0  0  0
   26.8916  -20.9272  -10.1496 C   0  0  0  0  0  0  0  0  0  0  0  0
   26.1023  -20.3322   -9.1902 C   0  0  0  0  0  0  0  0  0  0  0  0
   26.6283  -19.3196   -8.3802 C   0  0  0  0  0  0  0  0  0  0  0  0
   27.9230  -18.9041   -8.5225 C   0  0  0  0  0  0  0  0  0  0  0  0
   28.7186  -19.4913   -9.4764 C   0  0  0  0  0  0  0  0  0  0  0  0
   28.1866  -20.4977  -10.2773 C   0  0  0  0  0  0  0  0  0  0  0  0
   24.1787  -20.8583  -10.8713 C   0  0  0  0  0  0  0  0  0  0  0  0
   24.1961  -19.4592  -10.8538 O   0  0  0  0  0  0  0  0  0  0  0  0
   23.3920  -21.4641  -10.1104 O   0  0  0  0  0  0  0  0  0  0  0  0
  1  5  1  0
  1  2  1  0
  2  3  1  0
  3  4  1  0
  5  4  1  0
  6  7  2  0
  5  6  1  1
  8  6  1  0
  9  8  1  0
  9 10  1  6
 11 10  1  0
 12 11  2  0
 13 12  1  0
 14 13  1  0
 14 19  2  0
 15 14  1  0
 16 15  2  0
 16 17  1  0
 17 18  2  0
 18 19  1  0
 19 11  1  0
 20 22  1  0
 20  9  1  0
 21 20  2  0
 23 22  1  0
 23 31  1  0
 23 24  1  1
 24 25  1  0
 25 26  2  0
 25 30  1  0
 26 27  1  0
 27 28  2  0
 29 28  1  0
 30 29  2  0
 31 32  1  0
 33 31  2  0
M  END
$$$$
