YFD.pdb
     RDKit          3D

 32 33  0  0  1  0  0  0  0  0999 V2000
    8.3299  -21.9119   16.5107 O   0  0  0  0  0  0  0  0  0  0  0  0
    8.6308  -21.0653   17.5689 C   0  0  0  0  0  0  0  0  0  0  0  0
    9.9361  -20.6826   17.7644 C   0  0  0  0  0  0  0  0  0  0  0  0
   10.2265  -19.8356   18.8214 C   0  0  0  0  0  0  0  0  0  0  0  0
    9.2704  -19.3645   19.6795 C   0  0  0  0  0  0  0  0  0  0  0  0
    9.6220  -18.4720   20.8104 C   0  0  0  0  0  0  0  0  0  0  0  0
    9.3865  -17.0484   20.4575 C   0  0  2  0  0  0  0  0  0  0  0  0
   10.1220  -16.6739   19.2647 N   0  0  0  0  0  0  0  0  0  0  0  0
    9.6274  -16.0723   21.5508 C   0  0  0  0  0  0  0  0  0  0  0  0
   10.7667  -15.7148   21.8894 O   0  0  0  0  0  0  0  0  0  0  0  0
    7.9636  -19.7343   19.5020 C   0  0  0  0  0  0  0  0  0  0  0  0
    7.6465  -20.5882   18.4398 C   0  0  0  0  0  0  0  0  0  0  0  0
    8.5020  -15.5257   22.2394 N   0  0  0  0  0  0  0  0  0  0  0  0
    8.5541  -14.8490   23.4931 C   0  0  1  0  0  0  0  0  0  0  0  0
    7.3221  -13.9963   23.6482 C   0  0  0  0  0  0  0  0  0  0  0  0
    7.3633  -13.2835   24.9478 C   0  0  0  0  0  0  0  0  0  0  0  0
    6.5018  -13.6466   25.9620 C   0  0  0  0  0  0  0  0  0  0  0  0
    6.5184  -12.9923   27.1872 C   0  0  0  0  0  0  0  0  0  0  0  0
    7.4160  -11.9617   27.3942 C   0  0  0  0  0  0  0  0  0  0  0  0
    8.2731  -11.5952   26.3968 C   0  0  0  0  0  0  0  0  0  0  0  0
    8.2499  -12.2457   25.1846 C   0  0  0  0  0  0  0  0  0  0  0  0
    8.7994  -15.7474   24.6533 C   0  0  0  0  0  0  0  0  0  0  0  0
    7.9067  -16.5759   24.9403 O   0  0  0  0  0  0  0  0  0  0  0  0
    9.9514  -15.7362   25.4581 N   0  0  0  0  0  0  0  0  0  0  0  0
   10.2438  -16.7497   26.4697 C   0  0  1  0  0  0  0  0  0  0  0  0
   11.4054  -17.6122   26.1393 C   0  0  0  0  0  0  0  0  0  0  0  0
   12.5209  -16.8631   25.5724 C   0  0  0  0  0  0  0  0  0  0  0  0
   13.2726  -16.2344   26.3891 O   0  0  0  0  0  0  0  0  0  0  0  0
   10.4138  -16.1029   27.8011 C   0  0  0  0  0  0  0  0  0  0  0  0
   10.3678  -14.7266   27.9853 O   0  0  0  0  0  0  0  0  0  0  0  0
   12.8223  -16.7865   24.2326 O   0  0  0  0  0  0  0  0  0  0  0  0
   10.6098  -16.7958   28.8240 O   0  0  0  0  0  0  0  0  0  0  0  0
  2  1  1  0
  3  2  2  0
  4  3  1  0
  5  4  2  0
  5 11  1  0
  6  5  1  0
  7  9  1  0
  7  6  1  0
  7  8  1  6
  9 10  2  0
 11 12  2  0
 12  2  1  0
 13 14  1  0
 13  9  1  0
 14 15  1  1
 16 21  1  0
 16 15  1  0
 17 16  2  0
 18 19  2  0
 18 17  1  0
 19 20  1  0
 20 21  2  0
 22 14  1  0
 23 22  2  0
 24 22  1  0
 25 29  1  0
 25 24  1  0
 25 26  1  6
 27 26  1  0
 28 27  2  0
 29 30  1  0
 31 27  1  0
 32 29  2  0
M  END
$$$$
