YFD.pdb
     RDKit          3D

 32 33  0  0  1  0  0  0  0  0999 V2000
    7.7870  -13.7754   15.4146 O   0  0  0  0  0  0  0  0  0  0  0  0
    7.9259  -13.7242   16.7949 C   0  0  0  0  0  0  0  0  0  0  0  0
    8.1133  -14.8956   17.4886 C   0  0  0  0  0  0  0  0  0  0  0  0
    8.2535  -14.8345   18.8654 C   0  0  0  0  0  0  0  0  0  0  0  0
    8.2125  -13.6588   19.5644 C   0  0  0  0  0  0  0  0  0  0  0  0
    8.3499  -13.6347   21.0407 C   0  0  0  0  0  0  0  0  0  0  0  0
    8.7257  -14.9740   21.5619 C   0  0  2  0  0  0  0  0  0  0  0  0
    7.6648  -15.9392   21.3447 N   0  0  0  0  0  0  0  0  0  0  0  0
    9.1808  -15.0035   22.9754 C   0  0  0  0  0  0  0  0  0  0  0  0
   10.2222  -14.4448   23.3547 O   0  0  0  0  0  0  0  0  0  0  0  0
    8.0263  -12.4804   18.8917 C   0  0  0  0  0  0  0  0  0  0  0  0
    7.8837  -12.5176   17.5001 C   0  0  0  0  0  0  0  0  0  0  0  0
    8.3878  -15.7043   23.9344 N   0  0  0  0  0  0  0  0  0  0  0  0
    8.7159  -15.8661   25.3123 C   0  0  1  0  0  0  0  0  0  0  0  0
    7.4688  -15.7044   26.1415 C   0  0  0  0  0  0  0  0  0  0  0  0
    7.1724  -14.2637   26.3296 C   0  0  0  0  0  0  0  0  0  0  0  0
    8.1519  -13.4127   26.7972 C   0  0  0  0  0  0  0  0  0  0  0  0
    7.8983  -12.0599   26.9851 C   0  0  0  0  0  0  0  0  0  0  0  0
    6.6434  -11.5580   26.6954 C   0  0  0  0  0  0  0  0  0  0  0  0
    5.6673  -12.3922   26.2315 C   0  0  0  0  0  0  0  0  0  0  0  0
    5.9243  -13.7317   26.0500 C   0  0  0  0  0  0  0  0  0  0  0  0
    9.4647  -17.1165   25.6108 C   0  0  0  0  0  0  0  0  0  0  0  0
    9.4777  -17.5119   26.7979 O   0  0  0  0  0  0  0  0  0  0  0  0
   10.1650  -17.8871   24.6670 N   0  0  0  0  0  0  0  0  0  0  0  0
   10.9833  -19.0472   25.0139 C   0  0  1  0  0  0  0  0  0  0  0  0
   11.0337  -20.0864   23.9556 C   0  0  0  0  0  0  0  0  0  0  0  0
    9.7087  -20.5049   23.5127 C   0  0  0  0  0  0  0  0  0  0  0  0
    8.9041  -20.9278   24.4080 O   0  0  0  0  0  0  0  0  0  0  0  0
   12.3525  -18.6046   25.4005 C   0  0  0  0  0  0  0  0  0  0  0  0
   12.7871  -17.2910   25.2744 O   0  0  0  0  0  0  0  0  0  0  0  0
    9.2640  -20.4754   22.2115 O   0  0  0  0  0  0  0  0  0  0  0  0
   13.1783  -19.4227   25.8627 O   0  0  0  0  0  0  0  0  0  0  0  0
  2  1  1  0
  3  2  2  0
  4  3  1  0
  5  4  2  0
  5 11  1  0
  6  5  1  0
  7  9  1  0
  7  6  1  0
  7  8  1  1
  9 10  2  0
 11 12  2  0
 12  2  1  0
 13 14  1  0
 13  9  1  0
 14 15  1  1
 16 21  1  0
 16 15  1  0
 17 16  2  0
 18 19  2  0
 18 17  1  0
 19 20  1  0
 20 21  2  0
 22 14  1  0
 23 22  2  0
 24 22  1  0
 25 29  1  0
 25 24  1  0
 25 26  1  6
 27 26  1  0
 28 27  2  0
 29 30  1  0
 31 27  1  0
 32 29  2  0
M  END
$$$$
