YFD.pdb
     RDKit          3D

 32 33  0  0  1  0  0  0  0  0999 V2000
    7.3053  -21.4674   16.0927 O   0  0  0  0  0  0  0  0  0  0  0  0
    7.6566  -20.7399   17.2216 C   0  0  0  0  0  0  0  0  0  0  0  0
    6.6674  -20.3263   18.0810 C   0  0  0  0  0  0  0  0  0  0  0  0
    7.0276  -19.6031   19.2063 C   0  0  0  0  0  0  0  0  0  0  0  0
    8.3253  -19.2820   19.4984 C   0  0  0  0  0  0  0  0  0  0  0  0
    8.6710  -18.4917   20.7045 C   0  0  0  0  0  0  0  0  0  0  0  0
    8.8231  -17.0521   20.3716 C   0  0  2  0  0  0  0  0  0  0  0  0
    9.7400  -16.8627   19.2636 N   0  0  0  0  0  0  0  0  0  0  0  0
    9.1856  -16.1692   21.5096 C   0  0  0  0  0  0  0  0  0  0  0  0
   10.3612  -15.8831   21.7862 O   0  0  0  0  0  0  0  0  0  0  0  0
    9.3261  -19.6847   18.6545 C   0  0  0  0  0  0  0  0  0  0  0  0
    8.9859  -20.4178   17.5121 C   0  0  0  0  0  0  0  0  0  0  0  0
    8.1383  -15.6302   22.3172 N   0  0  0  0  0  0  0  0  0  0  0  0
    8.3269  -14.8551   23.4988 C   0  0  1  0  0  0  0  0  0  0  0  0
    7.0996  -14.0165   23.7431 C   0  0  0  0  0  0  0  0  0  0  0  0
    7.2404  -13.2782   25.0213 C   0  0  0  0  0  0  0  0  0  0  0  0
    6.5003  -13.6563   26.1221 C   0  0  0  0  0  0  0  0  0  0  0  0
    6.6117  -12.9789   27.3297 C   0  0  0  0  0  0  0  0  0  0  0  0
    7.4816  -11.9094   27.4302 C   0  0  0  0  0  0  0  0  0  0  0  0
    8.2189  -11.5277   26.3465 C   0  0  0  0  0  0  0  0  0  0  0  0
    8.1020  -12.2014   25.1525 C   0  0  0  0  0  0  0  0  0  0  0  0
    8.7410  -15.6536   24.6838 C   0  0  0  0  0  0  0  0  0  0  0  0
    7.9491  -16.5314   25.0935 O   0  0  0  0  0  0  0  0  0  0  0  0
    9.9487  -15.4968   25.3853 N   0  0  0  0  0  0  0  0  0  0  0  0
   10.4432  -16.4543   26.3724 C   0  0  1  0  0  0  0  0  0  0  0  0
   11.8888  -16.7628   26.2400 C   0  0  0  0  0  0  0  0  0  0  0  0
   12.2440  -17.2394   24.9082 C   0  0  0  0  0  0  0  0  0  0  0  0
   11.6010  -18.2468   24.4616 O   0  0  0  0  0  0  0  0  0  0  0  0
   10.1168  -15.9800   27.7467 C   0  0  0  0  0  0  0  0  0  0  0  0
   10.3170  -16.7550   28.8822 O   0  0  0  0  0  0  0  0  0  0  0  0
   13.2117  -16.6862   24.1025 O   0  0  0  0  0  0  0  0  0  0  0  0
    9.6380  -14.8387   27.9283 O   0  0  0  0  0  0  0  0  0  0  0  0
  2  1  1  0
  3  2  2  0
  4  3  1  0
  5  4  2  0
  5 11  1  0
  6  5  1  0
  7  9  1  0
  7  6  1  0
  7  8  1  6
  9 10  2  0
 11 12  2  0
 12  2  1  0
 13 14  1  0
 13  9  1  0
 14 15  1  1
 16 21  1  0
 16 15  1  0
 17 16  2  0
 18 19  2  0
 18 17  1  0
 19 20  1  0
 20 21  2  0
 22 14  1  0
 23 22  2  0
 24 22  1  0
 25 29  1  0
 25 24  1  0
 25 26  1  1
 27 26  1  0
 28 27  2  0
 29 30  1  0
 31 27  1  0
 32 29  2  0
M  END
$$$$
