YFD.pdb
     RDKit          3D

 32 33  0  0  1  0  0  0  0  0999 V2000
    8.2715  -21.0281   15.6604 O   0  0  0  0  0  0  0  0  0  0  0  0
    8.6447  -20.3587   16.8179 C   0  0  0  0  0  0  0  0  0  0  0  0
    7.6657  -19.8949   17.6633 C   0  0  0  0  0  0  0  0  0  0  0  0
    8.0476  -19.2304   18.8172 C   0  0  0  0  0  0  0  0  0  0  0  0
    9.3570  -19.0149   19.1510 C   0  0  0  0  0  0  0  0  0  0  0  0
    9.7271  -18.2844   20.3872 C   0  0  0  0  0  0  0  0  0  0  0  0
    9.6027  -16.8167   20.1952 C   0  0  2  0  0  0  0  0  0  0  0  0
   10.4670  -16.3511   19.1274 N   0  0  0  0  0  0  0  0  0  0  0  0
    9.7906  -15.9954   21.4184 C   0  0  0  0  0  0  0  0  0  0  0  0
   10.9121  -15.7153   21.8702 O   0  0  0  0  0  0  0  0  0  0  0  0
   10.3479  -19.4690   18.3216 C   0  0  0  0  0  0  0  0  0  0  0  0
    9.9857  -20.1445   17.1509 C   0  0  0  0  0  0  0  0  0  0  0  0
    8.6335  -15.5110   22.1010 N   0  0  0  0  0  0  0  0  0  0  0  0
    8.6399  -14.8532   23.3658 C   0  0  1  0  0  0  0  0  0  0  0  0
    7.3405  -14.1131   23.5466 C   0  0  0  0  0  0  0  0  0  0  0  0
    7.3250  -13.4379   24.8667 C   0  0  0  0  0  0  0  0  0  0  0  0
    6.5410  -13.9348   25.8871 C   0  0  0  0  0  0  0  0  0  0  0  0
    6.5065  -13.3186   27.1316 C   0  0  0  0  0  0  0  0  0  0  0  0
    7.2736  -12.1900   27.3517 C   0  0  0  0  0  0  0  0  0  0  0  0
    8.0532  -11.6908   26.3483 C   0  0  0  0  0  0  0  0  0  0  0  0
    8.0809  -12.3044   25.1170 C   0  0  0  0  0  0  0  0  0  0  0  0
    8.9738  -15.7463   24.5079 C   0  0  0  0  0  0  0  0  0  0  0  0
    8.1939  -16.6955   24.7453 O   0  0  0  0  0  0  0  0  0  0  0  0
   10.0925  -15.6057   25.3468 N   0  0  0  0  0  0  0  0  0  0  0  0
   10.4632  -16.5774   26.3736 C   0  0  1  0  0  0  0  0  0  0  0  0
   11.9079  -16.9170   26.3871 C   0  0  0  0  0  0  0  0  0  0  0  0
   12.3814  -17.4183   25.1021 C   0  0  0  0  0  0  0  0  0  0  0  0
   13.5123  -16.9919   24.6937 O   0  0  0  0  0  0  0  0  0  0  0  0
   10.0087  -16.1012   27.7102 C   0  0  0  0  0  0  0  0  0  0  0  0
    9.4641  -14.8403   27.9194 O   0  0  0  0  0  0  0  0  0  0  0  0
   11.7057  -18.3123   24.3045 O   0  0  0  0  0  0  0  0  0  0  0  0
   10.1059  -16.8399   28.7151 O   0  0  0  0  0  0  0  0  0  0  0  0
  2  1  1  0
  3  2  2  0
  4  3  1  0
  5  4  2  0
  5 11  1  0
  6  5  1  0
  7  9  1  0
  7  6  1  0
  7  8  1  6
  9 10  2  0
 11 12  2  0
 12  2  1  0
 13 14  1  0
 13  9  1  0
 14 15  1  1
 16 21  1  0
 16 15  1  0
 17 16  2  0
 18 19  2  0
 18 17  1  0
 19 20  1  0
 20 21  2  0
 22 14  1  0
 23 22  2  0
 24 22  1  0
 25 29  1  0
 25 24  1  0
 25 26  1  1
 27 26  1  0
 28 27  2  0
 29 30  1  0
 31 27  1  0
 32 29  2  0
M  END
$$$$
