YFD.pdb
     RDKit          3D

 32 33  0  0  1  0  0  0  0  0999 V2000
    7.3531  -12.8941   15.1729 O   0  0  0  0  0  0  0  0  0  0  0  0
    7.5999  -13.4520   16.4199 C   0  0  0  0  0  0  0  0  0  0  0  0
    7.6748  -12.6258   17.5154 C   0  0  0  0  0  0  0  0  0  0  0  0
    7.9188  -13.1918   18.7560 C   0  0  0  0  0  0  0  0  0  0  0  0
    8.0894  -14.5373   18.9376 C   0  0  0  0  0  0  0  0  0  0  0  0
    8.3656  -15.1050   20.2794 C   0  0  0  0  0  0  0  0  0  0  0  0
    9.3802  -14.2949   21.0011 C   0  0  2  0  0  0  0  0  0  0  0  0
   10.6209  -14.2188   20.2535 N   0  0  0  0  0  0  0  0  0  0  0  0
    9.6383  -14.7009   22.4063 C   0  0  0  0  0  0  0  0  0  0  0  0
   10.7745  -14.9706   22.8268 O   0  0  0  0  0  0  0  0  0  0  0  0
    8.0187  -15.3778   17.8586 C   0  0  0  0  0  0  0  0  0  0  0  0
    7.7716  -14.8285   16.5955 C   0  0  0  0  0  0  0  0  0  0  0  0
    8.5336  -14.7850   23.3075 N   0  0  0  0  0  0  0  0  0  0  0  0
    8.6281  -15.0789   24.6993 C   0  0  1  0  0  0  0  0  0  0  0  0
    7.2759  -14.8969   25.3377 C   0  0  0  0  0  0  0  0  0  0  0  0
    7.1424  -13.5110   25.8479 C   0  0  0  0  0  0  0  0  0  0  0  0
    8.2686  -12.7488   26.0787 C   0  0  0  0  0  0  0  0  0  0  0  0
    8.1703  -11.4494   26.5596 C   0  0  0  0  0  0  0  0  0  0  0  0
    6.9220  -10.9103   26.8081 C   0  0  0  0  0  0  0  0  0  0  0  0
    5.8012  -11.6565   26.5825 C   0  0  0  0  0  0  0  0  0  0  0  0
    5.9057  -12.9439   26.1084 C   0  0  0  0  0  0  0  0  0  0  0  0
    9.2474  -16.3987   24.9959 C   0  0  0  0  0  0  0  0  0  0  0  0
    9.3474  -16.7322   26.1978 O   0  0  0  0  0  0  0  0  0  0  0  0
    9.7360  -17.2995   24.0342 N   0  0  0  0  0  0  0  0  0  0  0  0
   10.3764  -18.5708   24.3653 C   0  0  1  0  0  0  0  0  0  0  0  0
   10.5696  -19.4689   23.1998 C   0  0  0  0  0  0  0  0  0  0  0  0
   11.2384  -20.7157   23.5533 C   0  0  0  0  0  0  0  0  0  0  0  0
   10.9604  -21.2212   24.6912 O   0  0  0  0  0  0  0  0  0  0  0  0
   11.6637  -18.3210   25.0727 C   0  0  0  0  0  0  0  0  0  0  0  0
   12.0046  -18.9445   26.2666 O   0  0  0  0  0  0  0  0  0  0  0  0
   12.1383  -21.3839   22.7561 O   0  0  0  0  0  0  0  0  0  0  0  0
   12.5019  -17.5197   24.6034 O   0  0  0  0  0  0  0  0  0  0  0  0
  2  1  1  0
  3  2  2  0
  4  3  1  0
  5  4  2  0
  5 11  1  0
  6  5  1  0
  7  9  1  0
  7  6  1  0
  7  8  1  6
  9 10  2  0
 11 12  2  0
 12  2  1  0
 13 14  1  0
 13  9  1  0
 14 15  1  6
 16 21  1  0
 16 15  1  0
 17 16  2  0
 18 19  2  0
 18 17  1  0
 19 20  1  0
 20 21  2  0
 22 14  1  0
 23 22  2  0
 24 22  1  0
 25 29  1  0
 25 24  1  0
 25 26  1  6
 27 26  1  0
 28 27  2  0
 29 30  1  0
 31 27  1  0
 32 29  2  0
M  END
$$$$
