YFD.pdb
     RDKit          3D

 32 33  0  0  1  0  0  0  0  0999 V2000
    4.2077  -19.2161   22.4505 O   0  0  0  0  0  0  0  0  0  0  0  0
    4.9742  -18.2431   21.8235 C   0  0  0  0  0  0  0  0  0  0  0  0
    6.3439  -18.3422   21.8710 C   0  0  0  0  0  0  0  0  0  0  0  0
    7.1005  -17.3681   21.2403 C   0  0  0  0  0  0  0  0  0  0  0  0
    6.5431  -16.3113   20.5733 C   0  0  0  0  0  0  0  0  0  0  0  0
    7.3861  -15.2785   19.9240 C   0  0  0  0  0  0  0  0  0  0  0  0
    7.7229  -14.1903   20.8774 C   0  0  2  0  0  0  0  0  0  0  0  0
    8.4629  -13.1283   20.2228 N   0  0  0  0  0  0  0  0  0  0  0  0
    8.4126  -14.6219   22.1200 C   0  0  0  0  0  0  0  0  0  0  0  0
    9.6490  -14.6387   22.2274 O   0  0  0  0  0  0  0  0  0  0  0  0
    5.1798  -16.1942   20.5146 C   0  0  0  0  0  0  0  0  0  0  0  0
    4.3951  -17.1675   21.1433 C   0  0  0  0  0  0  0  0  0  0  0  0
    7.6198  -15.0350   23.2337 N   0  0  0  0  0  0  0  0  0  0  0  0
    8.0877  -15.1619   24.5744 C   0  0  1  0  0  0  0  0  0  0  0  0
    6.9304  -14.9864   25.5224 C   0  0  0  0  0  0  0  0  0  0  0  0
    6.8416  -13.5699   25.9519 C   0  0  0  0  0  0  0  0  0  0  0  0
    7.8536  -12.6877   25.6353 C   0  0  0  0  0  0  0  0  0  0  0  0
    7.7955  -11.3569   26.0289 C   0  0  0  0  0  0  0  0  0  0  0  0
    6.7032  -10.9086   26.7476 C   0  0  0  0  0  0  0  0  0  0  0  0
    5.6962  -11.7739   27.0655 C   0  0  0  0  0  0  0  0  0  0  0  0
    5.7610  -13.0916   26.6747 C   0  0  0  0  0  0  0  0  0  0  0  0
    8.8721  -16.4011   24.8242 C   0  0  0  0  0  0  0  0  0  0  0  0
    8.8965  -16.8424   25.9948 O   0  0  0  0  0  0  0  0  0  0  0  0
    9.5944  -17.1134   23.8516 N   0  0  0  0  0  0  0  0  0  0  0  0
   10.3223  -18.3505   24.1265 C   0  0  1  0  0  0  0  0  0  0  0  0
   10.6681  -19.1281   22.9107 C   0  0  0  0  0  0  0  0  0  0  0  0
   11.5510  -18.3992   22.0072 C   0  0  0  0  0  0  0  0  0  0  0  0
   11.9544  -17.2512   22.3906 O   0  0  0  0  0  0  0  0  0  0  0  0
   11.5347  -18.0553   24.9407 C   0  0  0  0  0  0  0  0  0  0  0  0
   11.8812  -16.7718   25.3443 O   0  0  0  0  0  0  0  0  0  0  0  0
   11.9801  -18.8550   20.7825 O   0  0  0  0  0  0  0  0  0  0  0  0
   12.3016  -18.9773   25.2963 O   0  0  0  0  0  0  0  0  0  0  0  0
  2  1  1  0
  3  2  2  0
  4  3  1  0
  5  4  2  0
  5 11  1  0
  6  5  1  0
  7  9  1  0
  7  6  1  0
  7  8  1  6
  9 10  2  0
 11 12  2  0
 12  2  1  0
 13 14  1  0
 13  9  1  0
 14 15  1  1
 16 21  1  0
 16 15  1  0
 17 16  2  0
 18 19  2  0
 18 17  1  0
 19 20  1  0
 20 21  2  0
 22 14  1  0
 23 22  2  0
 24 22  1  0
 25 29  1  0
 25 24  1  0
 25 26  1  6
 27 26  1  0
 28 27  2  0
 29 30  1  0
 31 27  1  0
 32 29  2  0
M  END
$$$$
