LLE.pdb
     RDKit          3D

 26 25  0  0  1  0  0  0  0  0999 V2000
    7.7833  -11.7156   19.2784 C   0  0  0  0  0  0  0  0  0  0  0  0
    7.8509  -13.1754   19.6762 C   0  0  1  0  0  0  0  0  0  0  0  0
    8.3668  -14.0380   18.5589 C   0  0  0  0  0  0  0  0  0  0  0  0
    8.7479  -13.3815   20.8786 C   0  0  0  0  0  0  0  0  0  0  0  0
    8.4514  -14.7531   21.4320 C   0  0  2  0  0  0  0  0  0  0  0  0
    7.0788  -15.0916   21.2285 N   0  0  0  0  0  0  0  0  0  0  0  0
    8.8671  -14.8554   22.8727 C   0  0  0  0  0  0  0  0  0  0  0  0
   10.0947  -14.8349   23.0768 O   0  0  0  0  0  0  0  0  0  0  0  0
    8.4827  -12.3653   26.3924 C   0  0  0  0  0  0  0  0  0  0  0  0
    7.1459  -12.9497   25.9061 C   0  0  2  0  0  0  0  0  0  0  0  0
    6.0150  -12.1925   26.5272 C   0  0  0  0  0  0  0  0  0  0  0  0
    7.1026  -14.4322   26.1972 C   0  0  0  0  0  0  0  0  0  0  0  0
    8.1512  -15.0953   25.3174 C   0  0  2  0  0  0  0  0  0  0  0  0
    7.9310  -14.9665   23.9196 N   0  0  0  0  0  0  0  0  0  0  0  0
    8.5943  -16.4082   25.7729 C   0  0  0  0  0  0  0  0  0  0  0  0
    7.7724  -17.3747   25.9489 O   0  0  0  0  0  0  0  0  0  0  0  0
    9.9434  -16.7267   26.0553 N   0  0  0  0  0  0  0  0  0  0  0  0
   10.4051  -18.0788   26.3525 C   0  0  1  0  0  0  0  0  0  0  0  0
   11.6010  -18.4197   25.5370 C   0  0  0  0  0  0  0  0  0  0  0  0
   12.1011  -19.7915   25.8646 C   0  0  0  0  0  0  0  0  0  0  0  0
   13.2890  -20.2299   25.1134 C   0  0  0  0  0  0  0  0  0  0  0  0
   13.9632  -21.2053   25.5173 O   0  0  0  0  0  0  0  0  0  0  0  0
   10.6131  -18.2659   27.8042 C   0  0  0  0  0  0  0  0  0  0  0  0
   10.5518  -19.5330   28.3265 O   0  0  0  0  0  0  0  0  0  0  0  0
   13.6834  -19.5593   23.9314 O   0  0  0  0  0  0  0  0  0  0  0  0
   10.8390  -17.2862   28.5295 O   0  0  0  0  0  0  0  0  0  0  0  0
  2  1  1  6
  3  2  1  0
  4  2  1  0
  5  4  1  0
  5  6  1  1
  7  8  2  0
  7  5  1  0
 10 11  1  1
 10  9  1  0
 12 10  1  0
 13 12  1  1
 13 14  1  0
 14  7  1  0
 15 13  1  0
 16 15  2  0
 17 15  1  0
 18 17  1  0
 19 20  1  0
 18 19  1  6
 20 21  1  0
 21 22  2  0
 21 25  1  0
 23 18  1  0
 23 24  1  0
 26 23  2  0
M  END
$$$$
