LLE.pdb
     RDKit          3D

 26 25  0  0  1  0  0  0  0  0999 V2000
    7.4127  -12.6093   18.3940 C   0  0  0  0  0  0  0  0  0  0  0  0
    7.6509  -13.8578   19.2175 C   0  0  1  0  0  0  0  0  0  0  0  0
    8.2889  -14.9510   18.4073 C   0  0  0  0  0  0  0  0  0  0  0  0
    8.5441  -13.5753   20.4072 C   0  0  0  0  0  0  0  0  0  0  0  0
    8.5556  -14.8152   21.2662 C   0  0  2  0  0  0  0  0  0  0  0  0
    7.2265  -15.2943   21.4758 N   0  0  0  0  0  0  0  0  0  0  0  0
    9.2953  -14.5741   22.5522 C   0  0  0  0  0  0  0  0  0  0  0  0
   10.5359  -14.6367   22.4742 O   0  0  0  0  0  0  0  0  0  0  0  0
    5.8751  -12.9597   26.0082 C   0  0  0  0  0  0  0  0  0  0  0  0
    7.2027  -13.6061   26.4379 C   0  0  2  0  0  0  0  0  0  0  0  0
    7.2881  -13.6249   27.9314 C   0  0  0  0  0  0  0  0  0  0  0  0
    8.3567  -12.8819   25.7832 C   0  0  0  0  0  0  0  0  0  0  0  0
    9.1671  -13.9200   25.0225 C   0  0  2  0  0  0  0  0  0  0  0  0
    8.6295  -14.2961   23.7622 N   0  0  0  0  0  0  0  0  0  0  0  0
    9.6935  -15.0078   25.8393 C   0  0  0  0  0  0  0  0  0  0  0  0
    9.8816  -14.8759   27.0994 O   0  0  0  0  0  0  0  0  0  0  0  0
   10.0363  -16.2803   25.3251 N   0  0  0  0  0  0  0  0  0  0  0  0
   10.5612  -17.3653   26.1479 C   0  0  1  0  0  0  0  0  0  0  0  0
    9.6007  -17.7229   27.2254 C   0  0  0  0  0  0  0  0  0  0  0  0
    8.4787  -18.5558   26.6898 C   0  0  0  0  0  0  0  0  0  0  0  0
    7.8881  -19.5118   27.6410 C   0  0  0  0  0  0  0  0  0  0  0  0
    6.6594  -19.4799   27.8829 O   0  0  0  0  0  0  0  0  0  0  0  0
   10.9658  -18.5192   25.3169 C   0  0  0  0  0  0  0  0  0  0  0  0
   11.7108  -19.5201   25.8872 O   0  0  0  0  0  0  0  0  0  0  0  0
    8.6956  -20.4745   28.2918 O   0  0  0  0  0  0  0  0  0  0  0  0
   10.6316  -18.5718   24.1243 O   0  0  0  0  0  0  0  0  0  0  0  0
  2  1  1  6
  3  2  1  0
  4  2  1  0
  5  4  1  0
  5  6  1  1
  7  8  2  0
  7  5  1  0
 10 11  1  1
 10  9  1  0
 12 10  1  0
 13 12  1  1
 13 14  1  0
 14  7  1  0
 15 13  1  0
 16 15  2  0
 17 15  1  0
 18 17  1  0
 19 20  1  0
 18 19  1  1
 20 21  1  0
 21 22  2  0
 21 25  1  0
 23 18  1  0
 23 24  1  0
 26 23  2  0
M  END
$$$$
