LLE.pdb
     RDKit          3D

 26 25  0  0  1  0  0  0  0  0999 V2000
    6.7757  -14.5457   18.4145 C   0  0  0  0  0  0  0  0  0  0  0  0
    8.1051  -14.2961   19.0959 C   0  0  1  0  0  0  0  0  0  0  0  0
    8.5741  -12.8806   18.9093 C   0  0  0  0  0  0  0  0  0  0  0  0
    8.0262  -14.5704   20.5829 C   0  0  0  0  0  0  0  0  0  0  0  0
    9.3832  -14.2701   21.1690 C   0  0  2  0  0  0  0  0  0  0  0  0
   10.3920  -15.0528   20.5289 N   0  0  0  0  0  0  0  0  0  0  0  0
    9.3762  -14.4411   22.6623 C   0  0  0  0  0  0  0  0  0  0  0  0
   10.3927  -14.9744   23.1432 O   0  0  0  0  0  0  0  0  0  0  0  0
    5.7612  -12.6947   27.5226 C   0  0  0  0  0  0  0  0  0  0  0  0
    7.0546  -13.2619   26.9140 C   0  0  2  0  0  0  0  0  0  0  0  0
    8.2227  -12.4528   27.3819 C   0  0  0  0  0  0  0  0  0  0  0  0
    6.9289  -13.3134   25.4087 C   0  0  0  0  0  0  0  0  0  0  0  0
    8.1656  -14.0213   24.8769 C   0  0  2  0  0  0  0  0  0  0  0  0
    8.2932  -14.0257   23.4618 N   0  0  0  0  0  0  0  0  0  0  0  0
    8.4930  -15.2739   25.5487 C   0  0  0  0  0  0  0  0  0  0  0  0
    8.2479  -15.4571   26.7925 O   0  0  0  0  0  0  0  0  0  0  0  0
    9.0979  -16.3768   24.9014 N   0  0  0  0  0  0  0  0  0  0  0  0
    9.4462  -17.6182   25.5849 C   0  0  1  0  0  0  0  0  0  0  0  0
   10.1283  -18.5586   24.6566 C   0  0  0  0  0  0  0  0  0  0  0  0
    9.4737  -18.5539   23.3108 C   0  0  0  0  0  0  0  0  0  0  0  0
   10.1031  -19.4153   22.2962 C   0  0  0  0  0  0  0  0  0  0  0  0
   10.6782  -20.4738   22.6398 O   0  0  0  0  0  0  0  0  0  0  0  0
   10.2159  -17.3516   26.8188 C   0  0  0  0  0  0  0  0  0  0  0  0
   10.6242  -16.0688   27.0831 O   0  0  0  0  0  0  0  0  0  0  0  0
   10.0672  -19.0617   20.9265 O   0  0  0  0  0  0  0  0  0  0  0  0
   10.4827  -18.2799   27.5959 O   0  0  0  0  0  0  0  0  0  0  0  0
  2  1  1  1
  3  2  1  0
  4  2  1  0
  5  4  1  0
  5  6  1  6
  7  8  2  0
  7  5  1  0
 10 11  1  6
 10  9  1  0
 12 10  1  0
 13 12  1  6
 13 14  1  0
 14  7  1  0
 15 13  1  0
 16 15  2  0
 17 15  1  0
 18 17  1  0
 19 20  1  0
 18 19  1  6
 20 21  1  0
 21 22  2  0
 21 25  1  0
 23 18  1  0
 23 24  1  0
 26 23  2  0
M  END
$$$$
