LLE.pdb
     RDKit          3D

 26 25  0  0  1  0  0  0  0  0999 V2000
    7.6430  -11.7168   18.8793 C   0  0  0  0  0  0  0  0  0  0  0  0
    7.6519  -13.1383   19.4018 C   0  0  1  0  0  0  0  0  0  0  0  0
    8.3290  -14.0822   18.4484 C   0  0  0  0  0  0  0  0  0  0  0  0
    8.3602  -13.2339   20.7367 C   0  0  0  0  0  0  0  0  0  0  0  0
    8.2122  -14.6536   21.2245 C   0  0  2  0  0  0  0  0  0  0  0  0
    6.8664  -15.1035   21.0621 N   0  0  0  0  0  0  0  0  0  0  0  0
    8.7043  -14.7929   22.6378 C   0  0  0  0  0  0  0  0  0  0  0  0
    9.9412  -14.8298   22.7711 O   0  0  0  0  0  0  0  0  0  0  0  0
    8.0572  -12.2486   26.2904 C   0  0  0  0  0  0  0  0  0  0  0  0
    6.8221  -13.0216   25.7985 C   0  0  2  0  0  0  0  0  0  0  0  0
    5.5943  -12.4656   26.4478 C   0  0  0  0  0  0  0  0  0  0  0  0
    7.0132  -14.4996   26.0504 C   0  0  0  0  0  0  0  0  0  0  0  0
    8.1198  -14.9758   25.1220 C   0  0  2  0  0  0  0  0  0  0  0  0
    7.8254  -14.8756   23.7356 N   0  0  0  0  0  0  0  0  0  0  0  0
    8.7898  -16.2013   25.5427 C   0  0  0  0  0  0  0  0  0  0  0  0
    8.1412  -17.2831   25.7655 O   0  0  0  0  0  0  0  0  0  0  0  0
   10.1871  -16.3042   25.7384 N   0  0  0  0  0  0  0  0  0  0  0  0
   10.8783  -17.5723   25.9480 C   0  0  1  0  0  0  0  0  0  0  0  0
   12.1737  -17.5945   25.2180 C   0  0  0  0  0  0  0  0  0  0  0  0
   12.9339  -18.8496   25.5115 C   0  0  0  0  0  0  0  0  0  0  0  0
   14.2391  -18.9722   24.8413 C   0  0  0  0  0  0  0  0  0  0  0  0
   14.9667  -19.9681   25.0600 O   0  0  0  0  0  0  0  0  0  0  0  0
   11.0122  -17.8766   27.3886 C   0  0  0  0  0  0  0  0  0  0  0  0
   10.9198  -16.8515   28.2957 O   0  0  0  0  0  0  0  0  0  0  0  0
   14.6872  -17.9723   23.9459 O   0  0  0  0  0  0  0  0  0  0  0  0
   11.2048  -19.0434   27.7605 O   0  0  0  0  0  0  0  0  0  0  0  0
  2  1  1  6
  3  2  1  0
  4  2  1  0
  5  4  1  0
  5  6  1  1
  7  8  2  0
  7  5  1  0
 10 11  1  1
 10  9  1  0
 12 10  1  0
 13 12  1  1
 13 14  1  0
 14  7  1  0
 15 13  1  0
 16 15  2  0
 17 15  1  0
 18 17  1  0
 19 20  1  0
 18 19  1  1
 20 21  1  0
 21 22  2  0
 21 25  1  0
 23 18  1  0
 23 24  1  0
 26 23  2  0
M  END
$$$$
