LLE.pdb
     RDKit          3D

 26 25  0  0  1  0  0  0  0  0999 V2000
    5.4256  -11.4695   26.5182 C   0  0  0  0  0  0  0  0  0  0  0  0
    6.6101  -12.4059   26.4016 C   0  0  1  0  0  0  0  0  0  0  0  0
    7.3195  -12.5795   27.7151 C   0  0  0  0  0  0  0  0  0  0  0  0
    6.1882  -13.7757   25.9134 C   0  0  0  0  0  0  0  0  0  0  0  0
    7.4450  -14.5691   25.6562 C   0  0  2  0  0  0  0  0  0  0  0  0
    8.5973  -13.7303   25.7488 N   0  0  0  0  0  0  0  0  0  0  0  0
    7.3631  -15.3002   24.3455 C   0  0  0  0  0  0  0  0  0  0  0  0
    6.4760  -16.1702   24.2741 O   0  0  0  0  0  0  0  0  0  0  0  0
    6.3970  -13.7158   20.8463 C   0  0  0  0  0  0  0  0  0  0  0  0
    7.9094  -13.5897   21.0946 C   0  0  2  0  0  0  0  0  0  0  0  0
    8.4577  -12.4653   20.2740 C   0  0  0  0  0  0  0  0  0  0  0  0
    8.5828  -14.9142   20.8176 C   0  0  0  0  0  0  0  0  0  0  0  0
    8.4580  -15.7558   22.0783 C   0  0  2  0  0  0  0  0  0  0  0  0
    8.2311  -15.0193   23.2720 N   0  0  0  0  0  0  0  0  0  0  0  0
    9.4122  -16.8543   22.1807 C   0  0  0  0  0  0  0  0  0  0  0  0
    9.7564  -17.5470   21.1597 O   0  0  0  0  0  0  0  0  0  0  0  0
   10.0311  -17.2459   23.3910 N   0  0  0  0  0  0  0  0  0  0  0  0
   11.3260  -17.9162   23.4517 C   0  0  1  0  0  0  0  0  0  0  0  0
   12.4287  -16.9620   23.1605 C   0  0  0  0  0  0  0  0  0  0  0  0
   13.4473  -17.5789   22.2542 C   0  0  0  0  0  0  0  0  0  0  0  0
   14.6246  -16.7446   21.9619 C   0  0  0  0  0  0  0  0  0  0  0  0
   15.6408  -16.8143   22.6909 O   0  0  0  0  0  0  0  0  0  0  0  0
   11.4964  -18.6355   24.7321 C   0  0  0  0  0  0  0  0  0  0  0  0
   10.8943  -18.1370   25.8596 O   0  0  0  0  0  0  0  0  0  0  0  0
   14.6245  -15.8571   20.8597 O   0  0  0  0  0  0  0  0  0  0  0  0
   12.1747  -19.6723   24.7753 O   0  0  0  0  0  0  0  0  0  0  0  0
  2  1  1  1
  3  2  1  0
  4  2  1  0
  5  4  1  0
  5  6  1  6
  7  8  2  0
  7  5  1  0
 10 11  1  6
 10  9  1  0
 12 10  1  0
 13 12  1  6
 13 14  1  0
 14  7  1  0
 15 13  1  0
 16 15  2  0
 17 15  1  0
 18 17  1  0
 19 20  1  0
 18 19  1  1
 20 21  1  0
 21 22  2  0
 21 25  1  0
 23 18  1  0
 23 24  1  0
 26 23  2  0
M  END
$$$$
