LLE.pdb
     RDKit          3D

 26 25  0  0  1  0  0  0  0  0999 V2000
    7.6699  -12.0973   18.6906 C   0  0  0  0  0  0  0  0  0  0  0  0
    7.8230  -13.4538   19.3464 C   0  0  1  0  0  0  0  0  0  0  0  0
    8.7028  -14.3695   18.5427 C   0  0  0  0  0  0  0  0  0  0  0  0
    8.4160  -13.3349   20.7346 C   0  0  0  0  0  0  0  0  0  0  0  0
    8.3281  -14.6954   21.3801 C   0  0  2  0  0  0  0  0  0  0  0  0
    7.0242  -15.2517   21.2056 N   0  0  0  0  0  0  0  0  0  0  0  0
    8.7459  -14.6365   22.8227 C   0  0  0  0  0  0  0  0  0  0  0  0
    9.9498  -14.3900   23.0201 O   0  0  0  0  0  0  0  0  0  0  0  0
    8.0948  -12.2008   26.3865 C   0  0  0  0  0  0  0  0  0  0  0  0
    6.8488  -12.9429   25.8747 C   0  0  2  0  0  0  0  0  0  0  0  0
    5.6221  -12.3287   26.4712 C   0  0  0  0  0  0  0  0  0  0  0  0
    6.9798  -14.4198   26.1680 C   0  0  0  0  0  0  0  0  0  0  0  0
    8.0836  -14.9612   25.2726 C   0  0  2  0  0  0  0  0  0  0  0  0
    7.8366  -14.8457   23.8782 N   0  0  0  0  0  0  0  0  0  0  0  0
    8.6679  -16.2233   25.7124 C   0  0  0  0  0  0  0  0  0  0  0  0
    7.9877  -17.3082   25.7421 O   0  0  0  0  0  0  0  0  0  0  0  0
   10.0104  -16.3609   26.1366 N   0  0  0  0  0  0  0  0  0  0  0  0
   10.6539  -17.6510   26.3630 C   0  0  1  0  0  0  0  0  0  0  0  0
   11.9631  -17.7184   25.6610 C   0  0  0  0  0  0  0  0  0  0  0  0
   12.6635  -19.0081   25.9537 C   0  0  0  0  0  0  0  0  0  0  0  0
   13.9872  -19.1671   25.3291 C   0  0  0  0  0  0  0  0  0  0  0  0
   14.4889  -18.2262   24.6717 O   0  0  0  0  0  0  0  0  0  0  0  0
   10.7466  -17.9564   27.8065 C   0  0  0  0  0  0  0  0  0  0  0  0
   11.1225  -19.2170   28.1963 O   0  0  0  0  0  0  0  0  0  0  0  0
   14.7071  -20.3781   25.4620 O   0  0  0  0  0  0  0  0  0  0  0  0
   10.4868  -17.0797   28.6437 O   0  0  0  0  0  0  0  0  0  0  0  0
  2  1  1  6
  3  2  1  0
  4  2  1  0
  5  4  1  0
  5  6  1  1
  7  8  2  0
  7  5  1  0
 10 11  1  1
 10  9  1  0
 12 10  1  0
 13 12  1  1
 13 14  1  0
 14  7  1  0
 15 13  1  0
 16 15  2  0
 17 15  1  0
 18 17  1  0
 19 20  1  0
 18 19  1  1
 20 21  1  0
 21 22  2  0
 21 25  1  0
 23 18  1  0
 23 24  1  0
 26 23  2  0
M  END
$$$$
