CPL.pdb
     RDKit          3D

 22 22  0  0  1  0  0  0  0  0999 V2000
    8.3418  -12.8910   18.3624 N   0  0  0  0  0  0  0  0  0  0  0  0
    8.9923  -13.9776   19.0150 C   0  0  1  0  0  0  0  0  0  0  0  0
   10.4354  -13.5711   19.3075 C   0  0  0  0  0  0  0  0  0  0  0  0
   11.3791  -13.7333   17.7502 S   0  0  0  0  0  0  0  0  0  0  0  0
    8.3571  -14.4641   20.2426 C   0  0  0  0  0  0  0  0  0  0  0  0
    7.8582  -13.5952   21.0399 O   0  0  0  0  0  0  0  0  0  0  0  0
    8.2414  -15.8258   20.6373 N   0  0  0  0  0  0  0  0  0  0  0  0
    8.6212  -16.9449   19.7933 C   0  0  0  0  0  0  0  0  0  0  0  0
    8.0353  -18.1384   20.5162 C   0  0  0  0  0  0  0  0  0  0  0  0
    8.1634  -17.7619   21.9516 C   0  0  0  0  0  0  0  0  0  0  0  0
    7.7439  -16.2839   21.9212 C   0  0  1  0  0  0  0  0  0  0  0  0
    8.5293  -15.6729   23.0502 C   0  0  0  0  0  0  0  0  0  0  0  0
    9.7425  -15.4386   22.8483 O   0  0  0  0  0  0  0  0  0  0  0  0
    5.9872  -12.3219   25.5793 C   0  0  0  0  0  0  0  0  0  0  0  0
    7.0521  -13.0527   26.3549 C   0  0  2  0  0  0  0  0  0  0  0  0
    7.2708  -12.4688   27.7345 C   0  0  0  0  0  0  0  0  0  0  0  0
    8.2854  -13.3417   25.5939 C   0  0  0  0  0  0  0  0  0  0  0  0
    8.6941  -14.7439   25.3902 C   0  0  2  0  0  0  0  0  0  0  0  0
    7.9743  -15.3610   24.2918 N   0  0  0  0  0  0  0  0  0  0  0  0
    8.6740  -15.6113   26.5619 C   0  0  0  0  0  0  0  0  0  0  0  0
    9.5570  -15.5175   27.6262 O   0  0  0  0  0  0  0  0  0  0  0  0
    7.8126  -16.5202   26.6528 O   0  0  0  0  0  0  0  0  0  0  0  0
  2  1  1  1
  3  4  1  0
  3  2  1  0
  5  6  2  0
  5  2  1  0
  7  5  1  0
  8  7  1  0
  9 10  1  0
  9  8  1  0
 10 11  1  0
 11  7  1  0
 11 12  1  1
 12 19  1  0
 13 12  2  0
 15 14  1  6
 16 15  1  0
 17 15  1  0
 18 20  1  0
 18 17  1  1
 19 18  1  0
 20 21  1  0
 22 20  2  0
M  END
$$$$
