CPL.pdb
     RDKit          3D

 22 22  0  0  1  0  0  0  0  0999 V2000
    6.5654  -16.1694   18.3560 N   0  0  0  0  0  0  0  0  0  0  0  0
    7.6035  -15.5330   19.0957 C   0  0  1  0  0  0  0  0  0  0  0  0
    7.4011  -14.0214   19.0092 C   0  0  0  0  0  0  0  0  0  0  0  0
    8.7494  -13.2305   19.9570 S   0  0  0  0  0  0  0  0  0  0  0  0
    7.7331  -15.9351   20.4989 C   0  0  0  0  0  0  0  0  0  0  0  0
    6.7978  -15.5953   21.3046 O   0  0  0  0  0  0  0  0  0  0  0  0
    8.8121  -16.6751   21.0570 N   0  0  0  0  0  0  0  0  0  0  0  0
    9.9156  -17.2049   20.2757 C   0  0  0  0  0  0  0  0  0  0  0  0
   10.6061  -18.1422   21.2427 C   0  0  0  0  0  0  0  0  0  0  0  0
   10.4260  -17.4658   22.5575 C   0  0  0  0  0  0  0  0  0  0  0  0
    8.9666  -16.9939   22.4641 C   0  0  1  0  0  0  0  0  0  0  0  0
    8.9474  -15.7445   23.3028 C   0  0  0  0  0  0  0  0  0  0  0  0
    9.4831  -14.7195   22.8231 O   0  0  0  0  0  0  0  0  0  0  0  0
    7.9875  -12.3850   27.3187 C   0  0  0  0  0  0  0  0  0  0  0  0
    7.0188  -12.5093   26.1716 C   0  0  2  0  0  0  0  0  0  0  0  0
    5.6052  -12.1319   26.5606 C   0  0  0  0  0  0  0  0  0  0  0  0
    7.1417  -13.7564   25.3885 C   0  0  0  0  0  0  0  0  0  0  0  0
    8.4041  -14.5170   25.4390 C   0  0  2  0  0  0  0  0  0  0  0  0
    8.3685  -15.6789   24.5707 N   0  0  0  0  0  0  0  0  0  0  0  0
    8.8971  -14.8855   26.7608 C   0  0  0  0  0  0  0  0  0  0  0  0
    9.9379  -14.2491   27.4186 O   0  0  0  0  0  0  0  0  0  0  0  0
    8.3695  -15.8410   27.3813 O   0  0  0  0  0  0  0  0  0  0  0  0
  2  1  1  1
  3  4  1  0
  3  2  1  0
  5  6  2  0
  5  2  1  0
  7  5  1  0
  8  7  1  0
  9 10  1  0
  9  8  1  0
 10 11  1  0
 11  7  1  0
 11 12  1  1
 12 19  1  0
 13 12  2  0
 15 14  1  1
 16 15  1  0
 17 15  1  0
 18 20  1  0
 18 17  1  1
 19 18  1  0
 20 21  1  0
 22 20  2  0
M  END
$$$$
