CPL.pdb
     RDKit          3D

 22 22  0  0  1  0  0  0  0  0999 V2000
    6.7938  -18.8575   19.8556 N   0  0  0  0  0  0  0  0  0  0  0  0
    6.3398  -17.6109   20.3753 C   0  0  1  0  0  0  0  0  0  0  0  0
    5.3280  -17.8902   21.4850 C   0  0  0  0  0  0  0  0  0  0  0  0
    4.4482  -16.3262   21.8339 S   0  0  0  0  0  0  0  0  0  0  0  0
    7.3787  -16.7036   20.8701 C   0  0  0  0  0  0  0  0  0  0  0  0
    8.1048  -17.1049   21.8453 O   0  0  0  0  0  0  0  0  0  0  0  0
    7.6595  -15.4042   20.3642 N   0  0  0  0  0  0  0  0  0  0  0  0
    7.1153  -14.8882   19.1206 C   0  0  0  0  0  0  0  0  0  0  0  0
    7.9299  -13.6358   18.8793 C   0  0  0  0  0  0  0  0  0  0  0  0
    8.1811  -13.1243   20.2554 C   0  0  0  0  0  0  0  0  0  0  0  0
    8.5086  -14.4215   21.0114 C   0  0  1  0  0  0  0  0  0  0  0  0
    8.0340  -14.1410   22.4117 C   0  0  0  0  0  0  0  0  0  0  0  0
    7.1768  -13.2406   22.5607 O   0  0  0  0  0  0  0  0  0  0  0  0
    5.4749  -13.1488   26.9965 C   0  0  0  0  0  0  0  0  0  0  0  0
    6.9280  -13.2691   26.6176 C   0  0  2  0  0  0  0  0  0  0  0  0
    7.7435  -12.0696   27.0516 C   0  0  0  0  0  0  0  0  0  0  0  0
    7.1722  -13.7254   25.2335 C   0  0  0  0  0  0  0  0  0  0  0  0
    8.4803  -14.3126   24.8889 C   0  0  2  0  0  0  0  0  0  0  0  0
    8.4993  -14.8287   23.5330 N   0  0  0  0  0  0  0  0  0  0  0  0
    9.0228  -15.2989   25.8156 C   0  0  0  0  0  0  0  0  0  0  0  0
    9.9435  -15.0192   26.8133 O   0  0  0  0  0  0  0  0  0  0  0  0
    8.6565  -16.4973   25.7388 O   0  0  0  0  0  0  0  0  0  0  0  0
  2  1  1  1
  3  4  1  0
  3  2  1  0
  5  6  2  0
  5  2  1  0
  7  5  1  0
  8  7  1  0
  9 10  1  0
  9  8  1  0
 10 11  1  0
 11  7  1  0
 11 12  1  1
 12 19  1  0
 13 12  2  0
 15 14  1  6
 16 15  1  0
 17 15  1  0
 18 20  1  0
 18 17  1  1
 19 18  1  0
 20 21  1  0
 22 20  2  0
M  END
$$$$
