CPL.pdb
     RDKit          3D

 22 22  0  0  1  0  0  0  0  0999 V2000
   10.9048  -17.9907   19.8552 N   0  0  0  0  0  0  0  0  0  0  0  0
    9.6411  -17.8080   20.4873 C   0  0  1  0  0  0  0  0  0  0  0  0
    9.3119  -19.0702   21.2822 C   0  0  0  0  0  0  0  0  0  0  0  0
    7.6837  -18.8136   22.0728 S   0  0  0  0  0  0  0  0  0  0  0  0
    9.5188  -16.6322   21.3533 C   0  0  0  0  0  0  0  0  0  0  0  0
   10.3198  -16.5392   22.3479 O   0  0  0  0  0  0  0  0  0  0  0  0
    8.5836  -15.5727   21.1920 N   0  0  0  0  0  0  0  0  0  0  0  0
    7.6131  -15.5111   20.1134 C   0  0  0  0  0  0  0  0  0  0  0  0
    7.0876  -14.0946   20.2008 C   0  0  0  0  0  0  0  0  0  0  0  0
    7.1124  -13.8133   21.6633 C   0  0  0  0  0  0  0  0  0  0  0  0
    8.4613  -14.4254   22.0721 C   0  0  1  0  0  0  0  0  0  0  0  0
    8.2323  -14.8616   23.4941 C   0  0  0  0  0  0  0  0  0  0  0  0
    8.3478  -16.0821   23.7487 O   0  0  0  0  0  0  0  0  0  0  0  0
    9.3572  -14.1413   28.6402 C   0  0  0  0  0  0  0  0  0  0  0  0
    9.9668  -14.9843   27.5505 C   0  0  2  0  0  0  0  0  0  0  0  0
   11.4552  -15.1890   27.7374 C   0  0  0  0  0  0  0  0  0  0  0  0
    9.5514  -14.6209   26.1798 C   0  0  0  0  0  0  0  0  0  0  0  0
    8.1536  -14.2210   25.9331 C   0  0  2  0  0  0  0  0  0  0  0  0
    7.9023  -13.9806   24.5244 N   0  0  0  0  0  0  0  0  0  0  0  0
    7.6326  -13.1218   26.7370 C   0  0  0  0  0  0  0  0  0  0  0  0
    8.0368  -11.8010   26.6210 O   0  0  0  0  0  0  0  0  0  0  0  0
    6.7550  -13.3440   27.6069 O   0  0  0  0  0  0  0  0  0  0  0  0
  2  1  1  1
  3  4  1  0
  3  2  1  0
  5  6  2  0
  5  2  1  0
  7  5  1  0
  8  7  1  0
  9 10  1  0
  9  8  1  0
 10 11  1  0
 11  7  1  0
 11 12  1  1
 12 19  1  0
 13 12  2  0
 15 14  1  1
 16 15  1  0
 17 15  1  0
 18 20  1  0
 18 17  1  6
 19 18  1  0
 20 21  1  0
 22 20  2  0
M  END
$$$$
