CPL.pdb
     RDKit          3D

 22 22  0  0  1  0  0  0  0  0999 V2000
    6.8567  -13.3507   18.9713 N   0  0  0  0  0  0  0  0  0  0  0  0
    7.8846  -14.0102   19.7051 C   0  0  1  0  0  0  0  0  0  0  0  0
    9.0147  -13.0135   19.9553 C   0  0  0  0  0  0  0  0  0  0  0  0
    9.8462  -12.7114   18.3555 S   0  0  0  0  0  0  0  0  0  0  0  0
    7.4777  -14.6248   20.9716 C   0  0  0  0  0  0  0  0  0  0  0  0
    6.9218  -13.8735   21.8468 O   0  0  0  0  0  0  0  0  0  0  0  0
    7.6444  -15.9925   21.3251 N   0  0  0  0  0  0  0  0  0  0  0  0
    8.1563  -17.0034   20.4168 C   0  0  0  0  0  0  0  0  0  0  0  0
    7.8568  -18.3001   21.1373 C   0  0  0  0  0  0  0  0  0  0  0  0
    8.0245  -17.9373   22.5721 C   0  0  0  0  0  0  0  0  0  0  0  0
    7.3403  -16.5623   22.6245 C   0  0  1  0  0  0  0  0  0  0  0  0
    8.0855  -15.8408   23.7148 C   0  0  0  0  0  0  0  0  0  0  0  0
    9.2423  -15.4390   23.4543 O   0  0  0  0  0  0  0  0  0  0  0  0
    7.6710  -11.8796   25.5554 C   0  0  0  0  0  0  0  0  0  0  0  0
    6.7692  -12.9655   26.0817 C   0  0  2  0  0  0  0  0  0  0  0  0
    5.5259  -12.4165   26.7488 C   0  0  0  0  0  0  0  0  0  0  0  0
    7.4599  -14.0373   26.8285 C   0  0  0  0  0  0  0  0  0  0  0  0
    8.2812  -15.0150   26.0908 C   0  0  2  0  0  0  0  0  0  0  0  0
    7.5529  -15.6036   24.9825 N   0  0  0  0  0  0  0  0  0  0  0  0
    8.9333  -16.0537   26.8792 C   0  0  0  0  0  0  0  0  0  0  0  0
    8.7316  -17.4145   26.7093 O   0  0  0  0  0  0  0  0  0  0  0  0
    9.7415  -15.7362   27.7859 O   0  0  0  0  0  0  0  0  0  0  0  0
  2  1  1  1
  3  4  1  0
  3  2  1  0
  5  6  2  0
  5  2  1  0
  7  5  1  0
  8  7  1  0
  9 10  1  0
  9  8  1  0
 10 11  1  0
 11  7  1  0
 11 12  1  1
 12 19  1  0
 13 12  2  0
 15 14  1  1
 16 15  1  0
 17 15  1  0
 18 20  1  0
 18 17  1  1
 19 18  1  0
 20 21  1  0
 22 20  2  0
M  END
$$$$
