CPL.pdb
     RDKit          3D

 22 22  0  0  1  0  0  0  0  0999 V2000
    7.6300  -12.8964   18.5842 N   0  0  0  0  0  0  0  0  0  0  0  0
    8.5911  -13.6625   19.3048 C   0  0  1  0  0  0  0  0  0  0  0  0
    9.8011  -12.7747   19.5895 C   0  0  0  0  0  0  0  0  0  0  0  0
   11.0900  -13.8271   20.3465 S   0  0  0  0  0  0  0  0  0  0  0  0
    8.1226  -14.2745   20.5511 C   0  0  0  0  0  0  0  0  0  0  0  0
    7.6411  -13.5007   21.4504 O   0  0  0  0  0  0  0  0  0  0  0  0
    8.1529  -15.6627   20.8601 N   0  0  0  0  0  0  0  0  0  0  0  0
    8.6772  -16.6771   19.9629 C   0  0  0  0  0  0  0  0  0  0  0  0
    8.2136  -17.9716   20.5950 C   0  0  0  0  0  0  0  0  0  0  0  0
    8.2639  -17.6739   22.0535 C   0  0  0  0  0  0  0  0  0  0  0  0
    7.6802  -16.2531   22.0985 C   0  0  1  0  0  0  0  0  0  0  0  0
    8.3640  -15.6301   23.2855 C   0  0  0  0  0  0  0  0  0  0  0  0
    9.5868  -15.3817   23.1819 O   0  0  0  0  0  0  0  0  0  0  0  0
    7.8222  -11.7332   25.4213 C   0  0  0  0  0  0  0  0  0  0  0  0
    6.8573  -12.8121   25.8393 C   0  0  2  0  0  0  0  0  0  0  0  0
    5.6395  -12.2601   26.5495 C   0  0  0  0  0  0  0  0  0  0  0  0
    7.4812  -13.9857   26.4852 C   0  0  0  0  0  0  0  0  0  0  0  0
    8.3587  -14.8640   25.6893 C   0  0  2  0  0  0  0  0  0  0  0  0
    7.7064  -15.3222   24.4770 N   0  0  0  0  0  0  0  0  0  0  0  0
    8.9762  -15.9845   26.3886 C   0  0  0  0  0  0  0  0  0  0  0  0
   10.0900  -15.8842   27.2074 O   0  0  0  0  0  0  0  0  0  0  0  0
    8.4964  -17.1384   26.2676 O   0  0  0  0  0  0  0  0  0  0  0  0
  2  1  1  1
  3  4  1  0
  3  2  1  0
  5  6  2  0
  5  2  1  0
  7  5  1  0
  8  7  1  0
  9 10  1  0
  9  8  1  0
 10 11  1  0
 11  7  1  0
 11 12  1  1
 12 19  1  0
 13 12  2  0
 15 14  1  1
 16 15  1  0
 17 15  1  0
 18 20  1  0
 18 17  1  1
 19 18  1  0
 20 21  1  0
 22 20  2  0
M  END
$$$$
