TAE.pdb
     RDKit          3D

 22 21  0  0  1  0  0  0  0  0999 V2000
   13.1757   -7.8701  -10.7352 C   0  0  0  0  0  0  0  0  0  0  0  0
   14.5465   -8.0157  -11.3945 C   0  0  1  0  0  0  0  0  0  0  0  0
   15.0934   -6.7092  -11.3441 O   0  0  0  0  0  0  0  0  0  0  0  0
   15.4824   -8.8837  -10.6211 C   0  0  2  0  0  0  0  0  0  0  0  0
   15.5442   -8.3539   -9.2719 N   0  0  0  0  0  0  0  0  0  0  0  0
   16.8215   -9.0323  -11.2244 C   0  0  0  0  0  0  0  0  0  0  0  0
   17.7717   -8.3455  -10.7708 O   0  0  0  0  0  0  0  0  0  0  0  0
   18.4308  -11.1111  -13.9879 C   0  0  0  0  0  0  0  0  0  0  0  0
   18.3897   -9.9931  -12.9647 C   0  0  2  0  0  0  0  0  0  0  0  0
   17.1200   -9.9087  -12.2976 N   0  0  0  0  0  0  0  0  0  0  0  0
   18.7936   -8.7317  -13.6078 C   0  0  0  0  0  0  0  0  0  0  0  0
   18.0011   -7.8639  -14.0327 O   0  0  0  0  0  0  0  0  0  0  0  0
   20.1825   -8.4783  -13.7585 N   0  0  0  0  0  0  0  0  0  0  0  0
   20.6171   -7.2425  -14.4908 C   0  0  1  0  0  0  0  0  0  0  0  0
   20.6159   -6.1561  -13.4927 C   0  0  0  0  0  0  0  0  0  0  0  0
   21.1388   -4.8253  -13.8190 C   0  0  0  0  0  0  0  0  0  0  0  0
   20.1469   -3.7560  -14.0015 C   0  0  0  0  0  0  0  0  0  0  0  0
   18.9007   -4.0074  -13.8654 O   0  0  0  0  0  0  0  0  0  0  0  0
   21.8957   -7.6000  -15.1087 C   0  0  0  0  0  0  0  0  0  0  0  0
   22.6418   -8.5422  -14.6560 O   0  0  0  0  0  0  0  0  0  0  0  0
   20.4922   -2.4565  -14.3177 O   0  0  0  0  0  0  0  0  0  0  0  0
   22.4015   -6.9652  -16.2236 O   0  0  0  0  0  0  0  0  0  0  0  0
  2  1  1  1
  2  4  1  0
  3  2  1  0
  4  5  1  1
  6 10  1  0
  6  4  1  0
  7  6  2  0
  9  8  1  6
  9 10  1  0
  9 11  1  0
 11 13  1  0
 12 11  2  0
 13 14  1  0
 14 15  1  1
 14 19  1  0
 15 16  1  0
 17 18  2  0
 17 16  1  0
 19 22  1  0
 20 19  2  0
 21 17  1  0
M  END
$$$$
