TAE.pdb
     RDKit          3D

 22 21  0  0  1  0  0  0  0  0999 V2000
   16.3526  -11.1176  -15.5006 C   0  0  0  0  0  0  0  0  0  0  0  0
   17.5311  -11.9566  -15.9928 C   0  0  1  0  0  0  0  0  0  0  0  0
   16.9633  -12.8037  -16.9771 O   0  0  0  0  0  0  0  0  0  0  0  0
   18.5740  -11.1519  -16.6945 C   0  0  2  0  0  0  0  0  0  0  0  0
   19.2887  -12.0526  -17.5792 N   0  0  0  0  0  0  0  0  0  0  0  0
   19.4836  -10.4113  -15.7982 C   0  0  0  0  0  0  0  0  0  0  0  0
   18.9976   -9.5749  -14.9954 O   0  0  0  0  0  0  0  0  0  0  0  0
   23.2474  -10.1947  -15.2078 C   0  0  0  0  0  0  0  0  0  0  0  0
   21.8039   -9.7764  -15.0080 C   0  0  2  0  0  0  0  0  0  0  0  0
   20.8911  -10.5773  -15.7760 N   0  0  0  0  0  0  0  0  0  0  0  0
   21.6758   -8.3337  -15.2726 C   0  0  0  0  0  0  0  0  0  0  0  0
   21.4549   -7.8330  -16.3961 O   0  0  0  0  0  0  0  0  0  0  0  0
   21.8124   -7.4428  -14.1754 N   0  0  0  0  0  0  0  0  0  0  0  0
   21.7072   -5.9667  -14.4248 C   0  0  1  0  0  0  0  0  0  0  0  0
   20.3095   -5.7202  -14.8273 C   0  0  0  0  0  0  0  0  0  0  0  0
   19.7767   -4.3572  -14.9239 C   0  0  0  0  0  0  0  0  0  0  0  0
   18.3465   -4.2312  -15.2389 C   0  0  0  0  0  0  0  0  0  0  0  0
   17.6520   -5.2739  -15.4941 O   0  0  0  0  0  0  0  0  0  0  0  0
   22.1819   -5.3404  -13.1891 C   0  0  0  0  0  0  0  0  0  0  0  0
   22.5265   -4.1047  -13.1295 O   0  0  0  0  0  0  0  0  0  0  0  0
   17.6885   -3.0172  -15.2736 O   0  0  0  0  0  0  0  0  0  0  0  0
   22.2934   -6.0164  -11.9922 O   0  0  0  0  0  0  0  0  0  0  0  0
  2  1  1  6
  2  4  1  0
  3  2  1  0
  4  5  1  1
  6 10  1  0
  6  4  1  0
  7  6  2  0
  9  8  1  6
  9 10  1  0
  9 11  1  0
 11 13  1  0
 12 11  2  0
 13 14  1  0
 14 15  1  1
 14 19  1  0
 15 16  1  0
 17 18  2  0
 17 16  1  0
 19 22  1  0
 20 19  2  0
 21 17  1  0
M  END
$$$$
