TAE.pdb
     RDKit          3D

 22 21  0  0  1  0  0  0  0  0999 V2000
   22.1875  -10.6151  -20.0400 C   0  0  0  0  0  0  0  0  0  0  0  0
   21.5461  -11.7956  -19.3120 C   0  0  1  0  0  0  0  0  0  0  0  0
   21.4806  -12.8129  -20.2966 O   0  0  0  0  0  0  0  0  0  0  0  0
   22.3955  -12.3410  -18.2127 C   0  0  2  0  0  0  0  0  0  0  0  0
   21.7857  -13.5821  -17.7737 N   0  0  0  0  0  0  0  0  0  0  0  0
   22.6261  -11.4059  -17.0939 C   0  0  0  0  0  0  0  0  0  0  0  0
   21.6341  -10.8932  -16.5164 O   0  0  0  0  0  0  0  0  0  0  0  0
   25.6391   -9.8364  -15.3563 C   0  0  0  0  0  0  0  0  0  0  0  0
   24.1625   -9.9902  -15.6635 C   0  0  2  0  0  0  0  0  0  0  0  0
   23.9077  -11.0369  -16.6142 N   0  0  0  0  0  0  0  0  0  0  0  0
   23.6139   -8.6866  -16.0729 C   0  0  0  0  0  0  0  0  0  0  0  0
   23.6782   -8.2191  -17.2301 O   0  0  0  0  0  0  0  0  0  0  0  0
   22.9640   -7.9001  -15.0855 N   0  0  0  0  0  0  0  0  0  0  0  0
   22.3293   -6.6035  -15.4958 C   0  0  1  0  0  0  0  0  0  0  0  0
   20.9250   -6.9213  -15.8174 C   0  0  0  0  0  0  0  0  0  0  0  0
   19.9548   -5.8610  -16.1095 C   0  0  0  0  0  0  0  0  0  0  0  0
   18.5496   -6.2729  -16.2379 C   0  0  0  0  0  0  0  0  0  0  0  0
   17.9406   -6.1354  -17.3536 O   0  0  0  0  0  0  0  0  0  0  0  0
   22.5838   -5.6892  -14.3805 C   0  0  0  0  0  0  0  0  0  0  0  0
   22.8268   -6.1037  -13.1895 O   0  0  0  0  0  0  0  0  0  0  0  0
   17.8280   -6.8187  -15.1942 O   0  0  0  0  0  0  0  0  0  0  0  0
   22.5901   -4.3166  -14.5132 O   0  0  0  0  0  0  0  0  0  0  0  0
  2  1  1  6
  2  4  1  0
  3  2  1  0
  4  5  1  1
  6 10  1  0
  6  4  1  0
  7  6  2  0
  9  8  1  6
  9 10  1  0
  9 11  1  0
 11 13  1  0
 12 11  2  0
 13 14  1  0
 14 15  1  1
 14 19  1  0
 15 16  1  0
 17 18  2  0
 17 16  1  0
 19 22  1  0
 20 19  2  0
 21 17  1  0
M  END
$$$$
