TAE.pdb
     RDKit          3D

 22 21  0  0  1  0  0  0  0  0999 V2000
   14.6840   -9.8612   -9.8062 C   0  0  0  0  0  0  0  0  0  0  0  0
   15.3132   -8.7934  -10.7001 C   0  0  1  0  0  0  0  0  0  0  0  0
   16.6458   -8.6912  -10.2285 O   0  0  0  0  0  0  0  0  0  0  0  0
   15.4135   -9.2077  -12.1304 C   0  0  2  0  0  0  0  0  0  0  0  0
   16.1764  -10.4412  -12.1681 N   0  0  0  0  0  0  0  0  0  0  0  0
   15.9717   -8.1784  -13.0296 C   0  0  0  0  0  0  0  0  0  0  0  0
   17.1268   -8.3423  -13.4976 O   0  0  0  0  0  0  0  0  0  0  0  0
   14.7967   -4.9339  -14.6453 C   0  0  0  0  0  0  0  0  0  0  0  0
   15.8398   -5.9518  -14.2277 C   0  0  2  0  0  0  0  0  0  0  0  0
   15.2878   -6.9969  -13.4109 N   0  0  0  0  0  0  0  0  0  0  0  0
   16.9713   -5.2547  -13.5938 C   0  0  0  0  0  0  0  0  0  0  0  0
   17.0930   -5.0671  -12.3643 O   0  0  0  0  0  0  0  0  0  0  0  0
   18.0010   -4.7580  -14.4358 N   0  0  0  0  0  0  0  0  0  0  0  0
   19.2245   -4.1591  -13.8061 C   0  0  1  0  0  0  0  0  0  0  0  0
   20.3332   -5.0837  -14.1102 C   0  0  0  0  0  0  0  0  0  0  0  0
   21.7036   -4.7943  -13.6755 C   0  0  0  0  0  0  0  0  0  0  0  0
   22.7397   -5.7527  -14.0859 C   0  0  0  0  0  0  0  0  0  0  0  0
   23.8152   -5.3368  -14.6381 O   0  0  0  0  0  0  0  0  0  0  0  0
   19.3011   -2.8006  -14.3476 C   0  0  0  0  0  0  0  0  0  0  0  0
   18.8436   -2.4928  -15.5075 O   0  0  0  0  0  0  0  0  0  0  0  0
   22.6175   -7.1163  -13.9021 O   0  0  0  0  0  0  0  0  0  0  0  0
   19.8611   -1.7429  -13.6623 O   0  0  0  0  0  0  0  0  0  0  0  0
  2  1  1  1
  2  4  1  0
  3  2  1  0
  4  5  1  1
  6 10  1  0
  6  4  1  0
  7  6  2  0
  9  8  1  1
  9 10  1  0
  9 11  1  0
 11 13  1  0
 12 11  2  0
 13 14  1  0
 14 15  1  6
 14 19  1  0
 15 16  1  0
 17 18  2  0
 17 16  1  0
 19 22  1  0
 20 19  2  0
 21 17  1  0
M  END
$$$$
