TAE.pdb
     RDKit          3D

 22 21  0  0  1  0  0  0  0  0999 V2000
   16.6298  -11.0334  -16.3624 C   0  0  0  0  0  0  0  0  0  0  0  0
   17.9171  -11.7407  -16.7836 C   0  0  1  0  0  0  0  0  0  0  0  0
   17.5106  -12.5972  -17.8371 O   0  0  0  0  0  0  0  0  0  0  0  0
   18.9307  -10.8168  -17.3724 C   0  0  2  0  0  0  0  0  0  0  0  0
   19.7839  -11.6097  -18.2374 N   0  0  0  0  0  0  0  0  0  0  0  0
   19.7048  -10.0434  -16.3815 C   0  0  0  0  0  0  0  0  0  0  0  0
   19.0880   -9.3178  -15.5609 O   0  0  0  0  0  0  0  0  0  0  0  0
   23.3472   -9.6609  -15.3387 C   0  0  0  0  0  0  0  0  0  0  0  0
   21.8951   -9.2303  -15.4056 C   0  0  2  0  0  0  0  0  0  0  0  0
   21.1188  -10.0591  -16.2858 N   0  0  0  0  0  0  0  0  0  0  0  0
   21.8287   -7.7992  -15.7455 C   0  0  0  0  0  0  0  0  0  0  0  0
   21.8228   -7.3436  -16.9092 O   0  0  0  0  0  0  0  0  0  0  0  0
   21.7668   -6.8653  -14.6777 N   0  0  0  0  0  0  0  0  0  0  0  0
   21.6141   -5.4075  -14.9996 C   0  0  1  0  0  0  0  0  0  0  0  0
   20.1655   -5.1737  -15.1524 C   0  0  0  0  0  0  0  0  0  0  0  0
   19.6272   -3.8174  -15.2997 C   0  0  0  0  0  0  0  0  0  0  0  0
   18.1715   -3.7027  -15.4682 C   0  0  0  0  0  0  0  0  0  0  0  0
   17.4434   -3.3013  -14.4969 O   0  0  0  0  0  0  0  0  0  0  0  0
   22.3078   -4.7073  -13.9166 C   0  0  0  0  0  0  0  0  0  0  0  0
   22.4569   -5.2185  -12.7479 O   0  0  0  0  0  0  0  0  0  0  0  0
   17.5251   -4.0092  -16.6498 O   0  0  0  0  0  0  0  0  0  0  0  0
   22.8609   -3.4520  -14.0588 O   0  0  0  0  0  0  0  0  0  0  0  0
  2  1  1  6
  2  4  1  0
  3  2  1  0
  4  5  1  1
  6 10  1  0
  6  4  1  0
  7  6  2  0
  9  8  1  6
  9 10  1  0
  9 11  1  0
 11 13  1  0
 12 11  2  0
 13 14  1  0
 14 15  1  1
 14 19  1  0
 15 16  1  0
 17 18  2  0
 17 16  1  0
 19 22  1  0
 20 19  2  0
 21 17  1  0
M  END
$$$$
