TAE.pdb
     RDKit          3D

 22 21  0  0  1  0  0  0  0  0999 V2000
   17.3602  -12.9293  -17.7637 C   0  0  0  0  0  0  0  0  0  0  0  0
   17.9926  -12.0242  -16.7073 C   0  0  1  0  0  0  0  0  0  0  0  0
   18.4984  -12.9268  -15.7387 O   0  0  0  0  0  0  0  0  0  0  0  0
   19.1713  -11.2620  -17.2146 C   0  0  2  0  0  0  0  0  0  0  0  0
   20.0784  -12.2223  -17.8143 N   0  0  0  0  0  0  0  0  0  0  0  0
   19.8391  -10.4198  -16.2026 C   0  0  0  0  0  0  0  0  0  0  0  0
   19.1672   -9.5429  -15.6028 O   0  0  0  0  0  0  0  0  0  0  0  0
   23.3392  -10.0783  -14.7222 C   0  0  0  0  0  0  0  0  0  0  0  0
   21.8916   -9.6741  -14.9211 C   0  0  2  0  0  0  0  0  0  0  0  0
   21.2079  -10.5295  -15.8512 N   0  0  0  0  0  0  0  0  0  0  0  0
   21.8318   -8.2497  -15.2890 C   0  0  0  0  0  0  0  0  0  0  0  0
   22.0643   -7.7993  -16.4312 O   0  0  0  0  0  0  0  0  0  0  0  0
   21.4853   -7.3165  -14.2765 N   0  0  0  0  0  0  0  0  0  0  0  0
   21.4122   -5.8598  -14.6297 C   0  0  1  0  0  0  0  0  0  0  0  0
   19.9765   -5.5397  -14.7428 C   0  0  0  0  0  0  0  0  0  0  0  0
   19.2437   -5.7706  -15.9921 C   0  0  0  0  0  0  0  0  0  0  0  0
   17.8187   -5.4100  -15.9945 C   0  0  0  0  0  0  0  0  0  0  0  0
   17.4643   -4.1960  -15.8072 O   0  0  0  0  0  0  0  0  0  0  0  0
   22.1828   -5.1795  -13.5867 C   0  0  0  0  0  0  0  0  0  0  0  0
   22.5153   -5.7547  -12.4877 O   0  0  0  0  0  0  0  0  0  0  0  0
   16.8104   -6.3322  -16.1963 O   0  0  0  0  0  0  0  0  0  0  0  0
   22.6189   -3.8757  -13.6964 O   0  0  0  0  0  0  0  0  0  0  0  0
  2  1  1  6
  2  4  1  0
  3  2  1  0
  4  5  1  1
  6 10  1  0
  6  4  1  0
  7  6  2  0
  9  8  1  6
  9 10  1  0
  9 11  1  0
 11 13  1  0
 12 11  2  0
 13 14  1  0
 14 15  1  1
 14 19  1  0
 15 16  1  0
 17 18  2  0
 17 16  1  0
 19 22  1  0
 20 19  2  0
 21 17  1  0
M  END
$$$$
