TAE.pdb
     RDKit          3D

 22 21  0  0  1  0  0  0  0  0999 V2000
   10.9544   -9.9039  -11.3117 C   0  0  0  0  0  0  0  0  0  0  0  0
   11.4608  -10.2656   -9.9161 C   0  0  1  0  0  0  0  0  0  0  0  0
   10.9198  -11.5536   -9.6766 O   0  0  0  0  0  0  0  0  0  0  0  0
   12.9434  -10.4234   -9.8506 C   0  0  2  0  0  0  0  0  0  0  0  0
   13.2495  -11.0944   -8.6012 N   0  0  0  0  0  0  0  0  0  0  0  0
   13.7018   -9.1668  -10.0097 C   0  0  0  0  0  0  0  0  0  0  0  0
   13.6001   -8.5283  -11.0878 O   0  0  0  0  0  0  0  0  0  0  0  0
   15.7879   -6.8335   -7.8724 C   0  0  0  0  0  0  0  0  0  0  0  0
   15.3821   -7.4579   -9.1930 C   0  0  2  0  0  0  0  0  0  0  0  0
   14.5519   -8.6174   -9.0176 N   0  0  0  0  0  0  0  0  0  0  0  0
   16.5880   -7.7222   -9.9955 C   0  0  0  0  0  0  0  0  0  0  0  0
   17.3694   -8.6800   -9.8117 O   0  0  0  0  0  0  0  0  0  0  0  0
   16.8892   -6.8272  -11.0558 N   0  0  0  0  0  0  0  0  0  0  0  0
   17.9776   -7.1914  -12.0227 C   0  0  1  0  0  0  0  0  0  0  0  0
   17.5743   -8.4765  -12.6248 C   0  0  0  0  0  0  0  0  0  0  0  0
   18.2951   -9.0360  -13.7730 C   0  0  0  0  0  0  0  0  0  0  0  0
   17.7459  -10.2679  -14.3571 C   0  0  0  0  0  0  0  0  0  0  0  0
   16.5859  -10.2607  -14.8948 O   0  0  0  0  0  0  0  0  0  0  0  0
   18.0994   -6.0315  -12.9082 C   0  0  0  0  0  0  0  0  0  0  0  0
   17.1077   -5.2611  -13.1773 O   0  0  0  0  0  0  0  0  0  0  0  0
   18.4306  -11.4675  -14.3624 O   0  0  0  0  0  0  0  0  0  0  0  0
   19.2805   -5.6664  -13.5195 O   0  0  0  0  0  0  0  0  0  0  0  0
  2  1  1  6
  2  4  1  0
  3  2  1  0
  4  5  1  1
  6 10  1  0
  6  4  1  0
  7  6  2  0
  9  8  1  1
  9 10  1  0
  9 11  1  0
 11 13  1  0
 12 11  2  0
 13 14  1  0
 14 15  1  6
 14 19  1  0
 15 16  1  0
 17 18  2  0
 17 16  1  0
 19 22  1  0
 20 19  2  0
 21 17  1  0
M  END
$$$$
