TAE.pdb
     RDKit          3D

 22 21  0  0  1  0  0  0  0  0999 V2000
   16.8490  -12.1431  -13.0831 C   0  0  0  0  0  0  0  0  0  0  0  0
   16.9343  -12.7466  -14.4844 C   0  0  1  0  0  0  0  0  0  0  0  0
   16.6828  -14.1265  -14.2809 O   0  0  0  0  0  0  0  0  0  0  0  0
   15.8594  -12.2631  -15.3998 C   0  0  2  0  0  0  0  0  0  0  0  0
   15.8991  -13.0959  -16.5872 N   0  0  0  0  0  0  0  0  0  0  0  0
   15.9309  -10.8246  -15.7243 C   0  0  0  0  0  0  0  0  0  0  0  0
   16.8239  -10.4234  -16.5127 O   0  0  0  0  0  0  0  0  0  0  0  0
   13.9458   -7.6682  -14.9474 C   0  0  0  0  0  0  0  0  0  0  0  0
   15.1693   -8.4293  -15.4187 C   0  0  2  0  0  0  0  0  0  0  0  0
   15.0500   -9.8446  -15.2021 N   0  0  0  0  0  0  0  0  0  0  0  0
   16.3716   -7.8458  -14.8005 C   0  0  0  0  0  0  0  0  0  0  0  0
   16.7954   -8.1315  -13.6601 O   0  0  0  0  0  0  0  0  0  0  0  0
   17.1058   -6.8891  -15.5500 N   0  0  0  0  0  0  0  0  0  0  0  0
   18.3113   -6.2507  -14.9245 C   0  0  1  0  0  0  0  0  0  0  0  0
   19.4798   -6.9735  -15.4619 C   0  0  0  0  0  0  0  0  0  0  0  0
   20.8469   -6.5604  -15.1282 C   0  0  0  0  0  0  0  0  0  0  0  0
   21.9356   -7.3120  -15.7689 C   0  0  0  0  0  0  0  0  0  0  0  0
   22.0178   -8.5785  -15.6141 O   0  0  0  0  0  0  0  0  0  0  0  0
   18.1882   -4.8253  -15.2365 C   0  0  0  0  0  0  0  0  0  0  0  0
   17.4927   -4.3925  -16.2256 O   0  0  0  0  0  0  0  0  0  0  0  0
   22.9017   -6.7135  -16.5538 O   0  0  0  0  0  0  0  0  0  0  0  0
   18.7984   -3.8332  -14.4980 O   0  0  0  0  0  0  0  0  0  0  0  0
  2  1  1  1
  2  4  1  0
  3  2  1  0
  4  5  1  6
  6 10  1  0
  6  4  1  0
  7  6  2  0
  9  8  1  1
  9 10  1  0
  9 11  1  0
 11 13  1  0
 12 11  2  0
 13 14  1  0
 14 15  1  6
 14 19  1  0
 15 16  1  0
 17 18  2  0
 17 16  1  0
 19 22  1  0
 20 19  2  0
 21 17  1  0
M  END
$$$$
