TAE.pdb
     RDKit          3D

 22 21  0  0  1  0  0  0  0  0999 V2000
   22.9539  -33.2333   -3.9997 C   0  0  0  0  0  0  0  0  0  0  0  0
   23.6134  -33.2528   -2.6215 C   0  0  1  0  0  0  0  0  0  0  0  0
   24.1666  -34.5539   -2.5228 O   0  0  0  0  0  0  0  0  0  0  0  0
   24.7623  -32.3073   -2.5053 C   0  0  2  0  0  0  0  0  0  0  0  0
   25.6699  -32.5972   -3.5995 N   0  0  0  0  0  0  0  0  0  0  0  0
   25.4429  -32.3267   -1.1954 C   0  0  0  0  0  0  0  0  0  0  0  0
   26.5341  -32.9412   -1.0868 O   0  0  0  0  0  0  0  0  0  0  0  0
   24.8804  -30.8190    2.2630 C   0  0  0  0  0  0  0  0  0  0  0  0
   25.6073  -31.6772    1.2463 C   0  0  2  0  0  0  0  0  0  0  0  0
   24.9468  -31.6915   -0.0295 N   0  0  0  0  0  0  0  0  0  0  0  0
   25.8165  -33.0222    1.8078 C   0  0  0  0  0  0  0  0  0  0  0  0
   25.0558  -33.9964    1.6239 O   0  0  0  0  0  0  0  0  0  0  0  0
   26.9639  -33.2326    2.6173 N   0  0  0  0  0  0  0  0  0  0  0  0
   27.1888  -34.5910    3.2142 C   0  0  1  0  0  0  0  0  0  0  0  0
   28.6429  -34.8308    3.1447 C   0  0  0  0  0  0  0  0  0  0  0  0
   29.3141  -35.0569    1.8605 C   0  0  0  0  0  0  0  0  0  0  0  0
   30.7481  -35.3750    1.9154 C   0  0  0  0  0  0  0  0  0  0  0  0
   31.6125  -34.4338    1.9544 O   0  0  0  0  0  0  0  0  0  0  0  0
   26.5704  -34.5276    4.5402 C   0  0  0  0  0  0  0  0  0  0  0  0
   26.3360  -33.4167    5.1403 O   0  0  0  0  0  0  0  0  0  0  0  0
   31.2310  -36.6690    1.9308 O   0  0  0  0  0  0  0  0  0  0  0  0
   26.1847  -35.6454    5.2498 O   0  0  0  0  0  0  0  0  0  0  0  0
  2  1  1  6
  2  4  1  0
  3  2  1  0
  4  5  1  6
  6 10  1  0
  6  4  1  0
  7  6  2  0
  9  8  1  1
  9 10  1  0
  9 11  1  0
 11 13  1  0
 12 11  2  0
 13 14  1  0
 14 15  1  1
 14 19  1  0
 15 16  1  0
 17 18  2  0
 17 16  1  0
 19 22  1  0
 20 19  2  0
 21 17  1  0
M  END
$$$$
