LHR.pdb
     RDKit          3D

 30 30  0  0  1  0  0  0  0  0999 V2000
   27.8624  -19.0881   -7.4407 C   0  0  0  0  0  0  0  0  0  0  0  0
   27.2316  -20.3063   -8.0923 C   0  0  1  0  0  0  0  0  0  0  0  0
   26.3833  -20.9942   -7.0318 C   0  0  0  0  0  0  0  0  0  0  0  0
   26.3742  -19.8621   -9.2330 C   0  0  0  0  0  0  0  0  0  0  0  0
   25.6559  -21.0067   -9.9309 C   0  0  2  0  0  0  0  0  0  0  0  0
   26.7359  -21.9121  -10.3661 N   0  0  0  0  0  0  0  0  0  0  0  0
   24.9456  -20.5103  -11.1347 C   0  0  0  0  0  0  0  0  0  0  0  0
   24.0112  -19.6658  -10.9816 O   0  0  0  0  0  0  0  0  0  0  0  0
   25.3090  -20.9774  -12.4538 N   0  0  0  0  0  0  0  0  0  0  0  0
   24.5475  -20.5212  -13.5640 C   0  0  1  0  0  0  0  0  0  0  0  0
   25.4057  -20.3166  -14.7669 C   0  0  0  0  0  0  0  0  0  0  0  0
   25.7622  -18.9176  -15.0314 C   0  0  0  0  0  0  0  0  0  0  0  0
   25.4269  -17.7331  -14.4394 C   0  0  0  0  0  0  0  0  0  0  0  0
   26.0498  -16.6795  -15.0465 N   0  0  0  0  0  0  0  0  0  0  0  0
   26.7773  -17.2115  -16.0213 C   0  0  0  0  0  0  0  0  0  0  0  0
   26.6281  -18.5397  -16.0387 N   0  0  0  0  0  0  0  0  0  0  0  0
   23.3953  -21.3953  -13.9175 C   0  0  0  0  0  0  0  0  0  0  0  0
   23.5737  -22.6417  -13.9777 O   0  0  0  0  0  0  0  0  0  0  0  0
   19.4526  -23.2811   -9.2264 N   0  0  0  0  0  0  0  0  0  0  0  0
   18.1522  -23.4944   -9.7646 C   0  0  0  0  0  0  0  0  0  0  0  0
   17.1687  -23.6175   -8.9728 N   0  0  0  0  0  0  0  0  0  0  0  0
   17.9227  -23.5742  -11.1732 N   0  0  0  0  0  0  0  0  0  0  0  0
   19.0117  -23.8776  -12.0720 C   0  0  0  0  0  0  0  0  0  0  0  0
   19.7463  -22.6744  -12.5431 C   0  0  0  0  0  0  0  0  0  0  0  0
   20.7912  -22.8635  -13.5897 C   0  0  0  0  0  0  0  0  0  0  0  0
   20.9698  -21.7592  -14.5690 C   0  0  2  0  0  0  0  0  0  0  0  0
   22.0973  -20.9011  -14.1942 N   0  0  0  0  0  0  0  0  0  0  0  0
   19.7943  -20.9736  -14.9212 C   0  0  0  0  0  0  0  0  0  0  0  0
   19.8451  -19.7060  -14.7283 O   0  0  0  0  0  0  0  0  0  0  0  0
   18.6073  -21.4264  -15.4501 O   0  0  0  0  0  0  0  0  0  0  0  0
  2  1  1  1
  2  3  1  0
  4  2  1  0
  5  4  1  0
  5  6  1  6
  7  8  2  0
  7  5  1  0
  9  7  1  0
 10  9  1  0
 11 12  1  0
 10 11  1  6
 12 16  1  0
 13 12  2  0
 13 14  1  0
 14 15  1  0
 16 15  2  0
 17 10  1  0
 18 17  2  0
 19 20  1  0
 20 22  1  0
 21 20  2  0
 22 23  1  0
 23 24  1  0
 24 25  1  0
 26 25  1  1
 26 28  1  0
 26 27  1  0
 27 17  1  0
 28 30  1  0
 29 28  2  0
M  END
$$$$
