LHR.pdb
     RDKit          3D

 30 30  0  0  1  0  0  0  0  0999 V2000
   26.8951  -21.1395   -3.8345 C   0  0  0  0  0  0  0  0  0  0  0  0
   27.3903  -20.0784   -4.8016 C   0  0  1  0  0  0  0  0  0  0  0  0
   28.9081  -20.1864   -4.8481 C   0  0  0  0  0  0  0  0  0  0  0  0
   26.8110  -20.3405   -6.1542 C   0  0  0  0  0  0  0  0  0  0  0  0
   27.3570  -19.4197   -7.2345 C   0  0  2  0  0  0  0  0  0  0  0  0
   26.9051  -18.0730   -6.8374 N   0  0  0  0  0  0  0  0  0  0  0  0
   26.7504  -19.7505   -8.5470 C   0  0  0  0  0  0  0  0  0  0  0  0
   25.5821  -19.3250   -8.7990 O   0  0  0  0  0  0  0  0  0  0  0  0
   27.4735  -20.5402   -9.5185 N   0  0  0  0  0  0  0  0  0  0  0  0
   27.0891  -20.4466  -10.8838 C   0  0  1  0  0  0  0  0  0  0  0  0
   28.1076  -21.0657  -11.7809 C   0  0  0  0  0  0  0  0  0  0  0  0
   27.8096  -20.9504  -13.2135 C   0  0  0  0  0  0  0  0  0  0  0  0
   26.7678  -20.4173  -13.9179 C   0  0  0  0  0  0  0  0  0  0  0  0
   26.9671  -20.5322  -15.2647 N   0  0  0  0  0  0  0  0  0  0  0  0
   28.1399  -21.1396  -15.3990 C   0  0  0  0  0  0  0  0  0  0  0  0
   28.6661  -21.4016  -14.1984 N   0  0  0  0  0  0  0  0  0  0  0  0
   25.7479  -21.0195  -11.1835 C   0  0  0  0  0  0  0  0  0  0  0  0
   25.3037  -21.9433  -10.4498 O   0  0  0  0  0  0  0  0  0  0  0  0
   19.3003  -22.9674   -9.1346 N   0  0  0  0  0  0  0  0  0  0  0  0
   18.8072  -22.9619  -10.4699 C   0  0  0  0  0  0  0  0  0  0  0  0
   17.5554  -22.8980  -10.6657 N   0  0  0  0  0  0  0  0  0  0  0  0
   19.6831  -23.0265  -11.5976 N   0  0  0  0  0  0  0  0  0  0  0  0
   21.0839  -22.7071  -11.4506 C   0  0  0  0  0  0  0  0  0  0  0  0
   21.3416  -21.2643  -11.2032 C   0  0  0  0  0  0  0  0  0  0  0  0
   22.7596  -20.8039  -11.1900 C   0  0  0  0  0  0  0  0  0  0  0  0
   23.5424  -21.0011  -12.4385 C   0  0  2  0  0  0  0  0  0  0  0  0
   24.9352  -20.5823  -12.2577 N   0  0  0  0  0  0  0  0  0  0  0  0
   22.9822  -20.4739  -13.6760 C   0  0  0  0  0  0  0  0  0  0  0  0
   23.1972  -19.2386  -13.9487 O   0  0  0  0  0  0  0  0  0  0  0  0
   22.2357  -21.1475  -14.6155 O   0  0  0  0  0  0  0  0  0  0  0  0
  2  1  1  1
  2  3  1  0
  4  2  1  0
  5  4  1  0
  5  6  1  1
  7  8  2  0
  7  5  1  0
  9  7  1  0
 10  9  1  0
 11 12  1  0
 10 11  1  6
 12 16  1  0
 13 12  2  0
 13 14  1  0
 14 15  1  0
 16 15  2  0
 17 10  1  0
 18 17  2  0
 19 20  1  0
 20 22  1  0
 21 20  2  0
 22 23  1  0
 23 24  1  0
 24 25  1  0
 26 25  1  1
 26 28  1  0
 26 27  1  0
 27 17  1  0
 28 30  1  0
 29 28  2  0
M  END
$$$$
