LHR.pdb
     RDKit          3D

 30 30  0  0  1  0  0  0  0  0999 V2000
   20.3734  -14.9029  -16.6293 C   0  0  0  0  0  0  0  0  0  0  0  0
   19.1535  -14.0132  -16.7925 C   0  0  1  0  0  0  0  0  0  0  0  0
   17.9426  -14.8273  -16.3582 C   0  0  0  0  0  0  0  0  0  0  0  0
   19.3066  -12.8084  -15.9215 C   0  0  0  0  0  0  0  0  0  0  0  0
   18.0729  -11.9193  -15.8971 C   0  0  2  0  0  0  0  0  0  0  0  0
   17.9203  -11.4581  -17.2897 N   0  0  0  0  0  0  0  0  0  0  0  0
   18.3085  -10.7364  -15.0337 C   0  0  0  0  0  0  0  0  0  0  0  0
   18.5235  -10.9220  -13.7972 O   0  0  0  0  0  0  0  0  0  0  0  0
   18.2939   -9.4011  -15.5877 N   0  0  0  0  0  0  0  0  0  0  0  0
   18.5683   -8.3086  -14.7207 C   0  0  1  0  0  0  0  0  0  0  0  0
   19.4071   -7.2751  -15.3942 C   0  0  0  0  0  0  0  0  0  0  0  0
   20.8044   -7.6692  -15.6102 C   0  0  0  0  0  0  0  0  0  0  0  0
   21.5350   -8.7712  -15.2671 C   0  0  0  0  0  0  0  0  0  0  0  0
   22.8180   -8.6811  -15.7281 N   0  0  0  0  0  0  0  0  0  0  0  0
   22.8858   -7.5167  -16.3623 C   0  0  0  0  0  0  0  0  0  0  0  0
   21.7056   -6.8913  -16.3101 N   0  0  0  0  0  0  0  0  0  0  0  0
   17.3562   -7.6660  -14.1421 C   0  0  0  0  0  0  0  0  0  0  0  0
   16.3349   -7.5296  -14.8684 O   0  0  0  0  0  0  0  0  0  0  0  0
   12.1705   -9.2857   -7.4173 N   0  0  0  0  0  0  0  0  0  0  0  0
   11.6549   -8.0974   -8.0075 C   0  0  0  0  0  0  0  0  0  0  0  0
   10.4766   -7.7259   -7.7196 N   0  0  0  0  0  0  0  0  0  0  0  0
   12.4277   -7.3102   -8.9165 N   0  0  0  0  0  0  0  0  0  0  0  0
   13.6915   -7.8024   -9.4129 C   0  0  0  0  0  0  0  0  0  0  0  0
   14.2814   -6.9539  -10.4812 C   0  0  0  0  0  0  0  0  0  0  0  0
   15.5112   -7.4497  -11.1629 C   0  0  0  0  0  0  0  0  0  0  0  0
   16.0823   -6.5872  -12.2308 C   0  0  2  0  0  0  0  0  0  0  0  0
   17.2850   -7.1931  -12.8092 N   0  0  0  0  0  0  0  0  0  0  0  0
   16.2896   -5.1786  -11.9210 C   0  0  0  0  0  0  0  0  0  0  0  0
   17.4921   -4.7870  -11.7039 O   0  0  0  0  0  0  0  0  0  0  0  0
   15.3385   -4.1880  -11.8318 O   0  0  0  0  0  0  0  0  0  0  0  0
  2  1  1  1
  2  3  1  0
  4  2  1  0
  5  4  1  0
  5  6  1  6
  7  8  2  0
  7  5  1  0
  9  7  1  0
 10  9  1  0
 11 12  1  0
 10 11  1  6
 12 16  1  0
 13 12  2  0
 13 14  1  0
 14 15  1  0
 16 15  2  0
 17 10  1  0
 18 17  2  0
 19 20  1  0
 20 22  1  0
 21 20  2  0
 22 23  1  0
 23 24  1  0
 24 25  1  0
 26 25  1  1
 26 28  1  0
 26 27  1  0
 27 17  1  0
 28 30  1  0
 29 28  2  0
M  END
$$$$
