LHR.pdb
     RDKit          3D

 30 30  0  0  1  0  0  0  0  0999 V2000
   25.5805  -25.7922  -15.5435 C   0  0  0  0  0  0  0  0  0  0  0  0
   25.4142  -24.3546  -16.0040 C   0  0  1  0  0  0  0  0  0  0  0  0
   24.9380  -24.3983  -17.4493 C   0  0  0  0  0  0  0  0  0  0  0  0
   24.3953  -23.6800  -15.1435 C   0  0  0  0  0  0  0  0  0  0  0  0
   24.2232  -22.2016  -15.4563 C   0  0  2  0  0  0  0  0  0  0  0  0
   25.4913  -21.5817  -15.0285 N   0  0  0  0  0  0  0  0  0  0  0  0
   23.1226  -21.6287  -14.6435 C   0  0  0  0  0  0  0  0  0  0  0  0
   23.3453  -21.3642  -13.4228 O   0  0  0  0  0  0  0  0  0  0  0  0
   21.8246  -21.3767  -15.2281 N   0  0  0  0  0  0  0  0  0  0  0  0
   20.7866  -20.8971  -14.3836 C   0  0  1  0  0  0  0  0  0  0  0  0
   19.9815  -19.8370  -15.0570 C   0  0  0  0  0  0  0  0  0  0  0  0
   20.6241  -18.5181  -15.1007 C   0  0  0  0  0  0  0  0  0  0  0  0
   21.8027  -18.0291  -14.6135 C   0  0  0  0  0  0  0  0  0  0  0  0
   21.9703  -16.7139  -14.9434 N   0  0  0  0  0  0  0  0  0  0  0  0
   20.8900  -16.3829  -15.6405 C   0  0  0  0  0  0  0  0  0  0  0  0
   20.0706  -17.4332  -15.7517 N   0  0  0  0  0  0  0  0  0  0  0  0
   19.8789  -21.9575  -13.8655 C   0  0  0  0  0  0  0  0  0  0  0  0
   19.7716  -23.0348  -14.5113 O   0  0  0  0  0  0  0  0  0  0  0  0
   17.4755  -27.5891  -10.9221 N   0  0  0  0  0  0  0  0  0  0  0  0
   18.4465  -27.8139   -9.9058 C   0  0  0  0  0  0  0  0  0  0  0  0
   18.8793  -28.9911   -9.7148 N   0  0  0  0  0  0  0  0  0  0  0  0
   18.9480  -26.7502   -9.0934 N   0  0  0  0  0  0  0  0  0  0  0  0
   18.4649  -25.4020   -9.2797 C   0  0  0  0  0  0  0  0  0  0  0  0
   18.4767  -24.9572  -10.6979 C   0  0  0  0  0  0  0  0  0  0  0  0
   18.9012  -23.5567  -10.9835 C   0  0  0  0  0  0  0  0  0  0  0  0
   18.2606  -22.8833  -12.1440 C   0  0  2  0  0  0  0  0  0  0  0  0
   19.1205  -21.8230  -12.6771 N   0  0  0  0  0  0  0  0  0  0  0  0
   16.8861  -22.4270  -11.9843 C   0  0  0  0  0  0  0  0  0  0  0  0
   16.6980  -21.1894  -11.7024 O   0  0  0  0  0  0  0  0  0  0  0  0
   15.7339  -23.1701  -12.1026 O   0  0  0  0  0  0  0  0  0  0  0  0
  2  1  1  1
  2  3  1  0
  4  2  1  0
  5  4  1  0
  5  6  1  1
  7  8  2  0
  7  5  1  0
  9  7  1  0
 10  9  1  0
 11 12  1  0
 10 11  1  6
 12 16  1  0
 13 12  2  0
 13 14  1  0
 14 15  1  0
 16 15  2  0
 17 10  1  0
 18 17  2  0
 19 20  1  0
 20 22  1  0
 21 20  2  0
 22 23  1  0
 23 24  1  0
 24 25  1  0
 26 25  1  1
 26 28  1  0
 26 27  1  0
 27 17  1  0
 28 30  1  0
 29 28  2  0
M  END
$$$$
