LHR.pdb
     RDKit          3D

 30 30  0  0  1  0  0  0  0  0999 V2000
   16.1640  -26.2453   -3.0908 C   0  0  0  0  0  0  0  0  0  0  0  0
   16.9424  -26.5584   -4.3567 C   0  0  1  0  0  0  0  0  0  0  0  0
   18.2037  -25.7063   -4.3307 C   0  0  0  0  0  0  0  0  0  0  0  0
   17.2984  -28.0099   -4.3658 C   0  0  0  0  0  0  0  0  0  0  0  0
   18.1540  -28.4151   -5.5561 C   0  0  2  0  0  0  0  0  0  0  0  0
   17.2202  -28.4262   -6.6977 N   0  0  0  0  0  0  0  0  0  0  0  0
   18.6808  -29.7887   -5.3669 C   0  0  0  0  0  0  0  0  0  0  0  0
   17.8926  -30.7685   -5.5357 O   0  0  0  0  0  0  0  0  0  0  0  0
   20.0616  -30.0076   -4.9984 N   0  0  0  0  0  0  0  0  0  0  0  0
   20.4959  -31.3424   -4.7740 C   0  0  1  0  0  0  0  0  0  0  0  0
   21.9738  -31.4690   -4.9321 C   0  0  0  0  0  0  0  0  0  0  0  0
   22.4292  -31.6089   -6.3204 C   0  0  0  0  0  0  0  0  0  0  0  0
   21.7798  -31.7359   -7.5154 C   0  0  0  0  0  0  0  0  0  0  0  0
   22.6622  -31.8090   -8.5560 N   0  0  0  0  0  0  0  0  0  0  0  0
   23.8674  -31.7263   -8.0053 C   0  0  0  0  0  0  0  0  0  0  0  0
   23.7631  -31.6066   -6.6781 N   0  0  0  0  0  0  0  0  0  0  0  0
   20.0859  -31.9073   -3.4588 C   0  0  0  0  0  0  0  0  0  0  0  0
   20.0160  -31.1386   -2.4622 O   0  0  0  0  0  0  0  0  0  0  0  0
   16.0563  -39.6642   -1.0237 N   0  0  0  0  0  0  0  0  0  0  0  0
   16.0417  -38.7974    0.1053 C   0  0  0  0  0  0  0  0  0  0  0  0
   15.4381  -39.1655    1.1587 N   0  0  0  0  0  0  0  0  0  0  0  0
   16.6881  -37.5227    0.0859 N   0  0  0  0  0  0  0  0  0  0  0  0
   17.3555  -37.0631   -1.1096 C   0  0  0  0  0  0  0  0  0  0  0  0
   17.9676  -35.7161   -0.9680 C   0  0  0  0  0  0  0  0  0  0  0  0
   18.6252  -35.1220   -2.1670 C   0  0  0  0  0  0  0  0  0  0  0  0
   19.3172  -33.8197   -1.9785 C   0  0  2  0  0  0  0  0  0  0  0  0
   19.7681  -33.2731   -3.2614 N   0  0  0  0  0  0  0  0  0  0  0  0
   20.3676  -33.7540   -0.9708 C   0  0  0  0  0  0  0  0  0  0  0  0
   21.5251  -34.2092   -1.2860 O   0  0  0  0  0  0  0  0  0  0  0  0
   20.2772  -33.2513    0.3071 O   0  0  0  0  0  0  0  0  0  0  0  0
  2  1  1  1
  2  3  1  0
  4  2  1  0
  5  4  1  0
  5  6  1  6
  7  8  2  0
  7  5  1  0
  9  7  1  0
 10  9  1  0
 11 12  1  0
 10 11  1  1
 12 16  1  0
 13 12  2  0
 13 14  1  0
 14 15  1  0
 16 15  2  0
 17 10  1  0
 18 17  2  0
 19 20  1  0
 20 22  1  0
 21 20  2  0
 22 23  1  0
 23 24  1  0
 24 25  1  0
 26 25  1  6
 26 28  1  0
 26 27  1  0
 27 17  1  0
 28 30  1  0
 29 28  2  0
M  END
$$$$
