LHR.pdb
     RDKit          3D

 30 30  0  0  1  0  0  0  0  0999 V2000
   22.0110  -16.6821  -21.2497 C   0  0  0  0  0  0  0  0  0  0  0  0
   22.5779  -16.0642  -19.9835 C   0  0  1  0  0  0  0  0  0  0  0  0
   21.4169  -15.4183  -19.2403 C   0  0  0  0  0  0  0  0  0  0  0  0
   23.1936  -17.1394  -19.1476 C   0  0  0  0  0  0  0  0  0  0  0  0
   23.6433  -16.6568  -17.7772 C   0  0  2  0  0  0  0  0  0  0  0  0
   24.6051  -15.5754  -18.0618 N   0  0  0  0  0  0  0  0  0  0  0  0
   24.3553  -17.7413  -17.0583 C   0  0  0  0  0  0  0  0  0  0  0  0
   23.8046  -18.8819  -16.9835 O   0  0  0  0  0  0  0  0  0  0  0  0
   25.6481  -17.5054  -16.4557 N   0  0  0  0  0  0  0  0  0  0  0  0
   26.2996  -18.5919  -15.8108 C   0  0  1  0  0  0  0  0  0  0  0  0
   27.7687  -18.3578  -15.6984 C   0  0  0  0  0  0  0  0  0  0  0  0
   28.4983  -18.4380  -16.9694 C   0  0  0  0  0  0  0  0  0  0  0  0
   28.1203  -18.6934  -18.2570 C   0  0  0  0  0  0  0  0  0  0  0  0
   29.1852  -18.6288  -19.1105 N   0  0  0  0  0  0  0  0  0  0  0  0
   30.2316  -18.3309  -18.3498 C   0  0  0  0  0  0  0  0  0  0  0  0
   29.8567  -18.2108  -17.0724 N   0  0  0  0  0  0  0  0  0  0  0  0
   25.7457  -18.9305  -14.4710 C   0  0  0  0  0  0  0  0  0  0  0  0
   25.3972  -17.9938  -13.7027 O   0  0  0  0  0  0  0  0  0  0  0  0
   19.8118  -21.1395   -9.4110 N   0  0  0  0  0  0  0  0  0  0  0  0
   19.6596  -20.0165  -10.2723 C   0  0  0  0  0  0  0  0  0  0  0  0
   18.9336  -19.0455   -9.8986 N   0  0  0  0  0  0  0  0  0  0  0  0
   20.3017  -19.9516  -11.5477 N   0  0  0  0  0  0  0  0  0  0  0  0
   21.0926  -21.0631  -12.0218 C   0  0  0  0  0  0  0  0  0  0  0  0
   22.5518  -20.8932  -11.7965 C   0  0  0  0  0  0  0  0  0  0  0  0
   23.4047  -20.5726  -12.9766 C   0  0  0  0  0  0  0  0  0  0  0  0
   24.8768  -20.6015  -12.7703 C   0  0  2  0  0  0  0  0  0  0  0  0
   25.5878  -20.2585  -14.0051 N   0  0  0  0  0  0  0  0  0  0  0  0
   25.4457  -21.7839  -12.1369 C   0  0  0  0  0  0  0  0  0  0  0  0
   26.2567  -22.4985  -12.8285 O   0  0  0  0  0  0  0  0  0  0  0  0
   25.2224  -22.2436  -10.8591 O   0  0  0  0  0  0  0  0  0  0  0  0
  2  1  1  6
  2  3  1  0
  4  2  1  0
  5  4  1  0
  5  6  1  6
  7  8  2  0
  7  5  1  0
  9  7  1  0
 10  9  1  0
 11 12  1  0
 10 11  1  1
 12 16  1  0
 13 12  2  0
 13 14  1  0
 14 15  1  0
 16 15  2  0
 17 10  1  0
 18 17  2  0
 19 20  1  0
 20 22  1  0
 21 20  2  0
 22 23  1  0
 23 24  1  0
 24 25  1  0
 26 25  1  6
 26 28  1  0
 26 27  1  0
 27 17  1  0
 28 30  1  0
 29 28  2  0
M  END
$$$$
