LHR.pdb
     RDKit          3D

 30 30  0  0  1  0  0  0  0  0999 V2000
   27.9968  -18.6456   -6.0955 C   0  0  0  0  0  0  0  0  0  0  0  0
   28.3226  -19.8858   -6.9093 C   0  0  1  0  0  0  0  0  0  0  0  0
   27.8063  -21.0850   -6.1265 C   0  0  0  0  0  0  0  0  0  0  0  0
   27.6350  -19.7968   -8.2333 C   0  0  0  0  0  0  0  0  0  0  0  0
   27.8708  -21.0099   -9.1197 C   0  0  2  0  0  0  0  0  0  0  0  0
   29.3152  -20.9776   -9.4164 N   0  0  0  0  0  0  0  0  0  0  0  0
   27.1261  -20.8678  -10.3946 C   0  0  0  0  0  0  0  0  0  0  0  0
   27.4549  -19.9334  -11.1874 O   0  0  0  0  0  0  0  0  0  0  0  0
   26.0495  -21.7733  -10.7278 N   0  0  0  0  0  0  0  0  0  0  0  0
   25.4615  -21.6756  -12.0183 C   0  0  1  0  0  0  0  0  0  0  0  0
   25.3587  -23.0119  -12.6735 C   0  0  0  0  0  0  0  0  0  0  0  0
   24.8022  -22.9845  -14.0314 C   0  0  0  0  0  0  0  0  0  0  0  0
   25.3374  -22.7328  -15.2627 C   0  0  0  0  0  0  0  0  0  0  0  0
   24.3995  -22.8584  -16.2482 N   0  0  0  0  0  0  0  0  0  0  0  0
   23.2745  -23.1908  -15.6266 C   0  0  0  0  0  0  0  0  0  0  0  0
   23.4806  -23.2738  -14.3085 N   0  0  0  0  0  0  0  0  0  0  0  0
   24.1304  -21.0088  -12.0363 C   0  0  0  0  0  0  0  0  0  0  0  0
   23.3981  -21.0855  -11.0131 O   0  0  0  0  0  0  0  0  0  0  0  0
   20.0778  -15.2107  -17.7539 N   0  0  0  0  0  0  0  0  0  0  0  0
   19.1979  -15.4104  -16.6529 C   0  0  0  0  0  0  0  0  0  0  0  0
   18.1258  -14.7352  -16.5889 N   0  0  0  0  0  0  0  0  0  0  0  0
   19.4883  -16.3507  -15.6163 N   0  0  0  0  0  0  0  0  0  0  0  0
   20.7534  -17.0472  -15.5988 C   0  0  0  0  0  0  0  0  0  0  0  0
   20.8926  -17.9982  -14.4652 C   0  0  0  0  0  0  0  0  0  0  0  0
   22.1664  -18.7651  -14.3536 C   0  0  0  0  0  0  0  0  0  0  0  0
   22.3025  -19.6769  -13.1872 C   0  0  2  0  0  0  0  0  0  0  0  0
   23.6344  -20.2872  -13.1493 N   0  0  0  0  0  0  0  0  0  0  0  0
   21.2545  -20.6677  -12.9800 C   0  0  0  0  0  0  0  0  0  0  0  0
   21.3004  -21.7396  -13.6840 O   0  0  0  0  0  0  0  0  0  0  0  0
   20.1965  -20.6023  -12.1025 O   0  0  0  0  0  0  0  0  0  0  0  0
  2  1  1  1
  2  3  1  0
  4  2  1  0
  5  4  1  0
  5  6  1  6
  7  8  2  0
  7  5  1  0
  9  7  1  0
 10  9  1  0
 11 12  1  0
 10 11  1  1
 12 16  1  0
 13 12  2  0
 13 14  1  0
 14 15  1  0
 16 15  2  0
 17 10  1  0
 18 17  2  0
 19 20  1  0
 20 22  1  0
 21 20  2  0
 22 23  1  0
 23 24  1  0
 24 25  1  0
 26 25  1  6
 26 28  1  0
 26 27  1  0
 27 17  1  0
 28 30  1  0
 29 28  2  0
M  END
$$$$
