LHR.pdb
     RDKit          3D

 30 30  0  0  1  0  0  0  0  0999 V2000
   27.9892  -20.7782   -8.2571 C   0  0  0  0  0  0  0  0  0  0  0  0
   28.5456  -20.3697   -9.6099 C   0  0  1  0  0  0  0  0  0  0  0  0
   29.3147  -21.5636  -10.1582 C   0  0  0  0  0  0  0  0  0  0  0  0
   27.4124  -20.0217  -10.5201 C   0  0  0  0  0  0  0  0  0  0  0  0
   26.3533  -21.1095  -10.6101 C   0  0  2  0  0  0  0  0  0  0  0  0
   27.0305  -22.2318  -11.2863 N   0  0  0  0  0  0  0  0  0  0  0  0
   25.2253  -20.6597  -11.4619 C   0  0  0  0  0  0  0  0  0  0  0  0
   24.4520  -19.7579  -11.0166 O   0  0  0  0  0  0  0  0  0  0  0  0
   25.0109  -21.2353  -12.7707 N   0  0  0  0  0  0  0  0  0  0  0  0
   23.9446  -20.7295  -13.5630 C   0  0  1  0  0  0  0  0  0  0  0  0
   24.3555  -20.5614  -14.9872 C   0  0  0  0  0  0  0  0  0  0  0  0
   23.3213  -19.9885  -15.8571 C   0  0  0  0  0  0  0  0  0  0  0  0
   22.9276  -18.7104  -16.1349 C   0  0  0  0  0  0  0  0  0  0  0  0
   21.9146  -18.6898  -17.0515 N   0  0  0  0  0  0  0  0  0  0  0  0
   21.6772  -19.9623  -17.3461 C   0  0  0  0  0  0  0  0  0  0  0  0
   22.4966  -20.7591  -16.6529 N   0  0  0  0  0  0  0  0  0  0  0  0
   22.6957  -21.5375  -13.4975 C   0  0  0  0  0  0  0  0  0  0  0  0
   22.7785  -22.7628  -13.2133 O   0  0  0  0  0  0  0  0  0  0  0  0
   19.0734  -24.0672   -7.4705 N   0  0  0  0  0  0  0  0  0  0  0  0
   18.3889  -24.7249   -8.5312 C   0  0  0  0  0  0  0  0  0  0  0  0
   17.6977  -25.7571   -8.2738 N   0  0  0  0  0  0  0  0  0  0  0  0
   18.4585  -24.2553   -9.8794 N   0  0  0  0  0  0  0  0  0  0  0  0
   19.6270  -23.5444  -10.3432 C   0  0  0  0  0  0  0  0  0  0  0  0
   19.3442  -22.1475  -10.7651 C   0  0  0  0  0  0  0  0  0  0  0  0
   20.3761  -21.4454  -11.5807 C   0  0  0  0  0  0  0  0  0  0  0  0
   20.1976  -21.4694  -13.0565 C   0  0  2  0  0  0  0  0  0  0  0  0
   21.4070  -21.0027  -13.7401 N   0  0  0  0  0  0  0  0  0  0  0  0
   19.0003  -20.8428  -13.6012 C   0  0  0  0  0  0  0  0  0  0  0  0
   18.9569  -19.5605  -13.6246 O   0  0  0  0  0  0  0  0  0  0  0  0
   17.8825  -21.4641  -14.1095 O   0  0  0  0  0  0  0  0  0  0  0  0
  2  1  1  1
  2  3  1  0
  4  2  1  0
  5  4  1  0
  5  6  1  6
  7  8  2  0
  7  5  1  0
  9  7  1  0
 10  9  1  0
 11 12  1  0
 10 11  1  6
 12 16  1  0
 13 12  2  0
 13 14  1  0
 14 15  1  0
 16 15  2  0
 17 10  1  0
 18 17  2  0
 19 20  1  0
 20 22  1  0
 21 20  2  0
 22 23  1  0
 23 24  1  0
 24 25  1  0
 26 25  1  1
 26 28  1  0
 26 27  1  0
 27 17  1  0
 28 30  1  0
 29 28  2  0
M  END
$$$$
