MDP.pdb
     RDKit          3D

 24 24  0  0  1  0  0  0  0  0999 V2000
   22.0331  -15.0060  -20.7567 C   0  0  0  0  0  0  0  0  0  0  0  0
   23.3454  -15.8323  -19.8090 S   0  0  0  0  0  0  0  0  0  0  0  0
   24.0852  -14.5870  -18.7190 C   0  0  0  0  0  0  0  0  0  0  0  0
   23.0099  -13.8381  -17.9522 C   0  0  0  0  0  0  0  0  0  0  0  0
   23.6684  -12.7055  -17.1995 C   0  0  2  0  0  0  0  0  0  0  0  0
   24.6999  -13.2657  -16.3717 N   0  0  0  0  0  0  0  0  0  0  0  0
   22.6583  -11.9699  -16.3899 C   0  0  0  0  0  0  0  0  0  0  0  0
   21.9610  -12.6127  -15.5954 O   0  0  0  0  0  0  0  0  0  0  0  0
   22.5465  -10.5804  -16.5686 N   0  0  0  0  0  0  0  0  0  0  0  0
   21.6904   -9.6993  -15.8502 C   0  0  1  0  0  0  0  0  0  0  0  0
   21.7081   -9.8917  -14.3361 C   0  0  0  0  0  0  0  0  0  0  0  0
   20.7628   -9.0012  -13.6354 C   0  0  0  0  0  0  0  0  0  0  0  0
   19.5252   -9.0383  -13.6758 O   0  0  0  0  0  0  0  0  0  0  0  0
   21.7907   -8.3018  -16.2715 C   0  0  0  0  0  0  0  0  0  0  0  0
   22.9666   -7.7782  -16.2334 O   0  0  0  0  0  0  0  0  0  0  0  0
   21.3105   -7.9842  -12.8213 O   0  0  0  0  0  0  0  0  0  0  0  0
   20.7331   -7.5006  -16.7069 N   0  0  0  0  0  0  0  0  0  0  0  0
   19.3429   -7.8838  -16.8066 C   0  0  0  0  0  0  0  0  0  0  0  0
   18.9575   -7.2008  -18.1364 C   0  0  0  0  0  0  0  0  0  0  0  0
   19.5771   -5.8384  -17.9384 C   0  0  0  0  0  0  0  0  0  0  0  0
   20.8336   -6.1147  -17.1860 C   0  0  1  0  0  0  0  0  0  0  0  0
   20.9574   -5.1719  -16.0636 C   0  0  0  0  0  0  0  0  0  0  0  0
   20.7615   -5.5675  -14.8958 O   0  0  0  0  0  0  0  0  0  0  0  0
   21.2885   -3.8478  -16.2774 O   0  0  0  0  0  0  0  0  0  0  0  0
  2  1  1  0
  2  3  1  0
  4  3  1  0
  5  4  1  0
  5  7  1  0
  5  6  1  1
  7  8  2  0
  9  7  1  0
  9 10  1  0
 10 14  1  0
 10 11  1  1
 12 11  1  0
 13 12  2  0
 14 15  2  0
 16 12  1  0
 17 21  1  0
 17 14  1  0
 18 17  1  0
 19 20  1  0
 19 18  1  0
 20 21  1  0
 21 22  1  1
 22 23  2  0
 22 24  1  0
M  END
$$$$
