MDP.pdb
     RDKit          3D

 24 24  0  0  1  0  0  0  0  0999 V2000
   28.0871   -9.9295  -17.2562 C   0  0  0  0  0  0  0  0  0  0  0  0
   28.2468  -11.6868  -16.8213 S   0  0  0  0  0  0  0  0  0  0  0  0
   26.8217  -12.1148  -15.7859 C   0  0  0  0  0  0  0  0  0  0  0  0
   25.5447  -11.5296  -16.3619 C   0  0  0  0  0  0  0  0  0  0  0  0
   24.3794  -12.0514  -15.5541 C   0  0  2  0  0  0  0  0  0  0  0  0
   24.2369  -13.4523  -15.8379 N   0  0  0  0  0  0  0  0  0  0  0  0
   23.1406  -11.2975  -15.8917 C   0  0  0  0  0  0  0  0  0  0  0  0
   22.5683  -11.5551  -16.9579 O   0  0  0  0  0  0  0  0  0  0  0  0
   22.6823  -10.3295  -14.9817 N   0  0  0  0  0  0  0  0  0  0  0  0
   21.5875   -9.4399  -15.1700 C   0  0  1  0  0  0  0  0  0  0  0  0
   20.6911   -9.2690  -13.9464 C   0  0  0  0  0  0  0  0  0  0  0  0
   19.5258   -8.4022  -14.2079 C   0  0  0  0  0  0  0  0  0  0  0  0
   18.4414   -8.7320  -14.7079 O   0  0  0  0  0  0  0  0  0  0  0  0
   21.9529   -8.1801  -15.8180 C   0  0  0  0  0  0  0  0  0  0  0  0
   23.0258   -7.6100  -15.3912 O   0  0  0  0  0  0  0  0  0  0  0  0
   19.6388   -7.0383  -13.8556 O   0  0  0  0  0  0  0  0  0  0  0  0
   21.2463   -7.5544  -16.8471 N   0  0  0  0  0  0  0  0  0  0  0  0
   20.1287   -8.0999  -17.5839 C   0  0  0  0  0  0  0  0  0  0  0  0
   20.4661   -7.6115  -19.0090 C   0  0  0  0  0  0  0  0  0  0  0  0
   20.8361   -6.1747  -18.7297 C   0  0  0  0  0  0  0  0  0  0  0  0
   21.5258   -6.2256  -17.4095 C   0  0  1  0  0  0  0  0  0  0  0  0
   21.0082   -5.1596  -16.5378 C   0  0  0  0  0  0  0  0  0  0  0  0
   20.2807   -5.4508  -15.5660 O   0  0  0  0  0  0  0  0  0  0  0  0
   21.3132   -3.8332  -16.7748 O   0  0  0  0  0  0  0  0  0  0  0  0
  2  1  1  0
  2  3  1  0
  4  3  1  0
  5  4  1  0
  5  7  1  0
  5  6  1  6
  7  8  2  0
  9  7  1  0
  9 10  1  0
 10 14  1  0
 10 11  1  1
 12 11  1  0
 13 12  2  0
 14 15  2  0
 16 12  1  0
 17 21  1  0
 17 14  1  0
 18 17  1  0
 19 20  1  0
 19 18  1  0
 20 21  1  0
 21 22  1  1
 22 23  2  0
 22 24  1  0
M  END
$$$$
