MDP.pdb
     RDKit          3D

 24 24  0  0  1  0  0  0  0  0999 V2000
   13.3396  -11.5136  -14.1802 C   0  0  0  0  0  0  0  0  0  0  0  0
   12.9061  -12.4924  -15.6489 S   0  0  0  0  0  0  0  0  0  0  0  0
   14.3854  -12.5766  -16.6933 C   0  0  0  0  0  0  0  0  0  0  0  0
   15.5598  -11.8928  -16.0164 C   0  0  0  0  0  0  0  0  0  0  0  0
   16.7610  -12.0062  -16.9261 C   0  0  2  0  0  0  0  0  0  0  0  0
   17.2081  -13.3710  -16.8995 N   0  0  0  0  0  0  0  0  0  0  0  0
   17.8323  -11.0723  -16.4826 C   0  0  0  0  0  0  0  0  0  0  0  0
   18.6444  -11.4685  -15.6374 O   0  0  0  0  0  0  0  0  0  0  0  0
   17.8682   -9.7854  -17.0463 N   0  0  0  0  0  0  0  0  0  0  0  0
   18.8058   -8.7562  -16.7510 C   0  0  1  0  0  0  0  0  0  0  0  0
   18.8839   -7.6491  -17.7989 C   0  0  0  0  0  0  0  0  0  0  0  0
   19.9055   -6.6326  -17.4818 C   0  0  0  0  0  0  0  0  0  0  0  0
   19.7148   -5.4700  -17.0988 O   0  0  0  0  0  0  0  0  0  0  0  0
   18.7325   -8.2656  -15.3746 C   0  0  0  0  0  0  0  0  0  0  0  0
   17.5512   -8.0578  -14.9059 O   0  0  0  0  0  0  0  0  0  0  0  0
   21.2606   -7.0071  -17.6245 O   0  0  0  0  0  0  0  0  0  0  0  0
   19.8210   -8.0093  -14.5383 N   0  0  0  0  0  0  0  0  0  0  0  0
   21.2124   -8.2775  -14.8242 C   0  0  0  0  0  0  0  0  0  0  0  0
   21.6872   -8.7954  -13.4496 C   0  0  0  0  0  0  0  0  0  0  0  0
   21.0648   -7.7675  -12.5356 C   0  0  0  0  0  0  0  0  0  0  0  0
   19.7605   -7.4469  -13.1817 C   0  0  1  0  0  0  0  0  0  0  0  0
   19.5702   -5.9887  -13.2187 C   0  0  0  0  0  0  0  0  0  0  0  0
   19.6460   -5.3800  -14.3060 O   0  0  0  0  0  0  0  0  0  0  0  0
   19.3076   -5.2740  -12.0660 O   0  0  0  0  0  0  0  0  0  0  0  0
  2  1  1  0
  2  3  1  0
  4  3  1  0
  5  4  1  0
  5  7  1  0
  5  6  1  1
  7  8  2  0
  9  7  1  0
  9 10  1  0
 10 14  1  0
 10 11  1  6
 12 11  1  0
 13 12  2  0
 14 15  2  0
 16 12  1  0
 17 21  1  0
 17 14  1  0
 18 17  1  0
 19 20  1  0
 19 18  1  0
 20 21  1  0
 21 22  1  6
 22 23  2  0
 22 24  1  0
M  END
$$$$
