MDP.pdb
     RDKit          3D

 24 24  0  0  1  0  0  0  0  0999 V2000
   17.3417  -12.0049  -21.0701 C   0  0  0  0  0  0  0  0  0  0  0  0
   18.8095  -10.9332  -21.0769 S   0  0  0  0  0  0  0  0  0  0  0  0
   19.6108  -11.1107  -19.4605 C   0  0  0  0  0  0  0  0  0  0  0  0
   19.1635  -10.0094  -18.5160 C   0  0  0  0  0  0  0  0  0  0  0  0
   19.8266  -10.2367  -17.1775 C   0  0  2  0  0  0  0  0  0  0  0  0
   19.3302  -11.4740  -16.6427 N   0  0  0  0  0  0  0  0  0  0  0  0
   19.5454   -9.0955  -16.2635 C   0  0  0  0  0  0  0  0  0  0  0  0
   18.3977   -8.9672  -15.8197 O   0  0  0  0  0  0  0  0  0  0  0  0
   20.5986   -8.2193  -15.9500 N   0  0  0  0  0  0  0  0  0  0  0  0
   20.5301   -7.0823  -15.0968 C   0  0  1  0  0  0  0  0  0  0  0  0
   21.3152   -7.2176  -13.7949 C   0  0  0  0  0  0  0  0  0  0  0  0
   20.8230   -8.3164  -12.9418 C   0  0  0  0  0  0  0  0  0  0  0  0
   21.4366   -9.3385  -12.6047 O   0  0  0  0  0  0  0  0  0  0  0  0
   20.7421   -5.8101  -15.7876 C   0  0  0  0  0  0  0  0  0  0  0  0
   21.6599   -5.7982  -16.6908 O   0  0  0  0  0  0  0  0  0  0  0  0
   19.5052   -8.2107  -12.4426 O   0  0  0  0  0  0  0  0  0  0  0  0
   20.0410   -4.6254  -15.5537 N   0  0  0  0  0  0  0  0  0  0  0  0
   18.9374   -4.4407  -14.6385 C   0  0  0  0  0  0  0  0  0  0  0  0
   18.0270   -3.5191  -15.4783 C   0  0  0  0  0  0  0  0  0  0  0  0
   19.0385   -2.5233  -15.9925 C   0  0  0  0  0  0  0  0  0  0  0  0
   20.2662   -3.3363  -16.2229 C   0  0  1  0  0  0  0  0  0  0  0  0
   21.4343   -2.6418  -15.6596 C   0  0  0  0  0  0  0  0  0  0  0  0
   21.8667   -1.6078  -16.2097 O   0  0  0  0  0  0  0  0  0  0  0  0
   22.0669   -3.1141  -14.5260 O   0  0  0  0  0  0  0  0  0  0  0  0
  2  1  1  0
  2  3  1  0
  4  3  1  0
  5  4  1  0
  5  7  1  0
  5  6  1  1
  7  8  2  0
  9  7  1  0
  9 10  1  0
 10 14  1  0
 10 11  1  1
 12 11  1  0
 13 12  2  0
 14 15  2  0
 16 12  1  0
 17 21  1  0
 17 14  1  0
 18 17  1  0
 19 20  1  0
 19 18  1  0
 20 21  1  0
 21 22  1  1
 22 23  2  0
 22 24  1  0
M  END
$$$$
