MDP.pdb
     RDKit          3D

 24 24  0  0  1  0  0  0  0  0999 V2000
   28.0991  -11.5519  -15.2478 C   0  0  0  0  0  0  0  0  0  0  0  0
   27.7890  -13.1192  -16.1141 S   0  0  0  0  0  0  0  0  0  0  0  0
   26.0002  -13.4100  -16.0730 C   0  0  0  0  0  0  0  0  0  0  0  0
   25.2465  -12.1898  -16.5711 C   0  0  0  0  0  0  0  0  0  0  0  0
   23.7793  -12.5414  -16.6527 C   0  0  2  0  0  0  0  0  0  0  0  0
   23.6139  -13.5069  -17.7033 N   0  0  0  0  0  0  0  0  0  0  0  0
   22.9700  -11.3173  -16.9043 C   0  0  0  0  0  0  0  0  0  0  0  0
   23.0291  -10.7937  -18.0237 O   0  0  0  0  0  0  0  0  0  0  0  0
   22.1783  -10.8164  -15.8566 N   0  0  0  0  0  0  0  0  0  0  0  0
   21.3472   -9.6619  -15.8993 C   0  0  1  0  0  0  0  0  0  0  0  0
   19.9048   -9.9017  -15.4614 C   0  0  0  0  0  0  0  0  0  0  0  0
   19.0767   -8.6821  -15.5278 C   0  0  0  0  0  0  0  0  0  0  0  0
   18.7984   -8.0170  -16.5352 O   0  0  0  0  0  0  0  0  0  0  0  0
   21.9567   -8.4713  -15.3062 C   0  0  0  0  0  0  0  0  0  0  0  0
   22.5301   -8.6334  -14.1646 O   0  0  0  0  0  0  0  0  0  0  0  0
   18.5300   -8.2017  -14.3165 O   0  0  0  0  0  0  0  0  0  0  0  0
   21.9698   -7.1929  -15.8677 N   0  0  0  0  0  0  0  0  0  0  0  0
   21.4010   -6.8009  -17.1375 C   0  0  0  0  0  0  0  0  0  0  0  0
   22.4931   -5.8372  -17.6494 C   0  0  0  0  0  0  0  0  0  0  0  0
   22.7470   -5.0198  -16.4058 C   0  0  0  0  0  0  0  0  0  0  0  0
   22.5999   -5.9971  -15.2903 C   0  0  1  0  0  0  0  0  0  0  0  0
   21.7642   -5.4160  -14.2283 C   0  0  0  0  0  0  0  0  0  0  0  0
   22.2292   -4.5218  -13.4916 O   0  0  0  0  0  0  0  0  0  0  0  0
   20.4656   -5.8430  -14.0284 O   0  0  0  0  0  0  0  0  0  0  0  0
  2  1  1  0
  2  3  1  0
  4  3  1  0
  5  4  1  0
  5  7  1  0
  5  6  1  6
  7  8  2  0
  9  7  1  0
  9 10  1  0
 10 14  1  0
 10 11  1  1
 12 11  1  0
 13 12  2  0
 14 15  2  0
 16 12  1  0
 17 21  1  0
 17 14  1  0
 18 17  1  0
 19 20  1  0
 19 18  1  0
 20 21  1  0
 21 22  1  1
 22 23  2  0
 22 24  1  0
M  END
$$$$
