MDP.pdb
     RDKit          3D

 24 24  0  0  1  0  0  0  0  0999 V2000
   15.7172  -16.0181  -20.0757 C   0  0  0  0  0  0  0  0  0  0  0  0
   15.7099  -14.4028  -19.2427 S   0  0  0  0  0  0  0  0  0  0  0  0
   17.3319  -14.1955  -18.4603 C   0  0  0  0  0  0  0  0  0  0  0  0
   17.3625  -12.9350  -17.6145 C   0  0  0  0  0  0  0  0  0  0  0  0
   18.7335  -12.8180  -16.9902 C   0  0  2  0  0  0  0  0  0  0  0  0
   19.0255  -14.0593  -16.3290 N   0  0  0  0  0  0  0  0  0  0  0  0
   18.7704  -11.6720  -16.0404 C   0  0  0  0  0  0  0  0  0  0  0  0
   17.9662  -11.6620  -15.1003 O   0  0  0  0  0  0  0  0  0  0  0  0
   19.7177  -10.6571  -16.2592 N   0  0  0  0  0  0  0  0  0  0  0  0
   19.8587   -9.4538  -15.5124 C   0  0  1  0  0  0  0  0  0  0  0  0
   21.2770   -9.1732  -15.0230 C   0  0  0  0  0  0  0  0  0  0  0  0
   21.3797   -7.9153  -14.2584 C   0  0  0  0  0  0  0  0  0  0  0  0
   22.0264   -6.9029  -14.5609 O   0  0  0  0  0  0  0  0  0  0  0  0
   19.2026   -8.2975  -16.1232 C   0  0  0  0  0  0  0  0  0  0  0  0
   19.5122   -8.0479  -17.3480 O   0  0  0  0  0  0  0  0  0  0  0  0
   20.6677   -7.8358  -13.0403 O   0  0  0  0  0  0  0  0  0  0  0  0
   18.2806   -7.4553  -15.4983 N   0  0  0  0  0  0  0  0  0  0  0  0
   17.7059   -7.6275  -14.1832 C   0  0  0  0  0  0  0  0  0  0  0  0
   16.2475   -7.2010  -14.4556 C   0  0  0  0  0  0  0  0  0  0  0  0
   16.4717   -5.9431  -15.2597 C   0  0  0  0  0  0  0  0  0  0  0  0
   17.6838   -6.2417  -16.0739 C   0  0  1  0  0  0  0  0  0  0  0  0
   18.6178   -5.1071  -16.0078 C   0  0  0  0  0  0  0  0  0  0  0  0
   18.3255   -4.0290  -16.5653 O   0  0  0  0  0  0  0  0  0  0  0  0
   19.8207   -5.2114  -15.3364 O   0  0  0  0  0  0  0  0  0  0  0  0
  2  1  1  0
  2  3  1  0
  4  3  1  0
  5  4  1  0
  5  7  1  0
  5  6  1  1
  7  8  2  0
  9  7  1  0
  9 10  1  0
 10 14  1  0
 10 11  1  6
 12 11  1  0
 13 12  2  0
 14 15  2  0
 16 12  1  0
 17 21  1  0
 17 14  1  0
 18 17  1  0
 19 20  1  0
 19 18  1  0
 20 21  1  0
 21 22  1  1
 22 23  2  0
 22 24  1  0
M  END
$$$$
