MDP.pdb
     RDKit          3D

 24 24  0  0  1  0  0  0  0  0999 V2000
   29.4784  -20.7635  -11.2533 C   0  0  0  0  0  0  0  0  0  0  0  0
   27.9841  -21.6478  -10.7165 S   0  0  0  0  0  0  0  0  0  0  0  0
   26.6480  -20.4273  -10.6093 C   0  0  0  0  0  0  0  0  0  0  0  0
   26.0301  -20.1867  -11.9750 C   0  0  0  0  0  0  0  0  0  0  0  0
   25.4593  -21.4943  -12.4724 C   0  0  2  0  0  0  0  0  0  0  0  0
   26.5421  -22.2772  -12.9995 N   0  0  0  0  0  0  0  0  0  0  0  0
   24.4162  -21.2411  -13.5042 C   0  0  0  0  0  0  0  0  0  0  0  0
   24.7200  -21.3865  -14.6947 O   0  0  0  0  0  0  0  0  0  0  0  0
   23.1369  -20.8487  -13.0745 N   0  0  0  0  0  0  0  0  0  0  0  0
   22.0010  -20.6127  -13.8988 C   0  0  1  0  0  0  0  0  0  0  0  0
   20.6640  -20.6531  -13.1635 C   0  0  0  0  0  0  0  0  0  0  0  0
   20.4256  -21.9392  -12.4804 C   0  0  0  0  0  0  0  0  0  0  0  0
   20.5146  -23.0755  -12.9660 O   0  0  0  0  0  0  0  0  0  0  0  0
   22.1491  -19.4677  -14.7974 C   0  0  0  0  0  0  0  0  0  0  0  0
   22.7156  -18.4233  -14.3009 O   0  0  0  0  0  0  0  0  0  0  0  0
   20.0525  -21.8918  -11.1183 O   0  0  0  0  0  0  0  0  0  0  0  0
   21.7349  -19.4145  -16.1299 N   0  0  0  0  0  0  0  0  0  0  0  0
   21.1842  -20.5014  -16.9077 C   0  0  0  0  0  0  0  0  0  0  0  0
   21.8783  -20.2561  -18.2646 C   0  0  0  0  0  0  0  0  0  0  0  0
   21.6874  -18.7654  -18.4086 C   0  0  0  0  0  0  0  0  0  0  0  0
   21.8124  -18.2455  -17.0174 C   0  0  1  0  0  0  0  0  0  0  0  0
   20.7227  -17.2963  -16.7427 C   0  0  0  0  0  0  0  0  0  0  0  0
   20.7374  -16.1646  -17.2697 O   0  0  0  0  0  0  0  0  0  0  0  0
   19.6758  -17.6343  -15.9071 O   0  0  0  0  0  0  0  0  0  0  0  0
  2  1  1  0
  2  3  1  0
  4  3  1  0
  5  4  1  0
  5  7  1  0
  5  6  1  6
  7  8  2  0
  9  7  1  0
  9 10  1  0
 10 14  1  0
 10 11  1  1
 12 11  1  0
 13 12  2  0
 14 15  2  0
 16 12  1  0
 17 21  1  0
 17 14  1  0
 18 17  1  0
 19 20  1  0
 19 18  1  0
 20 21  1  0
 21 22  1  1
 22 23  2  0
 22 24  1  0
M  END
$$$$
