TKQ.pdb
     RDKit          3D

 26 25  0  0  1  0  0  0  0  0999 V2000
    6.9749  -17.8692   18.6395 C   0  0  0  0  0  0  0  0  0  0  0  0
    7.6352  -17.4226   19.9264 C   0  0  1  0  0  0  0  0  0  0  0  0
    8.7043  -18.2435   20.2166 O   0  0  0  0  0  0  0  0  0  0  0  0
    8.0684  -15.9753   19.8551 C   0  0  2  0  0  0  0  0  0  0  0  0
    9.0820  -15.8147   18.8345 N   0  0  0  0  0  0  0  0  0  0  0  0
    8.6418  -15.5083   21.1405 C   0  0  0  0  0  0  0  0  0  0  0  0
    9.8850  -15.5477   21.3778 O   0  0  0  0  0  0  0  0  0  0  0  0
    7.8277  -14.9949   22.1670 N   0  0  0  0  0  0  0  0  0  0  0  0
    8.3837  -14.5979   23.4834 C   0  0  1  0  0  0  0  0  0  0  0  0
    7.3460  -13.7897   24.1462 C   0  0  0  0  0  0  0  0  0  0  0  0
    7.5597  -13.3367   25.5349 C   0  0  0  0  0  0  0  0  0  0  0  0
    6.3312  -12.4637   25.8723 C   0  0  0  0  0  0  0  0  0  0  0  0
    6.4332  -11.9354   27.2812 C   0  0  0  0  0  0  0  0  0  0  0  0
    5.3546  -11.0021   27.5483 N   0  0  0  0  0  0  0  0  0  0  0  0
    8.8417  -15.8108   24.1445 C   0  0  0  0  0  0  0  0  0  0  0  0
    8.1397  -16.8504   24.1355 O   0  0  0  0  0  0  0  0  0  0  0  0
   14.5602  -20.2389   25.1395 N   0  0  0  0  0  0  0  0  0  0  0  0
   13.7543  -19.1600   24.6786 C   0  0  0  0  0  0  0  0  0  0  0  0
   14.1748  -18.5574   23.6326 O   0  0  0  0  0  0  0  0  0  0  0  0
   12.5082  -18.7405   25.3323 C   0  0  0  0  0  0  0  0  0  0  0  0
   11.8246  -17.5613   24.7523 C   0  0  0  0  0  0  0  0  0  0  0  0
   10.5909  -17.1390   25.4272 C   0  0  2  0  0  0  0  0  0  0  0  0
   10.0889  -15.8794   24.8214 N   0  0  0  0  0  0  0  0  0  0  0  0
   10.6016  -17.0634   26.8731 C   0  0  0  0  0  0  0  0  0  0  0  0
   10.7153  -18.1094   27.7749 O   0  0  0  0  0  0  0  0  0  0  0  0
   10.4846  -15.9106   27.4293 O   0  0  0  0  0  0  0  0  0  0  0  0
  2  1  1  6
  2  4  1  0
  2  3  1  0
  4  5  1  6
  6  4  1  0
  7  6  2  0
  8  6  1  0
  9  8  1  0
  9 10  1  1
 10 11  1  0
 11 12  1  0
 12 13  1  0
 13 14  1  0
 15 23  1  0
 15  9  1  0
 16 15  2  0
 17 18  1  0
 18 19  2  0
 20 18  1  0
 20 21  1  0
 22 21  1  6
 22 23  1  0
 24 22  1  0
 24 25  1  0
 26 24  2  0
M  END
$$$$
