TKQ.pdb
     RDKit          3D

 26 25  0  0  1  0  0  0  0  0999 V2000
    7.7480  -12.2552   19.7870 C   0  0  0  0  0  0  0  0  0  0  0  0
    7.6927  -13.6606   19.2273 C   0  0  1  0  0  0  0  0  0  0  0  0
    7.8883  -13.6320   17.8628 O   0  0  0  0  0  0  0  0  0  0  0  0
    8.7008  -14.5660   19.8993 C   0  0  2  0  0  0  0  0  0  0  0  0
    8.9524  -15.7244   19.0688 N   0  0  0  0  0  0  0  0  0  0  0  0
    8.2162  -15.0486   21.2150 C   0  0  0  0  0  0  0  0  0  0  0  0
    7.8925  -14.2544   22.1468 O   0  0  0  0  0  0  0  0  0  0  0  0
    8.0912  -16.4218   21.4956 N   0  0  0  0  0  0  0  0  0  0  0  0
    7.5119  -16.9115   22.7701 C   0  0  1  0  0  0  0  0  0  0  0  0
    6.8809  -18.2078   22.4688 C   0  0  0  0  0  0  0  0  0  0  0  0
    6.3836  -19.0451   23.5783 C   0  0  0  0  0  0  0  0  0  0  0  0
    5.7896  -20.3020   22.9059 C   0  0  0  0  0  0  0  0  0  0  0  0
    5.2204  -21.2346   23.9453 C   0  0  0  0  0  0  0  0  0  0  0  0
    4.6855  -22.4266   23.3136 N   0  0  0  0  0  0  0  0  0  0  0  0
    8.5687  -16.8735   23.7700 C   0  0  0  0  0  0  0  0  0  0  0  0
    9.7718  -16.9969   23.4366 O   0  0  0  0  0  0  0  0  0  0  0  0
    8.7583  -13.1895   28.8796 N   0  0  0  0  0  0  0  0  0  0  0  0
    9.8103  -14.1294   29.0685 C   0  0  0  0  0  0  0  0  0  0  0  0
   10.5015  -13.9855   30.1342 O   0  0  0  0  0  0  0  0  0  0  0  0
   10.1090  -15.2141   28.1251 C   0  0  0  0  0  0  0  0  0  0  0  0
    9.1362  -15.4187   27.0269 C   0  0  0  0  0  0  0  0  0  0  0  0
    9.3793  -16.5806   26.1629 C   0  0  2  0  0  0  0  0  0  0  0  0
    8.2966  -16.6951   25.1529 N   0  0  0  0  0  0  0  0  0  0  0  0
    9.6467  -17.8536   26.7989 C   0  0  0  0  0  0  0  0  0  0  0  0
   10.8494  -18.3041   27.3192 O   0  0  0  0  0  0  0  0  0  0  0  0
    8.6861  -18.7007   26.9065 O   0  0  0  0  0  0  0  0  0  0  0  0
  2  1  1  1
  2  4  1  0
  2  3  1  0
  4  5  1  6
  6  4  1  0
  7  6  2  0
  8  6  1  0
  9  8  1  0
  9 10  1  6
 10 11  1  0
 11 12  1  0
 12 13  1  0
 13 14  1  0
 15 23  1  0
 15  9  1  0
 16 15  2  0
 17 18  1  0
 18 19  2  0
 20 18  1  0
 20 21  1  0
 22 21  1  1
 22 23  1  0
 24 22  1  0
 24 25  1  0
 26 24  2  0
M  END
$$$$
