TKQ.pdb
     RDKit          3D

 26 25  0  0  1  0  0  0  0  0999 V2000
    8.6130  -20.0218   17.2867 C   0  0  0  0  0  0  0  0  0  0  0  0
    8.9952  -19.2174   18.5108 C   0  0  1  0  0  0  0  0  0  0  0  0
   10.0563  -19.8167   19.1556 O   0  0  0  0  0  0  0  0  0  0  0  0
    9.3189  -17.7836   18.1543 C   0  0  2  0  0  0  0  0  0  0  0  0
   10.4309  -17.7457   17.2286 N   0  0  0  0  0  0  0  0  0  0  0  0
    9.6970  -16.9912   19.3493 C   0  0  0  0  0  0  0  0  0  0  0  0
   10.9039  -16.8310   19.6976 O   0  0  0  0  0  0  0  0  0  0  0  0
    8.7274  -16.3737   20.1608 N   0  0  0  0  0  0  0  0  0  0  0  0
    9.0929  -15.6340   21.3933 C   0  0  1  0  0  0  0  0  0  0  0  0
    7.9805  -14.7087   21.6680 C   0  0  0  0  0  0  0  0  0  0  0  0
    7.9285  -13.4117   20.9649 C   0  0  0  0  0  0  0  0  0  0  0  0
    7.3823  -13.7331   19.5565 C   0  0  0  0  0  0  0  0  0  0  0  0
    7.2077  -12.4653   18.7588 C   0  0  0  0  0  0  0  0  0  0  0  0
    6.6945  -12.7693   17.4359 N   0  0  0  0  0  0  0  0  0  0  0  0
    9.4362  -16.6213   22.4061 C   0  0  0  0  0  0  0  0  0  0  0  0
    9.3655  -17.8484   22.1555 O   0  0  0  0  0  0  0  0  0  0  0  0
   12.0097  -20.2005   23.1629 N   0  0  0  0  0  0  0  0  0  0  0  0
   13.0204  -19.5953   23.9616 C   0  0  0  0  0  0  0  0  0  0  0  0
   13.8904  -20.3904   24.4565 O   0  0  0  0  0  0  0  0  0  0  0  0
   13.0965  -18.1515   24.2180 C   0  0  0  0  0  0  0  0  0  0  0  0
   12.0327  -17.3178   23.6118 C   0  0  0  0  0  0  0  0  0  0  0  0
   10.8696  -17.0424   24.4645 C   0  0  2  0  0  0  0  0  0  0  0  0
    9.8648  -16.2516   23.7092 N   0  0  0  0  0  0  0  0  0  0  0  0
   11.1097  -16.4784   25.7763 C   0  0  0  0  0  0  0  0  0  0  0  0
   10.7081  -15.2405   26.2522 O   0  0  0  0  0  0  0  0  0  0  0  0
   11.7788  -17.1689   26.6292 O   0  0  0  0  0  0  0  0  0  0  0  0
  2  1  1  6
  2  4  1  0
  2  3  1  0
  4  5  1  6
  6  4  1  0
  7  6  2  0
  8  6  1  0
  9  8  1  0
  9 10  1  1
 10 11  1  0
 11 12  1  0
 12 13  1  0
 13 14  1  0
 15 23  1  0
 15  9  1  0
 16 15  2  0
 17 18  1  0
 18 19  2  0
 20 18  1  0
 20 21  1  0
 22 21  1  6
 22 23  1  0
 24 22  1  0
 24 25  1  0
 26 24  2  0
M  END
$$$$
