TKQ.pdb
     RDKit          3D

 26 25  0  0  1  0  0  0  0  0999 V2000
    8.4303  -13.4479   18.6760 C   0  0  0  0  0  0  0  0  0  0  0  0
    8.3616  -14.3524   19.8880 C   0  0  1  0  0  0  0  0  0  0  0  0
    9.4770  -14.1678   20.6771 O   0  0  0  0  0  0  0  0  0  0  0  0
    7.0942  -14.1229   20.6809 C   0  0  2  0  0  0  0  0  0  0  0  0
    7.0052  -12.7331   21.0752 N   0  0  0  0  0  0  0  0  0  0  0  0
    7.0592  -14.9466   21.9134 C   0  0  0  0  0  0  0  0  0  0  0  0
    7.1825  -14.4392   23.0670 O   0  0  0  0  0  0  0  0  0  0  0  0
    6.8862  -16.3422   21.8621 N   0  0  0  0  0  0  0  0  0  0  0  0
    6.9749  -17.1879   23.0773 C   0  0  1  0  0  0  0  0  0  0  0  0
    6.4893  -18.5235   22.6904 C   0  0  0  0  0  0  0  0  0  0  0  0
    6.4445  -19.5975   23.7022 C   0  0  0  0  0  0  0  0  0  0  0  0
    5.8380  -20.8175   22.9750 C   0  0  0  0  0  0  0  0  0  0  0  0
    5.6711  -21.9705   23.9326 C   0  0  0  0  0  0  0  0  0  0  0  0
    5.0958  -23.1138   23.2488 N   0  0  0  0  0  0  0  0  0  0  0  0
    8.3313  -17.0682   23.5911 C   0  0  0  0  0  0  0  0  0  0  0  0
    9.2578  -16.6394   22.8621 O   0  0  0  0  0  0  0  0  0  0  0  0
    6.4738  -12.9646   26.1938 N   0  0  0  0  0  0  0  0  0  0  0  0
    7.6864  -13.0416   26.9351 C   0  0  0  0  0  0  0  0  0  0  0  0
    7.9673  -12.0211   27.6518 O   0  0  0  0  0  0  0  0  0  0  0  0
    8.5808  -14.2058   26.9098 C   0  0  0  0  0  0  0  0  0  0  0  0
    8.2889  -15.2389   25.8891 C   0  0  0  0  0  0  0  0  0  0  0  0
    9.1566  -16.4231   25.9088 C   0  0  2  0  0  0  0  0  0  0  0  0
    8.6699  -17.4230   24.9245 N   0  0  0  0  0  0  0  0  0  0  0  0
    9.4379  -17.0355   27.1903 C   0  0  0  0  0  0  0  0  0  0  0  0
   10.4974  -17.8665   27.5173 O   0  0  0  0  0  0  0  0  0  0  0  0
    8.6304  -16.8176   28.1662 O   0  0  0  0  0  0  0  0  0  0  0  0
  2  1  1  6
  2  4  1  0
  2  3  1  0
  4  5  1  1
  6  4  1  0
  7  6  2  0
  8  6  1  0
  9  8  1  0
  9 10  1  6
 10 11  1  0
 11 12  1  0
 12 13  1  0
 13 14  1  0
 15 23  1  0
 15  9  1  0
 16 15  2  0
 17 18  1  0
 18 19  2  0
 20 18  1  0
 20 21  1  0
 22 21  1  1
 22 23  1  0
 24 22  1  0
 24 25  1  0
 26 24  2  0
M  END
$$$$
