NSE.pdb
     RDKit          3D

 24 23  0  0  1  0  0  0  0  0999 V2000
   15.8256  -12.7698  -17.8489 N   0  0  0  0  0  0  0  0  0  0  0  0
   15.2926  -11.9363  -16.8402 C   0  0  0  0  0  0  0  0  0  0  0  0
   14.0436  -11.7343  -16.8930 O   0  0  0  0  0  0  0  0  0  0  0  0
   16.1293  -11.3436  -15.7958 C   0  0  0  0  0  0  0  0  0  0  0  0
   17.5711  -11.7057  -16.0011 C   0  0  2  0  0  0  0  0  0  0  0  0
   17.7206  -13.0735  -15.4798 N   0  0  0  0  0  0  0  0  0  0  0  0
   18.4328  -10.8785  -15.0816 C   0  0  0  0  0  0  0  0  0  0  0  0
   18.3513  -10.9896  -13.8384 O   0  0  0  0  0  0  0  0  0  0  0  0
   22.2470   -8.0179  -14.5919 O   0  0  0  0  0  0  0  0  0  0  0  0
   21.5177   -8.8538  -15.4041 C   0  0  0  0  0  0  0  0  0  0  0  0
   20.1742   -9.0923  -14.6856 C   0  0  2  0  0  0  0  0  0  0  0  0
   19.3820   -9.9321  -15.5680 N   0  0  0  0  0  0  0  0  0  0  0  0
   19.4911   -7.7806  -14.5723 C   0  0  0  0  0  0  0  0  0  0  0  0
   18.8793   -7.2592  -15.5676 O   0  0  0  0  0  0  0  0  0  0  0  0
   19.4641   -7.0163  -13.3760 N   0  0  0  0  0  0  0  0  0  0  0  0
   18.8734   -5.6726  -13.3044 C   0  0  1  0  0  0  0  0  0  0  0  0
   17.8534   -5.5781  -12.2411 C   0  0  0  0  0  0  0  0  0  0  0  0
   18.2972   -5.4442  -10.8485 C   0  0  0  0  0  0  0  0  0  0  0  0
   17.2522   -5.2497   -9.8543 C   0  0  0  0  0  0  0  0  0  0  0  0
   16.1520   -4.7021   -9.9499 O   0  0  0  0  0  0  0  0  0  0  0  0
   19.9223   -4.6666  -13.3925 C   0  0  0  0  0  0  0  0  0  0  0  0
   21.1486   -5.0208  -13.2566 O   0  0  0  0  0  0  0  0  0  0  0  0
   17.5603   -5.7824   -8.5643 O   0  0  0  0  0  0  0  0  0  0  0  0
   19.7362   -3.3070  -13.6164 O   0  0  0  0  0  0  0  0  0  0  0  0
  2  1  1  0
  2  3  2  0
  4  2  1  0
  5  4  1  0
  5  6  1  1
  7  8  2  0
  7  5  1  0
  9 10  1  0
 11 10  1  6
 11 12  1  0
 12  7  1  0
 13 11  1  0
 13 15  1  0
 14 13  2  0
 16 15  1  0
 16 21  1  0
 16 17  1  1
 18 17  1  0
 19 23  1  0
 19 18  1  0
 20 19  2  0
 21 22  2  0
 21 24  1  0
M  END
$$$$
