NSE.pdb
     RDKit          3D

 24 23  0  0  1  0  0  0  0  0999 V2000
   13.9737  -12.4021  -11.9194 N   0  0  0  0  0  0  0  0  0  0  0  0
   13.2355  -11.2005  -11.8310 C   0  0  0  0  0  0  0  0  0  0  0  0
   11.9763  -11.3274  -11.7896 O   0  0  0  0  0  0  0  0  0  0  0  0
   13.8835   -9.8890  -11.7869 C   0  0  0  0  0  0  0  0  0  0  0  0
   15.3735  -10.0286  -11.8983 C   0  0  2  0  0  0  0  0  0  0  0  0
   15.8332  -10.4977  -10.5816 N   0  0  0  0  0  0  0  0  0  0  0  0
   15.9981   -8.6628  -12.0271 C   0  0  0  0  0  0  0  0  0  0  0  0
   15.8774   -7.9881  -13.0735 O   0  0  0  0  0  0  0  0  0  0  0  0
   18.1656   -7.2016   -8.9494 O   0  0  0  0  0  0  0  0  0  0  0  0
   17.5546   -6.2115   -9.6820 C   0  0  0  0  0  0  0  0  0  0  0  0
   17.3935   -6.7670  -11.1115 C   0  0  2  0  0  0  0  0  0  0  0  0
   16.7537   -8.0646  -10.9762 N   0  0  0  0  0  0  0  0  0  0  0  0
   18.7542   -6.9860  -11.6598 C   0  0  0  0  0  0  0  0  0  0  0  0
   19.1791   -8.1597  -11.9401 O   0  0  0  0  0  0  0  0  0  0  0  0
   19.6728   -5.9327  -11.9103 N   0  0  0  0  0  0  0  0  0  0  0  0
   20.8694   -6.1036  -12.7461 C   0  0  1  0  0  0  0  0  0  0  0  0
   20.6271   -7.0343  -13.8665 C   0  0  0  0  0  0  0  0  0  0  0  0
   21.6923   -7.2393  -14.8553 C   0  0  0  0  0  0  0  0  0  0  0  0
   21.3973   -8.1660  -15.9382 C   0  0  0  0  0  0  0  0  0  0  0  0
   20.9432   -7.9576  -17.0652 O   0  0  0  0  0  0  0  0  0  0  0  0
   21.4828   -4.8080  -13.0012 C   0  0  0  0  0  0  0  0  0  0  0  0
   20.7346   -3.7901  -13.2288 O   0  0  0  0  0  0  0  0  0  0  0  0
   21.6836   -9.5335  -15.6373 O   0  0  0  0  0  0  0  0  0  0  0  0
   22.8465   -4.5386  -13.0275 O   0  0  0  0  0  0  0  0  0  0  0  0
  2  1  1  0
  2  3  2  0
  4  2  1  0
  5  4  1  0
  5  6  1  1
  7  8  2  0
  7  5  1  0
  9 10  1  0
 11 10  1  1
 11 12  1  0
 12  7  1  0
 13 11  1  0
 13 15  1  0
 14 13  2  0
 16 15  1  0
 16 21  1  0
 16 17  1  6
 18 17  1  0
 19 23  1  0
 19 18  1  0
 20 19  2  0
 21 22  2  0
 21 24  1  0
M  END
$$$$
