NSE.pdb
     RDKit          3D

 24 23  0  0  1  0  0  0  0  0999 V2000
   14.8986   -9.9347  -17.8880 N   0  0  0  0  0  0  0  0  0  0  0  0
   16.2521  -10.3199  -17.7610 C   0  0  0  0  0  0  0  0  0  0  0  0
   16.6316  -11.2624  -18.5169 O   0  0  0  0  0  0  0  0  0  0  0  0
   17.1624   -9.6700  -16.8171 C   0  0  0  0  0  0  0  0  0  0  0  0
   17.9384  -10.6915  -16.0384 C   0  0  2  0  0  0  0  0  0  0  0  0
   16.9851  -11.2793  -15.0841 N   0  0  0  0  0  0  0  0  0  0  0  0
   18.9416   -9.9945  -15.1553 C   0  0  0  0  0  0  0  0  0  0  0  0
   18.5779   -9.2812  -14.1943 O   0  0  0  0  0  0  0  0  0  0  0  0
   22.6943  -10.2243  -16.2630 O   0  0  0  0  0  0  0  0  0  0  0  0
   22.6991   -9.9226  -14.9216 C   0  0  0  0  0  0  0  0  0  0  0  0
   21.3138   -9.3220  -14.6078 C   0  0  2  0  0  0  0  0  0  0  0  0
   20.3484  -10.1061  -15.3591 N   0  0  0  0  0  0  0  0  0  0  0  0
   21.2953   -7.9403  -15.1468 C   0  0  0  0  0  0  0  0  0  0  0  0
   20.7397   -7.6689  -16.2669 O   0  0  0  0  0  0  0  0  0  0  0  0
   21.8812   -6.8340  -14.4769 N   0  0  0  0  0  0  0  0  0  0  0  0
   21.7749   -5.4557  -14.9754 C   0  0  1  0  0  0  0  0  0  0  0  0
   20.3999   -5.1331  -15.4061 C   0  0  0  0  0  0  0  0  0  0  0  0
   20.0849   -3.7491  -15.7801 C   0  0  0  0  0  0  0  0  0  0  0  0
   18.7148   -3.4895  -16.1969 C   0  0  0  0  0  0  0  0  0  0  0  0
   17.7473   -4.2495  -16.2761 O   0  0  0  0  0  0  0  0  0  0  0  0
   22.4843   -4.5512  -14.0817 C   0  0  0  0  0  0  0  0  0  0  0  0
   22.4621   -4.7686  -12.8169 O   0  0  0  0  0  0  0  0  0  0  0  0
   18.4602   -2.1342  -16.5721 O   0  0  0  0  0  0  0  0  0  0  0  0
   23.2137   -3.4301  -14.4613 O   0  0  0  0  0  0  0  0  0  0  0  0
  2  1  1  0
  2  3  2  0
  4  2  1  0
  5  4  1  0
  5  6  1  1
  7  8  2  0
  7  5  1  0
  9 10  1  0
 11 10  1  6
 11 12  1  0
 12  7  1  0
 13 11  1  0
 13 15  1  0
 14 13  2  0
 16 15  1  0
 16 21  1  0
 16 17  1  1
 18 17  1  0
 19 23  1  0
 19 18  1  0
 20 19  2  0
 21 22  2  0
 21 24  1  0
M  END
$$$$
