NSE.pdb
     RDKit          3D

 24 23  0  0  1  0  0  0  0  0999 V2000
   13.8576   -4.8549   -6.7763 N   0  0  0  0  0  0  0  0  0  0  0  0
   13.8640   -5.7338   -7.8826 C   0  0  0  0  0  0  0  0  0  0  0  0
   12.8827   -5.6303   -8.6762 O   0  0  0  0  0  0  0  0  0  0  0  0
   14.9383   -6.7032   -8.1019 C   0  0  0  0  0  0  0  0  0  0  0  0
   14.4594   -7.8439   -8.9513 C   0  0  2  0  0  0  0  0  0  0  0  0
   14.0043   -8.8813   -8.0123 N   0  0  0  0  0  0  0  0  0  0  0  0
   15.6356   -8.4828   -9.6444 C   0  0  0  0  0  0  0  0  0  0  0  0
   16.6197   -8.9066   -8.9990 O   0  0  0  0  0  0  0  0  0  0  0  0
   14.9567   -9.7403  -13.2322 O   0  0  0  0  0  0  0  0  0  0  0  0
   15.9548  -10.4527  -12.6106 C   0  0  0  0  0  0  0  0  0  0  0  0
   16.7103   -9.4495  -11.7157 C   0  0  2  0  0  0  0  0  0  0  0  0
   15.6957   -8.6418  -11.0601 N   0  0  0  0  0  0  0  0  0  0  0  0
   17.4935   -8.5597  -12.6073 C   0  0  0  0  0  0  0  0  0  0  0  0
   17.0027   -7.4674  -13.0576 O   0  0  0  0  0  0  0  0  0  0  0  0
   18.8207   -8.8450  -13.0232 N   0  0  0  0  0  0  0  0  0  0  0  0
   19.6010   -7.9335  -13.8717 C   0  0  1  0  0  0  0  0  0  0  0  0
   20.4102   -6.9950  -13.0688 C   0  0  0  0  0  0  0  0  0  0  0  0
   21.3171   -6.0736  -13.7637 C   0  0  0  0  0  0  0  0  0  0  0  0
   22.1697   -5.2491  -12.9200 C   0  0  0  0  0  0  0  0  0  0  0  0
   23.1327   -5.5578  -12.2150 O   0  0  0  0  0  0  0  0  0  0  0  0
   20.2223   -8.6793  -14.9569 C   0  0  0  0  0  0  0  0  0  0  0  0
   20.5612   -9.9028  -14.7679 O   0  0  0  0  0  0  0  0  0  0  0  0
   21.8280   -3.8613  -12.9151 O   0  0  0  0  0  0  0  0  0  0  0  0
   20.5020   -8.1935  -16.2293 O   0  0  0  0  0  0  0  0  0  0  0  0
  2  1  1  0
  2  3  2  0
  4  2  1  0
  5  4  1  0
  5  6  1  1
  7  8  2  0
  7  5  1  0
  9 10  1  0
 11 10  1  6
 11 12  1  0
 12  7  1  0
 13 11  1  0
 13 15  1  0
 14 13  2  0
 16 15  1  0
 16 21  1  0
 16 17  1  1
 18 17  1  0
 19 23  1  0
 19 18  1  0
 20 19  2  0
 21 22  2  0
 21 24  1  0
M  END
$$$$
