NDQ.pdb
     RDKit          3D

 26 25  0  0  1  0  0  0  0  0999 V2000
   14.3768  -13.9851  -15.5014 N   0  0  0  0  0  0  0  0  0  0  0  0
   15.7220  -13.6406  -15.8100 C   0  0  0  0  0  0  0  0  0  0  0  0
   16.6458  -14.4921  -15.7148 O   0  0  0  0  0  0  0  0  0  0  0  0
   16.0702  -12.2798  -16.2511 C   0  0  0  0  0  0  0  0  0  0  0  0
   17.2690  -11.7453  -15.4835 C   0  0  2  0  0  0  0  0  0  0  0  0
   16.9763  -11.8214  -14.0557 N   0  0  0  0  0  0  0  0  0  0  0  0
   17.4924  -10.3538  -15.8663 C   0  0  0  0  0  0  0  0  0  0  0  0
   17.8656  -10.0623  -17.0422 O   0  0  0  0  0  0  0  0  0  0  0  0
   17.3045   -9.2574  -14.9576 N   0  0  0  0  0  0  0  0  0  0  0  0
   17.6388   -7.9166  -15.3706 C   0  0  1  0  0  0  0  0  0  0  0  0
   16.5849   -6.9341  -14.8862 C   0  0  0  0  0  0  0  0  0  0  0  0
   16.9227   -5.5833  -15.3408 C   0  0  0  0  0  0  0  0  0  0  0  0
   17.1563   -4.6935  -14.4825 O   0  0  0  0  0  0  0  0  0  0  0  0
   18.9931   -7.4884  -14.8615 C   0  0  0  0  0  0  0  0  0  0  0  0
   19.3042   -7.7211  -13.6649 O   0  0  0  0  0  0  0  0  0  0  0  0
   16.9875   -5.2763  -16.6815 O   0  0  0  0  0  0  0  0  0  0  0  0
   23.9579   -7.7477  -18.1710 N   0  0  0  0  0  0  0  0  0  0  0  0
   24.6069   -7.3172  -16.9802 C   0  0  0  0  0  0  0  0  0  0  0  0
   25.8461   -7.3219  -16.8254 O   0  0  0  0  0  0  0  0  0  0  0  0
   23.7184   -6.8361  -15.8637 C   0  0  0  0  0  0  0  0  0  0  0  0
   22.2973   -6.9712  -16.3042 C   0  0  0  0  0  0  0  0  0  0  0  0
   21.3425   -6.6061  -15.2401 C   0  0  2  0  0  0  0  0  0  0  0  0
   19.9467   -6.8291  -15.6789 N   0  0  0  0  0  0  0  0  0  0  0  0
   21.4610   -5.2085  -14.7690 C   0  0  0  0  0  0  0  0  0  0  0  0
   22.3664   -4.8948  -13.9359 O   0  0  0  0  0  0  0  0  0  0  0  0
   20.6257   -4.1967  -15.1943 O   0  0  0  0  0  0  0  0  0  0  0  0
  2  1  1  0
  2  4  1  0
  3  2  2  0
  5  4  1  0
  5  6  1  1
  7  9  1  0
  7  5  1  0
  8  7  2  0
 10  9  1  0
 10 11  1  1
 12 16  1  0
 12 11  1  0
 13 12  2  0
 14 15  2  0
 14 10  1  0
 17 18  1  0
 18 19  2  0
 20 18  1  0
 20 21  1  0
 22 21  1  6
 22 23  1  0
 23 14  1  0
 24 22  1  0
 25 24  2  0
 26 24  1  0
M  END
$$$$
