NDQ.pdb
     RDKit          3D

 26 25  0  0  1  0  0  0  0  0999 V2000
   20.0161  -19.9221  -13.5539 N   0  0  0  0  0  0  0  0  0  0  0  0
   20.8268  -20.0039  -14.7200 C   0  0  0  0  0  0  0  0  0  0  0  0
   21.1102  -21.1190  -15.2336 O   0  0  0  0  0  0  0  0  0  0  0  0
   21.3545  -18.7871  -15.3590 C   0  0  0  0  0  0  0  0  0  0  0  0
   20.9075  -17.5394  -14.6138 C   0  0  2  0  0  0  0  0  0  0  0  0
   19.5020  -17.6943  -14.2523 N   0  0  0  0  0  0  0  0  0  0  0  0
   21.0650  -16.3833  -15.4920 C   0  0  0  0  0  0  0  0  0  0  0  0
   22.2051  -16.0773  -15.9541 O   0  0  0  0  0  0  0  0  0  0  0  0
   19.9648  -15.5448  -15.8787 N   0  0  0  0  0  0  0  0  0  0  0  0
   20.1905  -14.4230  -16.7568 C   0  0  1  0  0  0  0  0  0  0  0  0
   18.9160  -14.0722  -17.5073 C   0  0  0  0  0  0  0  0  0  0  0  0
   19.1875  -13.0001  -18.4676 C   0  0  0  0  0  0  0  0  0  0  0  0
   19.5308  -11.8693  -18.0355 O   0  0  0  0  0  0  0  0  0  0  0  0
   20.6805  -13.2079  -16.0084 C   0  0  0  0  0  0  0  0  0  0  0  0
   20.0826  -12.8445  -14.9629 O   0  0  0  0  0  0  0  0  0  0  0  0
   19.0735  -13.2100  -19.8236 O   0  0  0  0  0  0  0  0  0  0  0  0
   26.2739  -10.6708  -16.5222 N   0  0  0  0  0  0  0  0  0  0  0  0
   25.7857   -9.8165  -15.4946 C   0  0  0  0  0  0  0  0  0  0  0  0
   26.4803   -8.9472  -14.9275 O   0  0  0  0  0  0  0  0  0  0  0  0
   24.3462   -9.9992  -15.0922 C   0  0  0  0  0  0  0  0  0  0  0  0
   23.7659  -11.1026  -15.9153 C   0  0  0  0  0  0  0  0  0  0  0  0
   22.3334  -11.3184  -15.6351 C   0  0  2  0  0  0  0  0  0  0  0  0
   21.8000  -12.4463  -16.4313 N   0  0  0  0  0  0  0  0  0  0  0  0
   21.4799  -10.1350  -15.8810 C   0  0  0  0  0  0  0  0  0  0  0  0
   21.1956   -9.7944  -17.0707 O   0  0  0  0  0  0  0  0  0  0  0  0
   20.9573   -9.3592  -14.8674 O   0  0  0  0  0  0  0  0  0  0  0  0
  2  1  1  0
  2  4  1  0
  3  2  2  0
  5  4  1  0
  5  6  1  6
  7  9  1  0
  7  5  1  0
  8  7  2  0
 10  9  1  0
 10 11  1  1
 12 16  1  0
 12 11  1  0
 13 12  2  0
 14 15  2  0
 14 10  1  0
 17 18  1  0
 18 19  2  0
 20 18  1  0
 20 21  1  0
 22 21  1  6
 22 23  1  0
 23 14  1  0
 24 22  1  0
 25 24  2  0
 26 24  1  0
M  END
$$$$
