NDQ.pdb
     RDKit          3D

 26 25  0  0  1  0  0  0  0  0999 V2000
   16.6627  -15.7754  -14.7207 N   0  0  0  0  0  0  0  0  0  0  0  0
   16.0827  -14.4798  -14.8135 C   0  0  0  0  0  0  0  0  0  0  0  0
   14.9262  -14.3215  -15.2879 O   0  0  0  0  0  0  0  0  0  0  0  0
   16.8180  -13.2894  -14.3555 C   0  0  0  0  0  0  0  0  0  0  0  0
   16.0147  -12.0219  -14.6002 C   0  0  2  0  0  0  0  0  0  0  0  0
   15.9208  -11.8037  -16.0403 N   0  0  0  0  0  0  0  0  0  0  0  0
   16.7062  -10.8970  -13.9764 C   0  0  0  0  0  0  0  0  0  0  0  0
   17.0685  -10.9577  -12.7631 O   0  0  0  0  0  0  0  0  0  0  0  0
   17.0134   -9.6845  -14.6825 N   0  0  0  0  0  0  0  0  0  0  0  0
   17.5562   -8.5551  -13.9685 C   0  0  1  0  0  0  0  0  0  0  0  0
   18.3773   -7.6816  -14.9030 C   0  0  0  0  0  0  0  0  0  0  0  0
   18.9114   -6.5345  -14.1651 C   0  0  0  0  0  0  0  0  0  0  0  0
   18.4721   -5.3850  -14.4272 O   0  0  0  0  0  0  0  0  0  0  0  0
   16.4767   -7.7208  -13.3239 C   0  0  0  0  0  0  0  0  0  0  0  0
   15.4524   -7.4170  -13.9882 O   0  0  0  0  0  0  0  0  0  0  0  0
   19.8782   -6.6949  -13.1980 O   0  0  0  0  0  0  0  0  0  0  0  0
   15.4699   -6.9553   -7.3055 N   0  0  0  0  0  0  0  0  0  0  0  0
   14.3981   -6.1443   -7.7722 C   0  0  0  0  0  0  0  0  0  0  0  0
   13.5252   -5.6526   -7.0266 O   0  0  0  0  0  0  0  0  0  0  0  0
   14.3434   -5.8858   -9.2546 C   0  0  0  0  0  0  0  0  0  0  0  0
   15.4636   -6.6326   -9.9022 C   0  0  0  0  0  0  0  0  0  0  0  0
   15.4951   -6.4402  -11.3648 C   0  0  2  0  0  0  0  0  0  0  0  0
   16.5611   -7.2579  -11.9857 N   0  0  0  0  0  0  0  0  0  0  0  0
   15.6834   -5.0356  -11.7903 C   0  0  0  0  0  0  0  0  0  0  0  0
   14.7027   -4.2293  -11.7674 O   0  0  0  0  0  0  0  0  0  0  0  0
   16.8944   -4.5342  -12.2195 O   0  0  0  0  0  0  0  0  0  0  0  0
  2  1  1  0
  2  4  1  0
  3  2  2  0
  5  4  1  0
  5  6  1  6
  7  9  1  0
  7  5  1  0
  8  7  2  0
 10  9  1  0
 10 11  1  6
 12 16  1  0
 12 11  1  0
 13 12  2  0
 14 15  2  0
 14 10  1  0
 17 18  1  0
 18 19  2  0
 20 18  1  0
 20 21  1  0
 22 21  1  1
 22 23  1  0
 23 14  1  0
 24 22  1  0
 25 24  2  0
 26 24  1  0
M  END
$$$$
