NDQ.pdb
     RDKit          3D

 26 25  0  0  1  0  0  0  0  0999 V2000
   14.4773  -12.2944  -10.2234 N   0  0  0  0  0  0  0  0  0  0  0  0
   15.6743  -11.8433  -10.8458 C   0  0  0  0  0  0  0  0  0  0  0  0
   16.5114  -12.6635  -11.3084 O   0  0  0  0  0  0  0  0  0  0  0  0
   15.9655  -10.4054  -10.9678 C   0  0  0  0  0  0  0  0  0  0  0  0
   14.9219   -9.5717  -10.2414 C   0  0  2  0  0  0  0  0  0  0  0  0
   13.6357   -9.7585  -10.9054 N   0  0  0  0  0  0  0  0  0  0  0  0
   15.3106   -8.1656  -10.3086 C   0  0  0  0  0  0  0  0  0  0  0  0
   15.1793   -7.5130  -11.3874 O   0  0  0  0  0  0  0  0  0  0  0  0
   15.8491   -7.4530   -9.1838 N   0  0  0  0  0  0  0  0  0  0  0  0
   16.1733   -6.0531   -9.3085 C   0  0  1  0  0  0  0  0  0  0  0  0
   15.8775   -5.3224   -8.0089 C   0  0  0  0  0  0  0  0  0  0  0  0
   14.4487   -5.0090   -7.9327 C   0  0  0  0  0  0  0  0  0  0  0  0
   13.7857   -4.9304   -8.9992 O   0  0  0  0  0  0  0  0  0  0  0  0
   17.6185   -5.8381   -9.6852 C   0  0  0  0  0  0  0  0  0  0  0  0
   18.5235   -6.3513   -8.9778 O   0  0  0  0  0  0  0  0  0  0  0  0
   13.8267   -4.8009   -6.7220 O   0  0  0  0  0  0  0  0  0  0  0  0
   22.1352   -8.4351  -13.8528 N   0  0  0  0  0  0  0  0  0  0  0  0
   21.2010   -8.1597  -12.8156 C   0  0  0  0  0  0  0  0  0  0  0  0
   20.5651   -9.0428  -12.2028 O   0  0  0  0  0  0  0  0  0  0  0  0
   20.9911   -6.7107  -12.4636 C   0  0  0  0  0  0  0  0  0  0  0  0
   19.6548   -6.5762  -11.8093 C   0  0  0  0  0  0  0  0  0  0  0  0
   19.3627   -5.1861  -11.4099 C   0  0  2  0  0  0  0  0  0  0  0  0
   18.0116   -5.0766  -10.8156 N   0  0  0  0  0  0  0  0  0  0  0  0
   19.4646   -4.2021  -12.5102 C   0  0  0  0  0  0  0  0  0  0  0  0
   18.4189   -3.8297  -13.1265 O   0  0  0  0  0  0  0  0  0  0  0  0
   20.6602   -3.6472  -12.9163 O   0  0  0  0  0  0  0  0  0  0  0  0
  2  1  1  0
  2  4  1  0
  3  2  2  0
  5  4  1  0
  5  6  1  6
  7  9  1  0
  7  5  1  0
  8  7  2  0
 10  9  1  0
 10 11  1  1
 12 16  1  0
 12 11  1  0
 13 12  2  0
 14 15  2  0
 14 10  1  0
 17 18  1  0
 18 19  2  0
 20 18  1  0
 20 21  1  0
 22 21  1  6
 22 23  1  0
 23 14  1  0
 24 22  1  0
 25 24  2  0
 26 24  1  0
M  END
$$$$
