NDQ.pdb
     RDKit          3D

 26 25  0  0  1  0  0  0  0  0999 V2000
   20.4575  -18.7126  -15.0125 N   0  0  0  0  0  0  0  0  0  0  0  0
   19.4292  -17.8657  -15.5113 C   0  0  0  0  0  0  0  0  0  0  0  0
   18.2145  -18.1508  -15.3356 O   0  0  0  0  0  0  0  0  0  0  0  0
   19.7573  -16.6319  -16.2446 C   0  0  0  0  0  0  0  0  0  0  0  0
   19.5648  -15.4055  -15.3666 C   0  0  2  0  0  0  0  0  0  0  0  0
   18.2446  -15.4805  -14.7489 N   0  0  0  0  0  0  0  0  0  0  0  0
   19.6505  -14.2098  -16.2006 C   0  0  0  0  0  0  0  0  0  0  0  0
   20.7215  -13.9329  -16.8196 O   0  0  0  0  0  0  0  0  0  0  0  0
   18.5529  -13.2988  -16.3690 N   0  0  0  0  0  0  0  0  0  0  0  0
   18.7461  -12.0673  -17.0945 C   0  0  1  0  0  0  0  0  0  0  0  0
   17.5268  -11.7575  -17.9477 C   0  0  0  0  0  0  0  0  0  0  0  0
   17.8149  -10.6219  -18.8270 C   0  0  0  0  0  0  0  0  0  0  0  0
   18.3151   -9.5798  -18.3301 O   0  0  0  0  0  0  0  0  0  0  0  0
   19.0201  -10.9043  -16.1730 C   0  0  0  0  0  0  0  0  0  0  0  0
   18.4105  -10.8301  -15.0750 O   0  0  0  0  0  0  0  0  0  0  0  0
   17.5484  -10.6781  -20.1766 O   0  0  0  0  0  0  0  0  0  0  0  0
   23.7635   -6.9539  -16.7110 N   0  0  0  0  0  0  0  0  0  0  0  0
   23.2490   -6.4481  -15.4847 C   0  0  0  0  0  0  0  0  0  0  0  0
   23.7773   -5.5161  -14.8430 O   0  0  0  0  0  0  0  0  0  0  0  0
   21.9960   -7.0976  -14.9595 C   0  0  0  0  0  0  0  0  0  0  0  0
   21.5485   -8.1222  -15.9505 C   0  0  0  0  0  0  0  0  0  0  0  0
   20.3363   -8.8383  -15.5091 C   0  0  2  0  0  0  0  0  0  0  0  0
   19.9466   -9.8774  -16.4883 N   0  0  0  0  0  0  0  0  0  0  0  0
   19.1657   -7.9649  -15.2718 C   0  0  0  0  0  0  0  0  0  0  0  0
   18.3694   -7.6991  -16.2244 O   0  0  0  0  0  0  0  0  0  0  0  0
   18.8774   -7.4087  -14.0430 O   0  0  0  0  0  0  0  0  0  0  0  0
  2  1  1  0
  2  4  1  0
  3  2  2  0
  5  4  1  0
  5  6  1  6
  7  9  1  0
  7  5  1  0
  8  7  2  0
 10  9  1  0
 10 11  1  1
 12 16  1  0
 12 11  1  0
 13 12  2  0
 14 15  2  0
 14 10  1  0
 17 18  1  0
 18 19  2  0
 20 18  1  0
 20 21  1  0
 22 21  1  6
 22 23  1  0
 23 14  1  0
 24 22  1  0
 25 24  2  0
 26 24  1  0
M  END
$$$$
