NDQ.pdb
     RDKit          3D

 26 25  0  0  1  0  0  0  0  0999 V2000
   32.3818  -31.8218  -18.0083 N   0  0  0  0  0  0  0  0  0  0  0  0
   31.2807  -30.9539  -17.7680 C   0  0  0  0  0  0  0  0  0  0  0  0
   31.4645  -29.7607  -17.4074 O   0  0  0  0  0  0  0  0  0  0  0  0
   29.8966  -31.4266  -17.9363 C   0  0  0  0  0  0  0  0  0  0  0  0
   29.0092  -30.9371  -16.8029 C   0  0  2  0  0  0  0  0  0  0  0  0
   29.8571  -30.5946  -15.6654 N   0  0  0  0  0  0  0  0  0  0  0  0
   28.0904  -32.0081  -16.4266 C   0  0  0  0  0  0  0  0  0  0  0  0
   27.2703  -32.4782  -17.2712 O   0  0  0  0  0  0  0  0  0  0  0  0
   28.0626  -32.5821  -15.1102 N   0  0  0  0  0  0  0  0  0  0  0  0
   27.1383  -33.6481  -14.8107 C   0  0  1  0  0  0  0  0  0  0  0  0
   27.3777  -34.8324  -15.7331 C   0  0  0  0  0  0  0  0  0  0  0  0
   26.3717  -35.8666  -15.4804 C   0  0  0  0  0  0  0  0  0  0  0  0
   25.1737  -35.6380  -15.7898 O   0  0  0  0  0  0  0  0  0  0  0  0
   27.2439  -34.1026  -13.3758 C   0  0  0  0  0  0  0  0  0  0  0  0
   28.2345  -34.7906  -13.0178 O   0  0  0  0  0  0  0  0  0  0  0  0
   26.7150  -37.0738  -14.9141 O   0  0  0  0  0  0  0  0  0  0  0  0
   24.2776  -31.5813   -8.6129 N   0  0  0  0  0  0  0  0  0  0  0  0
   25.0777  -32.4902   -7.8659 C   0  0  0  0  0  0  0  0  0  0  0  0
   25.1687  -32.4719   -6.6205 O   0  0  0  0  0  0  0  0  0  0  0  0
   25.8457  -33.5182   -8.6540 C   0  0  0  0  0  0  0  0  0  0  0  0
   25.6187  -33.2597  -10.1079 C   0  0  0  0  0  0  0  0  0  0  0  0
   26.4412  -34.1317  -10.9683 C   0  0  2  0  0  0  0  0  0  0  0  0
   26.2678  -33.7852  -12.3967 N   0  0  0  0  0  0  0  0  0  0  0  0
   26.1694  -35.5772  -10.8072 C   0  0  0  0  0  0  0  0  0  0  0  0
   26.9202  -36.2849  -10.0671 O   0  0  0  0  0  0  0  0  0  0  0  0
   25.1185  -36.2200  -11.4275 O   0  0  0  0  0  0  0  0  0  0  0  0
  2  1  1  0
  2  4  1  0
  3  2  2  0
  5  4  1  0
  5  6  1  1
  7  9  1  0
  7  5  1  0
  8  7  2  0
 10  9  1  0
 10 11  1  6
 12 16  1  0
 12 11  1  0
 13 12  2  0
 14 15  2  0
 14 10  1  0
 17 18  1  0
 18 19  2  0
 20 18  1  0
 20 21  1  0
 22 21  1  1
 22 23  1  0
 23 14  1  0
 24 22  1  0
 25 24  2  0
 26 24  1  0
M  END
$$$$
