NDQ.pdb
     RDKit          3D

 26 25  0  0  1  0  0  0  0  0999 V2000
   29.4341  -18.0162  -18.1589 N   0  0  0  0  0  0  0  0  0  0  0  0
   28.0368  -17.7516  -18.1929 C   0  0  0  0  0  0  0  0  0  0  0  0
   27.5742  -16.8069  -18.8865 O   0  0  0  0  0  0  0  0  0  0  0  0
   27.0937  -18.5764  -17.4198 C   0  0  0  0  0  0  0  0  0  0  0  0
   27.8321  -19.5413  -16.5056 C   0  0  2  0  0  0  0  0  0  0  0  0
   28.4543  -20.5742  -17.3279 N   0  0  0  0  0  0  0  0  0  0  0  0
   26.8721  -20.1529  -15.5907 C   0  0  0  0  0  0  0  0  0  0  0  0
   25.8554  -20.7632  -16.0389 O   0  0  0  0  0  0  0  0  0  0  0  0
   27.0191  -20.1044  -14.1627 N   0  0  0  0  0  0  0  0  0  0  0  0
   26.0095  -20.6911  -13.3162 C   0  0  1  0  0  0  0  0  0  0  0  0
   26.4897  -20.7417  -11.8749 C   0  0  0  0  0  0  0  0  0  0  0  0
   25.5300  -21.4911  -11.0606 C   0  0  0  0  0  0  0  0  0  0  0  0
   24.7335  -20.8565  -10.3217 O   0  0  0  0  0  0  0  0  0  0  0  0
   24.7055  -19.9347  -13.3826 C   0  0  0  0  0  0  0  0  0  0  0  0
   24.7087  -18.6854  -13.2344 O   0  0  0  0  0  0  0  0  0  0  0  0
   25.4879  -22.8669  -11.0917 O   0  0  0  0  0  0  0  0  0  0  0  0
   20.5260  -17.5069  -16.2483 N   0  0  0  0  0  0  0  0  0  0  0  0
   21.1840  -18.5791  -16.9130 C   0  0  0  0  0  0  0  0  0  0  0  0
   21.0035  -18.8644  -18.1154 O   0  0  0  0  0  0  0  0  0  0  0  0
   22.1445  -19.3957  -16.0896 C   0  0  0  0  0  0  0  0  0  0  0  0
   22.2156  -18.7977  -14.7224 C   0  0  0  0  0  0  0  0  0  0  0  0
   22.1852  -19.8210  -13.6598 C   0  0  2  0  0  0  0  0  0  0  0  0
   23.4591  -20.5728  -13.6094 N   0  0  0  0  0  0  0  0  0  0  0  0
   21.0784  -20.7950  -13.7839 C   0  0  0  0  0  0  0  0  0  0  0  0
   19.8775  -20.4136  -13.6270 O   0  0  0  0  0  0  0  0  0  0  0  0
   21.2776  -22.1293  -14.0707 O   0  0  0  0  0  0  0  0  0  0  0  0
  2  1  1  0
  2  4  1  0
  3  2  2  0
  5  4  1  0
  5  6  1  6
  7  9  1  0
  7  5  1  0
  8  7  2  0
 10  9  1  0
 10 11  1  1
 12 16  1  0
 12 11  1  0
 13 12  2  0
 14 15  2  0
 14 10  1  0
 17 18  1  0
 18 19  2  0
 20 18  1  0
 20 21  1  0
 22 21  1  6
 22 23  1  0
 23 14  1  0
 24 22  1  0
 25 24  2  0
 26 24  1  0
M  END
$$$$
