NDQ.pdb
     RDKit          3D

 26 25  0  0  1  0  0  0  0  0999 V2000
   16.0640  -13.4168  -15.4180 N   0  0  0  0  0  0  0  0  0  0  0  0
   16.9576  -12.6059  -14.6646 C   0  0  0  0  0  0  0  0  0  0  0  0
   17.5379  -13.0603  -13.6427 O   0  0  0  0  0  0  0  0  0  0  0  0
   17.2296  -11.2142  -15.0605 C   0  0  0  0  0  0  0  0  0  0  0  0
   16.4358  -10.8324  -16.2998 C   0  0  2  0  0  0  0  0  0  0  0  0
   17.0962  -11.4063  -17.4680 N   0  0  0  0  0  0  0  0  0  0  0  0
   16.4110   -9.3767  -16.4144 C   0  0  0  0  0  0  0  0  0  0  0  0
   17.1805   -8.7825  -17.2279 O   0  0  0  0  0  0  0  0  0  0  0  0
   15.5328   -8.5500  -15.6343 N   0  0  0  0  0  0  0  0  0  0  0  0
   15.5813   -7.1156  -15.7771 C   0  0  1  0  0  0  0  0  0  0  0  0
   14.3531   -6.4783  -15.1478 C   0  0  0  0  0  0  0  0  0  0  0  0
   13.1588   -6.8482  -15.9111 C   0  0  0  0  0  0  0  0  0  0  0  0
   12.4715   -7.8295  -15.5268 O   0  0  0  0  0  0  0  0  0  0  0  0
   16.8239   -6.5266  -15.1560 C   0  0  0  0  0  0  0  0  0  0  0  0
   17.3927   -7.1379  -14.2150 O   0  0  0  0  0  0  0  0  0  0  0  0
   12.7814   -6.1441  -17.0325 O   0  0  0  0  0  0  0  0  0  0  0  0
   20.8170   -7.6015  -13.6968 N   0  0  0  0  0  0  0  0  0  0  0  0
   21.6384   -6.4636  -13.9309 C   0  0  0  0  0  0  0  0  0  0  0  0
   22.7554   -6.2935  -13.3989 O   0  0  0  0  0  0  0  0  0  0  0  0
   21.0985   -5.4251  -14.8783 C   0  0  0  0  0  0  0  0  0  0  0  0
   19.7473   -5.8670  -15.3377 C   0  0  0  0  0  0  0  0  0  0  0  0
   18.7155   -4.8347  -15.1213 C   0  0  2  0  0  0  0  0  0  0  0  0
   17.3911   -5.3007  -15.5896 N   0  0  0  0  0  0  0  0  0  0  0  0
   19.0056   -3.5379  -15.7721 C   0  0  0  0  0  0  0  0  0  0  0  0
   19.8679   -2.7542  -15.2677 O   0  0  0  0  0  0  0  0  0  0  0  0
   18.3804   -3.1183  -16.9277 O   0  0  0  0  0  0  0  0  0  0  0  0
  2  1  1  0
  2  4  1  0
  3  2  2  0
  5  4  1  0
  5  6  1  6
  7  9  1  0
  7  5  1  0
  8  7  2  0
 10  9  1  0
 10 11  1  1
 12 16  1  0
 12 11  1  0
 13 12  2  0
 14 15  2  0
 14 10  1  0
 17 18  1  0
 18 19  2  0
 20 18  1  0
 20 21  1  0
 22 21  1  6
 22 23  1  0
 23 14  1  0
 24 22  1  0
 25 24  2  0
 26 24  1  0
M  END
$$$$
