NDQ.pdb
     RDKit          3D

 26 25  0  0  1  0  0  0  0  0999 V2000
   30.5188  -24.2772  -16.5167 N   0  0  0  0  0  0  0  0  0  0  0  0
   29.4469  -23.6841  -17.2397 C   0  0  0  0  0  0  0  0  0  0  0  0
   29.2649  -23.9475  -18.4584 O   0  0  0  0  0  0  0  0  0  0  0  0
   28.5202  -22.7480  -16.5822 C   0  0  0  0  0  0  0  0  0  0  0  0
   28.0699  -21.6582  -17.5422 C   0  0  2  0  0  0  0  0  0  0  0  0
   29.2215  -20.8226  -17.8674 N   0  0  0  0  0  0  0  0  0  0  0  0
   27.0436  -20.8494  -16.8903 C   0  0  0  0  0  0  0  0  0  0  0  0
   27.3558  -20.0304  -15.9744 O   0  0  0  0  0  0  0  0  0  0  0  0
   25.6528  -20.9279  -17.2403 N   0  0  0  0  0  0  0  0  0  0  0  0
   24.6855  -20.1340  -16.5230 C   0  0  1  0  0  0  0  0  0  0  0  0
   23.5130  -19.7843  -17.4249 C   0  0  0  0  0  0  0  0  0  0  0  0
   22.5722  -18.9257  -16.7014 C   0  0  0  0  0  0  0  0  0  0  0  0
   21.5535  -19.4462  -16.1775 O   0  0  0  0  0  0  0  0  0  0  0  0
   24.1754  -20.8401  -15.2910 C   0  0  0  0  0  0  0  0  0  0  0  0
   23.9461  -22.0762  -15.3387 O   0  0  0  0  0  0  0  0  0  0  0  0
   22.7847  -17.5701  -16.5878 O   0  0  0  0  0  0  0  0  0  0  0  0
   26.0879  -20.0521   -9.7581 N   0  0  0  0  0  0  0  0  0  0  0  0
   25.0582  -20.9664   -9.4002 C   0  0  0  0  0  0  0  0  0  0  0  0
   24.9921  -21.5366   -8.2911 O   0  0  0  0  0  0  0  0  0  0  0  0
   24.0058  -21.2392  -10.4421 C   0  0  0  0  0  0  0  0  0  0  0  0
   24.3906  -20.5232  -11.6956 C   0  0  0  0  0  0  0  0  0  0  0  0
   23.5293  -20.8873  -12.8370 C   0  0  2  0  0  0  0  0  0  0  0  0
   23.9407  -20.1686  -14.0637 N   0  0  0  0  0  0  0  0  0  0  0  0
   22.0879  -20.6370  -12.6163 C   0  0  0  0  0  0  0  0  0  0  0  0
   21.3013  -21.6099  -12.3992 O   0  0  0  0  0  0  0  0  0  0  0  0
   21.5316  -19.3750  -12.6297 O   0  0  0  0  0  0  0  0  0  0  0  0
  2  1  1  0
  2  4  1  0
  3  2  2  0
  5  4  1  0
  5  6  1  1
  7  9  1  0
  7  5  1  0
  8  7  2  0
 10  9  1  0
 10 11  1  6
 12 16  1  0
 12 11  1  0
 13 12  2  0
 14 15  2  0
 14 10  1  0
 17 18  1  0
 18 19  2  0
 20 18  1  0
 20 21  1  0
 22 21  1  1
 22 23  1  0
 23 14  1  0
 24 22  1  0
 25 24  2  0
 26 24  1  0
M  END
$$$$
