NDQ.pdb
     RDKit          3D

 26 25  0  0  1  0  0  0  0  0999 V2000
   11.7250  -10.2785   -8.2545 N   0  0  0  0  0  0  0  0  0  0  0  0
   12.5494  -10.9824   -9.1756 C   0  0  0  0  0  0  0  0  0  0  0  0
   12.1532  -12.0514   -9.7121 O   0  0  0  0  0  0  0  0  0  0  0  0
   13.8871  -10.4789   -9.5282 C   0  0  0  0  0  0  0  0  0  0  0  0
   13.8071   -9.4421  -10.6375 C   0  0  2  0  0  0  0  0  0  0  0  0
   13.3637  -10.1048  -11.8600 N   0  0  0  0  0  0  0  0  0  0  0  0
   15.1338   -8.8674  -10.8431 C   0  0  0  0  0  0  0  0  0  0  0  0
   15.7807   -8.3781   -9.8689 O   0  0  0  0  0  0  0  0  0  0  0  0
   15.7724   -8.8253  -12.1290 N   0  0  0  0  0  0  0  0  0  0  0  0
   17.0110   -8.1046  -12.2928 C   0  0  1  0  0  0  0  0  0  0  0  0
   17.8022   -8.6688  -13.4617 C   0  0  0  0  0  0  0  0  0  0  0  0
   19.0919   -7.9818  -13.5626 C   0  0  0  0  0  0  0  0  0  0  0  0
   19.3492   -7.3210  -14.6020 O   0  0  0  0  0  0  0  0  0  0  0  0
   16.7829   -6.6289  -12.5092 C   0  0  0  0  0  0  0  0  0  0  0  0
   16.0157   -6.2519  -13.4322 O   0  0  0  0  0  0  0  0  0  0  0  0
   20.0180   -8.0483  -12.5459 O   0  0  0  0  0  0  0  0  0  0  0  0
   17.6358   -2.1512   -8.3987 N   0  0  0  0  0  0  0  0  0  0  0  0
   17.3891   -1.2968   -9.5094 C   0  0  0  0  0  0  0  0  0  0  0  0
   17.3187   -0.0528   -9.4249 O   0  0  0  0  0  0  0  0  0  0  0  0
   17.2061   -1.9643  -10.8467 C   0  0  0  0  0  0  0  0  0  0  0  0
   17.2802   -3.4430  -10.6465 C   0  0  0  0  0  0  0  0  0  0  0  0
   17.1432   -4.1884  -11.9125 C   0  0  2  0  0  0  0  0  0  0  0  0
   17.3987   -5.6320  -11.7095 N   0  0  0  0  0  0  0  0  0  0  0  0
   18.0269   -3.7111  -12.9989 C   0  0  0  0  0  0  0  0  0  0  0  0
   17.5900   -2.8780  -13.8518 O   0  0  0  0  0  0  0  0  0  0  0  0
   19.3344   -4.1257  -13.1437 O   0  0  0  0  0  0  0  0  0  0  0  0
  2  1  1  0
  2  4  1  0
  3  2  2  0
  5  4  1  0
  5  6  1  6
  7  9  1  0
  7  5  1  0
  8  7  2  0
 10  9  1  0
 10 11  1  6
 12 16  1  0
 12 11  1  0
 13 12  2  0
 14 15  2  0
 14 10  1  0
 17 18  1  0
 18 19  2  0
 20 18  1  0
 20 21  1  0
 22 21  1  1
 22 23  1  0
 23 14  1  0
 24 22  1  0
 25 24  2  0
 26 24  1  0
M  END
$$$$
