NDQ.pdb
     RDKit          3D

 26 25  0  0  1  0  0  0  0  0999 V2000
   15.9488  -14.5048  -15.7758 N   0  0  0  0  0  0  0  0  0  0  0  0
   16.9565  -14.6960  -14.7901 C   0  0  0  0  0  0  0  0  0  0  0  0
   17.2330  -15.8487  -14.3631 O   0  0  0  0  0  0  0  0  0  0  0  0
   17.7048  -13.5516  -14.2443 C   0  0  0  0  0  0  0  0  0  0  0  0
   17.2385  -12.2453  -14.8670 C   0  0  2  0  0  0  0  0  0  0  0  0
   17.6784  -12.2123  -16.2583 N   0  0  0  0  0  0  0  0  0  0  0  0
   17.8382  -11.1329  -14.1350 C   0  0  0  0  0  0  0  0  0  0  0  0
   17.6493  -11.0075  -12.8878 O   0  0  0  0  0  0  0  0  0  0  0  0
   18.6608  -10.1394  -14.7671 N   0  0  0  0  0  0  0  0  0  0  0  0
   19.1677   -9.0305  -13.9968 C   0  0  1  0  0  0  0  0  0  0  0  0
   20.2632   -8.3084  -14.7643 C   0  0  0  0  0  0  0  0  0  0  0  0
   20.8117   -7.2271  -13.9424 C   0  0  0  0  0  0  0  0  0  0  0  0
   20.7952   -6.0525  -14.3932 O   0  0  0  0  0  0  0  0  0  0  0  0
   18.0807   -8.0488  -13.6345 C   0  0  0  0  0  0  0  0  0  0  0  0
   17.1820   -7.7855  -14.4747 O   0  0  0  0  0  0  0  0  0  0  0  0
   21.3403   -7.4755  -12.6955 O   0  0  0  0  0  0  0  0  0  0  0  0
   15.8618   -7.1556   -8.0837 N   0  0  0  0  0  0  0  0  0  0  0  0
   15.0547   -6.1721   -8.7207 C   0  0  0  0  0  0  0  0  0  0  0  0
   14.1246   -5.5635   -8.1513 O   0  0  0  0  0  0  0  0  0  0  0  0
   15.3669   -5.8741  -10.1634 C   0  0  0  0  0  0  0  0  0  0  0  0
   16.4567   -6.7947  -10.6069 C   0  0  0  0  0  0  0  0  0  0  0  0
   16.8923   -6.5236  -11.9904 C   0  0  2  0  0  0  0  0  0  0  0  0
   18.0208   -7.4011  -12.3739 N   0  0  0  0  0  0  0  0  0  0  0  0
   17.2926   -5.1210  -12.2388 C   0  0  0  0  0  0  0  0  0  0  0  0
   18.5183   -4.8301  -12.3979 O   0  0  0  0  0  0  0  0  0  0  0  0
   16.3891   -4.0815  -12.3130 O   0  0  0  0  0  0  0  0  0  0  0  0
  2  1  1  0
  2  4  1  0
  3  2  2  0
  5  4  1  0
  5  6  1  6
  7  9  1  0
  7  5  1  0
  8  7  2  0
 10  9  1  0
 10 11  1  6
 12 16  1  0
 12 11  1  0
 13 12  2  0
 14 15  2  0
 14 10  1  0
 17 18  1  0
 18 19  2  0
 20 18  1  0
 20 21  1  0
 22 21  1  1
 22 23  1  0
 23 14  1  0
 24 22  1  0
 25 24  2  0
 26 24  1  0
M  END
$$$$
