NDQ.pdb
     RDKit          3D

 26 25  0  0  1  0  0  0  0  0999 V2000
   16.4267  -13.3543  -18.1829 N   0  0  0  0  0  0  0  0  0  0  0  0
   17.4704  -12.3878  -18.1947 C   0  0  0  0  0  0  0  0  0  0  0  0
   18.5096  -12.5666  -18.8843 O   0  0  0  0  0  0  0  0  0  0  0  0
   17.3627  -11.1515  -17.4026 C   0  0  0  0  0  0  0  0  0  0  0  0
   18.6843  -10.8151  -16.7303 C   0  0  2  0  0  0  0  0  0  0  0  0
   19.0207  -11.8923  -15.8048 N   0  0  0  0  0  0  0  0  0  0  0  0
   18.5340   -9.5629  -15.9939 C   0  0  0  0  0  0  0  0  0  0  0  0
   18.3228   -8.4756  -16.6105 O   0  0  0  0  0  0  0  0  0  0  0  0
   18.6113   -9.4890  -14.5615 N   0  0  0  0  0  0  0  0  0  0  0  0
   18.5214   -8.2093  -13.9023 C   0  0  1  0  0  0  0  0  0  0  0  0
   17.9443   -8.3717  -12.5054 C   0  0  0  0  0  0  0  0  0  0  0  0
   17.7391   -7.0540  -11.8996 C   0  0  0  0  0  0  0  0  0  0  0  0
   17.8816   -6.0277  -12.6134 O   0  0  0  0  0  0  0  0  0  0  0  0
   19.8623   -7.5233  -13.8126 C   0  0  0  0  0  0  0  0  0  0  0  0
   20.8135   -8.1020  -13.2267 O   0  0  0  0  0  0  0  0  0  0  0  0
   17.3958   -6.9237  -10.5726 O   0  0  0  0  0  0  0  0  0  0  0  0
   22.7325   -5.5685  -18.3467 N   0  0  0  0  0  0  0  0  0  0  0  0
   23.6206   -4.9068  -17.4536 C   0  0  0  0  0  0  0  0  0  0  0  0
   24.6674   -4.3306  -17.8169 O   0  0  0  0  0  0  0  0  0  0  0  0
   23.2469   -4.9228  -15.9950 C   0  0  0  0  0  0  0  0  0  0  0  0
   21.9307   -5.6159  -15.8561 C   0  0  0  0  0  0  0  0  0  0  0  0
   21.4672   -5.6654  -14.4561 C   0  0  2  0  0  0  0  0  0  0  0  0
   20.1064   -6.2405  -14.3667 N   0  0  0  0  0  0  0  0  0  0  0  0
   21.4607   -4.3543  -13.7702 C   0  0  0  0  0  0  0  0  0  0  0  0
   20.3843   -3.6855  -13.6910 O   0  0  0  0  0  0  0  0  0  0  0  0
   22.5841   -3.8005  -13.1928 O   0  0  0  0  0  0  0  0  0  0  0  0
  2  1  1  0
  2  4  1  0
  3  2  2  0
  5  4  1  0
  5  6  1  1
  7  9  1  0
  7  5  1  0
  8  7  2  0
 10  9  1  0
 10 11  1  1
 12 16  1  0
 12 11  1  0
 13 12  2  0
 14 15  2  0
 14 10  1  0
 17 18  1  0
 18 19  2  0
 20 18  1  0
 20 21  1  0
 22 21  1  6
 22 23  1  0
 23 14  1  0
 24 22  1  0
 25 24  2  0
 26 24  1  0
M  END
$$$$
