VEN.pdb
     RDKit          3D

 25 24  0  0  1  0  0  0  0  0999 V2000
   17.2797  -14.1514  -15.7413 C   0  0  0  0  0  0  0  0  0  0  0  0
   18.1148  -12.9639  -15.2850 C   0  0  1  0  0  0  0  0  0  0  0  0
   19.5378  -13.1682  -15.7288 C   0  0  0  0  0  0  0  0  0  0  0  0
   17.5087  -11.6660  -15.8016 C   0  0  2  0  0  0  0  0  0  0  0  0
   17.3221  -11.8693  -17.2385 N   0  0  0  0  0  0  0  0  0  0  0  0
   18.2482  -10.4768  -15.4363 C   0  0  0  0  0  0  0  0  0  0  0  0
   18.3111  -10.1479  -14.2165 O   0  0  0  0  0  0  0  0  0  0  0  0
   18.8996   -9.6751  -16.4022 N   0  0  0  0  0  0  0  0  0  0  0  0
   19.6602   -8.4790  -16.0007 C   0  0  1  0  0  0  0  0  0  0  0  0
   20.9930   -8.4791  -16.6842 C   0  0  0  0  0  0  0  0  0  0  0  0
   21.9743   -9.3200  -15.9318 C   0  0  0  0  0  0  0  0  0  0  0  0
   23.3472   -9.2477  -16.5464 C   0  0  0  0  0  0  0  0  0  0  0  0
   23.5934   -9.9248  -17.5526 O   0  0  0  0  0  0  0  0  0  0  0  0
   18.8195   -7.2981  -16.1776 C   0  0  0  0  0  0  0  0  0  0  0  0
   17.8149   -7.4422  -16.9770 O   0  0  0  0  0  0  0  0  0  0  0  0
   24.2749   -8.4286  -15.9586 O   0  0  0  0  0  0  0  0  0  0  0  0
   16.2267   -3.0804  -16.1056 N   0  0  0  0  0  0  0  0  0  0  0  0
   15.6819   -4.2771  -15.5108 C   0  0  0  0  0  0  0  0  0  0  0  0
   14.4595   -4.3169  -15.2031 O   0  0  0  0  0  0  0  0  0  0  0  0
   16.6321   -5.3906  -15.3036 C   0  0  0  0  0  0  0  0  0  0  0  0
   17.9903   -4.9705  -15.7869 C   0  0  2  0  0  0  0  0  0  0  0  0
   18.9740   -6.0328  -15.5782 N   0  0  0  0  0  0  0  0  0  0  0  0
   18.4037   -3.7573  -15.0717 C   0  0  0  0  0  0  0  0  0  0  0  0
   18.5313   -3.6661  -13.8184 O   0  0  0  0  0  0  0  0  0  0  0  0
   18.6824   -2.6043  -15.7912 O   0  0  0  0  0  0  0  0  0  0  0  0
  2  1  1  6
  2  3  1  0
  4  2  1  0
  4  5  1  6
  6  7  2  0
  6  4  1  0
  8  6  1  0
  9  8  1  0
  9 10  1  6
 11 12  1  0
 11 10  1  0
 12 16  1  0
 13 12  2  0
 14  9  1  0
 14 22  1  0
 15 14  2  0
 17 18  1  0
 18 19  2  0
 20 18  1  0
 21 20  1  1
 21 22  1  0
 21 23  1  0
 23 24  2  0
 23 25  1  0
M  END
$$$$
