VEN.pdb
     RDKit          3D

 25 24  0  0  1  0  0  0  0  0999 V2000
   27.9611    2.7075  -11.2475 C   0  0  0  0  0  0  0  0  0  0  0  0
   26.9805    3.5056  -12.0942 C   0  0  1  0  0  0  0  0  0  0  0  0
   26.9521    2.9283  -13.4833 C   0  0  0  0  0  0  0  0  0  0  0  0
   25.6107    3.5293  -11.4294 C   0  0  2  0  0  0  0  0  0  0  0  0
   24.7571    4.3090  -12.3262 N   0  0  0  0  0  0  0  0  0  0  0  0
   25.6254    3.9706  -10.0511 C   0  0  0  0  0  0  0  0  0  0  0  0
   25.7582    5.2045   -9.8067 O   0  0  0  0  0  0  0  0  0  0  0  0
   25.4963    3.0632   -8.9740 N   0  0  0  0  0  0  0  0  0  0  0  0
   25.4523    3.5457   -7.5828 C   0  0  1  0  0  0  0  0  0  0  0  0
   24.2113    3.0383   -6.9147 C   0  0  0  0  0  0  0  0  0  0  0  0
   24.1475    3.5007   -5.4940 C   0  0  0  0  0  0  0  0  0  0  0  0
   22.9568    2.9195   -4.7784 C   0  0  0  0  0  0  0  0  0  0  0  0
   22.0164    2.4663   -5.4430 O   0  0  0  0  0  0  0  0  0  0  0  0
   26.7273    3.2498   -6.9352 C   0  0  0  0  0  0  0  0  0  0  0  0
   27.4558    2.3561   -7.5182 O   0  0  0  0  0  0  0  0  0  0  0  0
   22.9646    2.9188   -3.4084 O   0  0  0  0  0  0  0  0  0  0  0  0
   31.6231    4.6276   -5.0529 N   0  0  0  0  0  0  0  0  0  0  0  0
   30.9763    3.6161   -5.8537 C   0  0  0  0  0  0  0  0  0  0  0  0
   31.5775    2.5331   -6.0911 O   0  0  0  0  0  0  0  0  0  0  0  0
   29.6215    3.9446   -6.3459 C   0  0  0  0  0  0  0  0  0  0  0  0
   28.6126    3.5284   -5.3146 C   0  0  2  0  0  0  0  0  0  0  0  0
   27.2516    3.8253   -5.7613 N   0  0  0  0  0  0  0  0  0  0  0  0
   28.8908    4.2300   -4.0558 C   0  0  0  0  0  0  0  0  0  0  0  0
   29.9723    4.1501   -3.4084 O   0  0  0  0  0  0  0  0  0  0  0  0
   27.9174    5.0502   -3.5039 O   0  0  0  0  0  0  0  0  0  0  0  0
  2  1  1  1
  2  3  1  0
  4  2  1  0
  4  5  1  6
  6  7  2  0
  6  4  1  0
  8  6  1  0
  9  8  1  0
  9 10  1  1
 11 12  1  0
 11 10  1  0
 12 16  1  0
 13 12  2  0
 14  9  1  0
 14 22  1  0
 15 14  2  0
 17 18  1  0
 18 19  2  0
 20 18  1  0
 21 20  1  6
 21 22  1  0
 21 23  1  0
 23 24  2  0
 23 25  1  0
M  END
$$$$
