VEN.pdb
     RDKit          3D

 25 24  0  0  1  0  0  0  0  0999 V2000
   13.6705  -11.0007  -14.5464 C   0  0  0  0  0  0  0  0  0  0  0  0
   14.2551  -12.3660  -14.8775 C   0  0  1  0  0  0  0  0  0  0  0  0
   13.4240  -13.0045  -15.9570 C   0  0  0  0  0  0  0  0  0  0  0  0
   15.7238  -12.2308  -15.2560 C   0  0  2  0  0  0  0  0  0  0  0  0
   16.1820  -13.5935  -15.5279 N   0  0  0  0  0  0  0  0  0  0  0  0
   16.5192  -11.4902  -14.3003 C   0  0  0  0  0  0  0  0  0  0  0  0
   16.9704  -12.0934  -13.2841 O   0  0  0  0  0  0  0  0  0  0  0  0
   16.8045  -10.1155  -14.4705 N   0  0  0  0  0  0  0  0  0  0  0  0
   17.7106   -9.4132  -13.5453 C   0  0  1  0  0  0  0  0  0  0  0  0
   18.7875   -8.7231  -14.3248 C   0  0  0  0  0  0  0  0  0  0  0  0
   19.7081   -7.9781  -13.4117 C   0  0  0  0  0  0  0  0  0  0  0  0
   20.8076   -7.2915  -14.1780 C   0  0  0  0  0  0  0  0  0  0  0  0
   21.9845   -7.5962  -13.9468 O   0  0  0  0  0  0  0  0  0  0  0  0
   16.9182   -8.5939  -12.6325 C   0  0  0  0  0  0  0  0  0  0  0  0
   15.9575   -7.9221  -13.1757 O   0  0  0  0  0  0  0  0  0  0  0  0
   20.4547   -6.3480  -15.1067 O   0  0  0  0  0  0  0  0  0  0  0  0
   14.2577   -7.0238   -8.0685 N   0  0  0  0  0  0  0  0  0  0  0  0
   15.6481   -6.6968   -8.2752 C   0  0  0  0  0  0  0  0  0  0  0  0
   16.0995   -5.6012   -7.8433 O   0  0  0  0  0  0  0  0  0  0  0  0
   16.4519   -7.7039   -8.9999 C   0  0  0  0  0  0  0  0  0  0  0  0
   16.2780   -7.4972  -10.4770 C   0  0  2  0  0  0  0  0  0  0  0  0
   17.0764   -8.4570  -11.2394 N   0  0  0  0  0  0  0  0  0  0  0  0
   16.6761   -6.1276  -10.8234 C   0  0  0  0  0  0  0  0  0  0  0  0
   17.8558   -5.7643  -11.0910 O   0  0  0  0  0  0  0  0  0  0  0  0
   15.7134   -5.1296  -10.8689 O   0  0  0  0  0  0  0  0  0  0  0  0
  2  1  1  6
  2  3  1  0
  4  2  1  0
  4  5  1  1
  6  7  2  0
  6  4  1  0
  8  6  1  0
  9  8  1  0
  9 10  1  6
 11 12  1  0
 11 10  1  0
 12 16  1  0
 13 12  2  0
 14  9  1  0
 14 22  1  0
 15 14  2  0
 17 18  1  0
 18 19  2  0
 20 18  1  0
 21 20  1  1
 21 22  1  0
 21 23  1  0
 23 24  2  0
 23 25  1  0
M  END
$$$$
