VEN.pdb
     RDKit          3D

 25 24  0  0  1  0  0  0  0  0999 V2000
   24.4449  -13.4653  -15.2405 C   0  0  0  0  0  0  0  0  0  0  0  0
   23.5950  -12.2334  -15.5154 C   0  0  1  0  0  0  0  0  0  0  0  0
   24.4574  -11.1769  -16.1510 C   0  0  0  0  0  0  0  0  0  0  0  0
   22.3867  -12.6074  -16.3632 C   0  0  2  0  0  0  0  0  0  0  0  0
   22.9288  -13.3276  -17.5158 N   0  0  0  0  0  0  0  0  0  0  0  0
   21.5162  -11.4961  -16.6822 C   0  0  0  0  0  0  0  0  0  0  0  0
   21.6900  -10.8779  -17.7719 O   0  0  0  0  0  0  0  0  0  0  0  0
   20.4805  -11.0836  -15.8119 N   0  0  0  0  0  0  0  0  0  0  0  0
   19.6035   -9.9541  -16.1655 C   0  0  1  0  0  0  0  0  0  0  0  0
   18.1742  -10.4015  -16.1403 C   0  0  0  0  0  0  0  0  0  0  0  0
   17.2562   -9.2602  -16.4422 C   0  0  0  0  0  0  0  0  0  0  0  0
   15.8117   -9.6727  -16.3385 C   0  0  0  0  0  0  0  0  0  0  0  0
   14.9468   -8.8028  -16.1746 O   0  0  0  0  0  0  0  0  0  0  0  0
   19.9563   -8.8009  -15.3421 C   0  0  0  0  0  0  0  0  0  0  0  0
   19.9926   -9.0140  -14.0683 O   0  0  0  0  0  0  0  0  0  0  0  0
   15.5136  -11.0068  -16.4290 O   0  0  0  0  0  0  0  0  0  0  0  0
   22.1953   -4.9646  -12.6324 N   0  0  0  0  0  0  0  0  0  0  0  0
   22.0343   -4.7079  -14.0434 C   0  0  0  0  0  0  0  0  0  0  0  0
   22.0150   -3.5177  -14.4602 O   0  0  0  0  0  0  0  0  0  0  0  0
   21.8993   -5.8985  -14.9094 C   0  0  0  0  0  0  0  0  0  0  0  0
   20.4925   -6.4149  -14.8146 C   0  0  2  0  0  0  0  0  0  0  0  0
   20.2638   -7.4956  -15.7735 N   0  0  0  0  0  0  0  0  0  0  0  0
   19.5556   -5.3139  -15.0679 C   0  0  0  0  0  0  0  0  0  0  0  0
   19.1337   -4.9727  -16.2085 O   0  0  0  0  0  0  0  0  0  0  0  0
   19.0766   -4.5682  -14.0005 O   0  0  0  0  0  0  0  0  0  0  0  0
  2  1  1  6
  2  3  1  0
  4  2  1  0
  4  5  1  6
  6  7  2  0
  6  4  1  0
  8  6  1  0
  9  8  1  0
  9 10  1  1
 11 12  1  0
 11 10  1  0
 12 16  1  0
 13 12  2  0
 14  9  1  0
 14 22  1  0
 15 14  2  0
 17 18  1  0
 18 19  2  0
 20 18  1  0
 21 20  1  6
 21 22  1  0
 21 23  1  0
 23 24  2  0
 23 25  1  0
M  END
$$$$
