VEN.pdb
     RDKit          3D

 25 24  0  0  1  0  0  0  0  0999 V2000
   19.4455  -13.6255  -18.5521 C   0  0  0  0  0  0  0  0  0  0  0  0
   18.5991  -13.8098  -17.3010 C   0  0  1  0  0  0  0  0  0  0  0  0
   18.6400  -15.2573  -16.8925 C   0  0  0  0  0  0  0  0  0  0  0  0
   19.0715  -12.8660  -16.2035 C   0  0  2  0  0  0  0  0  0  0  0  0
   18.4266  -13.3407  -14.9788 N   0  0  0  0  0  0  0  0  0  0  0  0
   18.8774  -11.4629  -16.5005 C   0  0  0  0  0  0  0  0  0  0  0  0
   19.4615  -10.9655  -17.5062 O   0  0  0  0  0  0  0  0  0  0  0  0
   18.0561  -10.6356  -15.6998 N   0  0  0  0  0  0  0  0  0  0  0  0
   17.8049   -9.2333  -16.0746 C   0  0  1  0  0  0  0  0  0  0  0  0
   16.3290   -8.9960  -16.1700 C   0  0  0  0  0  0  0  0  0  0  0  0
   15.6396   -9.4355  -14.9178 C   0  0  0  0  0  0  0  0  0  0  0  0
   14.1556   -9.1904  -14.9908 C   0  0  0  0  0  0  0  0  0  0  0  0
   13.7133   -8.0752  -14.6872 O   0  0  0  0  0  0  0  0  0  0  0  0
   18.5652   -8.3590  -15.1857 C   0  0  0  0  0  0  0  0  0  0  0  0
   19.0953   -8.9330  -14.1567 O   0  0  0  0  0  0  0  0  0  0  0  0
   13.3500  -10.2233  -15.3924 O   0  0  0  0  0  0  0  0  0  0  0  0
   21.8862   -5.1611  -13.4091 N   0  0  0  0  0  0  0  0  0  0  0  0
   22.2966   -6.2262  -14.2922 C   0  0  0  0  0  0  0  0  0  0  0  0
   23.5213   -6.5086  -14.3976 O   0  0  0  0  0  0  0  0  0  0  0  0
   21.2139   -6.9178  -15.0236 C   0  0  0  0  0  0  0  0  0  0  0  0
   19.8960   -6.3146  -14.6310 C   0  0  2  0  0  0  0  0  0  0  0  0
   18.7891   -6.9750  -15.3227 N   0  0  0  0  0  0  0  0  0  0  0  0
   19.9049   -4.8827  -14.9532 C   0  0  0  0  0  0  0  0  0  0  0  0
   19.7063   -4.4002  -16.1033 O   0  0  0  0  0  0  0  0  0  0  0  0
   20.1475   -3.9597  -13.9462 O   0  0  0  0  0  0  0  0  0  0  0  0
  2  1  1  6
  2  3  1  0
  4  2  1  0
  4  5  1  1
  6  7  2  0
  6  4  1  0
  8  6  1  0
  9  8  1  0
  9 10  1  1
 11 12  1  0
 11 10  1  0
 12 16  1  0
 13 12  2  0
 14  9  1  0
 14 22  1  0
 15 14  2  0
 17 18  1  0
 18 19  2  0
 20 18  1  0
 21 20  1  6
 21 22  1  0
 21 23  1  0
 23 24  2  0
 23 25  1  0
M  END
$$$$
