VEN.pdb
     RDKit          3D

 25 24  0  0  1  0  0  0  0  0999 V2000
   16.6987  -13.2314  -15.9695 C   0  0  0  0  0  0  0  0  0  0  0  0
   17.6868  -12.2365  -15.3784 C   0  0  1  0  0  0  0  0  0  0  0  0
   18.9958  -12.3543  -16.1108 C   0  0  0  0  0  0  0  0  0  0  0  0
   17.1043  -10.8302  -15.4194 C   0  0  2  0  0  0  0  0  0  0  0  0
   16.4807  -10.7062  -16.7372 N   0  0  0  0  0  0  0  0  0  0  0  0
   18.0466   -9.7853  -15.0805 C   0  0  0  0  0  0  0  0  0  0  0  0
   18.4004   -9.6504  -13.8737 O   0  0  0  0  0  0  0  0  0  0  0  0
   18.5803   -8.9138  -16.0581 N   0  0  0  0  0  0  0  0  0  0  0  0
   19.6114   -7.9233  -15.7031 C   0  0  1  0  0  0  0  0  0  0  0  0
   20.8864   -8.2475  -16.4192 C   0  0  0  0  0  0  0  0  0  0  0  0
   21.7150   -9.2021  -15.6201 C   0  0  0  0  0  0  0  0  0  0  0  0
   22.9806   -9.5744  -16.3461 C   0  0  0  0  0  0  0  0  0  0  0  0
   24.0596   -9.1151  -15.9507 O   0  0  0  0  0  0  0  0  0  0  0  0
   19.0658   -6.5812  -15.8862 C   0  0  0  0  0  0  0  0  0  0  0  0
   18.4500   -6.3760  -17.0034 O   0  0  0  0  0  0  0  0  0  0  0  0
   22.8827  -10.4126  -17.4254 O   0  0  0  0  0  0  0  0  0  0  0  0
   15.7313   -2.2739  -15.1624 N   0  0  0  0  0  0  0  0  0  0  0  0
   17.0899   -2.3865  -14.6887 C   0  0  0  0  0  0  0  0  0  0  0  0
   17.8032   -1.3506  -14.5955 O   0  0  0  0  0  0  0  0  0  0  0  0
   17.5469   -3.7493  -14.3430 C   0  0  0  0  0  0  0  0  0  0  0  0
   18.5759   -4.1885  -15.3445 C   0  0  2  0  0  0  0  0  0  0  0  0
   19.1290   -5.4957  -14.9907 N   0  0  0  0  0  0  0  0  0  0  0  0
   19.6497   -3.1896  -15.4035 C   0  0  0  0  0  0  0  0  0  0  0  0
   20.6699   -3.1814  -14.6591 O   0  0  0  0  0  0  0  0  0  0  0  0
   19.5731   -2.1617  -16.3322 O   0  0  0  0  0  0  0  0  0  0  0  0
  2  1  1  6
  2  3  1  0
  4  2  1  0
  4  5  1  6
  6  7  2  0
  6  4  1  0
  8  6  1  0
  9  8  1  0
  9 10  1  6
 11 12  1  0
 11 10  1  0
 12 16  1  0
 13 12  2  0
 14  9  1  0
 14 22  1  0
 15 14  2  0
 17 18  1  0
 18 19  2  0
 20 18  1  0
 21 20  1  1
 21 22  1  0
 21 23  1  0
 23 24  2  0
 23 25  1  0
M  END
$$$$
