VEN.pdb
     RDKit          3D

 25 24  0  0  1  0  0  0  0  0999 V2000
   12.3845  -11.1630  -12.3513 C   0  0  0  0  0  0  0  0  0  0  0  0
   12.8127  -12.6132  -12.5224 C   0  0  1  0  0  0  0  0  0  0  0  0
   11.7361  -13.3559  -13.2660 C   0  0  0  0  0  0  0  0  0  0  0  0
   14.1697  -12.6826  -13.2096 C   0  0  2  0  0  0  0  0  0  0  0  0
   14.5258  -14.1017  -13.2238 N   0  0  0  0  0  0  0  0  0  0  0  0
   15.1686  -11.8001  -12.6455 C   0  0  0  0  0  0  0  0  0  0  0  0
   15.7205  -12.1218  -11.5538 O   0  0  0  0  0  0  0  0  0  0  0  0
   15.5429  -10.5924  -13.2790 N   0  0  0  0  0  0  0  0  0  0  0  0
   16.5589   -9.7099  -12.6797 C   0  0  1  0  0  0  0  0  0  0  0  0
   17.4450   -9.1616  -13.7557 C   0  0  0  0  0  0  0  0  0  0  0  0
   18.4380   -8.1999  -13.1854 C   0  0  0  0  0  0  0  0  0  0  0  0
   19.2604   -7.5508  -14.2671 C   0  0  0  0  0  0  0  0  0  0  0  0
   20.1302   -8.2158  -14.8439 O   0  0  0  0  0  0  0  0  0  0  0  0
   15.8966   -8.7461  -11.8050 C   0  0  0  0  0  0  0  0  0  0  0  0
   14.7690   -8.2845  -12.2347 O   0  0  0  0  0  0  0  0  0  0  0  0
   19.0093   -6.2381  -14.5686 O   0  0  0  0  0  0  0  0  0  0  0  0
   14.3711   -5.4929   -8.3223 N   0  0  0  0  0  0  0  0  0  0  0  0
   13.9272   -6.8464   -8.0900 C   0  0  0  0  0  0  0  0  0  0  0  0
   12.9716   -7.0590   -7.2949 O   0  0  0  0  0  0  0  0  0  0  0  0
   14.6534   -7.9037   -8.8250 C   0  0  0  0  0  0  0  0  0  0  0  0
   15.5803   -7.2614   -9.8165 C   0  0  2  0  0  0  0  0  0  0  0  0
   16.3397   -8.2699  -10.5555 N   0  0  0  0  0  0  0  0  0  0  0  0
   16.4989   -6.3628   -9.1074 C   0  0  0  0  0  0  0  0  0  0  0  0
   16.1445   -5.3683   -8.4142 O   0  0  0  0  0  0  0  0  0  0  0  0
   17.8656   -6.5895   -9.1814 O   0  0  0  0  0  0  0  0  0  0  0  0
  2  1  1  6
  2  3  1  0
  4  2  1  0
  4  5  1  1
  6  7  2  0
  6  4  1  0
  8  6  1  0
  9  8  1  0
  9 10  1  6
 11 12  1  0
 11 10  1  0
 12 16  1  0
 13 12  2  0
 14  9  1  0
 14 22  1  0
 15 14  2  0
 17 18  1  0
 18 19  2  0
 20 18  1  0
 21 20  1  1
 21 22  1  0
 21 23  1  0
 23 24  2  0
 23 25  1  0
M  END
$$$$
