VEN.pdb
     RDKit          3D

 25 24  0  0  1  0  0  0  0  0999 V2000
   23.0076  -11.7737  -14.3166 C   0  0  0  0  0  0  0  0  0  0  0  0
   23.1029  -12.7892  -15.4459 C   0  0  1  0  0  0  0  0  0  0  0  0
   23.5877  -14.0987  -14.8857 C   0  0  0  0  0  0  0  0  0  0  0  0
   21.7643  -12.9052  -16.1624 C   0  0  2  0  0  0  0  0  0  0  0  0
   21.9504  -13.9539  -17.1656 N   0  0  0  0  0  0  0  0  0  0  0  0
   21.2486  -11.6508  -16.6675 C   0  0  0  0  0  0  0  0  0  0  0  0
   21.8498  -11.0856  -17.6261 O   0  0  0  0  0  0  0  0  0  0  0  0
   20.0955  -11.0417  -16.1203 N   0  0  0  0  0  0  0  0  0  0  0  0
   19.5197   -9.8316  -16.7319 C   0  0  1  0  0  0  0  0  0  0  0  0
   18.0557  -10.0387  -16.9721 C   0  0  0  0  0  0  0  0  0  0  0  0
   17.4529   -8.8414  -17.6349 C   0  0  0  0  0  0  0  0  0  0  0  0
   15.9795   -9.0315  -17.8814 C   0  0  0  0  0  0  0  0  0  0  0  0
   15.5631   -9.0677  -19.0462 O   0  0  0  0  0  0  0  0  0  0  0  0
   19.9079   -8.6670  -15.9410 C   0  0  0  0  0  0  0  0  0  0  0  0
   20.2972   -8.9157  -14.7344 O   0  0  0  0  0  0  0  0  0  0  0  0
   15.1543   -9.1557  -16.7947 O   0  0  0  0  0  0  0  0  0  0  0  0
   21.2193   -4.2787  -13.9785 N   0  0  0  0  0  0  0  0  0  0  0  0
   22.1710   -5.3552  -14.1132 C   0  0  0  0  0  0  0  0  0  0  0  0
   23.2918   -5.2688  -13.5414 O   0  0  0  0  0  0  0  0  0  0  0  0
   21.7401   -6.5045  -14.9372 C   0  0  0  0  0  0  0  0  0  0  0  0
   20.3426   -6.2574  -15.4280 C   0  0  2  0  0  0  0  0  0  0  0  0
   19.9113   -7.3162  -16.3405 N   0  0  0  0  0  0  0  0  0  0  0  0
   20.2924   -4.9581  -16.1088 C   0  0  0  0  0  0  0  0  0  0  0  0
   20.5372   -3.8463  -15.5619 O   0  0  0  0  0  0  0  0  0  0  0  0
   19.9530   -4.9066  -17.4531 O   0  0  0  0  0  0  0  0  0  0  0  0
  2  1  1  1
  2  3  1  0
  4  2  1  0
  4  5  1  6
  6  7  2  0
  6  4  1  0
  8  6  1  0
  9  8  1  0
  9 10  1  1
 11 12  1  0
 11 10  1  0
 12 16  1  0
 13 12  2  0
 14  9  1  0
 14 22  1  0
 15 14  2  0
 17 18  1  0
 18 19  2  0
 20 18  1  0
 21 20  1  6
 21 22  1  0
 21 23  1  0
 23 24  2  0
 23 25  1  0
M  END
$$$$
