RWM.pdb
     RDKit          3D

 34 35  0  0  1  0  0  0  0  0999 V2000
   19.6986  -32.7703   -3.9348 N   0  0  0  0  0  0  0  0  0  0  0  0
   20.6706  -33.0716   -4.9604 C   0  0  0  0  0  0  0  0  0  0  0  0
   21.7370  -33.7482   -4.7069 N   0  0  0  0  0  0  0  0  0  0  0  0
   20.4834  -32.6537   -6.2935 N   0  0  0  0  0  0  0  0  0  0  0  0
   19.3495  -31.8889   -6.7309 C   0  0  0  0  0  0  0  0  0  0  0  0
   18.0303  -32.5317   -6.5324 C   0  0  0  0  0  0  0  0  0  0  0  0
   16.9752  -31.8388   -5.7757 C   0  0  0  0  0  0  0  0  0  0  0  0
   16.3644  -30.6306   -6.4004 C   0  0  2  0  0  0  0  0  0  0  0  0
   16.7114  -30.2963   -7.7162 N   0  0  0  0  0  0  0  0  0  0  0  0
   16.6356  -29.4582   -5.4895 C   0  0  0  0  0  0  0  0  0  0  0  0
   17.7066  -28.7756   -5.6664 O   0  0  0  0  0  0  0  0  0  0  0  0
   22.4355  -33.9542   -5.4428 N   0  0  0  0  0  0  0  0  0  0  0  0
   15.7978  -29.0456   -4.4444 C   0  0  2  0  0  0  0  0  0  0  0  0
   16.1226  -27.8716   -3.6377 C   0  0  0  0  0  0  0  0  0  0  0  0
   14.9728  -27.1956   -3.0170 C   0  0  0  0  0  0  0  0  0  0  0  0
   15.3018  -26.0776   -2.0866 C   0  0  0  0  0  0  0  0  0  0  0  0
   16.3090  -25.9840   -1.1669 N   0  0  0  0  0  0  0  0  0  0  0  0
   16.1945  -24.8004   -0.5495 C   0  0  0  0  0  0  0  0  0  0  0  0
   15.1498  -24.1168   -1.0302 C   0  0  0  0  0  0  0  0  0  0  0  0
   14.6327  -22.8534   -0.7033 C   0  0  0  0  0  0  0  0  0  0  0  0
   13.5185  -22.4230   -1.3903 C   0  0  0  0  0  0  0  0  0  0  0  0
   12.9181  -23.1897   -2.3667 C   0  0  0  0  0  0  0  0  0  0  0  0
   13.4325  -24.4513   -2.6952 C   0  0  0  0  0  0  0  0  0  0  0  0
   14.5555  -24.8828   -2.0019 C   0  0  0  0  0  0  0  0  0  0  0  0
   17.1981  -28.3439   -2.7210 O   0  0  0  0  0  0  0  0  0  0  0  0
   17.0768  -29.4876   -2.1420 C   0  0  0  0  0  0  0  0  0  0  0  0
   22.9418  -31.5168   -2.3118 S   0  0  0  0  0  0  0  0  0  0  0  0
   23.0158  -29.7172   -2.5718 C   0  0  0  0  0  0  0  0  0  0  0  0
   21.6725  -28.9753   -1.5494 C   0  0  0  0  0  0  0  0  0  0  0  0
   20.5405  -28.5406   -2.4308 C   0  0  1  0  0  0  0  0  0  0  0  0
   19.3889  -28.0531   -1.6021 N   0  0  0  0  0  0  0  0  0  0  0  0
   18.3252  -27.5525   -2.4861 C   0  0  0  0  0  0  0  0  0  0  0  0
   19.7190  -26.9879   -0.6391 O   0  0  0  0  0  0  0  0  0  0  0  0
   19.0710  -25.7801   -0.5422 O   0  0  0  0  0  0  0  0  0  0  0  0
  2  1  1  0
  3  2  2  0
  4  2  1  0
  5  4  1  0
  6  5  1  0
  7  6  1  0
  7  8  1  0
  8  9  1  6
 10  8  1  0
 11 10  2  0
 12 10  1  0
 13 24  1  0
 13 12  1  0
 13 14  1  1
 15 23  1  0
 15 14  1  0
 16 15  2  0
 17 16  1  0
 17 18  1  0
 18 23  2  0
 19 18  1  0
 19 20  2  0
 20 21  1  0
 21 22  2  0
 23 22  1  0
 24 31  1  0
 25 24  2  0
 27 28  1  0
 27 26  1  0
 28 29  1  0
 30 29  1  6
 30 32  1  0
 31 30  1  0
 32 33  1  0
 34 32  2  0
M  END
$$$$
