RWM.pdb
     RDKit          3D

 34 35  0  0  1  0  0  0  0  0999 V2000
   28.5664  -21.5183  -21.6354 N   0  0  0  0  0  0  0  0  0  0  0  0
   29.5738  -22.5038  -21.9539 C   0  0  0  0  0  0  0  0  0  0  0  0
   30.1255  -22.5592  -23.1166 N   0  0  0  0  0  0  0  0  0  0  0  0
   30.0136  -23.4391  -20.9953 N   0  0  0  0  0  0  0  0  0  0  0  0
   29.8754  -23.2448  -19.5793 C   0  0  0  0  0  0  0  0  0  0  0  0
   30.4468  -21.9860  -19.0483 C   0  0  0  0  0  0  0  0  0  0  0  0
   29.7469  -21.2448  -17.9869 C   0  0  0  0  0  0  0  0  0  0  0  0
   29.2527  -22.0256  -16.8169 C   0  0  2  0  0  0  0  0  0  0  0  0
   28.8047  -23.3384  -17.0157 N   0  0  0  0  0  0  0  0  0  0  0  0
   28.1689  -21.2139  -16.1503 C   0  0  0  0  0  0  0  0  0  0  0  0
   28.4357  -20.0151  -15.7817 O   0  0  0  0  0  0  0  0  0  0  0  0
   30.7724  -23.3255  -23.3732 N   0  0  0  0  0  0  0  0  0  0  0  0
   26.8690  -21.6710  -15.8944 C   0  0  1  0  0  0  0  0  0  0  0  0
   25.8856  -20.8144  -15.2357 C   0  0  0  0  0  0  0  0  0  0  0  0
   24.5911  -20.6958  -15.9247 C   0  0  0  0  0  0  0  0  0  0  0  0
   23.5452  -19.9087  -15.2101 C   0  0  0  0  0  0  0  0  0  0  0  0
   23.5034  -18.5694  -14.9389 N   0  0  0  0  0  0  0  0  0  0  0  0
   22.3771  -18.3223  -14.2565 C   0  0  0  0  0  0  0  0  0  0  0  0
   21.6813  -19.4497  -14.0705 C   0  0  0  0  0  0  0  0  0  0  0  0
   20.4612  -19.6954  -13.4212 C   0  0  0  0  0  0  0  0  0  0  0  0
   20.0025  -20.9945  -13.3960 C   0  0  0  0  0  0  0  0  0  0  0  0
   20.7009  -22.0298  -13.9808 C   0  0  0  0  0  0  0  0  0  0  0  0
   21.9190  -21.7871  -14.6299 C   0  0  0  0  0  0  0  0  0  0  0  0
   22.3792  -20.4773  -14.6544 C   0  0  0  0  0  0  0  0  0  0  0  0
   25.8546  -21.3072  -13.8299 O   0  0  0  0  0  0  0  0  0  0  0  0
   25.7701  -22.5724  -13.6063 C   0  0  0  0  0  0  0  0  0  0  0  0
   27.1053  -20.1101   -6.2190 S   0  0  0  0  0  0  0  0  0  0  0  0
   27.3826  -19.4763   -7.9021 C   0  0  0  0  0  0  0  0  0  0  0  0
   26.3887  -20.5332   -9.0403 C   0  0  0  0  0  0  0  0  0  0  0  0
   26.6061  -20.1008  -10.4591 C   0  0  1  0  0  0  0  0  0  0  0  0
   25.7432  -20.9019  -11.3887 N   0  0  0  0  0  0  0  0  0  0  0  0
   25.9108  -20.4064  -12.7635 C   0  0  0  0  0  0  0  0  0  0  0  0
   24.3041  -20.8885  -11.0726 O   0  0  0  0  0  0  0  0  0  0  0  0
   23.6536  -21.8252  -10.3061 O   0  0  0  0  0  0  0  0  0  0  0  0
  2  1  1  0
  3  2  2  0
  4  2  1  0
  5  4  1  0
  6  5  1  0
  7  6  1  0
  7  8  1  0
  8  9  1  6
 10  8  1  0
 11 10  2  0
 12 10  1  0
 13 24  1  0
 13 12  1  0
 13 14  1  6
 15 23  1  0
 15 14  1  0
 16 15  2  0
 17 16  1  0
 17 18  1  0
 18 23  2  0
 19 18  1  0
 19 20  2  0
 20 21  1  0
 21 22  2  0
 23 22  1  0
 24 31  1  0
 25 24  2  0
 27 28  1  0
 27 26  1  0
 28 29  1  0
 30 29  1  6
 30 32  1  0
 31 30  1  0
 32 33  1  0
 34 32  2  0
M  END
$$$$
