RWM.pdb
     RDKit          3D

 34 35  0  0  1  0  0  0  0  0999 V2000
   30.0868  -27.4552  -17.1813 N   0  0  0  0  0  0  0  0  0  0  0  0
   28.7404  -27.9737  -17.2591 C   0  0  0  0  0  0  0  0  0  0  0  0
   28.4727  -29.2079  -17.0055 N   0  0  0  0  0  0  0  0  0  0  0  0
   27.6532  -27.1429  -17.5978 N   0  0  0  0  0  0  0  0  0  0  0  0
   27.7665  -25.7215  -17.7668 C   0  0  0  0  0  0  0  0  0  0  0  0
   28.0524  -24.9522  -16.5341 C   0  0  0  0  0  0  0  0  0  0  0  0
   26.9671  -24.6298  -15.5939 C   0  0  0  0  0  0  0  0  0  0  0  0
   26.1647  -23.4033  -15.8676 C   0  0  2  0  0  0  0  0  0  0  0  0
   26.7370  -22.3707  -16.6223 N   0  0  0  0  0  0  0  0  0  0  0  0
   25.6911  -22.8612  -14.5411 C   0  0  0  0  0  0  0  0  0  0  0  0
   25.1258  -23.6624  -13.7147 O   0  0  0  0  0  0  0  0  0  0  0  0
   27.5030  -29.5691  -17.0359 N   0  0  0  0  0  0  0  0  0  0  0  0
   25.8194  -21.5277  -14.1292 C   0  0  1  0  0  0  0  0  0  0  0  0
   25.3320  -21.0931  -12.8222 C   0  0  0  0  0  0  0  0  0  0  0  0
   26.0921  -19.9989  -12.1981 C   0  0  0  0  0  0  0  0  0  0  0  0
   27.1647  -20.4130  -11.2484 C   0  0  0  0  0  0  0  0  0  0  0  0
   28.3905  -20.9585  -11.5106 N   0  0  0  0  0  0  0  0  0  0  0  0
   29.0007  -21.1830  -10.3390 C   0  0  0  0  0  0  0  0  0  0  0  0
   28.2197  -20.8056   -9.3205 C   0  0  0  0  0  0  0  0  0  0  0  0
   28.4158  -20.8457   -7.9312 C   0  0  0  0  0  0  0  0  0  0  0  0
   27.3978  -20.3771   -7.1295 C   0  0  0  0  0  0  0  0  0  0  0  0
   26.2215  -19.8828   -7.6526 C   0  0  0  0  0  0  0  0  0  0  0  0
   26.0232  -19.8414   -9.0393 C   0  0  0  0  0  0  0  0  0  0  0  0
   27.0506  -20.3137   -9.8452 C   0  0  0  0  0  0  0  0  0  0  0  0
   23.8751  -20.8627  -13.0333 O   0  0  0  0  0  0  0  0  0  0  0  0
   23.4885  -20.1255  -14.0156 C   0  0  0  0  0  0  0  0  0  0  0  0
   16.4830  -22.9651  -11.5832 S   0  0  0  0  0  0  0  0  0  0  0  0
   18.2331  -23.4208  -11.3808 C   0  0  0  0  0  0  0  0  0  0  0  0
   19.2280  -21.9517  -11.8829 C   0  0  0  0  0  0  0  0  0  0  0  0
   20.6902  -22.2679  -11.7868 C   0  0  1  0  0  0  0  0  0  0  0  0
   21.5067  -21.1514  -12.3675 N   0  0  0  0  0  0  0  0  0  0  0  0
   22.9365  -21.4354  -12.1714 C   0  0  0  0  0  0  0  0  0  0  0  0
   21.2271  -19.8169  -11.8088 O   0  0  0  0  0  0  0  0  0  0  0  0
   20.2938  -18.9343  -12.2969 O   0  0  0  0  0  0  0  0  0  0  0  0
  2  1  1  0
  3  2  2  0
  4  2  1  0
  5  4  1  0
  6  5  1  0
  7  6  1  0
  7  8  1  0
  8  9  1  1
 10  8  1  0
 11 10  2  0
 12 10  1  0
 13 24  1  0
 13 12  1  0
 13 14  1  1
 15 23  1  0
 15 14  1  0
 16 15  2  0
 17 16  1  0
 17 18  1  0
 18 23  2  0
 19 18  1  0
 19 20  2  0
 20 21  1  0
 21 22  2  0
 23 22  1  0
 24 31  1  0
 25 24  2  0
 27 28  1  0
 27 26  1  0
 28 29  1  0
 30 29  1  6
 30 32  1  0
 31 30  1  0
 32 33  1  0
 34 32  2  0
M  END
$$$$
