RWM.pdb
     RDKit          3D

 34 35  0  0  1  0  0  0  0  0999 V2000
   28.0984  -19.1789  -16.8487 N   0  0  0  0  0  0  0  0  0  0  0  0
   28.9523  -19.0970  -18.0113 C   0  0  0  0  0  0  0  0  0  0  0  0
   29.4779  -17.9836  -18.3902 N   0  0  0  0  0  0  0  0  0  0  0  0
   29.2653  -20.2408  -18.7733 N   0  0  0  0  0  0  0  0  0  0  0  0
   28.7478  -21.5489  -18.4854 C   0  0  0  0  0  0  0  0  0  0  0  0
   27.3019  -21.7355  -18.7456 C   0  0  0  0  0  0  0  0  0  0  0  0
   26.3849  -22.0513  -17.6387 C   0  0  0  0  0  0  0  0  0  0  0  0
   26.8871  -22.9632  -16.5713 C   0  0  2  0  0  0  0  0  0  0  0  0
   26.8579  -24.3469  -16.7899 N   0  0  0  0  0  0  0  0  0  0  0  0
   26.1427  -22.6333  -15.3005 C   0  0  0  0  0  0  0  0  0  0  0  0
   24.8930  -22.9113  -15.2288 O   0  0  0  0  0  0  0  0  0  0  0  0
   30.0443  -17.9184  -19.2543 N   0  0  0  0  0  0  0  0  0  0  0  0
   26.7151  -22.0353  -14.1695 C   0  0  2  0  0  0  0  0  0  0  0  0
   25.9104  -21.7360  -12.9874 C   0  0  0  0  0  0  0  0  0  0  0  0
   26.6717  -21.3703  -11.7828 C   0  0  0  0  0  0  0  0  0  0  0  0
   25.8730  -21.2114  -10.5335 C   0  0  0  0  0  0  0  0  0  0  0  0
   24.7078  -21.8252  -10.1664 N   0  0  0  0  0  0  0  0  0  0  0  0
   24.3529  -21.3504   -8.9648 C   0  0  0  0  0  0  0  0  0  0  0  0
   25.2416  -20.4486   -8.5327 C   0  0  0  0  0  0  0  0  0  0  0  0
   25.2987  -19.6867   -7.3552 C   0  0  0  0  0  0  0  0  0  0  0  0
   26.3627  -18.8241   -7.2045 C   0  0  0  0  0  0  0  0  0  0  0  0
   27.3459  -18.6988   -8.1634 C   0  0  0  0  0  0  0  0  0  0  0  0
   27.2913  -19.4584   -9.3398 C   0  0  0  0  0  0  0  0  0  0  0  0
   26.2186  -20.3273   -9.4892 C   0  0  0  0  0  0  0  0  0  0  0  0
   24.9042  -20.7488  -13.4704 O   0  0  0  0  0  0  0  0  0  0  0  0
   25.2992  -19.7168  -14.1314 C   0  0  0  0  0  0  0  0  0  0  0  0
   22.1300  -19.7029  -18.1171 S   0  0  0  0  0  0  0  0  0  0  0  0
   20.5869  -19.4765  -17.1795 C   0  0  0  0  0  0  0  0  0  0  0  0
   21.0676  -19.1937  -15.4219 C   0  0  0  0  0  0  0  0  0  0  0  0
   22.1570  -20.1464  -15.0307 C   0  0  1  0  0  0  0  0  0  0  0  0
   22.5798  -19.9043  -13.6118 N   0  0  0  0  0  0  0  0  0  0  0  0
   23.5455  -20.9363  -13.2045 C   0  0  0  0  0  0  0  0  0  0  0  0
   21.4840  -19.8925  -12.6268 O   0  0  0  0  0  0  0  0  0  0  0  0
   20.6890  -18.8090  -12.3405 O   0  0  0  0  0  0  0  0  0  0  0  0
  2  1  1  0
  3  2  2  0
  4  2  1  0
  5  4  1  0
  6  5  1  0
  7  6  1  0
  7  8  1  0
  8  9  1  6
 10  8  1  0
 11 10  2  0
 12 10  1  0
 13 24  1  0
 13 12  1  0
 13 14  1  1
 15 23  1  0
 15 14  1  0
 16 15  2  0
 17 16  1  0
 17 18  1  0
 18 23  2  0
 19 18  1  0
 19 20  2  0
 20 21  1  0
 21 22  2  0
 23 22  1  0
 24 31  1  0
 25 24  2  0
 27 28  1  0
 27 26  1  0
 28 29  1  0
 30 29  1  6
 30 32  1  0
 31 30  1  0
 32 33  1  0
 34 32  2  0
M  END
$$$$
