RWM.pdb
     RDKit          3D

 34 35  0  0  1  0  0  0  0  0999 V2000
   22.8082  -26.8930  -17.7707 N   0  0  0  0  0  0  0  0  0  0  0  0
   22.2278  -25.5954  -18.0295 C   0  0  0  0  0  0  0  0  0  0  0  0
   21.0150  -25.3159  -17.6976 N   0  0  0  0  0  0  0  0  0  0  0  0
   22.9736  -24.5674  -18.6411 N   0  0  0  0  0  0  0  0  0  0  0  0
   24.3401  -24.7203  -19.0549 C   0  0  0  0  0  0  0  0  0  0  0  0
   25.3501  -24.6095  -17.9776 C   0  0  0  0  0  0  0  0  0  0  0  0
   26.0528  -23.3368  -17.7492 C   0  0  0  0  0  0  0  0  0  0  0  0
   27.1734  -23.3392  -16.7657 C   0  0  2  0  0  0  0  0  0  0  0  0
   27.9192  -24.5120  -16.5875 N   0  0  0  0  0  0  0  0  0  0  0  0
   26.6180  -22.8831  -15.4386 C   0  0  0  0  0  0  0  0  0  0  0  0
   26.2999  -23.7683  -14.5671 O   0  0  0  0  0  0  0  0  0  0  0  0
   20.6317  -24.3599  -17.8012 N   0  0  0  0  0  0  0  0  0  0  0  0
   26.4159  -21.5455  -15.0723 C   0  0  1  0  0  0  0  0  0  0  0  0
   25.9943  -21.1908  -13.7191 C   0  0  0  0  0  0  0  0  0  0  0  0
   26.7336  -20.0800  -13.0994 C   0  0  0  0  0  0  0  0  0  0  0  0
   27.5400  -20.4292  -11.8946 C   0  0  0  0  0  0  0  0  0  0  0  0
   28.8301  -20.8744  -11.8151 N   0  0  0  0  0  0  0  0  0  0  0  0
   29.1180  -21.0742  -10.5218 C   0  0  0  0  0  0  0  0  0  0  0  0
   28.0644  -20.7772   -9.7527 C   0  0  0  0  0  0  0  0  0  0  0  0
   27.8817  -20.8291   -8.3619 C   0  0  0  0  0  0  0  0  0  0  0  0
   26.6519  -20.4551   -7.8657 C   0  0  0  0  0  0  0  0  0  0  0  0
   25.6247  -20.0421   -8.6880 C   0  0  0  0  0  0  0  0  0  0  0  0
   25.8045  -19.9891  -10.0768 C   0  0  0  0  0  0  0  0  0  0  0  0
   27.0448  -20.3660  -10.5746 C   0  0  0  0  0  0  0  0  0  0  0  0
   24.5161  -21.0362  -13.8253 O   0  0  0  0  0  0  0  0  0  0  0  0
   24.0138  -20.4720  -14.8680 C   0  0  0  0  0  0  0  0  0  0  0  0
   20.0446  -25.0273  -11.2143 S   0  0  0  0  0  0  0  0  0  0  0  0
   19.2404  -23.4095  -10.9963 C   0  0  0  0  0  0  0  0  0  0  0  0
   20.0580  -22.2454  -12.1696 C   0  0  0  0  0  0  0  0  0  0  0  0
   21.5423  -22.2681  -11.9605 C   0  0  2  0  0  0  0  0  0  0  0  0
   22.2238  -21.3655  -12.9462 N   0  0  0  0  0  0  0  0  0  0  0  0
   23.6820  -21.4931  -12.8019 C   0  0  0  0  0  0  0  0  0  0  0  0
   21.8782  -19.9380  -12.8288 O   0  0  0  0  0  0  0  0  0  0  0  0
   20.8848  -19.3036  -13.5351 O   0  0  0  0  0  0  0  0  0  0  0  0
  2  1  1  0
  3  2  2  0
  4  2  1  0
  5  4  1  0
  6  5  1  0
  7  6  1  0
  7  8  1  0
  8  9  1  1
 10  8  1  0
 11 10  2  0
 12 10  1  0
 13 24  1  0
 13 12  1  0
 13 14  1  6
 15 23  1  0
 15 14  1  0
 16 15  2  0
 17 16  1  0
 17 18  1  0
 18 23  2  0
 19 18  1  0
 19 20  2  0
 20 21  1  0
 21 22  2  0
 23 22  1  0
 24 31  1  0
 25 24  2  0
 27 28  1  0
 27 26  1  0
 28 29  1  0
 30 29  1  6
 30 32  1  0
 31 30  1  0
 32 33  1  0
 34 32  2  0
M  END
$$$$
