FSR.pdb
     RDKit          3D

 29 29  0  0  1  0  0  0  0  0999 V2000
    7.3332  -16.9351   21.6248 N   0  0  0  0  0  0  0  0  0  0  0  0
    8.6636  -16.5514   21.1870 C   0  0  1  0  0  0  0  0  0  0  0  0
    8.8955  -15.1519   21.6653 C   0  0  0  0  0  0  0  0  0  0  0  0
    8.1690  -14.1461   20.8499 C   0  0  0  0  0  0  0  0  0  0  0  0
    6.8072  -13.9406   20.9769 C   0  0  0  0  0  0  0  0  0  0  0  0
    6.1385  -12.9937   20.2042 C   0  0  0  0  0  0  0  0  0  0  0  0
    6.8213  -12.2431   19.2977 C   0  0  0  0  0  0  0  0  0  0  0  0
    8.1679  -12.4218   19.1478 C   0  0  0  0  0  0  0  0  0  0  0  0
    8.8183  -13.3528   19.9093 C   0  0  0  0  0  0  0  0  0  0  0  0
    9.6073  -17.5393   21.6621 C   0  0  0  0  0  0  0  0  0  0  0  0
    9.4784  -18.0545   22.8013 O   0  0  0  0  0  0  0  0  0  0  0  0
   13.2157  -17.6877   19.5560 O   0  0  0  0  0  0  0  0  0  0  0  0
   12.9529  -18.8064   20.3407 C   0  0  0  0  0  0  0  0  0  0  0  0
   11.8955  -18.5539   21.3901 C   0  0  2  0  0  0  0  0  0  0  0  0
   10.7094  -17.9514   20.8443 N   0  0  0  0  0  0  0  0  0  0  0  0
   12.5153  -17.6814   22.4406 C   0  0  0  0  0  0  0  0  0  0  0  0
   12.3130  -16.4588   22.3854 O   0  0  0  0  0  0  0  0  0  0  0  0
    9.4210  -15.5360   27.3927 N   0  0  0  0  0  0  0  0  0  0  0  0
   10.4021  -15.5562   28.4158 C   0  0  0  0  0  0  0  0  0  0  0  0
   10.6887  -14.4324   29.0109 N   0  0  0  0  0  0  0  0  0  0  0  0
   11.0801  -16.7393   28.8160 N   0  0  0  0  0  0  0  0  0  0  0  0
   11.4356  -17.7317   27.8185 C   0  0  0  0  0  0  0  0  0  0  0  0
   12.2970  -17.0999   26.7298 C   0  0  0  0  0  0  0  0  0  0  0  0
   12.8372  -18.1408   25.8023 C   0  0  0  0  0  0  0  0  0  0  0  0
   13.6551  -17.6427   24.6737 C   0  0  2  0  0  0  0  0  0  0  0  0
   13.2956  -18.2844   23.4404 N   0  0  0  0  0  0  0  0  0  0  0  0
   15.1145  -17.5494   24.9202 C   0  0  0  0  0  0  0  0  0  0  0  0
   15.6110  -16.4610   25.6131 O   0  0  0  0  0  0  0  0  0  0  0  0
   15.9522  -18.3974   24.5467 O   0  0  0  0  0  0  0  0  0  0  0  0
  2  1  1  1
  2 10  1  0
  3  2  1  0
  4  3  1  0
  4  9  2  0
  5  4  1  0
  6  5  2  0
  6  7  1  0
  7  8  2  0
  8  9  1  0
 10 11  2  0
 13 12  1  0
 14 13  1  6
 14 16  1  0
 15 14  1  0
 15 10  1  0
 16 26  1  0
 16 17  2  0
 18 19  1  0
 19 21  1  0
 19 20  2  0
 21 22  1  0
 22 23  1  0
 23 24  1  0
 25 24  1  1
 25 27  1  0
 26 25  1  0
 27 29  2  0
 27 28  1  0
M  END
$$$$
