FSR.pdb
     RDKit          3D

 29 29  0  0  1  0  0  0  0  0999 V2000
    4.5804  -19.5303   19.4212 N   0  0  0  0  0  0  0  0  0  0  0  0
    4.4963  -18.2385   20.0795 C   0  0  1  0  0  0  0  0  0  0  0  0
    3.6664  -18.4278   21.3110 C   0  0  0  0  0  0  0  0  0  0  0  0
    2.2923  -18.8978   21.0021 C   0  0  0  0  0  0  0  0  0  0  0  0
    1.8028  -18.9416   19.7093 C   0  0  0  0  0  0  0  0  0  0  0  0
    0.5107  -19.3842   19.4345 C   0  0  0  0  0  0  0  0  0  0  0  0
   -0.3052  -19.7871   20.4462 C   0  0  0  0  0  0  0  0  0  0  0  0
    0.1483  -19.7559   21.7350 C   0  0  0  0  0  0  0  0  0  0  0  0
    1.4175  -19.3205   21.9980 C   0  0  0  0  0  0  0  0  0  0  0  0
    5.8383  -17.7457   20.2993 C   0  0  0  0  0  0  0  0  0  0  0  0
    6.7662  -18.5309   20.6194 O   0  0  0  0  0  0  0  0  0  0  0  0
    6.5718  -13.5678   20.6821 O   0  0  0  0  0  0  0  0  0  0  0  0
    7.5472  -14.3455   20.0655 C   0  0  0  0  0  0  0  0  0  0  0  0
    7.4440  -15.8102   20.4219 C   0  0  2  0  0  0  0  0  0  0  0  0
    6.1385  -16.3518   20.1570 N   0  0  0  0  0  0  0  0  0  0  0  0
    7.8024  -15.9383   21.8725 C   0  0  0  0  0  0  0  0  0  0  0  0
    6.9145  -15.7485   22.7176 O   0  0  0  0  0  0  0  0  0  0  0  0
    9.8586  -20.2418   28.7111 N   0  0  0  0  0  0  0  0  0  0  0  0
    8.5757  -19.8986   28.2151 C   0  0  0  0  0  0  0  0  0  0  0  0
    7.5609  -19.9899   29.0282 N   0  0  0  0  0  0  0  0  0  0  0  0
    8.3517  -19.4635   26.8809 N   0  0  0  0  0  0  0  0  0  0  0  0
    9.4645  -19.4070   25.9511 C   0  0  0  0  0  0  0  0  0  0  0  0
    9.7265  -17.9649   25.5293 C   0  0  0  0  0  0  0  0  0  0  0  0
    9.3807  -17.7563   24.0897 C   0  0  0  0  0  0  0  0  0  0  0  0
    9.6000  -16.3914   23.5608 C   0  0  2  0  0  0  0  0  0  0  0  0
    9.1248  -16.2676   22.2114 N   0  0  0  0  0  0  0  0  0  0  0  0
   10.9433  -15.8100   23.7994 C   0  0  0  0  0  0  0  0  0  0  0  0
   11.3319  -15.5250   25.0952 O   0  0  0  0  0  0  0  0  0  0  0  0
   11.7746  -15.5541   22.9028 O   0  0  0  0  0  0  0  0  0  0  0  0
  2  1  1  1
  2 10  1  0
  3  2  1  0
  4  3  1  0
  4  9  2  0
  5  4  1  0
  6  5  2  0
  6  7  1  0
  7  8  2  0
  8  9  1  0
 10 11  2  0
 13 12  1  0
 14 13  1  1
 14 16  1  0
 15 14  1  0
 15 10  1  0
 16 26  1  0
 16 17  2  0
 18 19  1  0
 19 21  1  0
 19 20  2  0
 21 22  1  0
 22 23  1  0
 23 24  1  0
 25 24  1  6
 25 27  1  0
 26 25  1  0
 27 29  2  0
 27 28  1  0
M  END
$$$$
