FSR.pdb
     RDKit          3D

 29 29  0  0  1  0  0  0  0  0999 V2000
   12.5373  -13.7983   19.7499 N   0  0  0  0  0  0  0  0  0  0  0  0
   11.2849  -14.1827   20.3767 C   0  0  1  0  0  0  0  0  0  0  0  0
   10.4597  -14.8600   19.3271 C   0  0  0  0  0  0  0  0  0  0  0  0
    9.1388  -14.2093   19.1368 C   0  0  0  0  0  0  0  0  0  0  0  0
    7.9986  -14.6573   19.7787 C   0  0  0  0  0  0  0  0  0  0  0  0
    6.7654  -14.0374   19.5898 C   0  0  0  0  0  0  0  0  0  0  0  0
    6.6577  -12.9650   18.7592 C   0  0  0  0  0  0  0  0  0  0  0  0
    7.7656  -12.4977   18.1098 C   0  0  0  0  0  0  0  0  0  0  0  0
    8.9730  -13.1106   18.2995 C   0  0  0  0  0  0  0  0  0  0  0  0
   11.5815  -14.9772   21.5484 C   0  0  0  0  0  0  0  0  0  0  0  0
   12.6273  -15.6722   21.6049 O   0  0  0  0  0  0  0  0  0  0  0  0
    8.5997  -15.7921   24.4967 O   0  0  0  0  0  0  0  0  0  0  0  0
    9.9019  -15.5512   24.9239 C   0  0  0  0  0  0  0  0  0  0  0  0
   10.9294  -15.7870   23.8415 C   0  0  2  0  0  0  0  0  0  0  0  0
   10.6892  -14.9892   22.6696 N   0  0  0  0  0  0  0  0  0  0  0  0
   10.9021  -17.2512   23.5181 C   0  0  0  0  0  0  0  0  0  0  0  0
   10.4448  -17.6036   22.4202 O   0  0  0  0  0  0  0  0  0  0  0  0
   15.0160  -19.0200   19.2786 N   0  0  0  0  0  0  0  0  0  0  0  0
   15.9981  -19.8159   19.9205 C   0  0  0  0  0  0  0  0  0  0  0  0
   17.2096  -19.7983   19.4397 N   0  0  0  0  0  0  0  0  0  0  0  0
   15.7196  -20.6246   21.0554 N   0  0  0  0  0  0  0  0  0  0  0  0
   15.3046  -19.9966   22.2962 C   0  0  0  0  0  0  0  0  0  0  0  0
   13.8484  -20.3357   22.5974 C   0  0  0  0  0  0  0  0  0  0  0  0
   13.1051  -19.1295   23.0751 C   0  0  0  0  0  0  0  0  0  0  0  0
   12.1016  -19.3642   24.1375 C   0  0  2  0  0  0  0  0  0  0  0  0
   11.3953  -18.1588   24.4695 N   0  0  0  0  0  0  0  0  0  0  0  0
   12.5642  -20.1519   25.3058 C   0  0  0  0  0  0  0  0  0  0  0  0
   12.9097  -19.4894   26.4690 O   0  0  0  0  0  0  0  0  0  0  0  0
   12.6660  -21.3968   25.3262 O   0  0  0  0  0  0  0  0  0  0  0  0
  2  1  1  6
  2 10  1  0
  3  2  1  0
  4  3  1  0
  4  9  2  0
  5  4  1  0
  6  5  2  0
  6  7  1  0
  7  8  2  0
  8  9  1  0
 10 11  2  0
 13 12  1  0
 14 13  1  1
 14 16  1  0
 15 14  1  0
 15 10  1  0
 16 26  1  0
 16 17  2  0
 18 19  1  0
 19 21  1  0
 19 20  2  0
 21 22  1  0
 22 23  1  0
 23 24  1  0
 25 24  1  6
 25 27  1  0
 26 25  1  0
 27 29  2  0
 27 28  1  0
M  END
$$$$
