FSR.pdb
     RDKit          3D

 29 29  0  0  1  0  0  0  0  0999 V2000
    5.9448  -16.4114   25.5358 N   0  0  0  0  0  0  0  0  0  0  0  0
    6.1273  -16.0660   24.1371 C   0  0  1  0  0  0  0  0  0  0  0  0
    5.7655  -14.6205   23.9921 C   0  0  0  0  0  0  0  0  0  0  0  0
    6.4121  -13.7680   25.0214 C   0  0  0  0  0  0  0  0  0  0  0  0
    5.8961  -13.6363   26.2979 C   0  0  0  0  0  0  0  0  0  0  0  0
    6.5132  -12.8319   27.2533 C   0  0  0  0  0  0  0  0  0  0  0  0
    7.6505  -12.1515   26.9450 C   0  0  0  0  0  0  0  0  0  0  0  0
    8.1861  -12.2602   25.6924 C   0  0  0  0  0  0  0  0  0  0  0  0
    7.5755  -13.0514   24.7592 C   0  0  0  0  0  0  0  0  0  0  0  0
    7.4761  -16.4151   23.7489 C   0  0  0  0  0  0  0  0  0  0  0  0
    8.2512  -16.9818   24.5600 O   0  0  0  0  0  0  0  0  0  0  0  0
    9.7142  -14.8560   20.4114 O   0  0  0  0  0  0  0  0  0  0  0  0
    9.4674  -16.2226   20.5005 C   0  0  0  0  0  0  0  0  0  0  0  0
    9.1781  -16.6774   21.9121 C   0  0  2  0  0  0  0  0  0  0  0  0
    7.9576  -16.1222   22.4314 N   0  0  0  0  0  0  0  0  0  0  0  0
   10.3560  -16.2843   22.7530 C   0  0  0  0  0  0  0  0  0  0  0  0
   10.3084  -15.2075   23.3668 O   0  0  0  0  0  0  0  0  0  0  0  0
   12.7278  -19.5438   30.9094 N   0  0  0  0  0  0  0  0  0  0  0  0
   12.4583  -19.9165   29.5684 C   0  0  0  0  0  0  0  0  0  0  0  0
   11.7733  -21.0061   29.3621 N   0  0  0  0  0  0  0  0  0  0  0  0
   12.8998  -19.1590   28.4500 N   0  0  0  0  0  0  0  0  0  0  0  0
   11.9919  -18.9239   27.3424 C   0  0  0  0  0  0  0  0  0  0  0  0
   12.7030  -18.1592   26.2308 C   0  0  0  0  0  0  0  0  0  0  0  0
   11.8103  -17.9852   25.0441 C   0  0  0  0  0  0  0  0  0  0  0  0
   12.3748  -17.2121   23.9152 C   0  0  2  0  0  0  0  0  0  0  0  0
   11.4598  -17.1506   22.8102 N   0  0  0  0  0  0  0  0  0  0  0  0
   13.7739  -17.5333   23.5428 C   0  0  0  0  0  0  0  0  0  0  0  0
   14.7911  -17.2360   24.4307 O   0  0  0  0  0  0  0  0  0  0  0  0
   14.1163  -18.0675   22.4668 O   0  0  0  0  0  0  0  0  0  0  0  0
  2  1  1  1
  2 10  1  0
  3  2  1  0
  4  3  1  0
  4  9  2  0
  5  4  1  0
  6  5  2  0
  6  7  1  0
  7  8  2  0
  8  9  1  0
 10 11  2  0
 13 12  1  0
 14 13  1  6
 14 16  1  0
 15 14  1  0
 15 10  1  0
 16 26  1  0
 16 17  2  0
 18 19  1  0
 19 21  1  0
 19 20  2  0
 21 22  1  0
 22 23  1  0
 23 24  1  0
 25 24  1  1
 25 27  1  0
 26 25  1  0
 27 29  2  0
 27 28  1  0
M  END
$$$$
