FSR.pdb
     RDKit          3D

 29 29  0  0  1  0  0  0  0  0999 V2000
    8.6593  -15.3579   25.6987 N   0  0  0  0  0  0  0  0  0  0  0  0
    8.3752  -14.9785   24.3260 C   0  0  1  0  0  0  0  0  0  0  0  0
    8.3080  -13.4834   24.2898 C   0  0  0  0  0  0  0  0  0  0  0  0
    7.6156  -12.9179   25.4752 C   0  0  0  0  0  0  0  0  0  0  0  0
    8.1084  -11.8236   26.1627 C   0  0  0  0  0  0  0  0  0  0  0  0
    7.4483  -11.3042   27.2741 C   0  0  0  0  0  0  0  0  0  0  0  0
    6.2908  -11.8710   27.7104 C   0  0  0  0  0  0  0  0  0  0  0  0
    5.7773  -12.9536   27.0531 C   0  0  0  0  0  0  0  0  0  0  0  0
    6.4300  -13.4585   25.9629 C   0  0  0  0  0  0  0  0  0  0  0  0
    9.3704  -15.5809   23.4666 C   0  0  0  0  0  0  0  0  0  0  0  0
    9.7577  -14.9952   22.4241 O   0  0  0  0  0  0  0  0  0  0  0  0
   10.7956  -19.4835   24.3089 O   0  0  0  0  0  0  0  0  0  0  0  0
   11.6893  -18.5738   23.7521 C   0  0  0  0  0  0  0  0  0  0  0  0
   11.0008  -17.4465   23.0184 C   0  0  2  0  0  0  0  0  0  0  0  0
    9.9359  -16.8584   23.7852 N   0  0  0  0  0  0  0  0  0  0  0  0
   10.4935  -18.0071   21.7232 C   0  0  0  0  0  0  0  0  0  0  0  0
    9.5129  -18.7660   21.7537 O   0  0  0  0  0  0  0  0  0  0  0  0
    8.9270  -13.4136   17.1237 N   0  0  0  0  0  0  0  0  0  0  0  0
    8.3355  -13.3700   18.4113 C   0  0  0  0  0  0  0  0  0  0  0  0
    8.3679  -12.2407   19.0615 N   0  0  0  0  0  0  0  0  0  0  0  0
    7.7145  -14.4955   19.0172 N   0  0  0  0  0  0  0  0  0  0  0  0
    7.8764  -15.8086   18.4208 C   0  0  0  0  0  0  0  0  0  0  0  0
    8.7689  -16.6800   19.2985 C   0  0  0  0  0  0  0  0  0  0  0  0
    9.9024  -17.2524   18.5090 C   0  0  0  0  0  0  0  0  0  0  0  0
   10.8045  -18.1699   19.2405 C   0  0  2  0  0  0  0  0  0  0  0  0
   11.1484  -17.6491   20.5337 N   0  0  0  0  0  0  0  0  0  0  0  0
   11.9485  -18.7103   18.4668 C   0  0  0  0  0  0  0  0  0  0  0  0
   11.7095  -19.3128   17.2457 O   0  0  0  0  0  0  0  0  0  0  0  0
   13.1408  -18.6606   18.8362 O   0  0  0  0  0  0  0  0  0  0  0  0
  2  1  1  1
  2 10  1  0
  3  2  1  0
  4  3  1  0
  4  9  2  0
  5  4  1  0
  6  5  2  0
  6  7  1  0
  7  8  2  0
  8  9  1  0
 10 11  2  0
 13 12  1  0
 14 13  1  1
 14 16  1  0
 15 14  1  0
 15 10  1  0
 16 26  1  0
 16 17  2  0
 18 19  1  0
 19 21  1  0
 19 20  2  0
 21 22  1  0
 22 23  1  0
 23 24  1  0
 25 24  1  6
 25 27  1  0
 26 25  1  0
 27 29  2  0
 27 28  1  0
M  END
$$$$
