FSR.pdb
     RDKit          3D

 29 29  0  0  1  0  0  0  0  0999 V2000
    6.3415  -16.2087   24.8936 N   0  0  0  0  0  0  0  0  0  0  0  0
    6.9347  -15.1037   24.1614 C   0  0  1  0  0  0  0  0  0  0  0  0
    7.9540  -14.4785   25.0622 C   0  0  0  0  0  0  0  0  0  0  0  0
    7.3353  -13.6929   26.1597 C   0  0  0  0  0  0  0  0  0  0  0  0
    6.1645  -12.9781   25.9833 C   0  0  0  0  0  0  0  0  0  0  0  0
    5.5958  -12.2444   27.0222 C   0  0  0  0  0  0  0  0  0  0  0  0
    6.1892  -12.2167   28.2463 C   0  0  0  0  0  0  0  0  0  0  0  0
    7.3471  -12.9123   28.4533 C   0  0  0  0  0  0  0  0  0  0  0  0
    7.9002  -13.6305   27.4296 C   0  0  0  0  0  0  0  0  0  0  0  0
    7.4370  -15.6038   22.9006 C   0  0  0  0  0  0  0  0  0  0  0  0
    7.6280  -16.8341   22.7282 O   0  0  0  0  0  0  0  0  0  0  0  0
    9.1340  -13.1141   19.7160 O   0  0  0  0  0  0  0  0  0  0  0  0
    8.1415  -14.0630   19.4907 C   0  0  0  0  0  0  0  0  0  0  0  0
    8.1380  -15.1671   20.5221 C   0  0  2  0  0  0  0  0  0  0  0  0
    7.7277  -14.7072   21.8213 N   0  0  0  0  0  0  0  0  0  0  0  0
    9.5233  -15.7405   20.5601 C   0  0  0  0  0  0  0  0  0  0  0  0
   10.1221  -15.9055   19.4865 O   0  0  0  0  0  0  0  0  0  0  0  0
   12.6662  -14.4861   17.8103 N   0  0  0  0  0  0  0  0  0  0  0  0
   14.0560  -14.3029   18.0215 C   0  0  0  0  0  0  0  0  0  0  0  0
   14.8411  -14.3261   16.9812 N   0  0  0  0  0  0  0  0  0  0  0  0
   14.6238  -14.0972   19.3079 N   0  0  0  0  0  0  0  0  0  0  0  0
   13.7718  -14.1470   20.4817 C   0  0  0  0  0  0  0  0  0  0  0  0
   13.2374  -15.5608   20.6857 C   0  0  0  0  0  0  0  0  0  0  0  0
   12.4539  -15.6596   21.9553 C   0  0  0  0  0  0  0  0  0  0  0  0
   11.3733  -16.6709   21.9740 C   0  0  2  0  0  0  0  0  0  0  0  0
   10.0825  -16.0644   21.8069 N   0  0  0  0  0  0  0  0  0  0  0  0
   11.4469  -17.6807   23.0576 C   0  0  0  0  0  0  0  0  0  0  0  0
   10.6043  -17.5603   24.1470 O   0  0  0  0  0  0  0  0  0  0  0  0
   12.2250  -18.6579   23.0644 O   0  0  0  0  0  0  0  0  0  0  0  0
  2  1  1  1
  2 10  1  0
  3  2  1  0
  4  3  1  0
  4  9  2  0
  5  4  1  0
  6  5  2  0
  6  7  1  0
  7  8  2  0
  8  9  1  0
 10 11  2  0
 13 12  1  0
 14 13  1  6
 14 16  1  0
 15 14  1  0
 15 10  1  0
 16 26  1  0
 16 17  2  0
 18 19  1  0
 19 21  1  0
 19 20  2  0
 21 22  1  0
 22 23  1  0
 23 24  1  0
 25 24  1  1
 25 27  1  0
 26 25  1  0
 27 29  2  0
 27 28  1  0
M  END
$$$$
