FSR.pdb
     RDKit          3D

 29 29  0  0  1  0  0  0  0  0999 V2000
    8.1727  -15.9282   27.0852 N   0  0  0  0  0  0  0  0  0  0  0  0
    7.4820  -15.8866   25.8084 C   0  0  1  0  0  0  0  0  0  0  0  0
    7.7472  -14.5400   25.2106 C   0  0  0  0  0  0  0  0  0  0  0  0
    7.2700  -13.4316   26.0756 C   0  0  0  0  0  0  0  0  0  0  0  0
    6.0005  -13.4206   26.6242 C   0  0  0  0  0  0  0  0  0  0  0  0
    5.5660  -12.3731   27.4335 C   0  0  0  0  0  0  0  0  0  0  0  0
    6.3933  -11.3270   27.7032 C   0  0  0  0  0  0  0  0  0  0  0  0
    7.6541  -11.3076   27.1764 C   0  0  0  0  0  0  0  0  0  0  0  0
    8.0745  -12.3387   26.3829 C   0  0  0  0  0  0  0  0  0  0  0  0
    7.9108  -17.0181   25.0160 C   0  0  0  0  0  0  0  0  0  0  0  0
    9.0759  -17.4761   25.1287 O   0  0  0  0  0  0  0  0  0  0  0  0
    5.2736  -18.5045   21.9165 O   0  0  0  0  0  0  0  0  0  0  0  0
    6.4205  -19.1997   22.2875 C   0  0  0  0  0  0  0  0  0  0  0  0
    7.4770  -18.3086   22.8980 C   0  0  2  0  0  0  0  0  0  0  0  0
    7.0167  -17.6409   24.0854 N   0  0  0  0  0  0  0  0  0  0  0  0
    7.8872  -17.3238   21.8441 C   0  0  0  0  0  0  0  0  0  0  0  0
    7.1502  -16.3494   21.6295 O   0  0  0  0  0  0  0  0  0  0  0  0
    9.2266  -12.5493   17.8994 N   0  0  0  0  0  0  0  0  0  0  0  0
    8.3889  -13.6260   17.5139 C   0  0  0  0  0  0  0  0  0  0  0  0
    8.2646  -13.8790   16.2412 N   0  0  0  0  0  0  0  0  0  0  0  0
    7.6856  -14.4336   18.4481 N   0  0  0  0  0  0  0  0  0  0  0  0
    7.8359  -14.1789   19.8689 C   0  0  0  0  0  0  0  0  0  0  0  0
    9.3121  -14.1860   20.2525 C   0  0  0  0  0  0  0  0  0  0  0  0
    9.5827  -15.1937   21.3235 C   0  0  0  0  0  0  0  0  0  0  0  0
   10.0504  -16.5203   20.8630 C   0  0  2  0  0  0  0  0  0  0  0  0
    9.0860  -17.5456   21.1471 N   0  0  0  0  0  0  0  0  0  0  0  0
   11.4486  -16.8728   21.2096 C   0  0  0  0  0  0  0  0  0  0  0  0
   12.3412  -17.1595   20.1935 O   0  0  0  0  0  0  0  0  0  0  0  0
   11.8977  -16.9293   22.3739 O   0  0  0  0  0  0  0  0  0  0  0  0
  2  1  1  1
  2 10  1  0
  3  2  1  0
  4  3  1  0
  4  9  2  0
  5  4  1  0
  6  5  2  0
  6  7  1  0
  7  8  2  0
  8  9  1  0
 10 11  2  0
 13 12  1  0
 14 13  1  6
 14 16  1  0
 15 14  1  0
 15 10  1  0
 16 26  1  0
 16 17  2  0
 18 19  1  0
 19 21  1  0
 19 20  2  0
 21 22  1  0
 22 23  1  0
 23 24  1  0
 25 24  1  1
 25 27  1  0
 26 25  1  0
 27 29  2  0
 27 28  1  0
M  END
$$$$
