FSR.pdb
     RDKit          3D

 29 29  0  0  1  0  0  0  0  0999 V2000
    7.9450  -17.4309   19.9781 N   0  0  0  0  0  0  0  0  0  0  0  0
    9.1572  -16.8691   19.4087 C   0  0  1  0  0  0  0  0  0  0  0  0
    8.7400  -15.7440   18.5137 C   0  0  0  0  0  0  0  0  0  0  0  0
    8.2045  -14.5850   19.2715 C   0  0  0  0  0  0  0  0  0  0  0  0
    6.9201  -14.5713   19.7846 C   0  0  0  0  0  0  0  0  0  0  0  0
    6.4307  -13.4762   20.4931 C   0  0  0  0  0  0  0  0  0  0  0  0
    7.2172  -12.3846   20.6965 C   0  0  0  0  0  0  0  0  0  0  0  0
    8.4912  -12.3666   20.2024 C   0  0  0  0  0  0  0  0  0  0  0  0
    8.9656  -13.4446   19.5079 C   0  0  0  0  0  0  0  0  0  0  0  0
   10.0501  -16.5111   20.4889 C   0  0  0  0  0  0  0  0  0  0  0  0
   11.2210  -16.1209   20.2513 O   0  0  0  0  0  0  0  0  0  0  0  0
    8.7489  -17.0028   24.5183 O   0  0  0  0  0  0  0  0  0  0  0  0
    9.8337  -16.1705   24.2596 C   0  0  0  0  0  0  0  0  0  0  0  0
   10.5311  -16.4997   22.9603 C   0  0  2  0  0  0  0  0  0  0  0  0
    9.6187  -16.5937   21.8528 N   0  0  0  0  0  0  0  0  0  0  0  0
   11.2685  -17.7888   23.1689 C   0  0  0  0  0  0  0  0  0  0  0  0
   10.7114  -18.8464   22.8378 O   0  0  0  0  0  0  0  0  0  0  0  0
   18.9375  -19.8897   24.7080 N   0  0  0  0  0  0  0  0  0  0  0  0
   18.7610  -20.9333   23.7649 C   0  0  0  0  0  0  0  0  0  0  0  0
   19.5784  -21.9476   23.8148 N   0  0  0  0  0  0  0  0  0  0  0  0
   17.7401  -20.9201   22.7765 N   0  0  0  0  0  0  0  0  0  0  0  0
   16.8817  -19.7567   22.6510 C   0  0  0  0  0  0  0  0  0  0  0  0
   15.6166  -19.9427   23.4824 C   0  0  0  0  0  0  0  0  0  0  0  0
   14.7009  -18.7700   23.3345 C   0  0  0  0  0  0  0  0  0  0  0  0
   13.3687  -18.9034   23.9655 C   0  0  2  0  0  0  0  0  0  0  0  0
   12.5559  -17.7436   23.7282 N   0  0  0  0  0  0  0  0  0  0  0  0
   13.3588  -19.3897   25.3665 C   0  0  0  0  0  0  0  0  0  0  0  0
   13.2018  -18.4776   26.3935 O   0  0  0  0  0  0  0  0  0  0  0  0
   13.4799  -20.5868   25.7023 O   0  0  0  0  0  0  0  0  0  0  0  0
  2  1  1  1
  2 10  1  0
  3  2  1  0
  4  3  1  0
  4  9  2  0
  5  4  1  0
  6  5  2  0
  6  7  1  0
  7  8  2  0
  8  9  1  0
 10 11  2  0
 13 12  1  0
 14 13  1  1
 14 16  1  0
 15 14  1  0
 15 10  1  0
 16 26  1  0
 16 17  2  0
 18 19  1  0
 19 21  1  0
 19 20  2  0
 21 22  1  0
 22 23  1  0
 23 24  1  0
 25 24  1  1
 25 27  1  0
 26 25  1  0
 27 29  2  0
 27 28  1  0
M  END
$$$$
