FSR.pdb
     RDKit          3D

 29 29  0  0  1  0  0  0  0  0999 V2000
    8.8978  -14.7247   24.7195 N   0  0  0  0  0  0  0  0  0  0  0  0
    7.7249  -15.4908   24.3368 C   0  0  1  0  0  0  0  0  0  0  0  0
    6.5446  -14.8388   24.9871 C   0  0  0  0  0  0  0  0  0  0  0  0
    6.9335  -13.7011   25.8580 C   0  0  0  0  0  0  0  0  0  0  0  0
    6.1382  -12.5786   26.0012 C   0  0  0  0  0  0  0  0  0  0  0  0
    6.5165  -11.5179   26.8214 C   0  0  0  0  0  0  0  0  0  0  0  0
    7.6912  -11.5667   27.5064 C   0  0  0  0  0  0  0  0  0  0  0  0
    8.4999  -12.6618   27.3867 C   0  0  0  0  0  0  0  0  0  0  0  0
    8.1228  -13.6994   26.5800 C   0  0  0  0  0  0  0  0  0  0  0  0
    7.6785  -15.5713   22.8933 C   0  0  0  0  0  0  0  0  0  0  0  0
    7.1410  -16.5533   22.3220 O   0  0  0  0  0  0  0  0  0  0  0  0
    8.8135  -13.4599   18.6030 O   0  0  0  0  0  0  0  0  0  0  0  0
    8.6124  -13.3363   19.9744 C   0  0  0  0  0  0  0  0  0  0  0  0
    8.4181  -14.6672   20.6628 C   0  0  2  0  0  0  0  0  0  0  0  0
    8.2447  -14.5331   22.0840 N   0  0  0  0  0  0  0  0  0  0  0  0
    9.6142  -15.5115   20.3377 C   0  0  0  0  0  0  0  0  0  0  0  0
   10.5124  -15.6125   21.1872 O   0  0  0  0  0  0  0  0  0  0  0  0
    7.7136  -15.0295   16.3267 N   0  0  0  0  0  0  0  0  0  0  0  0
    8.0786  -14.6632   15.0067 C   0  0  0  0  0  0  0  0  0  0  0  0
    7.5020  -13.6196   14.4799 N   0  0  0  0  0  0  0  0  0  0  0  0
    9.0376  -15.3797   14.2409 N   0  0  0  0  0  0  0  0  0  0  0  0
   10.0146  -16.2129   14.9173 C   0  0  0  0  0  0  0  0  0  0  0  0
    9.7973  -16.1612   16.4260 C   0  0  0  0  0  0  0  0  0  0  0  0
   10.8186  -16.9849   17.1431 C   0  0  0  0  0  0  0  0  0  0  0  0
   10.7926  -16.9084   18.6210 C   0  0  2  0  0  0  0  0  0  0  0  0
    9.6658  -16.1511   19.0886 N   0  0  0  0  0  0  0  0  0  0  0  0
   12.0794  -16.5721   19.2771 C   0  0  0  0  0  0  0  0  0  0  0  0
   12.5860  -15.2924   19.1469 O   0  0  0  0  0  0  0  0  0  0  0  0
   12.7577  -17.3699   19.9581 O   0  0  0  0  0  0  0  0  0  0  0  0
  2  1  1  6
  2 10  1  0
  3  2  1  0
  4  3  1  0
  4  9  2  0
  5  4  1  0
  6  5  2  0
  6  7  1  0
  7  8  2  0
  8  9  1  0
 10 11  2  0
 13 12  1  0
 14 13  1  6
 14 16  1  0
 15 14  1  0
 15 10  1  0
 16 26  1  0
 16 17  2  0
 18 19  1  0
 19 21  1  0
 19 20  2  0
 21 22  1  0
 22 23  1  0
 23 24  1  0
 25 24  1  6
 25 27  1  0
 26 25  1  0
 27 29  2  0
 27 28  1  0
M  END
$$$$
