FSR.pdb
     RDKit          3D

 29 29  0  0  1  0  0  0  0  0999 V2000
    8.0606  -17.5632   18.6616 N   0  0  0  0  0  0  0  0  0  0  0  0
    8.3018  -16.5257   19.6488 C   0  0  1  0  0  0  0  0  0  0  0  0
    6.9720  -15.9299   19.9918 C   0  0  0  0  0  0  0  0  0  0  0  0
    7.0639  -14.9281   21.0838 C   0  0  0  0  0  0  0  0  0  0  0  0
    7.5166  -13.6398   20.8641 C   0  0  0  0  0  0  0  0  0  0  0  0
    7.5984  -12.7105   21.8988 C   0  0  0  0  0  0  0  0  0  0  0  0
    7.2298  -13.0571   23.1619 C   0  0  0  0  0  0  0  0  0  0  0  0
    6.7782  -14.3224   23.4122 C   0  0  0  0  0  0  0  0  0  0  0  0
    6.7002  -15.2298   22.3923 C   0  0  0  0  0  0  0  0  0  0  0  0
    9.0323  -17.1041   20.7552 C   0  0  0  0  0  0  0  0  0  0  0  0
    8.6166  -18.1444   21.3250 O   0  0  0  0  0  0  0  0  0  0  0  0
   12.4148  -15.1089   22.5787 O   0  0  0  0  0  0  0  0  0  0  0  0
   12.4194  -16.4833   22.3612 C   0  0  0  0  0  0  0  0  0  0  0  0
   11.0298  -17.0719   22.2876 C   0  0  2  0  0  0  0  0  0  0  0  0
   10.2451  -16.5031   21.2253 N   0  0  0  0  0  0  0  0  0  0  0  0
   10.3836  -16.8472   23.6221 C   0  0  0  0  0  0  0  0  0  0  0  0
    9.7917  -15.7746   23.8168 O   0  0  0  0  0  0  0  0  0  0  0  0
    5.8412  -18.5433   22.6051 N   0  0  0  0  0  0  0  0  0  0  0  0
    5.3190  -19.5668   23.4354 C   0  0  0  0  0  0  0  0  0  0  0  0
    4.5272  -20.4494   22.8939 N   0  0  0  0  0  0  0  0  0  0  0  0
    5.6196  -19.6698   24.8205 N   0  0  0  0  0  0  0  0  0  0  0  0
    6.4501  -18.6591   25.4488 C   0  0  0  0  0  0  0  0  0  0  0  0
    7.9041  -18.8313   25.0218 C   0  0  0  0  0  0  0  0  0  0  0  0
    8.8301  -18.6260   26.1777 C   0  0  0  0  0  0  0  0  0  0  0  0
    9.9825  -17.7296   25.9347 C   0  0  2  0  0  0  0  0  0  0  0  0
   10.4751  -17.8586   24.5920 N   0  0  0  0  0  0  0  0  0  0  0  0
   11.0332  -17.7235   26.9813 C   0  0  0  0  0  0  0  0  0  0  0  0
   10.6790  -17.4428   28.2878 O   0  0  0  0  0  0  0  0  0  0  0  0
   12.2419  -17.9611   26.7738 O   0  0  0  0  0  0  0  0  0  0  0  0
  2  1  1  6
  2 10  1  0
  3  2  1  0
  4  3  1  0
  4  9  2  0
  5  4  1  0
  6  5  2  0
  6  7  1  0
  7  8  2  0
  8  9  1  0
 10 11  2  0
 13 12  1  0
 14 13  1  1
 14 16  1  0
 15 14  1  0
 15 10  1  0
 16 26  1  0
 16 17  2  0
 18 19  1  0
 19 21  1  0
 19 20  2  0
 21 22  1  0
 22 23  1  0
 23 24  1  0
 25 24  1  1
 25 27  1  0
 26 25  1  0
 27 29  2  0
 27 28  1  0
M  END
$$$$
