FSR.pdb
     RDKit          3D

 29 29  0  0  1  0  0  0  0  0999 V2000
    6.1848  -16.3323   25.1685 N   0  0  0  0  0  0  0  0  0  0  0  0
    7.2990  -15.5351   24.6866 C   0  0  1  0  0  0  0  0  0  0  0  0
    7.7747  -14.7058   25.8386 C   0  0  0  0  0  0  0  0  0  0  0  0
    7.0153  -13.4375   25.9763 C   0  0  0  0  0  0  0  0  0  0  0  0
    5.8956  -13.3340   26.7815 C   0  0  0  0  0  0  0  0  0  0  0  0
    5.1922  -12.1374   26.9004 C   0  0  0  0  0  0  0  0  0  0  0  0
    5.5987  -11.0329   26.2174 C   0  0  0  0  0  0  0  0  0  0  0  0
    6.7014  -11.1020   25.4131 C   0  0  0  0  0  0  0  0  0  0  0  0
    7.3874  -12.2794   25.3008 C   0  0  0  0  0  0  0  0  0  0  0  0
    8.2828  -16.4224   24.1062 C   0  0  0  0  0  0  0  0  0  0  0  0
    8.5138  -17.5472   24.6174 O   0  0  0  0  0  0  0  0  0  0  0  0
   10.8424  -15.0655   20.9053 O   0  0  0  0  0  0  0  0  0  0  0  0
   10.5049  -16.4104   21.0229 C   0  0  0  0  0  0  0  0  0  0  0  0
   10.1253  -16.8006   22.4324 C   0  0  2  0  0  0  0  0  0  0  0  0
    9.0153  -16.0379   22.9361 N   0  0  0  0  0  0  0  0  0  0  0  0
   11.3447  -16.6155   23.2856 C   0  0  0  0  0  0  0  0  0  0  0  0
   11.5361  -15.5062   23.8067 O   0  0  0  0  0  0  0  0  0  0  0  0
   13.7709  -18.3785   28.3299 N   0  0  0  0  0  0  0  0  0  0  0  0
   14.3418  -19.6702   28.4538 C   0  0  0  0  0  0  0  0  0  0  0  0
   14.9106  -19.9817   29.5846 N   0  0  0  0  0  0  0  0  0  0  0  0
   14.3203  -20.6306   27.4066 N   0  0  0  0  0  0  0  0  0  0  0  0
   15.1682  -20.4400   26.2443 C   0  0  0  0  0  0  0  0  0  0  0  0
   14.9696  -19.0410   25.6704 C   0  0  0  0  0  0  0  0  0  0  0  0
   13.7295  -18.9744   24.8376 C   0  0  0  0  0  0  0  0  0  0  0  0
   13.4144  -17.6542   24.2472 C   0  0  2  0  0  0  0  0  0  0  0  0
   12.2155  -17.7036   23.4584 N   0  0  0  0  0  0  0  0  0  0  0  0
   14.5468  -16.9413   23.6078 C   0  0  0  0  0  0  0  0  0  0  0  0
   14.8496  -17.2097   22.2858 O   0  0  0  0  0  0  0  0  0  0  0  0
   15.2647  -16.0940   24.1796 O   0  0  0  0  0  0  0  0  0  0  0  0
  2  1  1  1
  2 10  1  0
  3  2  1  0
  4  3  1  0
  4  9  2  0
  5  4  1  0
  6  5  2  0
  6  7  1  0
  7  8  2  0
  8  9  1  0
 10 11  2  0
 13 12  1  0
 14 13  1  6
 14 16  1  0
 15 14  1  0
 15 10  1  0
 16 26  1  0
 16 17  2  0
 18 19  1  0
 19 21  1  0
 19 20  2  0
 21 22  1  0
 22 23  1  0
 23 24  1  0
 25 24  1  6
 25 27  1  0
 26 25  1  0
 27 29  2  0
 27 28  1  0
M  END
$$$$
