FSR.pdb
     RDKit          3D

 29 29  0  0  1  0  0  0  0  0999 V2000
    6.4115  -16.4097   26.1736 N   0  0  0  0  0  0  0  0  0  0  0  0
    7.1515  -15.8351   25.0639 C   0  0  1  0  0  0  0  0  0  0  0  0
    8.0614  -14.7935   25.6368 C   0  0  0  0  0  0  0  0  0  0  0  0
    7.3230  -13.6005   26.1225 C   0  0  0  0  0  0  0  0  0  0  0  0
    7.1886  -13.3163   27.4693 C   0  0  0  0  0  0  0  0  0  0  0  0
    6.4920  -12.1934   27.9106 C   0  0  0  0  0  0  0  0  0  0  0  0
    5.9230  -11.3436   27.0132 C   0  0  0  0  0  0  0  0  0  0  0  0
    6.0375  -11.5961   25.6750 C   0  0  0  0  0  0  0  0  0  0  0  0
    6.7225  -12.6999   25.2484 C   0  0  0  0  0  0  0  0  0  0  0  0
    7.8028  -16.9057   24.3415 C   0  0  0  0  0  0  0  0  0  0  0  0
    8.3069  -17.8802   24.9548 O   0  0  0  0  0  0  0  0  0  0  0  0
    7.5611  -17.0667   20.1516 O   0  0  0  0  0  0  0  0  0  0  0  0
    8.0447  -18.1773   20.8365 C   0  0  0  0  0  0  0  0  0  0  0  0
    8.6731  -17.8223   22.1639 C   0  0  2  0  0  0  0  0  0  0  0  0
    7.8874  -16.8780   22.9113 N   0  0  0  0  0  0  0  0  0  0  0  0
   10.0421  -17.2829   21.8744 C   0  0  0  0  0  0  0  0  0  0  0  0
   10.2429  -16.7449   20.7749 O   0  0  0  0  0  0  0  0  0  0  0  0
   16.0939  -15.4401   19.5484 N   0  0  0  0  0  0  0  0  0  0  0  0
   15.1377  -14.9542   18.6214 C   0  0  0  0  0  0  0  0  0  0  0  0
   15.5403  -14.1106   17.7128 N   0  0  0  0  0  0  0  0  0  0  0  0
   13.7714  -15.3446   18.6410 N   0  0  0  0  0  0  0  0  0  0  0  0
   13.0263  -15.2766   19.8845 C   0  0  0  0  0  0  0  0  0  0  0  0
   13.7827  -16.0015   20.9928 C   0  0  0  0  0  0  0  0  0  0  0  0
   12.9561  -16.0918   22.2354 C   0  0  0  0  0  0  0  0  0  0  0  0
   12.4439  -17.4376   22.5777 C   0  0  2  0  0  0  0  0  0  0  0  0
   11.0360  -17.4087   22.8585 N   0  0  0  0  0  0  0  0  0  0  0  0
   13.2528  -18.2131   23.5492 C   0  0  0  0  0  0  0  0  0  0  0  0
   12.7781  -18.3808   24.8368 O   0  0  0  0  0  0  0  0  0  0  0  0
   14.3538  -18.7438   23.2912 O   0  0  0  0  0  0  0  0  0  0  0  0
  2  1  1  1
  2 10  1  0
  3  2  1  0
  4  3  1  0
  4  9  2  0
  5  4  1  0
  6  5  2  0
  6  7  1  0
  7  8  2  0
  8  9  1  0
 10 11  2  0
 13 12  1  0
 14 13  1  6
 14 16  1  0
 15 14  1  0
 15 10  1  0
 16 26  1  0
 16 17  2  0
 18 19  1  0
 19 21  1  0
 19 20  2  0
 21 22  1  0
 22 23  1  0
 23 24  1  0
 25 24  1  1
 25 27  1  0
 26 25  1  0
 27 29  2  0
 27 28  1  0
M  END
$$$$
