QND.pdb
     RDKit          3D

 26 25  0  0  1  0  0  0  0  0999 V2000
    7.9210  -12.9125   15.9128 N   0  0  0  0  0  0  0  0  0  0  0  0
    8.0427  -14.0126   15.0352 C   0  0  0  0  0  0  0  0  0  0  0  0
    7.3946  -14.0319   13.9706 O   0  0  0  0  0  0  0  0  0  0  0  0
    8.9385  -15.1318   15.3878 C   0  0  0  0  0  0  0  0  0  0  0  0
    9.5617  -14.8360   16.7341 C   0  0  0  0  0  0  0  0  0  0  0  0
    9.7855  -16.1519   17.4901 C   0  0  2  0  0  0  0  0  0  0  0  0
    8.6595  -17.0052   17.1806 N   0  0  0  0  0  0  0  0  0  0  0  0
    9.7653  -15.8210   18.9234 C   0  0  0  0  0  0  0  0  0  0  0  0
   10.7162  -15.1598   19.4090 O   0  0  0  0  0  0  0  0  0  0  0  0
    6.5462  -13.3909   21.0050 N   0  0  0  0  0  0  0  0  0  0  0  0
    7.3524  -14.1708   21.8664 C   0  0  0  0  0  0  0  0  0  0  0  0
    7.9609  -13.5300   22.7945 O   0  0  0  0  0  0  0  0  0  0  0  0
    7.5527  -15.6205   21.7972 C   0  0  0  0  0  0  0  0  0  0  0  0
    8.8561  -16.0589   21.1858 C   0  0  2  0  0  0  0  0  0  0  0  0
    8.6877  -16.2333   19.7842 N   0  0  0  0  0  0  0  0  0  0  0  0
    9.3580  -17.2922   21.8661 C   0  0  0  0  0  0  0  0  0  0  0  0
    9.4222  -18.4139   21.2927 O   0  0  0  0  0  0  0  0  0  0  0  0
    9.7931  -17.2496   23.2168 N   0  0  0  0  0  0  0  0  0  0  0  0
   10.8602  -18.1148   23.7352 C   0  0  1  0  0  0  0  0  0  0  0  0
   12.1487  -17.8535   23.0248 C   0  0  0  0  0  0  0  0  0  0  0  0
   12.7844  -19.1104   22.6360 C   0  0  0  0  0  0  0  0  0  0  0  0
   12.1212  -20.1015   22.2975 O   0  0  0  0  0  0  0  0  0  0  0  0
   11.0056  -17.6926   25.1534 C   0  0  0  0  0  0  0  0  0  0  0  0
   11.2880  -16.5271   25.4875 O   0  0  0  0  0  0  0  0  0  0  0  0
   14.1660  -19.2071   22.6426 O   0  0  0  0  0  0  0  0  0  0  0  0
   10.8298  -18.5979   26.1952 O   0  0  0  0  0  0  0  0  0  0  0  0
  2  3  2  0
  2  1  1  0
  4  2  1  0
  5  4  1  0
  6  5  1  0
  6  7  1  1
  8  9  2  0
  8  6  1  0
 10 11  1  0
 11 12  2  0
 11 13  1  0
 14 13  1  1
 14 16  1  0
 14 15  1  0
 15  8  1  0
 16 18  1  0
 17 16  2  0
 18 19  1  0
 19 23  1  0
 19 20  1  6
 21 20  1  0
 22 21  2  0
 23 24  2  0
 23 26  1  0
 25 21  1  0
M  END
$$$$
