QND.pdb
     RDKit          3D

 26 25  0  0  1  0  0  0  0  0999 V2000
    7.9307  -13.0189   20.6865 N   0  0  0  0  0  0  0  0  0  0  0  0
    7.6202  -12.4811   19.4179 C   0  0  0  0  0  0  0  0  0  0  0  0
    6.6860  -11.6642   19.3017 O   0  0  0  0  0  0  0  0  0  0  0  0
    8.4070  -12.8927   18.2384 C   0  0  0  0  0  0  0  0  0  0  0  0
    9.4512  -13.8906   18.6880 C   0  0  0  0  0  0  0  0  0  0  0  0
   10.3053  -14.3088   17.4843 C   0  0  2  0  0  0  0  0  0  0  0  0
    9.4258  -15.0093   16.5746 N   0  0  0  0  0  0  0  0  0  0  0  0
   11.3209  -15.2427   17.9946 C   0  0  0  0  0  0  0  0  0  0  0  0
   11.0555  -16.4697   18.0325 O   0  0  0  0  0  0  0  0  0  0  0  0
   14.8238  -13.3176   17.8121 N   0  0  0  0  0  0  0  0  0  0  0  0
   15.4367  -14.5633   18.0820 C   0  0  0  0  0  0  0  0  0  0  0  0
   16.7176  -14.5585   18.1233 O   0  0  0  0  0  0  0  0  0  0  0  0
   14.7537  -15.8382   18.3154 C   0  0  0  0  0  0  0  0  0  0  0  0
   13.4603  -15.7419   19.0788 C   0  0  2  0  0  0  0  0  0  0  0  0
   12.6090  -14.7906   18.4515 N   0  0  0  0  0  0  0  0  0  0  0  0
   13.7291  -15.4199   20.5140 C   0  0  0  0  0  0  0  0  0  0  0  0
   13.8774  -14.2406   20.9363 O   0  0  0  0  0  0  0  0  0  0  0  0
   13.8306  -16.4530   21.4825 N   0  0  0  0  0  0  0  0  0  0  0  0
   14.0181  -16.1843   22.9138 C   0  0  1  0  0  0  0  0  0  0  0  0
   13.5751  -17.3507   23.7362 C   0  0  0  0  0  0  0  0  0  0  0  0
   12.1173  -17.3909   23.8265 C   0  0  0  0  0  0  0  0  0  0  0  0
   11.4558  -16.4008   24.1713 O   0  0  0  0  0  0  0  0  0  0  0  0
   15.4899  -16.0321   23.0594 C   0  0  0  0  0  0  0  0  0  0  0  0
   16.0150  -15.3659   23.9706 O   0  0  0  0  0  0  0  0  0  0  0  0
   11.4465  -18.5634   23.5205 O   0  0  0  0  0  0  0  0  0  0  0  0
   16.3678  -16.6389   22.1667 O   0  0  0  0  0  0  0  0  0  0  0  0
  2  3  2  0
  2  1  1  0
  4  2  1  0
  5  4  1  0
  6  5  1  0
  6  7  1  6
  8  9  2  0
  8  6  1  0
 10 11  1  0
 11 12  2  0
 11 13  1  0
 14 13  1  6
 14 16  1  0
 14 15  1  0
 15  8  1  0
 16 18  1  0
 17 16  2  0
 18 19  1  0
 19 23  1  0
 19 20  1  1
 21 20  1  0
 22 21  2  0
 23 24  2  0
 23 26  1  0
 25 21  1  0
M  END
$$$$
