QND.pdb
     RDKit          3D

 26 25  0  0  1  0  0  0  0  0999 V2000
    8.1264  -14.7870   13.9188 N   0  0  0  0  0  0  0  0  0  0  0  0
    7.9969  -16.0133   14.6076 C   0  0  0  0  0  0  0  0  0  0  0  0
    6.8937  -16.3438   15.0846 O   0  0  0  0  0  0  0  0  0  0  0  0
    9.1721  -16.8944   14.7565 C   0  0  0  0  0  0  0  0  0  0  0  0
   10.0806  -16.3012   15.8107 C   0  0  0  0  0  0  0  0  0  0  0  0
   10.0571  -17.1908   17.0601 C   0  0  2  0  0  0  0  0  0  0  0  0
    8.7731  -17.8564   17.0718 N   0  0  0  0  0  0  0  0  0  0  0  0
   10.1480  -16.2893   18.2190 C   0  0  0  0  0  0  0  0  0  0  0  0
   11.2066  -15.6388   18.4028 O   0  0  0  0  0  0  0  0  0  0  0  0
    6.9198  -13.0069   18.7962 N   0  0  0  0  0  0  0  0  0  0  0  0
    8.0554  -13.3323   19.5738 C   0  0  0  0  0  0  0  0  0  0  0  0
    9.0868  -12.5935   19.3931 O   0  0  0  0  0  0  0  0  0  0  0  0
    8.1598  -14.4184   20.5516 C   0  0  0  0  0  0  0  0  0  0  0  0
    9.2998  -15.3749   20.3276 C   0  0  2  0  0  0  0  0  0  0  0  0
    9.0593  -16.1316   19.1474 N   0  0  0  0  0  0  0  0  0  0  0  0
    9.4995  -16.2341   21.5351 C   0  0  0  0  0  0  0  0  0  0  0  0
    8.5584  -16.8610   22.0940 O   0  0  0  0  0  0  0  0  0  0  0  0
   10.7868  -16.3826   22.1148 N   0  0  0  0  0  0  0  0  0  0  0  0
   11.0608  -17.3200   23.2113 C   0  0  1  0  0  0  0  0  0  0  0  0
   12.4564  -17.8473   23.1236 C   0  0  0  0  0  0  0  0  0  0  0  0
   12.7317  -18.7578   24.2328 C   0  0  0  0  0  0  0  0  0  0  0  0
   11.9363  -18.9030   25.1726 O   0  0  0  0  0  0  0  0  0  0  0  0
   10.9452  -16.4831   24.4347 C   0  0  0  0  0  0  0  0  0  0  0  0
   10.5681  -16.9356   25.5315 O   0  0  0  0  0  0  0  0  0  0  0  0
   13.9114  -19.4832   24.2437 O   0  0  0  0  0  0  0  0  0  0  0  0
   11.2591  -15.1279   24.4118 O   0  0  0  0  0  0  0  0  0  0  0  0
  2  3  2  0
  2  1  1  0
  4  2  1  0
  5  4  1  0
  6  5  1  0
  6  7  1  1
  8  9  2  0
  8  6  1  0
 10 11  1  0
 11 12  2  0
 11 13  1  0
 14 13  1  1
 14 16  1  0
 14 15  1  0
 15  8  1  0
 16 18  1  0
 17 16  2  0
 18 19  1  0
 19 23  1  0
 19 20  1  6
 21 20  1  0
 22 21  2  0
 23 24  2  0
 23 26  1  0
 25 21  1  0
M  END
$$$$
