QND.pdb
     RDKit          3D

 26 25  0  0  1  0  0  0  0  0999 V2000
    7.6995  -16.6538   15.3234 N   0  0  0  0  0  0  0  0  0  0  0  0
    8.2930  -17.2272   16.4698 C   0  0  0  0  0  0  0  0  0  0  0  0
    8.0350  -18.4071   16.7779 O   0  0  0  0  0  0  0  0  0  0  0  0
    9.2155  -16.4217   17.2943 C   0  0  0  0  0  0  0  0  0  0  0  0
    9.1699  -14.9925   16.8005 C   0  0  0  0  0  0  0  0  0  0  0  0
    8.1187  -14.2124   17.6002 C   0  0  2  0  0  0  0  0  0  0  0  0
    8.1185  -12.8629   17.0798 N   0  0  0  0  0  0  0  0  0  0  0  0
    8.5814  -14.1950   18.9965 C   0  0  0  0  0  0  0  0  0  0  0  0
    9.5501  -13.4586   19.3078 O   0  0  0  0  0  0  0  0  0  0  0  0
    8.2313  -14.0623   24.2704 N   0  0  0  0  0  0  0  0  0  0  0  0
    7.1339  -14.6905   23.6368 C   0  0  0  0  0  0  0  0  0  0  0  0
    6.1712  -15.0423   24.4060 O   0  0  0  0  0  0  0  0  0  0  0  0
    6.9980  -14.9715   22.2054 C   0  0  0  0  0  0  0  0  0  0  0  0
    8.2129  -14.6610   21.3732 C   0  0  2  0  0  0  0  0  0  0  0  0
    7.9562  -14.9973   20.0152 N   0  0  0  0  0  0  0  0  0  0  0  0
    9.4121  -15.3623   21.9262 C   0  0  0  0  0  0  0  0  0  0  0  0
    9.7982  -15.2238   23.1191 O   0  0  0  0  0  0  0  0  0  0  0  0
   10.1829  -16.2330   21.1119 N   0  0  0  0  0  0  0  0  0  0  0  0
   11.3644  -16.9482   21.6103 C   0  0  1  0  0  0  0  0  0  0  0  0
   12.4939  -16.0015   21.8577 C   0  0  0  0  0  0  0  0  0  0  0  0
   13.6996  -16.7306   22.2445 C   0  0  0  0  0  0  0  0  0  0  0  0
   14.7747  -16.1510   22.4566 O   0  0  0  0  0  0  0  0  0  0  0  0
   10.9200  -17.5085   22.9138 C   0  0  0  0  0  0  0  0  0  0  0  0
   10.8137  -18.7308   23.1246 O   0  0  0  0  0  0  0  0  0  0  0  0
   13.6500  -18.1080   22.3805 O   0  0  0  0  0  0  0  0  0  0  0  0
   10.5954  -16.6771   23.9811 O   0  0  0  0  0  0  0  0  0  0  0  0
  2  3  2  0
  2  1  1  0
  4  2  1  0
  5  4  1  0
  6  5  1  0
  6  7  1  6
  8  9  2  0
  8  6  1  0
 10 11  1  0
 11 12  2  0
 11 13  1  0
 14 13  1  1
 14 16  1  0
 14 15  1  0
 15  8  1  0
 16 18  1  0
 17 16  2  0
 18 19  1  0
 19 23  1  0
 19 20  1  1
 21 20  1  0
 22 21  2  0
 23 24  2  0
 23 26  1  0
 25 21  1  0
M  END
$$$$
