QND.pdb
     RDKit          3D

 26 25  0  0  1  0  0  0  0  0999 V2000
    7.5977  -22.8079   18.0477 N   0  0  0  0  0  0  0  0  0  0  0  0
    8.9763  -22.5138   18.1385 C   0  0  0  0  0  0  0  0  0  0  0  0
    9.7965  -23.1700   17.4674 O   0  0  0  0  0  0  0  0  0  0  0  0
    9.4339  -21.4294   19.0297 C   0  0  0  0  0  0  0  0  0  0  0  0
    9.9124  -20.2790   18.1718 C   0  0  0  0  0  0  0  0  0  0  0  0
   10.4611  -19.1665   19.0742 C   0  0  2  0  0  0  0  0  0  0  0  0
   10.7835  -18.0523   18.2104 N   0  0  0  0  0  0  0  0  0  0  0  0
   11.6973  -19.6873   19.6779 C   0  0  0  0  0  0  0  0  0  0  0  0
   11.6353  -20.7064   20.4094 O   0  0  0  0  0  0  0  0  0  0  0  0
   15.3395  -21.3953   17.9253 N   0  0  0  0  0  0  0  0  0  0  0  0
   15.5558  -20.0109   18.1179 C   0  0  0  0  0  0  0  0  0  0  0  0
   15.9675  -19.3618   17.0926 O   0  0  0  0  0  0  0  0  0  0  0  0
   15.3555  -19.2623   19.3613 C   0  0  0  0  0  0  0  0  0  0  0  0
   14.1050  -19.6088   20.1236 C   0  0  2  0  0  0  0  0  0  0  0  0
   12.9749  -19.0627   19.4544 N   0  0  0  0  0  0  0  0  0  0  0  0
   14.2178  -19.1457   21.5409 C   0  0  0  0  0  0  0  0  0  0  0  0
   13.9642  -17.9629   21.8982 O   0  0  0  0  0  0  0  0  0  0  0  0
   14.6242  -20.0399   22.5659 N   0  0  0  0  0  0  0  0  0  0  0  0
   14.3784  -19.7800   23.9901 C   0  0  1  0  0  0  0  0  0  0  0  0
   12.9165  -19.8324   24.2955 C   0  0  0  0  0  0  0  0  0  0  0  0
   12.6878  -19.7085   25.7333 C   0  0  0  0  0  0  0  0  0  0  0  0
   13.6250  -19.6731   26.5440 O   0  0  0  0  0  0  0  0  0  0  0  0
   15.0490  -20.9127   24.6814 C   0  0  0  0  0  0  0  0  0  0  0  0
   14.9216  -22.0973   24.3204 O   0  0  0  0  0  0  0  0  0  0  0  0
   11.3914  -19.6279   26.2137 O   0  0  0  0  0  0  0  0  0  0  0  0
   15.8670  -20.6985   25.7863 O   0  0  0  0  0  0  0  0  0  0  0  0
  2  3  2  0
  2  1  1  0
  4  2  1  0
  5  4  1  0
  6  5  1  0
  6  7  1  6
  8  9  2  0
  8  6  1  0
 10 11  1  0
 11 12  2  0
 11 13  1  0
 14 13  1  6
 14 16  1  0
 14 15  1  0
 15  8  1  0
 16 18  1  0
 17 16  2  0
 18 19  1  0
 19 23  1  0
 19 20  1  6
 21 20  1  0
 22 21  2  0
 23 24  2  0
 23 26  1  0
 25 21  1  0
M  END
$$$$
