ESF.pdb
     RDKit          3D

 27 27  0  0  1  0  0  0  0  0999 V2000
    8.9647  -19.3657   19.5298 N   0  0  0  0  0  0  0  0  0  0  0  0
    8.7628  -19.0675   20.9439 C   0  0  1  0  0  0  0  0  0  0  0  0
    9.8884  -19.7634   21.6740 C   0  0  0  0  0  0  0  0  0  0  0  0
    9.4430  -20.7967   22.6557 C   0  0  0  0  0  0  0  0  0  0  0  0
   10.5401  -21.4419   23.4029 C   0  0  0  0  0  0  0  0  0  0  0  0
   11.2997  -22.2712   22.8576 O   0  0  0  0  0  0  0  0  0  0  0  0
    8.9477  -17.5878   21.1179 C   0  0  0  0  0  0  0  0  0  0  0  0
    9.9317  -17.0002   20.6016 O   0  0  0  0  0  0  0  0  0  0  0  0
   10.7306  -21.1210   24.7350 O   0  0  0  0  0  0  0  0  0  0  0  0
    5.8710  -15.2045   21.9139 O   0  0  0  0  0  0  0  0  0  0  0  0
    7.0677  -14.5609   21.5988 C   0  0  0  0  0  0  0  0  0  0  0  0
    8.2752  -15.3912   22.0189 C   0  0  2  0  0  0  0  0  0  0  0  0
    8.0271  -16.8083   21.8641 N   0  0  0  0  0  0  0  0  0  0  0  0
    8.6060  -15.0766   23.4448 C   0  0  0  0  0  0  0  0  0  0  0  0
    8.4550  -13.9215   23.9175 O   0  0  0  0  0  0  0  0  0  0  0  0
    9.1064  -16.0689   24.3316 N   0  0  0  0  0  0  0  0  0  0  0  0
    9.3686  -15.7532   25.7419 C   0  0  1  0  0  0  0  0  0  0  0  0
    8.0051  -15.5744   26.3677 C   0  0  0  0  0  0  0  0  0  0  0  0
    7.5446  -14.1834   26.2510 C   0  0  0  0  0  0  0  0  0  0  0  0
    6.3430  -13.9082   25.6439 C   0  0  0  0  0  0  0  0  0  0  0  0
    5.8947  -12.5906   25.5301 C   0  0  0  0  0  0  0  0  0  0  0  0
    6.6762  -11.5720   26.0361 C   0  0  0  0  0  0  0  0  0  0  0  0
    7.8908  -11.8583   26.6490 C   0  0  0  0  0  0  0  0  0  0  0  0
    8.3341  -13.1578   26.7618 C   0  0  0  0  0  0  0  0  0  0  0  0
   10.1804  -16.8077   26.3496 C   0  0  0  0  0  0  0  0  0  0  0  0
   10.7372  -16.6875   27.6138 O   0  0  0  0  0  0  0  0  0  0  0  0
   10.3899  -17.8694   25.7112 O   0  0  0  0  0  0  0  0  0  0  0  0
  2  1  1  6
  2  7  1  0
  3  2  1  0
  4  3  1  0
  4  5  1  0
  5  6  2  0
  5  9  1  0
  7  8  2  0
  7 13  1  0
 10 11  1  0
 12 14  1  0
 12 11  1  1
 13 12  1  0
 14 15  2  0
 16 17  1  0
 16 14  1  0
 17 18  1  1
 18 19  1  0
 19 20  2  0
 20 21  1  0
 22 21  2  0
 23 22  1  0
 24 23  2  0
 24 19  1  0
 25 26  1  0
 25 17  1  0
 27 25  2  0
M  END
$$$$
