ESF.pdb
     RDKit          3D

 27 27  0  0  1  0  0  0  0  0999 V2000
   12.2096  -17.2884   21.0837 N   0  0  0  0  0  0  0  0  0  0  0  0
   10.8159  -17.5591   21.4208 C   0  0  1  0  0  0  0  0  0  0  0  0
   10.8538  -18.6144   22.5021 C   0  0  0  0  0  0  0  0  0  0  0  0
   11.9038  -19.6587   22.3104 C   0  0  0  0  0  0  0  0  0  0  0  0
   11.4360  -21.0417   22.5264 C   0  0  0  0  0  0  0  0  0  0  0  0
   12.2016  -22.0185   22.3790 O   0  0  0  0  0  0  0  0  0  0  0  0
   10.2514  -16.3048   22.0224 C   0  0  0  0  0  0  0  0  0  0  0  0
   10.9715  -15.5511   22.7249 O   0  0  0  0  0  0  0  0  0  0  0  0
   10.1221  -21.2600   22.9000 O   0  0  0  0  0  0  0  0  0  0  0  0
    6.3449  -15.0015   21.2087 O   0  0  0  0  0  0  0  0  0  0  0  0
    7.3213  -14.0646   21.5469 C   0  0  0  0  0  0  0  0  0  0  0  0
    8.4240  -14.6888   22.3943 C   0  0  2  0  0  0  0  0  0  0  0  0
    8.8984  -15.9298   21.8209 N   0  0  0  0  0  0  0  0  0  0  0  0
    7.8972  -14.9252   23.7757 C   0  0  0  0  0  0  0  0  0  0  0  0
    7.5704  -16.0736   24.1694 O   0  0  0  0  0  0  0  0  0  0  0  0
    7.7415  -13.8625   24.7074 N   0  0  0  0  0  0  0  0  0  0  0  0
    7.0933  -14.0902   26.0056 C   0  0  1  0  0  0  0  0  0  0  0  0
    7.8540  -13.2268   26.9847 C   0  0  0  0  0  0  0  0  0  0  0  0
    9.0405  -13.9253   27.4994 C   0  0  0  0  0  0  0  0  0  0  0  0
    8.9457  -15.2389   27.8916 C   0  0  0  0  0  0  0  0  0  0  0  0
   10.0672  -15.9129   28.3795 C   0  0  0  0  0  0  0  0  0  0  0  0
   11.2692  -15.2399   28.4611 C   0  0  0  0  0  0  0  0  0  0  0  0
   11.3572  -13.9109   28.0625 C   0  0  0  0  0  0  0  0  0  0  0  0
   10.2515  -13.2450   27.5810 C   0  0  0  0  0  0  0  0  0  0  0  0
    5.6650  -13.7870   25.9132 C   0  0  0  0  0  0  0  0  0  0  0  0
    4.7350  -14.2878   26.8115 O   0  0  0  0  0  0  0  0  0  0  0  0
    5.2511  -13.0451   24.9875 O   0  0  0  0  0  0  0  0  0  0  0  0
  2  1  1  1
  2  7  1  0
  3  2  1  0
  4  3  1  0
  4  5  1  0
  5  6  2  0
  5  9  1  0
  7  8  2  0
  7 13  1  0
 10 11  1  0
 12 14  1  0
 12 11  1  6
 13 12  1  0
 14 15  2  0
 16 17  1  0
 16 14  1  0
 17 18  1  1
 18 19  1  0
 19 20  2  0
 20 21  1  0
 22 21  2  0
 23 22  1  0
 24 23  2  0
 24 19  1  0
 25 26  1  0
 25 17  1  0
 27 25  2  0
M  END
$$$$
