ESF.pdb
     RDKit          3D

 27 27  0  0  1  0  0  0  0  0999 V2000
    5.5887  -17.1862   20.0547 N   0  0  0  0  0  0  0  0  0  0  0  0
    6.8708  -17.4787   20.6872 C   0  0  1  0  0  0  0  0  0  0  0  0
    7.8379  -16.4504   20.1472 C   0  0  0  0  0  0  0  0  0  0  0  0
    7.2531  -15.0889   19.9621 C   0  0  0  0  0  0  0  0  0  0  0  0
    8.1990  -14.0842   19.4385 C   0  0  0  0  0  0  0  0  0  0  0  0
    7.9457  -12.8615   19.4918 O   0  0  0  0  0  0  0  0  0  0  0  0
    6.7088  -17.2290   22.1587 C   0  0  0  0  0  0  0  0  0  0  0  0
    5.6991  -16.6228   22.5980 O   0  0  0  0  0  0  0  0  0  0  0  0
    9.3908  -14.5062   18.8772 O   0  0  0  0  0  0  0  0  0  0  0  0
    6.8180  -19.0031   26.4191 O   0  0  0  0  0  0  0  0  0  0  0  0
    7.1435  -19.0364   25.0632 C   0  0  0  0  0  0  0  0  0  0  0  0
    7.3552  -17.6336   24.5055 C   0  0  2  0  0  0  0  0  0  0  0  0
    7.6805  -17.6643   23.0959 N   0  0  0  0  0  0  0  0  0  0  0  0
    8.4531  -16.9677   25.2754 C   0  0  0  0  0  0  0  0  0  0  0  0
    9.6548  -17.0495   24.9152 O   0  0  0  0  0  0  0  0  0  0  0  0
    8.1888  -16.2114   26.4501 N   0  0  0  0  0  0  0  0  0  0  0  0
    9.2840  -15.5894   27.2057 C   0  0  1  0  0  0  0  0  0  0  0  0
    8.6317  -14.4989   28.0231 C   0  0  0  0  0  0  0  0  0  0  0  0
    7.8737  -13.5745   27.1679 C   0  0  0  0  0  0  0  0  0  0  0  0
    8.5341  -12.6023   26.4560 C   0  0  0  0  0  0  0  0  0  0  0  0
    7.8242  -11.7206   25.6384 C   0  0  0  0  0  0  0  0  0  0  0  0
    6.4519  -11.8412   25.5573 C   0  0  0  0  0  0  0  0  0  0  0  0
    5.7907  -12.8272   26.2807 C   0  0  0  0  0  0  0  0  0  0  0  0
    6.4900  -13.6977   27.0876 C   0  0  0  0  0  0  0  0  0  0  0  0
    9.9863  -16.6008   27.9958 C   0  0  0  0  0  0  0  0  0  0  0  0
    9.6039  -17.9335   28.0135 O   0  0  0  0  0  0  0  0  0  0  0  0
   10.9765  -16.2618   28.6908 O   0  0  0  0  0  0  0  0  0  0  0  0
  2  1  1  6
  2  7  1  0
  3  2  1  0
  4  3  1  0
  4  5  1  0
  5  6  2  0
  5  9  1  0
  7  8  2  0
  7 13  1  0
 10 11  1  0
 12 14  1  0
 12 11  1  1
 13 12  1  0
 14 15  2  0
 16 17  1  0
 16 14  1  0
 17 18  1  1
 18 19  1  0
 19 20  2  0
 20 21  1  0
 22 21  2  0
 23 22  1  0
 24 23  2  0
 24 19  1  0
 25 26  1  0
 25 17  1  0
 27 25  2  0
M  END
$$$$
