ESF.pdb
     RDKit          3D

 27 27  0  0  1  0  0  0  0  0999 V2000
    9.3034  -17.7004   19.0809 N   0  0  0  0  0  0  0  0  0  0  0  0
   10.0228  -18.0291   20.3073 C   0  0  1  0  0  0  0  0  0  0  0  0
   11.3130  -17.2443   20.2481 C   0  0  0  0  0  0  0  0  0  0  0  0
   12.4489  -17.9695   19.6049 C   0  0  0  0  0  0  0  0  0  0  0  0
   13.7149  -17.2117   19.5689 C   0  0  0  0  0  0  0  0  0  0  0  0
   14.2417  -16.8750   18.4867 O   0  0  0  0  0  0  0  0  0  0  0  0
    9.2135  -17.4973   21.4545 C   0  0  0  0  0  0  0  0  0  0  0  0
    8.4817  -16.4859   21.3076 O   0  0  0  0  0  0  0  0  0  0  0  0
   14.3304  -16.8673   20.7590 O   0  0  0  0  0  0  0  0  0  0  0  0
    8.2238  -19.9172   24.6502 O   0  0  0  0  0  0  0  0  0  0  0  0
    7.4395  -18.8429   24.2302 C   0  0  0  0  0  0  0  0  0  0  0  0
    8.2985  -17.6835   23.7386 C   0  0  2  0  0  0  0  0  0  0  0  0
    9.2461  -18.1119   22.7325 N   0  0  0  0  0  0  0  0  0  0  0  0
    9.0192  -17.0862   24.9072 C   0  0  0  0  0  0  0  0  0  0  0  0
   10.2714  -17.1375   25.0062 O   0  0  0  0  0  0  0  0  0  0  0  0
    8.3217  -16.4329   25.9599 N   0  0  0  0  0  0  0  0  0  0  0  0
    9.0412  -15.9198   27.1332 C   0  0  1  0  0  0  0  0  0  0  0  0
    8.0405  -15.0562   27.8649 C   0  0  0  0  0  0  0  0  0  0  0  0
    7.6135  -13.9193   27.0369 C   0  0  0  0  0  0  0  0  0  0  0  0
    6.3154  -13.8449   26.5923 C   0  0  0  0  0  0  0  0  0  0  0  0
    5.8983  -12.7679   25.8075 C   0  0  0  0  0  0  0  0  0  0  0  0
    6.8088  -11.7819   25.4864 C   0  0  0  0  0  0  0  0  0  0  0  0
    8.1205  -11.8641   25.9398 C   0  0  0  0  0  0  0  0  0  0  0  0
    8.5331  -12.9261   26.7142 C   0  0  0  0  0  0  0  0  0  0  0  0
    9.5727  -17.0318   27.9216 C   0  0  0  0  0  0  0  0  0  0  0  0
   10.6006  -16.8737   28.8387 O   0  0  0  0  0  0  0  0  0  0  0  0
    9.0878  -18.1811   27.7712 O   0  0  0  0  0  0  0  0  0  0  0  0
  2  1  1  6
  2  7  1  0
  3  2  1  0
  4  3  1  0
  4  5  1  0
  5  6  2  0
  5  9  1  0
  7  8  2  0
  7 13  1  0
 10 11  1  0
 12 14  1  0
 12 11  1  1
 13 12  1  0
 14 15  2  0
 16 17  1  0
 16 14  1  0
 17 18  1  1
 18 19  1  0
 19 20  2  0
 20 21  1  0
 22 21  2  0
 23 22  1  0
 24 23  2  0
 24 19  1  0
 25 26  1  0
 25 17  1  0
 27 25  2  0
M  END
$$$$
