ESF.pdb
     RDKit          3D

 27 27  0  0  1  0  0  0  0  0999 V2000
    9.6246  -19.3628   19.5481 N   0  0  0  0  0  0  0  0  0  0  0  0
   10.3683  -18.4656   20.4264 C   0  0  1  0  0  0  0  0  0  0  0  0
   10.9850  -17.4245   19.5210 C   0  0  0  0  0  0  0  0  0  0  0  0
   12.2086  -17.8813   18.7971 C   0  0  0  0  0  0  0  0  0  0  0  0
   12.7892  -16.8767   17.8850 C   0  0  0  0  0  0  0  0  0  0  0  0
   12.2705  -16.6279   16.7754 O   0  0  0  0  0  0  0  0  0  0  0  0
    9.3681  -17.7743   21.3071 C   0  0  0  0  0  0  0  0  0  0  0  0
    8.2185  -17.5009   20.8787 O   0  0  0  0  0  0  0  0  0  0  0  0
   13.9315  -16.1967   18.2676 O   0  0  0  0  0  0  0  0  0  0  0  0
    8.5192  -19.5225   24.3522 O   0  0  0  0  0  0  0  0  0  0  0  0
    7.7807  -18.5067   23.7452 C   0  0  0  0  0  0  0  0  0  0  0  0
    8.6049  -17.2337   23.5906 C   0  0  2  0  0  0  0  0  0  0  0  0
    9.6826  -17.4090   22.6412 N   0  0  0  0  0  0  0  0  0  0  0  0
    9.1526  -16.8467   24.9293 C   0  0  0  0  0  0  0  0  0  0  0  0
   10.3644  -17.0134   25.2194 O   0  0  0  0  0  0  0  0  0  0  0  0
    8.3284  -16.2724   25.9355 N   0  0  0  0  0  0  0  0  0  0  0  0
    8.9063  -15.7964   27.1992 C   0  0  1  0  0  0  0  0  0  0  0  0
    7.8625  -14.8782   27.7909 C   0  0  0  0  0  0  0  0  0  0  0  0
    7.6546  -13.6943   26.9449 C   0  0  0  0  0  0  0  0  0  0  0  0
    6.4195  -13.4557   26.3921 C   0  0  0  0  0  0  0  0  0  0  0  0
    6.2101  -12.3325   25.5892 C   0  0  0  0  0  0  0  0  0  0  0  0
    7.2615  -11.4684   25.3604 C   0  0  0  0  0  0  0  0  0  0  0  0
    8.5083  -11.7166   25.9231 C   0  0  0  0  0  0  0  0  0  0  0  0
    8.7160  -12.8243   26.7154 C   0  0  0  0  0  0  0  0  0  0  0  0
    9.2635  -16.9337   28.0473 C   0  0  0  0  0  0  0  0  0  0  0  0
   10.1233  -16.8184   29.1291 O   0  0  0  0  0  0  0  0  0  0  0  0
    8.7795  -18.0657   27.7964 O   0  0  0  0  0  0  0  0  0  0  0  0
  2  1  1  6
  2  7  1  0
  3  2  1  0
  4  3  1  0
  4  5  1  0
  5  6  2  0
  5  9  1  0
  7  8  2  0
  7 13  1  0
 10 11  1  0
 12 14  1  0
 12 11  1  1
 13 12  1  0
 14 15  2  0
 16 17  1  0
 16 14  1  0
 17 18  1  1
 18 19  1  0
 19 20  2  0
 20 21  1  0
 22 21  2  0
 23 22  1  0
 24 23  2  0
 24 19  1  0
 25 26  1  0
 25 17  1  0
 27 25  2  0
M  END
$$$$
