ESF.pdb
     RDKit          3D

 27 27  0  0  1  0  0  0  0  0999 V2000
   10.5442  -19.3226   18.5360 N   0  0  0  0  0  0  0  0  0  0  0  0
   10.2195  -19.8295   19.8653 C   0  0  1  0  0  0  0  0  0  0  0  0
   11.4902  -19.7025   20.6736 C   0  0  0  0  0  0  0  0  0  0  0  0
   12.1302  -18.3548   20.6116 C   0  0  0  0  0  0  0  0  0  0  0  0
   13.4267  -18.2620   21.3109 C   0  0  0  0  0  0  0  0  0  0  0  0
   14.5064  -18.4395   20.7068 O   0  0  0  0  0  0  0  0  0  0  0  0
    9.2016  -18.9000   20.4601 C   0  0  0  0  0  0  0  0  0  0  0  0
    9.1470  -17.6964   20.1020 O   0  0  0  0  0  0  0  0  0  0  0  0
   13.4458  -17.9723   22.6634 O   0  0  0  0  0  0  0  0  0  0  0  0
    6.3962  -20.1362   23.3732 O   0  0  0  0  0  0  0  0  0  0  0  0
    6.0232  -19.1959   22.4129 C   0  0  0  0  0  0  0  0  0  0  0  0
    7.2318  -18.4398   21.8732 C   0  0  2  0  0  0  0  0  0  0  0  0
    8.2746  -19.3435   21.4377 N   0  0  0  0  0  0  0  0  0  0  0  0
    7.7497  -17.5293   22.9430 C   0  0  0  0  0  0  0  0  0  0  0  0
    8.7579  -17.8279   23.6321 O   0  0  0  0  0  0  0  0  0  0  0  0
    7.1261  -16.2842   23.2301 N   0  0  0  0  0  0  0  0  0  0  0  0
    7.5004  -15.5137   24.4233 C   0  0  1  0  0  0  0  0  0  0  0  0
    6.7192  -14.2243   24.3231 C   0  0  0  0  0  0  0  0  0  0  0  0
    6.9773  -13.3550   25.4799 C   0  0  0  0  0  0  0  0  0  0  0  0
    5.9253  -12.8493   26.2050 C   0  0  0  0  0  0  0  0  0  0  0  0
    6.1591  -12.0247   27.3074 C   0  0  0  0  0  0  0  0  0  0  0  0
    7.4607  -11.7266   27.6558 C   0  0  0  0  0  0  0  0  0  0  0  0
    8.5198  -12.2419   26.9172 C   0  0  0  0  0  0  0  0  0  0  0  0
    8.2904  -13.0555   25.8295 C   0  0  0  0  0  0  0  0  0  0  0  0
    7.2284  -16.2945   25.6303 C   0  0  0  0  0  0  0  0  0  0  0  0
    8.1605  -16.4514   26.6448 O   0  0  0  0  0  0  0  0  0  0  0  0
    6.1099  -16.8507   25.7655 O   0  0  0  0  0  0  0  0  0  0  0  0
  2  1  1  6
  2  7  1  0
  3  2  1  0
  4  3  1  0
  4  5  1  0
  5  6  2  0
  5  9  1  0
  7  8  2  0
  7 13  1  0
 10 11  1  0
 12 14  1  0
 12 11  1  1
 13 12  1  0
 14 15  2  0
 16 17  1  0
 16 14  1  0
 17 18  1  1
 18 19  1  0
 19 20  2  0
 20 21  1  0
 22 21  2  0
 23 22  1  0
 24 23  2  0
 24 19  1  0
 25 26  1  0
 25 17  1  0
 27 25  2  0
M  END
$$$$
