KKS.pdb
     RDKit          3D

 25 24  0  0  1  0  0  0  0  0999 V2000
   11.0116  -18.4722   17.8067 N   0  0  0  0  0  0  0  0  0  0  0  0
    9.9102  -18.2008   18.6393 C   0  0  1  0  0  0  0  0  0  0  0  0
    9.1981  -19.4923   19.0010 C   0  0  0  0  0  0  0  0  0  0  0  0
    9.7681  -20.7260   18.4156 C   0  0  0  0  0  0  0  0  0  0  0  0
    9.0882  -22.0112   18.7393 C   0  0  0  0  0  0  0  0  0  0  0  0
    9.7379  -23.1886   18.0044 C   0  0  0  0  0  0  0  0  0  0  0  0
    9.1167  -24.4509   18.4239 N   0  0  0  0  0  0  0  0  0  0  0  0
   10.1707  -17.3743   19.8172 C   0  0  0  0  0  0  0  0  0  0  0  0
   11.3708  -17.3692   20.2881 O   0  0  0  0  0  0  0  0  0  0  0  0
    9.2329  -16.5963   20.4680 N   0  0  0  0  0  0  0  0  0  0  0  0
    9.5891  -15.6863   21.5835 C   0  0  1  0  0  0  0  0  0  0  0  0
    8.4527  -14.6930   21.6239 C   0  0  0  0  0  0  0  0  0  0  0  0
    8.4848  -13.6835   20.5417 C   0  0  0  0  0  0  0  0  0  0  0  0
    7.2103  -13.5547   19.7471 C   0  0  0  0  0  0  0  0  0  0  0  0
    7.2474  -12.6235   18.5951 C   0  0  0  0  0  0  0  0  0  0  0  0
    6.0675  -12.5517   17.7893 N   0  0  0  0  0  0  0  0  0  0  0  0
    9.7819  -16.4627   22.8192 C   0  0  0  0  0  0  0  0  0  0  0  0
    8.9154  -17.3519   23.1085 O   0  0  0  0  0  0  0  0  0  0  0  0
   13.4123  -16.6673   25.2856 O   0  0  0  0  0  0  0  0  0  0  0  0
   12.5478  -17.6457   24.8713 C   0  0  0  0  0  0  0  0  0  0  0  0
   11.1041  -17.2173   24.8262 C   0  0  2  0  0  0  0  0  0  0  0  0
   10.8414  -16.3208   23.7188 N   0  0  0  0  0  0  0  0  0  0  0  0
   10.6068  -16.6961   26.1116 C   0  0  0  0  0  0  0  0  0  0  0  0
   10.7127  -17.4427   27.2657 O   0  0  0  0  0  0  0  0  0  0  0  0
   10.0826  -15.5654   26.1627 O   0  0  0  0  0  0  0  0  0  0  0  0
  2  1  1  1
  2  3  1  0
  3  4  1  0
  5  6  1  0
  5  4  1  0
  7  6  1  0
  8  2  1  0
  9  8  2  0
 10  8  1  0
 11 10  1  0
 11 12  1  1
 12 13  1  0
 14 15  1  0
 14 13  1  0
 16 15  1  0
 17 11  1  0
 18 17  2  0
 19 20  1  0
 21 20  1  1
 21 23  1  0
 21 22  1  0
 22 17  1  0
 23 24  1  0
 25 23  2  0
M  END
$$$$
