KKS.pdb
     RDKit          3D

 25 24  0  0  1  0  0  0  0  0999 V2000
    5.7670  -20.3963   19.8817 N   0  0  0  0  0  0  0  0  0  0  0  0
    5.2604  -19.4592   20.8010 C   0  0  1  0  0  0  0  0  0  0  0  0
    4.1702  -20.0936   21.6465 C   0  0  0  0  0  0  0  0  0  0  0  0
    4.2388  -21.5653   21.7846 C   0  0  0  0  0  0  0  0  0  0  0  0
    3.1683  -22.2255   22.5827 C   0  0  0  0  0  0  0  0  0  0  0  0
    3.3544  -23.7463   22.6187 C   0  0  0  0  0  0  0  0  0  0  0  0
    2.2916  -24.3666   23.4192 N   0  0  0  0  0  0  0  0  0  0  0  0
    6.2435  -18.7522   21.6208 C   0  0  0  0  0  0  0  0  0  0  0  0
    7.1423  -19.4594   22.2156 O   0  0  0  0  0  0  0  0  0  0  0  0
    6.2873  -17.3845   21.8101 N   0  0  0  0  0  0  0  0  0  0  0  0
    7.3580  -16.7234   22.5948 C   0  0  1  0  0  0  0  0  0  0  0  0
    7.2380  -15.2649   22.2233 C   0  0  0  0  0  0  0  0  0  0  0  0
    7.8751  -14.9079   20.9356 C   0  0  0  0  0  0  0  0  0  0  0  0
    7.7245  -13.4657   20.5240 C   0  0  0  0  0  0  0  0  0  0  0  0
    8.3446  -13.0843   19.2334 C   0  0  0  0  0  0  0  0  0  0  0  0
    8.0909  -11.7558   18.7669 N   0  0  0  0  0  0  0  0  0  0  0  0
    7.1823  -17.0179   24.0264 C   0  0  0  0  0  0  0  0  0  0  0  0
    6.0873  -16.6701   24.5788 O   0  0  0  0  0  0  0  0  0  0  0  0
    8.1024  -20.3366   26.1574 O   0  0  0  0  0  0  0  0  0  0  0  0
    7.2885  -19.2844   26.4839 C   0  0  0  0  0  0  0  0  0  0  0  0
    7.9084  -17.9297   26.2596 C   0  0  2  0  0  0  0  0  0  0  0  0
    8.1120  -17.6557   24.8516 N   0  0  0  0  0  0  0  0  0  0  0  0
    9.1197  -17.6984   27.0661 C   0  0  0  0  0  0  0  0  0  0  0  0
   10.2700  -17.2044   26.4885 O   0  0  0  0  0  0  0  0  0  0  0  0
    9.1105  -17.9504   28.2876 O   0  0  0  0  0  0  0  0  0  0  0  0
  2  1  1  1
  2  3  1  0
  3  4  1  0
  5  6  1  0
  5  4  1  0
  7  6  1  0
  8  2  1  0
  9  8  2  0
 10  8  1  0
 11 10  1  0
 11 12  1  1
 12 13  1  0
 14 15  1  0
 14 13  1  0
 16 15  1  0
 17 11  1  0
 18 17  2  0
 19 20  1  0
 21 20  1  6
 21 23  1  0
 21 22  1  0
 22 17  1  0
 23 24  1  0
 25 23  2  0
M  END
$$$$
