KKS.pdb
     RDKit          3D

 25 24  0  0  1  0  0  0  0  0999 V2000
    6.3686  -21.2696   13.3145 N   0  0  0  0  0  0  0  0  0  0  0  0
    7.0876  -22.3694   13.8177 C   0  0  1  0  0  0  0  0  0  0  0  0
    8.2385  -22.7109   12.8877 C   0  0  0  0  0  0  0  0  0  0  0  0
    9.1546  -21.5952   12.5627 C   0  0  0  0  0  0  0  0  0  0  0  0
   10.2874  -21.8899   11.6415 C   0  0  0  0  0  0  0  0  0  0  0  0
   10.4005  -20.8329   10.5376 C   0  0  0  0  0  0  0  0  0  0  0  0
   11.5463  -21.1297    9.6692 N   0  0  0  0  0  0  0  0  0  0  0  0
    7.5209  -22.2832   15.2116 C   0  0  0  0  0  0  0  0  0  0  0  0
    7.6477  -21.1073   15.7245 O   0  0  0  0  0  0  0  0  0  0  0  0
    7.8063  -23.3622   16.0256 N   0  0  0  0  0  0  0  0  0  0  0  0
    8.1720  -23.2069   17.4544 C   0  0  1  0  0  0  0  0  0  0  0  0
    7.7480  -24.5112   18.0857 C   0  0  0  0  0  0  0  0  0  0  0  0
    7.9841  -24.5890   19.5450 C   0  0  0  0  0  0  0  0  0  0  0  0
    7.6424  -25.9127   20.1800 C   0  0  0  0  0  0  0  0  0  0  0  0
    7.7985  -25.9936   21.6513 C   0  0  0  0  0  0  0  0  0  0  0  0
    7.6452  -27.2870   22.2431 N   0  0  0  0  0  0  0  0  0  0  0  0
    9.6059  -22.8953   17.5718 C   0  0  0  0  0  0  0  0  0  0  0  0
   10.3719  -23.2308   16.6095 O   0  0  0  0  0  0  0  0  0  0  0  0
   13.1990  -20.1061   18.4533 O   0  0  0  0  0  0  0  0  0  0  0  0
   11.8764  -20.4625   18.4481 C   0  0  0  0  0  0  0  0  0  0  0  0
   11.6284  -21.9240   18.7173 C   0  0  2  0  0  0  0  0  0  0  0  0
   10.2191  -22.2535   18.6507 N   0  0  0  0  0  0  0  0  0  0  0  0
   12.2694  -22.4098   19.9519 C   0  0  0  0  0  0  0  0  0  0  0  0
   13.6156  -22.7063   19.9799 O   0  0  0  0  0  0  0  0  0  0  0  0
   11.5910  -22.5565   20.9882 O   0  0  0  0  0  0  0  0  0  0  0  0
  2  1  1  6
  2  3  1  0
  3  4  1  0
  5  6  1  0
  5  4  1  0
  7  6  1  0
  8  2  1  0
  9  8  2  0
 10  8  1  0
 11 10  1  0
 11 12  1  1
 12 13  1  0
 14 15  1  0
 14 13  1  0
 16 15  1  0
 17 11  1  0
 18 17  2  0
 19 20  1  0
 21 20  1  1
 21 23  1  0
 21 22  1  0
 22 17  1  0
 23 24  1  0
 25 23  2  0
M  END
$$$$
