KKS.pdb
     RDKit          3D

 25 24  0  0  1  0  0  0  0  0999 V2000
   12.7384  -17.9778   17.0617 N   0  0  0  0  0  0  0  0  0  0  0  0
   12.6153  -18.5898   18.3227 C   0  0  1  0  0  0  0  0  0  0  0  0
   13.1729  -20.0015   18.2748 C   0  0  0  0  0  0  0  0  0  0  0  0
   13.4068  -20.5544   16.9223 C   0  0  0  0  0  0  0  0  0  0  0  0
   13.8214  -21.9822   16.8322 C   0  0  0  0  0  0  0  0  0  0  0  0
   14.1202  -22.3878   15.3848 C   0  0  0  0  0  0  0  0  0  0  0  0
   15.5692  -22.3892   15.1492 N   0  0  0  0  0  0  0  0  0  0  0  0
   13.1321  -17.8386   19.4658 C   0  0  0  0  0  0  0  0  0  0  0  0
   14.0417  -16.9545   19.2358 O   0  0  0  0  0  0  0  0  0  0  0  0
   12.7238  -17.9998   20.7757 N   0  0  0  0  0  0  0  0  0  0  0  0
   13.1699  -17.0981   21.8653 C   0  0  1  0  0  0  0  0  0  0  0  0
   12.0665  -17.1892   22.8918 C   0  0  0  0  0  0  0  0  0  0  0  0
   12.2979  -16.3819   24.1109 C   0  0  0  0  0  0  0  0  0  0  0  0
   11.1758  -16.4042   25.1171 C   0  0  0  0  0  0  0  0  0  0  0  0
   11.4377  -15.7220   26.4062 C   0  0  0  0  0  0  0  0  0  0  0  0
   10.4412  -15.8656   27.4227 N   0  0  0  0  0  0  0  0  0  0  0  0
   14.4998  -17.5113   22.3423 C   0  0  0  0  0  0  0  0  0  0  0  0
   14.6556  -18.7236   22.7046 O   0  0  0  0  0  0  0  0  0  0  0  0
   18.1604  -15.1583   22.1947 O   0  0  0  0  0  0  0  0  0  0  0  0
   18.0310  -16.5082   22.0015 C   0  0  0  0  0  0  0  0  0  0  0  0
   16.9455  -17.1500   22.8260 C   0  0  2  0  0  0  0  0  0  0  0  0
   15.6280  -16.6923   22.4342 N   0  0  0  0  0  0  0  0  0  0  0  0
   17.1753  -17.0496   24.2780 C   0  0  0  0  0  0  0  0  0  0  0  0
   16.2677  -16.4092   25.0947 O   0  0  0  0  0  0  0  0  0  0  0  0
   18.2018  -17.5488   24.7808 O   0  0  0  0  0  0  0  0  0  0  0  0
  2  1  1  6
  2  3  1  0
  3  4  1  0
  5  6  1  0
  5  4  1  0
  7  6  1  0
  8  2  1  0
  9  8  2  0
 10  8  1  0
 11 10  1  0
 11 12  1  1
 12 13  1  0
 14 15  1  0
 14 13  1  0
 16 15  1  0
 17 11  1  0
 18 17  2  0
 19 20  1  0
 21 20  1  6
 21 23  1  0
 21 22  1  0
 22 17  1  0
 23 24  1  0
 25 23  2  0
M  END
$$$$
