KKS.pdb
     RDKit          3D

 25 24  0  0  1  0  0  0  0  0999 V2000
    8.4606  -17.9445   15.6585 N   0  0  0  0  0  0  0  0  0  0  0  0
    9.0270  -17.1164   16.6450 C   0  0  1  0  0  0  0  0  0  0  0  0
    8.5010  -15.6991   16.5023 C   0  0  0  0  0  0  0  0  0  0  0  0
    8.3856  -15.1931   15.1166 C   0  0  0  0  0  0  0  0  0  0  0  0
    7.9791  -13.7707   14.9422 C   0  0  0  0  0  0  0  0  0  0  0  0
    8.0226  -13.3530   13.4683 C   0  0  0  0  0  0  0  0  0  0  0  0
    7.7557  -11.9149   13.3426 N   0  0  0  0  0  0  0  0  0  0  0  0
    8.9412  -17.5929   18.0249 C   0  0  0  0  0  0  0  0  0  0  0  0
    7.7755  -17.6196   18.5747 O   0  0  0  0  0  0  0  0  0  0  0  0
   10.0106  -18.0178   18.7891 N   0  0  0  0  0  0  0  0  0  0  0  0
    9.8546  -18.4796   20.1898 C   0  0  1  0  0  0  0  0  0  0  0  0
   10.4435  -19.8698   20.1856 C   0  0  0  0  0  0  0  0  0  0  0  0
    9.5973  -20.8900   19.5262 C   0  0  0  0  0  0  0  0  0  0  0  0
    9.2963  -22.1093   20.3598 C   0  0  0  0  0  0  0  0  0  0  0  0
    8.5567  -23.2000   19.6824 C   0  0  0  0  0  0  0  0  0  0  0  0
    8.4911  -24.4538   20.3683 N   0  0  0  0  0  0  0  0  0  0  0  0
   10.5079  -17.5293   21.1046 C   0  0  0  0  0  0  0  0  0  0  0  0
   11.6518  -17.0724   20.7760 O   0  0  0  0  0  0  0  0  0  0  0  0
    8.6884  -15.8184   24.5631 O   0  0  0  0  0  0  0  0  0  0  0  0
    9.6826  -15.1917   23.8594 C   0  0  0  0  0  0  0  0  0  0  0  0
   10.6557  -16.1299   23.1941 C   0  0  2  0  0  0  0  0  0  0  0  0
    9.9864  -17.0680   22.3159 N   0  0  0  0  0  0  0  0  0  0  0  0
   11.5737  -16.7895   24.1392 C   0  0  0  0  0  0  0  0  0  0  0  0
   11.6300  -18.1643   24.2273 O   0  0  0  0  0  0  0  0  0  0  0  0
   12.3122  -16.1008   24.8714 O   0  0  0  0  0  0  0  0  0  0  0  0
  2  1  1  6
  2  3  1  0
  3  4  1  0
  5  6  1  0
  5  4  1  0
  7  6  1  0
  8  2  1  0
  9  8  2  0
 10  8  1  0
 11 10  1  0
 11 12  1  6
 12 13  1  0
 14 15  1  0
 14 13  1  0
 16 15  1  0
 17 11  1  0
 18 17  2  0
 19 20  1  0
 21 20  1  1
 21 23  1  0
 21 22  1  0
 22 17  1  0
 23 24  1  0
 25 23  2  0
M  END
$$$$
