KKS.pdb
     RDKit          3D

 25 24  0  0  1  0  0  0  0  0999 V2000
   10.8563  -19.1216   15.4239 N   0  0  0  0  0  0  0  0  0  0  0  0
   10.0332  -19.2565   16.5571 C   0  0  1  0  0  0  0  0  0  0  0  0
   10.1747  -20.6506   17.1425 C   0  0  0  0  0  0  0  0  0  0  0  0
   10.9662  -21.6078   16.3384 C   0  0  0  0  0  0  0  0  0  0  0  0
   12.0929  -22.3030   17.0211 C   0  0  0  0  0  0  0  0  0  0  0  0
   12.7688  -23.3181   16.0929 C   0  0  0  0  0  0  0  0  0  0  0  0
   12.3992  -24.6841   16.4834 N   0  0  0  0  0  0  0  0  0  0  0  0
   10.1581  -18.2204   17.5814 C   0  0  0  0  0  0  0  0  0  0  0  0
   11.2968  -17.6263   17.6923 O   0  0  0  0  0  0  0  0  0  0  0  0
    9.1523  -17.8254   18.4421 N   0  0  0  0  0  0  0  0  0  0  0  0
    9.2799  -16.6410   19.3254 C   0  0  1  0  0  0  0  0  0  0  0  0
    7.8524  -16.2577   19.6337 C   0  0  0  0  0  0  0  0  0  0  0  0
    7.7133  -15.0649   20.4993 C   0  0  0  0  0  0  0  0  0  0  0  0
    8.2102  -13.7751   19.8981 C   0  0  0  0  0  0  0  0  0  0  0  0
    8.1125  -12.5713   20.7566 C   0  0  0  0  0  0  0  0  0  0  0  0
    8.6983  -11.3698   20.2468 N   0  0  0  0  0  0  0  0  0  0  0  0
   10.1012  -16.9796   20.4992 C   0  0  0  0  0  0  0  0  0  0  0  0
    9.8618  -18.0780   21.1003 O   0  0  0  0  0  0  0  0  0  0  0  0
   13.7103  -14.9562   21.7605 O   0  0  0  0  0  0  0  0  0  0  0  0
   13.4324  -16.2927   21.8741 C   0  0  0  0  0  0  0  0  0  0  0  0
   11.9811  -16.6031   22.1333 C   0  0  2  0  0  0  0  0  0  0  0  0
   11.1375  -16.2040   21.0250 N   0  0  0  0  0  0  0  0  0  0  0  0
   11.4958  -16.0979   23.4296 C   0  0  0  0  0  0  0  0  0  0  0  0
   10.3563  -15.3255   23.5056 O   0  0  0  0  0  0  0  0  0  0  0  0
   12.1193  -16.3694   24.4752 O   0  0  0  0  0  0  0  0  0  0  0  0
  2  1  1  6
  2  3  1  0
  3  4  1  0
  5  6  1  0
  5  4  1  0
  7  6  1  0
  8  2  1  0
  9  8  2  0
 10  8  1  0
 11 10  1  0
 11 12  1  1
 12 13  1  0
 14 15  1  0
 14 13  1  0
 16 15  1  0
 17 11  1  0
 18 17  2  0
 19 20  1  0
 21 20  1  6
 21 23  1  0
 21 22  1  0
 22 17  1  0
 23 24  1  0
 25 23  2  0
M  END
$$$$
