KKS.pdb
     RDKit          3D

 25 24  0  0  1  0  0  0  0  0999 V2000
    5.2627  -15.7665   24.9357 N   0  0  0  0  0  0  0  0  0  0  0  0
    6.6438  -15.5003   24.8947 C   0  0  1  0  0  0  0  0  0  0  0  0
    6.9774  -14.3301   25.8033 C   0  0  0  0  0  0  0  0  0  0  0  0
    6.2227  -13.0832   25.5481 C   0  0  0  0  0  0  0  0  0  0  0  0
    6.5689  -11.8952   26.3775 C   0  0  0  0  0  0  0  0  0  0  0  0
    5.7862  -10.6550   25.9329 C   0  0  0  0  0  0  0  0  0  0  0  0
    6.0331   -9.5428   26.8588 N   0  0  0  0  0  0  0  0  0  0  0  0
    7.5345  -16.6375   25.1221 C   0  0  0  0  0  0  0  0  0  0  0  0
    7.2935  -17.3886   26.1417 O   0  0  0  0  0  0  0  0  0  0  0  0
    8.6161  -16.9732   24.3310 N   0  0  0  0  0  0  0  0  0  0  0  0
    9.4064  -18.2096   24.5458 C   0  0  1  0  0  0  0  0  0  0  0  0
   10.1628  -18.3911   23.2518 C   0  0  0  0  0  0  0  0  0  0  0  0
   11.0203  -19.5970   23.2093 C   0  0  0  0  0  0  0  0  0  0  0  0
   11.7923  -19.7898   21.9291 C   0  0  0  0  0  0  0  0  0  0  0  0
   12.6703  -20.9818   21.8664 C   0  0  0  0  0  0  0  0  0  0  0  0
   13.5099  -21.1010   20.7141 N   0  0  0  0  0  0  0  0  0  0  0  0
   10.2486  -18.0620   25.7441 C   0  0  0  0  0  0  0  0  0  0  0  0
   10.8697  -16.9607   25.9071 O   0  0  0  0  0  0  0  0  0  0  0  0
   11.4480  -19.4565   30.2471 O   0  0  0  0  0  0  0  0  0  0  0  0
   10.6613  -19.5149   29.1273 C   0  0  0  0  0  0  0  0  0  0  0  0
   11.2555  -18.8412   27.9178 C   0  0  2  0  0  0  0  0  0  0  0  0
   10.4335  -19.0253   26.7390 N   0  0  0  0  0  0  0  0  0  0  0  0
   12.6685  -19.1900   27.6874 C   0  0  0  0  0  0  0  0  0  0  0  0
   13.6768  -18.5411   28.3678 O   0  0  0  0  0  0  0  0  0  0  0  0
   12.9625  -20.0831   26.8679 O   0  0  0  0  0  0  0  0  0  0  0  0
  2  1  1  1
  2  3  1  0
  3  4  1  0
  5  6  1  0
  5  4  1  0
  7  6  1  0
  8  2  1  0
  9  8  2  0
 10  8  1  0
 11 10  1  0
 11 12  1  6
 12 13  1  0
 14 15  1  0
 14 13  1  0
 16 15  1  0
 17 11  1  0
 18 17  2  0
 19 20  1  0
 21 20  1  1
 21 23  1  0
 21 22  1  0
 22 17  1  0
 23 24  1  0
 25 23  2  0
M  END
$$$$
