KKS.pdb
     RDKit          3D

 25 24  0  0  1  0  0  0  0  0999 V2000
    6.4597  -15.4230   20.6240 N   0  0  0  0  0  0  0  0  0  0  0  0
    7.7004  -15.0341   21.1618 C   0  0  1  0  0  0  0  0  0  0  0  0
    7.8615  -13.5270   21.0671 C   0  0  0  0  0  0  0  0  0  0  0  0
    7.7580  -12.9541   19.7068 C   0  0  0  0  0  0  0  0  0  0  0  0
    8.5938  -13.5739   18.6409 C   0  0  0  0  0  0  0  0  0  0  0  0
    8.3159  -12.9411   17.2730 C   0  0  0  0  0  0  0  0  0  0  0  0
    8.9887  -13.7063   16.2162 N   0  0  0  0  0  0  0  0  0  0  0  0
    8.0168  -15.5326   22.4996 C   0  0  0  0  0  0  0  0  0  0  0  0
    7.1123  -15.4114   23.4100 O   0  0  0  0  0  0  0  0  0  0  0  0
    9.2095  -16.1245   22.8680 N   0  0  0  0  0  0  0  0  0  0  0  0
    9.4266  -16.7073   24.2143 C   0  0  1  0  0  0  0  0  0  0  0  0
   10.3311  -17.8893   23.9610 C   0  0  0  0  0  0  0  0  0  0  0  0
    9.6179  -19.1515   23.6618 C   0  0  0  0  0  0  0  0  0  0  0  0
   10.5010  -20.3597   23.4815 C   0  0  0  0  0  0  0  0  0  0  0  0
    9.8081  -21.6527   23.2723 C   0  0  0  0  0  0  0  0  0  0  0  0
    8.8323  -21.6965   22.2271 N   0  0  0  0  0  0  0  0  0  0  0  0
    9.9771  -15.6843   25.1184 C   0  0  0  0  0  0  0  0  0  0  0  0
   10.9956  -15.0251   24.7267 O   0  0  0  0  0  0  0  0  0  0  0  0
    7.9259  -13.5373   28.0194 O   0  0  0  0  0  0  0  0  0  0  0  0
    9.1413  -13.1977   27.4866 C   0  0  0  0  0  0  0  0  0  0  0  0
   10.0668  -14.3652   27.2626 C   0  0  2  0  0  0  0  0  0  0  0  0
    9.4818  -15.3567   26.3830 N   0  0  0  0  0  0  0  0  0  0  0  0
   10.5882  -14.9481   28.5115 C   0  0  0  0  0  0  0  0  0  0  0  0
   11.2601  -14.1685   29.4289 O   0  0  0  0  0  0  0  0  0  0  0  0
   10.4223  -16.1615   28.7477 O   0  0  0  0  0  0  0  0  0  0  0  0
  2  1  1  1
  2  3  1  0
  3  4  1  0
  5  6  1  0
  5  4  1  0
  7  6  1  0
  8  2  1  0
  9  8  2  0
 10  8  1  0
 11 10  1  0
 11 12  1  6
 12 13  1  0
 14 15  1  0
 14 13  1  0
 16 15  1  0
 17 11  1  0
 18 17  2  0
 19 20  1  0
 21 20  1  1
 21 23  1  0
 21 22  1  0
 22 17  1  0
 23 24  1  0
 25 23  2  0
M  END
$$$$
