KKS.pdb
     RDKit          3D

 25 24  0  0  1  0  0  0  0  0999 V2000
    8.5238  -15.7111   20.3971 N   0  0  0  0  0  0  0  0  0  0  0  0
    8.2679  -14.6281   21.2582 C   0  0  1  0  0  0  0  0  0  0  0  0
    7.2857  -13.6674   20.6115 C   0  0  0  0  0  0  0  0  0  0  0  0
    7.6907  -13.1230   19.2965 C   0  0  0  0  0  0  0  0  0  0  0  0
    7.6698  -14.0572   18.1365 C   0  0  0  0  0  0  0  0  0  0  0  0
    8.1563  -13.3701   16.8559 C   0  0  0  0  0  0  0  0  0  0  0  0
    8.0297  -14.2831   15.7133 N   0  0  0  0  0  0  0  0  0  0  0  0
    7.8817  -14.9614   22.6287 C   0  0  0  0  0  0  0  0  0  0  0  0
    7.2611  -14.0592   23.3089 O   0  0  0  0  0  0  0  0  0  0  0  0
    8.1287  -16.1675   23.2552 N   0  0  0  0  0  0  0  0  0  0  0  0
    7.7091  -16.4400   24.6513 C   0  0  1  0  0  0  0  0  0  0  0  0
    7.5627  -17.9418   24.7040 C   0  0  0  0  0  0  0  0  0  0  0  0
    6.4070  -18.4701   23.9446 C   0  0  0  0  0  0  0  0  0  0  0  0
    6.3377  -19.9726   23.8457 C   0  0  0  0  0  0  0  0  0  0  0  0
    5.2950  -20.5230   22.9482 C   0  0  0  0  0  0  0  0  0  0  0  0
    5.2199  -21.9482   22.8495 N   0  0  0  0  0  0  0  0  0  0  0  0
    8.6954  -15.8771   25.5880 C   0  0  0  0  0  0  0  0  0  0  0  0
    9.9320  -16.0332   25.3201 O   0  0  0  0  0  0  0  0  0  0  0  0
    8.5941  -12.3614   27.3532 O   0  0  0  0  0  0  0  0  0  0  0  0
    8.9449  -13.3207   28.2660 C   0  0  0  0  0  0  0  0  0  0  0  0
    9.3999  -14.6200   27.6542 C   0  0  2  0  0  0  0  0  0  0  0  0
    8.4040  -15.1733   26.7592 N   0  0  0  0  0  0  0  0  0  0  0  0
    9.8813  -15.5981   28.6456 C   0  0  0  0  0  0  0  0  0  0  0  0
   10.8162  -15.2416   29.5940 O   0  0  0  0  0  0  0  0  0  0  0  0
    9.4407  -16.7649   28.6320 O   0  0  0  0  0  0  0  0  0  0  0  0
  2  1  1  6
  2  3  1  0
  3  4  1  0
  5  6  1  0
  5  4  1  0
  7  6  1  0
  8  2  1  0
  9  8  2  0
 10  8  1  0
 11 10  1  0
 11 12  1  6
 12 13  1  0
 14 15  1  0
 14 13  1  0
 16 15  1  0
 17 11  1  0
 18 17  2  0
 19 20  1  0
 21 20  1  1
 21 23  1  0
 21 22  1  0
 22 17  1  0
 23 24  1  0
 25 23  2  0
M  END
$$$$
