KKS.pdb
     RDKit          3D

 25 24  0  0  1  0  0  0  0  0999 V2000
    8.1757  -15.2590   18.5274 N   0  0  0  0  0  0  0  0  0  0  0  0
    7.7041  -15.8785   19.6994 C   0  0  1  0  0  0  0  0  0  0  0  0
    7.7761  -17.3887   19.5573 C   0  0  0  0  0  0  0  0  0  0  0  0
    7.3300  -17.9335   18.2559 C   0  0  0  0  0  0  0  0  0  0  0  0
    8.2341  -18.9035   17.5772 C   0  0  0  0  0  0  0  0  0  0  0  0
    7.5734  -19.5086   16.3338 C   0  0  0  0  0  0  0  0  0  0  0  0
    8.4658  -20.4989   15.7188 N   0  0  0  0  0  0  0  0  0  0  0  0
    8.2887  -15.4215   20.9595 C   0  0  0  0  0  0  0  0  0  0  0  0
    9.5502  -15.6187   21.1372 O   0  0  0  0  0  0  0  0  0  0  0  0
    7.5971  -14.7942   21.9775 N   0  0  0  0  0  0  0  0  0  0  0  0
    8.2513  -14.3637   23.2370 C   0  0  1  0  0  0  0  0  0  0  0  0
    7.1899  -13.5561   23.9444 C   0  0  0  0  0  0  0  0  0  0  0  0
    7.5758  -13.0898   25.2954 C   0  0  0  0  0  0  0  0  0  0  0  0
    6.5437  -12.2491   26.0026 C   0  0  0  0  0  0  0  0  0  0  0  0
    6.9148  -11.7497   27.3474 C   0  0  0  0  0  0  0  0  0  0  0  0
    5.9176  -11.0058   28.0538 N   0  0  0  0  0  0  0  0  0  0  0  0
    8.7341  -15.5413   23.9766 C   0  0  0  0  0  0  0  0  0  0  0  0
    7.9413  -16.5308   24.1097 O   0  0  0  0  0  0  0  0  0  0  0  0
   12.4280  -18.3654   25.2141 O   0  0  0  0  0  0  0  0  0  0  0  0
   11.8712  -17.2607   24.6259 C   0  0  0  0  0  0  0  0  0  0  0  0
   10.4991  -16.9109   25.1405 C   0  0  2  0  0  0  0  0  0  0  0  0
    9.9986  -15.6848   24.5531 N   0  0  0  0  0  0  0  0  0  0  0  0
   10.4050  -16.9182   26.6110 C   0  0  0  0  0  0  0  0  0  0  0  0
   10.6646  -18.0653   27.3304 O   0  0  0  0  0  0  0  0  0  0  0  0
   10.0874  -15.8762   27.2185 O   0  0  0  0  0  0  0  0  0  0  0  0
  2  1  1  6
  2  3  1  0
  3  4  1  0
  5  6  1  0
  5  4  1  0
  7  6  1  0
  8  2  1  0
  9  8  2  0
 10  8  1  0
 11 10  1  0
 11 12  1  1
 12 13  1  0
 14 15  1  0
 14 13  1  0
 16 15  1  0
 17 11  1  0
 18 17  2  0
 19 20  1  0
 21 20  1  1
 21 23  1  0
 21 22  1  0
 22 17  1  0
 23 24  1  0
 25 23  2  0
M  END
$$$$
