KMH.pdb
     RDKit          3D

 28 28  0  0  1  0  0  0  0  0999 V2000
   26.8732  -22.4062  -16.2456 N   0  0  0  0  0  0  0  0  0  0  0  0
   25.8373  -23.3479  -15.9379 C   0  0  1  0  0  0  0  0  0  0  0  0
   26.2991  -24.7735  -16.0058 C   0  0  0  0  0  0  0  0  0  0  0  0
   26.2177  -25.3742  -17.3554 C   0  0  0  0  0  0  0  0  0  0  0  0
   25.2300  -26.4827  -17.4958 C   0  0  0  0  0  0  0  0  0  0  0  0
   25.3028  -27.1033  -18.9012 C   0  0  0  0  0  0  0  0  0  0  0  0
   24.4560  -28.2739  -18.8858 N   0  0  0  0  0  0  0  0  0  0  0  0
   25.1744  -23.0649  -14.6244 C   0  0  0  0  0  0  0  0  0  0  0  0
   24.1240  -23.6829  -14.3098 O   0  0  0  0  0  0  0  0  0  0  0  0
   25.9341  -20.2717   -7.2643 C   0  0  0  0  0  0  0  0  0  0  0  0
   26.6408  -20.7685   -8.8362 S   0  0  0  0  0  0  0  0  0  0  0  0
   25.3445  -20.9821  -10.1342 C   0  0  0  0  0  0  0  0  0  0  0  0
   25.9853  -21.4426  -11.4139 C   0  0  0  0  0  0  0  0  0  0  0  0
   24.9579  -21.7671  -12.5161 C   0  0  2  0  0  0  0  0  0  0  0  0
   25.7180  -22.1115  -13.7310 N   0  0  0  0  0  0  0  0  0  0  0  0
   24.1219  -20.5999  -12.7150 C   0  0  0  0  0  0  0  0  0  0  0  0
   24.6387  -19.5842  -13.3098 O   0  0  0  0  0  0  0  0  0  0  0  0
   22.7863  -20.4280  -12.3339 N   0  0  0  0  0  0  0  0  0  0  0  0
   21.7914  -19.9103  -13.2947 C   0  0  1  0  0  0  0  0  0  0  0  0
   21.8532  -20.7274  -14.5662 C   0  0  0  0  0  0  0  0  0  0  0  0
   20.8131  -20.2550  -15.5010 C   0  0  0  0  0  0  0  0  0  0  0  0
   19.8871  -19.2539  -15.3449 C   0  0  0  0  0  0  0  0  0  0  0  0
   19.0994  -19.1784  -16.4569 N   0  0  0  0  0  0  0  0  0  0  0  0
   19.5287  -20.1239  -17.2994 C   0  0  0  0  0  0  0  0  0  0  0  0
   20.5533  -20.7724  -16.7353 N   0  0  0  0  0  0  0  0  0  0  0  0
   20.4770  -20.0913  -12.6629 C   0  0  0  0  0  0  0  0  0  0  0  0
   19.5256  -19.0924  -12.6764 O   0  0  0  0  0  0  0  0  0  0  0  0
   20.2052  -21.1668  -12.0970 O   0  0  0  0  0  0  0  0  0  0  0  0
  2  1  1  1
  2  3  1  0
  3  4  1  0
  4  5  1  0
  5  6  1  0
  7  6  1  0
  8  9  2  0
  8  2  1  0
 11 10  1  0
 11 12  1  0
 12 13  1  0
 14 13  1  1
 14 15  1  0
 15  8  1  0
 16 18  1  0
 16 14  1  0
 17 16  2  0
 19 18  1  0
 19 26  1  0
 19 20  1  6
 21 20  1  0
 22 21  2  0
 23 24  1  0
 23 22  1  0
 24 25  2  0
 25 21  1  0
 26 28  2  0
 26 27  1  0
M  END
$$$$
