KMH.pdb
     RDKit          3D

 28 28  0  0  1  0  0  0  0  0999 V2000
   28.1153  -21.4618  -15.6048 N   0  0  0  0  0  0  0  0  0  0  0  0
   28.0000  -20.6683  -14.4167 C   0  0  1  0  0  0  0  0  0  0  0  0
   28.0975  -19.1949  -14.6817 C   0  0  0  0  0  0  0  0  0  0  0  0
   27.7594  -18.8039  -16.0680 C   0  0  0  0  0  0  0  0  0  0  0  0
   26.7017  -17.7597  -16.1905 C   0  0  0  0  0  0  0  0  0  0  0  0
   26.5070  -17.3506  -17.6603 C   0  0  0  0  0  0  0  0  0  0  0  0
   25.4381  -16.3788  -17.6858 N   0  0  0  0  0  0  0  0  0  0  0  0
   26.7657  -20.9872  -13.6297 C   0  0  0  0  0  0  0  0  0  0  0  0
   25.9065  -21.7728  -14.1081 O   0  0  0  0  0  0  0  0  0  0  0  0
   28.5113  -20.2915   -7.0423 C   0  0  0  0  0  0  0  0  0  0  0  0
   26.9267  -19.9538   -7.8117 S   0  0  0  0  0  0  0  0  0  0  0  0
   26.8005  -20.7206   -9.4871 C   0  0  0  0  0  0  0  0  0  0  0  0
   25.5346  -20.2619  -10.1561 C   0  0  0  0  0  0  0  0  0  0  0  0
   25.3695  -20.8284  -11.5800 C   0  0  2  0  0  0  0  0  0  0  0  0
   26.5557  -20.4167  -12.3517 N   0  0  0  0  0  0  0  0  0  0  0  0
   24.1462  -20.2918  -12.1428 C   0  0  0  0  0  0  0  0  0  0  0  0
   24.2478  -19.4367  -13.0972 O   0  0  0  0  0  0  0  0  0  0  0  0
   22.8300  -20.5913  -11.7733 N   0  0  0  0  0  0  0  0  0  0  0  0
   21.7960  -20.8263  -12.8013 C   0  0  1  0  0  0  0  0  0  0  0  0
   22.1704  -22.0441  -13.6166 C   0  0  0  0  0  0  0  0  0  0  0  0
   22.4942  -21.6278  -14.9952 C   0  0  0  0  0  0  0  0  0  0  0  0
   22.3962  -20.3900  -15.5804 C   0  0  0  0  0  0  0  0  0  0  0  0
   22.7769  -20.4682  -16.8886 N   0  0  0  0  0  0  0  0  0  0  0  0
   23.1089  -21.7428  -17.1190 C   0  0  0  0  0  0  0  0  0  0  0  0
   22.9427  -22.4431  -15.9917 N   0  0  0  0  0  0  0  0  0  0  0  0
   20.5468  -21.0920  -12.0743 C   0  0  0  0  0  0  0  0  0  0  0  0
   19.3451  -20.5507  -12.4819 O   0  0  0  0  0  0  0  0  0  0  0  0
   20.5615  -21.8197  -11.0638 O   0  0  0  0  0  0  0  0  0  0  0  0
  2  1  1  6
  2  3  1  0
  3  4  1  0
  4  5  1  0
  5  6  1  0
  7  6  1  0
  8  9  2  0
  8  2  1  0
 11 10  1  0
 11 12  1  0
 12 13  1  0
 14 13  1  1
 14 15  1  0
 15  8  1  0
 16 18  1  0
 16 14  1  0
 17 16  2  0
 19 18  1  0
 19 26  1  0
 19 20  1  1
 21 20  1  0
 22 21  2  0
 23 24  1  0
 23 22  1  0
 24 25  2  0
 25 21  1  0
 26 28  2  0
 26 27  1  0
M  END
$$$$
