KMH.pdb
     RDKit          3D

 28 28  0  0  1  0  0  0  0  0999 V2000
   27.1817  -22.9933  -18.4185 N   0  0  0  0  0  0  0  0  0  0  0  0
   27.1090  -23.4044  -17.0472 C   0  0  1  0  0  0  0  0  0  0  0  0
   28.4014  -23.9654  -16.5321 C   0  0  0  0  0  0  0  0  0  0  0  0
   28.8683  -25.1719  -17.2500 C   0  0  0  0  0  0  0  0  0  0  0  0
   28.3857  -26.4672  -16.6903 C   0  0  0  0  0  0  0  0  0  0  0  0
   28.9121  -27.6500  -17.5207 C   0  0  0  0  0  0  0  0  0  0  0  0
   28.3869  -28.8524  -16.9157 N   0  0  0  0  0  0  0  0  0  0  0  0
   26.6036  -22.3184  -16.1472 C   0  0  0  0  0  0  0  0  0  0  0  0
   26.5521  -22.5116  -14.9046 O   0  0  0  0  0  0  0  0  0  0  0  0
   27.2487  -15.7344  -16.0698 C   0  0  0  0  0  0  0  0  0  0  0  0
   28.4498  -17.0317  -16.3724 S   0  0  0  0  0  0  0  0  0  0  0  0
   27.7825  -18.6987  -15.9403 C   0  0  0  0  0  0  0  0  0  0  0  0
   26.2926  -18.7115  -16.1413 C   0  0  0  0  0  0  0  0  0  0  0  0
   25.6474  -20.0578  -15.7581 C   0  0  2  0  0  0  0  0  0  0  0  0
   26.1856  -21.0753  -16.6787 N   0  0  0  0  0  0  0  0  0  0  0  0
   24.2095  -19.9236  -15.8826 C   0  0  0  0  0  0  0  0  0  0  0  0
   23.6988  -19.9922  -17.0602 O   0  0  0  0  0  0  0  0  0  0  0  0
   23.2763  -19.7237  -14.8590 N   0  0  0  0  0  0  0  0  0  0  0  0
   21.8326  -19.6526  -15.1619 C   0  0  1  0  0  0  0  0  0  0  0  0
   21.3773  -20.9757  -15.7366 C   0  0  0  0  0  0  0  0  0  0  0  0
   19.9427  -20.8935  -16.0739 C   0  0  0  0  0  0  0  0  0  0  0  0
   19.3255  -20.2496  -17.1174 C   0  0  0  0  0  0  0  0  0  0  0  0
   17.9739  -20.4144  -17.0249 N   0  0  0  0  0  0  0  0  0  0  0  0
   17.7486  -21.1535  -15.9336 C   0  0  0  0  0  0  0  0  0  0  0  0
   18.9207  -21.4443  -15.3590 N   0  0  0  0  0  0  0  0  0  0  0  0
   21.1545  -19.4196  -13.8791 C   0  0  0  0  0  0  0  0  0  0  0  0
   19.8123  -19.1067  -13.8182 O   0  0  0  0  0  0  0  0  0  0  0  0
   21.7971  -19.5016  -12.8155 O   0  0  0  0  0  0  0  0  0  0  0  0
  2  1  1  6
  2  3  1  0
  3  4  1  0
  4  5  1  0
  5  6  1  0
  7  6  1  0
  8  9  2  0
  8  2  1  0
 11 10  1  0
 11 12  1  0
 12 13  1  0
 14 13  1  6
 14 15  1  0
 15  8  1  0
 16 18  1  0
 16 14  1  0
 17 16  2  0
 19 18  1  0
 19 26  1  0
 19 20  1  1
 21 20  1  0
 22 21  2  0
 23 24  1  0
 23 22  1  0
 24 25  2  0
 25 21  1  0
 26 28  2  0
 26 27  1  0
M  END
$$$$
