KMH.pdb
     RDKit          3D

 28 28  0  0  1  0  0  0  0  0999 V2000
   26.0156  -20.2955  -17.5528 N   0  0  0  0  0  0  0  0  0  0  0  0
   24.7795  -20.2477  -16.8287 C   0  0  1  0  0  0  0  0  0  0  0  0
   24.5383  -21.4715  -15.9953 C   0  0  0  0  0  0  0  0  0  0  0  0
   24.9709  -22.7347  -16.6326 C   0  0  0  0  0  0  0  0  0  0  0  0
   24.5031  -23.9778  -15.9543 C   0  0  0  0  0  0  0  0  0  0  0  0
   25.0090  -25.2268  -16.6956 C   0  0  0  0  0  0  0  0  0  0  0  0
   24.4933  -26.3733  -15.9834 N   0  0  0  0  0  0  0  0  0  0  0  0
   24.6449  -19.0055  -16.0020 C   0  0  0  0  0  0  0  0  0  0  0  0
   25.2871  -18.9005  -14.9246 O   0  0  0  0  0  0  0  0  0  0  0  0
   27.6693  -12.6102  -15.0695 C   0  0  0  0  0  0  0  0  0  0  0  0
   27.3194  -14.2334  -15.7478 S   0  0  0  0  0  0  0  0  0  0  0  0
   25.6052  -14.7902  -15.3447 C   0  0  0  0  0  0  0  0  0  0  0  0
   25.3599  -16.1430  -15.9530 C   0  0  0  0  0  0  0  0  0  0  0  0
   23.9177  -16.6436  -15.7403 C   0  0  2  0  0  0  0  0  0  0  0  0
   23.8050  -17.9462  -16.4205 N   0  0  0  0  0  0  0  0  0  0  0  0
   23.0095  -15.6620  -16.2996 C   0  0  0  0  0  0  0  0  0  0  0  0
   23.0386  -15.4712  -17.5705 O   0  0  0  0  0  0  0  0  0  0  0  0
   22.0773  -14.8714  -15.6181 N   0  0  0  0  0  0  0  0  0  0  0  0
   21.1434  -14.0019  -16.3615 C   0  0  1  0  0  0  0  0  0  0  0  0
   19.9827  -13.6336  -15.4641 C   0  0  0  0  0  0  0  0  0  0  0  0
   19.0983  -12.6882  -16.1733 C   0  0  0  0  0  0  0  0  0  0  0  0
   19.1865  -12.2012  -17.4536 C   0  0  0  0  0  0  0  0  0  0  0  0
   18.1661  -11.3248  -17.6838 N   0  0  0  0  0  0  0  0  0  0  0  0
   17.4475  -11.2640  -16.5579 C   0  0  0  0  0  0  0  0  0  0  0  0
   17.9982  -12.0765  -15.6494 N   0  0  0  0  0  0  0  0  0  0  0  0
   21.8973  -12.7882  -16.7053 C   0  0  0  0  0  0  0  0  0  0  0  0
   21.7261  -12.1508  -17.9167 O   0  0  0  0  0  0  0  0  0  0  0  0
   22.7145  -12.3162  -15.8928 O   0  0  0  0  0  0  0  0  0  0  0  0
  2  1  1  1
  2  3  1  0
  3  4  1  0
  4  5  1  0
  5  6  1  0
  7  6  1  0
  8  9  2  0
  8  2  1  0
 11 10  1  0
 11 12  1  0
 12 13  1  0
 14 13  1  6
 14 15  1  0
 15  8  1  0
 16 18  1  0
 16 14  1  0
 17 16  2  0
 19 18  1  0
 19 26  1  0
 19 20  1  1
 21 20  1  0
 22 21  2  0
 23 24  1  0
 23 22  1  0
 24 25  2  0
 25 21  1  0
 26 28  2  0
 26 27  1  0
M  END
$$$$
