KMH.pdb
     RDKit          3D

 28 28  0  0  1  0  0  0  0  0999 V2000
   28.3246  -35.5699   -7.0865 N   0  0  0  0  0  0  0  0  0  0  0  0
   28.4585  -34.5460   -6.0924 C   0  0  1  0  0  0  0  0  0  0  0  0
   27.6628  -33.3137   -6.4064 C   0  0  0  0  0  0  0  0  0  0  0  0
   26.4902  -33.5536   -7.2762 C   0  0  0  0  0  0  0  0  0  0  0  0
   25.6844  -32.3412   -7.6001 C   0  0  0  0  0  0  0  0  0  0  0  0
   24.4392  -32.7173   -8.4209 C   0  0  0  0  0  0  0  0  0  0  0  0
   23.7556  -31.4833   -8.7329 N   0  0  0  0  0  0  0  0  0  0  0  0
   28.1512  -35.0409   -4.7121 C   0  0  0  0  0  0  0  0  0  0  0  0
   27.0127  -35.5136   -4.4579 O   0  0  0  0  0  0  0  0  0  0  0  0
   32.2002  -37.0817    0.4912 C   0  0  0  0  0  0  0  0  0  0  0  0
   32.3490  -37.4028   -1.2672 S   0  0  0  0  0  0  0  0  0  0  0  0
   30.7546  -37.1159   -2.1541 C   0  0  0  0  0  0  0  0  0  0  0  0
   30.1201  -35.8492   -1.6509 C   0  0  0  0  0  0  0  0  0  0  0  0
   28.7910  -35.5218   -2.3593 C   0  0  2  0  0  0  0  0  0  0  0  0
   29.1284  -34.9855   -3.6900 N   0  0  0  0  0  0  0  0  0  0  0  0
   28.0735  -34.5540   -1.5533 C   0  0  0  0  0  0  0  0  0  0  0  0
   28.3482  -33.3096   -1.7214 O   0  0  0  0  0  0  0  0  0  0  0  0
   27.0917  -34.8035   -0.5877 N   0  0  0  0  0  0  0  0  0  0  0  0
   26.5036  -33.6941    0.1899 C   0  0  1  0  0  0  0  0  0  0  0  0
   25.0557  -33.5165   -0.2104 C   0  0  0  0  0  0  0  0  0  0  0  0
   24.4379  -32.4801    0.6398 C   0  0  0  0  0  0  0  0  0  0  0  0
   25.0015  -31.3641    1.2065 C   0  0  0  0  0  0  0  0  0  0  0  0
   24.0643  -30.6984    1.9421 N   0  0  0  0  0  0  0  0  0  0  0  0
   22.9261  -31.3923    1.8368 C   0  0  0  0  0  0  0  0  0  0  0  0
   23.1410  -32.4594    1.0597 N   0  0  0  0  0  0  0  0  0  0  0  0
   26.5727  -34.0994    1.6008 C   0  0  0  0  0  0  0  0  0  0  0  0
   26.2249  -33.2351    2.6182 O   0  0  0  0  0  0  0  0  0  0  0  0
   26.9549  -35.2470    1.8971 O   0  0  0  0  0  0  0  0  0  0  0  0
  2  1  1  6
  2  3  1  0
  3  4  1  0
  4  5  1  0
  5  6  1  0
  7  6  1  0
  8  9  2  0
  8  2  1  0
 11 10  1  0
 11 12  1  0
 12 13  1  0
 14 13  1  1
 14 15  1  0
 15  8  1  0
 16 18  1  0
 16 14  1  0
 17 16  2  0
 19 18  1  0
 19 26  1  0
 19 20  1  6
 21 20  1  0
 22 21  2  0
 23 24  1  0
 23 22  1  0
 24 25  2  0
 25 21  1  0
 26 28  2  0
 26 27  1  0
M  END
$$$$
