KMH.pdb
     RDKit          3D

 28 28  0  0  1  0  0  0  0  0999 V2000
   20.3066  -14.3126  -19.7613 N   0  0  0  0  0  0  0  0  0  0  0  0
   19.4956  -13.1440  -19.5841 C   0  0  1  0  0  0  0  0  0  0  0  0
   18.2138  -13.4225  -18.8564 C   0  0  0  0  0  0  0  0  0  0  0  0
   17.4034  -14.5095  -19.4486 C   0  0  0  0  0  0  0  0  0  0  0  0
   16.9284  -15.5422  -18.4831 C   0  0  0  0  0  0  0  0  0  0  0  0
   16.1383  -16.6445  -19.2086 C   0  0  0  0  0  0  0  0  0  0  0  0
   15.6642  -17.5565  -18.1932 N   0  0  0  0  0  0  0  0  0  0  0  0
   20.2424  -12.0186  -18.9357 C   0  0  0  0  0  0  0  0  0  0  0  0
   21.0737  -12.2654  -18.0233 O   0  0  0  0  0  0  0  0  0  0  0  0
   20.4690   -5.7700  -21.3088 C   0  0  0  0  0  0  0  0  0  0  0  0
   22.0615   -6.0968  -20.5511 S   0  0  0  0  0  0  0  0  0  0  0  0
   21.9514   -7.4187  -19.2660 C   0  0  0  0  0  0  0  0  0  0  0  0
   21.0649   -8.5279  -19.7603 C   0  0  0  0  0  0  0  0  0  0  0  0
   20.8086   -9.6110  -18.6940 C   0  0  2  0  0  0  0  0  0  0  0  0
   20.0257  -10.6798  -19.3397 N   0  0  0  0  0  0  0  0  0  0  0  0
   20.0873   -9.0027  -17.5937 C   0  0  0  0  0  0  0  0  0  0  0  0
   18.8876   -8.5962  -17.8126 O   0  0  0  0  0  0  0  0  0  0  0  0
   20.5381   -8.7940  -16.2853 N   0  0  0  0  0  0  0  0  0  0  0  0
   19.6657   -8.1478  -15.2841 C   0  0  1  0  0  0  0  0  0  0  0  0
   19.5128   -9.0635  -14.0899 C   0  0  0  0  0  0  0  0  0  0  0  0
   18.5707  -10.1493  -14.4249 C   0  0  0  0  0  0  0  0  0  0  0  0
   17.8727  -10.3740  -15.5853 C   0  0  0  0  0  0  0  0  0  0  0  0
   17.0925  -11.4849  -15.4452 N   0  0  0  0  0  0  0  0  0  0  0  0
   17.3005  -11.9496  -14.2087 C   0  0  0  0  0  0  0  0  0  0  0  0
   18.1832  -11.1566  -13.5918 N   0  0  0  0  0  0  0  0  0  0  0  0
   20.3560   -6.9183  -14.8699 C   0  0  0  0  0  0  0  0  0  0  0  0
   19.8168   -6.0710  -13.9242 O   0  0  0  0  0  0  0  0  0  0  0  0
   21.4533   -6.6230  -15.3795 O   0  0  0  0  0  0  0  0  0  0  0  0
  2  1  1  1
  2  3  1  0
  3  4  1  0
  4  5  1  0
  5  6  1  0
  7  6  1  0
  8  9  2  0
  8  2  1  0
 11 10  1  0
 11 12  1  0
 12 13  1  0
 14 13  1  6
 14 15  1  0
 15  8  1  0
 16 18  1  0
 16 14  1  0
 17 16  2  0
 19 18  1  0
 19 26  1  0
 19 20  1  1
 21 20  1  0
 22 21  2  0
 23 24  1  0
 23 22  1  0
 24 25  2  0
 25 21  1  0
 26 28  2  0
 26 27  1  0
M  END
$$$$
