KMH.pdb
     RDKit          3D

 28 28  0  0  1  0  0  0  0  0999 V2000
   32.8539  -30.4082  -16.6340 N   0  0  0  0  0  0  0  0  0  0  0  0
   34.1337  -30.8321  -17.1209 C   0  0  1  0  0  0  0  0  0  0  0  0
   35.1730  -29.7520  -17.0609 C   0  0  0  0  0  0  0  0  0  0  0  0
   34.6930  -28.4229  -17.4990 C   0  0  0  0  0  0  0  0  0  0  0  0
   34.9498  -28.0983  -18.9317 C   0  0  0  0  0  0  0  0  0  0  0  0
   34.4016  -26.7046  -19.2819 C   0  0  0  0  0  0  0  0  0  0  0  0
   34.6181  -26.5136  -20.6976 N   0  0  0  0  0  0  0  0  0  0  0  0
   34.6213  -32.0783  -16.4471 C   0  0  0  0  0  0  0  0  0  0  0  0
   35.7586  -32.5369  -16.7312 O   0  0  0  0  0  0  0  0  0  0  0  0
   37.3097  -33.1622  -10.5687 C   0  0  0  0  0  0  0  0  0  0  0  0
   35.9287  -34.0266  -11.3188 S   0  0  0  0  0  0  0  0  0  0  0  0
   35.1402  -33.0283  -12.6576 C   0  0  0  0  0  0  0  0  0  0  0  0
   34.0940  -33.8553  -13.3518 C   0  0  0  0  0  0  0  0  0  0  0  0
   34.3354  -33.9769  -14.8693 C   0  0  2  0  0  0  0  0  0  0  0  0
   33.8181  -32.7451  -15.4917 N   0  0  0  0  0  0  0  0  0  0  0  0
   33.6401  -35.1559  -15.3463 C   0  0  0  0  0  0  0  0  0  0  0  0
   32.3979  -35.2857  -15.0424 O   0  0  0  0  0  0  0  0  0  0  0  0
   34.1585  -36.2026  -16.1173 N   0  0  0  0  0  0  0  0  0  0  0  0
   33.3074  -37.3475  -16.4991 C   0  0  1  0  0  0  0  0  0  0  0  0
   32.1933  -36.8627  -17.4002 C   0  0  0  0  0  0  0  0  0  0  0  0
   31.3843  -38.0164  -17.8399 C   0  0  0  0  0  0  0  0  0  0  0  0
   31.2264  -39.2475  -17.2537 C   0  0  0  0  0  0  0  0  0  0  0  0
   30.4054  -40.0210  -18.0220 N   0  0  0  0  0  0  0  0  0  0  0  0
   30.0542  -39.2805  -19.0786 C   0  0  0  0  0  0  0  0  0  0  0  0
   30.6354  -38.0802  -18.9774 N   0  0  0  0  0  0  0  0  0  0  0  0
   34.1720  -38.2709  -17.2472 C   0  0  0  0  0  0  0  0  0  0  0  0
   35.3227  -37.8365  -17.8718 O   0  0  0  0  0  0  0  0  0  0  0  0
   33.8674  -39.4757  -17.3278 O   0  0  0  0  0  0  0  0  0  0  0  0
  2  1  1  1
  2  3  1  0
  3  4  1  0
  4  5  1  0
  5  6  1  0
  7  6  1  0
  8  9  2  0
  8  2  1  0
 11 10  1  0
 11 12  1  0
 12 13  1  0
 14 13  1  1
 14 15  1  0
 15  8  1  0
 16 18  1  0
 16 14  1  0
 17 16  2  0
 19 18  1  0
 19 26  1  0
 19 20  1  6
 21 20  1  0
 22 21  2  0
 23 24  1  0
 23 22  1  0
 24 25  2  0
 25 21  1  0
 26 28  2  0
 26 27  1  0
M  END
$$$$
