KMH.pdb
     RDKit          3D

 28 28  0  0  1  0  0  0  0  0999 V2000
   27.7304  -17.3836  -14.8698 N   0  0  0  0  0  0  0  0  0  0  0  0
   27.3540  -18.4832  -15.7086 C   0  0  1  0  0  0  0  0  0  0  0  0
   28.5056  -19.0536  -16.4825 C   0  0  0  0  0  0  0  0  0  0  0  0
   29.3036  -18.0455  -17.2145 C   0  0  0  0  0  0  0  0  0  0  0  0
   29.1321  -18.0573  -18.6960 C   0  0  0  0  0  0  0  0  0  0  0  0
   30.0061  -16.9766  -19.3547 C   0  0  0  0  0  0  0  0  0  0  0  0
   29.7270  -17.0195  -20.7717 N   0  0  0  0  0  0  0  0  0  0  0  0
   26.6327  -19.5597  -14.9565 C   0  0  0  0  0  0  0  0  0  0  0  0
   26.2878  -20.6132  -15.5526 O   0  0  0  0  0  0  0  0  0  0  0  0
   26.9471  -20.3477   -8.5437 C   0  0  0  0  0  0  0  0  0  0  0  0
   25.3050  -21.0248   -8.7927 S   0  0  0  0  0  0  0  0  0  0  0  0
   24.9169  -21.2413  -10.5853 C   0  0  0  0  0  0  0  0  0  0  0  0
   25.7434  -20.2837  -11.3980 C   0  0  0  0  0  0  0  0  0  0  0  0
   25.5183  -20.4355  -12.9152 C   0  0  2  0  0  0  0  0  0  0  0  0
   26.3369  -19.4066  -13.5811 N   0  0  0  0  0  0  0  0  0  0  0  0
   24.1050  -20.2585  -13.1842 C   0  0  0  0  0  0  0  0  0  0  0  0
   23.5773  -19.1203  -12.9039 O   0  0  0  0  0  0  0  0  0  0  0  0
   23.2128  -21.1911  -13.7253 N   0  0  0  0  0  0  0  0  0  0  0  0
   21.8056  -20.8236  -13.9818 C   0  0  1  0  0  0  0  0  0  0  0  0
   21.2590  -21.6881  -15.0962 C   0  0  0  0  0  0  0  0  0  0  0  0
   19.8515  -21.3237  -15.3510 C   0  0  0  0  0  0  0  0  0  0  0  0
   19.0919  -20.3262  -14.7924 C   0  0  0  0  0  0  0  0  0  0  0  0
   17.8272  -20.3701  -15.3033 N   0  0  0  0  0  0  0  0  0  0  0  0
   17.7965  -21.3859  -16.1723 C   0  0  0  0  0  0  0  0  0  0  0  0
   19.0032  -21.9615  -16.2069 N   0  0  0  0  0  0  0  0  0  0  0  0
   21.0734  -21.1091  -12.7400 C   0  0  0  0  0  0  0  0  0  0  0  0
   20.0713  -20.2773  -12.2850 O   0  0  0  0  0  0  0  0  0  0  0  0
   21.3571  -22.1219  -12.0732 O   0  0  0  0  0  0  0  0  0  0  0  0
  2  1  1  1
  2  3  1  0
  3  4  1  0
  4  5  1  0
  5  6  1  0
  7  6  1  0
  8  9  2  0
  8  2  1  0
 11 10  1  0
 11 12  1  0
 12 13  1  0
 14 13  1  1
 14 15  1  0
 15  8  1  0
 16 18  1  0
 16 14  1  0
 17 16  2  0
 19 18  1  0
 19 26  1  0
 19 20  1  6
 21 20  1  0
 22 21  2  0
 23 24  1  0
 23 22  1  0
 24 25  2  0
 25 21  1  0
 26 28  2  0
 26 27  1  0
M  END
$$$$
