TTV.pdb
     RDKit          3D

 22 21  0  0  1  0  0  0  0  0999 V2000
   12.2485  -19.7014   21.6677 C   0  0  0  0  0  0  0  0  0  0  0  0
   11.6551  -18.4789   22.3148 C   0  0  1  0  0  0  0  0  0  0  0  0
   12.3843  -18.0807   23.4331 O   0  0  0  0  0  0  0  0  0  0  0  0
   11.5056  -17.3664   21.3142 C   0  0  2  0  0  0  0  0  0  0  0  0
   12.8031  -17.0330   20.7795 N   0  0  0  0  0  0  0  0  0  0  0  0
   10.7915  -16.1911   21.8528 C   0  0  0  0  0  0  0  0  0  0  0  0
   11.4495  -15.2188   22.2553 O   0  0  0  0  0  0  0  0  0  0  0  0
    7.5046  -14.2236   20.4272 C   0  0  0  0  0  0  0  0  0  0  0  0
    7.3368  -14.7382   21.8317 C   0  0  1  0  0  0  0  0  0  0  0  0
    6.5061  -15.8564   21.8683 O   0  0  0  0  0  0  0  0  0  0  0  0
    8.6556  -15.0232   22.5111 C   0  0  2  0  0  0  0  0  0  0  0  0
    9.3673  -16.1154   21.9351 N   0  0  0  0  0  0  0  0  0  0  0  0
    8.4670  -15.1280   23.9692 C   0  0  0  0  0  0  0  0  0  0  0  0
    8.8071  -16.2045   24.5213 O   0  0  0  0  0  0  0  0  0  0  0  0
    5.6941  -12.8451   26.2249 C   0  0  0  0  0  0  0  0  0  0  0  0
    7.0641  -13.0408   26.8408 C   0  0  2  0  0  0  0  0  0  0  0  0
    7.8598  -11.7995   26.6072 C   0  0  0  0  0  0  0  0  0  0  0  0
    7.6714  -14.2723   26.2120 C   0  0  2  0  0  0  0  0  0  0  0  0
    7.9323  -14.1131   24.8055 N   0  0  0  0  0  0  0  0  0  0  0  0
    6.7518  -15.4161   26.4217 C   0  0  0  0  0  0  0  0  0  0  0  0
    6.0311  -15.8052   25.4765 O   0  0  0  0  0  0  0  0  0  0  0  0
    6.6475  -16.0849   27.6246 O   0  0  0  0  0  0  0  0  0  0  0  0
  2  1  1  6
  2  3  1  0
  4  2  1  0
  4  5  1  1
  6  4  1  0
  6 12  1  0
  7  6  2  0
  9  8  1  6
  9 11  1  0
 10  9  1  0
 11 12  1  6
 11 13  1  0
 13 19  1  0
 13 14  2  0
 16 15  1  6
 17 16  1  0
 18 16  1  0
 18 20  1  0
 18 19  1  6
 20 22  1  0
 21 20  2  0
M  END
$$$$
