TTV.pdb
     RDKit          3D

 22 21  0  0  1  0  0  0  0  0999 V2000
   12.0871  -17.3706   22.2356 C   0  0  0  0  0  0  0  0  0  0  0  0
   12.1516  -16.9765   20.7844 C   0  0  1  0  0  0  0  0  0  0  0  0
   13.0097  -17.8029   20.0622 O   0  0  0  0  0  0  0  0  0  0  0  0
   10.7740  -16.9316   20.1832 C   0  0  2  0  0  0  0  0  0  0  0  0
   10.8835  -16.6801   18.7670 N   0  0  0  0  0  0  0  0  0  0  0  0
    9.8726  -15.9798   20.8635 C   0  0  0  0  0  0  0  0  0  0  0  0
    9.9330  -14.7761   20.5672 O   0  0  0  0  0  0  0  0  0  0  0  0
    6.0237  -15.9492   21.0315 C   0  0  0  0  0  0  0  0  0  0  0  0
    6.5762  -15.9517   22.4317 C   0  0  1  0  0  0  0  0  0  0  0  0
    6.4290  -17.1993   23.0348 O   0  0  0  0  0  0  0  0  0  0  0  0
    8.0127  -15.4883   22.4940 C   0  0  2  0  0  0  0  0  0  0  0  0
    8.9250  -16.3780   21.8557 N   0  0  0  0  0  0  0  0  0  0  0  0
    8.3779  -15.1412   23.8791 C   0  0  0  0  0  0  0  0  0  0  0  0
    9.2961  -15.8073   24.4202 O   0  0  0  0  0  0  0  0  0  0  0  0
    5.9279  -12.8953   26.5001 C   0  0  0  0  0  0  0  0  0  0  0  0
    7.4131  -12.6038   26.5609 C   0  0  2  0  0  0  0  0  0  0  0  0
    7.6738  -11.3571   25.7823 C   0  0  0  0  0  0  0  0  0  0  0  0
    8.1347  -13.8144   26.0182 C   0  0  2  0  0  0  0  0  0  0  0  0
    7.7790  -14.1153   24.6564 N   0  0  0  0  0  0  0  0  0  0  0  0
    7.8266  -14.9788   26.8824 C   0  0  0  0  0  0  0  0  0  0  0  0
    6.9676  -15.8084   26.5109 O   0  0  0  0  0  0  0  0  0  0  0  0
    8.4479  -15.1990   28.0952 O   0  0  0  0  0  0  0  0  0  0  0  0
  2  1  1  1
  2  3  1  0
  4  2  1  0
  4  5  1  6
  6  4  1  0
  6 12  1  0
  7  6  2  0
  9  8  1  6
  9 11  1  0
 10  9  1  0
 11 12  1  1
 11 13  1  0
 13 19  1  0
 13 14  2  0
 16 15  1  6
 17 16  1  0
 18 16  1  0
 18 20  1  0
 18 19  1  6
 20 22  1  0
 21 20  2  0
M  END
$$$$
