TTV.pdb
     RDKit          3D

 22 21  0  0  1  0  0  0  0  0999 V2000
   13.9360  -16.9304   22.3360 C   0  0  0  0  0  0  0  0  0  0  0  0
   13.3882  -16.4536   21.0177 C   0  0  1  0  0  0  0  0  0  0  0  0
   14.2308  -16.7837   19.9583 O   0  0  0  0  0  0  0  0  0  0  0  0
   11.9900  -16.9647   20.8060 C   0  0  2  0  0  0  0  0  0  0  0  0
   11.5764  -16.6670   19.4565 N   0  0  0  0  0  0  0  0  0  0  0  0
   11.0317  -16.4747   21.8174 C   0  0  0  0  0  0  0  0  0  0  0  0
   10.4279  -15.4105   21.6094 O   0  0  0  0  0  0  0  0  0  0  0  0
    7.7255  -17.4349   23.0004 C   0  0  0  0  0  0  0  0  0  0  0  0
    8.6291  -17.5235   24.2010 C   0  0  1  0  0  0  0  0  0  0  0  0
    8.9412  -18.8467   24.5066 O   0  0  0  0  0  0  0  0  0  0  0  0
    9.8827  -16.6940   24.0514 C   0  0  2  0  0  0  0  0  0  0  0  0
   10.7615  -17.1704   23.0355 N   0  0  0  0  0  0  0  0  0  0  0  0
   10.5262  -16.4995   25.3632 C   0  0  0  0  0  0  0  0  0  0  0  0
   11.5842  -17.1389   25.5897 O   0  0  0  0  0  0  0  0  0  0  0  0
    8.7628  -14.3793   28.6480 C   0  0  0  0  0  0  0  0  0  0  0  0
   10.2449  -14.2137   28.3827 C   0  0  2  0  0  0  0  0  0  0  0  0
   10.4392  -12.9560   27.6023 C   0  0  0  0  0  0  0  0  0  0  0  0
   10.7159  -15.4514   27.6568 C   0  0  2  0  0  0  0  0  0  0  0  0
   10.0511  -15.6488   26.3955 N   0  0  0  0  0  0  0  0  0  0  0  0
   10.4900  -16.6290   28.5285 C   0  0  0  0  0  0  0  0  0  0  0  0
   11.1227  -16.7276   29.6028 O   0  0  0  0  0  0  0  0  0  0  0  0
    9.6037  -17.6387   28.2118 O   0  0  0  0  0  0  0  0  0  0  0  0
  2  1  1  1
  2  3  1  0
  4  2  1  0
  4  5  1  6
  6  4  1  0
  6 12  1  0
  7  6  2  0
  9  8  1  6
  9 11  1  0
 10  9  1  0
 11 12  1  6
 11 13  1  0
 13 19  1  0
 13 14  2  0
 16 15  1  6
 17 16  1  0
 18 16  1  0
 18 20  1  0
 18 19  1  6
 20 22  1  0
 21 20  2  0
M  END
$$$$
