TTV.pdb
     RDKit          3D

 22 21  0  0  1  0  0  0  0  0999 V2000
    8.7480  -12.4286   19.5532 C   0  0  0  0  0  0  0  0  0  0  0  0
    8.3420  -13.4467   18.5216 C   0  0  1  0  0  0  0  0  0  0  0  0
    9.0138  -13.2568   17.3160 O   0  0  0  0  0  0  0  0  0  0  0  0
    8.5200  -14.8423   19.0522 C   0  0  2  0  0  0  0  0  0  0  0  0
    8.1736  -15.7889   18.0203 N   0  0  0  0  0  0  0  0  0  0  0  0
    7.7918  -15.0827   20.3144 C   0  0  0  0  0  0  0  0  0  0  0  0
    6.5759  -15.3277   20.2710 O   0  0  0  0  0  0  0  0  0  0  0  0
    6.8536  -17.5569   21.8997 C   0  0  0  0  0  0  0  0  0  0  0  0
    7.6395  -16.9012   23.0033 C   0  0  1  0  0  0  0  0  0  0  0  0
    8.8872  -17.5003   23.1651 O   0  0  0  0  0  0  0  0  0  0  0  0
    7.7780  -15.4087   22.8150 C   0  0  2  0  0  0  0  0  0  0  0  0
    8.4219  -15.0470   21.5960 N   0  0  0  0  0  0  0  0  0  0  0  0
    8.3722  -14.7951   24.0162 C   0  0  0  0  0  0  0  0  0  0  0  0
    9.6224  -14.6703   24.0447 O   0  0  0  0  0  0  0  0  0  0  0  0
    6.0302  -13.3435   27.2415 C   0  0  0  0  0  0  0  0  0  0  0  0
    7.3284  -12.6403   26.9028 C   0  0  2  0  0  0  0  0  0  0  0  0
    7.0130  -11.4903   26.0046 C   0  0  0  0  0  0  0  0  0  0  0  0
    8.2457  -13.6617   26.2734 C   0  0  2  0  0  0  0  0  0  0  0  0
    7.6502  -14.3315   25.1471 N   0  0  0  0  0  0  0  0  0  0  0  0
    8.6246  -14.6590   27.3027 C   0  0  0  0  0  0  0  0  0  0  0  0
    8.2244  -15.8386   27.1908 O   0  0  0  0  0  0  0  0  0  0  0  0
    9.4083  -14.3491   28.3958 O   0  0  0  0  0  0  0  0  0  0  0  0
  2  1  1  1
  2  3  1  0
  4  2  1  0
  4  5  1  6
  6  4  1  0
  6 12  1  0
  7  6  2  0
  9  8  1  6
  9 11  1  0
 10  9  1  0
 11 12  1  6
 11 13  1  0
 13 19  1  0
 13 14  2  0
 16 15  1  6
 17 16  1  0
 18 16  1  0
 18 20  1  0
 18 19  1  6
 20 22  1  0
 21 20  2  0
M  END
$$$$
