TTV.pdb
     RDKit          3D

 22 21  0  0  1  0  0  0  0  0999 V2000
   12.3287  -16.7591   21.7601 C   0  0  0  0  0  0  0  0  0  0  0  0
   12.2112  -16.6285   20.2652 C   0  0  1  0  0  0  0  0  0  0  0  0
   13.1555  -17.4097   19.6026 O   0  0  0  0  0  0  0  0  0  0  0  0
   10.8101  -16.9334   19.8126 C   0  0  2  0  0  0  0  0  0  0  0  0
   10.7546  -16.8755   18.3724 N   0  0  0  0  0  0  0  0  0  0  0  0
    9.7913  -16.0803   20.4574 C   0  0  0  0  0  0  0  0  0  0  0  0
    9.5901  -14.9401   20.0104 O   0  0  0  0  0  0  0  0  0  0  0  0
    6.0696  -16.7297   20.8739 C   0  0  0  0  0  0  0  0  0  0  0  0
    6.6515  -16.4595   22.2356 C   0  0  1  0  0  0  0  0  0  0  0  0
    6.7609  -17.6299   22.9837 O   0  0  0  0  0  0  0  0  0  0  0  0
    7.9750  -15.7339   22.1721 C   0  0  2  0  0  0  0  0  0  0  0  0
    9.0179  -16.5048   21.5809 N   0  0  0  0  0  0  0  0  0  0  0  0
    8.3137  -15.1727   23.4922 C   0  0  0  0  0  0  0  0  0  0  0  0
    9.3758  -15.5689   24.0347 O   0  0  0  0  0  0  0  0  0  0  0  0
    7.5519  -11.9452   27.1829 C   0  0  0  0  0  0  0  0  0  0  0  0
    6.9623  -12.5716   25.9361 C   0  0  2  0  0  0  0  0  0  0  0  0
    5.6198  -13.1240   26.2843 C   0  0  0  0  0  0  0  0  0  0  0  0
    7.9367  -13.6187   25.4514 C   0  0  2  0  0  0  0  0  0  0  0  0
    7.5400  -14.2196   24.2051 N   0  0  0  0  0  0  0  0  0  0  0  0
    8.0646  -14.6672   26.4915 C   0  0  0  0  0  0  0  0  0  0  0  0
    7.3662  -15.7014   26.4093 O   0  0  0  0  0  0  0  0  0  0  0  0
    8.9280  -14.5604   27.5632 O   0  0  0  0  0  0  0  0  0  0  0  0
  2  1  1  1
  2  3  1  0
  4  2  1  0
  4  5  1  6
  6  4  1  0
  6 12  1  0
  7  6  2  0
  9  8  1  6
  9 11  1  0
 10  9  1  0
 11 12  1  1
 11 13  1  0
 13 19  1  0
 13 14  2  0
 16 15  1  1
 17 16  1  0
 18 16  1  0
 18 20  1  0
 18 19  1  6
 20 22  1  0
 21 20  2  0
M  END
$$$$
