TTV.pdb
     RDKit          3D

 22 21  0  0  1  0  0  0  0  0999 V2000
    8.9935  -12.4097   20.7042 C   0  0  0  0  0  0  0  0  0  0  0  0
    8.3060  -13.1798   19.6089 C   0  0  1  0  0  0  0  0  0  0  0  0
    8.6771  -12.7241   18.3457 O   0  0  0  0  0  0  0  0  0  0  0  0
    8.5422  -14.6563   19.7670 C   0  0  2  0  0  0  0  0  0  0  0  0
    7.9359  -15.3541   18.6597 N   0  0  0  0  0  0  0  0  0  0  0  0
    8.1060  -15.1786   21.0779 C   0  0  0  0  0  0  0  0  0  0  0  0
    6.9878  -15.7084   21.1734 O   0  0  0  0  0  0  0  0  0  0  0  0
    7.4363  -17.6644   22.2785 C   0  0  0  0  0  0  0  0  0  0  0  0
    8.4955  -17.2945   23.2821 C   0  0  1  0  0  0  0  0  0  0  0  0
    9.7232  -17.8708   22.9623 O   0  0  0  0  0  0  0  0  0  0  0  0
    8.6315  -15.8011   23.4645 C   0  0  2  0  0  0  0  0  0  0  0  0
    8.9139  -15.1040   22.2538 N   0  0  0  0  0  0  0  0  0  0  0  0
    9.5671  -15.5038   24.5640 C   0  0  0  0  0  0  0  0  0  0  0  0
   10.7509  -15.2161   24.2552 O   0  0  0  0  0  0  0  0  0  0  0  0
    8.3173  -14.3177   28.4526 C   0  0  0  0  0  0  0  0  0  0  0  0
    9.5765  -13.8675   27.7411 C   0  0  2  0  0  0  0  0  0  0  0  0
    9.2242  -12.7175   26.8568 C   0  0  0  0  0  0  0  0  0  0  0  0
   10.1229  -15.0587   26.9905 C   0  0  2  0  0  0  0  0  0  0  0  0
    9.2437  -15.5148   25.9462 N   0  0  0  0  0  0  0  0  0  0  0  0
   10.3638  -16.1587   27.9547 C   0  0  0  0  0  0  0  0  0  0  0  0
    9.6477  -17.1830   27.9084 O   0  0  0  0  0  0  0  0  0  0  0  0
   11.3528  -16.1111   28.9164 O   0  0  0  0  0  0  0  0  0  0  0  0
  2  1  1  1
  2  3  1  0
  4  2  1  0
  4  5  1  6
  6  4  1  0
  6 12  1  0
  7  6  2  0
  9  8  1  6
  9 11  1  0
 10  9  1  0
 11 12  1  6
 11 13  1  0
 13 19  1  0
 13 14  2  0
 16 15  1  6
 17 16  1  0
 18 16  1  0
 18 20  1  0
 18 19  1  6
 20 22  1  0
 21 20  2  0
M  END
$$$$
