MDQ.pdb
     RDKit          3D

 26 25  0  0  1  0  0  0  0  0999 V2000
   32.7113  -22.4520   -8.5761 C   0  0  0  0  0  0  0  0  0  0  0  0
   31.3140  -21.6721   -9.4387 S   0  0  0  0  0  0  0  0  0  0  0  0
   31.8780  -21.0054  -11.0422 C   0  0  0  0  0  0  0  0  0  0  0  0
   30.7541  -20.2850  -11.7476 C   0  0  0  0  0  0  0  0  0  0  0  0
   29.7173  -21.2623  -12.2749 C   0  0  2  0  0  0  0  0  0  0  0  0
   30.4175  -22.2128  -13.1169 N   0  0  0  0  0  0  0  0  0  0  0  0
   28.6367  -20.5718  -12.9867 C   0  0  0  0  0  0  0  0  0  0  0  0
   27.9055  -19.6899  -12.5060 O   0  0  0  0  0  0  0  0  0  0  0  0
   28.3765  -20.9219  -14.3568 N   0  0  0  0  0  0  0  0  0  0  0  0
   27.2034  -20.4675  -15.0532 C   0  0  1  0  0  0  0  0  0  0  0  0
   27.4437  -20.7115  -16.5433 C   0  0  0  0  0  0  0  0  0  0  0  0
   26.4617  -19.9625  -17.3701 C   0  0  0  0  0  0  0  0  0  0  0  0
   25.4341  -20.5463  -17.8379 O   0  0  0  0  0  0  0  0  0  0  0  0
   25.9672  -21.1094  -14.5929 C   0  0  0  0  0  0  0  0  0  0  0  0
   26.0368  -22.1992  -13.9794 O   0  0  0  0  0  0  0  0  0  0  0  0
   26.6909  -18.6222  -17.6177 O   0  0  0  0  0  0  0  0  0  0  0  0
   24.8771  -21.2573  -10.3946 N   0  0  0  0  0  0  0  0  0  0  0  0
   23.5332  -20.8063  -10.3427 C   0  0  0  0  0  0  0  0  0  0  0  0
   22.7572  -21.0973   -9.4197 O   0  0  0  0  0  0  0  0  0  0  0  0
   23.0718  -19.9396  -11.4780 C   0  0  0  0  0  0  0  0  0  0  0  0
   24.0920  -19.8545  -12.5564 C   0  0  0  0  0  0  0  0  0  0  0  0
   23.6250  -20.5486  -13.8021 C   0  0  2  0  0  0  0  0  0  0  0  0
   24.6936  -20.5417  -14.8166 N   0  0  0  0  0  0  0  0  0  0  0  0
   22.3934  -19.9771  -14.3537 C   0  0  0  0  0  0  0  0  0  0  0  0
   22.3222  -18.8974  -15.1919 O   0  0  0  0  0  0  0  0  0  0  0  0
   21.2725  -20.5077  -14.0413 O   0  0  0  0  0  0  0  0  0  0  0  0
  2  1  1  0
  3  2  1  0
  4  5  1  0
  4  3  1  0
  5  6  1  6
  7  5  1  0
  7  8  2  0
  9  7  1  0
 10  9  1  0
 10 11  1  6
 12 11  1  0
 13 12  2  0
 14 10  1  0
 14 23  1  0
 15 14  2  0
 16 12  1  0
 17 18  1  0
 18 19  2  0
 18 20  1  0
 20 21  1  0
 22 21  1  1
 22 23  1  0
 22 24  1  0
 24 26  2  0
 24 25  1  0
M  END
$$$$
