MDQ.pdb
     RDKit          3D

 26 25  0  0  1  0  0  0  0  0999 V2000
   17.3250  -15.2700  -11.6893 C   0  0  0  0  0  0  0  0  0  0  0  0
   17.4628  -13.4637  -11.8410 S   0  0  0  0  0  0  0  0  0  0  0  0
   16.2006  -12.6621  -10.7929 C   0  0  0  0  0  0  0  0  0  0  0  0
   16.3902  -11.1643  -10.7776 C   0  0  0  0  0  0  0  0  0  0  0  0
   15.2432  -10.4701  -10.0632 C   0  0  2  0  0  0  0  0  0  0  0  0
   14.0153  -11.0772  -10.5391 N   0  0  0  0  0  0  0  0  0  0  0  0
   15.2718   -9.0194  -10.2779 C   0  0  0  0  0  0  0  0  0  0  0  0
   14.9689   -8.4413  -11.3350 O   0  0  0  0  0  0  0  0  0  0  0  0
   15.6799   -8.1676   -9.1938 N   0  0  0  0  0  0  0  0  0  0  0  0
   15.7753   -6.7400   -9.3365 C   0  0  1  0  0  0  0  0  0  0  0  0
   15.3491   -6.1264   -8.0025 C   0  0  0  0  0  0  0  0  0  0  0  0
   15.2669   -4.6456   -8.1002 C   0  0  0  0  0  0  0  0  0  0  0  0
   15.3139   -4.0703   -9.2327 O   0  0  0  0  0  0  0  0  0  0  0  0
   17.1094   -6.2826   -9.7401 C   0  0  0  0  0  0  0  0  0  0  0  0
   18.1016   -6.6068   -9.0479 O   0  0  0  0  0  0  0  0  0  0  0  0
   15.1388   -3.9117   -6.9361 O   0  0  0  0  0  0  0  0  0  0  0  0
   20.2696   -8.9142  -12.8459 N   0  0  0  0  0  0  0  0  0  0  0  0
   21.0789   -7.7699  -13.0646 C   0  0  0  0  0  0  0  0  0  0  0  0
   22.1978   -7.8245  -13.5975 O   0  0  0  0  0  0  0  0  0  0  0  0
   20.5156   -6.4535  -12.6145 C   0  0  0  0  0  0  0  0  0  0  0  0
   19.2221   -6.6225  -11.9006 C   0  0  0  0  0  0  0  0  0  0  0  0
   18.6461   -5.2966  -11.4986 C   0  0  2  0  0  0  0  0  0  0  0  0
   17.3190   -5.4855  -10.8869 N   0  0  0  0  0  0  0  0  0  0  0  0
   18.5660   -4.3422  -12.6078 C   0  0  0  0  0  0  0  0  0  0  0  0
   19.5858   -3.5398  -13.0432 O   0  0  0  0  0  0  0  0  0  0  0  0
   17.4614   -4.2228  -13.2411 O   0  0  0  0  0  0  0  0  0  0  0  0
  2  1  1  0
  3  2  1  0
  4  5  1  0
  4  3  1  0
  5  6  1  6
  7  5  1  0
  7  8  2  0
  9  7  1  0
 10  9  1  0
 10 11  1  1
 12 11  1  0
 13 12  2  0
 14 10  1  0
 14 23  1  0
 15 14  2  0
 16 12  1  0
 17 18  1  0
 18 19  2  0
 18 20  1  0
 20 21  1  0
 22 21  1  6
 22 23  1  0
 22 24  1  0
 24 26  2  0
 24 25  1  0
M  END
$$$$
