MDQ.pdb
     RDKit          3D

 26 25  0  0  1  0  0  0  0  0999 V2000
   19.1722  -23.1358  -11.9266 C   0  0  0  0  0  0  0  0  0  0  0  0
   18.1236  -23.4457  -10.4742 S   0  0  0  0  0  0  0  0  0  0  0  0
   17.9681  -25.2446  -10.2026 C   0  0  0  0  0  0  0  0  0  0  0  0
   17.1254  -25.5309   -8.9829 C   0  0  0  0  0  0  0  0  0  0  0  0
   17.7938  -25.0199   -7.7179 C   0  0  2  0  0  0  0  0  0  0  0  0
   19.0283  -25.7636   -7.5584 N   0  0  0  0  0  0  0  0  0  0  0  0
   16.9107  -25.1417   -6.5532 C   0  0  0  0  0  0  0  0  0  0  0  0
   15.6819  -24.9593   -6.5584 O   0  0  0  0  0  0  0  0  0  0  0  0
   17.4845  -25.5009   -5.2846 N   0  0  0  0  0  0  0  0  0  0  0  0
   16.6961  -25.5877   -4.0852 C   0  0  1  0  0  0  0  0  0  0  0  0
   17.6356  -26.0266   -2.9617 C   0  0  0  0  0  0  0  0  0  0  0  0
   18.0049  -27.4589   -3.1062 C   0  0  0  0  0  0  0  0  0  0  0  0
   19.1595  -27.7884   -3.5231 O   0  0  0  0  0  0  0  0  0  0  0  0
   16.0021  -24.3388   -3.7525 C   0  0  0  0  0  0  0  0  0  0  0  0
   16.6353  -23.2589   -3.7922 O   0  0  0  0  0  0  0  0  0  0  0  0
   17.0676  -28.4203   -2.7783 O   0  0  0  0  0  0  0  0  0  0  0  0
   11.4953  -21.9433   -6.2895 N   0  0  0  0  0  0  0  0  0  0  0  0
   11.4101  -21.1022   -5.1505 C   0  0  0  0  0  0  0  0  0  0  0  0
   10.8113  -20.0157   -5.1551 O   0  0  0  0  0  0  0  0  0  0  0  0
   12.0906  -21.5888   -3.9043 C   0  0  0  0  0  0  0  0  0  0  0  0
   12.8279  -22.8587   -4.1389 C   0  0  0  0  0  0  0  0  0  0  0  0
   13.9102  -23.0550   -3.1183 C   0  0  2  0  0  0  0  0  0  0  0  0
   14.6383  -24.3076   -3.3869 N   0  0  0  0  0  0  0  0  0  0  0  0
   13.4131  -23.0388   -1.7398 C   0  0  0  0  0  0  0  0  0  0  0  0
   13.3753  -24.1143   -0.8941 O   0  0  0  0  0  0  0  0  0  0  0  0
   12.9663  -21.9419   -1.2574 O   0  0  0  0  0  0  0  0  0  0  0  0
  2  1  1  0
  3  2  1  0
  4  5  1  0
  4  3  1  0
  5  6  1  1
  7  5  1  0
  7  8  2  0
  9  7  1  0
 10  9  1  0
 10 11  1  1
 12 11  1  0
 13 12  2  0
 14 10  1  0
 14 23  1  0
 15 14  2  0
 16 12  1  0
 17 18  1  0
 18 19  2  0
 18 20  1  0
 20 21  1  0
 22 21  1  6
 22 23  1  0
 22 24  1  0
 24 26  2  0
 24 25  1  0
M  END
$$$$
