MDQ.pdb
     RDKit          3D

 26 25  0  0  1  0  0  0  0  0999 V2000
   21.6581  -11.1858    6.3390 C   0  0  0  0  0  0  0  0  0  0  0  0
   20.2400  -10.7231    7.3782 S   0  0  0  0  0  0  0  0  0  0  0  0
   18.9047  -11.9521    7.1762 C   0  0  0  0  0  0  0  0  0  0  0  0
   19.4538  -13.3565    7.2528 C   0  0  0  0  0  0  0  0  0  0  0  0
   18.3577  -14.3893    7.0526 C   0  0  2  0  0  0  0  0  0  0  0  0
   17.4342  -14.2506    8.1619 N   0  0  0  0  0  0  0  0  0  0  0  0
   18.9061  -15.7453    6.9451 C   0  0  0  0  0  0  0  0  0  0  0  0
   19.6445  -16.1538    6.0334 O   0  0  0  0  0  0  0  0  0  0  0  0
   18.5808  -16.7060    7.9644 N   0  0  0  0  0  0  0  0  0  0  0  0
   19.2265  -17.9884    8.0414 C   0  0  1  0  0  0  0  0  0  0  0  0
   20.0342  -18.0066    9.3395 C   0  0  0  0  0  0  0  0  0  0  0  0
   20.7886  -19.2796    9.4787 C   0  0  0  0  0  0  0  0  0  0  0  0
   20.9718  -20.0342    8.4724 O   0  0  0  0  0  0  0  0  0  0  0  0
   18.2917  -19.1167    7.9706 C   0  0  0  0  0  0  0  0  0  0  0  0
   17.4534  -19.2738    8.8878 O   0  0  0  0  0  0  0  0  0  0  0  0
   21.2841  -19.6225   10.7225 O   0  0  0  0  0  0  0  0  0  0  0  0
   17.1102  -20.4243    2.8504 N   0  0  0  0  0  0  0  0  0  0  0  0
   16.1110  -19.7567    3.6041 C   0  0  0  0  0  0  0  0  0  0  0  0
   15.4174  -18.8371    3.1432 O   0  0  0  0  0  0  0  0  0  0  0  0
   15.9185  -20.2167    5.0197 C   0  0  0  0  0  0  0  0  0  0  0  0
   16.8711  -21.2996    5.3817 C   0  0  0  0  0  0  0  0  0  0  0  0
   17.3452  -21.1551    6.7980 C   0  0  2  0  0  0  0  0  0  0  0  0
   18.3010  -20.0384    6.9006 N   0  0  0  0  0  0  0  0  0  0  0  0
   17.9352  -22.3835    7.3371 C   0  0  0  0  0  0  0  0  0  0  0  0
   17.4260  -23.1257    8.3683 O   0  0  0  0  0  0  0  0  0  0  0  0
   19.0207  -22.8239    6.8240 O   0  0  0  0  0  0  0  0  0  0  0  0
  2  1  1  0
  3  2  1  0
  4  5  1  0
  4  3  1  0
  5  6  1  1
  7  5  1  0
  7  8  2  0
  9  7  1  0
 10  9  1  0
 10 11  1  1
 12 11  1  0
 13 12  2  0
 14 10  1  0
 14 23  1  0
 15 14  2  0
 16 12  1  0
 17 18  1  0
 18 19  2  0
 18 20  1  0
 20 21  1  0
 22 21  1  6
 22 23  1  0
 22 24  1  0
 24 26  2  0
 24 25  1  0
M  END
$$$$
