MDQ.pdb
     RDKit          3D

 26 25  0  0  1  0  0  0  0  0999 V2000
   29.3046  -19.8879  -12.1954 C   0  0  0  0  0  0  0  0  0  0  0  0
   29.2039  -21.0472  -10.7988 S   0  0  0  0  0  0  0  0  0  0  0  0
   27.4626  -21.2358  -10.2825 C   0  0  0  0  0  0  0  0  0  0  0  0
   26.5656  -21.4216  -11.4827 C   0  0  0  0  0  0  0  0  0  0  0  0
   25.4151  -20.4295  -11.4708 C   0  0  2  0  0  0  0  0  0  0  0  0
   24.6708  -20.6554  -10.2470 N   0  0  0  0  0  0  0  0  0  0  0  0
   24.5782  -20.5582  -12.6684 C   0  0  0  0  0  0  0  0  0  0  0  0
   24.9948  -20.5923  -13.8383 O   0  0  0  0  0  0  0  0  0  0  0  0
   23.1525  -20.6553  -12.5090 N   0  0  0  0  0  0  0  0  0  0  0  0
   22.2626  -20.7672  -13.6329 C   0  0  1  0  0  0  0  0  0  0  0  0
   20.9203  -21.2633  -13.0945 C   0  0  0  0  0  0  0  0  0  0  0  0
   20.8775  -22.7485  -13.0593 C   0  0  0  0  0  0  0  0  0  0  0  0
   20.1118  -23.3526  -12.2443 O   0  0  0  0  0  0  0  0  0  0  0  0
   22.1143  -19.5167  -14.3854 C   0  0  0  0  0  0  0  0  0  0  0  0
   21.7923  -18.4713  -13.7754 O   0  0  0  0  0  0  0  0  0  0  0  0
   21.6863  -23.4547  -13.9296 O   0  0  0  0  0  0  0  0  0  0  0  0
   24.4990  -14.5715  -17.6344 N   0  0  0  0  0  0  0  0  0  0  0  0
   24.7010  -15.9487  -17.9077 C   0  0  0  0  0  0  0  0  0  0  0  0
   25.8244  -16.4739  -17.9418 O   0  0  0  0  0  0  0  0  0  0  0  0
   23.4707  -16.7701  -18.1614 C   0  0  0  0  0  0  0  0  0  0  0  0
   23.4916  -18.0450  -17.3961 C   0  0  0  0  0  0  0  0  0  0  0  0
   22.2708  -18.1815  -16.5345 C   0  0  2  0  0  0  0  0  0  0  0  0
   22.3220  -19.4464  -15.7805 N   0  0  0  0  0  0  0  0  0  0  0  0
   21.0183  -18.0872  -17.2895 C   0  0  0  0  0  0  0  0  0  0  0  0
   20.2196  -16.9787  -17.3720 O   0  0  0  0  0  0  0  0  0  0  0  0
   20.6074  -19.1123  -17.9343 O   0  0  0  0  0  0  0  0  0  0  0  0
  2  1  1  0
  3  2  1  0
  4  5  1  0
  4  3  1  0
  5  6  1  1
  7  5  1  0
  7  8  2  0
  9  7  1  0
 10  9  1  0
 10 11  1  1
 12 11  1  0
 13 12  2  0
 14 10  1  0
 14 23  1  0
 15 14  2  0
 16 12  1  0
 17 18  1  0
 18 19  2  0
 18 20  1  0
 20 21  1  0
 22 21  1  6
 22 23  1  0
 22 24  1  0
 24 26  2  0
 24 25  1  0
M  END
$$$$
