MDQ.pdb
     RDKit          3D

 26 25  0  0  1  0  0  0  0  0999 V2000
   21.2077  -16.7985  -14.9195 C   0  0  0  0  0  0  0  0  0  0  0  0
   20.9664  -17.1658  -16.6836 S   0  0  0  0  0  0  0  0  0  0  0  0
   20.3103  -15.6889  -17.5334 C   0  0  0  0  0  0  0  0  0  0  0  0
   20.3124  -14.4947  -16.6095 C   0  0  0  0  0  0  0  0  0  0  0  0
   19.7098  -13.2740  -17.2841 C   0  0  2  0  0  0  0  0  0  0  0  0
   19.8167  -13.4821  -18.7152 N   0  0  0  0  0  0  0  0  0  0  0  0
   20.3645  -12.0366  -16.8466 C   0  0  0  0  0  0  0  0  0  0  0  0
   20.3938  -11.6104  -15.6800 O   0  0  0  0  0  0  0  0  0  0  0  0
   21.0374  -11.2265  -17.8256 N   0  0  0  0  0  0  0  0  0  0  0  0
   21.6370   -9.9629  -17.4918 C   0  0  1  0  0  0  0  0  0  0  0  0
   22.7582   -9.7177  -18.5020 C   0  0  0  0  0  0  0  0  0  0  0  0
   23.4232   -8.4122  -18.2520 C   0  0  0  0  0  0  0  0  0  0  0  0
   23.8582   -8.1212  -17.0937 O   0  0  0  0  0  0  0  0  0  0  0  0
   20.6793   -8.8519  -17.4671 C   0  0  0  0  0  0  0  0  0  0  0  0
   20.0082   -8.6010  -18.4944 O   0  0  0  0  0  0  0  0  0  0  0  0
   23.5570   -7.5256  -19.3038 O   0  0  0  0  0  0  0  0  0  0  0  0
   15.8675   -7.7359  -14.6127 N   0  0  0  0  0  0  0  0  0  0  0  0
   16.0330   -6.4002  -15.0608 C   0  0  0  0  0  0  0  0  0  0  0  0
   15.1439   -5.5402  -14.9667 O   0  0  0  0  0  0  0  0  0  0  0  0
   17.3608   -6.0563  -15.6702 C   0  0  0  0  0  0  0  0  0  0  0  0
   18.2791   -7.2258  -15.6870 C   0  0  0  0  0  0  0  0  0  0  0  0
   19.5973   -6.8726  -16.3106 C   0  0  2  0  0  0  0  0  0  0  0  0
   20.4839   -8.0494  -16.3216 N   0  0  0  0  0  0  0  0  0  0  0  0
   20.2596   -5.7402  -15.6574 C   0  0  0  0  0  0  0  0  0  0  0  0
   21.4838   -5.7780  -15.0463 O   0  0  0  0  0  0  0  0  0  0  0  0
   19.6675   -4.6069  -15.6363 O   0  0  0  0  0  0  0  0  0  0  0  0
  2  1  1  0
  3  2  1  0
  4  5  1  0
  4  3  1  0
  5  6  1  6
  7  5  1  0
  7  8  2  0
  9  7  1  0
 10  9  1  0
 10 11  1  6
 12 11  1  0
 13 12  2  0
 14 10  1  0
 14 23  1  0
 15 14  2  0
 16 12  1  0
 17 18  1  0
 18 19  2  0
 18 20  1  0
 20 21  1  0
 22 21  1  1
 22 23  1  0
 22 24  1  0
 24 26  2  0
 24 25  1  0
M  END
$$$$
