HWM.pdb
     RDKit          3D

 33 35  0  0  1  0  0  0  0  0999 V2000
   11.4612  -16.8803   19.1513 N   0  0  0  0  0  0  0  0  0  0  0  0
   10.6562  -17.5965   20.1021 C   0  0  1  0  0  0  0  0  0  0  0  0
   11.2503  -18.9387   20.3949 C   0  0  0  0  0  0  0  0  0  0  0  0
   10.6992  -20.0234   19.5325 C   0  0  0  0  0  0  0  0  0  0  0  0
    9.5283  -20.7087   19.8311 C   0  0  0  0  0  0  0  0  0  0  0  0
    9.3528  -21.6012   18.8377 N   0  0  0  0  0  0  0  0  0  0  0  0
   10.3644  -21.4826   17.9577 C   0  0  0  0  0  0  0  0  0  0  0  0
   11.1886  -20.5143   18.3863 N   0  0  0  0  0  0  0  0  0  0  0  0
   10.3984  -16.8070   21.3333 C   0  0  0  0  0  0  0  0  0  0  0  0
   11.3579  -16.2152   21.8882 O   0  0  0  0  0  0  0  0  0  0  0  0
    9.0961  -16.7204   21.8777 N   0  0  0  0  0  0  0  0  0  0  0  0
    8.8933  -16.0570   23.1713 C   0  0  1  0  0  0  0  0  0  0  0  0
    7.4770  -15.6116   23.2267 C   0  0  0  0  0  0  0  0  0  0  0  0
    7.0712  -15.0556   24.5263 C   0  0  0  0  0  0  0  0  0  0  0  0
    6.5199  -15.8303   25.5622 C   0  0  0  0  0  0  0  0  0  0  0  0
    6.2903  -15.0480   26.6227 N   0  0  0  0  0  0  0  0  0  0  0  0
    6.6567  -13.7775   26.3618 C   0  0  0  0  0  0  0  0  0  0  0  0
    6.6052  -12.6308   27.1262 C   0  0  0  0  0  0  0  0  0  0  0  0
    7.0496  -11.4544   26.5717 C   0  0  0  0  0  0  0  0  0  0  0  0
    7.5250  -11.4671   25.2840 C   0  0  0  0  0  0  0  0  0  0  0  0
    7.5796  -12.5989   24.5203 C   0  0  0  0  0  0  0  0  0  0  0  0
    7.1392  -13.7961   25.0567 C   0  0  0  0  0  0  0  0  0  0  0  0
    9.3645  -16.8928   24.2873 C   0  0  0  0  0  0  0  0  0  0  0  0
    9.0906  -18.1164   24.3019 O   0  0  0  0  0  0  0  0  0  0  0  0
   14.9085  -19.3085   24.2592 C   0  0  0  0  0  0  0  0  0  0  0  0
   14.2742  -18.2984   25.6124 S   0  0  0  0  0  0  0  0  0  0  0  0
   12.4640  -18.0826   25.4747 C   0  0  0  0  0  0  0  0  0  0  0  0
   11.9275  -17.2852   26.6226 C   0  0  0  0  0  0  0  0  0  0  0  0
   10.4465  -17.1563   26.5492 C   0  0  2  0  0  0  0  0  0  0  0  0
   10.1154  -16.3575   25.3424 N   0  0  0  0  0  0  0  0  0  0  0  0
    9.9211  -16.4004   27.6980 C   0  0  0  0  0  0  0  0  0  0  0  0
    9.3775  -15.2926   27.5961 O   0  0  0  0  0  0  0  0  0  0  0  0
   10.0262  -16.9333   28.9824 O   0  0  0  0  0  0  0  0  0  0  0  0
  2  1  1  6
  2  3  1  0
  3  4  1  0
  4  8  1  0
  5  4  2  0
  5  6  1  0
  6  7  1  0
  8  7  2  0
  9  2  1  0
  9 10  2  0
 11  9  1  0
 12 13  1  1
 12 11  1  0
 13 14  1  0
 14 15  2  0
 14 22  1  0
 15 16  1  0
 16 17  1  0
 17 18  2  0
 18 19  1  0
 20 19  2  0
 21 20  1  0
 22 21  2  0
 22 17  1  0
 23 12  1  0
 24 23  2  0
 25 26  1  0
 26 27  1  0
 27 28  1  0
 29 28  1  1
 29 30  1  0
 30 23  1  0
 31 29  1  0
 31 33  1  0
 32 31  2  0
M  END
$$$$
