HWM.pdb
     RDKit          3D

 33 35  0  0  1  0  0  0  0  0999 V2000
    9.5369  -18.5258   20.1536 N   0  0  0  0  0  0  0  0  0  0  0  0
   10.1284  -17.2210   20.0410 C   0  0  1  0  0  0  0  0  0  0  0  0
    9.6937  -16.5495   18.7761 C   0  0  0  0  0  0  0  0  0  0  0  0
   10.1087  -17.2882   17.5488 C   0  0  0  0  0  0  0  0  0  0  0  0
   11.3972  -17.7684   17.3518 C   0  0  0  0  0  0  0  0  0  0  0  0
   11.3925  -18.3708   16.1472 N   0  0  0  0  0  0  0  0  0  0  0  0
   10.1608  -18.2738   15.6131 C   0  0  0  0  0  0  0  0  0  0  0  0
    9.3755  -17.6095   16.4748 N   0  0  0  0  0  0  0  0  0  0  0  0
    9.8842  -16.3839   21.2433 C   0  0  0  0  0  0  0  0  0  0  0  0
   10.4196  -15.2494   21.3131 O   0  0  0  0  0  0  0  0  0  0  0  0
    9.0645  -16.8518   22.2963 N   0  0  0  0  0  0  0  0  0  0  0  0
    8.9279  -16.0520   23.5195 C   0  0  1  0  0  0  0  0  0  0  0  0
    7.6988  -16.5103   24.2169 C   0  0  0  0  0  0  0  0  0  0  0  0
    6.9473  -15.4349   24.8814 C   0  0  0  0  0  0  0  0  0  0  0  0
    5.6676  -15.6127   25.4364 C   0  0  0  0  0  0  0  0  0  0  0  0
    5.2676  -14.4658   25.9969 N   0  0  0  0  0  0  0  0  0  0  0  0
    6.2103  -13.5137   25.8514 C   0  0  0  0  0  0  0  0  0  0  0  0
    6.2514  -12.1932   26.2464 C   0  0  0  0  0  0  0  0  0  0  0  0
    7.3671  -11.4524   25.9379 C   0  0  0  0  0  0  0  0  0  0  0  0
    8.3923  -12.0537   25.2511 C   0  0  0  0  0  0  0  0  0  0  0  0
    8.3595  -13.3615   24.8564 C   0  0  0  0  0  0  0  0  0  0  0  0
    7.2475  -14.1285   25.1565 C   0  0  0  0  0  0  0  0  0  0  0  0
   10.1709  -16.0527   24.3076 C   0  0  0  0  0  0  0  0  0  0  0  0
   10.7491  -14.9671   24.5513 O   0  0  0  0  0  0  0  0  0  0  0  0
   10.2913  -12.8887   28.7201 C   0  0  0  0  0  0  0  0  0  0  0  0
   10.6688  -14.6498   28.8196 S   0  0  0  0  0  0  0  0  0  0  0  0
   11.3899  -15.2538   27.2520 C   0  0  0  0  0  0  0  0  0  0  0  0
   11.1928  -16.7302   27.1017 C   0  0  0  0  0  0  0  0  0  0  0  0
   11.7929  -17.2321   25.8354 C   0  0  2  0  0  0  0  0  0  0  0  0
   10.7317  -17.2399   24.7972 N   0  0  0  0  0  0  0  0  0  0  0  0
   12.2396  -18.6279   25.9756 C   0  0  0  0  0  0  0  0  0  0  0  0
   13.1634  -18.9780   26.7220 O   0  0  0  0  0  0  0  0  0  0  0  0
   11.6091  -19.6323   25.2420 O   0  0  0  0  0  0  0  0  0  0  0  0
  2  1  1  1
  2  3  1  0
  3  4  1  0
  4  8  1  0
  5  4  2  0
  5  6  1  0
  6  7  1  0
  8  7  2  0
  9  2  1  0
  9 10  2  0
 11  9  1  0
 12 13  1  1
 12 11  1  0
 13 14  1  0
 14 15  2  0
 14 22  1  0
 15 16  1  0
 16 17  1  0
 17 18  2  0
 18 19  1  0
 20 19  2  0
 21 20  1  0
 22 21  2  0
 22 17  1  0
 23 12  1  0
 24 23  2  0
 25 26  1  0
 26 27  1  0
 27 28  1  0
 29 28  1  1
 29 30  1  0
 30 23  1  0
 31 29  1  0
 31 33  1  0
 32 31  2  0
M  END
$$$$
