HWM.pdb
     RDKit          3D

 33 35  0  0  1  0  0  0  0  0999 V2000
   11.2333  -18.3363   18.5880 N   0  0  0  0  0  0  0  0  0  0  0  0
   10.7503  -18.7997   19.8595 C   0  0  1  0  0  0  0  0  0  0  0  0
   11.6088  -19.9096   20.3800 C   0  0  0  0  0  0  0  0  0  0  0  0
   11.4930  -21.1633   19.5807 C   0  0  0  0  0  0  0  0  0  0  0  0
   12.4914  -21.6129   18.7259 C   0  0  0  0  0  0  0  0  0  0  0  0
   12.0344  -22.7592   18.1861 N   0  0  0  0  0  0  0  0  0  0  0  0
   10.8083  -23.0172   18.6777 C   0  0  0  0  0  0  0  0  0  0  0  0
   10.4787  -22.0370   19.5328 N   0  0  0  0  0  0  0  0  0  0  0  0
   10.5901  -17.6957   20.8401 C   0  0  0  0  0  0  0  0  0  0  0  0
   11.4960  -16.8303   20.9346 O   0  0  0  0  0  0  0  0  0  0  0  0
    9.4391  -17.6158   21.6578 N   0  0  0  0  0  0  0  0  0  0  0  0
    9.3332  -16.5473   22.6586 C   0  0  1  0  0  0  0  0  0  0  0  0
    7.9836  -15.9411   22.5224 C   0  0  0  0  0  0  0  0  0  0  0  0
    7.8280  -14.6556   23.2195 C   0  0  0  0  0  0  0  0  0  0  0  0
    8.3571  -13.4447   22.7391 C   0  0  0  0  0  0  0  0  0  0  0  0
    8.0180  -12.4547   23.5723 N   0  0  0  0  0  0  0  0  0  0  0  0
    7.2843  -12.9298   24.5982 C   0  0  0  0  0  0  0  0  0  0  0  0
    6.7229  -12.3064   25.6926 C   0  0  0  0  0  0  0  0  0  0  0  0
    6.0250  -13.0725   26.5953 C   0  0  0  0  0  0  0  0  0  0  0  0
    5.9151  -14.4227   26.3730 C   0  0  0  0  0  0  0  0  0  0  0  0
    6.4681  -15.0478   25.2910 C   0  0  0  0  0  0  0  0  0  0  0  0
    7.1745  -14.2976   24.3672 C   0  0  0  0  0  0  0  0  0  0  0  0
    9.7084  -17.0234   23.9997 C   0  0  0  0  0  0  0  0  0  0  0  0
    9.4167  -18.1933   24.3445 O   0  0  0  0  0  0  0  0  0  0  0  0
    9.9687  -14.2258   29.9878 C   0  0  0  0  0  0  0  0  0  0  0  0
   10.3815  -13.4073   28.4343 S   0  0  0  0  0  0  0  0  0  0  0  0
   10.2213  -14.5604   27.0247 C   0  0  0  0  0  0  0  0  0  0  0  0
   11.3044  -15.5937   27.0479 C   0  0  0  0  0  0  0  0  0  0  0  0
   10.9781  -16.7426   26.1596 C   0  0  2  0  0  0  0  0  0  0  0  0
   10.3867  -16.2018   24.9099 N   0  0  0  0  0  0  0  0  0  0  0  0
    9.9471  -17.6039   26.7618 C   0  0  0  0  0  0  0  0  0  0  0  0
   10.1761  -18.4064   27.6765 O   0  0  0  0  0  0  0  0  0  0  0  0
    8.6333  -17.5360   26.2993 O   0  0  0  0  0  0  0  0  0  0  0  0
  2  1  1  6
  2  3  1  0
  3  4  1  0
  4  8  1  0
  5  4  2  0
  5  6  1  0
  6  7  1  0
  8  7  2  0
  9  2  1  0
  9 10  2  0
 11  9  1  0
 12 13  1  1
 12 11  1  0
 13 14  1  0
 14 15  2  0
 14 22  1  0
 15 16  1  0
 16 17  1  0
 17 18  2  0
 18 19  1  0
 20 19  2  0
 21 20  1  0
 22 21  2  0
 22 17  1  0
 23 12  1  0
 24 23  2  0
 25 26  1  0
 26 27  1  0
 27 28  1  0
 29 28  1  1
 29 30  1  0
 30 23  1  0
 31 29  1  0
 31 33  1  0
 32 31  2  0
M  END
$$$$
