HWM.pdb
     RDKit          3D

 33 35  0  0  1  0  0  0  0  0999 V2000
   10.0329  -18.3316   19.1765 N   0  0  0  0  0  0  0  0  0  0  0  0
   10.5827  -17.0056   19.2414 C   0  0  1  0  0  0  0  0  0  0  0  0
   10.2552  -16.2348   18.0010 C   0  0  0  0  0  0  0  0  0  0  0  0
   10.7001  -16.9186   16.7525 C   0  0  0  0  0  0  0  0  0  0  0  0
   12.0137  -16.8947   16.3015 C   0  0  0  0  0  0  0  0  0  0  0  0
   12.0312  -17.6103   15.1605 N   0  0  0  0  0  0  0  0  0  0  0  0
   10.7888  -18.0618   14.9069 C   0  0  0  0  0  0  0  0  0  0  0  0
    9.9745  -17.6361   15.8848 N   0  0  0  0  0  0  0  0  0  0  0  0
   10.1847  -16.2883   20.4795 C   0  0  0  0  0  0  0  0  0  0  0  0
   10.8075  -15.2470   20.8058 O   0  0  0  0  0  0  0  0  0  0  0  0
    9.1234  -16.7660   21.2828 N   0  0  0  0  0  0  0  0  0  0  0  0
    8.8083  -16.0885   22.5462 C   0  0  1  0  0  0  0  0  0  0  0  0
    7.3402  -16.1881   22.7514 C   0  0  0  0  0  0  0  0  0  0  0  0
    6.8653  -15.5846   24.0056 C   0  0  0  0  0  0  0  0  0  0  0  0
    6.1537  -16.2967   24.9872 C   0  0  0  0  0  0  0  0  0  0  0  0
    5.8957  -15.4856   26.0192 N   0  0  0  0  0  0  0  0  0  0  0  0
    6.3951  -14.2549   25.7905 C   0  0  0  0  0  0  0  0  0  0  0  0
    6.3735  -13.0998   26.5434 C   0  0  0  0  0  0  0  0  0  0  0  0
    6.9695  -11.9729   26.0299 C   0  0  0  0  0  0  0  0  0  0  0  0
    7.5601  -12.0412   24.7926 C   0  0  0  0  0  0  0  0  0  0  0  0
    7.5860  -13.1818   24.0405 C   0  0  0  0  0  0  0  0  0  0  0  0
    6.9939  -14.3300   24.5365 C   0  0  0  0  0  0  0  0  0  0  0  0
    9.6606  -16.5700   23.6452 C   0  0  0  0  0  0  0  0  0  0  0  0
    9.9008  -17.7963   23.7496 O   0  0  0  0  0  0  0  0  0  0  0  0
   11.4850  -12.5654   28.3969 C   0  0  0  0  0  0  0  0  0  0  0  0
   11.7404  -14.1348   29.2485 S   0  0  0  0  0  0  0  0  0  0  0  0
   11.4811  -15.5446   28.1137 C   0  0  0  0  0  0  0  0  0  0  0  0
   10.9179  -15.0861   26.8045 C   0  0  0  0  0  0  0  0  0  0  0  0
   10.9078  -16.1865   25.8024 C   0  0  2  0  0  0  0  0  0  0  0  0
   10.2154  -15.6919   24.5859 N   0  0  0  0  0  0  0  0  0  0  0  0
   10.1226  -17.3355   26.2826 C   0  0  0  0  0  0  0  0  0  0  0  0
    8.8863  -17.3371   26.3518 O   0  0  0  0  0  0  0  0  0  0  0  0
   10.7765  -18.4984   26.6884 O   0  0  0  0  0  0  0  0  0  0  0  0
  2  1  1  6
  2  3  1  0
  3  4  1  0
  4  8  1  0
  5  4  2  0
  5  6  1  0
  6  7  1  0
  8  7  2  0
  9  2  1  0
  9 10  2  0
 11  9  1  0
 12 13  1  1
 12 11  1  0
 13 14  1  0
 14 15  2  0
 14 22  1  0
 15 16  1  0
 16 17  1  0
 17 18  2  0
 18 19  1  0
 20 19  2  0
 21 20  1  0
 22 21  2  0
 22 17  1  0
 23 12  1  0
 24 23  2  0
 25 26  1  0
 26 27  1  0
 27 28  1  0
 29 28  1  1
 29 30  1  0
 30 23  1  0
 31 29  1  0
 31 33  1  0
 32 31  2  0
M  END
$$$$
