HWM.pdb
     RDKit          3D

 33 35  0  0  1  0  0  0  0  0999 V2000
   11.5243  -18.3780   18.7278 N   0  0  0  0  0  0  0  0  0  0  0  0
   10.8246  -18.8691   19.8829 C   0  0  1  0  0  0  0  0  0  0  0  0
   11.4622  -20.1224   20.3954 C   0  0  0  0  0  0  0  0  0  0  0  0
   11.2008  -21.3083   19.5298 C   0  0  0  0  0  0  0  0  0  0  0  0
   12.0399  -21.6882   18.4900 C   0  0  0  0  0  0  0  0  0  0  0  0
   11.4858  -22.7878   17.9441 N   0  0  0  0  0  0  0  0  0  0  0  0
   10.3535  -23.0844   18.6085 C   0  0  0  0  0  0  0  0  0  0  0  0
   10.1811  -22.1755   19.5805 N   0  0  0  0  0  0  0  0  0  0  0  0
   10.6763  -17.8333   20.9368 C   0  0  0  0  0  0  0  0  0  0  0  0
   11.6396  -17.0612   21.1704 O   0  0  0  0  0  0  0  0  0  0  0  0
    9.4729  -17.7145   21.6700 N   0  0  0  0  0  0  0  0  0  0  0  0
    9.3033  -16.6001   22.6102 C   0  0  1  0  0  0  0  0  0  0  0  0
    7.9002  -16.1262   22.4915 C   0  0  0  0  0  0  0  0  0  0  0  0
    7.6511  -14.8195   23.1184 C   0  0  0  0  0  0  0  0  0  0  0  0
    8.0634  -13.5989   22.5551 C   0  0  0  0  0  0  0  0  0  0  0  0
    7.6600  -12.5933   23.3396 N   0  0  0  0  0  0  0  0  0  0  0  0
    6.9935  -13.0669   24.4110 C   0  0  0  0  0  0  0  0  0  0  0  0
    6.4060  -12.4294   25.4834 C   0  0  0  0  0  0  0  0  0  0  0  0
    5.7972  -13.1967   26.4475 C   0  0  0  0  0  0  0  0  0  0  0  0
    5.7983  -14.5621   26.3056 C   0  0  0  0  0  0  0  0  0  0  0  0
    6.3778  -15.2014   25.2460 C   0  0  0  0  0  0  0  0  0  0  0  0
    6.9959  -14.4504   24.2616 C   0  0  0  0  0  0  0  0  0  0  0  0
    9.7653  -16.9573   23.9611 C   0  0  0  0  0  0  0  0  0  0  0  0
    9.8762  -18.1657   24.2772 O   0  0  0  0  0  0  0  0  0  0  0  0
   10.4542  -12.4934   28.7117 C   0  0  0  0  0  0  0  0  0  0  0  0
   10.6015  -14.0299   29.6450 S   0  0  0  0  0  0  0  0  0  0  0  0
   10.9235  -15.4434   28.5313 C   0  0  0  0  0  0  0  0  0  0  0  0
   10.4475  -15.1541   27.1417 C   0  0  0  0  0  0  0  0  0  0  0  0
   10.6100  -16.3380   26.2544 C   0  0  2  0  0  0  0  0  0  0  0  0
   10.0869  -15.9796   24.9120 N   0  0  0  0  0  0  0  0  0  0  0  0
    9.7938  -17.4699   26.7236 C   0  0  0  0  0  0  0  0  0  0  0  0
    8.6139  -17.6454   26.3917 O   0  0  0  0  0  0  0  0  0  0  0  0
   10.3502  -18.4114   27.5888 O   0  0  0  0  0  0  0  0  0  0  0  0
  2  1  1  6
  2  3  1  0
  3  4  1  0
  4  8  1  0
  5  4  2  0
  5  6  1  0
  6  7  1  0
  8  7  2  0
  9  2  1  0
  9 10  2  0
 11  9  1  0
 12 13  1  1
 12 11  1  0
 13 14  1  0
 14 15  2  0
 14 22  1  0
 15 16  1  0
 16 17  1  0
 17 18  2  0
 18 19  1  0
 20 19  2  0
 21 20  1  0
 22 21  2  0
 22 17  1  0
 23 12  1  0
 24 23  2  0
 25 26  1  0
 26 27  1  0
 27 28  1  0
 29 28  1  1
 29 30  1  0
 30 23  1  0
 31 29  1  0
 31 33  1  0
 32 31  2  0
M  END
$$$$
