HWM.pdb
     RDKit          3D

 33 35  0  0  1  0  0  0  0  0999 V2000
   10.3193  -18.5951   19.3826 N   0  0  0  0  0  0  0  0  0  0  0  0
   10.8738  -17.2696   19.4077 C   0  0  1  0  0  0  0  0  0  0  0  0
   10.7074  -16.6005   18.0793 C   0  0  0  0  0  0  0  0  0  0  0  0
   11.3241  -17.3653   16.9573 C   0  0  0  0  0  0  0  0  0  0  0  0
   12.6336  -17.1710   16.5364 C   0  0  0  0  0  0  0  0  0  0  0  0
   12.8303  -18.0281   15.5162 N   0  0  0  0  0  0  0  0  0  0  0  0
   11.6993  -18.7270   15.3062 C   0  0  0  0  0  0  0  0  0  0  0  0
   10.7772  -18.3186   16.1914 N   0  0  0  0  0  0  0  0  0  0  0  0
   10.3387  -16.4539   20.5274 C   0  0  0  0  0  0  0  0  0  0  0  0
   10.7661  -15.2829   20.6850 O   0  0  0  0  0  0  0  0  0  0  0  0
    9.3647  -16.9820   21.4062 N   0  0  0  0  0  0  0  0  0  0  0  0
    8.9375  -16.1979   22.5712 C   0  0  1  0  0  0  0  0  0  0  0  0
    7.4816  -16.4299   22.7552 C   0  0  0  0  0  0  0  0  0  0  0  0
    6.8809  -15.6492   23.8472 C   0  0  0  0  0  0  0  0  0  0  0  0
    6.0991  -16.2188   24.8676 C   0  0  0  0  0  0  0  0  0  0  0  0
    5.7298  -15.2614   25.7258 N   0  0  0  0  0  0  0  0  0  0  0  0
    6.2202  -14.0663   25.3414 C   0  0  0  0  0  0  0  0  0  0  0  0
    6.1040  -12.8061   25.8891 C   0  0  0  0  0  0  0  0  0  0  0  0
    6.7187  -11.7559   25.2503 C   0  0  0  0  0  0  0  0  0  0  0  0
    7.4210  -12.0018   24.0967 C   0  0  0  0  0  0  0  0  0  0  0  0
    7.5411  -13.2474   23.5479 C   0  0  0  0  0  0  0  0  0  0  0  0
    6.9323  -14.3212   24.1733 C   0  0  0  0  0  0  0  0  0  0  0  0
    9.7971  -16.4517   23.7385 C   0  0  0  0  0  0  0  0  0  0  0  0
   10.5493  -17.4550   23.7460 O   0  0  0  0  0  0  0  0  0  0  0  0
   11.2833  -14.4097   31.2642 C   0  0  0  0  0  0  0  0  0  0  0  0
   10.4380  -14.0453   29.7129 S   0  0  0  0  0  0  0  0  0  0  0  0
   10.9276  -15.2282   28.4077 C   0  0  0  0  0  0  0  0  0  0  0  0
   10.2441  -14.9155   27.1130 C   0  0  0  0  0  0  0  0  0  0  0  0
   10.6333  -15.8785   26.0469 C   0  0  2  0  0  0  0  0  0  0  0  0
    9.7996  -15.5992   24.8507 N   0  0  0  0  0  0  0  0  0  0  0  0
   10.3291  -17.2630   26.4444 C   0  0  0  0  0  0  0  0  0  0  0  0
    9.1844  -17.7347   26.4561 O   0  0  0  0  0  0  0  0  0  0  0  0
   11.3635  -18.1133   26.8340 O   0  0  0  0  0  0  0  0  0  0  0  0
  2  1  1  6
  2  3  1  0
  3  4  1  0
  4  8  1  0
  5  4  2  0
  5  6  1  0
  6  7  1  0
  8  7  2  0
  9  2  1  0
  9 10  2  0
 11  9  1  0
 12 13  1  1
 12 11  1  0
 13 14  1  0
 14 15  2  0
 14 22  1  0
 15 16  1  0
 16 17  1  0
 17 18  2  0
 18 19  1  0
 20 19  2  0
 21 20  1  0
 22 21  2  0
 22 17  1  0
 23 12  1  0
 24 23  2  0
 25 26  1  0
 26 27  1  0
 27 28  1  0
 29 28  1  1
 29 30  1  0
 30 23  1  0
 31 29  1  0
 31 33  1  0
 32 31  2  0
M  END
$$$$
