HWM.pdb
     RDKit          3D

 33 35  0  0  1  0  0  0  0  0999 V2000
    9.9510  -18.7745   20.3500 N   0  0  0  0  0  0  0  0  0  0  0  0
   10.5416  -17.4892   20.0964 C   0  0  1  0  0  0  0  0  0  0  0  0
    9.9787  -16.8843   18.8486 C   0  0  0  0  0  0  0  0  0  0  0  0
   10.3604  -17.6283   17.6137 C   0  0  0  0  0  0  0  0  0  0  0  0
   11.3967  -18.5525   17.5748 C   0  0  0  0  0  0  0  0  0  0  0  0
   11.4427  -19.0108   16.3091 N   0  0  0  0  0  0  0  0  0  0  0  0
   10.4819  -18.4039   15.5877 C   0  0  0  0  0  0  0  0  0  0  0  0
    9.8197  -17.5567   16.3903 N   0  0  0  0  0  0  0  0  0  0  0  0
   10.4405  -16.5797   21.2662 C   0  0  0  0  0  0  0  0  0  0  0  0
   10.8891  -15.4102   21.1676 O   0  0  0  0  0  0  0  0  0  0  0  0
    9.8511  -17.0181   22.4746 N   0  0  0  0  0  0  0  0  0  0  0  0
    9.6491  -16.0636   23.5712 C   0  0  1  0  0  0  0  0  0  0  0  0
    8.1928  -16.0199   23.8616 C   0  0  0  0  0  0  0  0  0  0  0  0
    7.5960  -14.6807   23.7470 C   0  0  0  0  0  0  0  0  0  0  0  0
    7.2623  -14.0839   22.5184 C   0  0  0  0  0  0  0  0  0  0  0  0
    6.7082  -12.8878   22.7460 N   0  0  0  0  0  0  0  0  0  0  0  0
    6.6478  -12.6382   24.0690 C   0  0  0  0  0  0  0  0  0  0  0  0
    6.1768  -11.5539   24.7790 C   0  0  0  0  0  0  0  0  0  0  0  0
    6.2616  -11.5830   26.1505 C   0  0  0  0  0  0  0  0  0  0  0  0
    6.8099  -12.6857   26.7569 C   0  0  0  0  0  0  0  0  0  0  0  0
    7.2785  -13.7641   26.0607 C   0  0  0  0  0  0  0  0  0  0  0  0
    7.2029  -13.7591   24.6789 C   0  0  0  0  0  0  0  0  0  0  0  0
   10.5387  -16.3500   24.7082 C   0  0  0  0  0  0  0  0  0  0  0  0
   11.1867  -15.4157   25.2369 O   0  0  0  0  0  0  0  0  0  0  0  0
   10.2252  -13.5205   28.7276 C   0  0  0  0  0  0  0  0  0  0  0  0
   10.4052  -15.1959   29.3713 S   0  0  0  0  0  0  0  0  0  0  0  0
   11.4571  -16.2095   28.2720 C   0  0  0  0  0  0  0  0  0  0  0  0
   10.6572  -17.2805   27.5978 C   0  0  0  0  0  0  0  0  0  0  0  0
   11.4196  -17.9078   26.4839 C   0  0  2  0  0  0  0  0  0  0  0  0
   10.6843  -17.6459   25.2210 N   0  0  0  0  0  0  0  0  0  0  0  0
   11.4703  -19.3716   26.6328 C   0  0  0  0  0  0  0  0  0  0  0  0
   10.9073  -20.1570   25.8587 O   0  0  0  0  0  0  0  0  0  0  0  0
   12.1820  -19.9344   27.6918 O   0  0  0  0  0  0  0  0  0  0  0  0
  2  1  1  1
  2  3  1  0
  3  4  1  0
  4  8  1  0
  5  4  2  0
  5  6  1  0
  6  7  1  0
  8  7  2  0
  9  2  1  0
  9 10  2  0
 11  9  1  0
 12 13  1  1
 12 11  1  0
 13 14  1  0
 14 15  2  0
 14 22  1  0
 15 16  1  0
 16 17  1  0
 17 18  2  0
 18 19  1  0
 20 19  2  0
 21 20  1  0
 22 21  2  0
 22 17  1  0
 23 12  1  0
 24 23  2  0
 25 26  1  0
 26 27  1  0
 27 28  1  0
 29 28  1  1
 29 30  1  0
 30 23  1  0
 31 29  1  0
 31 33  1  0
 32 31  2  0
M  END
$$$$
