HWM.pdb
     RDKit          3D

 33 35  0  0  1  0  0  0  0  0999 V2000
   10.3279  -20.6549   20.7418 N   0  0  0  0  0  0  0  0  0  0  0  0
    9.4989  -19.6924   21.4135 C   0  0  1  0  0  0  0  0  0  0  0  0
    8.5945  -20.3667   22.3971 C   0  0  0  0  0  0  0  0  0  0  0  0
    7.3517  -20.9071   21.7744 C   0  0  0  0  0  0  0  0  0  0  0  0
    7.0294  -20.7177   20.4366 C   0  0  0  0  0  0  0  0  0  0  0  0
    5.8510  -21.3407   20.2433 N   0  0  0  0  0  0  0  0  0  0  0  0
    5.4521  -21.8945   21.4034 C   0  0  0  0  0  0  0  0  0  0  0  0
    6.3744  -21.6271   22.3407 N   0  0  0  0  0  0  0  0  0  0  0  0
   10.2897  -18.5948   22.0265 C   0  0  0  0  0  0  0  0  0  0  0  0
   11.4925  -18.8045   22.3233 O   0  0  0  0  0  0  0  0  0  0  0  0
    9.7031  -17.3325   22.2758 N   0  0  0  0  0  0  0  0  0  0  0  0
   10.4726  -16.3020   22.9833 C   0  0  1  0  0  0  0  0  0  0  0  0
   10.3701  -15.0480   22.1933 C   0  0  0  0  0  0  0  0  0  0  0  0
    8.9982  -14.6968   21.7968 C   0  0  0  0  0  0  0  0  0  0  0  0
    7.8529  -15.2174   22.4249 C   0  0  0  0  0  0  0  0  0  0  0  0
    6.7621  -14.6826   21.8650 N   0  0  0  0  0  0  0  0  0  0  0  0
    7.1058  -13.8233   20.8852 C   0  0  0  0  0  0  0  0  0  0  0  0
    6.3462  -13.0508   20.0321 C   0  0  0  0  0  0  0  0  0  0  0  0
    6.9941  -12.2659   19.1084 C   0  0  0  0  0  0  0  0  0  0  0  0
    8.3662  -12.2822   19.0714 C   0  0  0  0  0  0  0  0  0  0  0  0
    9.1260  -13.0445   19.9132 C   0  0  0  0  0  0  0  0  0  0  0  0
    8.4969  -13.8422   20.8529 C   0  0  0  0  0  0  0  0  0  0  0  0
   10.0892  -16.2194   24.4018 C   0  0  0  0  0  0  0  0  0  0  0  0
   10.2876  -15.1554   25.0350 O   0  0  0  0  0  0  0  0  0  0  0  0
    8.2046  -12.7099   27.6709 C   0  0  0  0  0  0  0  0  0  0  0  0
    6.9584  -13.6394   26.7564 S   0  0  0  0  0  0  0  0  0  0  0  0
    7.0755  -15.4266   27.1231 C   0  0  0  0  0  0  0  0  0  0  0  0
    7.5516  -16.1920   25.9278 C   0  0  0  0  0  0  0  0  0  0  0  0
    8.6661  -17.1131   26.2813 C   0  0  2  0  0  0  0  0  0  0  0  0
    9.5048  -17.3030   25.0711 N   0  0  0  0  0  0  0  0  0  0  0  0
    8.1588  -18.4472   26.6421 C   0  0  0  0  0  0  0  0  0  0  0  0
    8.0572  -19.3808   25.8351 O   0  0  0  0  0  0  0  0  0  0  0  0
    7.7636  -18.7048   27.9544 O   0  0  0  0  0  0  0  0  0  0  0  0
  2  1  1  1
  2  3  1  0
  3  4  1  0
  4  8  1  0
  5  4  2  0
  5  6  1  0
  6  7  1  0
  8  7  2  0
  9  2  1  0
  9 10  2  0
 11  9  1  0
 12 13  1  6
 12 11  1  0
 13 14  1  0
 14 15  2  0
 14 22  1  0
 15 16  1  0
 16 17  1  0
 17 18  2  0
 18 19  1  0
 20 19  2  0
 21 20  1  0
 22 21  2  0
 22 17  1  0
 23 12  1  0
 24 23  2  0
 25 26  1  0
 26 27  1  0
 27 28  1  0
 29 28  1  6
 29 30  1  0
 30 23  1  0
 31 29  1  0
 31 33  1  0
 32 31  2  0
M  END
$$$$
