RLT.pdb
     RDKit          3D

 27 26  0  0  1  0  0  0  0  0999 V2000
    9.9092  -13.7482   16.9196 N   0  0  0  0  0  0  0  0  0  0  0  0
    8.7464  -13.6953   16.1120 C   0  0  0  0  0  0  0  0  0  0  0  0
    8.8638  -13.8359   14.8359 N   0  0  0  0  0  0  0  0  0  0  0  0
    7.4935  -13.4902   16.7369 N   0  0  0  0  0  0  0  0  0  0  0  0
    7.2741  -13.7657   18.1243 C   0  0  0  0  0  0  0  0  0  0  0  0
    7.9800  -15.0418   18.6023 C   0  0  0  0  0  0  0  0  0  0  0  0
    8.5731  -14.7213   19.9279 C   0  0  0  0  0  0  0  0  0  0  0  0
    8.0187  -15.4707   21.0841 C   0  0  2  0  0  0  0  0  0  0  0  0
    6.5756  -15.5858   20.9960 N   0  0  0  0  0  0  0  0  0  0  0  0
    8.4126  -14.9943   22.4019 C   0  0  0  0  0  0  0  0  0  0  0  0
    9.6222  -14.8135   22.6748 O   0  0  0  0  0  0  0  0  0  0  0  0
    8.0729  -13.7953   14.1758 C   0  0  0  0  0  0  0  0  0  0  0  0
    5.7675  -12.3634   27.3695 C   0  0  1  0  0  0  0  0  0  0  0  0
    6.9404  -13.0922   26.8013 C   0  0  0  0  0  0  0  0  0  0  0  0
    8.0996  -12.1058   26.7583 C   0  0  0  0  0  0  0  0  0  0  0  0
    6.6742  -13.5068   25.3928 C   0  0  2  0  0  0  0  0  0  0  0  0
    7.8287  -14.2929   24.7680 N   0  0  0  0  0  0  0  0  0  0  0  0
    7.4738  -14.7145   23.4273 C   0  0  0  0  0  0  0  0  0  0  0  0
    7.9735  -15.5075   25.6031 O   0  0  0  0  0  0  0  0  0  0  0  0
    6.9440  -16.1127   25.9768 C   0  0  0  0  0  0  0  0  0  0  0  0
    9.2173  -18.7196   24.8636 C   0  0  2  0  0  0  0  0  0  0  0  0
   10.0625  -18.3244   26.0477 O   0  0  0  0  0  0  0  0  0  0  0  0
   11.2812  -17.8545   25.5853 C   0  0  2  0  0  0  0  0  0  0  0  0
    9.3385  -17.2318   26.8070 N   0  0  0  0  0  0  0  0  0  0  0  0
    9.2349  -16.0277   26.0065 C   0  0  0  0  0  0  0  0  0  0  0  0
   10.0694  -16.9488   28.0721 O   0  0  0  0  0  0  0  0  0  0  0  0
   10.1805  -17.8277   28.9775 O   0  0  0  0  0  0  0  0  0  0  0  0
  2  1  1  0
  3  2  2  0
  4  2  1  0
  5  4  1  0
  6  5  1  0
  7  6  1  0
  8 10  1  0
  8  9  1  1
  8  7  1  0
 10 17  1  0
 10 11  2  0
 13 12  1  1
 13 14  1  0
 15 13  1  0
 16 15  1  6
 17 16  1  0
 18 16  1  0
 19 18  2  0
 21 20  1  1
 21 23  1  0
 21 22  1  0
 23 24  1  1
 24 18  1  0
 25 27  1  0
 25 23  1  0
 26 25  2  0
M  END
$$$$
