RLT.pdb
     RDKit          3D

 27 26  0  0  1  0  0  0  0  0999 V2000
    9.9041  -13.8830   18.0802 N   0  0  0  0  0  0  0  0  0  0  0  0
    8.6874  -13.6500   17.3928 C   0  0  0  0  0  0  0  0  0  0  0  0
    8.6277  -12.6908   16.5336 N   0  0  0  0  0  0  0  0  0  0  0  0
    7.5776  -14.4817   17.6741 N   0  0  0  0  0  0  0  0  0  0  0  0
    7.5957  -15.4562   18.7224 C   0  0  0  0  0  0  0  0  0  0  0  0
    7.0619  -14.9147   20.0554 C   0  0  0  0  0  0  0  0  0  0  0  0
    8.2381  -14.7840   20.9561 C   0  0  0  0  0  0  0  0  0  0  0  0
    8.3298  -15.7831   22.0512 C   0  0  2  0  0  0  0  0  0  0  0  0
    7.0705  -16.4774   22.2395 N   0  0  0  0  0  0  0  0  0  0  0  0
    8.8357  -15.2906   23.3241 C   0  0  0  0  0  0  0  0  0  0  0  0
   10.0328  -14.9376   23.4362 O   0  0  0  0  0  0  0  0  0  0  0  0
    7.7774  -12.4392   16.0078 C   0  0  0  0  0  0  0  0  0  0  0  0
    7.7312  -11.6542   25.3441 C   0  0  2  0  0  0  0  0  0  0  0  0
    6.7233  -12.7412   25.5240 C   0  0  0  0  0  0  0  0  0  0  0  0
    5.5501  -12.1394   26.2857 C   0  0  0  0  0  0  0  0  0  0  0  0
    7.2730  -13.8373   26.3744 C   0  0  2  0  0  0  0  0  0  0  0  0
    8.4477  -14.5718   25.7249 N   0  0  0  0  0  0  0  0  0  0  0  0
    8.0234  -15.1846   24.4816 C   0  0  0  0  0  0  0  0  0  0  0  0
    8.8022  -15.6567   26.6687 O   0  0  0  0  0  0  0  0  0  0  0  0
    9.0037  -15.3729   27.8708 C   0  0  0  0  0  0  0  0  0  0  0  0
    6.9845  -18.8663   27.4979 C   0  0  2  0  0  0  0  0  0  0  0  0
    8.3770  -19.2596   27.0750 O   0  0  0  0  0  0  0  0  0  0  0  0
    8.3408  -19.6614   25.7495 C   0  0  2  0  0  0  0  0  0  0  0  0
    9.2805  -18.0534   27.2279 N   0  0  0  0  0  0  0  0  0  0  0  0
    8.9265  -17.0187   26.2764 C   0  0  0  0  0  0  0  0  0  0  0  0
   10.6945  -18.4735   27.0308 O   0  0  0  0  0  0  0  0  0  0  0  0
   11.4134  -17.9565   26.1252 O   0  0  0  0  0  0  0  0  0  0  0  0
  2  1  1  0
  3  2  2  0
  4  2  1  0
  5  4  1  0
  6  5  1  0
  7  6  1  0
  8 10  1  0
  8  9  1  1
  8  7  1  0
 10 17  1  0
 10 11  2  0
 13 12  1  6
 13 14  1  0
 15 13  1  0
 16 15  1  6
 17 16  1  0
 18 16  1  0
 19 18  2  0
 21 20  1  1
 21 23  1  0
 21 22  1  0
 23 24  1  1
 24 18  1  0
 25 27  1  0
 25 23  1  0
 26 25  2  0
M  END
$$$$
