RLT.pdb
     RDKit          3D

 27 26  0  0  1  0  0  0  0  0999 V2000
    7.3435  -15.3871   15.3856 N   0  0  0  0  0  0  0  0  0  0  0  0
    8.7415  -15.3083   15.6018 C   0  0  0  0  0  0  0  0  0  0  0  0
    9.5420  -15.6544   14.6524 N   0  0  0  0  0  0  0  0  0  0  0  0
    9.2107  -14.8504   16.8558 N   0  0  0  0  0  0  0  0  0  0  0  0
    9.1282  -15.6461   18.0428 C   0  0  0  0  0  0  0  0  0  0  0  0
    7.8338  -15.4131   18.8335 C   0  0  0  0  0  0  0  0  0  0  0  0
    8.2194  -15.3833   20.2696 C   0  0  0  0  0  0  0  0  0  0  0  0
    8.0200  -14.0874   20.9673 C   0  0  2  0  0  0  0  0  0  0  0  0
    8.4839  -12.9758   20.1595 N   0  0  0  0  0  0  0  0  0  0  0  0
    8.5609  -13.9984   22.3157 C   0  0  0  0  0  0  0  0  0  0  0  0
    9.7327  -13.5958   22.5029 O   0  0  0  0  0  0  0  0  0  0  0  0
   10.5677  -15.5615   14.7000 C   0  0  0  0  0  0  0  0  0  0  0  0
    7.7771  -11.5008   25.9986 C   0  0  2  0  0  0  0  0  0  0  0  0
    6.6869  -12.4458   25.6137 C   0  0  0  0  0  0  0  0  0  0  0  0
    5.5490  -12.2408   26.6045 C   0  0  0  0  0  0  0  0  0  0  0  0
    7.1369  -13.8610   25.7604 C   0  0  2  0  0  0  0  0  0  0  0  0
    8.2937  -14.2248   24.8274 N   0  0  0  0  0  0  0  0  0  0  0  0
    7.8119  -14.3533   23.4663 C   0  0  0  0  0  0  0  0  0  0  0  0
    8.7537  -15.5596   25.2747 O   0  0  0  0  0  0  0  0  0  0  0  0
    8.7521  -15.8229   26.4981 C   0  0  0  0  0  0  0  0  0  0  0  0
    8.2383  -19.2346   23.5688 C   0  0  2  0  0  0  0  0  0  0  0  0
    9.6887  -18.8880   23.7900 O   0  0  0  0  0  0  0  0  0  0  0  0
   10.2176  -18.4143   22.6002 C   0  0  2  0  0  0  0  0  0  0  0  0
    9.7655  -17.8151   24.8565 N   0  0  0  0  0  0  0  0  0  0  0  0
    9.2016  -16.5687   24.3771 C   0  0  0  0  0  0  0  0  0  0  0  0
   11.1868  -17.6198   25.2522 O   0  0  0  0  0  0  0  0  0  0  0  0
   11.7697  -16.5084   25.0811 O   0  0  0  0  0  0  0  0  0  0  0  0
  2  1  1  0
  3  2  2  0
  4  2  1  0
  5  4  1  0
  6  5  1  0
  7  6  1  0
  8 10  1  0
  8  9  1  6
  8  7  1  0
 10 17  1  0
 10 11  2  0
 13 12  1  6
 13 14  1  0
 15 13  1  0
 16 15  1  6
 17 16  1  0
 18 16  1  0
 19 18  2  0
 21 20  1  6
 21 23  1  0
 21 22  1  0
 23 24  1  1
 24 18  1  0
 25 27  1  0
 25 23  1  0
 26 25  2  0
M  END
$$$$
