RLT.pdb
     RDKit          3D

 27 26  0  0  1  0  0  0  0  0999 V2000
    9.6952  -14.8028   16.3373 N   0  0  0  0  0  0  0  0  0  0  0  0
    8.5306  -14.1878   15.8148 C   0  0  0  0  0  0  0  0  0  0  0  0
    8.1621  -14.4666   14.6113 N   0  0  0  0  0  0  0  0  0  0  0  0
    7.8109  -13.2874   16.6354 N   0  0  0  0  0  0  0  0  0  0  0  0
    8.1836  -13.0198   17.9913 C   0  0  0  0  0  0  0  0  0  0  0  0
    8.0817  -14.2544   18.8972 C   0  0  0  0  0  0  0  0  0  0  0  0
    8.6960  -13.8728   20.1967 C   0  0  0  0  0  0  0  0  0  0  0  0
    8.7315  -14.9355   21.2336 C   0  0  2  0  0  0  0  0  0  0  0  0
    7.5804  -15.8119   21.1312 N   0  0  0  0  0  0  0  0  0  0  0  0
    8.9073  -14.4830   22.6058 C   0  0  0  0  0  0  0  0  0  0  0  0
   10.0113  -14.0286   22.9865 O   0  0  0  0  0  0  0  0  0  0  0  0
    7.2981  -14.1109   14.1755 C   0  0  0  0  0  0  0  0  0  0  0  0
    5.2758  -12.4141   27.1416 C   0  0  1  0  0  0  0  0  0  0  0  0
    6.6309  -12.9039   26.7497 C   0  0  0  0  0  0  0  0  0  0  0  0
    7.5681  -11.7047   26.7940 C   0  0  0  0  0  0  0  0  0  0  0  0
    6.6284  -13.3978   25.3416 C   0  0  2  0  0  0  0  0  0  0  0  0
    7.9690  -13.9966   24.9111 N   0  0  0  0  0  0  0  0  0  0  0  0
    7.8656  -14.5295   23.5669 C   0  0  0  0  0  0  0  0  0  0  0  0
    8.2060  -15.1312   25.8329 O   0  0  0  0  0  0  0  0  0  0  0  0
    8.3671  -14.8986   27.0519 C   0  0  0  0  0  0  0  0  0  0  0  0
    6.5604  -18.8145   25.5427 C   0  0  2  0  0  0  0  0  0  0  0  0
    8.0504  -18.8918   25.7590 O   0  0  0  0  0  0  0  0  0  0  0  0
    8.6637  -19.1277   24.5393 C   0  0  2  0  0  0  0  0  0  0  0  0
    8.5189  -17.5688   26.3289 N   0  0  0  0  0  0  0  0  0  0  0  0
    8.2603  -16.4857   25.4008 C   0  0  0  0  0  0  0  0  0  0  0  0
    9.9738  -17.6539   26.6300 O   0  0  0  0  0  0  0  0  0  0  0  0
   10.8163  -16.9412   26.0081 O   0  0  0  0  0  0  0  0  0  0  0  0
  2  1  1  0
  3  2  2  0
  4  2  1  0
  5  4  1  0
  6  5  1  0
  7  6  1  0
  8 10  1  0
  8  9  1  1
  8  7  1  0
 10 17  1  0
 10 11  2  0
 13 12  1  1
 13 14  1  0
 15 13  1  0
 16 15  1  6
 17 16  1  0
 18 16  1  0
 19 18  2  0
 21 20  1  1
 21 23  1  0
 21 22  1  0
 23 24  1  1
 24 18  1  0
 25 27  1  0
 25 23  1  0
 26 25  2  0
M  END
$$$$
