RLT.pdb
     RDKit          3D

 27 26  0  0  1  0  0  0  0  0999 V2000
    8.3276  -15.1412   16.6536 N   0  0  0  0  0  0  0  0  0  0  0  0
    7.7843  -14.2221   17.5849 C   0  0  0  0  0  0  0  0  0  0  0  0
    8.1681  -12.9920   17.5467 N   0  0  0  0  0  0  0  0  0  0  0  0
    6.8363  -14.6884   18.5262 N   0  0  0  0  0  0  0  0  0  0  0  0
    7.2194  -15.2787   19.7727 C   0  0  0  0  0  0  0  0  0  0  0  0
    8.5435  -16.0501   19.6903 C   0  0  0  0  0  0  0  0  0  0  0  0
    8.8676  -16.4759   21.0779 C   0  0  0  0  0  0  0  0  0  0  0  0
    9.9116  -15.6802   21.7727 C   0  0  2  0  0  0  0  0  0  0  0  0
   11.2293  -16.2546   21.5795 N   0  0  0  0  0  0  0  0  0  0  0  0
    9.6752  -15.4099   23.1832 C   0  0  0  0  0  0  0  0  0  0  0  0
   10.4318  -15.8946   24.0566 O   0  0  0  0  0  0  0  0  0  0  0  0
    7.8393  -12.2646   18.1992 C   0  0  0  0  0  0  0  0  0  0  0  0
    5.6076  -12.1287   26.6165 C   0  0  1  0  0  0  0  0  0  0  0  0
    6.9244  -12.8270   26.5263 C   0  0  0  0  0  0  0  0  0  0  0  0
    7.9981  -11.7966   26.8485 C   0  0  0  0  0  0  0  0  0  0  0  0
    7.1806  -13.2957   25.1329 C   0  0  2  0  0  0  0  0  0  0  0  0
    8.4190  -14.1864   25.0153 N   0  0  0  0  0  0  0  0  0  0  0  0
    8.6018  -14.6029   23.6389 C   0  0  0  0  0  0  0  0  0  0  0  0
    8.1125  -15.3925   25.8183 O   0  0  0  0  0  0  0  0  0  0  0  0
    7.9621  -15.2754   27.0551 C   0  0  0  0  0  0  0  0  0  0  0  0
    5.8109  -18.5955   24.7878 C   0  0  2  0  0  0  0  0  0  0  0  0
    7.1839  -18.9993   25.2616 O   0  0  0  0  0  0  0  0  0  0  0  0
    7.9812  -19.2418   24.1547 C   0  0  2  0  0  0  0  0  0  0  0  0
    7.7606  -17.8612   26.0781 N   0  0  0  0  0  0  0  0  0  0  0  0
    7.9784  -16.6906   25.2513 C   0  0  0  0  0  0  0  0  0  0  0  0
    9.0410  -18.3021   26.6954 O   0  0  0  0  0  0  0  0  0  0  0  0
   10.1310  -17.7084   26.4428 O   0  0  0  0  0  0  0  0  0  0  0  0
  2  1  1  0
  3  2  2  0
  4  2  1  0
  5  4  1  0
  6  5  1  0
  7  6  1  0
  8 10  1  0
  8  9  1  1
  8  7  1  0
 10 17  1  0
 10 11  2  0
 13 12  1  1
 13 14  1  0
 15 13  1  0
 16 15  1  6
 17 16  1  0
 18 16  1  0
 19 18  2  0
 21 20  1  1
 21 23  1  0
 21 22  1  0
 23 24  1  1
 24 18  1  0
 25 27  1  0
 25 23  1  0
 26 25  2  0
M  END
$$$$
