RLT.pdb
     RDKit          3D

 27 26  0  0  1  0  0  0  0  0999 V2000
    7.8475  -13.7893   17.4540 N   0  0  0  0  0  0  0  0  0  0  0  0
    7.5527  -13.1390   18.6777 C   0  0  0  0  0  0  0  0  0  0  0  0
    7.8455  -11.8905   18.8094 N   0  0  0  0  0  0  0  0  0  0  0  0
    6.9445  -13.8854   19.7148 N   0  0  0  0  0  0  0  0  0  0  0  0
    6.6256  -15.2738   19.5751 C   0  0  0  0  0  0  0  0  0  0  0  0
    7.8663  -16.1768   19.5619 C   0  0  0  0  0  0  0  0  0  0  0  0
    8.1268  -16.5521   20.9772 C   0  0  0  0  0  0  0  0  0  0  0  0
    9.4157  -16.0816   21.5457 C   0  0  2  0  0  0  0  0  0  0  0  0
   10.4949  -17.0009   21.2396 N   0  0  0  0  0  0  0  0  0  0  0  0
    9.4077  -15.7593   22.9651 C   0  0  0  0  0  0  0  0  0  0  0  0
   10.2643  -16.2569   23.7325 O   0  0  0  0  0  0  0  0  0  0  0  0
    7.7082  -11.3543   19.6792 C   0  0  0  0  0  0  0  0  0  0  0  0
    5.9732  -12.2758   26.8668 C   0  0  1  0  0  0  0  0  0  0  0  0
    7.0519  -13.2902   26.6741 C   0  0  0  0  0  0  0  0  0  0  0  0
    8.3454  -12.6669   27.1809 C   0  0  0  0  0  0  0  0  0  0  0  0
    7.2522  -13.5808   25.2242 C   0  0  2  0  0  0  0  0  0  0  0  0
    8.3911  -14.5677   24.9596 N   0  0  0  0  0  0  0  0  0  0  0  0
    8.4540  -14.8858   23.5467 C   0  0  0  0  0  0  0  0  0  0  0  0
    8.0174  -15.8023   25.6873 O   0  0  0  0  0  0  0  0  0  0  0  0
    6.8057  -16.0868   25.8166 C   0  0  0  0  0  0  0  0  0  0  0  0
    7.6078  -19.1535   25.3642 C   0  0  2  0  0  0  0  0  0  0  0  0
    8.6691  -19.1070   26.4339 O   0  0  0  0  0  0  0  0  0  0  0  0
    9.9100  -19.2449   25.8333 C   0  0  2  0  0  0  0  0  0  0  0  0
    8.5784  -17.7688   27.1379 N   0  0  0  0  0  0  0  0  0  0  0  0
    8.9739  -16.6912   26.2526 C   0  0  0  0  0  0  0  0  0  0  0  0
    9.4493  -17.7911   28.3444 O   0  0  0  0  0  0  0  0  0  0  0  0
   10.4744  -17.0518   28.4286 O   0  0  0  0  0  0  0  0  0  0  0  0
  2  1  1  0
  3  2  2  0
  4  2  1  0
  5  4  1  0
  6  5  1  0
  7  6  1  0
  8 10  1  0
  8  9  1  1
  8  7  1  0
 10 17  1  0
 10 11  2  0
 13 12  1  1
 13 14  1  0
 15 13  1  0
 16 15  1  6
 17 16  1  0
 18 16  1  0
 19 18  2  0
 21 20  1  1
 21 23  1  0
 21 22  1  0
 23 24  1  1
 24 18  1  0
 25 27  1  0
 25 23  1  0
 26 25  2  0
M  END
$$$$
