RLT.pdb
     RDKit          3D

 27 26  0  0  1  0  0  0  0  0999 V2000
    7.0174  -14.1009   18.7992 N   0  0  0  0  0  0  0  0  0  0  0  0
    7.9269  -13.0171   18.7241 C   0  0  0  0  0  0  0  0  0  0  0  0
    7.6971  -12.0641   17.8870 N   0  0  0  0  0  0  0  0  0  0  0  0
    9.0582  -13.0190   19.5741 N   0  0  0  0  0  0  0  0  0  0  0  0
    9.8714  -14.1813   19.7661 C   0  0  0  0  0  0  0  0  0  0  0  0
    9.0512  -15.4521   20.0260 C   0  0  0  0  0  0  0  0  0  0  0  0
    9.8872  -16.3198   20.8977 C   0  0  0  0  0  0  0  0  0  0  0  0
    9.1941  -16.9292   22.0613 C   0  0  2  0  0  0  0  0  0  0  0  0
    7.7730  -17.0763   21.8119 N   0  0  0  0  0  0  0  0  0  0  0  0
    9.4222  -16.2879   23.3479 C   0  0  0  0  0  0  0  0  0  0  0  0
   10.5777  -15.9414   23.6871 O   0  0  0  0  0  0  0  0  0  0  0  0
    8.3143  -11.2486   17.7575 C   0  0  0  0  0  0  0  0  0  0  0  0
    8.3240  -12.5656   25.7023 C   0  0  2  0  0  0  0  0  0  0  0  0
    7.1990  -13.4986   25.3966 C   0  0  0  0  0  0  0  0  0  0  0  0
    5.9285  -12.8573   25.9380 C   0  0  0  0  0  0  0  0  0  0  0  0
    7.3721  -14.7916   26.1211 C   0  0  2  0  0  0  0  0  0  0  0  0
    8.5810  -15.5955   25.6380 N   0  0  0  0  0  0  0  0  0  0  0  0
    8.3762  -16.0250   24.2687 C   0  0  0  0  0  0  0  0  0  0  0  0
    8.6158  -16.8041   26.4932 O   0  0  0  0  0  0  0  0  0  0  0  0
    7.5399  -17.3755   26.7794 C   0  0  0  0  0  0  0  0  0  0  0  0
    9.6355  -20.1577   26.0935 C   0  0  2  0  0  0  0  0  0  0  0  0
   10.4918  -19.6915   27.2433 O   0  0  0  0  0  0  0  0  0  0  0  0
   11.7309  -19.3167   26.7496 C   0  0  2  0  0  0  0  0  0  0  0  0
    9.8113  -18.5050   27.8944 N   0  0  0  0  0  0  0  0  0  0  0  0
    9.8207  -17.3553   27.0115 C   0  0  0  0  0  0  0  0  0  0  0  0
   10.5069  -18.1817   29.1697 O   0  0  0  0  0  0  0  0  0  0  0  0
   11.1063  -17.0774   29.3296 O   0  0  0  0  0  0  0  0  0  0  0  0
  2  1  1  0
  3  2  2  0
  4  2  1  0
  5  4  1  0
  6  5  1  0
  7  6  1  0
  8 10  1  0
  8  9  1  6
  8  7  1  0
 10 17  1  0
 10 11  2  0
 13 12  1  6
 13 14  1  0
 15 13  1  0
 16 15  1  6
 17 16  1  0
 18 16  1  0
 19 18  2  0
 21 20  1  1
 21 23  1  0
 21 22  1  0
 23 24  1  1
 24 18  1  0
 25 27  1  0
 25 23  1  0
 26 25  2  0
M  END
$$$$
