RLT.pdb
     RDKit          3D

 27 26  0  0  1  0  0  0  0  0999 V2000
   10.0446  -13.1010   19.1524 N   0  0  0  0  0  0  0  0  0  0  0  0
    8.8382  -13.0193   18.4141 C   0  0  0  0  0  0  0  0  0  0  0  0
    8.3391  -11.8588   18.1572 N   0  0  0  0  0  0  0  0  0  0  0  0
    8.2225  -14.2183   17.9830 N   0  0  0  0  0  0  0  0  0  0  0  0
    7.4735  -15.0572   18.8685 C   0  0  0  0  0  0  0  0  0  0  0  0
    8.1449  -16.4136   19.1225 C   0  0  0  0  0  0  0  0  0  0  0  0
    9.0022  -16.2385   20.3251 C   0  0  0  0  0  0  0  0  0  0  0  0
    8.4738  -16.8160   21.5872 C   0  0  2  0  0  0  0  0  0  0  0  0
    7.0462  -17.0571   21.5007 N   0  0  0  0  0  0  0  0  0  0  0  0
    8.7949  -16.0880   22.8060 C   0  0  0  0  0  0  0  0  0  0  0  0
    9.9880  -15.8508   23.1066 O   0  0  0  0  0  0  0  0  0  0  0  0
    7.4408  -11.7114   17.6731 C   0  0  0  0  0  0  0  0  0  0  0  0
    5.8338  -12.5534   26.9767 C   0  0  1  0  0  0  0  0  0  0  0  0
    7.0713  -13.2990   26.5992 C   0  0  0  0  0  0  0  0  0  0  0  0
    8.1489  -12.2605   26.3183 C   0  0  0  0  0  0  0  0  0  0  0  0
    6.8650  -14.0600   25.3323 C   0  0  2  0  0  0  0  0  0  0  0  0
    8.0802  -14.8971   24.9279 N   0  0  0  0  0  0  0  0  0  0  0  0
    7.8009  -15.6170   23.7011 C   0  0  0  0  0  0  0  0  0  0  0  0
    8.2487  -15.8929   26.0111 O   0  0  0  0  0  0  0  0  0  0  0  0
    7.2340  -16.3165   26.6086 C   0  0  0  0  0  0  0  0  0  0  0  0
    9.4112  -19.2776   25.7854 C   0  0  2  0  0  0  0  0  0  0  0  0
   10.3236  -18.6670   26.8186 O   0  0  0  0  0  0  0  0  0  0  0  0
   11.5061  -18.2939   26.2005 C   0  0  2  0  0  0  0  0  0  0  0  0
    9.6360  -17.4502   27.4026 N   0  0  0  0  0  0  0  0  0  0  0  0
    9.5168  -16.3987   26.4119 C   0  0  0  0  0  0  0  0  0  0  0  0
   10.4119  -16.9668   28.5770 O   0  0  0  0  0  0  0  0  0  0  0  0
   10.9543  -15.8221   28.5802 O   0  0  0  0  0  0  0  0  0  0  0  0
  2  1  1  0
  3  2  2  0
  4  2  1  0
  5  4  1  0
  6  5  1  0
  7  6  1  0
  8 10  1  0
  8  9  1  6
  8  7  1  0
 10 17  1  0
 10 11  2  0
 13 12  1  1
 13 14  1  0
 15 13  1  0
 16 15  1  6
 17 16  1  0
 18 16  1  0
 19 18  2  0
 21 20  1  1
 21 23  1  0
 21 22  1  0
 23 24  1  1
 24 18  1  0
 25 27  1  0
 25 23  1  0
 26 25  2  0
M  END
$$$$
