RLT.pdb
     RDKit          3D

 27 26  0  0  1  0  0  0  0  0999 V2000
    9.6111  -13.0380   16.3385 N   0  0  0  0  0  0  0  0  0  0  0  0
    8.2279  -13.3050   16.1870 C   0  0  0  0  0  0  0  0  0  0  0  0
    7.6742  -13.1065   15.0399 N   0  0  0  0  0  0  0  0  0  0  0  0
    7.5015  -13.7823   17.3036 N   0  0  0  0  0  0  0  0  0  0  0  0
    8.1237  -14.0568   18.5631 C   0  0  0  0  0  0  0  0  0  0  0  0
    8.7270  -15.4658   18.6407 C   0  0  0  0  0  0  0  0  0  0  0  0
    9.4844  -15.5278   19.9192 C   0  0  0  0  0  0  0  0  0  0  0  0
    8.7488  -16.0878   21.0815 C   0  0  2  0  0  0  0  0  0  0  0  0
    7.3261  -16.1757   20.8137 N   0  0  0  0  0  0  0  0  0  0  0  0
    8.9873  -15.4374   22.3616 C   0  0  0  0  0  0  0  0  0  0  0  0
   10.1486  -15.1080   22.6982 O   0  0  0  0  0  0  0  0  0  0  0  0
    6.6876  -13.3205   14.8307 C   0  0  0  0  0  0  0  0  0  0  0  0
    5.7506  -12.5799   26.8257 C   0  0  1  0  0  0  0  0  0  0  0  0
    7.0239  -13.2423   26.4138 C   0  0  0  0  0  0  0  0  0  0  0  0
    8.0809  -12.1511   26.3113 C   0  0  0  0  0  0  0  0  0  0  0  0
    6.8918  -13.8441   25.0547 C   0  0  2  0  0  0  0  0  0  0  0  0
    8.1516  -14.5828   24.5983 N   0  0  0  0  0  0  0  0  0  0  0  0
    7.9456  -15.1466   23.2787 C   0  0  0  0  0  0  0  0  0  0  0  0
    8.3157  -15.7045   25.5513 O   0  0  0  0  0  0  0  0  0  0  0  0
    7.2986  -16.3145   25.9508 C   0  0  0  0  0  0  0  0  0  0  0  0
    9.9102  -18.8860   25.0921 C   0  0  2  0  0  0  0  0  0  0  0  0
   10.6014  -18.3316   26.3118 O   0  0  0  0  0  0  0  0  0  0  0  0
   11.8070  -17.7713   25.9216 C   0  0  2  0  0  0  0  0  0  0  0  0
    9.7099  -17.2715   26.9248 N   0  0  0  0  0  0  0  0  0  0  0  0
    9.5821  -16.1295   26.0411 C   0  0  0  0  0  0  0  0  0  0  0  0
   10.2800  -16.8500   28.2332 O   0  0  0  0  0  0  0  0  0  0  0  0
   10.3933  -17.6670   29.1945 O   0  0  0  0  0  0  0  0  0  0  0  0
  2  1  1  0
  3  2  2  0
  4  2  1  0
  5  4  1  0
  6  5  1  0
  7  6  1  0
  8 10  1  0
  8  9  1  6
  8  7  1  0
 10 17  1  0
 10 11  2  0
 13 12  1  1
 13 14  1  0
 15 13  1  0
 16 15  1  6
 17 16  1  0
 18 16  1  0
 19 18  2  0
 21 20  1  1
 21 23  1  0
 21 22  1  0
 23 24  1  1
 24 18  1  0
 25 27  1  0
 25 23  1  0
 26 25  2  0
M  END
$$$$
