PVA.pdb
     RDKit          3D

 20 20  0  0  1  0  0  0  0  0999 V2000
   23.7618  -12.0274  -17.3641 N   0  0  0  0  0  0  0  0  0  0  0  0
   24.3842  -13.1512  -16.7336 C   0  0  0  0  0  0  0  0  0  0  0  0
   24.7903  -12.6462  -15.3877 C   0  0  0  0  0  0  0  0  0  0  0  0
   23.9471  -11.4292  -15.0814 C   0  0  0  0  0  0  0  0  0  0  0  0
   23.0799  -11.3321  -16.3112 C   0  0  1  0  0  0  0  0  0  0  0  0
   22.7768   -9.9572  -16.7104 C   0  0  0  0  0  0  0  0  0  0  0  0
   23.6154   -9.3126  -17.3872 O   0  0  0  0  0  0  0  0  0  0  0  0
   20.4605   -8.5478  -19.0814 C   0  0  0  0  0  0  0  0  0  0  0  0
   20.0707   -7.9539  -17.7456 C   0  0  1  0  0  0  0  0  0  0  0  0
   18.9036   -8.7129  -17.1938 C   0  0  0  0  0  0  0  0  0  0  0  0
   21.2513   -7.9392  -16.7884 C   0  0  2  0  0  0  0  0  0  0  0  0
   21.5731   -9.2821  -16.3798 N   0  0  0  0  0  0  0  0  0  0  0  0
   20.8861   -7.0712  -15.6455 C   0  0  0  0  0  0  0  0  0  0  0  0
   20.0937   -7.5223  -14.7904 O   0  0  0  0  0  0  0  0  0  0  0  0
   22.2791   -4.8018  -13.4011 C   0  0  0  0  0  0  0  0  0  0  0  0
   21.0622   -5.0291  -14.2802 C   0  0  2  0  0  0  0  0  0  0  0  0
   21.3961   -5.7543  -15.4812 N   0  0  0  0  0  0  0  0  0  0  0  0
   20.4085   -3.7151  -14.6176 C   0  0  0  0  0  0  0  0  0  0  0  0
   20.4085   -3.2469  -15.7662 O   0  0  0  0  0  0  0  0  0  0  0  0
   19.7787   -2.9889  -13.6180 O   0  0  0  0  0  0  0  0  0  0  0  0
  2  1  1  0
  3  2  1  0
  4  3  1  0
  4  5  1  0
  5  1  1  0
  6 12  1  0
  5  6  1  6
  7  6  2  0
  9  8  1  6
  9 11  1  0
 10  9  1  0
 11 12  1  1
 11 13  1  0
 13 14  2  0
 16 15  1  6
 16 18  1  0
 17 13  1  0
 17 16  1  0
 18 20  1  0
 19 18  2  0
M  END
$$$$
