PVA.pdb
     RDKit          3D

 20 20  0  0  1  0  0  0  0  0999 V2000
   21.8398  -11.3357  -18.2337 N   0  0  0  0  0  0  0  0  0  0  0  0
   21.8796  -12.4206  -19.1661 C   0  0  0  0  0  0  0  0  0  0  0  0
   20.5803  -13.1305  -18.9680 C   0  0  0  0  0  0  0  0  0  0  0  0
   19.6222  -12.1592  -18.3164 C   0  0  0  0  0  0  0  0  0  0  0  0
   20.4686  -10.9168  -18.1984 C   0  0  1  0  0  0  0  0  0  0  0  0
   20.1979  -10.1328  -16.9928 C   0  0  0  0  0  0  0  0  0  0  0  0
   19.0743   -9.5908  -16.8491 O   0  0  0  0  0  0  0  0  0  0  0  0
   22.9504  -10.1251  -13.6994 C   0  0  0  0  0  0  0  0  0  0  0  0
   21.4569   -9.9414  -13.5421 C   0  0  1  0  0  0  0  0  0  0  0  0
   21.1835   -9.2352  -12.2501 C   0  0  0  0  0  0  0  0  0  0  0  0
   20.8680   -9.2061  -14.7349 C   0  0  2  0  0  0  0  0  0  0  0  0
   21.1370   -9.9353  -15.9473 N   0  0  0  0  0  0  0  0  0  0  0  0
   21.4520   -7.8452  -14.7507 C   0  0  0  0  0  0  0  0  0  0  0  0
   22.6798   -7.7315  -14.9557 O   0  0  0  0  0  0  0  0  0  0  0  0
   20.4060   -4.3159  -15.1742 C   0  0  0  0  0  0  0  0  0  0  0  0
   21.3341   -5.3882  -14.6316 C   0  0  2  0  0  0  0  0  0  0  0  0
   20.6791   -6.6700  -14.5438 N   0  0  0  0  0  0  0  0  0  0  0  0
   21.8790   -4.9772  -13.2893 C   0  0  0  0  0  0  0  0  0  0  0  0
   21.4081   -5.3987  -12.2220 O   0  0  0  0  0  0  0  0  0  0  0  0
   22.9473   -4.0950  -13.2268 O   0  0  0  0  0  0  0  0  0  0  0  0
  2  1  1  0
  3  2  1  0
  4  3  1  0
  4  5  1  0
  5  1  1  0
  6 12  1  0
  5  6  1  1
  7  6  2  0
  9  8  1  6
  9 11  1  0
 10  9  1  0
 11 12  1  6
 11 13  1  0
 13 14  2  0
 16 15  1  1
 16 18  1  0
 17 13  1  0
 17 16  1  0
 18 20  1  0
 19 18  2  0
M  END
$$$$
