PVA.pdb
     RDKit          3D

 20 20  0  0  1  0  0  0  0  0999 V2000
   25.1231  -20.5688  -10.8456 N   0  0  0  0  0  0  0  0  0  0  0  0
   24.2459  -20.4470  -11.9696 C   0  0  0  0  0  0  0  0  0  0  0  0
   25.0793  -20.8575  -13.1394 C   0  0  0  0  0  0  0  0  0  0  0  0
   26.2284  -21.6880  -12.6143 C   0  0  0  0  0  0  0  0  0  0  0  0
   25.9506  -21.7045  -11.1323 C   0  0  1  0  0  0  0  0  0  0  0  0
   27.1589  -21.6860  -10.3069 C   0  0  0  0  0  0  0  0  0  0  0  0
   27.8375  -22.7354  -10.1835 O   0  0  0  0  0  0  0  0  0  0  0  0
   30.8810  -19.3525   -8.1297 C   0  0  0  0  0  0  0  0  0  0  0  0
   29.7314  -19.4342   -9.1099 C   0  0  1  0  0  0  0  0  0  0  0  0
   30.2778  -19.6280  -10.4907 C   0  0  0  0  0  0  0  0  0  0  0  0
   28.7561  -20.5323   -8.7183 C   0  0  2  0  0  0  0  0  0  0  0  0
   27.6317  -20.5388   -9.6181 N   0  0  0  0  0  0  0  0  0  0  0  0
   28.3560  -20.2911   -7.3130 C   0  0  0  0  0  0  0  0  0  0  0  0
   27.3013  -19.6548   -7.0999 O   0  0  0  0  0  0  0  0  0  0  0  0
   29.3986  -21.2675   -3.8226 C   0  0  0  0  0  0  0  0  0  0  0  0
   28.6214  -20.4942   -4.8731 C   0  0  2  0  0  0  0  0  0  0  0  0
   29.1166  -20.7503   -6.2031 N   0  0  0  0  0  0  0  0  0  0  0  0
   28.6556  -19.0198   -4.5683 C   0  0  0  0  0  0  0  0  0  0  0  0
   29.4756  -18.2505   -5.0920 O   0  0  0  0  0  0  0  0  0  0  0  0
   27.7428  -18.4865   -3.6707 O   0  0  0  0  0  0  0  0  0  0  0  0
  2  1  1  0
  3  2  1  0
  4  3  1  0
  4  5  1  0
  5  1  1  0
  6 12  1  0
  5  6  1  1
  7  6  2  0
  9  8  1  1
  9 11  1  0
 10  9  1  0
 11 12  1  6
 11 13  1  0
 13 14  2  0
 16 15  1  1
 16 18  1  0
 17 13  1  0
 17 16  1  0
 18 20  1  0
 19 18  2  0
M  END
$$$$
