PVA.pdb
     RDKit          3D

 20 20  0  0  1  0  0  0  0  0999 V2000
   18.8642  -13.5406  -16.3680 N   0  0  0  0  0  0  0  0  0  0  0  0
   18.1533  -14.3283  -17.3282 C   0  0  0  0  0  0  0  0  0  0  0  0
   17.1277  -13.3978  -17.8883 C   0  0  0  0  0  0  0  0  0  0  0  0
   17.5987  -11.9852  -17.6259 C   0  0  0  0  0  0  0  0  0  0  0  0
   18.9122  -12.2191  -16.9232 C   0  0  1  0  0  0  0  0  0  0  0  0
   19.2078  -11.2316  -15.8844 C   0  0  0  0  0  0  0  0  0  0  0  0
   18.7227  -11.3810  -14.7358 O   0  0  0  0  0  0  0  0  0  0  0  0
   22.2507   -9.9142  -14.0647 C   0  0  0  0  0  0  0  0  0  0  0  0
   21.6513   -8.7733  -14.8571 C   0  0  1  0  0  0  0  0  0  0  0  0
   22.4413   -8.5821  -16.1149 C   0  0  0  0  0  0  0  0  0  0  0  0
   20.1770   -9.0167  -15.1359 C   0  0  2  0  0  0  0  0  0  0  0  0
   20.0238  -10.0881  -16.0859 N   0  0  0  0  0  0  0  0  0  0  0  0
   19.6001   -7.7420  -15.6213 C   0  0  0  0  0  0  0  0  0  0  0  0
   19.7247   -7.4606  -16.8329 O   0  0  0  0  0  0  0  0  0  0  0  0
   17.0452   -5.2443  -14.7318 C   0  0  0  0  0  0  0  0  0  0  0  0
   18.3825   -5.6193  -15.3454 C   0  0  2  0  0  0  0  0  0  0  0  0
   18.9147   -6.8308  -14.7721 N   0  0  0  0  0  0  0  0  0  0  0  0
   19.3624   -4.4856  -15.1954 C   0  0  0  0  0  0  0  0  0  0  0  0
   20.3937   -4.5828  -14.5130 O   0  0  0  0  0  0  0  0  0  0  0  0
   19.1172   -3.2813  -15.8379 O   0  0  0  0  0  0  0  0  0  0  0  0
  2  1  1  0
  3  2  1  0
  4  3  1  0
  4  5  1  0
  5  1  1  0
  6 12  1  0
  5  6  1  1
  7  6  2  0
  9  8  1  6
  9 11  1  0
 10  9  1  0
 11 12  1  6
 11 13  1  0
 13 14  2  0
 16 15  1  1
 16 18  1  0
 17 13  1  0
 17 16  1  0
 18 20  1  0
 19 18  2  0
M  END
$$$$
