PVA.pdb
     RDKit          3D

 20 20  0  0  1  0  0  0  0  0999 V2000
   28.6346  -23.2739  -17.3657 N   0  0  0  0  0  0  0  0  0  0  0  0
   28.3960  -24.4532  -18.1404 C   0  0  0  0  0  0  0  0  0  0  0  0
   27.4055  -25.2323  -17.3384 C   0  0  0  0  0  0  0  0  0  0  0  0
   26.7156  -24.2680  -16.4003 C   0  0  0  0  0  0  0  0  0  0  0  0
   27.3747  -22.9594  -16.7569 C   0  0  1  0  0  0  0  0  0  0  0  0
   27.5611  -22.0640  -15.6145 C   0  0  0  0  0  0  0  0  0  0  0  0
   28.6240  -22.1268  -14.9488 O   0  0  0  0  0  0  0  0  0  0  0  0
   27.5639  -18.2734  -15.0968 C   0  0  0  0  0  0  0  0  0  0  0  0
   26.4424  -18.8662  -14.2723 C   0  0  1  0  0  0  0  0  0  0  0  0
   25.1428  -18.6473  -14.9836 C   0  0  0  0  0  0  0  0  0  0  0  0
   26.6970  -20.3359  -13.9797 C   0  0  2  0  0  0  0  0  0  0  0  0
   26.6032  -21.1051  -15.1935 N   0  0  0  0  0  0  0  0  0  0  0  0
   25.7115  -20.7633  -12.9602 C   0  0  0  0  0  0  0  0  0  0  0  0
   24.6783  -21.3510  -13.3472 O   0  0  0  0  0  0  0  0  0  0  0  0
   25.2687  -20.7766   -9.2088 C   0  0  0  0  0  0  0  0  0  0  0  0
   24.8632  -20.9769  -10.6582 C   0  0  2  0  0  0  0  0  0  0  0  0
   25.8905  -20.5346  -11.5685 N   0  0  0  0  0  0  0  0  0  0  0  0
   23.5637  -20.2698  -10.9397 C   0  0  0  0  0  0  0  0  0  0  0  0
   23.5101  -19.1972  -11.5602 O   0  0  0  0  0  0  0  0  0  0  0  0
   22.3734  -20.8256  -10.4952 O   0  0  0  0  0  0  0  0  0  0  0  0
  2  1  1  0
  3  2  1  0
  4  3  1  0
  4  5  1  0
  5  1  1  0
  6 12  1  0
  5  6  1  1
  7  6  2  0
  9  8  1  6
  9 11  1  0
 10  9  1  0
 11 12  1  6
 11 13  1  0
 13 14  2  0
 16 15  1  1
 16 18  1  0
 17 13  1  0
 17 16  1  0
 18 20  1  0
 19 18  2  0
M  END
$$$$
