PVA.pdb
     RDKit          3D

 20 20  0  0  1  0  0  0  0  0999 V2000
   28.7174  -20.5341  -15.9333 N   0  0  0  0  0  0  0  0  0  0  0  0
   29.2775  -19.5235  -16.7776 C   0  0  0  0  0  0  0  0  0  0  0  0
   28.3050  -18.3922  -16.7007 C   0  0  0  0  0  0  0  0  0  0  0  0
   27.4961  -18.5685  -15.4356 C   0  0  0  0  0  0  0  0  0  0  0  0
   28.0957  -19.8237  -14.8536 C   0  0  1  0  0  0  0  0  0  0  0  0
   27.1247  -20.6751  -14.1651 C   0  0  0  0  0  0  0  0  0  0  0  0
   26.6985  -21.7097  -14.7349 O   0  0  0  0  0  0  0  0  0  0  0  0
   25.5656  -19.4860  -10.3727 C   0  0  0  0  0  0  0  0  0  0  0  0
   25.6013  -20.9553  -10.7318 C   0  0  1  0  0  0  0  0  0  0  0  0
   24.4777  -21.6576  -10.0339 C   0  0  0  0  0  0  0  0  0  0  0  0
   25.5541  -21.1511  -12.2384 C   0  0  2  0  0  0  0  0  0  0  0  0
   26.6167  -20.4096  -12.8668 N   0  0  0  0  0  0  0  0  0  0  0  0
   24.2139  -20.7228  -12.7005 C   0  0  0  0  0  0  0  0  0  0  0  0
   24.0029  -19.4996  -12.8482 O   0  0  0  0  0  0  0  0  0  0  0  0
   21.4815  -22.0116  -14.7263 C   0  0  0  0  0  0  0  0  0  0  0  0
   21.9500  -21.1373  -13.5767 C   0  0  2  0  0  0  0  0  0  0  0  0
   23.1638  -21.6392  -12.9815 N   0  0  0  0  0  0  0  0  0  0  0  0
   20.8641  -21.0095  -12.5413 C   0  0  0  0  0  0  0  0  0  0  0  0
   20.9675  -21.4948  -11.4045 O   0  0  0  0  0  0  0  0  0  0  0  0
   19.6985  -20.3265  -12.8546 O   0  0  0  0  0  0  0  0  0  0  0  0
  2  1  1  0
  3  2  1  0
  4  3  1  0
  4  5  1  0
  5  1  1  0
  6 12  1  0
  5  6  1  6
  7  6  2  0
  9  8  1  6
  9 11  1  0
 10  9  1  0
 11 12  1  6
 11 13  1  0
 13 14  2  0
 16 15  1  6
 16 18  1  0
 17 13  1  0
 17 16  1  0
 18 20  1  0
 19 18  2  0
M  END
$$$$
