PVA.pdb
     RDKit          3D

 20 20  0  0  1  0  0  0  0  0999 V2000
   20.7980  -14.9415  -19.6833 N   0  0  0  0  0  0  0  0  0  0  0  0
   20.5710  -15.2699  -21.0575 C   0  0  0  0  0  0  0  0  0  0  0  0
   20.0868  -13.9965  -21.6703 C   0  0  0  0  0  0  0  0  0  0  0  0
   20.5344  -12.8601  -20.7792 C   0  0  0  0  0  0  0  0  0  0  0  0
   21.2804  -13.5909  -19.6914 C   0  0  1  0  0  0  0  0  0  0  0  0
   21.1369  -12.9822  -18.3684 C   0  0  0  0  0  0  0  0  0  0  0  0
   20.0815  -13.1701  -17.7143 O   0  0  0  0  0  0  0  0  0  0  0  0
   24.4572  -11.4534  -16.2428 C   0  0  0  0  0  0  0  0  0  0  0  0
   23.1462  -11.8169  -15.5811 C   0  0  1  0  0  0  0  0  0  0  0  0
   23.0488  -11.1093  -14.2649 C   0  0  0  0  0  0  0  0  0  0  0  0
   21.9694  -11.5033  -16.4907 C   0  0  2  0  0  0  0  0  0  0  0  0
   22.1293  -12.1741  -17.7550 N   0  0  0  0  0  0  0  0  0  0  0  0
   21.8991  -10.0311  -16.6351 C   0  0  0  0  0  0  0  0  0  0  0  0
   22.7768   -9.4621  -17.3195 O   0  0  0  0  0  0  0  0  0  0  0  0
   19.5519   -7.4002  -16.9534 C   0  0  0  0  0  0  0  0  0  0  0  0
   20.8544   -7.8263  -16.3000 C   0  0  2  0  0  0  0  0  0  0  0  0
   20.8814   -9.2430  -16.0315 N   0  0  0  0  0  0  0  0  0  0  0  0
   21.0859   -7.0417  -15.0356 C   0  0  0  0  0  0  0  0  0  0  0  0
   21.0365   -7.5618  -13.9107 O   0  0  0  0  0  0  0  0  0  0  0  0
   21.3659   -5.6858  -15.1148 O   0  0  0  0  0  0  0  0  0  0  0  0
  2  1  1  0
  3  2  1  0
  4  3  1  0
  4  5  1  0
  5  1  1  0
  6 12  1  0
  5  6  1  1
  7  6  2  0
  9  8  1  6
  9 11  1  0
 10  9  1  0
 11 12  1  6
 11 13  1  0
 13 14  2  0
 16 15  1  1
 16 18  1  0
 17 13  1  0
 17 16  1  0
 18 20  1  0
 19 18  2  0
M  END
$$$$
