PVA.pdb
     RDKit          3D

 20 20  0  0  1  0  0  0  0  0999 V2000
   27.6711  -20.4998  -15.2009 N   0  0  0  0  0  0  0  0  0  0  0  0
   27.9444  -20.3823  -16.6007 C   0  0  0  0  0  0  0  0  0  0  0  0
   27.5147  -18.9949  -16.9495 C   0  0  0  0  0  0  0  0  0  0  0  0
   27.4937  -18.1868  -15.6718 C   0  0  0  0  0  0  0  0  0  0  0  0
   27.9425  -19.2029  -14.6519 C   0  0  1  0  0  0  0  0  0  0  0  0
   27.3004  -19.0489  -13.3460 C   0  0  0  0  0  0  0  0  0  0  0  0
   27.3755  -17.9474  -12.7479 O   0  0  0  0  0  0  0  0  0  0  0  0
   24.7297  -22.1662  -11.8832 C   0  0  0  0  0  0  0  0  0  0  0  0
   24.4144  -20.6900  -11.7814 C   0  0  1  0  0  0  0  0  0  0  0  0
   23.4245  -20.4755  -10.6782 C   0  0  0  0  0  0  0  0  0  0  0  0
   25.6807  -19.8728  -11.5842 C   0  0  2  0  0  0  0  0  0  0  0  0
   26.5803  -20.0807  -12.6894 N   0  0  0  0  0  0  0  0  0  0  0  0
   26.2727  -20.2760  -10.2880 C   0  0  0  0  0  0  0  0  0  0  0  0
   26.7574  -21.4242  -10.1916 O   0  0  0  0  0  0  0  0  0  0  0  0
   27.4156  -18.7887   -7.0578 C   0  0  0  0  0  0  0  0  0  0  0  0
   26.8910  -19.9139   -7.9319 C   0  0  2  0  0  0  0  0  0  0  0  0
   26.3126  -19.4170   -9.1559 N   0  0  0  0  0  0  0  0  0  0  0  0
   25.8913  -20.7441   -7.1708 C   0  0  0  0  0  0  0  0  0  0  0  0
   24.6956  -20.8087   -7.4942 O   0  0  0  0  0  0  0  0  0  0  0  0
   26.3073  -21.4697   -6.0645 O   0  0  0  0  0  0  0  0  0  0  0  0
  2  1  1  0
  3  2  1  0
  4  3  1  0
  4  5  1  0
  5  1  1  0
  6 12  1  0
  5  6  1  1
  7  6  2  0
  9  8  1  1
  9 11  1  0
 10  9  1  0
 11 12  1  6
 11 13  1  0
 13 14  2  0
 16 15  1  1
 16 18  1  0
 17 13  1  0
 17 16  1  0
 18 20  1  0
 19 18  2  0
M  END
$$$$
