PVA.pdb
     RDKit          3D

 20 20  0  0  1  0  0  0  0  0999 V2000
   18.4455   -9.0948  -17.8386 N   0  0  0  0  0  0  0  0  0  0  0  0
   17.9939  -10.2972  -18.4696 C   0  0  0  0  0  0  0  0  0  0  0  0
   17.5181  -11.1541  -17.3423 C   0  0  0  0  0  0  0  0  0  0  0  0
   17.2254  -10.2466  -16.1689 C   0  0  0  0  0  0  0  0  0  0  0  0
   17.5529   -8.8879  -16.7352 C   0  0  1  0  0  0  0  0  0  0  0  0
   18.1408   -7.9697  -15.7590 C   0  0  0  0  0  0  0  0  0  0  0  0
   17.4870   -7.6593  -14.7328 O   0  0  0  0  0  0  0  0  0  0  0  0
   22.2596   -7.0212  -15.9324 C   0  0  0  0  0  0  0  0  0  0  0  0
   21.4624   -6.9284  -14.6499 C   0  0  1  0  0  0  0  0  0  0  0  0
   22.1572   -5.9946  -13.7076 C   0  0  0  0  0  0  0  0  0  0  0  0
   20.0292   -6.5045  -14.9267 C   0  0  2  0  0  0  0  0  0  0  0  0
   19.4293   -7.3897  -15.8913 N   0  0  0  0  0  0  0  0  0  0  0  0
   20.0633   -5.0989  -15.3917 C   0  0  0  0  0  0  0  0  0  0  0  0
   20.6933   -4.8384  -16.4395 O   0  0  0  0  0  0  0  0  0  0  0  0
   18.1203   -1.9910  -15.0784 C   0  0  0  0  0  0  0  0  0  0  0  0
   19.4370   -2.7198  -15.2802 C   0  0  2  0  0  0  0  0  0  0  0  0
   19.4134   -4.0400  -14.7005 N   0  0  0  0  0  0  0  0  0  0  0  0
   20.5740   -1.9111  -14.7135 C   0  0  0  0  0  0  0  0  0  0  0  0
   21.1822   -2.2463  -13.6858 O   0  0  0  0  0  0  0  0  0  0  0  0
   20.9681   -0.7452  -15.3528 O   0  0  0  0  0  0  0  0  0  0  0  0
  2  1  1  0
  3  2  1  0
  4  3  1  0
  4  5  1  0
  5  1  1  0
  6 12  1  0
  5  6  1  1
  7  6  2  0
  9  8  1  6
  9 11  1  0
 10  9  1  0
 11 12  1  6
 11 13  1  0
 13 14  2  0
 16 15  1  1
 16 18  1  0
 17 13  1  0
 17 16  1  0
 18 20  1  0
 19 18  2  0
M  END
$$$$
