PVA.pdb
     RDKit          3D

 20 20  0  0  1  0  0  0  0  0999 V2000
   21.6003  -14.4653  -18.9333 N   0  0  0  0  0  0  0  0  0  0  0  0
   21.5543  -15.0170  -20.2529 C   0  0  0  0  0  0  0  0  0  0  0  0
   20.9142  -13.9511  -21.0808 C   0  0  0  0  0  0  0  0  0  0  0  0
   21.0802  -12.6395  -20.3472 C   0  0  0  0  0  0  0  0  0  0  0  0
   21.8425  -13.0636  -19.1172 C   0  0  1  0  0  0  0  0  0  0  0  0
   21.4813  -12.3138  -17.9135 C   0  0  0  0  0  0  0  0  0  0  0  0
   20.4708  -12.6583  -17.2524 O   0  0  0  0  0  0  0  0  0  0  0  0
   23.6825  -11.6495  -14.8935 C   0  0  0  0  0  0  0  0  0  0  0  0
   23.1598  -10.3143  -15.3762 C   0  0  1  0  0  0  0  0  0  0  0  0
   24.2441   -9.6065  -16.1285 C   0  0  0  0  0  0  0  0  0  0  0  0
   21.9013  -10.4892  -16.2105 C   0  0  2  0  0  0  0  0  0  0  0  0
   22.2088  -11.1967  -17.4266 N   0  0  0  0  0  0  0  0  0  0  0  0
   21.3454   -9.1403  -16.4646 C   0  0  0  0  0  0  0  0  0  0  0  0
   21.8067   -8.4820  -17.4220 O   0  0  0  0  0  0  0  0  0  0  0  0
   18.2815   -7.2928  -16.1745 C   0  0  0  0  0  0  0  0  0  0  0  0
   19.7941   -7.2747  -16.0432 C   0  0  2  0  0  0  0  0  0  0  0  0
   20.3155   -8.5664  -15.6702 N   0  0  0  0  0  0  0  0  0  0  0  0
   20.2200   -6.2237  -15.0524 C   0  0  0  0  0  0  0  0  0  0  0  0
   20.7889   -6.5049  -13.9866 O   0  0  0  0  0  0  0  0  0  0  0  0
   19.9742   -4.8867  -15.3268 O   0  0  0  0  0  0  0  0  0  0  0  0
  2  1  1  0
  3  2  1  0
  4  3  1  0
  4  5  1  0
  5  1  1  0
  6 12  1  0
  5  6  1  1
  7  6  2  0
  9  8  1  6
  9 11  1  0
 10  9  1  0
 11 12  1  6
 11 13  1  0
 13 14  2  0
 16 15  1  1
 16 18  1  0
 17 13  1  0
 17 16  1  0
 18 20  1  0
 19 18  2  0
M  END
$$$$
