FLP.pdb
     RDKit          3D

 27 28  0  0  1  0  0  0  0  0999 V2000
    5.9651  -17.7168   26.0208 N   0  0  0  0  0  0  0  0  0  0  0  0
    6.4667  -16.4166   25.7000 C   0  0  1  0  0  0  0  0  0  0  0  0
    7.3402  -15.9353   26.8394 C   0  0  0  0  0  0  0  0  0  0  0  0
    7.3180  -14.4462   26.7964 C   0  0  0  0  0  0  0  0  0  0  0  0
    8.5006  -13.7630   26.7368 C   0  0  0  0  0  0  0  0  0  0  0  0
    8.4388  -12.3702   26.6980 C   0  0  0  0  0  0  0  0  0  0  0  0
    7.2148  -11.7369   26.7203 C   0  0  0  0  0  0  0  0  0  0  0  0
    6.0320  -12.4451   26.7806 C   0  0  0  0  0  0  0  0  0  0  0  0
    6.0798  -13.8249   26.8195 C   0  0  0  0  0  0  0  0  0  0  0  0
    7.1880  -16.4126   24.4005 C   0  0  0  0  0  0  0  0  0  0  0  0
    7.9561  -17.3466   24.1601 O   0  0  0  0  0  0  0  0  0  0  0  0
    8.4424  -12.3861   19.7810 C   0  0  0  0  0  0  0  0  0  0  0  0
    8.1913  -13.8612   20.1945 C   0  0  2  0  0  0  0  0  0  0  0  0
    7.3485  -14.5051   19.1420 C   0  0  0  0  0  0  0  0  0  0  0  0
    7.6538  -13.8867   21.5847 C   0  0  0  0  0  0  0  0  0  0  0  0
    7.8227  -15.2083   22.2688 C   0  0  2  0  0  0  0  0  0  0  0  0
    7.0190  -15.3776   23.4425 N   0  0  0  0  0  0  0  0  0  0  0  0
    9.2024  -15.5910   22.5688 C   0  0  0  0  0  0  0  0  0  0  0  0
    9.6606  -15.1912   23.7029 O   0  0  0  0  0  0  0  0  0  0  0  0
   10.0925  -16.3459   21.7714 N   0  0  0  0  0  0  0  0  0  0  0  0
    9.7223  -16.8252   20.4233 C   0  0  0  0  0  0  0  0  0  0  0  0
   10.2555  -18.2405   20.4717 C   0  0  0  0  0  0  0  0  0  0  0  0
   11.4393  -18.2014   21.3770 C   0  0  0  0  0  0  0  0  0  0  0  0
   11.4479  -16.7951   21.9356 C   0  0  1  0  0  0  0  0  0  0  0  0
   12.4042  -16.0075   21.0624 C   0  0  0  0  0  0  0  0  0  0  0  0
   11.9897  -15.4475   20.0139 O   0  0  0  0  0  0  0  0  0  0  0  0
   13.7410  -15.8623   21.3518 O   0  0  0  0  0  0  0  0  0  0  0  0
  2 10  1  0
  2  1  1  1
  3  2  1  0
  4  3  1  0
  4  9  1  0
  5  4  2  0
  6  5  1  0
  6  7  2  0
  7  8  1  0
  8  9  2  0
 10 11  2  0
 13 14  1  6
 13 12  1  0
 15 13  1  0
 16 15  1  1
 17 16  1  0
 17 10  1  0
 18 19  2  0
 18 16  1  0
 20 18  1  0
 21 20  1  0
 22 21  1  0
 23 22  1  0
 23 24  1  0
 24 25  1  6
 24 20  1  0
 25 27  1  0
 26 25  2  0
M  END
$$$$
