FLP.pdb
     RDKit          3D

 27 28  0  0  1  0  0  0  0  0999 V2000
    6.9099  -17.6827   26.6415 N   0  0  0  0  0  0  0  0  0  0  0  0
    7.5923  -16.6730   25.8932 C   0  0  1  0  0  0  0  0  0  0  0  0
    9.0182  -16.5744   26.3934 C   0  0  0  0  0  0  0  0  0  0  0  0
    9.1126  -15.3065   27.1702 C   0  0  0  0  0  0  0  0  0  0  0  0
    8.4804  -14.1886   26.7016 C   0  0  0  0  0  0  0  0  0  0  0  0
    8.5919  -13.0212   27.4565 C   0  0  0  0  0  0  0  0  0  0  0  0
    9.3199  -13.0279   28.6269 C   0  0  0  0  0  0  0  0  0  0  0  0
    9.9508  -14.1673   29.0829 C   0  0  0  0  0  0  0  0  0  0  0  0
    9.8479  -15.3299   28.3443 C   0  0  0  0  0  0  0  0  0  0  0  0
    7.5279  -16.9362   24.4319 C   0  0  0  0  0  0  0  0  0  0  0  0
    7.4114  -18.1049   24.0571 O   0  0  0  0  0  0  0  0  0  0  0  0
    8.6396  -13.4077   22.5133 C   0  0  0  0  0  0  0  0  0  0  0  0
    8.1493  -13.8351   21.1037 C   0  0  2  0  0  0  0  0  0  0  0  0
    7.7139  -12.6095   20.3682 C   0  0  0  0  0  0  0  0  0  0  0  0
    7.1338  -14.9162   21.2543 C   0  0  0  0  0  0  0  0  0  0  0  0
    7.6192  -16.0880   22.0508 C   0  0  2  0  0  0  0  0  0  0  0  0
    7.5958  -15.8933   23.4699 N   0  0  0  0  0  0  0  0  0  0  0  0
    8.9236  -16.6206   21.6576 C   0  0  0  0  0  0  0  0  0  0  0  0
    9.9003  -16.3535   22.4520 O   0  0  0  0  0  0  0  0  0  0  0  0
    9.2444  -17.3928   20.5180 N   0  0  0  0  0  0  0  0  0  0  0  0
    8.3674  -17.4366   19.3292 C   0  0  0  0  0  0  0  0  0  0  0  0
    8.3886  -18.9173   19.0185 C   0  0  0  0  0  0  0  0  0  0  0  0
    9.7236  -19.4100   19.4628 C   0  0  0  0  0  0  0  0  0  0  0  0
   10.3595  -18.2231   20.1531 C   0  0  1  0  0  0  0  0  0  0  0  0
   11.2323  -17.5547   19.1097 C   0  0  0  0  0  0  0  0  0  0  0  0
   12.3295  -18.0731   18.7750 O   0  0  0  0  0  0  0  0  0  0  0  0
   10.8906  -16.3775   18.4856 O   0  0  0  0  0  0  0  0  0  0  0  0
  2 10  1  0
  2  1  1  1
  3  2  1  0
  4  3  1  0
  4  9  1  0
  5  4  2  0
  6  5  1  0
  6  7  2  0
  7  8  1  0
  8  9  2  0
 10 11  2  0
 13 14  1  1
 13 12  1  0
 15 13  1  0
 16 15  1  6
 17 16  1  0
 17 10  1  0
 18 19  2  0
 18 16  1  0
 20 18  1  0
 21 20  1  0
 22 21  1  0
 23 22  1  0
 23 24  1  0
 24 25  1  6
 24 20  1  0
 25 27  1  0
 26 25  2  0
M  END
$$$$
