FLP.pdb
     RDKit          3D

 27 28  0  0  1  0  0  0  0  0999 V2000
    9.9629  -16.8700   21.3209 N   0  0  0  0  0  0  0  0  0  0  0  0
    9.3449  -15.6613   21.7706 C   0  0  1  0  0  0  0  0  0  0  0  0
    7.8777  -15.6951   21.3977 C   0  0  0  0  0  0  0  0  0  0  0  0
    7.6317  -14.5162   20.5205 C   0  0  0  0  0  0  0  0  0  0  0  0
    7.4473  -14.7093   19.1798 C   0  0  0  0  0  0  0  0  0  0  0  0
    7.2197  -13.5815   18.3916 C   0  0  0  0  0  0  0  0  0  0  0  0
    7.1879  -12.3325   18.9739 C   0  0  0  0  0  0  0  0  0  0  0  0
    7.3764  -12.1588   20.3298 C   0  0  0  0  0  0  0  0  0  0  0  0
    7.6027  -13.2679   21.1212 C   0  0  0  0  0  0  0  0  0  0  0  0
    9.5483  -15.4509   23.2277 C   0  0  0  0  0  0  0  0  0  0  0  0
   10.6805  -15.6183   23.6860 O   0  0  0  0  0  0  0  0  0  0  0  0
    7.7567  -11.8955   25.7390 C   0  0  0  0  0  0  0  0  0  0  0  0
    6.7729  -13.0831   25.5606 C   0  0  2  0  0  0  0  0  0  0  0  0
    5.4401  -12.6708   26.0955 C   0  0  0  0  0  0  0  0  0  0  0  0
    7.3805  -14.3058   26.1592 C   0  0  0  0  0  0  0  0  0  0  0  0
    8.6422  -14.7423   25.4803 C   0  0  2  0  0  0  0  0  0  0  0  0
    8.4894  -15.0679   24.0936 N   0  0  0  0  0  0  0  0  0  0  0  0
    9.3801  -15.8134   26.1497 C   0  0  0  0  0  0  0  0  0  0  0  0
    9.4207  -16.9392   25.5275 O   0  0  0  0  0  0  0  0  0  0  0  0
   10.0552  -15.7658   27.3906 N   0  0  0  0  0  0  0  0  0  0  0  0
    9.7230  -14.7641   28.4252 C   0  0  0  0  0  0  0  0  0  0  0  0
   11.1084  -14.3467   28.8677 C   0  0  0  0  0  0  0  0  0  0  0  0
   11.9751  -15.5459   28.6859 C   0  0  0  0  0  0  0  0  0  0  0  0
   11.0861  -16.5605   28.0003 C   0  0  1  0  0  0  0  0  0  0  0  0
   10.5313  -17.4391   29.1037 C   0  0  0  0  0  0  0  0  0  0  0  0
    9.3260  -17.3341   29.4516 O   0  0  0  0  0  0  0  0  0  0  0  0
   11.2870  -18.3740   29.7722 O   0  0  0  0  0  0  0  0  0  0  0  0
  2 10  1  0
  2  1  1  1
  3  2  1  0
  4  3  1  0
  4  9  1  0
  5  4  2  0
  6  5  1  0
  6  7  2  0
  7  8  1  0
  8  9  2  0
 10 11  2  0
 13 14  1  1
 13 12  1  0
 15 13  1  0
 16 15  1  1
 17 16  1  0
 17 10  1  0
 18 19  2  0
 18 16  1  0
 20 18  1  0
 21 20  1  0
 22 21  1  0
 23 22  1  0
 23 24  1  0
 24 25  1  1
 24 20  1  0
 25 27  1  0
 26 25  2  0
M  END
$$$$
