FLP.pdb
     RDKit          3D

 27 28  0  0  1  0  0  0  0  0999 V2000
    7.0439  -19.0256   27.4323 N   0  0  0  0  0  0  0  0  0  0  0  0
    7.6803  -17.7476   27.3507 C   0  0  1  0  0  0  0  0  0  0  0  0
    9.1507  -17.9128   27.6730 C   0  0  0  0  0  0  0  0  0  0  0  0
    9.6472  -16.5759   28.1041 C   0  0  0  0  0  0  0  0  0  0  0  0
   10.1965  -15.7369   27.1750 C   0  0  0  0  0  0  0  0  0  0  0  0
   10.6499  -14.4943   27.6170 C   0  0  0  0  0  0  0  0  0  0  0  0
   10.5338  -14.1553   28.9480 C   0  0  0  0  0  0  0  0  0  0  0  0
    9.9760  -15.0168   29.8704 C   0  0  0  0  0  0  0  0  0  0  0  0
    9.5232  -16.2504   29.4452 C   0  0  0  0  0  0  0  0  0  0  0  0
    7.4651  -17.1117   26.0248 C   0  0  0  0  0  0  0  0  0  0  0  0
    7.4549  -17.8371   25.0279 O   0  0  0  0  0  0  0  0  0  0  0  0
    5.3497  -13.2883   26.4849 C   0  0  0  0  0  0  0  0  0  0  0  0
    6.8427  -13.0574   26.1277 C   0  0  2  0  0  0  0  0  0  0  0  0
    7.1755  -11.6282   26.4092 C   0  0  0  0  0  0  0  0  0  0  0  0
    7.0843  -13.5349   24.7363 C   0  0  0  0  0  0  0  0  0  0  0  0
    7.1875  -15.0247   24.6230 C   0  0  2  0  0  0  0  0  0  0  0  0
    7.2738  -15.7120   25.8771 N   0  0  0  0  0  0  0  0  0  0  0  0
    8.2349  -15.5179   23.7288 C   0  0  0  0  0  0  0  0  0  0  0  0
    9.1479  -16.2387   24.2794 O   0  0  0  0  0  0  0  0  0  0  0  0
    8.3679  -15.3044   22.3379 N   0  0  0  0  0  0  0  0  0  0  0  0
    7.7940  -14.1181   21.6690 C   0  0  0  0  0  0  0  0  0  0  0  0
    7.1963  -14.7538   20.4328 C   0  0  0  0  0  0  0  0  0  0  0  0
    8.0595  -15.9277   20.1178 C   0  0  0  0  0  0  0  0  0  0  0  0
    9.0301  -16.0110   21.2757 C   0  0  1  0  0  0  0  0  0  0  0  0
   10.2813  -15.2862   20.8214 C   0  0  0  0  0  0  0  0  0  0  0  0
   10.4355  -14.0642   21.0820 O   0  0  0  0  0  0  0  0  0  0  0  0
   11.2920  -15.8990   20.1178 O   0  0  0  0  0  0  0  0  0  0  0  0
  2 10  1  0
  2  1  1  6
  3  2  1  0
  4  3  1  0
  4  9  1  0
  5  4  2  0
  6  5  1  0
  6  7  2  0
  7  8  1  0
  8  9  2  0
 10 11  2  0
 13 14  1  6
 13 12  1  0
 15 13  1  0
 16 15  1  1
 17 16  1  0
 17 10  1  0
 18 19  2  0
 18 16  1  0
 20 18  1  0
 21 20  1  0
 22 21  1  0
 23 22  1  0
 23 24  1  0
 24 25  1  6
 24 20  1  0
 25 27  1  0
 26 25  2  0
M  END
$$$$
