FLP.pdb
     RDKit          3D

 27 28  0  0  1  0  0  0  0  0999 V2000
    7.8873  -15.1494   20.3670 N   0  0  0  0  0  0  0  0  0  0  0  0
    8.5954  -15.9384   21.3267 C   0  0  1  0  0  0  0  0  0  0  0  0
    9.8416  -16.4989   20.6742 C   0  0  0  0  0  0  0  0  0  0  0  0
   10.3973  -17.5132   21.6134 C   0  0  0  0  0  0  0  0  0  0  0  0
   11.5058  -17.2027   22.3508 C   0  0  0  0  0  0  0  0  0  0  0  0
   11.9962  -18.1781   23.2188 C   0  0  0  0  0  0  0  0  0  0  0  0
   11.3635  -19.3995   23.3061 C   0  0  0  0  0  0  0  0  0  0  0  0
   10.2454  -19.6933   22.5528 C   0  0  0  0  0  0  0  0  0  0  0  0
    9.7499  -18.7358   21.6895 C   0  0  0  0  0  0  0  0  0  0  0  0
    8.9069  -15.1598   22.5537 C   0  0  0  0  0  0  0  0  0  0  0  0
    9.6912  -14.2134   22.4571 O   0  0  0  0  0  0  0  0  0  0  0  0
    7.9803  -11.9847   25.1893 C   0  0  0  0  0  0  0  0  0  0  0  0
    6.8762  -13.0731   25.2688 C   0  0  2  0  0  0  0  0  0  0  0  0
    5.7120  -12.5051   26.0134 C   0  0  0  0  0  0  0  0  0  0  0  0
    7.4718  -14.3239   25.8196 C   0  0  0  0  0  0  0  0  0  0  0  0
    8.6573  -14.8144   25.0468 C   0  0  2  0  0  0  0  0  0  0  0  0
    8.3343  -15.4716   23.8156 N   0  0  0  0  0  0  0  0  0  0  0  0
    9.6041  -15.6370   25.7997 C   0  0  0  0  0  0  0  0  0  0  0  0
   10.0898  -16.6494   25.1709 O   0  0  0  0  0  0  0  0  0  0  0  0
   10.0533  -15.4577   27.1278 N   0  0  0  0  0  0  0  0  0  0  0  0
    9.3804  -14.5337   28.0645 C   0  0  0  0  0  0  0  0  0  0  0  0
   10.5756  -13.8593   28.7018 C   0  0  0  0  0  0  0  0  0  0  0  0
   11.6688  -14.8729   28.6964 C   0  0  0  0  0  0  0  0  0  0  0  0
   11.1049  -16.0401   27.9158 C   0  0  1  0  0  0  0  0  0  0  0  0
   10.5566  -17.0042   28.9489 C   0  0  0  0  0  0  0  0  0  0  0  0
    9.3198  -17.0503   29.1791 O   0  0  0  0  0  0  0  0  0  0  0  0
   11.3515  -17.8594   29.6762 O   0  0  0  0  0  0  0  0  0  0  0  0
  2 10  1  0
  2  1  1  6
  3  2  1  0
  4  3  1  0
  4  9  1  0
  5  4  2  0
  6  5  1  0
  6  7  2  0
  7  8  1  0
  8  9  2  0
 10 11  2  0
 13 14  1  1
 13 12  1  0
 15 13  1  0
 16 15  1  1
 17 16  1  0
 17 10  1  0
 18 19  2  0
 18 16  1  0
 20 18  1  0
 21 20  1  0
 22 21  1  0
 23 22  1  0
 23 24  1  0
 24 25  1  1
 24 20  1  0
 25 27  1  0
 26 25  2  0
M  END
$$$$
