FLP.pdb
     RDKit          3D

 27 28  0  0  1  0  0  0  0  0999 V2000
    5.4828  -17.6590   25.4304 N   0  0  0  0  0  0  0  0  0  0  0  0
    6.2593  -16.4597   25.3705 C   0  0  1  0  0  0  0  0  0  0  0  0
    6.8724  -16.2064   26.7317 C   0  0  0  0  0  0  0  0  0  0  0  0
    7.0945  -14.7367   26.8344 C   0  0  0  0  0  0  0  0  0  0  0  0
    8.3684  -14.2635   26.9834 C   0  0  0  0  0  0  0  0  0  0  0  0
    8.5358  -12.8820   27.0760 C   0  0  0  0  0  0  0  0  0  0  0  0
    7.4369  -12.0521   27.0158 C   0  0  0  0  0  0  0  0  0  0  0  0
    6.1588  -12.5499   26.8650 C   0  0  0  0  0  0  0  0  0  0  0  0
    5.9797  -13.9163   26.7722 C   0  0  0  0  0  0  0  0  0  0  0  0
    7.2850  -16.5239   24.2970 C   0  0  0  0  0  0  0  0  0  0  0  0
    7.8678  -17.5948   24.1142 O   0  0  0  0  0  0  0  0  0  0  0  0
    7.0201  -14.7914   20.0039 C   0  0  0  0  0  0  0  0  0  0  0  0
    7.4036  -13.7226   21.0626 C   0  0  2  0  0  0  0  0  0  0  0  0
    7.3571  -12.3795   20.4096 C   0  0  0  0  0  0  0  0  0  0  0  0
    8.6976  -14.1115   21.6925 C   0  0  0  0  0  0  0  0  0  0  0  0
    8.6235  -15.3844   22.4783 C   0  0  2  0  0  0  0  0  0  0  0  0
    7.6073  -15.4017   23.4879 N   0  0  0  0  0  0  0  0  0  0  0  0
    9.8866  -15.8429   23.0562 C   0  0  0  0  0  0  0  0  0  0  0  0
   10.0584  -15.5829   24.3048 O   0  0  0  0  0  0  0  0  0  0  0  0
   10.9388  -16.5370   22.4167 N   0  0  0  0  0  0  0  0  0  0  0  0
   10.8884  -16.8865   20.9816 C   0  0  0  0  0  0  0  0  0  0  0  0
   11.4034  -18.3088   21.0202 C   0  0  0  0  0  0  0  0  0  0  0  0
   12.3492  -18.3708   22.1709 C   0  0  0  0  0  0  0  0  0  0  0  0
   12.2232  -17.0211   22.8433 C   0  0  1  0  0  0  0  0  0  0  0  0
   13.3497  -16.1734   22.2867 C   0  0  0  0  0  0  0  0  0  0  0  0
   14.4927  -16.2141   22.8126 O   0  0  0  0  0  0  0  0  0  0  0  0
   13.1966  -15.3334   21.2082 O   0  0  0  0  0  0  0  0  0  0  0  0
  2 10  1  0
  2  1  1  1
  3  2  1  0
  4  3  1  0
  4  9  1  0
  5  4  2  0
  6  5  1  0
  6  7  2  0
  7  8  1  0
  8  9  2  0
 10 11  2  0
 13 14  1  6
 13 12  1  0
 15 13  1  0
 16 15  1  1
 17 16  1  0
 17 10  1  0
 18 19  2  0
 18 16  1  0
 20 18  1  0
 21 20  1  0
 22 21  1  0
 23 22  1  0
 23 24  1  0
 24 25  1  6
 24 20  1  0
 25 27  1  0
 26 25  2  0
M  END
$$$$
