FLP.pdb
     RDKit          3D

 27 28  0  0  1  0  0  0  0  0999 V2000
    7.1471  -19.0184   27.2994 N   0  0  0  0  0  0  0  0  0  0  0  0
    7.7014  -17.7001   27.3083 C   0  0  1  0  0  0  0  0  0  0  0  0
    9.1608  -17.7865   27.7028 C   0  0  0  0  0  0  0  0  0  0  0  0
    9.5245  -16.4662   28.2895 C   0  0  0  0  0  0  0  0  0  0  0  0
    9.2981  -16.2419   29.6189 C   0  0  0  0  0  0  0  0  0  0  0  0
    9.6518  -14.9939   30.1312 C   0  0  0  0  0  0  0  0  0  0  0  0
   10.2071  -14.0438   29.3011 C   0  0  0  0  0  0  0  0  0  0  0  0
   10.4276  -14.2901   27.9614 C   0  0  0  0  0  0  0  0  0  0  0  0
   10.0816  -15.5222   27.4419 C   0  0  0  0  0  0  0  0  0  0  0  0
    7.5136  -17.0178   26.0014 C   0  0  0  0  0  0  0  0  0  0  0  0
    7.4206  -17.7164   24.9898 O   0  0  0  0  0  0  0  0  0  0  0  0
    5.6090  -13.0302   26.5096 C   0  0  0  0  0  0  0  0  0  0  0  0
    7.1237  -12.9197   26.1877 C   0  0  2  0  0  0  0  0  0  0  0  0
    7.5679  -11.5275   26.4988 C   0  0  0  0  0  0  0  0  0  0  0  0
    7.3558  -13.3961   24.7942 C   0  0  0  0  0  0  0  0  0  0  0  0
    7.3098  -14.8866   24.6545 C   0  0  2  0  0  0  0  0  0  0  0  0
    7.4394  -15.6038   25.8879 N   0  0  0  0  0  0  0  0  0  0  0  0
    8.2259  -15.4557   23.6662 C   0  0  0  0  0  0  0  0  0  0  0  0
    9.0962  -16.2867   24.1223 O   0  0  0  0  0  0  0  0  0  0  0  0
    8.2727  -15.2095   22.2751 N   0  0  0  0  0  0  0  0  0  0  0  0
    7.7484  -13.9614   21.6822 C   0  0  0  0  0  0  0  0  0  0  0  0
    7.0121  -14.5091   20.4791 C   0  0  0  0  0  0  0  0  0  0  0  0
    7.7525  -15.7364   20.0696 C   0  0  0  0  0  0  0  0  0  0  0  0
    8.7959  -15.9319   21.1479 C   0  0  1  0  0  0  0  0  0  0  0  0
   10.0645  -15.2933   20.6187 C   0  0  0  0  0  0  0  0  0  0  0  0
   10.7418  -15.8722   19.7293 O   0  0  0  0  0  0  0  0  0  0  0  0
   10.5392  -14.0817   21.0644 O   0  0  0  0  0  0  0  0  0  0  0  0
  2 10  1  0
  2  1  1  6
  3  2  1  0
  4  3  1  0
  4  9  1  0
  5  4  2  0
  6  5  1  0
  6  7  2  0
  7  8  1  0
  8  9  2  0
 10 11  2  0
 13 14  1  6
 13 12  1  0
 15 13  1  0
 16 15  1  1
 17 16  1  0
 17 10  1  0
 18 19  2  0
 18 16  1  0
 20 18  1  0
 21 20  1  0
 22 21  1  0
 23 22  1  0
 23 24  1  0
 24 25  1  6
 24 20  1  0
 25 27  1  0
 26 25  2  0
M  END
$$$$
