FLP.pdb
     RDKit          3D

 27 28  0  0  1  0  0  0  0  0999 V2000
    6.8222  -18.8148   27.6501 N   0  0  0  0  0  0  0  0  0  0  0  0
    7.5623  -17.6067   27.4554 C   0  0  1  0  0  0  0  0  0  0  0  0
    9.0415  -17.9261   27.5094 C   0  0  0  0  0  0  0  0  0  0  0  0
    9.7437  -16.6502   27.8237 C   0  0  0  0  0  0  0  0  0  0  0  0
   10.3455  -15.9535   26.8131 C   0  0  0  0  0  0  0  0  0  0  0  0
   10.9927  -14.7640   27.1468 C   0  0  0  0  0  0  0  0  0  0  0  0
   11.0066  -14.3346   28.4565 C   0  0  0  0  0  0  0  0  0  0  0  0
   10.3929  -15.0527   29.4624 C   0  0  0  0  0  0  0  0  0  0  0  0
    9.7486  -16.2324   29.1448 C   0  0  0  0  0  0  0  0  0  0  0  0
    7.1811  -16.9285   26.1891 C   0  0  0  0  0  0  0  0  0  0  0  0
    6.8239  -17.6294   25.2399 O   0  0  0  0  0  0  0  0  0  0  0  0
    5.0779  -13.1298   26.3135 C   0  0  0  0  0  0  0  0  0  0  0  0
    6.5985  -12.8286   26.2296 C   0  0  2  0  0  0  0  0  0  0  0  0
    6.8049  -11.3780   26.5221 C   0  0  0  0  0  0  0  0  0  0  0  0
    7.1159  -13.3236   24.9220 C   0  0  0  0  0  0  0  0  0  0  0  0
    7.1066  -14.8163   24.7997 C   0  0  2  0  0  0  0  0  0  0  0  0
    7.2167  -15.5158   26.0450 N   0  0  0  0  0  0  0  0  0  0  0  0
    8.0625  -15.3765   23.8447 C   0  0  0  0  0  0  0  0  0  0  0  0
    8.8994  -16.2285   24.3242 O   0  0  0  0  0  0  0  0  0  0  0  0
    8.1801  -15.1017   22.4632 N   0  0  0  0  0  0  0  0  0  0  0  0
    7.5986  -13.8874   21.8537 C   0  0  0  0  0  0  0  0  0  0  0  0
    6.9874  -14.4683   20.5973 C   0  0  0  0  0  0  0  0  0  0  0  0
    7.8474  -15.6265   20.2212 C   0  0  0  0  0  0  0  0  0  0  0  0
    8.8307  -15.7601   21.3635 C   0  0  1  0  0  0  0  0  0  0  0  0
   10.0766  -15.0150   20.9280 C   0  0  0  0  0  0  0  0  0  0  0  0
   10.2622  -13.8241   21.2914 O   0  0  0  0  0  0  0  0  0  0  0  0
   11.0491  -15.5758   20.1331 O   0  0  0  0  0  0  0  0  0  0  0  0
  2 10  1  0
  2  1  1  6
  3  2  1  0
  4  3  1  0
  4  9  1  0
  5  4  2  0
  6  5  1  0
  6  7  2  0
  7  8  1  0
  8  9  2  0
 10 11  2  0
 13 14  1  6
 13 12  1  0
 15 13  1  0
 16 15  1  1
 17 16  1  0
 17 10  1  0
 18 19  2  0
 18 16  1  0
 20 18  1  0
 21 20  1  0
 22 21  1  0
 23 22  1  0
 23 24  1  0
 24 25  1  6
 24 20  1  0
 25 27  1  0
 26 25  2  0
M  END
$$$$
