FLP.pdb
     RDKit          3D

 27 28  0  0  1  0  0  0  0  0999 V2000
    7.5895  -18.9289   27.6723 N   0  0  0  0  0  0  0  0  0  0  0  0
    8.1239  -17.6429   27.3470 C   0  0  1  0  0  0  0  0  0  0  0  0
    9.5158  -17.5302   27.9326 C   0  0  0  0  0  0  0  0  0  0  0  0
    9.7737  -16.0785   28.1468 C   0  0  0  0  0  0  0  0  0  0  0  0
   10.2875  -15.3340   27.1218 C   0  0  0  0  0  0  0  0  0  0  0  0
   10.5151  -13.9789   27.3608 C   0  0  0  0  0  0  0  0  0  0  0  0
   10.2222  -13.4414   28.5957 C   0  0  0  0  0  0  0  0  0  0  0  0
    9.7040  -14.2102   29.6177 C   0  0  0  0  0  0  0  0  0  0  0  0
    9.4740  -15.5536   29.3936 C   0  0  0  0  0  0  0  0  0  0  0  0
    8.1112  -17.3990   25.8810 C   0  0  0  0  0  0  0  0  0  0  0  0
    8.2976  -18.3596   25.1310 O   0  0  0  0  0  0  0  0  0  0  0  0
    8.1957  -12.5347   22.0336 C   0  0  0  0  0  0  0  0  0  0  0  0
    7.8184  -14.0353   22.1593 C   0  0  2  0  0  0  0  0  0  0  0  0
    6.6512  -14.3008   21.2651 C   0  0  0  0  0  0  0  0  0  0  0  0
    7.6403  -14.3678   23.6016 C   0  0  0  0  0  0  0  0  0  0  0  0
    7.9682  -15.7910   23.9338 C   0  0  2  0  0  0  0  0  0  0  0  0
    7.8935  -16.1085   25.3288 N   0  0  0  0  0  0  0  0  0  0  0  0
    9.2320  -16.2897   23.3918 C   0  0  0  0  0  0  0  0  0  0  0  0
   10.2562  -16.1750   24.1626 O   0  0  0  0  0  0  0  0  0  0  0  0
    9.4680  -16.8833   22.1309 N   0  0  0  0  0  0  0  0  0  0  0  0
    8.4506  -16.8765   21.0591 C   0  0  0  0  0  0  0  0  0  0  0  0
    8.5617  -18.2994   20.5567 C   0  0  0  0  0  0  0  0  0  0  0  0
    9.9817  -18.6997   20.7711 C   0  0  0  0  0  0  0  0  0  0  0  0
   10.5949  -17.5436   21.5307 C   0  0  1  0  0  0  0  0  0  0  0  0
   11.2612  -16.6686   20.4878 C   0  0  0  0  0  0  0  0  0  0  0  0
   10.6632  -15.6589   20.0321 O   0  0  0  0  0  0  0  0  0  0  0  0
   12.5193  -16.9170   19.9902 O   0  0  0  0  0  0  0  0  0  0  0  0
  2 10  1  0
  2  1  1  6
  3  2  1  0
  4  3  1  0
  4  9  1  0
  5  4  2  0
  6  5  1  0
  6  7  2  0
  7  8  1  0
  8  9  2  0
 10 11  2  0
 13 14  1  6
 13 12  1  0
 15 13  1  0
 16 15  1  1
 17 16  1  0
 17 10  1  0
 18 19  2  0
 18 16  1  0
 20 18  1  0
 21 20  1  0
 22 21  1  0
 23 22  1  0
 23 24  1  0
 24 25  1  6
 24 20  1  0
 25 27  1  0
 26 25  2  0
M  END
$$$$
