FLP.pdb
     RDKit          3D

 27 28  0  0  1  0  0  0  0  0999 V2000
    8.4754  -17.7641   22.0909 N   0  0  0  0  0  0  0  0  0  0  0  0
    8.6148  -16.4464   21.5532 C   0  0  1  0  0  0  0  0  0  0  0  0
    7.4856  -16.1956   20.5760 C   0  0  0  0  0  0  0  0  0  0  0  0
    7.7177  -14.8452   19.9910 C   0  0  0  0  0  0  0  0  0  0  0  0
    8.5663  -14.7162   18.9269 C   0  0  0  0  0  0  0  0  0  0  0  0
    8.7579  -13.4363   18.4071 C   0  0  0  0  0  0  0  0  0  0  0  0
    8.1010  -12.3624   18.9684 C   0  0  0  0  0  0  0  0  0  0  0  0
    7.2481  -12.5138   20.0426 C   0  0  0  0  0  0  0  0  0  0  0  0
    7.0500  -13.7763   20.5666 C   0  0  0  0  0  0  0  0  0  0  0  0
    8.6660  -15.4192   22.6261 C   0  0  0  0  0  0  0  0  0  0  0  0
    8.7277  -14.2339   22.2926 O   0  0  0  0  0  0  0  0  0  0  0  0
    5.4898  -13.1282   26.4607 C   0  0  0  0  0  0  0  0  0  0  0  0
    7.0067  -13.0925   26.1327 C   0  0  2  0  0  0  0  0  0  0  0  0
    7.4300  -11.6631   26.0315 C   0  0  0  0  0  0  0  0  0  0  0  0
    7.2614  -13.9476   24.9384 C   0  0  0  0  0  0  0  0  0  0  0  0
    8.4644  -14.8288   25.0773 C   0  0  2  0  0  0  0  0  0  0  0  0
    8.6460  -15.7610   24.0047 N   0  0  0  0  0  0  0  0  0  0  0  0
    8.5868  -15.5319   26.3543 C   0  0  0  0  0  0  0  0  0  0  0  0
    7.6586  -16.3842   26.6156 O   0  0  0  0  0  0  0  0  0  0  0  0
    9.5965  -15.3944   27.3338 N   0  0  0  0  0  0  0  0  0  0  0  0
    9.4165  -14.5467   28.5309 C   0  0  0  0  0  0  0  0  0  0  0  0
   10.7580  -13.8490   28.5858 C   0  0  0  0  0  0  0  0  0  0  0  0
   11.7433  -14.8104   28.0137 C   0  0  0  0  0  0  0  0  0  0  0  0
   10.9042  -15.9644   27.5100 C   0  0  1  0  0  0  0  0  0  0  0  0
   10.9149  -16.9996   28.6170 C   0  0  0  0  0  0  0  0  0  0  0  0
   11.9752  -17.6183   28.8957 O   0  0  0  0  0  0  0  0  0  0  0  0
    9.8019  -17.3174   29.3602 O   0  0  0  0  0  0  0  0  0  0  0  0
  2 10  1  0
  2  1  1  1
  3  2  1  0
  4  3  1  0
  4  9  1  0
  5  4  2  0
  6  5  1  0
  6  7  2  0
  7  8  1  0
  8  9  2  0
 10 11  2  0
 13 14  1  6
 13 12  1  0
 15 13  1  0
 16 15  1  6
 17 16  1  0
 17 10  1  0
 18 19  2  0
 18 16  1  0
 20 18  1  0
 21 20  1  0
 22 21  1  0
 23 22  1  0
 23 24  1  0
 24 25  1  1
 24 20  1  0
 25 27  1  0
 26 25  2  0
M  END
$$$$
