FLP.pdb
     RDKit          3D

 27 28  0  0  1  0  0  0  0  0999 V2000
    8.1906  -17.2183   21.0884 N   0  0  0  0  0  0  0  0  0  0  0  0
    9.3985  -16.4826   21.2998 C   0  0  1  0  0  0  0  0  0  0  0  0
    9.7216  -15.7025   20.0428 C   0  0  0  0  0  0  0  0  0  0  0  0
    8.7648  -14.5618   19.9892 C   0  0  0  0  0  0  0  0  0  0  0  0
    9.2281  -13.2923   20.1958 C   0  0  0  0  0  0  0  0  0  0  0  0
    8.3022  -12.2510   20.1377 C   0  0  0  0  0  0  0  0  0  0  0  0
    6.9764  -12.5254   19.8794 C   0  0  0  0  0  0  0  0  0  0  0  0
    6.5286  -13.8143   19.6736 C   0  0  0  0  0  0  0  0  0  0  0  0
    7.4358  -14.8544   19.7286 C   0  0  0  0  0  0  0  0  0  0  0  0
    9.3034  -15.6048   22.4953 C   0  0  0  0  0  0  0  0  0  0  0  0
    9.9390  -14.5484   22.4919 O   0  0  0  0  0  0  0  0  0  0  0  0
    5.8188  -13.1644   26.6930 C   0  0  0  0  0  0  0  0  0  0  0  0
    7.2108  -13.3857   26.0422 C   0  0  2  0  0  0  0  0  0  0  0  0
    7.6588  -12.0918   25.4444 C   0  0  0  0  0  0  0  0  0  0  0  0
    7.1301  -14.5528   25.1180 C   0  0  0  0  0  0  0  0  0  0  0  0
    8.4561  -15.1923   24.8426 C   0  0  2  0  0  0  0  0  0  0  0  0
    8.5120  -15.9448   23.6248 N   0  0  0  0  0  0  0  0  0  0  0  0
    9.0068  -15.9967   25.9333 C   0  0  0  0  0  0  0  0  0  0  0  0
    8.9664  -17.2718   25.7645 O   0  0  0  0  0  0  0  0  0  0  0  0
    9.5789  -15.5493   27.1459 N   0  0  0  0  0  0  0  0  0  0  0  0
    8.9938  -14.4383   27.9253 C   0  0  0  0  0  0  0  0  0  0  0  0
   10.2411  -13.6641   28.2916 C   0  0  0  0  0  0  0  0  0  0  0  0
   11.3331  -14.6733   28.3980 C   0  0  0  0  0  0  0  0  0  0  0  0
   10.7029  -15.9695   27.9372 C   0  0  1  0  0  0  0  0  0  0  0  0
   10.2589  -16.6859   29.1969 C   0  0  0  0  0  0  0  0  0  0  0  0
    9.0447  -16.6893   29.5295 O   0  0  0  0  0  0  0  0  0  0  0  0
   11.1278  -17.3537   30.0283 O   0  0  0  0  0  0  0  0  0  0  0  0
  2 10  1  0
  2  1  1  6
  3  2  1  0
  4  3  1  0
  4  9  1  0
  5  4  2  0
  6  5  1  0
  6  7  2  0
  7  8  1  0
  8  9  2  0
 10 11  2  0
 13 14  1  6
 13 12  1  0
 15 13  1  0
 16 15  1  1
 17 16  1  0
 17 10  1  0
 18 19  2  0
 18 16  1  0
 20 18  1  0
 21 20  1  0
 22 21  1  0
 23 22  1  0
 23 24  1  0
 24 25  1  1
 24 20  1  0
 25 27  1  0
 26 25  2  0
M  END
$$$$
