FLP.pdb
     RDKit          3D

 27 28  0  0  1  0  0  0  0  0999 V2000
    6.9747  -18.9540   27.3385 N   0  0  0  0  0  0  0  0  0  0  0  0
    7.6298  -17.6857   27.2545 C   0  0  1  0  0  0  0  0  0  0  0  0
    9.0997  -17.8736   27.5663 C   0  0  0  0  0  0  0  0  0  0  0  0
    9.5743  -16.5996   28.1758 C   0  0  0  0  0  0  0  0  0  0  0  0
   10.8949  -16.4686   28.5040 C   0  0  0  0  0  0  0  0  0  0  0  0
   11.3009  -15.2614   29.0724 C   0  0  0  0  0  0  0  0  0  0  0  0
   10.3798  -14.2577   29.2821 C   0  0  0  0  0  0  0  0  0  0  0  0
    9.0507  -14.4099   28.9436 C   0  0  0  0  0  0  0  0  0  0  0  0
    8.6360  -15.6007   28.3800 C   0  0  0  0  0  0  0  0  0  0  0  0
    7.4152  -17.0445   25.9310 C   0  0  0  0  0  0  0  0  0  0  0  0
    7.2637  -17.7753   24.9496 O   0  0  0  0  0  0  0  0  0  0  0  0
    5.5844  -13.2576   26.4630 C   0  0  0  0  0  0  0  0  0  0  0  0
    7.0395  -12.9680   26.0059 C   0  0  2  0  0  0  0  0  0  0  0  0
    7.3237  -11.5197   26.2391 C   0  0  0  0  0  0  0  0  0  0  0  0
    7.2137  -13.4637   24.6108 C   0  0  0  0  0  0  0  0  0  0  0  0
    7.2877  -14.9562   24.5096 C   0  0  2  0  0  0  0  0  0  0  0  0
    7.3805  -15.6338   25.7684 N   0  0  0  0  0  0  0  0  0  0  0  0
    8.3119  -15.4766   23.6041 C   0  0  0  0  0  0  0  0  0  0  0  0
    9.2123  -16.2202   24.1450 O   0  0  0  0  0  0  0  0  0  0  0  0
    8.4345  -15.2676   22.2115 N   0  0  0  0  0  0  0  0  0  0  0  0
    7.9188  -14.0487   21.5539 C   0  0  0  0  0  0  0  0  0  0  0  0
    7.2659  -14.6460   20.3265 C   0  0  0  0  0  0  0  0  0  0  0  0
    8.0553  -15.8666   19.9958 C   0  0  0  0  0  0  0  0  0  0  0  0
    9.0380  -16.0082   21.1376 C   0  0  1  0  0  0  0  0  0  0  0  0
   10.3212  -15.3550   20.6643 C   0  0  0  0  0  0  0  0  0  0  0  0
   10.5862  -14.1685   20.9911 O   0  0  0  0  0  0  0  0  0  0  0  0
   11.2446  -15.9975   19.8727 O   0  0  0  0  0  0  0  0  0  0  0  0
  2 10  1  0
  2  1  1  6
  3  2  1  0
  4  3  1  0
  4  9  1  0
  5  4  2  0
  6  5  1  0
  6  7  2  0
  7  8  1  0
  8  9  2  0
 10 11  2  0
 13 14  1  6
 13 12  1  0
 15 13  1  0
 16 15  1  1
 17 16  1  0
 17 10  1  0
 18 19  2  0
 18 16  1  0
 20 18  1  0
 21 20  1  0
 22 21  1  0
 23 22  1  0
 23 24  1  0
 24 25  1  6
 24 20  1  0
 25 27  1  0
 26 25  2  0
M  END
$$$$
