FLP.pdb
     RDKit          3D

 27 28  0  0  1  0  0  0  0  0999 V2000
    9.6162  -15.3949   20.0713 N   0  0  0  0  0  0  0  0  0  0  0  0
    9.5234  -16.2834   21.1880 C   0  0  1  0  0  0  0  0  0  0  0  0
   10.6204  -17.3216   21.0785 C   0  0  0  0  0  0  0  0  0  0  0  0
   10.3230  -18.3676   22.0969 C   0  0  0  0  0  0  0  0  0  0  0  0
   11.0603  -18.4070   23.2474 C   0  0  0  0  0  0  0  0  0  0  0  0
   10.7521  -19.4004   24.1765 C   0  0  0  0  0  0  0  0  0  0  0  0
    9.7360  -20.2939   23.9140 C   0  0  0  0  0  0  0  0  0  0  0  0
    9.0033  -20.2372   22.7460 C   0  0  0  0  0  0  0  0  0  0  0  0
    9.2987  -19.2579   21.8179 C   0  0  0  0  0  0  0  0  0  0  0  0
    9.5740  -15.5486   22.4788 C   0  0  0  0  0  0  0  0  0  0  0  0
   10.6182  -14.9629   22.7729 O   0  0  0  0  0  0  0  0  0  0  0  0
    5.6974  -12.9771   26.5244 C   0  0  0  0  0  0  0  0  0  0  0  0
    7.0727  -13.1451   25.8242 C   0  0  2  0  0  0  0  0  0  0  0  0
    7.3035  -11.9525   24.9541 C   0  0  0  0  0  0  0  0  0  0  0  0
    7.1120  -14.4757   25.1530 C   0  0  0  0  0  0  0  0  0  0  0  0
    8.4700  -14.8512   24.6450 C   0  0  2  0  0  0  0  0  0  0  0  0
    8.4684  -15.5035   23.3695 N   0  0  0  0  0  0  0  0  0  0  0  0
    9.3031  -15.6123   25.5759 C   0  0  0  0  0  0  0  0  0  0  0  0
    9.7632  -16.7289   25.1313 O   0  0  0  0  0  0  0  0  0  0  0  0
    9.6673  -15.2740   26.8990 N   0  0  0  0  0  0  0  0  0  0  0  0
    8.8653  -14.3414   27.7183 C   0  0  0  0  0  0  0  0  0  0  0  0
    9.9591  -13.5001   28.3390 C   0  0  0  0  0  0  0  0  0  0  0  0
   11.1414  -14.3985   28.4716 C   0  0  0  0  0  0  0  0  0  0  0  0
   10.7287  -15.6793   27.7796 C   0  0  1  0  0  0  0  0  0  0  0  0
   10.2227  -16.5979   28.8739 C   0  0  0  0  0  0  0  0  0  0  0  0
   11.0350  -17.2629   29.5687 O   0  0  0  0  0  0  0  0  0  0  0  0
    8.8878  -16.7572   29.1647 O   0  0  0  0  0  0  0  0  0  0  0  0
  2 10  1  0
  2  1  1  6
  3  2  1  0
  4  3  1  0
  4  9  1  0
  5  4  2  0
  6  5  1  0
  6  7  2  0
  7  8  1  0
  8  9  2  0
 10 11  2  0
 13 14  1  6
 13 12  1  0
 15 13  1  0
 16 15  1  1
 17 16  1  0
 17 10  1  0
 18 19  2  0
 18 16  1  0
 20 18  1  0
 21 20  1  0
 22 21  1  0
 23 22  1  0
 23 24  1  0
 24 25  1  1
 24 20  1  0
 25 27  1  0
 26 25  2  0
M  END
$$$$
