AWL.pdb
     RDKit          3D

 28 29  0  0  1  0  0  0  0  0999 V2000
   10.2275  -18.6590   19.9712 C   0  0  0  0  0  0  0  0  0  0  0  0
   10.4676  -18.9035   21.4317 C   0  0  2  0  0  0  0  0  0  0  0  0
    9.4382  -19.7303   22.0146 N   0  0  0  0  0  0  0  0  0  0  0  0
   10.5736  -17.5878   22.1222 C   0  0  0  0  0  0  0  0  0  0  0  0
   11.4874  -16.7767   21.8271 O   0  0  0  0  0  0  0  0  0  0  0  0
    9.6624  -17.1834   23.1365 N   0  0  0  0  0  0  0  0  0  0  0  0
    9.7045  -15.8633   23.7238 C   0  0  1  0  0  0  0  0  0  0  0  0
    8.3381  -15.2856   23.9825 C   0  0  0  0  0  0  0  0  0  0  0  0
    7.4967  -15.2419   22.7724 C   0  0  0  0  0  0  0  0  0  0  0  0
    6.5049  -16.1242   22.4156 C   0  0  0  0  0  0  0  0  0  0  0  0
    5.9889  -15.7189   21.2387 N   0  0  0  0  0  0  0  0  0  0  0  0
    6.5920  -14.6108   20.8002 C   0  0  0  0  0  0  0  0  0  0  0  0
    6.4240  -13.8330   19.6768 C   0  0  0  0  0  0  0  0  0  0  0  0
    7.2207  -12.7209   19.5015 C   0  0  0  0  0  0  0  0  0  0  0  0
    8.1818  -12.4050   20.4655 C   0  0  0  0  0  0  0  0  0  0  0  0
    8.3458  -13.1877   21.5889 C   0  0  0  0  0  0  0  0  0  0  0  0
    7.5498  -14.3012   21.7669 C   0  0  0  0  0  0  0  0  0  0  0  0
   10.4384  -15.9513   25.0104 C   0  0  0  0  0  0  0  0  0  0  0  0
   11.4729  -15.2366   25.1875 O   0  0  0  0  0  0  0  0  0  0  0  0
    8.5952  -13.9745   28.8195 C   0  0  0  0  0  0  0  0  0  0  0  0
    9.6110  -14.5125   27.7508 C   0  0  1  0  0  0  0  0  0  0  0  0
   10.6824  -13.4209   27.7494 C   0  0  0  0  0  0  0  0  0  0  0  0
   10.0728  -15.8208   28.2739 C   0  0  0  0  0  0  0  0  0  0  0  0
   10.7715  -16.7763   27.3901 C   0  0  2  0  0  0  0  0  0  0  0  0
   10.0589  -16.7883   26.0675 N   0  0  0  0  0  0  0  0  0  0  0  0
   10.9079  -18.1665   27.7860 C   0  0  0  0  0  0  0  0  0  0  0  0
   10.4054  -19.2110   27.0460 O   0  0  0  0  0  0  0  0  0  0  0  0
   11.5049  -18.5206   28.8652 O   0  0  0  0  0  0  0  0  0  0  0  0
  2  1  1  6
  2  3  1  0
  4  5  2  0
  4  2  1  0
  6  4  1  0
  7  6  1  0
  7  8  1  1
  9  8  1  0
  9 17  1  0
 10 11  1  0
 10  9  2  0
 11 12  1  0
 12 13  1  0
 12 17  2  0
 13 14  2  0
 14 15  1  0
 16 15  2  0
 17 16  1  0
 18 19  2  0
 18  7  1  0
 21 20  1  1
 21 23  1  0
 21 22  1  0
 24 23  1  1
 24 25  1  0
 25 18  1  0
 26 24  1  0
 27 26  1  0
 28 26  2  0
M  END
$$$$
