AWL.pdb
     RDKit          3D

 28 29  0  0  1  0  0  0  0  0999 V2000
   11.9502  -18.0508   19.5246 C   0  0  0  0  0  0  0  0  0  0  0  0
   11.4650  -18.5352   20.8589 C   0  0  2  0  0  0  0  0  0  0  0  0
   10.2565  -19.3154   20.7405 N   0  0  0  0  0  0  0  0  0  0  0  0
   11.2747  -17.3576   21.7511 C   0  0  0  0  0  0  0  0  0  0  0  0
   12.2287  -16.5787   22.0029 O   0  0  0  0  0  0  0  0  0  0  0  0
   10.0246  -17.0545   22.3575 N   0  0  0  0  0  0  0  0  0  0  0  0
    9.8767  -15.9835   23.3169 C   0  0  1  0  0  0  0  0  0  0  0  0
    8.4462  -15.7426   23.7209 C   0  0  0  0  0  0  0  0  0  0  0  0
    7.5534  -15.5307   22.5666 C   0  0  0  0  0  0  0  0  0  0  0  0
    6.5620  -16.3694   22.1159 C   0  0  0  0  0  0  0  0  0  0  0  0
    5.9898  -15.7982   21.0380 N   0  0  0  0  0  0  0  0  0  0  0  0
    6.5553  -14.6218   20.7545 C   0  0  0  0  0  0  0  0  0  0  0  0
    6.3268  -13.6829   19.7739 C   0  0  0  0  0  0  0  0  0  0  0  0
    7.0968  -12.5392   19.7431 C   0  0  0  0  0  0  0  0  0  0  0  0
    8.0927  -12.3549   20.7060 C   0  0  0  0  0  0  0  0  0  0  0  0
    8.3173  -13.2987   21.6860 C   0  0  0  0  0  0  0  0  0  0  0  0
    7.5481  -14.4443   21.7191 C   0  0  0  0  0  0  0  0  0  0  0  0
   10.6633  -16.3321   24.5259 C   0  0  0  0  0  0  0  0  0  0  0  0
   11.9097  -16.0908   24.5490 O   0  0  0  0  0  0  0  0  0  0  0  0
   11.4546  -13.7560   28.3897 C   0  0  0  0  0  0  0  0  0  0  0  0
    9.9288  -14.0735   28.2041 C   0  0  1  0  0  0  0  0  0  0  0  0
    9.3300  -12.6768   28.0298 C   0  0  0  0  0  0  0  0  0  0  0  0
    9.8512  -14.9265   26.9938 C   0  0  0  0  0  0  0  0  0  0  0  0
   10.2970  -16.3341   27.0399 C   0  0  2  0  0  0  0  0  0  0  0  0
   10.1117  -16.9226   25.6700 N   0  0  0  0  0  0  0  0  0  0  0  0
    9.6739  -17.2640   27.9647 C   0  0  0  0  0  0  0  0  0  0  0  0
    8.4349  -17.8203   27.7497 O   0  0  0  0  0  0  0  0  0  0  0  0
   10.2363  -17.6293   29.0586 O   0  0  0  0  0  0  0  0  0  0  0  0
  2  1  1  6
  2  3  1  0
  4  5  2  0
  4  2  1  0
  6  4  1  0
  7  6  1  0
  7  8  1  1
  9  8  1  0
  9 17  1  0
 10 11  1  0
 10  9  2  0
 11 12  1  0
 12 13  1  0
 12 17  2  0
 13 14  2  0
 14 15  1  0
 16 15  2  0
 17 16  1  0
 18 19  2  0
 18  7  1  0
 21 20  1  6
 21 23  1  0
 21 22  1  0
 24 23  1  6
 24 25  1  0
 25 18  1  0
 26 24  1  0
 27 26  1  0
 28 26  2  0
M  END
$$$$
