AWL.pdb
     RDKit          3D

 28 29  0  0  1  0  0  0  0  0999 V2000
   12.3058  -18.5237   20.4549 C   0  0  0  0  0  0  0  0  0  0  0  0
   11.4339  -17.4566   19.8619 C   0  0  2  0  0  0  0  0  0  0  0  0
   12.1586  -16.6271   18.9293 N   0  0  0  0  0  0  0  0  0  0  0  0
   10.8453  -16.6541   20.9703 C   0  0  0  0  0  0  0  0  0  0  0  0
   11.3284  -15.5369   21.2842 O   0  0  0  0  0  0  0  0  0  0  0  0
    9.7236  -17.0999   21.7221 N   0  0  0  0  0  0  0  0  0  0  0  0
    9.0965  -16.2730   22.7283 C   0  0  1  0  0  0  0  0  0  0  0  0
    7.6093  -16.4867   22.8289 C   0  0  0  0  0  0  0  0  0  0  0  0
    6.9986  -15.7435   23.9464 C   0  0  0  0  0  0  0  0  0  0  0  0
    6.3312  -16.2667   25.0282 C   0  0  0  0  0  0  0  0  0  0  0  0
    5.9345  -15.2430   25.8093 N   0  0  0  0  0  0  0  0  0  0  0  0
    6.3077  -14.0677   25.2959 C   0  0  0  0  0  0  0  0  0  0  0  0
    6.1420  -12.7664   25.7132 C   0  0  0  0  0  0  0  0  0  0  0  0
    6.6554  -11.7418   24.9459 C   0  0  0  0  0  0  0  0  0  0  0  0
    7.3330  -12.0432   23.7615 C   0  0  0  0  0  0  0  0  0  0  0  0
    7.4961  -13.3486   23.3482 C   0  0  0  0  0  0  0  0  0  0  0  0
    6.9833  -14.3759   24.1141 C   0  0  0  0  0  0  0  0  0  0  0  0
    9.7153  -16.5885   24.0395 C   0  0  0  0  0  0  0  0  0  0  0  0
   10.3953  -17.6532   24.1673 O   0  0  0  0  0  0  0  0  0  0  0  0
   12.0859  -14.6141   28.6584 C   0  0  0  0  0  0  0  0  0  0  0  0
   10.5772  -15.0279   28.7847 C   0  0  1  0  0  0  0  0  0  0  0  0
   10.0250  -13.9454   29.7137 C   0  0  0  0  0  0  0  0  0  0  0  0
   10.0412  -14.9785   27.4031 C   0  0  0  0  0  0  0  0  0  0  0  0
   10.3547  -16.0533   26.4394 C   0  0  2  0  0  0  0  0  0  0  0  0
    9.5979  -15.7727   25.1721 N   0  0  0  0  0  0  0  0  0  0  0  0
   10.0740  -17.4372   26.7773 C   0  0  0  0  0  0  0  0  0  0  0  0
   11.0424  -18.3195   27.1952 O   0  0  0  0  0  0  0  0  0  0  0  0
    8.8958  -17.9397   26.7026 O   0  0  0  0  0  0  0  0  0  0  0  0
  2  1  1  1
  2  3  1  0
  4  5  2  0
  4  2  1  0
  6  4  1  0
  7  6  1  0
  7  8  1  1
  9  8  1  0
  9 17  1  0
 10 11  1  0
 10  9  2  0
 11 12  1  0
 12 13  1  0
 12 17  2  0
 13 14  2  0
 14 15  1  0
 16 15  2  0
 17 16  1  0
 18 19  2  0
 18  7  1  0
 21 20  1  6
 21 23  1  0
 21 22  1  0
 24 23  1  1
 24 25  1  0
 25 18  1  0
 26 24  1  0
 27 26  1  0
 28 26  2  0
M  END
$$$$
