AWL.pdb
     RDKit          3D

 28 29  0  0  1  0  0  0  0  0999 V2000
   12.0117  -20.0685   21.0690 C   0  0  0  0  0  0  0  0  0  0  0  0
   11.3556  -18.9979   20.2482 C   0  0  2  0  0  0  0  0  0  0  0  0
   12.1509  -18.6388   19.0986 N   0  0  0  0  0  0  0  0  0  0  0  0
   11.0923  -17.8223   21.1244 C   0  0  0  0  0  0  0  0  0  0  0  0
   11.9418  -16.9034   21.2428 O   0  0  0  0  0  0  0  0  0  0  0  0
    9.8858  -17.6770   21.8631 N   0  0  0  0  0  0  0  0  0  0  0  0
    9.5840  -16.4777   22.6113 C   0  0  1  0  0  0  0  0  0  0  0  0
    8.1223  -16.1160   22.5874 C   0  0  0  0  0  0  0  0  0  0  0  0
    7.8698  -14.7258   23.0090 C   0  0  0  0  0  0  0  0  0  0  0  0
    8.2397  -13.5763   22.3522 C   0  0  0  0  0  0  0  0  0  0  0  0
    7.8144  -12.5246   23.0793 N   0  0  0  0  0  0  0  0  0  0  0  0
    7.1809  -12.9236   24.1854 C   0  0  0  0  0  0  0  0  0  0  0  0
    6.5807  -12.2425   25.2204 C   0  0  0  0  0  0  0  0  0  0  0  0
    5.9952  -12.9546   26.2461 C   0  0  0  0  0  0  0  0  0  0  0  0
    6.0221  -14.3515   26.2159 C   0  0  0  0  0  0  0  0  0  0  0  0
    6.6247  -15.0285   25.1767 C   0  0  0  0  0  0  0  0  0  0  0  0
    7.2114  -14.3184   24.1488 C   0  0  0  0  0  0  0  0  0  0  0  0
   10.0011  -16.6920   24.0191 C   0  0  0  0  0  0  0  0  0  0  0  0
   10.0881  -17.8759   24.4696 O   0  0  0  0  0  0  0  0  0  0  0  0
   11.0281  -13.0643   28.8710 C   0  0  0  0  0  0  0  0  0  0  0  0
   11.1701  -14.5737   28.4646 C   0  0  1  0  0  0  0  0  0  0  0  0
   10.2454  -15.2639   29.4687 C   0  0  0  0  0  0  0  0  0  0  0  0
   10.7064  -14.6453   27.0581 C   0  0  0  0  0  0  0  0  0  0  0  0
   10.7853  -15.9151   26.3073 C   0  0  2  0  0  0  0  0  0  0  0  0
   10.3128  -15.6531   24.9054 N   0  0  0  0  0  0  0  0  0  0  0  0
   10.0502  -17.0791   26.7685 C   0  0  0  0  0  0  0  0  0  0  0  0
    8.7217  -17.2902   26.4826 O   0  0  0  0  0  0  0  0  0  0  0  0
   10.5900  -17.9956   27.4862 O   0  0  0  0  0  0  0  0  0  0  0  0
  2  1  1  1
  2  3  1  0
  4  5  2  0
  4  2  1  0
  6  4  1  0
  7  6  1  0
  7  8  1  1
  9  8  1  0
  9 17  1  0
 10 11  1  0
 10  9  2  0
 11 12  1  0
 12 13  1  0
 12 17  2  0
 13 14  2  0
 14 15  1  0
 16 15  2  0
 17 16  1  0
 18 19  2  0
 18  7  1  0
 21 20  1  1
 21 23  1  0
 21 22  1  0
 24 23  1  1
 24 25  1  0
 25 18  1  0
 26 24  1  0
 27 26  1  0
 28 26  2  0
M  END
$$$$
