AWL.pdb
     RDKit          3D

 28 29  0  0  1  0  0  0  0  0999 V2000
   12.1808  -17.9899   20.2911 C   0  0  0  0  0  0  0  0  0  0  0  0
   10.8335  -17.4493   19.9126 C   0  0  2  0  0  0  0  0  0  0  0  0
   10.8900  -16.6639   18.7031 N   0  0  0  0  0  0  0  0  0  0  0  0
   10.3001  -16.6595   21.0575 C   0  0  0  0  0  0  0  0  0  0  0  0
   10.6617  -15.4703   21.2443 O   0  0  0  0  0  0  0  0  0  0  0  0
    9.3683  -17.1982   21.9870 N   0  0  0  0  0  0  0  0  0  0  0  0
    8.8356  -16.4165   23.0799 C   0  0  1  0  0  0  0  0  0  0  0  0
    7.5183  -16.9352   23.5931 C   0  0  0  0  0  0  0  0  0  0  0  0
    6.7750  -15.9325   24.3781 C   0  0  0  0  0  0  0  0  0  0  0  0
    5.5670  -16.1001   25.0122 C   0  0  0  0  0  0  0  0  0  0  0  0
    5.2450  -14.9370   25.6116 N   0  0  0  0  0  0  0  0  0  0  0  0
    6.1824  -14.0084   25.4043 C   0  0  0  0  0  0  0  0  0  0  0  0
    6.3068  -12.6960   25.8009 C   0  0  0  0  0  0  0  0  0  0  0  0
    7.4205  -11.9786   25.4172 C   0  0  0  0  0  0  0  0  0  0  0  0
    8.4000  -12.5960   24.6347 C   0  0  0  0  0  0  0  0  0  0  0  0
    8.2701  -13.9109   24.2403 C   0  0  0  0  0  0  0  0  0  0  0  0
    7.1566  -14.6313   24.6227 C   0  0  0  0  0  0  0  0  0  0  0  0
    9.8222  -16.4361   24.1881 C   0  0  0  0  0  0  0  0  0  0  0  0
   10.7565  -17.2959   24.1752 O   0  0  0  0  0  0  0  0  0  0  0  0
   10.8940  -12.9733   29.1595 C   0  0  0  0  0  0  0  0  0  0  0  0
   11.2946  -14.3744   28.5767 C   0  0  1  0  0  0  0  0  0  0  0  0
   10.7864  -15.3285   29.6588 C   0  0  0  0  0  0  0  0  0  0  0  0
   10.5768  -14.4798   27.2835 C   0  0  0  0  0  0  0  0  0  0  0  0
   10.7402  -15.6755   26.4316 C   0  0  2  0  0  0  0  0  0  0  0  0
    9.7926  -15.5499   25.2724 N   0  0  0  0  0  0  0  0  0  0  0  0
   10.5228  -16.9991   26.9872 C   0  0  0  0  0  0  0  0  0  0  0  0
   11.5464  -17.8115   27.4153 O   0  0  0  0  0  0  0  0  0  0  0  0
    9.3526  -17.5105   27.1123 O   0  0  0  0  0  0  0  0  0  0  0  0
  2  1  1  1
  2  3  1  0
  4  5  2  0
  4  2  1  0
  6  4  1  0
  7  6  1  0
  7  8  1  1
  9  8  1  0
  9 17  1  0
 10 11  1  0
 10  9  2  0
 11 12  1  0
 12 13  1  0
 12 17  2  0
 13 14  2  0
 14 15  1  0
 16 15  2  0
 17 16  1  0
 18 19  2  0
 18  7  1  0
 21 20  1  1
 21 23  1  0
 21 22  1  0
 24 23  1  1
 24 25  1  0
 25 18  1  0
 26 24  1  0
 27 26  1  0
 28 26  2  0
M  END
$$$$
