AWL.pdb
     RDKit          3D

 28 29  0  0  1  0  0  0  0  0999 V2000
   12.4956  -18.1081   20.6581 C   0  0  0  0  0  0  0  0  0  0  0  0
   11.5168  -17.1593   20.0320 C   0  0  2  0  0  0  0  0  0  0  0  0
   12.1507  -16.2912   19.0689 N   0  0  0  0  0  0  0  0  0  0  0  0
   10.8473  -16.3851   21.1143 C   0  0  0  0  0  0  0  0  0  0  0  0
   11.3440  -15.3123   21.5413 O   0  0  0  0  0  0  0  0  0  0  0  0
    9.6300  -16.8097   21.7145 N   0  0  0  0  0  0  0  0  0  0  0  0
    9.0079  -16.0736   22.7917 C   0  0  1  0  0  0  0  0  0  0  0  0
    7.5443  -16.3872   22.9566 C   0  0  0  0  0  0  0  0  0  0  0  0
    6.9191  -15.6372   24.0614 C   0  0  0  0  0  0  0  0  0  0  0  0
    6.3361  -16.1543   25.1937 C   0  0  0  0  0  0  0  0  0  0  0  0
    5.8894  -15.1256   25.9406 N   0  0  0  0  0  0  0  0  0  0  0  0
    6.1492  -13.9529   25.3563 C   0  0  0  0  0  0  0  0  0  0  0  0
    5.8971  -12.6485   25.7173 C   0  0  0  0  0  0  0  0  0  0  0  0
    6.2990  -11.6280   24.8812 C   0  0  0  0  0  0  0  0  0  0  0  0
    6.9534  -11.9364   23.6855 C   0  0  0  0  0  0  0  0  0  0  0  0
    7.2034  -13.2447   23.3290 C   0  0  0  0  0  0  0  0  0  0  0  0
    6.8023  -14.2681   24.1639 C   0  0  0  0  0  0  0  0  0  0  0  0
    9.7146  -16.4104   24.0522 C   0  0  0  0  0  0  0  0  0  0  0  0
   10.5065  -17.4028   24.0764 O   0  0  0  0  0  0  0  0  0  0  0  0
   10.3376  -13.5942   29.4838 C   0  0  0  0  0  0  0  0  0  0  0  0
   10.8990  -14.8449   28.7199 C   0  0  1  0  0  0  0  0  0  0  0  0
   10.5313  -15.9895   29.6656 C   0  0  0  0  0  0  0  0  0  0  0  0
   10.1784  -14.8678   27.4242 C   0  0  0  0  0  0  0  0  0  0  0  0
   10.4379  -15.9401   26.4419 C   0  0  2  0  0  0  0  0  0  0  0  0
    9.5645  -15.6914   25.2449 N   0  0  0  0  0  0  0  0  0  0  0  0
   10.2297  -17.3291   26.8099 C   0  0  0  0  0  0  0  0  0  0  0  0
    8.9928  -17.9299   26.8059 O   0  0  0  0  0  0  0  0  0  0  0  0
   11.1909  -18.0973   27.1740 O   0  0  0  0  0  0  0  0  0  0  0  0
  2  1  1  1
  2  3  1  0
  4  5  2  0
  4  2  1  0
  6  4  1  0
  7  6  1  0
  7  8  1  1
  9  8  1  0
  9 17  1  0
 10 11  1  0
 10  9  2  0
 11 12  1  0
 12 13  1  0
 12 17  2  0
 13 14  2  0
 14 15  1  0
 16 15  2  0
 17 16  1  0
 18 19  2  0
 18  7  1  0
 21 20  1  1
 21 23  1  0
 21 22  1  0
 24 23  1  1
 24 25  1  0
 25 18  1  0
 26 24  1  0
 27 26  1  0
 28 26  2  0
M  END
$$$$
