AWL.pdb
     RDKit          3D

 28 29  0  0  1  0  0  0  0  0999 V2000
    9.6492  -18.9394   19.7632 C   0  0  0  0  0  0  0  0  0  0  0  0
   10.0787  -19.0547   21.1959 C   0  0  2  0  0  0  0  0  0  0  0  0
    9.1530  -19.8437   21.9727 N   0  0  0  0  0  0  0  0  0  0  0  0
   10.2381  -17.6835   21.7556 C   0  0  0  0  0  0  0  0  0  0  0  0
   10.9902  -16.8437   21.1997 O   0  0  0  0  0  0  0  0  0  0  0  0
    9.5598  -17.2559   22.9302 N   0  0  0  0  0  0  0  0  0  0  0  0
    9.7340  -15.9291   23.4768 C   0  0  1  0  0  0  0  0  0  0  0  0
    8.4315  -15.2219   23.7433 C   0  0  0  0  0  0  0  0  0  0  0  0
    7.6027  -15.0734   22.5329 C   0  0  0  0  0  0  0  0  0  0  0  0
    6.5311  -15.8480   22.1573 C   0  0  0  0  0  0  0  0  0  0  0  0
    6.0612  -15.3720   20.9877 N   0  0  0  0  0  0  0  0  0  0  0  0
    6.7707  -14.3196   20.5718 C   0  0  0  0  0  0  0  0  0  0  0  0
    6.6831  -13.5077   19.4634 C   0  0  0  0  0  0  0  0  0  0  0  0
    7.5848  -12.4753   19.3111 C   0  0  0  0  0  0  0  0  0  0  0  0
    8.5686  -12.2729   20.2828 C   0  0  0  0  0  0  0  0  0  0  0  0
    8.6517  -13.0892   21.3910 C   0  0  0  0  0  0  0  0  0  0  0  0
    7.7506  -14.1232   21.5460 C   0  0  0  0  0  0  0  0  0  0  0  0
   10.4841  -16.0476   24.7516 C   0  0  0  0  0  0  0  0  0  0  0  0
   11.7052  -15.7016   24.7902 O   0  0  0  0  0  0  0  0  0  0  0  0
    8.5360  -13.7478   28.6648 C   0  0  0  0  0  0  0  0  0  0  0  0
    9.7565  -14.2035   27.7896 C   0  0  1  0  0  0  0  0  0  0  0  0
   10.8490  -13.2282   28.2312 C   0  0  0  0  0  0  0  0  0  0  0  0
   10.0066  -15.6142   28.1715 C   0  0  0  0  0  0  0  0  0  0  0  0
   10.6872  -16.5336   27.2369 C   0  0  2  0  0  0  0  0  0  0  0  0
    9.9238  -16.5258   25.9429 N   0  0  0  0  0  0  0  0  0  0  0  0
   10.8640  -17.9305   27.5910 C   0  0  0  0  0  0  0  0  0  0  0  0
   11.7619  -18.3567   28.5415 O   0  0  0  0  0  0  0  0  0  0  0  0
   10.1955  -18.8731   27.0332 O   0  0  0  0  0  0  0  0  0  0  0  0
  2  1  1  6
  2  3  1  0
  4  5  2  0
  4  2  1  0
  6  4  1  0
  7  6  1  0
  7  8  1  1
  9  8  1  0
  9 17  1  0
 10 11  1  0
 10  9  2  0
 11 12  1  0
 12 13  1  0
 12 17  2  0
 13 14  2  0
 14 15  1  0
 16 15  2  0
 17 16  1  0
 18 19  2  0
 18  7  1  0
 21 20  1  1
 21 23  1  0
 21 22  1  0
 24 23  1  1
 24 25  1  0
 25 18  1  0
 26 24  1  0
 27 26  1  0
 28 26  2  0
M  END
$$$$
