AWL.pdb
     RDKit          3D

 28 29  0  0  1  0  0  0  0  0999 V2000
    8.0223  -15.1994   17.8916 C   0  0  0  0  0  0  0  0  0  0  0  0
    7.5932  -13.9979   18.6808 C   0  0  2  0  0  0  0  0  0  0  0  0
    8.0447  -12.7680   18.0754 N   0  0  0  0  0  0  0  0  0  0  0  0
    8.0958  -14.1419   20.0757 C   0  0  0  0  0  0  0  0  0  0  0  0
    9.2376  -13.7249   20.3958 O   0  0  0  0  0  0  0  0  0  0  0  0
    7.3249  -14.7489   21.1051 N   0  0  0  0  0  0  0  0  0  0  0  0
    7.7637  -14.7685   22.4822 C   0  0  1  0  0  0  0  0  0  0  0  0
    6.6666  -15.1281   23.4490 C   0  0  0  0  0  0  0  0  0  0  0  0
    7.0581  -14.9335   24.8572 C   0  0  0  0  0  0  0  0  0  0  0  0
    7.4855  -15.8939   25.7429 C   0  0  0  0  0  0  0  0  0  0  0  0
    7.7391  -15.2919   26.9214 N   0  0  0  0  0  0  0  0  0  0  0  0
    7.4999  -13.9793   26.8574 C   0  0  0  0  0  0  0  0  0  0  0  0
    7.6060  -12.9603   27.7770 C   0  0  0  0  0  0  0  0  0  0  0  0
    7.2775  -11.6751   27.3998 C   0  0  0  0  0  0  0  0  0  0  0  0
    6.8438  -11.4316   26.0938 C   0  0  0  0  0  0  0  0  0  0  0  0
    6.7394  -12.4561   25.1768 C   0  0  0  0  0  0  0  0  0  0  0  0
    7.0676  -13.7434   25.5515 C   0  0  0  0  0  0  0  0  0  0  0  0
    8.8567  -15.7642   22.6065 C   0  0  0  0  0  0  0  0  0  0  0  0
    8.8085  -16.8312   21.9197 O   0  0  0  0  0  0  0  0  0  0  0  0
   14.3339  -15.7353   21.4963 C   0  0  0  0  0  0  0  0  0  0  0  0
   13.5162  -16.6267   22.4963 C   0  0  1  0  0  0  0  0  0  0  0  0
   14.4226  -16.6397   23.7283 C   0  0  0  0  0  0  0  0  0  0  0  0
   12.2298  -15.9157   22.6920 C   0  0  0  0  0  0  0  0  0  0  0  0
   11.1245  -16.5577   23.4325 C   0  0  2  0  0  0  0  0  0  0  0  0
    9.9640  -15.6035   23.4492 N   0  0  0  0  0  0  0  0  0  0  0  0
   11.3191  -16.9782   24.8085 C   0  0  0  0  0  0  0  0  0  0  0  0
   10.7930  -16.2998   25.8828 O   0  0  0  0  0  0  0  0  0  0  0  0
   12.0062  -18.0156   25.1217 O   0  0  0  0  0  0  0  0  0  0  0  0
  2  1  1  6
  2  3  1  0
  4  5  2  0
  4  2  1  0
  6  4  1  0
  7  6  1  0
  7  8  1  1
  9  8  1  0
  9 17  1  0
 10 11  1  0
 10  9  2  0
 11 12  1  0
 12 13  1  0
 12 17  2  0
 13 14  2  0
 14 15  1  0
 16 15  2  0
 17 16  1  0
 18 19  2  0
 18  7  1  0
 21 20  1  6
 21 23  1  0
 21 22  1  0
 24 23  1  1
 24 25  1  0
 25 18  1  0
 26 24  1  0
 27 26  1  0
 28 26  2  0
M  END
$$$$
