AWL.pdb
     RDKit          3D

 28 29  0  0  1  0  0  0  0  0999 V2000
   12.7255  -18.1328   20.9313 C   0  0  0  0  0  0  0  0  0  0  0  0
   11.8486  -16.9949   20.4993 C   0  0  2  0  0  0  0  0  0  0  0  0
   12.5815  -16.0092   19.7417 N   0  0  0  0  0  0  0  0  0  0  0  0
   11.2135  -16.3995   21.7082 C   0  0  0  0  0  0  0  0  0  0  0  0
   11.7499  -15.4346   22.3091 O   0  0  0  0  0  0  0  0  0  0  0  0
    9.9861  -16.8818   22.2404 N   0  0  0  0  0  0  0  0  0  0  0  0
    9.2939  -16.2010   23.3112 C   0  0  1  0  0  0  0  0  0  0  0  0
    7.7991  -16.3755   23.2563 C   0  0  0  0  0  0  0  0  0  0  0  0
    7.1050  -15.7229   24.3816 C   0  0  0  0  0  0  0  0  0  0  0  0
    6.3755  -16.3310   25.3753 C   0  0  0  0  0  0  0  0  0  0  0  0
    5.9128  -15.3717   26.2006 N   0  0  0  0  0  0  0  0  0  0  0  0
    6.3017  -14.1581   25.8003 C   0  0  0  0  0  0  0  0  0  0  0  0
    6.0894  -12.8928   26.2994 C   0  0  0  0  0  0  0  0  0  0  0  0
    6.6371  -11.8094   25.6449 C   0  0  0  0  0  0  0  0  0  0  0  0
    7.3959  -12.0158   24.4896 C   0  0  0  0  0  0  0  0  0  0  0  0
    7.6053  -13.2855   23.9942 C   0  0  0  0  0  0  0  0  0  0  0  0
    7.0583  -14.3716   24.6472 C   0  0  0  0  0  0  0  0  0  0  0  0
    9.7916  -16.7392   24.6013 C   0  0  0  0  0  0  0  0  0  0  0  0
   10.3199  -17.8935   24.6323 O   0  0  0  0  0  0  0  0  0  0  0  0
   10.4777  -13.1779   28.8891 C   0  0  0  0  0  0  0  0  0  0  0  0
   10.5790  -14.0534   27.5904 C   0  0  1  0  0  0  0  0  0  0  0  0
   11.9874  -13.7253   27.0920 C   0  0  0  0  0  0  0  0  0  0  0  0
   10.4036  -15.4530   28.0476 C   0  0  0  0  0  0  0  0  0  0  0  0
   10.3616  -16.5602   27.0706 C   0  0  2  0  0  0  0  0  0  0  0  0
    9.7170  -16.0445   25.8153 N   0  0  0  0  0  0  0  0  0  0  0  0
    9.6709  -17.7942   27.3997 C   0  0  0  0  0  0  0  0  0  0  0  0
    8.4984  -18.1828   26.7952 O   0  0  0  0  0  0  0  0  0  0  0  0
   10.1050  -18.6112   28.2887 O   0  0  0  0  0  0  0  0  0  0  0  0
  2  1  1  1
  2  3  1  0
  4  5  2  0
  4  2  1  0
  6  4  1  0
  7  6  1  0
  7  8  1  6
  9  8  1  0
  9 17  1  0
 10 11  1  0
 10  9  2  0
 11 12  1  0
 12 13  1  0
 12 17  2  0
 13 14  2  0
 14 15  1  0
 16 15  2  0
 17 16  1  0
 18 19  2  0
 18  7  1  0
 21 20  1  1
 21 23  1  0
 21 22  1  0
 24 23  1  1
 24 25  1  0
 25 18  1  0
 26 24  1  0
 27 26  1  0
 28 26  2  0
M  END
$$$$
