IYA.pdb
     RDKit          3D

 26 26  0  0  1  0  0  0  0  0999 V2000
   19.5972  -21.1180  -17.8027 C   0  0  0  0  0  0  0  0  0  0  0  0
   19.6865  -21.7765  -16.4272 C   0  0  0  0  0  0  0  0  0  0  0  0
   20.7589  -21.0881  -15.6398 C   0  0  2  0  0  0  0  0  0  0  0  0
   22.0421  -21.1437  -16.4096 C   0  0  0  0  0  0  0  0  0  0  0  0
   20.8835  -21.5943  -14.2314 C   0  0  2  0  0  0  0  0  0  0  0  0
   19.6340  -21.4168  -13.5190 N   0  0  0  0  0  0  0  0  0  0  0  0
   21.9749  -21.0108  -13.4595 C   0  0  0  0  0  0  0  0  0  0  0  0
   21.9273  -19.8571  -12.9631 O   0  0  0  0  0  0  0  0  0  0  0  0
   28.0105  -19.2695   -7.6778 O   0  0  0  0  0  0  0  0  0  0  0  0
   27.2288  -19.9690   -8.6102 C   0  0  0  0  0  0  0  0  0  0  0  0
   27.8135  -20.7006   -9.6220 C   0  0  0  0  0  0  0  0  0  0  0  0
   27.0382  -21.3925  -10.5445 C   0  0  0  0  0  0  0  0  0  0  0  0
   25.6627  -21.3804  -10.4922 C   0  0  0  0  0  0  0  0  0  0  0  0
   24.8032  -22.1024  -11.4533 C   0  0  0  0  0  0  0  0  0  0  0  0
   24.3389  -21.2372  -12.5919 C   0  0  2  0  0  0  0  0  0  0  0  0
   23.1631  -21.7579  -13.2408 N   0  0  0  0  0  0  0  0  0  0  0  0
   25.4056  -20.8807  -13.5501 C   0  0  0  0  0  0  0  0  0  0  0  0
   25.8637  -21.7558  -14.3288 O   0  0  0  0  0  0  0  0  0  0  0  0
   25.1071  -20.6417   -9.4715 C   0  0  0  0  0  0  0  0  0  0  0  0
   25.8561  -19.9513   -8.5505 C   0  0  0  0  0  0  0  0  0  0  0  0
   27.4909  -17.8227  -14.0338 C   0  0  0  0  0  0  0  0  0  0  0  0
   26.8449  -19.0972  -14.5956 C   0  0  2  0  0  0  0  0  0  0  0  0
   25.9237  -19.5607  -13.6066 N   0  0  0  0  0  0  0  0  0  0  0  0
   27.9463  -20.0181  -14.8942 C   0  0  0  0  0  0  0  0  0  0  0  0
   28.5474  -20.0778  -15.9813 O   0  0  0  0  0  0  0  0  0  0  0  0
   28.3505  -20.8896  -13.8915 O   0  0  0  0  0  0  0  0  0  0  0  0
  2  1  1  0
  2  3  1  0
  3  5  1  0
  3  4  1  6
  5  6  1  1
  7  5  1  0
  7  8  2  0
  9 10  1  0
 10 20  2  0
 11 10  1  0
 11 12  2  0
 12 13  1  0
 13 19  2  0
 13 14  1  0
 15 14  1  1
 15 16  1  0
 16  7  1  0
 17 15  1  0
 18 17  2  0
 20 19  1  0
 22 23  1  0
 22 21  1  1
 23 17  1  0
 24 22  1  0
 25 24  2  0
 26 24  1  0
M  END
$$$$
