IYA.pdb
     RDKit          3D

 26 26  0  0  1  0  0  0  0  0999 V2000
   29.0801  -21.7878  -19.3985 C   0  0  0  0  0  0  0  0  0  0  0  0
   28.1342  -22.9873  -19.4134 C   0  0  0  0  0  0  0  0  0  0  0  0
   27.1520  -22.8316  -18.2931 C   0  0  2  0  0  0  0  0  0  0  0  0
   26.4682  -21.5058  -18.4238 C   0  0  0  0  0  0  0  0  0  0  0  0
   27.7522  -23.0642  -16.9364 C   0  0  2  0  0  0  0  0  0  0  0  0
   28.3808  -24.3688  -16.8796 N   0  0  0  0  0  0  0  0  0  0  0  0
   26.8274  -22.9166  -15.8181 C   0  0  0  0  0  0  0  0  0  0  0  0
   25.8534  -23.6869  -15.6238 O   0  0  0  0  0  0  0  0  0  0  0  0
   23.5739  -20.2184   -8.0221 O   0  0  0  0  0  0  0  0  0  0  0  0
   24.3469  -20.3297   -9.1882 C   0  0  0  0  0  0  0  0  0  0  0  0
   24.0638  -19.5713  -10.3042 C   0  0  0  0  0  0  0  0  0  0  0  0
   24.8302  -19.6827  -11.4579 C   0  0  0  0  0  0  0  0  0  0  0  0
   25.8982  -20.5473  -11.5404 C   0  0  0  0  0  0  0  0  0  0  0  0
   26.7371  -20.6950  -12.7479 C   0  0  0  0  0  0  0  0  0  0  0  0
   26.1180  -21.5865  -13.7884 C   0  0  2  0  0  0  0  0  0  0  0  0
   27.0098  -21.8606  -14.8858 N   0  0  0  0  0  0  0  0  0  0  0  0
   24.7813  -21.1468  -14.2388 C   0  0  0  0  0  0  0  0  0  0  0  0
   24.6789  -20.1932  -15.0525 O   0  0  0  0  0  0  0  0  0  0  0  0
   26.1569  -21.2913  -10.4110 C   0  0  0  0  0  0  0  0  0  0  0  0
   25.4114  -21.1956   -9.2616 C   0  0  0  0  0  0  0  0  0  0  0  0
   21.5576  -22.5180  -14.7299 C   0  0  0  0  0  0  0  0  0  0  0  0
   22.2770  -21.3442  -14.0505 C   0  0  2  0  0  0  0  0  0  0  0  0
   23.6058  -21.7862  -13.7663 N   0  0  0  0  0  0  0  0  0  0  0  0
   21.4756  -20.9983  -12.8722 C   0  0  0  0  0  0  0  0  0  0  0  0
   20.4188  -20.3433  -12.8994 O   0  0  0  0  0  0  0  0  0  0  0  0
   21.9270  -21.4323  -11.6329 O   0  0  0  0  0  0  0  0  0  0  0  0
  2  1  1  0
  2  3  1  0
  3  5  1  0
  3  4  1  1
  5  6  1  6
  7  5  1  0
  7  8  2  0
  9 10  1  0
 10 20  2  0
 11 10  1  0
 11 12  2  0
 12 13  1  0
 13 19  2  0
 13 14  1  0
 15 14  1  1
 15 16  1  0
 16  7  1  0
 17 15  1  0
 18 17  2  0
 20 19  1  0
 22 23  1  0
 22 21  1  1
 23 17  1  0
 24 22  1  0
 25 24  2  0
 26 24  1  0
M  END
$$$$
