IYA.pdb
     RDKit          3D

 26 26  0  0  1  0  0  0  0  0999 V2000
   29.6159  -13.5101  -17.1684 C   0  0  0  0  0  0  0  0  0  0  0  0
   28.5546  -13.0118  -16.1891 C   0  0  0  0  0  0  0  0  0  0  0  0
   27.9740  -11.7391  -16.7251 C   0  0  2  0  0  0  0  0  0  0  0  0
   29.0794  -10.7541  -16.9486 C   0  0  0  0  0  0  0  0  0  0  0  0
   26.8497  -11.1977  -15.8897 C   0  0  2  0  0  0  0  0  0  0  0  0
   25.8189  -12.2021  -15.7189 N   0  0  0  0  0  0  0  0  0  0  0  0
   26.2528   -9.9619  -16.3835 C   0  0  0  0  0  0  0  0  0  0  0  0
   26.9073   -8.9032  -16.5589 O   0  0  0  0  0  0  0  0  0  0  0  0
   19.1819  -12.7812  -16.6052 O   0  0  0  0  0  0  0  0  0  0  0  0
   20.1837  -11.8977  -17.0357 C   0  0  0  0  0  0  0  0  0  0  0  0
   21.4373  -12.3572  -17.3797 C   0  0  0  0  0  0  0  0  0  0  0  0
   22.4282  -11.4811  -17.8058 C   0  0  0  0  0  0  0  0  0  0  0  0
   22.2071  -10.1260  -17.9036 C   0  0  0  0  0  0  0  0  0  0  0  0
   23.2336   -9.1621  -18.3519 C   0  0  0  0  0  0  0  0  0  0  0  0
   24.1976   -8.7808  -17.2629 C   0  0  2  0  0  0  0  0  0  0  0  0
   24.8665   -9.9206  -16.6900 N   0  0  0  0  0  0  0  0  0  0  0  0
   23.6233   -7.8849  -16.2380 C   0  0  0  0  0  0  0  0  0  0  0  0
   23.2244   -8.3616  -15.1445 O   0  0  0  0  0  0  0  0  0  0  0  0
   20.9465   -9.6964  -17.5536 C   0  0  0  0  0  0  0  0  0  0  0  0
   19.9543  -10.5463  -17.1304 C   0  0  0  0  0  0  0  0  0  0  0  0
   23.2935   -4.1503  -16.0918 C   0  0  0  0  0  0  0  0  0  0  0  0
   23.0445   -5.5461  -15.5028 C   0  0  2  0  0  0  0  0  0  0  0  0
   23.5143   -6.4888  -16.4682 N   0  0  0  0  0  0  0  0  0  0  0  0
   21.6084   -5.6198  -15.2151 C   0  0  0  0  0  0  0  0  0  0  0  0
   20.7812   -6.2596  -15.8882 O   0  0  0  0  0  0  0  0  0  0  0  0
   21.1336   -4.9253  -14.1105 O   0  0  0  0  0  0  0  0  0  0  0  0
  2  1  1  0
  2  3  1  0
  3  5  1  0
  3  4  1  1
  5  6  1  6
  7  5  1  0
  7  8  2  0
  9 10  1  0
 10 20  2  0
 11 10  1  0
 11 12  2  0
 12 13  1  0
 13 19  2  0
 13 14  1  0
 15 14  1  6
 15 16  1  0
 16  7  1  0
 17 15  1  0
 18 17  2  0
 20 19  1  0
 22 23  1  0
 22 21  1  6
 23 17  1  0
 24 22  1  0
 25 24  2  0
 26 24  1  0
M  END
$$$$
