IYA.pdb
     RDKit          3D

 26 26  0  0  1  0  0  0  0  0999 V2000
   23.6545  -21.6018  -14.0925 C   0  0  0  0  0  0  0  0  0  0  0  0
   24.9571  -22.1039  -14.7129 C   0  0  0  0  0  0  0  0  0  0  0  0
   24.6702  -23.3705  -15.4596 C   0  0  2  0  0  0  0  0  0  0  0  0
   24.0339  -24.3540  -14.5268 C   0  0  0  0  0  0  0  0  0  0  0  0
   25.8651  -23.9198  -16.1845 C   0  0  2  0  0  0  0  0  0  0  0  0
   26.5014  -22.8804  -16.9687 N   0  0  0  0  0  0  0  0  0  0  0  0
   25.5962  -25.0770  -17.0307 C   0  0  0  0  0  0  0  0  0  0  0  0
   24.9106  -25.0166  -18.0824 O   0  0  0  0  0  0  0  0  0  0  0  0
   27.8579  -24.3762  -22.7188 O   0  0  0  0  0  0  0  0  0  0  0  0
   27.6696  -25.2465  -21.6340 C   0  0  0  0  0  0  0  0  0  0  0  0
   26.7151  -26.2405  -21.6771 C   0  0  0  0  0  0  0  0  0  0  0  0
   26.5299  -27.1014  -20.6022 C   0  0  0  0  0  0  0  0  0  0  0  0
   27.2834  -27.0034  -19.4544 C   0  0  0  0  0  0  0  0  0  0  0  0
   27.1174  -27.8986  -18.2904 C   0  0  0  0  0  0  0  0  0  0  0  0
   25.9235  -27.5495  -17.4459 C   0  0  2  0  0  0  0  0  0  0  0  0
   26.1209  -26.3484  -16.6757 N   0  0  0  0  0  0  0  0  0  0  0  0
   25.4160  -28.6711  -16.6291 C   0  0  0  0  0  0  0  0  0  0  0  0
   26.0815  -29.0756  -15.6414 O   0  0  0  0  0  0  0  0  0  0  0  0
   28.2283  -26.0019  -19.4401 C   0  0  0  0  0  0  0  0  0  0  0  0
   28.4264  -25.1414  -20.4920 C   0  0  0  0  0  0  0  0  0  0  0  0
   22.3000  -30.7536  -16.8889 C   0  0  0  0  0  0  0  0  0  0  0  0
   23.5987  -30.3552  -16.1737 C   0  0  2  0  0  0  0  0  0  0  0  0
   24.1839  -29.3021  -16.9419 N   0  0  0  0  0  0  0  0  0  0  0  0
   24.4071  -31.5751  -16.0810 C   0  0  0  0  0  0  0  0  0  0  0  0
   24.3502  -32.3958  -15.1483 O   0  0  0  0  0  0  0  0  0  0  0  0
   25.3034  -31.8367  -17.1088 O   0  0  0  0  0  0  0  0  0  0  0  0
  2  1  1  0
  2  3  1  0
  3  5  1  0
  3  4  1  1
  5  6  1  6
  7  5  1  0
  7  8  2  0
  9 10  1  0
 10 20  2  0
 11 10  1  0
 11 12  2  0
 12 13  1  0
 13 19  2  0
 13 14  1  0
 15 14  1  1
 15 16  1  0
 16  7  1  0
 17 15  1  0
 18 17  2  0
 20 19  1  0
 22 23  1  0
 22 21  1  6
 23 17  1  0
 24 22  1  0
 25 24  2  0
 26 24  1  0
M  END
$$$$
