IYA.pdb
     RDKit          3D

 26 26  0  0  1  0  0  0  0  0999 V2000
   17.7446  -14.7073  -20.2816 C   0  0  0  0  0  0  0  0  0  0  0  0
   18.5334  -14.7054  -18.9734 C   0  0  0  0  0  0  0  0  0  0  0  0
   18.5942  -13.3003  -18.4575 C   0  0  2  0  0  0  0  0  0  0  0  0
   19.1747  -12.4158  -19.5172 C   0  0  0  0  0  0  0  0  0  0  0  0
   19.2888  -13.1809  -17.1315 C   0  0  2  0  0  0  0  0  0  0  0  0
   18.7181  -14.1104  -16.1773 N   0  0  0  0  0  0  0  0  0  0  0  0
   19.3031  -11.8390  -16.5602 C   0  0  0  0  0  0  0  0  0  0  0  0
   18.2680  -11.2518  -16.1557 O   0  0  0  0  0  0  0  0  0  0  0  0
   22.4532   -4.0149  -13.7425 O   0  0  0  0  0  0  0  0  0  0  0  0
   22.3221   -5.3605  -14.1193 C   0  0  0  0  0  0  0  0  0  0  0  0
   22.9181   -5.8390  -15.2667 C   0  0  0  0  0  0  0  0  0  0  0  0
   22.7873   -7.1716  -15.6384 C   0  0  0  0  0  0  0  0  0  0  0  0
   22.0634   -8.0683  -14.8856 C   0  0  0  0  0  0  0  0  0  0  0  0
   21.9005   -9.4921  -15.2463 C   0  0  0  0  0  0  0  0  0  0  0  0
   20.6399   -9.7621  -16.0200 C   0  0  2  0  0  0  0  0  0  0  0  0
   20.5311  -11.1350  -16.4418 N   0  0  0  0  0  0  0  0  0  0  0  0
   20.3943   -8.8083  -17.1213 C   0  0  0  0  0  0  0  0  0  0  0  0
   21.1031   -8.8569  -18.1592 O   0  0  0  0  0  0  0  0  0  0  0  0
   21.4798   -7.5620  -13.7458 C   0  0  0  0  0  0  0  0  0  0  0  0
   21.5974   -6.2488  -13.3617 C   0  0  0  0  0  0  0  0  0  0  0  0
   17.6640   -6.7477  -18.2836 C   0  0  0  0  0  0  0  0  0  0  0  0
   19.1663   -6.7786  -17.9688 C   0  0  2  0  0  0  0  0  0  0  0  0
   19.3667   -7.8341  -17.0267 N   0  0  0  0  0  0  0  0  0  0  0  0
   19.5107   -5.4399  -17.4793 C   0  0  0  0  0  0  0  0  0  0  0  0
   19.5581   -4.4164  -18.1842 O   0  0  0  0  0  0  0  0  0  0  0  0
   19.8064   -5.3010  -16.1297 O   0  0  0  0  0  0  0  0  0  0  0  0
  2  1  1  0
  2  3  1  0
  3  5  1  0
  3  4  1  6
  5  6  1  1
  7  5  1  0
  7  8  2  0
  9 10  1  0
 10 20  2  0
 11 10  1  0
 11 12  2  0
 12 13  1  0
 13 19  2  0
 13 14  1  0
 15 14  1  6
 15 16  1  0
 16  7  1  0
 17 15  1  0
 18 17  2  0
 20 19  1  0
 22 23  1  0
 22 21  1  1
 23 17  1  0
 24 22  1  0
 25 24  2  0
 26 24  1  0
M  END
$$$$
