IYA.pdb
     RDKit          3D

 26 26  0  0  1  0  0  0  0  0999 V2000
   25.7855   -2.7508  -21.5334 C   0  0  0  0  0  0  0  0  0  0  0  0
   24.3103   -2.6745  -21.1440 C   0  0  0  0  0  0  0  0  0  0  0  0
   24.0897   -3.5456  -19.9455 C   0  0  2  0  0  0  0  0  0  0  0  0
   24.5054   -4.9457  -20.2761 C   0  0  0  0  0  0  0  0  0  0  0  0
   22.6993   -3.4504  -19.3861 C   0  0  2  0  0  0  0  0  0  0  0  0
   22.3267   -2.0632  -19.1937 N   0  0  0  0  0  0  0  0  0  0  0  0
   22.4783   -4.1932  -18.1505 C   0  0  0  0  0  0  0  0  0  0  0  0
   22.7606   -3.7380  -17.0135 O   0  0  0  0  0  0  0  0  0  0  0  0
   18.9661   -9.3472  -12.0303 O   0  0  0  0  0  0  0  0  0  0  0  0
   19.2795   -8.5290  -13.1267 C   0  0  0  0  0  0  0  0  0  0  0  0
   18.7312   -8.7645  -14.3696 C   0  0  0  0  0  0  0  0  0  0  0  0
   19.0426   -7.9535  -15.4540 C   0  0  0  0  0  0  0  0  0  0  0  0
   19.9050   -6.8866  -15.3398 C   0  0  0  0  0  0  0  0  0  0  0  0
   20.2614   -6.0011  -16.4679 C   0  0  0  0  0  0  0  0  0  0  0  0
   21.6198   -6.2965  -17.0406 C   0  0  2  0  0  0  0  0  0  0  0  0
   21.9181   -5.4976  -18.2015 N   0  0  0  0  0  0  0  0  0  0  0  0
   21.8810   -7.7343  -17.2582 C   0  0  0  0  0  0  0  0  0  0  0  0
   21.4132   -8.3071  -18.2756 O   0  0  0  0  0  0  0  0  0  0  0  0
   20.4368   -6.6759  -14.0872 C   0  0  0  0  0  0  0  0  0  0  0  0
   20.1415   -7.4660  -13.0035 C   0  0  0  0  0  0  0  0  0  0  0  0
   23.7449  -10.2774  -15.2154 C   0  0  0  0  0  0  0  0  0  0  0  0
   22.8321   -9.8996  -16.3906 C   0  0  2  0  0  0  0  0  0  0  0  0
   22.6550   -8.4828  -16.3338 N   0  0  0  0  0  0  0  0  0  0  0  0
   21.6036  -10.6830  -16.2243 C   0  0  0  0  0  0  0  0  0  0  0  0
   20.5553  -10.2588  -15.7068 O   0  0  0  0  0  0  0  0  0  0  0  0
   21.6074  -11.9957  -16.6768 O   0  0  0  0  0  0  0  0  0  0  0  0
  2  1  1  0
  2  3  1  0
  3  5  1  0
  3  4  1  6
  5  6  1  1
  7  5  1  0
  7  8  2  0
  9 10  1  0
 10 20  2  0
 11 10  1  0
 11 12  2  0
 12 13  1  0
 13 19  2  0
 13 14  1  0
 15 14  1  6
 15 16  1  0
 16  7  1  0
 17 15  1  0
 18 17  2  0
 20 19  1  0
 22 23  1  0
 22 21  1  1
 23 17  1  0
 24 22  1  0
 25 24  2  0
 26 24  1  0
M  END
$$$$
