IYA.pdb
     RDKit          3D

 26 26  0  0  1  0  0  0  0  0999 V2000
   29.4147  -18.8558  -15.9849 C   0  0  0  0  0  0  0  0  0  0  0  0
   29.7203  -19.2669  -14.5457 C   0  0  0  0  0  0  0  0  0  0  0  0
   28.4869  -19.8777  -13.9541 C   0  0  2  0  0  0  0  0  0  0  0  0
   27.3311  -18.9505  -14.1698 C   0  0  0  0  0  0  0  0  0  0  0  0
   28.6572  -20.2992  -12.5229 C   0  0  2  0  0  0  0  0  0  0  0  0
   29.7735  -21.2147  -12.3958 N   0  0  0  0  0  0  0  0  0  0  0  0
   27.4717  -20.8831  -11.9056 C   0  0  0  0  0  0  0  0  0  0  0  0
   27.2184  -22.1140  -11.9294 O   0  0  0  0  0  0  0  0  0  0  0  0
   28.6431  -20.3689   -5.1939 O   0  0  0  0  0  0  0  0  0  0  0  0
   27.7174  -20.2306   -6.2397 C   0  0  0  0  0  0  0  0  0  0  0  0
   26.9858  -21.3094   -6.6891 C   0  0  0  0  0  0  0  0  0  0  0  0
   26.0697  -21.1708   -7.7246 C   0  0  0  0  0  0  0  0  0  0  0  0
   25.8513  -19.9614   -8.3448 C   0  0  0  0  0  0  0  0  0  0  0  0
   24.8868  -19.7728   -9.4485 C   0  0  0  0  0  0  0  0  0  0  0  0
   25.2804  -20.5008  -10.7038 C   0  0  2  0  0  0  0  0  0  0  0  0
   26.5386  -20.0461  -11.2375 N   0  0  0  0  0  0  0  0  0  0  0  0
   24.2156  -20.5544  -11.7267 C   0  0  0  0  0  0  0  0  0  0  0  0
   23.9554  -19.5319  -12.4115 O   0  0  0  0  0  0  0  0  0  0  0  0
   26.5958  -18.9027   -7.8750 C   0  0  0  0  0  0  0  0  0  0  0  0
   27.5058  -19.0194   -6.8531 C   0  0  0  0  0  0  0  0  0  0  0  0
   22.2466  -23.3353  -13.2218 C   0  0  0  0  0  0  0  0  0  0  0  0
   22.3674  -21.8526  -12.8423 C   0  0  2  0  0  0  0  0  0  0  0  0
   23.4788  -21.7464  -11.9505 N   0  0  0  0  0  0  0  0  0  0  0  0
   21.0743  -21.4697  -12.2664 C   0  0  0  0  0  0  0  0  0  0  0  0
   20.9001  -21.1084  -11.0892 O   0  0  0  0  0  0  0  0  0  0  0  0
   19.9598  -21.5127  -13.0935 O   0  0  0  0  0  0  0  0  0  0  0  0
  2  1  1  0
  2  3  1  0
  3  5  1  0
  3  4  1  1
  5  6  1  6
  7  5  1  0
  7  8  2  0
  9 10  1  0
 10 20  2  0
 11 10  1  0
 11 12  2  0
 12 13  1  0
 13 19  2  0
 13 14  1  0
 15 14  1  1
 15 16  1  0
 16  7  1  0
 17 15  1  0
 18 17  2  0
 20 19  1  0
 22 23  1  0
 22 21  1  1
 23 17  1  0
 24 22  1  0
 25 24  2  0
 26 24  1  0
M  END
$$$$
