PTD.pdb
     RDKit          3D

 23 23  0  0  1  0  0  0  0  0999 V2000
   23.5928  -11.0312  -19.4303 N   0  0  0  0  0  0  0  0  0  0  0  0
   24.2126  -12.3120  -19.5755 C   0  0  0  0  0  0  0  0  0  0  0  0
   23.1597  -13.1029  -20.3568 C   0  0  0  0  0  0  0  0  0  0  0  0
   21.9173  -12.6992  -19.5620 C   0  0  0  0  0  0  0  0  0  0  0  0
   22.1584  -11.1885  -19.4921 C   0  0  1  0  0  0  0  0  0  0  0  0
   21.5005  -10.5778  -18.3281 C   0  0  0  0  0  0  0  0  0  0  0  0
   20.2314  -10.6501  -18.2476 O   0  0  0  0  0  0  0  0  0  0  0  0
   21.5489  -11.3311  -14.8505 C   0  0  0  0  0  0  0  0  0  0  0  0
   21.9559   -9.8752  -14.9020 C   0  0  1  0  0  0  0  0  0  0  0  0
   23.3283   -9.7630  -14.7061 O   0  0  0  0  0  0  0  0  0  0  0  0
   21.5449   -9.2762  -16.2377 C   0  0  2  0  0  0  0  0  0  0  0  0
   22.2594   -9.9219  -17.3162 N   0  0  0  0  0  0  0  0  0  0  0  0
   21.8230   -7.8021  -16.2177 C   0  0  0  0  0  0  0  0  0  0  0  0
   22.8467   -7.3614  -16.7805 O   0  0  0  0  0  0  0  0  0  0  0  0
   20.9450   -6.9102  -15.5734 N   0  0  0  0  0  0  0  0  0  0  0  0
   21.1985   -5.4626  -15.5067 C   0  0  1  0  0  0  0  0  0  0  0  0
   19.8928   -4.7247  -15.6110 C   0  0  0  0  0  0  0  0  0  0  0  0
   20.0271   -3.2832  -15.4347 C   0  0  0  0  0  0  0  0  0  0  0  0
   20.5094   -2.5064  -16.3029 O   0  0  0  0  0  0  0  0  0  0  0  0
   21.8701   -5.2051  -14.2077 C   0  0  0  0  0  0  0  0  0  0  0  0
   22.5033   -3.9540  -14.0314 O   0  0  0  0  0  0  0  0  0  0  0  0
   19.5956   -2.6986  -14.2220 O   0  0  0  0  0  0  0  0  0  0  0  0
   21.8935   -6.0434  -13.2808 O   0  0  0  0  0  0  0  0  0  0  0  0
  2  1  1  0
  3  2  1  0
  4  3  1  0
  4  5  1  0
  5  1  1  0
  5  6  1  1
  7  6  2  0
  9  8  1  6
  9 11  1  0
 10  9  1  0
 11 12  1  6
 11 13  1  0
 12  6  1  0
 13 15  1  0
 13 14  2  0
 15 16  1  0
 16 17  1  1
 17 18  1  0
 18 22  1  0
 18 19  2  0
 20 16  1  0
 20 21  1  0
 23 20  2  0
M  END
$$$$
