PTD.pdb
     RDKit          3D

 23 23  0  0  1  0  0  0  0  0999 V2000
   24.9541  -13.5161  -15.4677 N   0  0  0  0  0  0  0  0  0  0  0  0
   24.6520  -14.8958  -15.2421 C   0  0  0  0  0  0  0  0  0  0  0  0
   25.1384  -15.5572  -16.5346 C   0  0  0  0  0  0  0  0  0  0  0  0
   24.5437  -14.5757  -17.5452 C   0  0  0  0  0  0  0  0  0  0  0  0
   24.9809  -13.2627  -16.8895 C   0  0  1  0  0  0  0  0  0  0  0  0
   24.0991  -12.1440  -17.2523 C   0  0  0  0  0  0  0  0  0  0  0  0
   24.1362  -11.7127  -18.4501 O   0  0  0  0  0  0  0  0  0  0  0  0
   20.3848  -11.8029  -15.9831 C   0  0  0  0  0  0  0  0  0  0  0  0
   21.0019  -11.0526  -17.1425 C   0  0  1  0  0  0  0  0  0  0  0  0
   20.1447  -10.0386  -17.5566 O   0  0  0  0  0  0  0  0  0  0  0  0
   22.3519  -10.4897  -16.7269 C   0  0  2  0  0  0  0  0  0  0  0  0
   23.2259  -11.5562  -16.2921 N   0  0  0  0  0  0  0  0  0  0  0  0
   22.1455   -9.4857  -15.6314 C   0  0  0  0  0  0  0  0  0  0  0  0
   22.0451   -9.8763  -14.4497 O   0  0  0  0  0  0  0  0  0  0  0  0
   22.0643   -8.1100  -15.9184 N   0  0  0  0  0  0  0  0  0  0  0  0
   21.9414   -7.0897  -14.8657 C   0  0  1  0  0  0  0  0  0  0  0  0
   22.3919   -5.7614  -15.4069 C   0  0  0  0  0  0  0  0  0  0  0  0
   22.3317   -4.6856  -14.4240 C   0  0  0  0  0  0  0  0  0  0  0  0
   22.1819   -4.8669  -13.1854 O   0  0  0  0  0  0  0  0  0  0  0  0
   20.5125   -7.0601  -14.4630 C   0  0  0  0  0  0  0  0  0  0  0  0
   19.5453   -6.9053  -15.4817 O   0  0  0  0  0  0  0  0  0  0  0  0
   22.4465   -3.3475  -14.8656 O   0  0  0  0  0  0  0  0  0  0  0  0
   20.1430   -7.1659  -13.2736 O   0  0  0  0  0  0  0  0  0  0  0  0
  2  1  1  0
  3  2  1  0
  4  3  1  0
  4  5  1  0
  5  1  1  0
  5  6  1  1
  7  6  2  0
  9  8  1  1
  9 11  1  0
 10  9  1  0
 11 12  1  1
 11 13  1  0
 12  6  1  0
 13 15  1  0
 13 14  2  0
 15 16  1  0
 16 17  1  6
 17 18  1  0
 18 22  1  0
 18 19  2  0
 20 16  1  0
 20 21  1  0
 23 20  2  0
M  END
$$$$
