PTD.pdb
     RDKit          3D

 23 23  0  0  1  0  0  0  0  0999 V2000
   17.9927  -11.6670  -17.4737 N   0  0  0  0  0  0  0  0  0  0  0  0
   17.9918  -12.8860  -18.2218 C   0  0  0  0  0  0  0  0  0  0  0  0
   17.6694  -13.9318  -17.1508 C   0  0  0  0  0  0  0  0  0  0  0  0
   18.6228  -13.4548  -16.0546 C   0  0  0  0  0  0  0  0  0  0  0  0
   18.3019  -11.9579  -16.0931 C   0  0  1  0  0  0  0  0  0  0  0  0
   19.4240  -11.1402  -15.6103 C   0  0  0  0  0  0  0  0  0  0  0  0
   19.8319  -11.3227  -14.4176 O   0  0  0  0  0  0  0  0  0  0  0  0
   22.9217  -11.0200  -16.7396 C   0  0  0  0  0  0  0  0  0  0  0  0
   22.3734   -9.6159  -16.8663 C   0  0  1  0  0  0  0  0  0  0  0  0
   22.0151   -9.3680  -18.1872 O   0  0  0  0  0  0  0  0  0  0  0  0
   21.1818   -9.4464  -15.9371 C   0  0  2  0  0  0  0  0  0  0  0  0
   20.0400  -10.1691  -16.4514 N   0  0  0  0  0  0  0  0  0  0  0  0
   20.8736   -7.9846  -15.8005 C   0  0  0  0  0  0  0  0  0  0  0  0
   19.9152   -7.4960  -16.4343 O   0  0  0  0  0  0  0  0  0  0  0  0
   21.6502   -7.1576  -14.9672 N   0  0  0  0  0  0  0  0  0  0  0  0
   21.4516   -5.7017  -14.8932 C   0  0  1  0  0  0  0  0  0  0  0  0
   21.7741   -5.2268  -13.5036 C   0  0  0  0  0  0  0  0  0  0  0  0
   21.6082   -3.7882  -13.3308 C   0  0  0  0  0  0  0  0  0  0  0  0
   22.5613   -2.9628  -13.3187 O   0  0  0  0  0  0  0  0  0  0  0  0
   22.3557   -5.0945  -15.9024 C   0  0  0  0  0  0  0  0  0  0  0  0
   23.4581   -5.8610  -16.3434 O   0  0  0  0  0  0  0  0  0  0  0  0
   20.3057   -3.2642  -13.1648 O   0  0  0  0  0  0  0  0  0  0  0  0
   22.1774   -3.9478  -16.3670 O   0  0  0  0  0  0  0  0  0  0  0  0
  2  1  1  0
  3  2  1  0
  4  3  1  0
  4  5  1  0
  5  1  1  0
  5  6  1  6
  7  6  2  0
  9  8  1  6
  9 11  1  0
 10  9  1  0
 11 12  1  6
 11 13  1  0
 12  6  1  0
 13 15  1  0
 13 14  2  0
 15 16  1  0
 16 17  1  1
 17 18  1  0
 18 22  1  0
 18 19  2  0
 20 16  1  0
 20 21  1  0
 23 20  2  0
M  END
$$$$
