PTD.pdb
     RDKit          3D

 23 23  0  0  1  0  0  0  0  0999 V2000
   20.1887  -13.8123  -17.7177 N   0  0  0  0  0  0  0  0  0  0  0  0
   20.7553  -15.1222  -17.8127 C   0  0  0  0  0  0  0  0  0  0  0  0
   19.9462  -15.9089  -16.7778 C   0  0  0  0  0  0  0  0  0  0  0  0
   19.9875  -14.9039  -15.6261 C   0  0  0  0  0  0  0  0  0  0  0  0
   19.6200  -13.6357  -16.4018 C   0  0  1  0  0  0  0  0  0  0  0  0
   20.1359  -12.4222  -15.7521 C   0  0  0  0  0  0  0  0  0  0  0  0
   19.7774  -12.1826  -14.5537 O   0  0  0  0  0  0  0  0  0  0  0  0
   23.7096  -11.3722  -15.1971 C   0  0  0  0  0  0  0  0  0  0  0  0
   23.0081  -10.2441  -15.9204 C   0  0  1  0  0  0  0  0  0  0  0  0
   23.3486  -10.2659  -17.2688 O   0  0  0  0  0  0  0  0  0  0  0  0
   21.5045  -10.3747  -15.7355 C   0  0  2  0  0  0  0  0  0  0  0  0
   21.0130  -11.5364  -16.4421 N   0  0  0  0  0  0  0  0  0  0  0  0
   20.8413   -9.1245  -16.2330 C   0  0  0  0  0  0  0  0  0  0  0  0
   20.2097   -9.1497  -17.3098 O   0  0  0  0  0  0  0  0  0  0  0  0
   20.9214   -7.9244  -15.5017 N   0  0  0  0  0  0  0  0  0  0  0  0
   20.2566   -6.6871  -15.9395 C   0  0  1  0  0  0  0  0  0  0  0  0
   20.0157   -5.8043  -14.7465 C   0  0  0  0  0  0  0  0  0  0  0  0
   19.3789   -4.5364  -15.0842 C   0  0  0  0  0  0  0  0  0  0  0  0
   18.1686   -4.4196  -15.4176 O   0  0  0  0  0  0  0  0  0  0  0  0
   21.1605   -6.0409  -16.9245 C   0  0  0  0  0  0  0  0  0  0  0  0
   22.5392   -6.3420  -16.8480 O   0  0  0  0  0  0  0  0  0  0  0  0
   20.1482   -3.3511  -15.0414 O   0  0  0  0  0  0  0  0  0  0  0  0
   20.7498   -5.2533  -17.8040 O   0  0  0  0  0  0  0  0  0  0  0  0
  2  1  1  0
  3  2  1  0
  4  3  1  0
  4  5  1  0
  5  1  1  0
  5  6  1  1
  7  6  2  0
  9  8  1  1
  9 11  1  0
 10  9  1  0
 11 12  1  6
 11 13  1  0
 12  6  1  0
 13 15  1  0
 13 14  2  0
 15 16  1  0
 16 17  1  1
 17 18  1  0
 18 22  1  0
 18 19  2  0
 20 16  1  0
 20 21  1  0
 23 20  2  0
M  END
$$$$
