PTD.pdb
     RDKit          3D

 23 23  0  0  1  0  0  0  0  0999 V2000
   22.6324  -13.6771  -15.2532 N   0  0  0  0  0  0  0  0  0  0  0  0
   22.8141  -14.9423  -15.8952 C   0  0  0  0  0  0  0  0  0  0  0  0
   24.3098  -15.2029  -15.6965 C   0  0  0  0  0  0  0  0  0  0  0  0
   24.8469  -13.8232  -16.0787 C   0  0  0  0  0  0  0  0  0  0  0  0
   23.8843  -12.9568  -15.2615 C   0  0  1  0  0  0  0  0  0  0  0  0
   23.7270  -11.6132  -15.8368 C   0  0  0  0  0  0  0  0  0  0  0  0
   24.7600  -10.8742  -15.9306 O   0  0  0  0  0  0  0  0  0  0  0  0
   22.0118  -10.4859  -19.1413 C   0  0  0  0  0  0  0  0  0  0  0  0
   21.4072   -9.7458  -17.9689 C   0  0  1  0  0  0  0  0  0  0  0  0
   20.1763  -10.3055  -17.6432 O   0  0  0  0  0  0  0  0  0  0  0  0
   22.3601   -9.7972  -16.7852 C   0  0  2  0  0  0  0  0  0  0  0  0
   22.4546  -11.1478  -16.2778 N   0  0  0  0  0  0  0  0  0  0  0  0
   21.8694   -8.8587  -15.7226 C   0  0  0  0  0  0  0  0  0  0  0  0
   21.3034   -9.3186  -14.7091 O   0  0  0  0  0  0  0  0  0  0  0  0
   22.0392   -7.4675  -15.8533 N   0  0  0  0  0  0  0  0  0  0  0  0
   21.6008   -6.5179  -14.8187 C   0  0  1  0  0  0  0  0  0  0  0  0
   22.7492   -5.6204  -14.4500 C   0  0  0  0  0  0  0  0  0  0  0  0
   22.3763   -4.5518  -13.5302 C   0  0  0  0  0  0  0  0  0  0  0  0
   22.2155   -4.7104  -12.2897 O   0  0  0  0  0  0  0  0  0  0  0  0
   20.4690   -5.7490  -15.3954 C   0  0  0  0  0  0  0  0  0  0  0  0
   19.5860   -5.1062  -14.4986 O   0  0  0  0  0  0  0  0  0  0  0  0
   22.1777   -3.2481  -14.0396 O   0  0  0  0  0  0  0  0  0  0  0  0
   20.2747   -5.6528  -16.6265 O   0  0  0  0  0  0  0  0  0  0  0  0
  2  1  1  0
  3  2  1  0
  4  3  1  0
  4  5  1  0
  5  1  1  0
  5  6  1  6
  7  6  2  0
  9  8  1  6
  9 11  1  0
 10  9  1  0
 11 12  1  1
 11 13  1  0
 12  6  1  0
 13 15  1  0
 13 14  2  0
 15 16  1  0
 16 17  1  6
 17 18  1  0
 18 22  1  0
 18 19  2  0
 20 16  1  0
 20 21  1  0
 23 20  2  0
M  END
$$$$
