PTD.pdb
     RDKit          3D

 23 23  0  0  1  0  0  0  0  0999 V2000
   18.0600  -14.5288  -16.2855 N   0  0  0  0  0  0  0  0  0  0  0  0
   16.8484  -14.8411  -15.5924 C   0  0  0  0  0  0  0  0  0  0  0  0
   15.8644  -13.8190  -16.1682 C   0  0  0  0  0  0  0  0  0  0  0  0
   16.7434  -12.5701  -16.0924 C   0  0  0  0  0  0  0  0  0  0  0  0
   18.0279  -13.1446  -16.6967 C   0  0  1  0  0  0  0  0  0  0  0  0
   19.2238  -12.4212  -16.2411 C   0  0  0  0  0  0  0  0  0  0  0  0
   19.7678  -12.7859  -15.1488 O   0  0  0  0  0  0  0  0  0  0  0  0
   22.4934  -12.2440  -17.7803 C   0  0  0  0  0  0  0  0  0  0  0  0
   22.0560  -10.8062  -17.6087 C   0  0  1  0  0  0  0  0  0  0  0  0
   21.5882  -10.3087  -18.8204 O   0  0  0  0  0  0  0  0  0  0  0  0
   20.9831  -10.7229  -16.5344 C   0  0  2  0  0  0  0  0  0  0  0  0
   19.7614  -11.3410  -16.9989 N   0  0  0  0  0  0  0  0  0  0  0  0
   20.7550   -9.2822  -16.1834 C   0  0  0  0  0  0  0  0  0  0  0  0
   19.7248   -8.7056  -16.5900 O   0  0  0  0  0  0  0  0  0  0  0  0
   21.6864   -8.5731  -15.4018 N   0  0  0  0  0  0  0  0  0  0  0  0
   21.4649   -7.1817  -14.9783 C   0  0  1  0  0  0  0  0  0  0  0  0
   22.4863   -6.8106  -13.9393 C   0  0  0  0  0  0  0  0  0  0  0  0
   22.3903   -5.4220  -13.5037 C   0  0  0  0  0  0  0  0  0  0  0  0
   23.0598   -4.4767  -14.0017 O   0  0  0  0  0  0  0  0  0  0  0  0
   21.5906   -6.3389  -16.1943 C   0  0  0  0  0  0  0  0  0  0  0  0
   22.5701   -6.7007  -17.1467 O   0  0  0  0  0  0  0  0  0  0  0  0
   21.4967   -5.0923  -12.4590 O   0  0  0  0  0  0  0  0  0  0  0  0
   20.8713   -5.3376  -16.4003 O   0  0  0  0  0  0  0  0  0  0  0  0
  2  1  1  0
  3  2  1  0
  4  3  1  0
  4  5  1  0
  5  1  1  0
  5  6  1  1
  7  6  2  0
  9  8  1  6
  9 11  1  0
 10  9  1  0
 11 12  1  6
 11 13  1  0
 12  6  1  0
 13 15  1  0
 13 14  2  0
 15 16  1  0
 16 17  1  1
 17 18  1  0
 18 22  1  0
 18 19  2  0
 20 16  1  0
 20 21  1  0
 23 20  2  0
M  END
$$$$
