PTD.pdb
     RDKit          3D

 23 23  0  0  1  0  0  0  0  0999 V2000
   17.2889  -26.2444   -5.5427 N   0  0  0  0  0  0  0  0  0  0  0  0
   16.4647  -26.6640   -6.6338 C   0  0  0  0  0  0  0  0  0  0  0  0
   15.1208  -26.0078   -6.3053 C   0  0  0  0  0  0  0  0  0  0  0  0
   15.0370  -26.3624   -4.8202 C   0  0  0  0  0  0  0  0  0  0  0  0
   16.4538  -25.9627   -4.3984 C   0  0  1  0  0  0  0  0  0  0  0  0
   16.9048  -26.7006   -3.2097 C   0  0  0  0  0  0  0  0  0  0  0  0
   16.4599  -27.8802   -3.0292 O   0  0  0  0  0  0  0  0  0  0  0  0
   20.2276  -27.8868   -2.3883 C   0  0  0  0  0  0  0  0  0  0  0  0
   19.8025  -27.0283   -1.2178 C   0  0  1  0  0  0  0  0  0  0  0  0
   20.3855  -25.7697   -1.3210 O   0  0  0  0  0  0  0  0  0  0  0  0
   18.2859  -26.9255   -1.1830 C   0  0  2  0  0  0  0  0  0  0  0  0
   17.8144  -26.1143   -2.2830 N   0  0  0  0  0  0  0  0  0  0  0  0
   17.8665  -26.3399    0.1330 C   0  0  0  0  0  0  0  0  0  0  0  0
   17.4375  -25.1681    0.1763 O   0  0  0  0  0  0  0  0  0  0  0  0
   17.9501  -27.0942    1.3186 N   0  0  0  0  0  0  0  0  0  0  0  0
   17.6090  -26.5349    2.6359 C   0  0  1  0  0  0  0  0  0  0  0  0
   16.4891  -27.3356    3.2401 C   0  0  0  0  0  0  0  0  0  0  0  0
   16.8859  -28.6843    3.6281 C   0  0  0  0  0  0  0  0  0  0  0  0
   17.3506  -29.5421    2.8294 O   0  0  0  0  0  0  0  0  0  0  0  0
   18.8402  -26.6059    3.4629 C   0  0  0  0  0  0  0  0  0  0  0  0
   19.9588  -27.2781    2.9205 O   0  0  0  0  0  0  0  0  0  0  0  0
   16.7499  -29.0759    4.9797 O   0  0  0  0  0  0  0  0  0  0  0  0
   18.9190  -26.0995    4.6030 O   0  0  0  0  0  0  0  0  0  0  0  0
  2  1  1  0
  3  2  1  0
  4  3  1  0
  4  5  1  0
  5  1  1  0
  5  6  1  1
  7  6  2  0
  9  8  1  6
  9 11  1  0
 10  9  1  0
 11 12  1  6
 11 13  1  0
 12  6  1  0
 13 15  1  0
 13 14  2  0
 15 16  1  0
 16 17  1  1
 17 18  1  0
 18 22  1  0
 18 19  2  0
 20 16  1  0
 20 21  1  0
 23 20  2  0
M  END
$$$$
