QFT.pdb
     RDKit          3D

 28 28  0  0  1  0  0  0  0  0999 V2000
   27.2899  -16.7930  -14.6778 N   0  0  0  0  0  0  0  0  0  0  0  0
   28.0726  -17.1829  -15.8110 C   0  0  0  0  0  0  0  0  0  0  0  0
   28.8106  -16.2895  -16.2862 O   0  0  0  0  0  0  0  0  0  0  0  0
   27.9388  -18.5604  -16.3029 C   0  0  0  0  0  0  0  0  0  0  0  0
   27.0593  -19.4006  -15.4591 C   0  0  0  0  0  0  0  0  0  0  0  0
   27.7216  -20.2028  -14.3815 C   0  0  2  0  0  0  0  0  0  0  0  0
   28.6436  -21.1917  -14.8599 N   0  0  0  0  0  0  0  0  0  0  0  0
   26.6398  -20.8577  -13.5565 C   0  0  0  0  0  0  0  0  0  0  0  0
   26.2966  -22.0197  -13.8493 O   0  0  0  0  0  0  0  0  0  0  0  0
   26.0261  -20.1721  -12.4742 N   0  0  0  0  0  0  0  0  0  0  0  0
   24.9865  -20.8135  -11.6934 C   0  0  1  0  0  0  0  0  0  0  0  0
   24.9107  -20.2352  -10.2971 C   0  0  0  0  0  0  0  0  0  0  0  0
   26.1616  -20.4344   -9.5328 C   0  0  0  0  0  0  0  0  0  0  0  0
   27.0620  -21.4439   -9.8142 C   0  0  0  0  0  0  0  0  0  0  0  0
   28.2232  -21.6143   -9.0908 C   0  0  0  0  0  0  0  0  0  0  0  0
   28.5118  -20.7596   -8.0496 C   0  0  0  0  0  0  0  0  0  0  0  0
   27.6353  -19.7435   -7.7435 C   0  0  0  0  0  0  0  0  0  0  0  0
   26.4741  -19.5958   -8.4888 C   0  0  0  0  0  0  0  0  0  0  0  0
   23.6686  -20.5790  -12.3328 C   0  0  0  0  0  0  0  0  0  0  0  0
   23.2626  -19.4299  -12.6376 O   0  0  0  0  0  0  0  0  0  0  0  0
   22.4296  -22.6732  -15.4008 C   0  0  0  0  0  0  0  0  0  0  0  0
   21.3591  -22.5671  -14.3642 C   0  0  1  0  0  0  0  0  0  0  0  0
   21.2459  -23.8087  -13.7463 O   0  0  0  0  0  0  0  0  0  0  0  0
   21.5935  -21.4631  -13.3533 C   0  0  2  0  0  0  0  0  0  0  0  0
   22.8223  -21.6794  -12.6183 N   0  0  0  0  0  0  0  0  0  0  0  0
   20.4460  -21.3260  -12.4221 C   0  0  0  0  0  0  0  0  0  0  0  0
   20.5745  -21.5306  -11.1900 O   0  0  0  0  0  0  0  0  0  0  0  0
   19.1698  -20.9630  -12.8719 O   0  0  0  0  0  0  0  0  0  0  0  0
  2  1  1  0
  2  3  2  0
  4  5  1  0
  4  2  1  0
  5  6  1  0
  6  8  1  0
  6  7  1  6
  8  9  2  0
 10 11  1  0
 10  8  1  0
 11 12  1  1
 13 12  1  0
 14 13  2  0
 15 14  1  0
 16 17  1  0
 16 15  2  0
 17 18  2  0
 18 13  1  0
 19 20  2  0
 19 11  1  0
 22 21  1  6
 22 24  1  0
 23 22  1  0
 24 26  1  0
 24 25  1  1
 25 19  1  0
 26 28  1  0
 27 26  2  0
M  END
$$$$
