QFT.pdb
     RDKit          3D

 28 28  0  0  1  0  0  0  0  0999 V2000
   29.3049  -18.2713  -19.3801 N   0  0  0  0  0  0  0  0  0  0  0  0
   28.2551  -19.1930  -19.6920 C   0  0  0  0  0  0  0  0  0  0  0  0
   28.5626  -20.1049  -20.4936 O   0  0  0  0  0  0  0  0  0  0  0  0
   26.9445  -18.9874  -19.0616 C   0  0  0  0  0  0  0  0  0  0  0  0
   26.5888  -20.0472  -18.0913 C   0  0  0  0  0  0  0  0  0  0  0  0
   27.6392  -20.4323  -17.0953 C   0  0  2  0  0  0  0  0  0  0  0  0
   28.5273  -21.4668  -17.5400 N   0  0  0  0  0  0  0  0  0  0  0  0
   26.9430  -20.8565  -15.8244 C   0  0  0  0  0  0  0  0  0  0  0  0
   26.3723  -21.9645  -15.8061 O   0  0  0  0  0  0  0  0  0  0  0  0
   26.9357  -20.0188  -14.6771 N   0  0  0  0  0  0  0  0  0  0  0  0
   26.2485  -20.4331  -13.4696 C   0  0  1  0  0  0  0  0  0  0  0  0
   26.7549  -19.6766  -12.2609 C   0  0  0  0  0  0  0  0  0  0  0  0
   26.0755  -20.0848  -11.0117 C   0  0  0  0  0  0  0  0  0  0  0  0
   25.1438  -21.1037  -10.9610 C   0  0  0  0  0  0  0  0  0  0  0  0
   24.5205  -21.4705   -9.7873 C   0  0  0  0  0  0  0  0  0  0  0  0
   24.8240  -20.8106   -8.6167 C   0  0  0  0  0  0  0  0  0  0  0  0
   25.7482  -19.7907   -8.6333 C   0  0  0  0  0  0  0  0  0  0  0  0
   26.3599  -19.4430   -9.8294 C   0  0  0  0  0  0  0  0  0  0  0  0
   24.8009  -20.1338  -13.5942 C   0  0  0  0  0  0  0  0  0  0  0  0
   24.3648  -18.9649  -13.7421 O   0  0  0  0  0  0  0  0  0  0  0  0
   22.2696  -21.6317  -16.0378 C   0  0  0  0  0  0  0  0  0  0  0  0
   21.7580  -21.7907  -14.6433 C   0  0  1  0  0  0  0  0  0  0  0  0
   21.8804  -23.1335  -14.2997 O   0  0  0  0  0  0  0  0  0  0  0  0
   22.4452  -20.8942  -13.6335 C   0  0  2  0  0  0  0  0  0  0  0  0
   23.8596  -21.1922  -13.5470 N   0  0  0  0  0  0  0  0  0  0  0  0
   21.8086  -20.9934  -12.2964 C   0  0  0  0  0  0  0  0  0  0  0  0
   22.4385  -21.4300  -11.3020 O   0  0  0  0  0  0  0  0  0  0  0  0
   20.4795  -20.6060  -12.0813 O   0  0  0  0  0  0  0  0  0  0  0  0
  2  1  1  0
  2  3  2  0
  4  5  1  0
  4  2  1  0
  5  6  1  0
  6  8  1  0
  6  7  1  6
  8  9  2  0
 10 11  1  0
 10  8  1  0
 11 12  1  1
 13 12  1  0
 14 13  2  0
 15 14  1  0
 16 17  1  0
 16 15  2  0
 17 18  2  0
 18 13  1  0
 19 20  2  0
 19 11  1  0
 22 21  1  6
 22 24  1  0
 23 22  1  0
 24 26  1  0
 24 25  1  1
 25 19  1  0
 26 28  1  0
 27 26  2  0
M  END
$$$$
