QFT.pdb
     RDKit          3D

 28 28  0  0  1  0  0  0  0  0999 V2000
   26.0819  -21.7705  -15.4061 N   0  0  0  0  0  0  0  0  0  0  0  0
   26.5686  -20.5277  -15.9232 C   0  0  0  0  0  0  0  0  0  0  0  0
   26.4896  -20.3962  -17.1662 O   0  0  0  0  0  0  0  0  0  0  0  0
   27.1063  -19.5461  -14.9721 C   0  0  0  0  0  0  0  0  0  0  0  0
   26.9573  -19.9584  -13.5582 C   0  0  0  0  0  0  0  0  0  0  0  0
   28.1813  -20.4868  -12.8754 C   0  0  2  0  0  0  0  0  0  0  0  0
   28.7613  -21.6377  -13.5045 N   0  0  0  0  0  0  0  0  0  0  0  0
   27.8162  -20.8056  -11.4454 C   0  0  0  0  0  0  0  0  0  0  0  0
   27.1017  -21.8035  -11.2275 O   0  0  0  0  0  0  0  0  0  0  0  0
   28.2722  -19.9931  -10.3730 N   0  0  0  0  0  0  0  0  0  0  0  0
   27.8857  -20.2932   -9.0084 C   0  0  1  0  0  0  0  0  0  0  0  0
   28.6960  -19.4872   -8.0168 C   0  0  0  0  0  0  0  0  0  0  0  0
   28.3254  -19.7768   -6.6141 C   0  0  0  0  0  0  0  0  0  0  0  0
   28.4617  -21.0277   -6.0434 C   0  0  0  0  0  0  0  0  0  0  0  0
   28.1109  -21.2791   -4.7341 C   0  0  0  0  0  0  0  0  0  0  0  0
   27.6062  -20.2620   -3.9540 C   0  0  0  0  0  0  0  0  0  0  0  0
   27.4579  -19.0041   -4.4926 C   0  0  0  0  0  0  0  0  0  0  0  0
   27.8193  -18.7800   -5.8136 C   0  0  0  0  0  0  0  0  0  0  0  0
   26.4621  -19.9292   -8.8037 C   0  0  0  0  0  0  0  0  0  0  0  0
   26.0455  -18.7494   -8.9161 O   0  0  0  0  0  0  0  0  0  0  0  0
   23.8370  -19.9346  -10.7169 C   0  0  0  0  0  0  0  0  0  0  0  0
   23.3530  -20.7805   -9.5847 C   0  0  1  0  0  0  0  0  0  0  0  0
   23.3896  -22.1069  -10.0037 O   0  0  0  0  0  0  0  0  0  0  0  0
   24.1284  -20.5829   -8.2982 C   0  0  2  0  0  0  0  0  0  0  0  0
   25.5224  -20.9358   -8.4685 N   0  0  0  0  0  0  0  0  0  0  0  0
   23.5290  -21.3510   -7.1786 C   0  0  0  0  0  0  0  0  0  0  0  0
   24.1801  -22.2336   -6.5675 O   0  0  0  0  0  0  0  0  0  0  0  0
   22.2131  -21.1286   -6.7522 O   0  0  0  0  0  0  0  0  0  0  0  0
  2  1  1  0
  2  3  2  0
  4  5  1  0
  4  2  1  0
  5  6  1  0
  6  8  1  0
  6  7  1  6
  8  9  2  0
 10 11  1  0
 10  8  1  0
 11 12  1  1
 13 12  1  0
 14 13  2  0
 15 14  1  0
 16 17  1  0
 16 15  2  0
 17 18  2  0
 18 13  1  0
 19 20  2  0
 19 11  1  0
 22 21  1  6
 22 24  1  0
 23 22  1  0
 24 26  1  0
 24 25  1  6
 25 19  1  0
 26 28  1  0
 27 26  2  0
M  END
$$$$
