QFT.pdb
     RDKit          3D

 28 28  0  0  1  0  0  0  0  0999 V2000
   26.5854  -22.7753  -19.3434 N   0  0  0  0  0  0  0  0  0  0  0  0
   27.4735  -21.6965  -19.6538 C   0  0  0  0  0  0  0  0  0  0  0  0
   27.8787  -21.6592  -20.8383 O   0  0  0  0  0  0  0  0  0  0  0  0
   27.8225  -20.7574  -18.5798 C   0  0  0  0  0  0  0  0  0  0  0  0
   27.1140  -21.0314  -17.3092 C   0  0  0  0  0  0  0  0  0  0  0  0
   27.8501  -21.8395  -16.2852 C   0  0  2  0  0  0  0  0  0  0  0  0
   28.1552  -23.1797  -16.6946 N   0  0  0  0  0  0  0  0  0  0  0  0
   27.0218  -21.8580  -15.0230 C   0  0  0  0  0  0  0  0  0  0  0  0
   26.0236  -22.6037  -14.9833 O   0  0  0  0  0  0  0  0  0  0  0  0
   27.3665  -21.0492  -13.9071 N   0  0  0  0  0  0  0  0  0  0  0  0
   26.5671  -21.0862  -12.6983 C   0  0  1  0  0  0  0  0  0  0  0  0
   27.2600  -20.3726  -11.5580 C   0  0  0  0  0  0  0  0  0  0  0  0
   26.4230  -20.3050  -10.3400 C   0  0  0  0  0  0  0  0  0  0  0  0
   25.8722  -19.1279   -9.8707 C   0  0  0  0  0  0  0  0  0  0  0  0
   25.0943  -19.0840   -8.7333 C   0  0  0  0  0  0  0  0  0  0  0  0
   24.8474  -20.2418   -8.0286 C   0  0  0  0  0  0  0  0  0  0  0  0
   25.3816  -21.4311   -8.4697 C   0  0  0  0  0  0  0  0  0  0  0  0
   26.1608  -21.4454   -9.6179 C   0  0  0  0  0  0  0  0  0  0  0  0
   25.2806  -20.3853  -12.9317 C   0  0  0  0  0  0  0  0  0  0  0  0
   25.2244  -19.1942  -13.3271 O   0  0  0  0  0  0  0  0  0  0  0  0
   23.0672  -20.6232  -15.4621 C   0  0  0  0  0  0  0  0  0  0  0  0
   22.1945  -20.8558  -14.2722 C   0  0  1  0  0  0  0  0  0  0  0  0
   21.8822  -22.2113  -14.2367 O   0  0  0  0  0  0  0  0  0  0  0  0
   22.8052  -20.3922  -12.9654 C   0  0  2  0  0  0  0  0  0  0  0  0
   24.0594  -21.0679  -12.7057 N   0  0  0  0  0  0  0  0  0  0  0  0
   21.8673  -20.5792  -11.8304 C   0  0  0  0  0  0  0  0  0  0  0  0
   22.1523  -21.3251  -10.8615 O   0  0  0  0  0  0  0  0  0  0  0  0
   20.6241  -19.9347  -11.7865 O   0  0  0  0  0  0  0  0  0  0  0  0
  2  1  1  0
  2  3  2  0
  4  5  1  0
  4  2  1  0
  5  6  1  0
  6  8  1  0
  6  7  1  6
  8  9  2  0
 10 11  1  0
 10  8  1  0
 11 12  1  1
 13 12  1  0
 14 13  2  0
 15 14  1  0
 16 17  1  0
 16 15  2  0
 17 18  2  0
 18 13  1  0
 19 20  2  0
 19 11  1  0
 22 21  1  6
 22 24  1  0
 23 22  1  0
 24 26  1  0
 24 25  1  1
 25 19  1  0
 26 28  1  0
 27 26  2  0
M  END
$$$$
