QFT.pdb
     RDKit          3D

 28 28  0  0  1  0  0  0  0  0999 V2000
   25.4958  -17.4782  -14.4185 N   0  0  0  0  0  0  0  0  0  0  0  0
   26.2593  -18.5048  -15.0603 C   0  0  0  0  0  0  0  0  0  0  0  0
   27.2485  -18.1064  -15.7171 O   0  0  0  0  0  0  0  0  0  0  0  0
   25.8210  -19.8971  -14.8967 C   0  0  0  0  0  0  0  0  0  0  0  0
   25.8800  -20.3687  -13.4948 C   0  0  0  0  0  0  0  0  0  0  0  0
   27.2423  -20.5469  -12.8981 C   0  0  2  0  0  0  0  0  0  0  0  0
   28.0475  -21.5421  -13.5449 N   0  0  0  0  0  0  0  0  0  0  0  0
   27.0702  -20.8875  -11.4373 C   0  0  0  0  0  0  0  0  0  0  0  0
   26.4062  -21.9003  -11.1419 O   0  0  0  0  0  0  0  0  0  0  0  0
   27.6476  -20.0785  -10.4223 N   0  0  0  0  0  0  0  0  0  0  0  0
   27.3291  -20.3116   -9.0273 C   0  0  1  0  0  0  0  0  0  0  0  0
   28.1466  -19.4189   -8.1193 C   0  0  0  0  0  0  0  0  0  0  0  0
   28.0035  -19.7798   -6.6917 C   0  0  0  0  0  0  0  0  0  0  0  0
   28.4619  -20.9735   -6.1684 C   0  0  0  0  0  0  0  0  0  0  0  0
   28.3197  -21.2929   -4.8348 C   0  0  0  0  0  0  0  0  0  0  0  0
   27.7029  -20.4049   -3.9810 C   0  0  0  0  0  0  0  0  0  0  0  0
   27.2350  -19.2068   -4.4710 C   0  0  0  0  0  0  0  0  0  0  0  0
   27.3920  -18.9119   -5.8179 C   0  0  0  0  0  0  0  0  0  0  0  0
   25.9018  -19.9894   -8.7829 C   0  0  0  0  0  0  0  0  0  0  0  0
   25.4544  -18.8175   -8.8515 O   0  0  0  0  0  0  0  0  0  0  0  0
   23.2157  -20.0014  -10.6436 C   0  0  0  0  0  0  0  0  0  0  0  0
   22.8008  -20.9091   -9.5321 C   0  0  1  0  0  0  0  0  0  0  0  0
   22.8942  -22.2168   -9.9983 O   0  0  0  0  0  0  0  0  0  0  0  0
   23.5947  -20.7164   -8.2561 C   0  0  2  0  0  0  0  0  0  0  0  0
   24.9941  -21.0284   -8.4588 N   0  0  0  0  0  0  0  0  0  0  0  0
   23.0368  -21.5225   -7.1417 C   0  0  0  0  0  0  0  0  0  0  0  0
   23.7388  -22.3606   -6.5243 O   0  0  0  0  0  0  0  0  0  0  0  0
   21.7053  -21.3870   -6.7273 O   0  0  0  0  0  0  0  0  0  0  0  0
  2  1  1  0
  2  3  2  0
  4  5  1  0
  4  2  1  0
  5  6  1  0
  6  8  1  0
  6  7  1  6
  8  9  2  0
 10 11  1  0
 10  8  1  0
 11 12  1  1
 13 12  1  0
 14 13  2  0
 15 14  1  0
 16 17  1  0
 16 15  2  0
 17 18  2  0
 18 13  1  0
 19 20  2  0
 19 11  1  0
 22 21  1  6
 22 24  1  0
 23 22  1  0
 24 26  1  0
 24 25  1  6
 25 19  1  0
 26 28  1  0
 27 26  2  0
M  END
$$$$
