QFT.pdb
     RDKit          3D

 28 28  0  0  1  0  0  0  0  0999 V2000
   29.3073  -22.4175  -18.1377 N   0  0  0  0  0  0  0  0  0  0  0  0
   28.7730  -21.1200  -18.4204 C   0  0  0  0  0  0  0  0  0  0  0  0
   29.2382  -20.5585  -19.4387 O   0  0  0  0  0  0  0  0  0  0  0  0
   27.7557  -20.5778  -17.5102 C   0  0  0  0  0  0  0  0  0  0  0  0
   27.4101  -21.4980  -16.4034 C   0  0  0  0  0  0  0  0  0  0  0  0
   27.9516  -21.1594  -15.0485 C   0  0  2  0  0  0  0  0  0  0  0  0
   29.1422  -21.8741  -14.6901 N   0  0  0  0  0  0  0  0  0  0  0  0
   26.8643  -21.4201  -14.0338 C   0  0  0  0  0  0  0  0  0  0  0  0
   26.4672  -22.5920  -13.8826 O   0  0  0  0  0  0  0  0  0  0  0  0
   26.3054  -20.3615  -13.2690 N   0  0  0  0  0  0  0  0  0  0  0  0
   25.2797  -20.6315  -12.2806 C   0  0  1  0  0  0  0  0  0  0  0  0
   25.4461  -19.7525  -11.0602 C   0  0  0  0  0  0  0  0  0  0  0  0
   26.4539  -20.2807  -10.1147 C   0  0  0  0  0  0  0  0  0  0  0  0
   27.7372  -20.6217  -10.4967 C   0  0  0  0  0  0  0  0  0  0  0  0
   28.6634  -21.1128   -9.6013 C   0  0  0  0  0  0  0  0  0  0  0  0
   28.3158  -21.2755   -8.2782 C   0  0  0  0  0  0  0  0  0  0  0  0
   27.0451  -20.9451   -7.8654 C   0  0  0  0  0  0  0  0  0  0  0  0
   26.1334  -20.4530   -8.7887 C   0  0  0  0  0  0  0  0  0  0  0  0
   23.9452  -20.3303  -12.8542 C   0  0  0  0  0  0  0  0  0  0  0  0
   23.6468  -19.1971  -13.3073 O   0  0  0  0  0  0  0  0  0  0  0  0
   22.3874  -22.4378  -15.6148 C   0  0  0  0  0  0  0  0  0  0  0  0
   21.3715  -22.2276  -14.5399 C   0  0  1  0  0  0  0  0  0  0  0  0
   21.2202  -23.4328  -13.8611 O   0  0  0  0  0  0  0  0  0  0  0  0
   21.7091  -21.0949  -13.5920 C   0  0  2  0  0  0  0  0  0  0  0  0
   22.9572  -21.3452  -12.9017 N   0  0  0  0  0  0  0  0  0  0  0  0
   20.6141  -20.8554  -12.6192 C   0  0  0  0  0  0  0  0  0  0  0  0
   20.8088  -20.9349  -11.3814 O   0  0  0  0  0  0  0  0  0  0  0  0
   19.3161  -20.5304  -13.0344 O   0  0  0  0  0  0  0  0  0  0  0  0
  2  1  1  0
  2  3  2  0
  4  5  1  0
  4  2  1  0
  5  6  1  0
  6  8  1  0
  6  7  1  1
  8  9  2  0
 10 11  1  0
 10  8  1  0
 11 12  1  1
 13 12  1  0
 14 13  2  0
 15 14  1  0
 16 17  1  0
 16 15  2  0
 17 18  2  0
 18 13  1  0
 19 20  2  0
 19 11  1  0
 22 21  1  6
 22 24  1  0
 23 22  1  0
 24 26  1  0
 24 25  1  1
 25 19  1  0
 26 28  1  0
 27 26  2  0
M  END
$$$$
