QFT.pdb
     RDKit          3D

 28 28  0  0  1  0  0  0  0  0999 V2000
   17.5431  -11.5477  -14.5666 N   0  0  0  0  0  0  0  0  0  0  0  0
   16.2079  -12.0527  -14.6719 C   0  0  0  0  0  0  0  0  0  0  0  0
   16.1153  -13.2707  -14.9481 O   0  0  0  0  0  0  0  0  0  0  0  0
   15.0960  -11.1177  -14.4554 C   0  0  0  0  0  0  0  0  0  0  0  0
   15.5382   -9.7699  -14.0320 C   0  0  0  0  0  0  0  0  0  0  0  0
   15.1060   -9.3124  -12.6728 C   0  0  2  0  0  0  0  0  0  0  0  0
   13.6923   -9.1132  -12.5358 N   0  0  0  0  0  0  0  0  0  0  0  0
   15.8436   -8.0338  -12.3552 C   0  0  0  0  0  0  0  0  0  0  0  0
   15.3015   -6.9510  -12.6509 O   0  0  0  0  0  0  0  0  0  0  0  0
   17.1218   -8.0586  -11.7359 N   0  0  0  0  0  0  0  0  0  0  0  0
   17.7712   -6.8237  -11.3420 C   0  0  1  0  0  0  0  0  0  0  0  0
   17.9538   -6.7519   -9.8417 C   0  0  0  0  0  0  0  0  0  0  0  0
   16.6816   -6.5079   -9.1272 C   0  0  0  0  0  0  0  0  0  0  0  0
   16.1806   -5.2413   -8.8952 C   0  0  0  0  0  0  0  0  0  0  0  0
   14.9927   -5.0330   -8.2272 C   0  0  0  0  0  0  0  0  0  0  0  0
   14.2678   -6.1110   -7.7688 C   0  0  0  0  0  0  0  0  0  0  0  0
   14.7395   -7.3861   -7.9838 C   0  0  0  0  0  0  0  0  0  0  0  0
   15.9383   -7.5658   -8.6592 C   0  0  0  0  0  0  0  0  0  0  0  0
   19.1238   -6.7584  -11.9479 C   0  0  0  0  0  0  0  0  0  0  0  0
   19.9506   -7.6995  -11.8532 O   0  0  0  0  0  0  0  0  0  0  0  0
   19.8144   -5.7333  -15.7087 C   0  0  0  0  0  0  0  0  0  0  0  0
   20.6270   -4.9391  -14.7388 C   0  0  1  0  0  0  0  0  0  0  0  0
   20.0469   -3.6785  -14.6354 O   0  0  0  0  0  0  0  0  0  0  0  0
   20.7738   -5.5959  -13.3814 C   0  0  2  0  0  0  0  0  0  0  0  0
   19.5161   -5.5999  -12.6638 N   0  0  0  0  0  0  0  0  0  0  0  0
   21.8334   -4.9427  -12.5731 C   0  0  0  0  0  0  0  0  0  0  0  0
   21.5722   -4.3856  -11.4786 O   0  0  0  0  0  0  0  0  0  0  0  0
   23.1702   -4.9167  -12.9914 O   0  0  0  0  0  0  0  0  0  0  0  0
  2  1  1  0
  2  3  2  0
  4  5  1  0
  4  2  1  0
  5  6  1  0
  6  8  1  0
  6  7  1  6
  8  9  2  0
 10 11  1  0
 10  8  1  0
 11 12  1  1
 13 12  1  0
 14 13  2  0
 15 14  1  0
 16 17  1  0
 16 15  2  0
 17 18  2  0
 18 13  1  0
 19 20  2  0
 19 11  1  0
 22 21  1  6
 22 24  1  0
 23 22  1  0
 24 26  1  0
 24 25  1  1
 25 19  1  0
 26 28  1  0
 27 26  2  0
M  END
$$$$
