QFT.pdb
     RDKit          3D

 28 28  0  0  1  0  0  0  0  0999 V2000
   22.7754  -23.3825  -14.5319 N   0  0  0  0  0  0  0  0  0  0  0  0
   21.9781  -22.2118  -14.7381 C   0  0  0  0  0  0  0  0  0  0  0  0
   21.8646  -21.8431  -15.9296 O   0  0  0  0  0  0  0  0  0  0  0  0
   21.3837  -21.5638  -13.5615 C   0  0  0  0  0  0  0  0  0  0  0  0
   21.7550  -22.2145  -12.2847 C   0  0  0  0  0  0  0  0  0  0  0  0
   22.0611  -21.3115  -11.1296 C   0  0  2  0  0  0  0  0  0  0  0  0
   21.1237  -20.2413  -10.9487 N   0  0  0  0  0  0  0  0  0  0  0  0
   23.4510  -20.7561  -11.3280 C   0  0  0  0  0  0  0  0  0  0  0  0
   23.5655  -19.6014  -11.7835 O   0  0  0  0  0  0  0  0  0  0  0  0
   24.6013  -21.5249  -11.0057 N   0  0  0  0  0  0  0  0  0  0  0  0
   25.9286  -20.9665  -11.1734 C   0  0  1  0  0  0  0  0  0  0  0  0
   26.9390  -21.6759  -10.2985 C   0  0  0  0  0  0  0  0  0  0  0  0
   27.2033  -20.9511   -9.0363 C   0  0  0  0  0  0  0  0  0  0  0  0
   26.4413  -19.8800   -8.6106 C   0  0  0  0  0  0  0  0  0  0  0  0
   26.7026  -19.2163   -7.4308 C   0  0  0  0  0  0  0  0  0  0  0  0
   27.7539  -19.6202   -6.6374 C   0  0  0  0  0  0  0  0  0  0  0  0
   28.5324  -20.6840   -7.0331 C   0  0  0  0  0  0  0  0  0  0  0  0
   28.2462  -21.3333   -8.2256 C   0  0  0  0  0  0  0  0  0  0  0  0
   26.3691  -21.1456  -12.5786 C   0  0  0  0  0  0  0  0  0  0  0  0
   26.1858  -22.2155  -13.2111 O   0  0  0  0  0  0  0  0  0  0  0  0
   28.4973  -18.0066  -14.6245 C   0  0  0  0  0  0  0  0  0  0  0  0
   27.2379  -18.5915  -15.1754 C   0  0  1  0  0  0  0  0  0  0  0  0
   27.3179  -18.5338  -16.5634 O   0  0  0  0  0  0  0  0  0  0  0  0
   26.9554  -19.9999  -14.6936 C   0  0  2  0  0  0  0  0  0  0  0  0
   27.0227  -20.0818  -13.2494 N   0  0  0  0  0  0  0  0  0  0  0  0
   27.8779  -20.9825  -15.3152 C   0  0  0  0  0  0  0  0  0  0  0  0
   28.7147  -21.6197  -14.6296 O   0  0  0  0  0  0  0  0  0  0  0  0
   27.8588  -21.2445  -16.6914 O   0  0  0  0  0  0  0  0  0  0  0  0
  2  1  1  0
  2  3  2  0
  4  5  1  0
  4  2  1  0
  5  6  1  0
  6  8  1  0
  6  7  1  6
  8  9  2  0
 10 11  1  0
 10  8  1  0
 11 12  1  1
 13 12  1  0
 14 13  2  0
 15 14  1  0
 16 17  1  0
 16 15  2  0
 17 18  2  0
 18 13  1  0
 19 20  2  0
 19 11  1  0
 22 21  1  1
 22 24  1  0
 23 22  1  0
 24 26  1  0
 24 25  1  1
 25 19  1  0
 26 28  1  0
 27 26  2  0
M  END
$$$$
