QFT.pdb
     RDKit          3D

 28 28  0  0  1  0  0  0  0  0999 V2000
   30.2768  -20.3243  -18.5767 N   0  0  0  0  0  0  0  0  0  0  0  0
   29.2316  -20.4011  -19.5517 C   0  0  0  0  0  0  0  0  0  0  0  0
   29.1909  -19.4540  -20.3701 O   0  0  0  0  0  0  0  0  0  0  0  0
   28.3225  -21.5537  -19.5015 C   0  0  0  0  0  0  0  0  0  0  0  0
   27.7759  -21.8099  -18.1499 C   0  0  0  0  0  0  0  0  0  0  0  0
   26.7195  -20.8687  -17.6582 C   0  0  2  0  0  0  0  0  0  0  0  0
   27.0666  -19.4810  -17.7621 N   0  0  0  0  0  0  0  0  0  0  0  0
   26.4132  -21.2211  -16.2223 C   0  0  0  0  0  0  0  0  0  0  0  0
   26.1848  -22.4144  -15.9436 O   0  0  0  0  0  0  0  0  0  0  0  0
   26.3850  -20.2230  -15.2118 N   0  0  0  0  0  0  0  0  0  0  0  0
   25.9702  -20.5550  -13.8629 C   0  0  1  0  0  0  0  0  0  0  0  0
   26.7954  -19.8125  -12.8347 C   0  0  0  0  0  0  0  0  0  0  0  0
   26.3762  -20.1125  -11.4480 C   0  0  0  0  0  0  0  0  0  0  0  0
   25.4158  -19.3796  -10.7776 C   0  0  0  0  0  0  0  0  0  0  0  0
   25.0378  -19.6740   -9.4849 C   0  0  0  0  0  0  0  0  0  0  0  0
   25.6260  -20.7300   -8.8240 C   0  0  0  0  0  0  0  0  0  0  0  0
   26.5864  -21.4801   -9.4640 C   0  0  0  0  0  0  0  0  0  0  0  0
   26.9472  -21.1608  -10.7654 C   0  0  0  0  0  0  0  0  0  0  0  0
   24.5578  -20.1477  -13.6629 C   0  0  0  0  0  0  0  0  0  0  0  0
   24.1760  -18.9572  -13.7864 O   0  0  0  0  0  0  0  0  0  0  0  0
   21.6160  -21.1237  -15.5850 C   0  0  0  0  0  0  0  0  0  0  0  0
   21.3165  -21.4522  -14.1588 C   0  0  1  0  0  0  0  0  0  0  0  0
   21.4091  -22.8332  -14.0157 O   0  0  0  0  0  0  0  0  0  0  0  0
   22.2036  -20.7302  -13.1653 C   0  0  2  0  0  0  0  0  0  0  0  0
   23.5888  -21.1231  -13.3193 N   0  0  0  0  0  0  0  0  0  0  0  0
   21.7504  -20.9529  -11.7696 C   0  0  0  0  0  0  0  0  0  0  0  0
   22.4643  -21.5673  -10.9395 O   0  0  0  0  0  0  0  0  0  0  0  0
   20.5091  -20.4898  -11.3140 O   0  0  0  0  0  0  0  0  0  0  0  0
  2  1  1  0
  2  3  2  0
  4  5  1  0
  4  2  1  0
  5  6  1  0
  6  8  1  0
  6  7  1  1
  8  9  2  0
 10 11  1  0
 10  8  1  0
 11 12  1  1
 13 12  1  0
 14 13  2  0
 15 14  1  0
 16 17  1  0
 16 15  2  0
 17 18  2  0
 18 13  1  0
 19 20  2  0
 19 11  1  0
 22 21  1  6
 22 24  1  0
 23 22  1  0
 24 26  1  0
 24 25  1  1
 25 19  1  0
 26 28  1  0
 27 26  2  0
M  END
$$$$
