QFT.pdb
     RDKit          3D

 28 28  0  0  1  0  0  0  0  0999 V2000
   24.1274  -24.6617  -13.9490 N   0  0  0  0  0  0  0  0  0  0  0  0
   22.7728  -24.1999  -13.9715 C   0  0  0  0  0  0  0  0  0  0  0  0
   21.9787  -24.8308  -13.2366 O   0  0  0  0  0  0  0  0  0  0  0  0
   22.4456  -23.0586  -14.8362 C   0  0  0  0  0  0  0  0  0  0  0  0
   21.9182  -21.8926  -14.0922 C   0  0  0  0  0  0  0  0  0  0  0  0
   22.3042  -21.7803  -12.6493 C   0  0  2  0  0  0  0  0  0  0  0  0
   21.3136  -21.1618  -11.8168 N   0  0  0  0  0  0  0  0  0  0  0  0
   23.6009  -21.0107  -12.5725 C   0  0  0  0  0  0  0  0  0  0  0  0
   23.5649  -19.7759  -12.7398 O   0  0  0  0  0  0  0  0  0  0  0  0
   24.8322  -21.6713  -12.3164 N   0  0  0  0  0  0  0  0  0  0  0  0
   26.0810  -20.9355  -12.3482 C   0  0  1  0  0  0  0  0  0  0  0  0
   27.0947  -21.5301  -11.3950 C   0  0  0  0  0  0  0  0  0  0  0  0
   27.0299  -20.9225  -10.0477 C   0  0  0  0  0  0  0  0  0  0  0  0
   26.1439  -19.9144   -9.7195 C   0  0  0  0  0  0  0  0  0  0  0  0
   26.0978  -19.3599   -8.4581 C   0  0  0  0  0  0  0  0  0  0  0  0
   26.9556  -19.8132   -7.4800 C   0  0  0  0  0  0  0  0  0  0  0  0
   27.8504  -20.8166   -7.7748 C   0  0  0  0  0  0  0  0  0  0  0  0
   27.8745  -21.3562   -9.0531 C   0  0  0  0  0  0  0  0  0  0  0  0
   26.6676  -21.0107  -13.7086 C   0  0  0  0  0  0  0  0  0  0  0  0
   27.2312  -22.0461  -14.1430 O   0  0  0  0  0  0  0  0  0  0  0  0
   24.9851  -20.9378  -16.9433 C   0  0  0  0  0  0  0  0  0  0  0  0
   25.9623  -19.8081  -16.9237 C   0  0  1  0  0  0  0  0  0  0  0  0
   25.2491  -18.6377  -16.6829 O   0  0  0  0  0  0  0  0  0  0  0  0
   27.0866  -19.9888  -15.9243 C   0  0  2  0  0  0  0  0  0  0  0  0
   26.5997  -19.8833  -14.5647 N   0  0  0  0  0  0  0  0  0  0  0  0
   28.1857  -19.0199  -16.1613 C   0  0  0  0  0  0  0  0  0  0  0  0
   28.4644  -18.1279  -15.3229 O   0  0  0  0  0  0  0  0  0  0  0  0
   28.9614  -19.0546  -17.3275 O   0  0  0  0  0  0  0  0  0  0  0  0
  2  1  1  0
  2  3  2  0
  4  5  1  0
  4  2  1  0
  5  6  1  0
  6  8  1  0
  6  7  1  1
  8  9  2  0
 10 11  1  0
 10  8  1  0
 11 12  1  1
 13 12  1  0
 14 13  2  0
 15 14  1  0
 16 17  1  0
 16 15  2  0
 17 18  2  0
 18 13  1  0
 19 20  2  0
 19 11  1  0
 22 21  1  1
 22 24  1  0
 23 22  1  0
 24 26  1  0
 24 25  1  1
 25 19  1  0
 26 28  1  0
 27 26  2  0
M  END
$$$$
