KHR.pdb
     RDKit          3D

 31 31  0  0  1  0  0  0  0  0999 V2000
    8.6997  -18.7148   21.6179 N   0  0  0  0  0  0  0  0  0  0  0  0
    9.9862  -18.1103   21.7267 C   0  0  1  0  0  0  0  0  0  0  0  0
   10.8340  -18.0447   20.5410 C   0  0  0  0  0  0  0  0  0  0  0  0
   10.2690  -18.3136   19.2256 C   0  0  0  0  0  0  0  0  0  0  0  0
   10.2209  -19.5588   18.4981 C   0  0  0  0  0  0  0  0  0  0  0  0
    9.6266  -19.7551   17.1763 C   0  0  0  0  0  0  0  0  0  0  0  0
    9.6861  -21.2470   16.9472 N   0  0  0  0  0  0  0  0  0  0  0  0
    9.7530  -16.7404   22.3361 C   0  0  0  0  0  0  0  0  0  0  0  0
   10.7317  -16.0888   22.7302 O   0  0  0  0  0  0  0  0  0  0  0  0
    8.4765  -16.1791   22.4727 N   0  0  0  0  0  0  0  0  0  0  0  0
    8.2538  -14.8776   23.1233 C   0  0  1  0  0  0  0  0  0  0  0  0
    7.0841  -14.2617   22.4348 C   0  0  0  0  0  0  0  0  0  0  0  0
    7.5234  -13.8348   21.0702 C   0  0  0  0  0  0  0  0  0  0  0  0
    7.9307  -12.5956   20.6510 C   0  0  0  0  0  0  0  0  0  0  0  0
    8.2332  -12.6655   19.3477 N   0  0  0  0  0  0  0  0  0  0  0  0
    8.0263  -13.9260   18.9290 C   0  0  0  0  0  0  0  0  0  0  0  0
    7.5913  -14.6425   19.9844 N   0  0  0  0  0  0  0  0  0  0  0  0
    8.0956  -15.1100   24.5497 C   0  0  0  0  0  0  0  0  0  0  0  0
    7.1802  -15.8718   24.9531 O   0  0  0  0  0  0  0  0  0  0  0  0
   11.7903  -19.8974   31.5324 N   0  0  0  0  0  0  0  0  0  0  0  0
   11.8438  -19.3147   30.2237 C   0  0  0  0  0  0  0  0  0  0  0  0
   12.7221  -19.6911   29.3643 N   0  0  0  0  0  0  0  0  0  0  0  0
   10.9149  -18.3000   29.8506 N   0  0  0  0  0  0  0  0  0  0  0  0
   10.9714  -17.7066   28.5368 C   0  0  0  0  0  0  0  0  0  0  0  0
    9.9527  -16.5680   28.5456 C   0  0  0  0  0  0  0  0  0  0  0  0
    9.8980  -16.0498   27.1271 C   0  0  0  0  0  0  0  0  0  0  0  0
    8.9022  -14.9398   26.9424 C   0  0  2  0  0  0  0  0  0  0  0  0
    8.9116  -14.5331   25.5631 N   0  0  0  0  0  0  0  0  0  0  0  0
    9.1939  -13.8511   27.8760 C   0  0  0  0  0  0  0  0  0  0  0  0
    9.5875  -12.5922   27.4633 O   0  0  0  0  0  0  0  0  0  0  0  0
    9.0861  -14.0560   29.1092 O   0  0  0  0  0  0  0  0  0  0  0  0
  2  1  1  6
  3  2  1  0
  3  4  1  0
  4  5  1  0
  5  6  1  0
  6  7  1  0
  8 10  1  0
  8  2  1  0
  9  8  2  0
 11 10  1  0
 11 12  1  6
 12 13  1  0
 13 17  1  0
 14 13  2  0
 14 15  1  0
 15 16  1  0
 17 16  2  0
 18 11  1  0
 19 18  2  0
 21 20  1  0
 21 22  2  0
 23 21  1  0
 24 23  1  0
 25 26  1  0
 25 24  1  0
 27 28  1  0
 27 26  1  6
 28 18  1  0
 29 30  1  0
 29 27  1  0
 31 29  2  0
M  END
$$$$
