KHR.pdb
     RDKit          3D

 31 31  0  0  1  0  0  0  0  0999 V2000
    8.2363  -19.1131   18.9764 N   0  0  0  0  0  0  0  0  0  0  0  0
    7.3835  -18.8860   20.0960 C   0  0  1  0  0  0  0  0  0  0  0  0
    7.0042  -20.0204   20.9316 C   0  0  0  0  0  0  0  0  0  0  0  0
    5.7900  -19.9604   21.7341 C   0  0  0  0  0  0  0  0  0  0  0  0
    4.4842  -20.5010   21.4424 C   0  0  0  0  0  0  0  0  0  0  0  0
    3.3142  -20.4305   22.3168 C   0  0  0  0  0  0  0  0  0  0  0  0
    2.1704  -20.9327   21.4675 N   0  0  0  0  0  0  0  0  0  0  0  0
    8.0390  -17.7797   20.9017 C   0  0  0  0  0  0  0  0  0  0  0  0
    9.2115  -17.9298   21.2765 O   0  0  0  0  0  0  0  0  0  0  0  0
    7.3746  -16.5937   21.2409 N   0  0  0  0  0  0  0  0  0  0  0  0
    8.0141  -15.5320   22.0349 C   0  0  1  0  0  0  0  0  0  0  0  0
    7.2391  -14.2871   21.7681 C   0  0  0  0  0  0  0  0  0  0  0  0
    7.6675  -13.7524   20.4384 C   0  0  0  0  0  0  0  0  0  0  0  0
    8.3979  -12.6261   20.1641 C   0  0  0  0  0  0  0  0  0  0  0  0
    8.5492  -12.5300   18.8365 N   0  0  0  0  0  0  0  0  0  0  0  0
    7.9290  -13.5740   18.2600 C   0  0  0  0  0  0  0  0  0  0  0  0
    7.3886  -14.3230   19.2416 N   0  0  0  0  0  0  0  0  0  0  0  0
    8.0495  -15.9680   23.4214 C   0  0  0  0  0  0  0  0  0  0  0  0
    6.9713  -16.0993   24.0548 O   0  0  0  0  0  0  0  0  0  0  0  0
   12.7883  -21.8151   27.7874 N   0  0  0  0  0  0  0  0  0  0  0  0
   11.9210  -21.2331   28.7691 C   0  0  0  0  0  0  0  0  0  0  0  0
   11.8332  -21.7248   29.9532 N   0  0  0  0  0  0  0  0  0  0  0  0
   11.1354  -20.0886   28.4454 N   0  0  0  0  0  0  0  0  0  0  0  0
   11.0309  -19.6383   27.0788 C   0  0  0  0  0  0  0  0  0  0  0  0
   10.1707  -18.3763   27.1166 C   0  0  0  0  0  0  0  0  0  0  0  0
   10.0603  -17.9069   25.6843 C   0  0  0  0  0  0  0  0  0  0  0  0
    9.2624  -16.6420   25.5378 C   0  0  2  0  0  0  0  0  0  0  0  0
    9.2350  -16.2693   24.1492 N   0  0  0  0  0  0  0  0  0  0  0  0
    9.8120  -15.6047   26.4118 C   0  0  0  0  0  0  0  0  0  0  0  0
   10.8409  -14.7657   26.0276 O   0  0  0  0  0  0  0  0  0  0  0  0
    9.3374  -15.4596   27.5642 O   0  0  0  0  0  0  0  0  0  0  0  0
  2  1  1  6
  3  2  1  0
  3  4  1  0
  4  5  1  0
  5  6  1  0
  6  7  1  0
  8 10  1  0
  8  2  1  0
  9  8  2  0
 11 10  1  0
 11 12  1  1
 12 13  1  0
 13 17  1  0
 14 13  2  0
 14 15  1  0
 15 16  1  0
 17 16  2  0
 18 11  1  0
 19 18  2  0
 21 20  1  0
 21 22  2  0
 23 21  1  0
 24 23  1  0
 25 26  1  0
 25 24  1  0
 27 28  1  0
 27 26  1  6
 28 18  1  0
 29 30  1  0
 29 27  1  0
 31 29  2  0
M  END
$$$$
