KHR.pdb
     RDKit          3D

 31 31  0  0  1  0  0  0  0  0999 V2000
    6.8390  -21.3472   21.0585 N   0  0  0  0  0  0  0  0  0  0  0  0
    6.0407  -20.3599   21.7070 C   0  0  1  0  0  0  0  0  0  0  0  0
    5.5290  -20.6381   23.0448 C   0  0  0  0  0  0  0  0  0  0  0  0
    4.1116  -20.9110   23.2405 C   0  0  0  0  0  0  0  0  0  0  0  0
    3.4630  -22.1666   23.5320 C   0  0  0  0  0  0  0  0  0  0  0  0
    2.0322  -22.3560   23.7681 C   0  0  0  0  0  0  0  0  0  0  0  0
    1.8669  -23.8473   23.9431 N   0  0  0  0  0  0  0  0  0  0  0  0
    6.8478  -19.0757   21.6620 C   0  0  0  0  0  0  0  0  0  0  0  0
    8.0148  -19.0901   22.0811 O   0  0  0  0  0  0  0  0  0  0  0  0
    6.3296  -17.8720   21.1662 N   0  0  0  0  0  0  0  0  0  0  0  0
    7.0706  -16.6027   21.2473 C   0  0  1  0  0  0  0  0  0  0  0  0
    6.4643  -15.6998   20.2281 C   0  0  0  0  0  0  0  0  0  0  0  0
    7.2327  -14.4165   20.2324 C   0  0  0  0  0  0  0  0  0  0  0  0
    7.8668  -13.7953   19.1887 C   0  0  0  0  0  0  0  0  0  0  0  0
    8.4289  -12.6673   19.6431 N   0  0  0  0  0  0  0  0  0  0  0  0
    8.1646  -12.5583   20.9565 C   0  0  0  0  0  0  0  0  0  0  0  0
    7.4317  -13.6301   21.3177 N   0  0  0  0  0  0  0  0  0  0  0  0
    7.0086  -16.1339   22.6220 C   0  0  0  0  0  0  0  0  0  0  0  0
    5.8879  -15.9459   23.1601 O   0  0  0  0  0  0  0  0  0  0  0  0
    7.0968  -20.9627   26.3949 N   0  0  0  0  0  0  0  0  0  0  0  0
    8.3361  -20.5832   27.0072 C   0  0  0  0  0  0  0  0  0  0  0  0
    9.2371  -21.4576   27.2812 N   0  0  0  0  0  0  0  0  0  0  0  0
    8.5919  -19.2172   27.3243 N   0  0  0  0  0  0  0  0  0  0  0  0
    7.5902  -18.2099   27.0727 C   0  0  0  0  0  0  0  0  0  0  0  0
    7.8781  -17.6713   25.6723 C   0  0  0  0  0  0  0  0  0  0  0  0
    7.2848  -16.2820   25.6324 C   0  0  0  0  0  0  0  0  0  0  0  0
    8.0692  -15.3298   24.7745 C   0  0  2  0  0  0  0  0  0  0  0  0
    8.1410  -15.8598   23.4397 N   0  0  0  0  0  0  0  0  0  0  0  0
    9.3796  -15.0830   25.3778 C   0  0  0  0  0  0  0  0  0  0  0  0
   10.5627  -15.5138   24.8078 O   0  0  0  0  0  0  0  0  0  0  0  0
    9.4467  -14.4533   26.4610 O   0  0  0  0  0  0  0  0  0  0  0  0
  2  1  1  1
  3  2  1  0
  3  4  1  0
  4  5  1  0
  5  6  1  0
  6  7  1  0
  8 10  1  0
  8  2  1  0
  9  8  2  0
 11 10  1  0
 11 12  1  6
 12 13  1  0
 13 17  1  0
 14 13  2  0
 14 15  1  0
 15 16  1  0
 17 16  2  0
 18 11  1  0
 19 18  2  0
 21 20  1  0
 21 22  2  0
 23 21  1  0
 24 23  1  0
 25 26  1  0
 25 24  1  0
 27 28  1  0
 27 26  1  1
 28 18  1  0
 29 30  1  0
 29 27  1  0
 31 29  2  0
M  END
$$$$
