KHR.pdb
     RDKit          3D

 31 31  0  0  1  0  0  0  0  0999 V2000
    7.7931  -18.4376   17.3770 N   0  0  0  0  0  0  0  0  0  0  0  0
    8.3867  -17.3933   18.1448 C   0  0  1  0  0  0  0  0  0  0  0  0
    8.0864  -16.0083   17.7975 C   0  0  0  0  0  0  0  0  0  0  0  0
    8.3065  -15.5340   16.4379 C   0  0  0  0  0  0  0  0  0  0  0  0
    8.2237  -14.1882   15.9238 C   0  0  0  0  0  0  0  0  0  0  0  0
    8.4227  -13.7908   14.5305 C   0  0  0  0  0  0  0  0  0  0  0  0
    8.2190  -12.2940   14.5263 N   0  0  0  0  0  0  0  0  0  0  0  0
    8.0560  -17.7013   19.5934 C   0  0  0  0  0  0  0  0  0  0  0  0
    6.8764  -17.6174   19.9664 O   0  0  0  0  0  0  0  0  0  0  0  0
    9.0287  -18.0771   20.5293 N   0  0  0  0  0  0  0  0  0  0  0  0
    8.6968  -18.3841   21.9301 C   0  0  1  0  0  0  0  0  0  0  0  0
    9.1453  -19.7855   22.1677 C   0  0  0  0  0  0  0  0  0  0  0  0
    8.0930  -20.7042   21.6330 C   0  0  0  0  0  0  0  0  0  0  0  0
    6.7451  -20.6967   21.8791 C   0  0  0  0  0  0  0  0  0  0  0  0
    6.1815  -21.6989   21.1915 N   0  0  0  0  0  0  0  0  0  0  0  0
    7.1451  -22.3445   20.5120 C   0  0  0  0  0  0  0  0  0  0  0  0
    8.3164  -21.7351   20.7826 N   0  0  0  0  0  0  0  0  0  0  0  0
    9.3168  -17.3724   22.7703 C   0  0  0  0  0  0  0  0  0  0  0  0
   10.5514  -17.1572   22.6683 O   0  0  0  0  0  0  0  0  0  0  0  0
    6.1054  -10.3452   26.3807 N   0  0  0  0  0  0  0  0  0  0  0  0
    5.9610  -11.5246   27.1826 C   0  0  0  0  0  0  0  0  0  0  0  0
    4.9828  -11.6524   28.0062 N   0  0  0  0  0  0  0  0  0  0  0  0
    6.9079  -12.5849   27.0778 N   0  0  0  0  0  0  0  0  0  0  0  0
    7.9614  -12.5275   26.0938 C   0  0  0  0  0  0  0  0  0  0  0  0
    8.7701  -13.8119   26.2683 C   0  0  0  0  0  0  0  0  0  0  0  0
    8.2088  -14.7944   25.2666 C   0  0  0  0  0  0  0  0  0  0  0  0
    9.2648  -15.6451   24.6191 C   0  0  2  0  0  0  0  0  0  0  0  0
    8.6276  -16.5778   23.7293 N   0  0  0  0  0  0  0  0  0  0  0  0
   10.0861  -16.2847   25.6478 C   0  0  0  0  0  0  0  0  0  0  0  0
   11.2201  -15.6978   26.1769 O   0  0  0  0  0  0  0  0  0  0  0  0
    9.7579  -17.4169   26.0777 O   0  0  0  0  0  0  0  0  0  0  0  0
  2  1  1  6
  3  2  1  0
  3  4  1  0
  4  5  1  0
  5  6  1  0
  6  7  1  0
  8 10  1  0
  8  2  1  0
  9  8  2  0
 11 10  1  0
 11 12  1  1
 12 13  1  0
 13 17  1  0
 14 13  2  0
 14 15  1  0
 15 16  1  0
 17 16  2  0
 18 11  1  0
 19 18  2  0
 21 20  1  0
 21 22  2  0
 23 21  1  0
 24 23  1  0
 25 26  1  0
 25 24  1  0
 27 28  1  0
 27 26  1  1
 28 18  1  0
 29 30  1  0
 29 27  1  0
 31 29  2  0
M  END
$$$$
