KHR.pdb
     RDKit          3D

 31 31  0  0  1  0  0  0  0  0999 V2000
    6.3456  -17.6752   17.6330 N   0  0  0  0  0  0  0  0  0  0  0  0
    7.7678  -17.6119   17.7100 C   0  0  1  0  0  0  0  0  0  0  0  0
    8.5184  -17.2143   16.5235 C   0  0  0  0  0  0  0  0  0  0  0  0
    7.9493  -16.2516   15.5901 C   0  0  0  0  0  0  0  0  0  0  0  0
    8.4682  -15.8073   14.3190 C   0  0  0  0  0  0  0  0  0  0  0  0
    7.8973  -14.7511   13.4839 C   0  0  0  0  0  0  0  0  0  0  0  0
    8.8401  -14.6401   12.3089 N   0  0  0  0  0  0  0  0  0  0  0  0
    8.0819  -16.7299   18.9041 C   0  0  0  0  0  0  0  0  0  0  0  0
    8.4720  -15.5703   18.7025 O   0  0  0  0  0  0  0  0  0  0  0  0
    7.9497  -17.1710   20.2275 N   0  0  0  0  0  0  0  0  0  0  0  0
    8.2828  -16.3171   21.3793 C   0  0  1  0  0  0  0  0  0  0  0  0
    7.0261  -16.1702   22.1671 C   0  0  0  0  0  0  0  0  0  0  0  0
    7.3384  -15.3667   23.3895 C   0  0  0  0  0  0  0  0  0  0  0  0
    8.5299  -14.8009   23.7602 C   0  0  0  0  0  0  0  0  0  0  0  0
    8.3560  -14.1708   24.9296 N   0  0  0  0  0  0  0  0  0  0  0  0
    7.0761  -14.3246   25.3106 C   0  0  0  0  0  0  0  0  0  0  0  0
    6.4525  -15.0575   24.3669 N   0  0  0  0  0  0  0  0  0  0  0  0
    9.4000  -16.9270   22.0818 C   0  0  0  0  0  0  0  0  0  0  0  0
    9.3614  -18.1535   22.3558 O   0  0  0  0  0  0  0  0  0  0  0  0
   18.8542  -16.8533   23.8266 N   0  0  0  0  0  0  0  0  0  0  0  0
   17.6729  -16.3479   23.1910 C   0  0  0  0  0  0  0  0  0  0  0  0
   17.6859  -15.9826   21.9589 N   0  0  0  0  0  0  0  0  0  0  0  0
   16.4535  -16.2423   23.9215 N   0  0  0  0  0  0  0  0  0  0  0  0
   15.2793  -15.6766   23.3029 C   0  0  0  0  0  0  0  0  0  0  0  0
   14.1209  -16.5999   23.6769 C   0  0  0  0  0  0  0  0  0  0  0  0
   12.8887  -15.9965   23.0434 C   0  0  0  0  0  0  0  0  0  0  0  0
   11.6606  -16.8448   23.2165 C   0  0  2  0  0  0  0  0  0  0  0  0
   10.5720  -16.2363   22.5006 N   0  0  0  0  0  0  0  0  0  0  0  0
   11.3886  -17.0388   24.6415 C   0  0  0  0  0  0  0  0  0  0  0  0
   11.9179  -18.0859   25.3720 O   0  0  0  0  0  0  0  0  0  0  0  0
   10.6431  -16.2257   25.2392 O   0  0  0  0  0  0  0  0  0  0  0  0
  2  1  1  6
  3  2  1  0
  3  4  1  0
  4  5  1  0
  5  6  1  0
  6  7  1  0
  8 10  1  0
  8  2  1  0
  9  8  2  0
 11 10  1  0
 11 12  1  1
 12 13  1  0
 13 17  1  0
 14 13  2  0
 14 15  1  0
 15 16  1  0
 17 16  2  0
 18 11  1  0
 19 18  2  0
 21 20  1  0
 21 22  2  0
 23 21  1  0
 24 23  1  0
 25 26  1  0
 25 24  1  0
 27 28  1  0
 27 26  1  1
 28 18  1  0
 29 30  1  0
 29 27  1  0
 31 29  2  0
M  END
$$$$
