KHR.pdb
     RDKit          3D

 31 31  0  0  1  0  0  0  0  0999 V2000
    9.5961  -18.5048   17.3841 N   0  0  0  0  0  0  0  0  0  0  0  0
    8.5005  -18.3378   18.2808 C   0  0  1  0  0  0  0  0  0  0  0  0
    7.8109  -19.5245   18.7760 C   0  0  0  0  0  0  0  0  0  0  0  0
    8.4952  -20.8103   18.7944 C   0  0  0  0  0  0  0  0  0  0  0  0
    8.0035  -22.0914   19.2408 C   0  0  0  0  0  0  0  0  0  0  0  0
    8.7624  -23.3414   19.2549 C   0  0  0  0  0  0  0  0  0  0  0  0
    7.8279  -24.3499   19.8805 N   0  0  0  0  0  0  0  0  0  0  0  0
    9.0158  -17.4660   19.4109 C   0  0  0  0  0  0  0  0  0  0  0  0
   10.2352  -17.4390   19.6345 O   0  0  0  0  0  0  0  0  0  0  0  0
    8.1708  -16.6887   20.2140 N   0  0  0  0  0  0  0  0  0  0  0  0
    8.6793  -15.8511   21.3125 C   0  0  1  0  0  0  0  0  0  0  0  0
    7.6858  -14.7552   21.4958 C   0  0  0  0  0  0  0  0  0  0  0  0
    7.8553  -13.7849   20.3701 C   0  0  0  0  0  0  0  0  0  0  0  0
    8.7537  -13.8222   19.3362 C   0  0  0  0  0  0  0  0  0  0  0  0
    8.5508  -12.7511   18.5575 N   0  0  0  0  0  0  0  0  0  0  0  0
    7.5399  -12.0325   19.0758 C   0  0  0  0  0  0  0  0  0  0  0  0
    7.1138  -12.6658   20.1865 N   0  0  0  0  0  0  0  0  0  0  0  0
    8.8941  -16.7075   22.4675 C   0  0  0  0  0  0  0  0  0  0  0  0
    7.9274  -17.3551   22.9440 O   0  0  0  0  0  0  0  0  0  0  0  0
   13.5889  -21.5018   27.4269 N   0  0  0  0  0  0  0  0  0  0  0  0
   13.2409  -22.2245   26.2388 C   0  0  0  0  0  0  0  0  0  0  0  0
   13.1033  -23.5022   26.2546 N   0  0  0  0  0  0  0  0  0  0  0  0
   13.0392  -21.5315   25.0097 N   0  0  0  0  0  0  0  0  0  0  0  0
   13.2153  -20.1012   24.9412 C   0  0  0  0  0  0  0  0  0  0  0  0
   11.8430  -19.4944   25.2289 C   0  0  0  0  0  0  0  0  0  0  0  0
   11.5342  -18.5932   24.0557 C   0  0  0  0  0  0  0  0  0  0  0  0
   10.3377  -17.7137   24.2862 C   0  0  2  0  0  0  0  0  0  0  0  0
   10.1423  -16.8837   23.1283 N   0  0  0  0  0  0  0  0  0  0  0  0
   10.5101  -16.9568   25.5269 C   0  0  0  0  0  0  0  0  0  0  0  0
   11.0205  -15.6728   25.5594 O   0  0  0  0  0  0  0  0  0  0  0  0
   10.1840  -17.4851   26.6173 O   0  0  0  0  0  0  0  0  0  0  0  0
  2  1  1  6
  3  2  1  0
  3  4  1  0
  4  5  1  0
  5  6  1  0
  6  7  1  0
  8 10  1  0
  8  2  1  0
  9  8  2  0
 11 10  1  0
 11 12  1  1
 12 13  1  0
 13 17  1  0
 14 13  2  0
 14 15  1  0
 15 16  1  0
 17 16  2  0
 18 11  1  0
 19 18  2  0
 21 20  1  0
 21 22  2  0
 23 21  1  0
 24 23  1  0
 25 26  1  0
 25 24  1  0
 27 28  1  0
 27 26  1  6
 28 18  1  0
 29 30  1  0
 29 27  1  0
 31 29  2  0
M  END
$$$$
