KHR.pdb
     RDKit          3D

 31 31  0  0  1  0  0  0  0  0999 V2000
    9.1382  -19.0378   14.3253 N   0  0  0  0  0  0  0  0  0  0  0  0
    9.3549  -19.3906   15.6895 C   0  0  1  0  0  0  0  0  0  0  0  0
   10.3858  -20.3736   16.0055 C   0  0  0  0  0  0  0  0  0  0  0  0
   10.2145  -21.7636   15.6045 C   0  0  0  0  0  0  0  0  0  0  0  0
    8.9983  -22.5337   15.5045 C   0  0  0  0  0  0  0  0  0  0  0  0
    8.9079  -23.9460   15.1354 C   0  0  0  0  0  0  0  0  0  0  0  0
    9.6131  -24.6796   16.2517 N   0  0  0  0  0  0  0  0  0  0  0  0
    9.5693  -18.0832   16.4293 C   0  0  0  0  0  0  0  0  0  0  0  0
   10.6717  -17.5222   16.3411 O   0  0  0  0  0  0  0  0  0  0  0  0
    8.5729  -17.4818   17.2094 N   0  0  0  0  0  0  0  0  0  0  0  0
    8.7793  -16.1967   17.8969 C   0  0  1  0  0  0  0  0  0  0  0  0
    7.4224  -15.6853   18.2418 C   0  0  0  0  0  0  0  0  0  0  0  0
    7.5888  -14.3957   18.9810 C   0  0  0  0  0  0  0  0  0  0  0  0
    7.8453  -13.1476   18.4773 C   0  0  0  0  0  0  0  0  0  0  0  0
    7.9156  -12.2830   19.4982 N   0  0  0  0  0  0  0  0  0  0  0  0
    7.7085  -12.9569   20.6427 C   0  0  0  0  0  0  0  0  0  0  0  0
    7.5084  -14.2515   20.3258 N   0  0  0  0  0  0  0  0  0  0  0  0
    9.6710  -16.4276   19.0217 C   0  0  0  0  0  0  0  0  0  0  0  0
    9.5837  -17.5025   19.6681 O   0  0  0  0  0  0  0  0  0  0  0  0
   16.8086  -13.3108   19.3798 N   0  0  0  0  0  0  0  0  0  0  0  0
   16.4206  -13.7876   18.0848 C   0  0  0  0  0  0  0  0  0  0  0  0
   17.2294  -13.7347   17.0875 N   0  0  0  0  0  0  0  0  0  0  0  0
   15.1199  -14.3338   17.8805 N   0  0  0  0  0  0  0  0  0  0  0  0
   14.0252  -13.9520   18.7390 C   0  0  0  0  0  0  0  0  0  0  0  0
   13.7831  -15.1420   19.6660 C   0  0  0  0  0  0  0  0  0  0  0  0
   12.6426  -14.7371   20.5710 C   0  0  0  0  0  0  0  0  0  0  0  0
   11.5269  -15.7433   20.6004 C   0  0  2  0  0  0  0  0  0  0  0  0
   10.6667  -15.5150   19.4709 N   0  0  0  0  0  0  0  0  0  0  0  0
   10.8332  -15.6774   21.8874 C   0  0  0  0  0  0  0  0  0  0  0  0
   11.3735  -16.1737   23.0588 O   0  0  0  0  0  0  0  0  0  0  0  0
    9.6964  -15.1495   21.9445 O   0  0  0  0  0  0  0  0  0  0  0  0
  2  1  1  6
  3  2  1  0
  3  4  1  0
  4  5  1  0
  5  6  1  0
  6  7  1  0
  8 10  1  0
  8  2  1  0
  9  8  2  0
 11 10  1  0
 11 12  1  1
 12 13  1  0
 13 17  1  0
 14 13  2  0
 14 15  1  0
 15 16  1  0
 17 16  2  0
 18 11  1  0
 19 18  2  0
 21 20  1  0
 21 22  2  0
 23 21  1  0
 24 23  1  0
 25 26  1  0
 25 24  1  0
 27 28  1  0
 27 26  1  1
 28 18  1  0
 29 30  1  0
 29 27  1  0
 31 29  2  0
M  END
$$$$
