KHR.pdb
     RDKit          3D

 31 31  0  0  1  0  0  0  0  0999 V2000
   11.0406  -17.1275   16.2109 N   0  0  0  0  0  0  0  0  0  0  0  0
   11.0409  -16.1600   17.2579 C   0  0  1  0  0  0  0  0  0  0  0  0
    9.8207  -15.4021   17.5143 C   0  0  0  0  0  0  0  0  0  0  0  0
    8.9915  -14.9582   16.4019 C   0  0  0  0  0  0  0  0  0  0  0  0
    7.8451  -14.0821   16.4204 C   0  0  0  0  0  0  0  0  0  0  0  0
    7.1107  -13.6092   15.2475 C   0  0  0  0  0  0  0  0  0  0  0  0
    6.0540  -12.6844   15.8042 N   0  0  0  0  0  0  0  0  0  0  0  0
   11.5305  -16.8865   18.4969 C   0  0  0  0  0  0  0  0  0  0  0  0
   10.7222  -17.1248   19.4067 O   0  0  0  0  0  0  0  0  0  0  0  0
   12.8595  -17.3005   18.6570 N   0  0  0  0  0  0  0  0  0  0  0  0
   13.3284  -17.9922   19.8688 C   0  0  1  0  0  0  0  0  0  0  0  0
   14.5733  -18.7145   19.4815 C   0  0  0  0  0  0  0  0  0  0  0  0
   14.1769  -19.9850   18.7987 C   0  0  0  0  0  0  0  0  0  0  0  0
   12.9628  -20.6198   18.8105 C   0  0  0  0  0  0  0  0  0  0  0  0
   13.0548  -21.7277   18.0628 N   0  0  0  0  0  0  0  0  0  0  0  0
   14.3046  -21.8103   17.5750 C   0  0  0  0  0  0  0  0  0  0  0  0
   14.9923  -20.7425   18.0260 N   0  0  0  0  0  0  0  0  0  0  0  0
   13.4758  -17.0015   20.9225 C   0  0  0  0  0  0  0  0  0  0  0  0
   13.9478  -15.8698   20.6441 O   0  0  0  0  0  0  0  0  0  0  0  0
    9.4627  -16.0201   28.7511 N   0  0  0  0  0  0  0  0  0  0  0  0
   10.4526  -14.9845   28.7010 C   0  0  0  0  0  0  0  0  0  0  0  0
   10.5407  -14.1039   29.6329 N   0  0  0  0  0  0  0  0  0  0  0  0
   11.3640  -14.9143   27.6073 N   0  0  0  0  0  0  0  0  0  0  0  0
   11.2504  -15.8354   26.5027 C   0  0  0  0  0  0  0  0  0  0  0  0
   12.4002  -15.4988   25.5547 C   0  0  0  0  0  0  0  0  0  0  0  0
   12.2605  -16.4423   24.3825 C   0  0  0  0  0  0  0  0  0  0  0  0
   13.3102  -16.2325   23.3279 C   0  0  2  0  0  0  0  0  0  0  0  0
   13.1217  -17.2055   22.2859 N   0  0  0  0  0  0  0  0  0  0  0  0
   14.6405  -16.2766   23.9365 C   0  0  0  0  0  0  0  0  0  0  0  0
   15.4941  -17.3551   23.8002 O   0  0  0  0  0  0  0  0  0  0  0  0
   15.0366  -15.2984   24.6150 O   0  0  0  0  0  0  0  0  0  0  0  0
  2  1  1  6
  3  2  1  0
  3  4  1  0
  4  5  1  0
  5  6  1  0
  6  7  1  0
  8 10  1  0
  8  2  1  0
  9  8  2  0
 11 10  1  0
 11 12  1  6
 12 13  1  0
 13 17  1  0
 14 13  2  0
 14 15  1  0
 15 16  1  0
 17 16  2  0
 18 11  1  0
 19 18  2  0
 21 20  1  0
 21 22  2  0
 23 21  1  0
 24 23  1  0
 25 26  1  0
 25 24  1  0
 27 28  1  0
 27 26  1  1
 28 18  1  0
 29 30  1  0
 29 27  1  0
 31 29  2  0
M  END
$$$$
