KHR.pdb
     RDKit          3D

 31 31  0  0  1  0  0  0  0  0999 V2000
    8.5699  -18.4771   14.5597 N   0  0  0  0  0  0  0  0  0  0  0  0
    9.8675  -18.3853   15.1431 C   0  0  1  0  0  0  0  0  0  0  0  0
   11.0350  -18.4252   14.2689 C   0  0  0  0  0  0  0  0  0  0  0  0
   11.0612  -19.3320   13.1292 C   0  0  0  0  0  0  0  0  0  0  0  0
   11.5934  -20.6709   13.0495 C   0  0  0  0  0  0  0  0  0  0  0  0
   11.6979  -21.4792   11.8352 C   0  0  0  0  0  0  0  0  0  0  0  0
   12.2493  -22.8051   12.3038 N   0  0  0  0  0  0  0  0  0  0  0  0
    9.8478  -17.1400   16.0100 C   0  0  0  0  0  0  0  0  0  0  0  0
   10.8614  -16.4269   16.0520 O   0  0  0  0  0  0  0  0  0  0  0  0
    8.7310  -16.7608   16.7664 N   0  0  0  0  0  0  0  0  0  0  0  0
    8.7720  -15.6467   17.7275 C   0  0  1  0  0  0  0  0  0  0  0  0
    7.3691  -15.4393   18.1860 C   0  0  0  0  0  0  0  0  0  0  0  0
    7.3542  -14.2634   19.1104 C   0  0  0  0  0  0  0  0  0  0  0  0
    6.9277  -14.2028   20.4110 C   0  0  0  0  0  0  0  0  0  0  0  0
    7.0955  -12.9503   20.8558 N   0  0  0  0  0  0  0  0  0  0  0  0
    7.6211  -12.2121   19.8630 C   0  0  0  0  0  0  0  0  0  0  0  0
    7.7796  -13.0167   18.7934 N   0  0  0  0  0  0  0  0  0  0  0  0
    9.7315  -15.9851   18.7661 C   0  0  0  0  0  0  0  0  0  0  0  0
    9.7425  -17.1494   19.2407 O   0  0  0  0  0  0  0  0  0  0  0  0
   16.2794  -14.1597   17.3021 N   0  0  0  0  0  0  0  0  0  0  0  0
   16.3550  -13.4980   18.5715 C   0  0  0  0  0  0  0  0  0  0  0  0
   17.3481  -12.7373   18.8662 N   0  0  0  0  0  0  0  0  0  0  0  0
   15.3202  -13.6737   19.5359 N   0  0  0  0  0  0  0  0  0  0  0  0
   15.1435  -14.9460   20.1928 C   0  0  0  0  0  0  0  0  0  0  0  0
   13.9566  -14.7697   21.1384 C   0  0  0  0  0  0  0  0  0  0  0  0
   12.7786  -14.4106   20.2624 C   0  0  0  0  0  0  0  0  0  0  0  0
   11.6998  -15.4566   20.2664 C   0  0  2  0  0  0  0  0  0  0  0  0
   10.6910  -15.0860   19.3110 N   0  0  0  0  0  0  0  0  0  0  0  0
   11.1837  -15.6318   21.6247 C   0  0  0  0  0  0  0  0  0  0  0  0
   11.8471  -16.3623   22.5925 O   0  0  0  0  0  0  0  0  0  0  0  0
   10.0912  -15.1005   21.9384 O   0  0  0  0  0  0  0  0  0  0  0  0
  2  1  1  6
  3  2  1  0
  3  4  1  0
  4  5  1  0
  5  6  1  0
  6  7  1  0
  8 10  1  0
  8  2  1  0
  9  8  2  0
 11 10  1  0
 11 12  1  1
 12 13  1  0
 13 17  1  0
 14 13  2  0
 14 15  1  0
 15 16  1  0
 17 16  2  0
 18 11  1  0
 19 18  2  0
 21 20  1  0
 21 22  2  0
 23 21  1  0
 24 23  1  0
 25 26  1  0
 25 24  1  0
 27 28  1  0
 27 26  1  1
 28 18  1  0
 29 30  1  0
 29 27  1  0
 31 29  2  0
M  END
$$$$
