KHR.pdb
     RDKit          3D

 31 31  0  0  1  0  0  0  0  0999 V2000
    8.1471  -19.9370   15.5702 N   0  0  0  0  0  0  0  0  0  0  0  0
    7.2802  -19.6200   16.6566 C   0  0  1  0  0  0  0  0  0  0  0  0
    6.8772  -20.6861   17.5678 C   0  0  0  0  0  0  0  0  0  0  0  0
    6.3450  -21.9345   17.0385 C   0  0  0  0  0  0  0  0  0  0  0  0
    5.0573  -22.1878   16.4387 C   0  0  0  0  0  0  0  0  0  0  0  0
    4.5788  -23.4820   15.9541 C   0  0  0  0  0  0  0  0  0  0  0  0
    3.1530  -23.2272   15.5252 N   0  0  0  0  0  0  0  0  0  0  0  0
    7.9346  -18.4630   17.3884 C   0  0  0  0  0  0  0  0  0  0  0  0
    9.1706  -18.4420   17.4859 O   0  0  0  0  0  0  0  0  0  0  0  0
    7.2004  -17.4153   17.9597 N   0  0  0  0  0  0  0  0  0  0  0  0
    7.8428  -16.3075   18.6856 C   0  0  1  0  0  0  0  0  0  0  0  0
    6.8238  -15.2238   18.7798 C   0  0  0  0  0  0  0  0  0  0  0  0
    7.4414  -14.0708   19.5054 C   0  0  0  0  0  0  0  0  0  0  0  0
    8.0826  -12.9772   18.9857 C   0  0  0  0  0  0  0  0  0  0  0  0
    8.4777  -12.1945   19.9987 N   0  0  0  0  0  0  0  0  0  0  0  0
    8.1000  -12.7690   21.1538 C   0  0  0  0  0  0  0  0  0  0  0  0
    7.4651  -13.9188   20.8515 N   0  0  0  0  0  0  0  0  0  0  0  0
    8.3320  -16.8253   19.9530 C   0  0  0  0  0  0  0  0  0  0  0  0
    7.9971  -17.9809   20.3182 O   0  0  0  0  0  0  0  0  0  0  0  0
   12.6014  -21.9126   21.4185 N   0  0  0  0  0  0  0  0  0  0  0  0
   13.6369  -21.1573   22.0604 C   0  0  0  0  0  0  0  0  0  0  0  0
   14.3454  -21.6686   23.0029 N   0  0  0  0  0  0  0  0  0  0  0  0
   13.9008  -19.8151   21.6595 N   0  0  0  0  0  0  0  0  0  0  0  0
   12.9525  -19.0982   20.8420 C   0  0  0  0  0  0  0  0  0  0  0  0
   12.1323  -18.2402   21.8039 C   0  0  0  0  0  0  0  0  0  0  0  0
   11.1414  -17.4878   20.9462 C   0  0  0  0  0  0  0  0  0  0  0  0
   10.1132  -16.7418   21.7488 C   0  0  2  0  0  0  0  0  0  0  0  0
    9.1843  -16.1170   20.8463 N   0  0  0  0  0  0  0  0  0  0  0  0
   10.7763  -15.7998   22.6515 C   0  0  0  0  0  0  0  0  0  0  0  0
   10.9341  -16.0386   24.0036 O   0  0  0  0  0  0  0  0  0  0  0  0
   11.2264  -14.7230   22.1906 O   0  0  0  0  0  0  0  0  0  0  0  0
  2  1  1  6
  3  2  1  0
  3  4  1  0
  4  5  1  0
  5  6  1  0
  6  7  1  0
  8 10  1  0
  8  2  1  0
  9  8  2  0
 11 10  1  0
 11 12  1  1
 12 13  1  0
 13 17  1  0
 14 13  2  0
 14 15  1  0
 15 16  1  0
 17 16  2  0
 18 11  1  0
 19 18  2  0
 21 20  1  0
 21 22  2  0
 23 21  1  0
 24 23  1  0
 25 26  1  0
 25 24  1  0
 27 28  1  0
 27 26  1  6
 28 18  1  0
 29 30  1  0
 29 27  1  0
 31 29  2  0
M  END
$$$$
