KHR.pdb
     RDKit          3D

 31 31  0  0  1  0  0  0  0  0999 V2000
    9.8235  -17.4461   15.1384 N   0  0  0  0  0  0  0  0  0  0  0  0
    9.5533  -17.5464   16.5346 C   0  0  1  0  0  0  0  0  0  0  0  0
    9.8441  -18.8025   17.2178 C   0  0  0  0  0  0  0  0  0  0  0  0
   11.1470  -19.4341   17.0581 C   0  0  0  0  0  0  0  0  0  0  0  0
   11.5996  -20.7130   17.5497 C   0  0  0  0  0  0  0  0  0  0  0  0
   12.9355  -21.2778   17.3617 C   0  0  0  0  0  0  0  0  0  0  0  0
   12.8707  -22.6395   18.0123 N   0  0  0  0  0  0  0  0  0  0  0  0
   10.2598  -16.3698   17.1817 C   0  0  0  0  0  0  0  0  0  0  0  0
   11.2545  -15.8887   16.6188 O   0  0  0  0  0  0  0  0  0  0  0  0
    9.8354  -15.8026   18.3906 N   0  0  0  0  0  0  0  0  0  0  0  0
   10.4539  -14.5906   18.9521 C   0  0  1  0  0  0  0  0  0  0  0  0
    9.4307  -13.9747   19.8438 C   0  0  0  0  0  0  0  0  0  0  0  0
    8.3591  -13.3876   18.9810 C   0  0  0  0  0  0  0  0  0  0  0  0
    8.2316  -13.4436   17.6179 C   0  0  0  0  0  0  0  0  0  0  0  0
    7.1213  -12.7812   17.2670 N   0  0  0  0  0  0  0  0  0  0  0  0
    6.5391  -12.3045   18.3809 C   0  0  0  0  0  0  0  0  0  0  0  0
    7.2977  -12.6760   19.4312 N   0  0  0  0  0  0  0  0  0  0  0  0
   11.6991  -14.9786   19.5945 C   0  0  0  0  0  0  0  0  0  0  0  0
   11.6700  -15.7770   20.5654 O   0  0  0  0  0  0  0  0  0  0  0  0
   13.4468  -21.4857   21.0908 N   0  0  0  0  0  0  0  0  0  0  0  0
   12.3652  -20.6271   20.7062 C   0  0  0  0  0  0  0  0  0  0  0  0
   11.1437  -20.9534   20.9364 N   0  0  0  0  0  0  0  0  0  0  0  0
   12.6294  -19.3858   20.0571 N   0  0  0  0  0  0  0  0  0  0  0  0
   13.9824  -18.9004   19.9341 C   0  0  0  0  0  0  0  0  0  0  0  0
   13.9679  -17.4727   20.4776 C   0  0  0  0  0  0  0  0  0  0  0  0
   14.2132  -16.5738   19.2878 C   0  0  0  0  0  0  0  0  0  0  0  0
   14.2257  -15.1139   19.6439 C   0  0  2  0  0  0  0  0  0  0  0  0
   12.9903  -14.5200   19.2093 N   0  0  0  0  0  0  0  0  0  0  0  0
   15.4140  -14.4751   19.0766 C   0  0  0  0  0  0  0  0  0  0  0  0
   15.9446  -13.2993   19.5728 O   0  0  0  0  0  0  0  0  0  0  0  0
   15.9867  -15.0079   18.0955 O   0  0  0  0  0  0  0  0  0  0  0  0
  2  1  1  6
  3  2  1  0
  3  4  1  0
  4  5  1  0
  5  6  1  0
  6  7  1  0
  8 10  1  0
  8  2  1  0
  9  8  2  0
 11 10  1  0
 11 12  1  1
 12 13  1  0
 13 17  1  0
 14 13  2  0
 14 15  1  0
 15 16  1  0
 17 16  2  0
 18 11  1  0
 19 18  2  0
 21 20  1  0
 21 22  2  0
 23 21  1  0
 24 23  1  0
 25 26  1  0
 25 24  1  0
 27 28  1  0
 27 26  1  6
 28 18  1  0
 29 30  1  0
 29 27  1  0
 31 29  2  0
M  END
$$$$
