KHR.pdb
     RDKit          3D

 31 31  0  0  1  0  0  0  0  0999 V2000
   11.6121  -17.9835   15.4318 N   0  0  0  0  0  0  0  0  0  0  0  0
   10.9487  -18.6178   16.5226 C   0  0  1  0  0  0  0  0  0  0  0  0
   11.5456  -19.8135   17.1083 C   0  0  0  0  0  0  0  0  0  0  0  0
   12.9577  -20.1015   16.8962 C   0  0  0  0  0  0  0  0  0  0  0  0
   13.7396  -21.2100   17.3882 C   0  0  0  0  0  0  0  0  0  0  0  0
   15.1653  -21.4262   17.1446 C   0  0  0  0  0  0  0  0  0  0  0  0
   15.5217  -22.6239   17.9933 N   0  0  0  0  0  0  0  0  0  0  0  0
   10.7163  -17.5325   17.5574 C   0  0  0  0  0  0  0  0  0  0  0  0
   11.5453  -16.6157   17.6562 O   0  0  0  0  0  0  0  0  0  0  0  0
    9.6026  -17.5222   18.4076 N   0  0  0  0  0  0  0  0  0  0  0  0
    9.3212  -16.4047   19.3235 C   0  0  1  0  0  0  0  0  0  0  0  0
    7.8728  -16.0906   19.1658 C   0  0  0  0  0  0  0  0  0  0  0  0
    7.5611  -14.9054   20.0234 C   0  0  0  0  0  0  0  0  0  0  0  0
    7.6655  -13.5746   19.7145 C   0  0  0  0  0  0  0  0  0  0  0  0
    7.2814  -12.8592   20.7800 N   0  0  0  0  0  0  0  0  0  0  0  0
    6.9341  -13.7092   21.7617 C   0  0  0  0  0  0  0  0  0  0  0  0
    7.1056  -14.9631   21.2981 N   0  0  0  0  0  0  0  0  0  0  0  0
    9.7388  -16.8023   20.6581 C   0  0  0  0  0  0  0  0  0  0  0  0
    9.5601  -17.9891   21.0329 O   0  0  0  0  0  0  0  0  0  0  0  0
    8.9869  -12.8563   28.3242 N   0  0  0  0  0  0  0  0  0  0  0  0
    9.7854  -14.0132   28.6049 C   0  0  0  0  0  0  0  0  0  0  0  0
   10.0868  -14.3356   29.8119 N   0  0  0  0  0  0  0  0  0  0  0  0
   10.2617  -14.8328   27.5403 N   0  0  0  0  0  0  0  0  0  0  0  0
    9.7094  -14.6999   26.2142 C   0  0  0  0  0  0  0  0  0  0  0  0
   10.4000  -15.7638   25.3626 C   0  0  0  0  0  0  0  0  0  0  0  0
   10.0622  -15.4300   23.9280 C   0  0  0  0  0  0  0  0  0  0  0  0
   10.7363  -16.3363   22.9368 C   0  0  2  0  0  0  0  0  0  0  0  0
   10.3521  -15.9390   21.6093 N   0  0  0  0  0  0  0  0  0  0  0  0
   10.4197  -17.7315   23.2452 C   0  0  0  0  0  0  0  0  0  0  0  0
    9.1877  -18.2991   22.9803 O   0  0  0  0  0  0  0  0  0  0  0  0
   11.2968  -18.4563   23.7741 O   0  0  0  0  0  0  0  0  0  0  0  0
  2  1  1  6
  3  2  1  0
  3  4  1  0
  4  5  1  0
  5  6  1  0
  6  7  1  0
  8 10  1  0
  8  2  1  0
  9  8  2  0
 11 10  1  0
 11 12  1  1
 12 13  1  0
 13 17  1  0
 14 13  2  0
 14 15  1  0
 15 16  1  0
 17 16  2  0
 18 11  1  0
 19 18  2  0
 21 20  1  0
 21 22  2  0
 23 21  1  0
 24 23  1  0
 25 26  1  0
 25 24  1  0
 27 28  1  0
 27 26  1  1
 28 18  1  0
 29 30  1  0
 29 27  1  0
 31 29  2  0
M  END
$$$$
