WPE.pdb
     RDKit          3D

 31 33  0  0  1  0  0  0  0  0999 V2000
   25.0230  -18.9151   -9.4887 N   0  0  0  0  0  0  0  0  0  0  0  0
   26.0665  -19.7265   -9.9979 C   0  0  1  0  0  0  0  0  0  0  0  0
   26.2137  -20.9932   -9.1596 C   0  0  0  0  0  0  0  0  0  0  0  0
   26.3901  -20.7412   -7.7330 C   0  0  0  0  0  0  0  0  0  0  0  0
   25.3524  -20.7262   -6.7833 C   0  0  0  0  0  0  0  0  0  0  0  0
   25.8614  -20.4827   -5.5655 N   0  0  0  0  0  0  0  0  0  0  0  0
   27.2123  -20.3355   -5.6834 C   0  0  0  0  0  0  0  0  0  0  0  0
   28.2074  -20.0675   -4.7682 C   0  0  0  0  0  0  0  0  0  0  0  0
   29.5342  -19.9512   -5.1304 C   0  0  0  0  0  0  0  0  0  0  0  0
   29.8404  -20.1127   -6.4677 C   0  0  0  0  0  0  0  0  0  0  0  0
   28.8619  -20.3822   -7.4052 C   0  0  0  0  0  0  0  0  0  0  0  0
   27.5332  -20.4981   -7.0304 C   0  0  0  0  0  0  0  0  0  0  0  0
   25.9654  -20.1179  -11.4086 C   0  0  0  0  0  0  0  0  0  0  0  0
   24.8329  -20.3575  -11.8800 O   0  0  0  0  0  0  0  0  0  0  0  0
   27.0949  -20.2390  -12.2865 N   0  0  0  0  0  0  0  0  0  0  0  0
   28.4273  -19.9392  -11.8522 C   0  0  0  0  0  0  0  0  0  0  0  0
   29.3285  -20.6392  -12.8190 C   0  0  0  0  0  0  0  0  0  0  0  0
   28.4996  -21.0867  -13.9625 C   0  0  0  0  0  0  0  0  0  0  0  0
   27.0893  -20.5892  -13.6597 C   0  0  1  0  0  0  0  0  0  0  0  0
   26.1320  -21.6391  -14.0767 C   0  0  0  0  0  0  0  0  0  0  0  0
   26.1658  -22.8077  -13.5819 O   0  0  0  0  0  0  0  0  0  0  0  0
   25.1332  -21.3899  -15.0340 N   0  0  0  0  0  0  0  0  0  0  0  0
   24.1148  -22.4403  -15.3286 C   0  0  1  0  0  0  0  0  0  0  0  0
   22.8512  -21.9769  -14.6560 C   0  0  0  0  0  0  0  0  0  0  0  0
   21.6521  -22.8219  -14.8276 C   0  0  0  0  0  0  0  0  0  0  0  0
   20.4279  -22.2562  -14.2159 C   0  0  0  0  0  0  0  0  0  0  0  0
   19.9706  -21.1638  -14.6691 O   0  0  0  0  0  0  0  0  0  0  0  0
   23.8239  -22.5040  -16.7787 C   0  0  0  0  0  0  0  0  0  0  0  0
   24.1324  -21.5323  -17.5057 O   0  0  0  0  0  0  0  0  0  0  0  0
   19.7450  -22.8521  -13.1774 O   0  0  0  0  0  0  0  0  0  0  0  0
   23.2226  -23.6086  -17.3491 O   0  0  0  0  0  0  0  0  0  0  0  0
  2  3  1  0
  2  1  1  1
  4  3  1  0
  5  4  2  0
  6  5  1  0
  7  6  1  0
  7 12  2  0
  8  7  1  0
  9  8  2  0
  9 10  1  0
 10 11  2  0
 11 12  1  0
 12  4  1  0
 13 15  1  0
 13  2  1  0
 14 13  2  0
 15 16  1  0
 17 16  1  0
 18 17  1  0
 19 18  1  0
 19 15  1  0
 20 21  2  0
 19 20  1  1
 22 20  1  0
 23 28  1  0
 23 22  1  0
 23 24  1  1
 25 24  1  0
 26 25  1  0
 26 27  2  0
 28 31  1  0
 29 28  2  0
 30 26  1  0
M  END
$$$$
