WPE.pdb
     RDKit          3D

 31 33  0  0  1  0  0  0  0  0999 V2000
   23.4201  -19.6626  -16.4485 N   0  0  0  0  0  0  0  0  0  0  0  0
   24.2426  -19.0410  -15.4770 C   0  0  1  0  0  0  0  0  0  0  0  0
   23.4824  -17.9200  -14.7739 C   0  0  0  0  0  0  0  0  0  0  0  0
   22.7895  -17.0138  -15.6842 C   0  0  0  0  0  0  0  0  0  0  0  0
   21.3926  -16.9265  -15.8254 C   0  0  0  0  0  0  0  0  0  0  0  0
   21.0905  -15.9827  -16.7305 N   0  0  0  0  0  0  0  0  0  0  0  0
   22.2534  -15.4409  -17.1941 C   0  0  0  0  0  0  0  0  0  0  0  0
   22.5228  -14.4601  -18.1242 C   0  0  0  0  0  0  0  0  0  0  0  0
   23.8096  -14.0770  -18.4440 C   0  0  0  0  0  0  0  0  0  0  0  0
   24.8417  -14.7224  -17.7908 C   0  0  0  0  0  0  0  0  0  0  0  0
   24.5988  -15.7086  -16.8542 C   0  0  0  0  0  0  0  0  0  0  0  0
   23.3029  -16.0846  -16.5400 C   0  0  0  0  0  0  0  0  0  0  0  0
   24.8239  -19.9157  -14.4520 C   0  0  0  0  0  0  0  0  0  0  0  0
   24.0524  -20.6039  -13.7497 O   0  0  0  0  0  0  0  0  0  0  0  0
   26.2339  -20.0324  -14.2083 N   0  0  0  0  0  0  0  0  0  0  0  0
   27.2044  -19.7396  -15.2213 C   0  0  0  0  0  0  0  0  0  0  0  0
   28.4826  -19.4859  -14.4871 C   0  0  0  0  0  0  0  0  0  0  0  0
   28.2903  -19.9257  -13.0854 C   0  0  0  0  0  0  0  0  0  0  0  0
   26.8728  -20.4875  -13.0280 C   0  0  1  0  0  0  0  0  0  0  0  0
   26.2672  -20.0767  -11.7406 C   0  0  0  0  0  0  0  0  0  0  0  0
   25.9036  -18.8795  -11.5261 O   0  0  0  0  0  0  0  0  0  0  0  0
   26.0569  -20.9948  -10.6971 N   0  0  0  0  0  0  0  0  0  0  0  0
   25.4984  -20.5193   -9.3973 C   0  0  1  0  0  0  0  0  0  0  0  0
   24.8281  -21.7184   -8.7836 C   0  0  0  0  0  0  0  0  0  0  0  0
   24.2531  -21.5470   -7.4340 C   0  0  0  0  0  0  0  0  0  0  0  0
   22.8324  -21.9522   -7.3322 C   0  0  0  0  0  0  0  0  0  0  0  0
   22.2915  -22.5277   -8.3242 O   0  0  0  0  0  0  0  0  0  0  0  0
   26.5812  -20.1188   -8.4705 C   0  0  0  0  0  0  0  0  0  0  0  0
   27.7068  -20.6564   -8.5794 O   0  0  0  0  0  0  0  0  0  0  0  0
   22.0554  -21.7452   -6.2127 O   0  0  0  0  0  0  0  0  0  0  0  0
   26.3807  -19.1665   -7.4908 O   0  0  0  0  0  0  0  0  0  0  0  0
  2  3  1  0
  2  1  1  6
  4  3  1  0
  5  4  2  0
  6  5  1  0
  7  6  1  0
  7 12  2  0
  8  7  1  0
  9  8  2  0
  9 10  1  0
 10 11  2  0
 11 12  1  0
 12  4  1  0
 13 15  1  0
 13  2  1  0
 14 13  2  0
 15 16  1  0
 17 16  1  0
 18 17  1  0
 19 18  1  0
 19 15  1  0
 20 21  2  0
 19 20  1  1
 22 20  1  0
 23 28  1  0
 23 22  1  0
 23 24  1  1
 25 24  1  0
 26 25  1  0
 26 27  2  0
 28 31  1  0
 29 28  2  0
 30 26  1  0
M  END
$$$$
