WPE.pdb
     RDKit          3D

 31 33  0  0  1  0  0  0  0  0999 V2000
   27.6181  -19.0830  -10.0278 N   0  0  0  0  0  0  0  0  0  0  0  0
   26.9149  -20.3092  -10.1200 C   0  0  1  0  0  0  0  0  0  0  0  0
   26.3984  -20.7317   -8.7475 C   0  0  0  0  0  0  0  0  0  0  0  0
   27.0002  -19.9992   -7.6380 C   0  0  0  0  0  0  0  0  0  0  0  0
   26.6791  -18.6783   -7.2762 C   0  0  0  0  0  0  0  0  0  0  0  0
   27.4009  -18.3180   -6.2036 N   0  0  0  0  0  0  0  0  0  0  0  0
   28.1941  -19.3680   -5.8442 C   0  0  0  0  0  0  0  0  0  0  0  0
   29.1228  -19.5378   -4.8400 C   0  0  0  0  0  0  0  0  0  0  0  0
   29.8262  -20.7137   -4.6738 C   0  0  0  0  0  0  0  0  0  0  0  0
   29.5669  -21.7364   -5.5655 C   0  0  0  0  0  0  0  0  0  0  0  0
   28.6408  -21.5919   -6.5807 C   0  0  0  0  0  0  0  0  0  0  0  0
   27.9395  -20.4075   -6.7376 C   0  0  0  0  0  0  0  0  0  0  0  0
   25.7944  -20.3542  -11.0667 C   0  0  0  0  0  0  0  0  0  0  0  0
   24.7693  -19.6877  -10.8076 O   0  0  0  0  0  0  0  0  0  0  0  0
   25.8061  -21.1187  -12.2818 N   0  0  0  0  0  0  0  0  0  0  0  0
   26.9774  -21.8132  -12.7284 C   0  0  0  0  0  0  0  0  0  0  0  0
   26.4845  -22.8506  -13.6865 C   0  0  0  0  0  0  0  0  0  0  0  0
   25.0692  -22.5401  -13.9957 C   0  0  0  0  0  0  0  0  0  0  0  0
   24.7571  -21.2614  -13.2239 C   0  0  1  0  0  0  0  0  0  0  0  0
   23.3840  -21.3754  -12.6814 C   0  0  0  0  0  0  0  0  0  0  0  0
   23.1453  -21.9797  -11.5908 O   0  0  0  0  0  0  0  0  0  0  0  0
   22.2792  -20.8117  -13.3431 N   0  0  0  0  0  0  0  0  0  0  0  0
   20.9227  -20.9083  -12.7284 C   0  0  1  0  0  0  0  0  0  0  0  0
   20.2914  -19.5575  -12.9301 C   0  0  0  0  0  0  0  0  0  0  0  0
   19.3048  -19.4354  -14.0223 C   0  0  0  0  0  0  0  0  0  0  0  0
   18.1331  -18.5968  -13.6803 C   0  0  0  0  0  0  0  0  0  0  0  0
   18.0261  -17.4533  -14.2176 O   0  0  0  0  0  0  0  0  0  0  0  0
   20.0794  -21.8830  -13.4567 C   0  0  0  0  0  0  0  0  0  0  0  0
   20.3628  -22.1681  -14.6425 O   0  0  0  0  0  0  0  0  0  0  0  0
   17.1391  -18.9884  -12.8094 O   0  0  0  0  0  0  0  0  0  0  0  0
   18.9898  -22.4861  -12.8602 O   0  0  0  0  0  0  0  0  0  0  0  0
  2  3  1  0
  2  1  1  1
  4  3  1  0
  5  4  2  0
  6  5  1  0
  7  6  1  0
  7 12  2  0
  8  7  1  0
  9  8  2  0
  9 10  1  0
 10 11  2  0
 11 12  1  0
 12  4  1  0
 13 15  1  0
 13  2  1  0
 14 13  2  0
 15 16  1  0
 17 16  1  0
 18 17  1  0
 19 18  1  0
 19 15  1  0
 20 21  2  0
 19 20  1  1
 22 20  1  0
 23 28  1  0
 23 22  1  0
 23 24  1  6
 25 24  1  0
 26 25  1  0
 26 27  2  0
 28 31  1  0
 29 28  2  0
 30 26  1  0
M  END
$$$$
