WPE.pdb
     RDKit          3D

 31 33  0  0  1  0  0  0  0  0999 V2000
   22.9656  -21.8325  -14.7824 N   0  0  0  0  0  0  0  0  0  0  0  0
   21.9038  -21.1077  -14.1876 C   0  0  1  0  0  0  0  0  0  0  0  0
   20.7063  -21.0462  -15.1315 C   0  0  0  0  0  0  0  0  0  0  0  0
   20.6883  -19.8646  -15.9878 C   0  0  0  0  0  0  0  0  0  0  0  0
   21.7030  -19.5126  -16.8963 C   0  0  0  0  0  0  0  0  0  0  0  0
   21.3624  -18.3821  -17.5345 N   0  0  0  0  0  0  0  0  0  0  0  0
   20.1456  -17.9746  -17.0717 C   0  0  0  0  0  0  0  0  0  0  0  0
   19.3466  -16.8917  -17.3693 C   0  0  0  0  0  0  0  0  0  0  0  0
   18.1316  -16.6764  -16.7506 C   0  0  0  0  0  0  0  0  0  0  0  0
   17.7337  -17.5982  -15.8018 C   0  0  0  0  0  0  0  0  0  0  0  0
   18.5158  -18.6923  -15.4853 C   0  0  0  0  0  0  0  0  0  0  0  0
   19.7332  -18.8993  -16.1134 C   0  0  0  0  0  0  0  0  0  0  0  0
   21.4352  -21.5832  -12.8806 C   0  0  0  0  0  0  0  0  0  0  0  0
   21.1365  -22.7907  -12.7588 O   0  0  0  0  0  0  0  0  0  0  0  0
   21.3020  -20.7410  -11.7256 N   0  0  0  0  0  0  0  0  0  0  0  0
   21.8398  -19.4132  -11.6902 C   0  0  0  0  0  0  0  0  0  0  0  0
   21.0971  -18.7114  -10.5980 C   0  0  0  0  0  0  0  0  0  0  0  0
   20.3517  -19.7366   -9.8311 C   0  0  0  0  0  0  0  0  0  0  0  0
   20.7140  -21.0699  -10.4788 C   0  0  1  0  0  0  0  0  0  0  0  0
   19.4945  -21.9090  -10.5168 C   0  0  0  0  0  0  0  0  0  0  0  0
   18.7910  -22.0168  -11.5680 O   0  0  0  0  0  0  0  0  0  0  0  0
   19.0619  -22.6345   -9.3931 N   0  0  0  0  0  0  0  0  0  0  0  0
   17.8143  -23.4495   -9.4764 C   0  0  1  0  0  0  0  0  0  0  0  0
   17.7070  -24.1589   -8.1539 C   0  0  0  0  0  0  0  0  0  0  0  0
   18.7320  -25.1797   -7.8560 C   0  0  0  0  0  0  0  0  0  0  0  0
   18.6015  -25.7849   -6.5108 C   0  0  0  0  0  0  0  0  0  0  0  0
   18.6286  -27.0483   -6.4071 O   0  0  0  0  0  0  0  0  0  0  0  0
   16.6209  -22.5809   -9.5892 C   0  0  0  0  0  0  0  0  0  0  0  0
   15.5402  -23.0775   -9.9807 O   0  0  0  0  0  0  0  0  0  0  0  0
   18.4563  -25.0524   -5.3522 O   0  0  0  0  0  0  0  0  0  0  0  0
   16.6699  -21.2378   -9.2720 O   0  0  0  0  0  0  0  0  0  0  0  0
  2  3  1  0
  2  1  1  6
  4  3  1  0
  5  4  2  0
  6  5  1  0
  7  6  1  0
  7 12  2  0
  8  7  1  0
  9  8  2  0
  9 10  1  0
 10 11  2  0
 11 12  1  0
 12  4  1  0
 13 15  1  0
 13  2  1  0
 14 13  2  0
 15 16  1  0
 17 16  1  0
 18 17  1  0
 19 18  1  0
 19 15  1  0
 20 21  2  0
 19 20  1  6
 22 20  1  0
 23 28  1  0
 23 22  1  0
 23 24  1  1
 25 24  1  0
 26 25  1  0
 26 27  2  0
 28 31  1  0
 29 28  2  0
 30 26  1  0
M  END
$$$$
