WPE.pdb
     RDKit          3D

 31 33  0  0  1  0  0  0  0  0999 V2000
   16.5124  -19.0721    1.6035 N   0  0  0  0  0  0  0  0  0  0  0  0
   17.5038  -19.2386    2.6015 C   0  0  1  0  0  0  0  0  0  0  0  0
   18.6684  -18.2824    2.3603 C   0  0  0  0  0  0  0  0  0  0  0  0
   19.4513  -18.5926    1.1684 C   0  0  0  0  0  0  0  0  0  0  0  0
   19.0067  -19.3890    0.0974 C   0  0  0  0  0  0  0  0  0  0  0  0
   19.9644  -19.4561   -0.8405 N   0  0  0  0  0  0  0  0  0  0  0  0
   21.0347  -18.7233   -0.4182 C   0  0  0  0  0  0  0  0  0  0  0  0
   22.2688  -18.4640   -0.9744 C   0  0  0  0  0  0  0  0  0  0  0  0
   23.2161  -17.6840   -0.3426 C   0  0  0  0  0  0  0  0  0  0  0  0
   22.8831  -17.1620    0.8922 C   0  0  0  0  0  0  0  0  0  0  0  0
   21.6529  -17.4065    1.4717 C   0  0  0  0  0  0  0  0  0  0  0  0
   20.7089  -18.1900    0.8281 C   0  0  0  0  0  0  0  0  0  0  0  0
   17.0658  -19.0877    3.9940 C   0  0  0  0  0  0  0  0  0  0  0  0
   16.6212  -17.9787    4.3611 O   0  0  0  0  0  0  0  0  0  0  0  0
   17.1135  -20.1441    4.9649 N   0  0  0  0  0  0  0  0  0  0  0  0
   17.2002  -21.5222    4.5811 C   0  0  0  0  0  0  0  0  0  0  0  0
   17.7227  -22.2390    5.7854 C   0  0  0  0  0  0  0  0  0  0  0  0
   17.6487  -21.3038    6.9321 C   0  0  0  0  0  0  0  0  0  0  0  0
   17.0247  -20.0279    6.3745 C   0  0  1  0  0  0  0  0  0  0  0  0
   17.7121  -18.8715    6.9933 C   0  0  0  0  0  0  0  0  0  0  0  0
   18.7091  -18.3135    6.4401 O   0  0  0  0  0  0  0  0  0  0  0  0
   17.2878  -18.3294    8.2190 N   0  0  0  0  0  0  0  0  0  0  0  0
   18.0467  -17.1975    8.8275 C   0  0  1  0  0  0  0  0  0  0  0  0
   17.0513  -16.4552    9.6772 C   0  0  0  0  0  0  0  0  0  0  0  0
   17.4951  -15.1751   10.2653 C   0  0  0  0  0  0  0  0  0  0  0  0
   16.6685  -14.7220   11.4073 C   0  0  0  0  0  0  0  0  0  0  0  0
   15.6928  -15.4431   11.7758 O   0  0  0  0  0  0  0  0  0  0  0  0
   19.0973  -17.6960    9.7436 C   0  0  0  0  0  0  0  0  0  0  0  0
   18.9288  -18.7918   10.3257 O   0  0  0  0  0  0  0  0  0  0  0  0
   16.8995  -13.5558   12.1049 O   0  0  0  0  0  0  0  0  0  0  0  0
   20.2581  -16.9834    9.9707 O   0  0  0  0  0  0  0  0  0  0  0  0
  2  3  1  0
  2  1  1  6
  4  3  1  0
  5  4  2  0
  6  5  1  0
  7  6  1  0
  7 12  2  0
  8  7  1  0
  9  8  2  0
  9 10  1  0
 10 11  2  0
 11 12  1  0
 12  4  1  0
 13 15  1  0
 13  2  1  0
 14 13  2  0
 15 16  1  0
 17 16  1  0
 18 17  1  0
 19 18  1  0
 19 15  1  0
 20 21  2  0
 19 20  1  1
 22 20  1  0
 23 28  1  0
 23 22  1  0
 23 24  1  1
 25 24  1  0
 26 25  1  0
 26 27  2  0
 28 31  1  0
 29 28  2  0
 30 26  1  0
M  END
$$$$
