WPE.pdb
     RDKit          3D

 31 33  0  0  1  0  0  0  0  0999 V2000
   33.3459  -26.8848  -19.2887 N   0  0  0  0  0  0  0  0  0  0  0  0
   32.8721  -28.2053  -19.4842 C   0  0  1  0  0  0  0  0  0  0  0  0
   33.0260  -29.0216  -18.2041 C   0  0  0  0  0  0  0  0  0  0  0  0
   34.3184  -29.6880  -18.0793 C   0  0  0  0  0  0  0  0  0  0  0  0
   35.5657  -29.0379  -18.1036 C   0  0  0  0  0  0  0  0  0  0  0  0
   36.5461  -29.9407  -17.9458 N   0  0  0  0  0  0  0  0  0  0  0  0
   35.9801  -31.1751  -17.8173 C   0  0  0  0  0  0  0  0  0  0  0  0
   36.5123  -32.4348  -17.6455 C   0  0  0  0  0  0  0  0  0  0  0  0
   35.7246  -33.5640  -17.5487 C   0  0  0  0  0  0  0  0  0  0  0  0
   34.3569  -33.3894  -17.6335 C   0  0  0  0  0  0  0  0  0  0  0  0
   33.7980  -32.1375  -17.8053 C   0  0  0  0  0  0  0  0  0  0  0  0
   34.5982  -31.0105  -17.9001 C   0  0  0  0  0  0  0  0  0  0  0  0
   31.4888  -28.3439  -19.9544 C   0  0  0  0  0  0  0  0  0  0  0  0
   30.6217  -27.5742  -19.4875 O   0  0  0  0  0  0  0  0  0  0  0  0
   31.0695  -29.3131  -20.9269 N   0  0  0  0  0  0  0  0  0  0  0  0
   32.0102  -30.0299  -21.7362 C   0  0  0  0  0  0  0  0  0  0  0  0
   31.2780  -31.2411  -22.2201 C   0  0  0  0  0  0  0  0  0  0  0  0
   29.8404  -31.0470  -21.9188 C   0  0  0  0  0  0  0  0  0  0  0  0
   29.7431  -29.6638  -21.2821 C   0  0  1  0  0  0  0  0  0  0  0  0
   28.7538  -29.7324  -20.1824 C   0  0  0  0  0  0  0  0  0  0  0  0
   29.0660  -30.1629  -19.0297 O   0  0  0  0  0  0  0  0  0  0  0  0
   27.4231  -29.3152  -20.3591 N   0  0  0  0  0  0  0  0  0  0  0  0
   26.4719  -29.3764  -19.2106 C   0  0  1  0  0  0  0  0  0  0  0  0
   25.2733  -28.5728  -19.6364 C   0  0  0  0  0  0  0  0  0  0  0  0
   24.1462  -28.4952  -18.6851 C   0  0  0  0  0  0  0  0  0  0  0  0
   23.0561  -27.5922  -19.1201 C   0  0  0  0  0  0  0  0  0  0  0  0
   22.0648  -27.4199  -18.3484 O   0  0  0  0  0  0  0  0  0  0  0  0
   25.9969  -30.7609  -18.9896 C   0  0  0  0  0  0  0  0  0  0  0  0
   26.0330  -31.5767  -19.9389 O   0  0  0  0  0  0  0  0  0  0  0  0
   23.0548  -26.9166  -20.3215 O   0  0  0  0  0  0  0  0  0  0  0  0
   25.5167  -31.1749  -17.7629 O   0  0  0  0  0  0  0  0  0  0  0  0
  2  3  1  0
  2  1  1  1
  4  3  1  0
  5  4  2  0
  6  5  1  0
  7  6  1  0
  7 12  2  0
  8  7  1  0
  9  8  2  0
  9 10  1  0
 10 11  2  0
 11 12  1  0
 12  4  1  0
 13 15  1  0
 13  2  1  0
 14 13  2  0
 15 16  1  0
 17 16  1  0
 18 17  1  0
 19 18  1  0
 19 15  1  0
 20 21  2  0
 19 20  1  1
 22 20  1  0
 23 28  1  0
 23 22  1  0
 23 24  1  6
 25 24  1  0
 26 25  1  0
 26 27  2  0
 28 31  1  0
 29 28  2  0
 30 26  1  0
M  END
$$$$
