WPE.pdb
     RDKit          3D

 31 33  0  0  1  0  0  0  0  0999 V2000
   21.4332  -21.5385  -14.4144 N   0  0  0  0  0  0  0  0  0  0  0  0
   21.7719  -20.7933  -13.2583 C   0  0  1  0  0  0  0  0  0  0  0  0
   20.9793  -19.4900  -13.2134 C   0  0  0  0  0  0  0  0  0  0  0  0
   21.0244  -18.7272  -14.4567 C   0  0  0  0  0  0  0  0  0  0  0  0
   19.9020  -18.1932  -15.1154 C   0  0  0  0  0  0  0  0  0  0  0  0
   20.2977  -17.5359  -16.2166 N   0  0  0  0  0  0  0  0  0  0  0  0
   21.6562  -17.6205  -16.3053 C   0  0  0  0  0  0  0  0  0  0  0  0
   22.5649  -17.1434  -17.2253 C   0  0  0  0  0  0  0  0  0  0  0  0
   23.9220  -17.3673  -17.1096 C   0  0  0  0  0  0  0  0  0  0  0  0
   24.3504  -18.1023  -16.0212 C   0  0  0  0  0  0  0  0  0  0  0  0
   23.4603  -18.5917  -15.0846 C   0  0  0  0  0  0  0  0  0  0  0  0
   22.1002  -18.3599  -15.2100 C   0  0  0  0  0  0  0  0  0  0  0  0
   21.6114  -21.4738  -11.9680 C   0  0  0  0  0  0  0  0  0  0  0  0
   20.6496  -22.2590  -11.8249 O   0  0  0  0  0  0  0  0  0  0  0  0
   22.4999  -21.2941  -10.8547 N   0  0  0  0  0  0  0  0  0  0  0  0
   23.7562  -20.6178  -10.9898 C   0  0  0  0  0  0  0  0  0  0  0  0
   24.1322  -20.1955   -9.6051 C   0  0  0  0  0  0  0  0  0  0  0  0
   23.2282  -20.8937   -8.6615 C   0  0  0  0  0  0  0  0  0  0  0  0
   22.3367  -21.7748   -9.5316 C   0  0  1  0  0  0  0  0  0  0  0  0
   20.9662  -21.7367   -8.9722 C   0  0  0  0  0  0  0  0  0  0  0  0
   20.2351  -20.7032   -9.0670 O   0  0  0  0  0  0  0  0  0  0  0  0
   20.4047  -22.8466   -8.3171 N   0  0  0  0  0  0  0  0  0  0  0  0
   19.0088  -22.7670   -7.7951 C   0  0  1  0  0  0  0  0  0  0  0  0
   18.1731  -23.5701   -8.7545 C   0  0  0  0  0  0  0  0  0  0  0  0
   18.5216  -24.9963   -8.9151 C   0  0  0  0  0  0  0  0  0  0  0  0
   17.6151  -25.7361   -9.8227 C   0  0  0  0  0  0  0  0  0  0  0  0
   16.6234  -25.1245  -10.3230 O   0  0  0  0  0  0  0  0  0  0  0  0
   18.8975  -23.4319   -6.4772 C   0  0  0  0  0  0  0  0  0  0  0  0
   19.8544  -24.1237   -6.0606 O   0  0  0  0  0  0  0  0  0  0  0  0
   17.7873  -27.0602  -10.1650 O   0  0  0  0  0  0  0  0  0  0  0  0
   17.7657  -23.3068   -5.6960 O   0  0  0  0  0  0  0  0  0  0  0  0
  2  3  1  0
  2  1  1  6
  4  3  1  0
  5  4  2  0
  6  5  1  0
  7  6  1  0
  7 12  2  0
  8  7  1  0
  9  8  2  0
  9 10  1  0
 10 11  2  0
 11 12  1  0
 12  4  1  0
 13 15  1  0
 13  2  1  0
 14 13  2  0
 15 16  1  0
 17 16  1  0
 18 17  1  0
 19 18  1  0
 19 15  1  0
 20 21  2  0
 19 20  1  1
 22 20  1  0
 23 28  1  0
 23 22  1  0
 23 24  1  6
 25 24  1  0
 26 25  1  0
 26 27  2  0
 28 31  1  0
 29 28  2  0
 30 26  1  0
M  END
$$$$
