WPE.pdb
     RDKit          3D

 31 33  0  0  1  0  0  0  0  0999 V2000
   13.7343  -24.0692    0.5773 N   0  0  0  0  0  0  0  0  0  0  0  0
   14.8129  -24.5802    1.3403 C   0  0  1  0  0  0  0  0  0  0  0  0
   16.1359  -24.0019    0.8464 C   0  0  0  0  0  0  0  0  0  0  0  0
   16.7904  -24.8119   -0.1761 C   0  0  0  0  0  0  0  0  0  0  0  0
   16.2501  -25.1018   -1.4421 C   0  0  0  0  0  0  0  0  0  0  0  0
   17.1166  -25.8531   -2.1392 N   0  0  0  0  0  0  0  0  0  0  0  0
   18.2198  -26.0693   -1.3666 C   0  0  0  0  0  0  0  0  0  0  0  0
   19.3876  -26.7699   -1.5788 C   0  0  0  0  0  0  0  0  0  0  0  0
   20.3807  -26.8591   -0.6244 C   0  0  0  0  0  0  0  0  0  0  0  0
   20.1625  -26.2129    0.5768 C   0  0  0  0  0  0  0  0  0  0  0  0
   19.0008  -25.5038    0.8148 C   0  0  0  0  0  0  0  0  0  0  0  0
   18.0109  -25.4197   -0.1508 C   0  0  0  0  0  0  0  0  0  0  0  0
   14.7399  -24.3857    2.7931 C   0  0  0  0  0  0  0  0  0  0  0  0
   14.4856  -23.2419    3.2283 O   0  0  0  0  0  0  0  0  0  0  0  0
   14.9401  -25.4367    3.7503 N   0  0  0  0  0  0  0  0  0  0  0  0
   15.0042  -26.8142    3.3603 C   0  0  0  0  0  0  0  0  0  0  0  0
   15.6988  -27.5147    4.4846 C   0  0  0  0  0  0  0  0  0  0  0  0
   15.7590  -26.5764    5.6296 C   0  0  0  0  0  0  0  0  0  0  0  0
   15.0384  -25.3163    5.1589 C   0  0  1  0  0  0  0  0  0  0  0  0
   15.7775  -24.1430    5.6783 C   0  0  0  0  0  0  0  0  0  0  0  0
   16.2631  -23.2632    4.9026 O   0  0  0  0  0  0  0  0  0  0  0  0
   15.9690  -23.9415    7.0563 N   0  0  0  0  0  0  0  0  0  0  0  0
   16.6452  -22.6996    7.5336 C   0  0  1  0  0  0  0  0  0  0  0  0
   15.6340  -21.5986    7.3624 C   0  0  0  0  0  0  0  0  0  0  0  0
   16.0101  -20.2600    7.8603 C   0  0  0  0  0  0  0  0  0  0  0  0
   16.5964  -19.3786    6.8248 C   0  0  0  0  0  0  0  0  0  0  0  0
   17.6310  -18.7051    7.1142 O   0  0  0  0  0  0  0  0  0  0  0  0
   16.9416  -22.7810    8.9817 C   0  0  0  0  0  0  0  0  0  0  0  0
   16.1273  -23.3562    9.7393 O   0  0  0  0  0  0  0  0  0  0  0  0
   16.0851  -19.2476    5.5515 O   0  0  0  0  0  0  0  0  0  0  0  0
   18.0940  -22.2400    9.5167 O   0  0  0  0  0  0  0  0  0  0  0  0
  2  3  1  0
  2  1  1  6
  4  3  1  0
  5  4  2  0
  6  5  1  0
  7  6  1  0
  7 12  2  0
  8  7  1  0
  9  8  2  0
  9 10  1  0
 10 11  2  0
 11 12  1  0
 12  4  1  0
 13 15  1  0
 13  2  1  0
 14 13  2  0
 15 16  1  0
 17 16  1  0
 18 17  1  0
 19 18  1  0
 19 15  1  0
 20 21  2  0
 19 20  1  6
 22 20  1  0
 23 28  1  0
 23 22  1  0
 23 24  1  1
 25 24  1  0
 26 25  1  0
 26 27  2  0
 28 31  1  0
 29 28  2  0
 30 26  1  0
M  END
$$$$
