QFF.pdb
     RDKit          3D

 32 33  0  0  1  0  0  0  0  0999 V2000
   26.8251  -38.4704   -3.7565 N   0  0  0  0  0  0  0  0  0  0  0  0
   27.7769  -38.7215   -4.7829 C   0  0  0  0  0  0  0  0  0  0  0  0
   27.4683  -39.7018   -5.5438 O   0  0  0  0  0  0  0  0  0  0  0  0
   29.0151  -37.9426   -4.9815 C   0  0  0  0  0  0  0  0  0  0  0  0
   29.2590  -36.8941   -3.9673 C   0  0  0  0  0  0  0  0  0  0  0  0
   28.7038  -35.5369   -4.2303 C   0  0  2  0  0  0  0  0  0  0  0  0
   29.5222  -34.7864   -5.1533 N   0  0  0  0  0  0  0  0  0  0  0  0
   28.5057  -34.7299   -3.0126 C   0  0  0  0  0  0  0  0  0  0  0  0
   29.3833  -33.9027   -2.6582 O   0  0  0  0  0  0  0  0  0  0  0  0
   27.3827  -34.7940   -2.1721 N   0  0  0  0  0  0  0  0  0  0  0  0
   27.1480  -33.9527   -1.0320 C   0  0  1  0  0  0  0  0  0  0  0  0
   25.7448  -33.6003   -0.7676 C   0  0  0  0  0  0  0  0  0  0  0  0
   25.3056  -32.3972   -1.4842 C   0  0  0  0  0  0  0  0  0  0  0  0
   24.8506  -32.5153   -2.8005 C   0  0  0  0  0  0  0  0  0  0  0  0
   24.3949  -31.4525   -3.5333 C   0  0  0  0  0  0  0  0  0  0  0  0
   24.3643  -30.1806   -2.9906 C   0  0  0  0  0  0  0  0  0  0  0  0
   24.8048  -30.0243   -1.6956 C   0  0  0  0  0  0  0  0  0  0  0  0
   25.2647  -31.1195   -0.9644 C   0  0  0  0  0  0  0  0  0  0  0  0
   27.7826  -34.5881    0.1347 C   0  0  0  0  0  0  0  0  0  0  0  0
   28.1995  -35.7653    0.0339 O   0  0  0  0  0  0  0  0  0  0  0  0
   27.9519  -33.9314    1.3799 N   0  0  0  0  0  0  0  0  0  0  0  0
   28.7505  -34.6075    2.3962 C   0  0  1  0  0  0  0  0  0  0  0  0
   30.1566  -34.8211    1.8777 C   0  0  0  0  0  0  0  0  0  0  0  0
   30.3068  -36.2056    1.3982 C   0  0  0  0  0  0  0  0  0  0  0  0
   30.9699  -36.4955    0.2090 C   0  0  0  0  0  0  0  0  0  0  0  0
   31.1628  -37.7768   -0.2614 C   0  0  0  0  0  0  0  0  0  0  0  0
   30.6786  -38.8328    0.4719 C   0  0  0  0  0  0  0  0  0  0  0  0
   30.0031  -38.5831    1.6752 C   0  0  0  0  0  0  0  0  0  0  0  0
   29.8292  -37.2941    2.1160 C   0  0  0  0  0  0  0  0  0  0  0  0
   28.7838  -33.7794    3.5954 C   0  0  0  0  0  0  0  0  0  0  0  0
   28.2795  -32.4955    3.6845 O   0  0  0  0  0  0  0  0  0  0  0  0
   29.3148  -34.2466    4.6582 O   0  0  0  0  0  0  0  0  0  0  0  0
  2  1  1  0
  3  2  2  0
  4  2  1  0
  5  4  1  0
  6  5  1  0
  6  7  1  6
  8  6  1  0
  8  9  2  0
 10  8  1  0
 11 10  1  0
 11 12  1  1
 12 13  1  0
 13 14  2  0
 13 18  1  0
 14 15  1  0
 15 16  2  0
 17 16  1  0
 18 17  2  0
 19 11  1  0
 20 19  2  0
 21 19  1  0
 22 21  1  0
 22 23  1  6
 23 24  1  0
 24 29  1  0
 25 24  2  0
 25 26  1  0
 26 27  2  0
 27 28  1  0
 29 28  2  0
 30 31  1  0
 30 22  1  0
 32 30  2  0
M  END
$$$$
