QFF.pdb
     RDKit          3D

 32 33  0  0  1  0  0  0  0  0999 V2000
   24.0199  -20.0403  -17.0274 N   0  0  0  0  0  0  0  0  0  0  0  0
   23.3547  -21.2065  -17.4962 C   0  0  0  0  0  0  0  0  0  0  0  0
   22.4057  -20.9638  -18.3181 O   0  0  0  0  0  0  0  0  0  0  0  0
   23.7018  -22.5838  -17.0936 C   0  0  0  0  0  0  0  0  0  0  0  0
   24.8193  -22.6866  -16.1303 C   0  0  0  0  0  0  0  0  0  0  0  0
   24.4770  -22.7774  -14.6832 C   0  0  2  0  0  0  0  0  0  0  0  0
   23.2255  -22.1240  -14.3805 N   0  0  0  0  0  0  0  0  0  0  0  0
   25.5189  -22.2366  -13.7913 C   0  0  0  0  0  0  0  0  0  0  0  0
   26.6688  -22.7442  -13.7894 O   0  0  0  0  0  0  0  0  0  0  0  0
   25.3482  -21.1607  -12.9053 N   0  0  0  0  0  0  0  0  0  0  0  0
   26.3979  -20.5183  -12.1648 C   0  0  1  0  0  0  0  0  0  0  0  0
   26.5219  -19.0646  -12.3495 C   0  0  0  0  0  0  0  0  0  0  0  0
   27.2168  -18.6960  -13.5885 C   0  0  0  0  0  0  0  0  0  0  0  0
   26.7183  -17.6451  -14.3634 C   0  0  0  0  0  0  0  0  0  0  0  0
   27.3182  -17.2150  -15.5164 C   0  0  0  0  0  0  0  0  0  0  0  0
   28.4742  -17.8172  -15.9792 C   0  0  0  0  0  0  0  0  0  0  0  0
   28.9959  -18.8567  -15.2424 C   0  0  0  0  0  0  0  0  0  0  0  0
   28.3708  -19.2803  -14.0695 C   0  0  0  0  0  0  0  0  0  0  0  0
   26.2341  -20.8787  -10.7468 C   0  0  0  0  0  0  0  0  0  0  0  0
   25.0843  -21.1139  -10.3082 O   0  0  0  0  0  0  0  0  0  0  0  0
   27.3201  -20.9776   -9.8405 N   0  0  0  0  0  0  0  0  0  0  0  0
   27.0119  -21.2906   -8.4496 C   0  0  1  0  0  0  0  0  0  0  0  0
   28.2978  -21.4180   -7.6611 C   0  0  0  0  0  0  0  0  0  0  0  0
   28.2398  -20.5553   -6.4687 C   0  0  0  0  0  0  0  0  0  0  0  0
   27.8472  -21.0530   -5.2293 C   0  0  0  0  0  0  0  0  0  0  0  0
   27.8095  -20.2912   -4.0810 C   0  0  0  0  0  0  0  0  0  0  0  0
   28.1750  -18.9687   -4.1499 C   0  0  0  0  0  0  0  0  0  0  0  0
   28.5754  -18.4283   -5.3803 C   0  0  0  0  0  0  0  0  0  0  0  0
   28.6028  -19.2155   -6.5053 C   0  0  0  0  0  0  0  0  0  0  0  0
   26.1943  -20.2181   -7.8965 C   0  0  0  0  0  0  0  0  0  0  0  0
   26.1376  -18.9296   -8.3939 O   0  0  0  0  0  0  0  0  0  0  0  0
   25.4673  -20.4553   -6.8743 O   0  0  0  0  0  0  0  0  0  0  0  0
  2  1  1  0
  3  2  2  0
  4  2  1  0
  5  4  1  0
  6  5  1  0
  6  7  1  6
  8  6  1  0
  8  9  2  0
 10  8  1  0
 11 10  1  0
 11 12  1  1
 12 13  1  0
 13 14  2  0
 13 18  1  0
 14 15  1  0
 15 16  2  0
 17 16  1  0
 18 17  2  0
 19 11  1  0
 20 19  2  0
 21 19  1  0
 22 21  1  0
 22 23  1  1
 23 24  1  0
 24 29  1  0
 25 24  2  0
 25 26  1  0
 26 27  2  0
 27 28  1  0
 29 28  2  0
 30 31  1  0
 30 22  1  0
 32 30  2  0
M  END
$$$$
