QFF.pdb
     RDKit          3D

 32 33  0  0  1  0  0  0  0  0999 V2000
   23.5263  -26.2524  -14.4266 N   0  0  0  0  0  0  0  0  0  0  0  0
   22.4236  -25.5116  -14.9342 C   0  0  0  0  0  0  0  0  0  0  0  0
   21.5405  -26.2328  -15.5133 O   0  0  0  0  0  0  0  0  0  0  0  0
   22.2787  -24.0469  -14.8200 C   0  0  0  0  0  0  0  0  0  0  0  0
   23.3065  -23.3839  -13.9886 C   0  0  0  0  0  0  0  0  0  0  0  0
   24.1113  -22.3006  -14.6195 C   0  0  2  0  0  0  0  0  0  0  0  0
   24.5953  -22.6766  -15.9269 N   0  0  0  0  0  0  0  0  0  0  0  0
   25.2559  -21.8581  -13.8026 C   0  0  0  0  0  0  0  0  0  0  0  0
   26.3359  -22.5005  -13.8352 O   0  0  0  0  0  0  0  0  0  0  0  0
   25.2616  -20.7387  -12.9549 N   0  0  0  0  0  0  0  0  0  0  0  0
   26.4014  -20.2491  -12.2312 C   0  0  1  0  0  0  0  0  0  0  0  0
   26.6853  -18.8126  -12.3687 C   0  0  0  0  0  0  0  0  0  0  0  0
   27.3561  -18.4735  -13.6292 C   0  0  0  0  0  0  0  0  0  0  0  0
   26.8015  -17.4910  -14.4542 C   0  0  0  0  0  0  0  0  0  0  0  0
   27.3746  -17.0910  -15.6314 C   0  0  0  0  0  0  0  0  0  0  0  0
   28.5585  -17.6563  -16.0695 C   0  0  0  0  0  0  0  0  0  0  0  0
   29.1354  -18.6283  -15.2834 C   0  0  0  0  0  0  0  0  0  0  0  0
   28.5369  -19.0220  -14.0865 C   0  0  0  0  0  0  0  0  0  0  0  0
   26.2435  -20.6440  -10.8217 C   0  0  0  0  0  0  0  0  0  0  0  0
   25.0918  -20.8505  -10.3737 O   0  0  0  0  0  0  0  0  0  0  0  0
   27.3370  -20.8078   -9.9342 N   0  0  0  0  0  0  0  0  0  0  0  0
   27.0411  -21.2279   -8.5690 C   0  0  1  0  0  0  0  0  0  0  0  0
   28.3233  -21.2855   -7.7664 C   0  0  0  0  0  0  0  0  0  0  0  0
   28.1268  -20.6269   -6.4637 C   0  0  0  0  0  0  0  0  0  0  0  0
   28.6352  -19.3568   -6.2068 C   0  0  0  0  0  0  0  0  0  0  0  0
   28.4480  -18.6892   -5.0153 C   0  0  0  0  0  0  0  0  0  0  0  0
   27.7243  -19.2993   -4.0197 C   0  0  0  0  0  0  0  0  0  0  0  0
   27.1962  -20.5798   -4.2381 C   0  0  0  0  0  0  0  0  0  0  0  0
   27.4003  -21.2166   -5.4377 C   0  0  0  0  0  0  0  0  0  0  0  0
   26.1230  -20.2671   -7.9702 C   0  0  0  0  0  0  0  0  0  0  0  0
   25.1458  -20.5783   -7.0433 O   0  0  0  0  0  0  0  0  0  0  0  0
   26.2008  -19.0389   -8.3096 O   0  0  0  0  0  0  0  0  0  0  0  0
  2  1  1  0
  3  2  2  0
  4  2  1  0
  5  4  1  0
  6  5  1  0
  6  7  1  6
  8  6  1  0
  8  9  2  0
 10  8  1  0
 11 10  1  0
 11 12  1  1
 12 13  1  0
 13 14  2  0
 13 18  1  0
 14 15  1  0
 15 16  2  0
 17 16  1  0
 18 17  2  0
 19 11  1  0
 20 19  2  0
 21 19  1  0
 22 21  1  0
 22 23  1  1
 23 24  1  0
 24 29  1  0
 25 24  2  0
 25 26  1  0
 26 27  2  0
 27 28  1  0
 29 28  2  0
 30 31  1  0
 30 22  1  0
 32 30  2  0
M  END
$$$$
