QFF.pdb
     RDKit          3D

 32 33  0  0  1  0  0  0  0  0999 V2000
   28.0621  -20.4726  -15.1214 N   0  0  0  0  0  0  0  0  0  0  0  0
   27.4847  -19.1734  -15.0899 C   0  0  0  0  0  0  0  0  0  0  0  0
   27.9037  -18.4001  -16.0182 O   0  0  0  0  0  0  0  0  0  0  0  0
   26.4909  -18.7257  -14.0942 C   0  0  0  0  0  0  0  0  0  0  0  0
   26.0965  -19.7522  -13.1051 C   0  0  0  0  0  0  0  0  0  0  0  0
   27.1301  -20.7399  -12.6859 C   0  0  2  0  0  0  0  0  0  0  0  0
   27.0065  -21.9892  -13.3994 N   0  0  0  0  0  0  0  0  0  0  0  0
   27.1302  -21.0216  -11.2389 C   0  0  0  0  0  0  0  0  0  0  0  0
   26.6396  -22.0960  -10.8086 O   0  0  0  0  0  0  0  0  0  0  0  0
   27.6493  -20.1725  -10.2483 N   0  0  0  0  0  0  0  0  0  0  0  0
   27.6102  -20.4224   -8.8345 C   0  0  1  0  0  0  0  0  0  0  0  0
   28.5625  -19.6558   -8.0168 C   0  0  0  0  0  0  0  0  0  0  0  0
   28.3810  -19.8588   -6.5748 C   0  0  0  0  0  0  0  0  0  0  0  0
   27.7297  -18.8760   -5.8242 C   0  0  0  0  0  0  0  0  0  0  0  0
   27.4909  -18.9949   -4.4814 C   0  0  0  0  0  0  0  0  0  0  0  0
   27.8948  -20.1218   -3.7885 C   0  0  0  0  0  0  0  0  0  0  0  0
   28.5401  -21.1124   -4.4940 C   0  0  0  0  0  0  0  0  0  0  0  0
   28.7736  -20.9736   -5.8622 C   0  0  0  0  0  0  0  0  0  0  0  0
   26.2222  -20.2325   -8.3819 C   0  0  0  0  0  0  0  0  0  0  0  0
   25.5358  -19.3176   -8.8934 O   0  0  0  0  0  0  0  0  0  0  0  0
   25.6122  -21.0398   -7.3886 N   0  0  0  0  0  0  0  0  0  0  0  0
   24.1668  -20.9317   -7.2251 C   0  0  1  0  0  0  0  0  0  0  0  0
   23.4753  -21.4497   -8.4681 C   0  0  0  0  0  0  0  0  0  0  0  0
   22.0146  -21.3668   -8.2980 C   0  0  0  0  0  0  0  0  0  0  0  0
   21.2936  -22.3921   -7.6925 C   0  0  0  0  0  0  0  0  0  0  0  0
   19.9320  -22.3435   -7.4829 C   0  0  0  0  0  0  0  0  0  0  0  0
   19.2374  -21.2302   -7.8898 C   0  0  0  0  0  0  0  0  0  0  0  0
   19.9267  -20.1756   -8.5055 C   0  0  0  0  0  0  0  0  0  0  0  0
   21.2842  -20.2557   -8.6981 C   0  0  0  0  0  0  0  0  0  0  0  0
   23.7645  -21.7209   -6.0675 C   0  0  0  0  0  0  0  0  0  0  0  0
   24.4011  -22.8680   -5.6320 O   0  0  0  0  0  0  0  0  0  0  0  0
   22.7499  -21.3517   -5.3863 O   0  0  0  0  0  0  0  0  0  0  0  0
  2  1  1  0
  3  2  2  0
  4  2  1  0
  5  4  1  0
  6  5  1  0
  6  7  1  6
  8  6  1  0
  8  9  2  0
 10  8  1  0
 11 10  1  0
 11 12  1  1
 12 13  1  0
 13 14  2  0
 13 18  1  0
 14 15  1  0
 15 16  2  0
 17 16  1  0
 18 17  2  0
 19 11  1  0
 20 19  2  0
 21 19  1  0
 22 21  1  0
 22 23  1  6
 23 24  1  0
 24 29  1  0
 25 24  2  0
 25 26  1  0
 26 27  2  0
 27 28  1  0
 29 28  2  0
 30 31  1  0
 30 22  1  0
 32 30  2  0
M  END
$$$$
