QFF.pdb
     RDKit          3D

 32 33  0  0  1  0  0  0  0  0999 V2000
   22.6632  -26.3111  -14.3022 N   0  0  0  0  0  0  0  0  0  0  0  0
   22.2113  -25.4630  -15.3505 C   0  0  0  0  0  0  0  0  0  0  0  0
   21.2121  -25.9302  -15.9974 O   0  0  0  0  0  0  0  0  0  0  0  0
   22.8147  -24.1585  -15.6872 C   0  0  0  0  0  0  0  0  0  0  0  0
   23.8856  -23.7137  -14.7692 C   0  0  0  0  0  0  0  0  0  0  0  0
   24.5016  -22.3809  -15.0213 C   0  0  2  0  0  0  0  0  0  0  0  0
   25.1154  -22.3059  -16.3261 N   0  0  0  0  0  0  0  0  0  0  0  0
   25.4973  -21.9855  -14.0087 C   0  0  0  0  0  0  0  0  0  0  0  0
   26.6277  -22.5350  -13.9919 O   0  0  0  0  0  0  0  0  0  0  0  0
   25.3014  -21.0104  -13.0175 N   0  0  0  0  0  0  0  0  0  0  0  0
   26.2895  -20.5785  -12.0688 C   0  0  1  0  0  0  0  0  0  0  0  0
   26.7297  -19.1801  -12.1865 C   0  0  0  0  0  0  0  0  0  0  0  0
   27.4890  -18.9141  -13.4139 C   0  0  0  0  0  0  0  0  0  0  0  0
   28.7410  -19.5116  -13.5845 C   0  0  0  0  0  0  0  0  0  0  0  0
   29.5039  -19.3432  -14.7086 C   0  0  0  0  0  0  0  0  0  0  0  0
   29.0594  -18.5530  -15.7532 C   0  0  0  0  0  0  0  0  0  0  0  0
   27.8299  -17.9474  -15.6219 C   0  0  0  0  0  0  0  0  0  0  0  0
   27.0664  -18.1316  -14.4691 C   0  0  0  0  0  0  0  0  0  0  0  0
   25.7818  -20.8815  -10.7204 C   0  0  0  0  0  0  0  0  0  0  0  0
   24.5470  -20.8397  -10.5122 O   0  0  0  0  0  0  0  0  0  0  0  0
   26.6242  -21.2246   -9.6327 N   0  0  0  0  0  0  0  0  0  0  0  0
   25.9907  -21.4875   -8.3454 C   0  0  1  0  0  0  0  0  0  0  0  0
   27.0403  -21.9114   -7.3403 C   0  0  0  0  0  0  0  0  0  0  0  0
   27.6469  -20.7212   -6.7199 C   0  0  0  0  0  0  0  0  0  0  0  0
   29.0206  -20.4998   -6.7610 C   0  0  0  0  0  0  0  0  0  0  0  0
   29.6278  -19.3851   -6.2233 C   0  0  0  0  0  0  0  0  0  0  0  0
   28.8473  -18.4353   -5.6101 C   0  0  0  0  0  0  0  0  0  0  0  0
   27.4590  -18.6216   -5.5461 C   0  0  0  0  0  0  0  0  0  0  0  0
   26.8858  -19.7433   -6.0933 C   0  0  0  0  0  0  0  0  0  0  0  0
   25.3294  -20.2710   -7.8899 C   0  0  0  0  0  0  0  0  0  0  0  0
   25.5603  -19.0068   -8.3992 O   0  0  0  0  0  0  0  0  0  0  0  0
   24.4696  -20.3464   -6.9492 O   0  0  0  0  0  0  0  0  0  0  0  0
  2  1  1  0
  3  2  2  0
  4  2  1  0
  5  4  1  0
  6  5  1  0
  6  7  1  6
  8  6  1  0
  8  9  2  0
 10  8  1  0
 11 10  1  0
 11 12  1  1
 12 13  1  0
 13 14  2  0
 13 18  1  0
 14 15  1  0
 15 16  2  0
 17 16  1  0
 18 17  2  0
 19 11  1  0
 20 19  2  0
 21 19  1  0
 22 21  1  0
 22 23  1  1
 23 24  1  0
 24 29  1  0
 25 24  2  0
 25 26  1  0
 26 27  2  0
 27 28  1  0
 29 28  2  0
 30 31  1  0
 30 22  1  0
 32 30  2  0
M  END
$$$$
