QFF.pdb
     RDKit          3D

 32 33  0  0  1  0  0  0  0  0999 V2000
   20.3665  -12.0285  -17.8370 N   0  0  0  0  0  0  0  0  0  0  0  0
   21.1618  -13.1385  -18.2340 C   0  0  0  0  0  0  0  0  0  0  0  0
   20.5196  -14.2434  -18.2789 O   0  0  0  0  0  0  0  0  0  0  0  0
   22.5969  -13.0588  -18.5713 C   0  0  0  0  0  0  0  0  0  0  0  0
   23.1750  -11.6989  -18.5095 C   0  0  0  0  0  0  0  0  0  0  0  0
   23.3750  -10.9748  -19.7961 C   0  0  2  0  0  0  0  0  0  0  0  0
   24.5774  -11.3977  -20.4745 N   0  0  0  0  0  0  0  0  0  0  0  0
   23.4054   -9.5078  -19.6536 C   0  0  0  0  0  0  0  0  0  0  0  0
   24.5062   -8.9012  -19.6401 O   0  0  0  0  0  0  0  0  0  0  0  0
   22.2763   -8.6825  -19.5281 N   0  0  0  0  0  0  0  0  0  0  0  0
   22.3014   -7.2519  -19.4035 C   0  0  1  0  0  0  0  0  0  0  0  0
   21.6038   -6.4996  -20.4573 C   0  0  0  0  0  0  0  0  0  0  0  0
   22.3509   -6.4437  -21.7192 C   0  0  0  0  0  0  0  0  0  0  0  0
   22.0550   -7.3643  -22.7284 C   0  0  0  0  0  0  0  0  0  0  0  0
   22.6802   -7.3667  -23.9463 C   0  0  0  0  0  0  0  0  0  0  0  0
   23.6590   -6.4347  -24.2406 C   0  0  0  0  0  0  0  0  0  0  0  0
   23.9781   -5.5108  -23.2710 C   0  0  0  0  0  0  0  0  0  0  0  0
   23.3294   -5.5237  -22.0362 C   0  0  0  0  0  0  0  0  0  0  0  0
   21.8014   -6.9080  -18.0621 C   0  0  0  0  0  0  0  0  0  0  0  0
   20.7750   -7.4824  -17.6302 O   0  0  0  0  0  0  0  0  0  0  0  0
   22.4271   -5.9526  -17.2217 N   0  0  0  0  0  0  0  0  0  0  0  0
   21.8313   -5.7129  -15.9121 C   0  0  1  0  0  0  0  0  0  0  0  0
   22.8914   -5.8472  -14.8399 C   0  0  0  0  0  0  0  0  0  0  0  0
   23.4120   -7.2249  -14.8223 C   0  0  0  0  0  0  0  0  0  0  0  0
   22.7622   -8.2391  -14.1243 C   0  0  0  0  0  0  0  0  0  0  0  0
   23.1944   -9.5480  -14.1068 C   0  0  0  0  0  0  0  0  0  0  0  0
   24.3260   -9.8825  -14.8102 C   0  0  0  0  0  0  0  0  0  0  0  0
   25.0108   -8.8895  -15.5254 C   0  0  0  0  0  0  0  0  0  0  0  0
   24.5523   -7.5949  -15.5229 C   0  0  0  0  0  0  0  0  0  0  0  0
   21.2702   -4.3677  -15.8901 C   0  0  0  0  0  0  0  0  0  0  0  0
   21.3618   -3.4554  -16.9246 O   0  0  0  0  0  0  0  0  0  0  0  0
   20.6442   -3.9728  -14.8500 O   0  0  0  0  0  0  0  0  0  0  0  0
  2  1  1  0
  3  2  2  0
  4  2  1  0
  5  4  1  0
  6  5  1  0
  6  7  1  1
  8  6  1  0
  8  9  2  0
 10  8  1  0
 11 10  1  0
 11 12  1  6
 12 13  1  0
 13 14  2  0
 13 18  1  0
 14 15  1  0
 15 16  2  0
 17 16  1  0
 18 17  2  0
 19 11  1  0
 20 19  2  0
 21 19  1  0
 22 21  1  0
 22 23  1  1
 23 24  1  0
 24 29  1  0
 25 24  2  0
 25 26  1  0
 26 27  2  0
 27 28  1  0
 29 28  2  0
 30 31  1  0
 30 22  1  0
 32 30  2  0
M  END
$$$$
