QFF.pdb
     RDKit          3D

 32 33  0  0  1  0  0  0  0  0999 V2000
   28.1564  -19.3934  -17.4483 N   0  0  0  0  0  0  0  0  0  0  0  0
   28.6869  -18.2219  -16.8411 C   0  0  0  0  0  0  0  0  0  0  0  0
   29.4519  -17.5440  -17.6095 O   0  0  0  0  0  0  0  0  0  0  0  0
   28.4012  -17.7971  -15.4565 C   0  0  0  0  0  0  0  0  0  0  0  0
   27.4557  -18.6659  -14.7226 C   0  0  0  0  0  0  0  0  0  0  0  0
   28.0274  -19.6591  -13.7706 C   0  0  2  0  0  0  0  0  0  0  0  0
   28.9559  -20.5565  -14.4167 N   0  0  0  0  0  0  0  0  0  0  0  0
   27.0102  -20.4605  -13.0662 C   0  0  0  0  0  0  0  0  0  0  0  0
   26.6408  -21.5640  -13.5415 O   0  0  0  0  0  0  0  0  0  0  0  0
   26.3860  -20.0993  -11.8613 N   0  0  0  0  0  0  0  0  0  0  0  0
   25.4124  -20.8884  -11.1597 C   0  0  1  0  0  0  0  0  0  0  0  0
   25.2131  -20.5562   -9.7410 C   0  0  0  0  0  0  0  0  0  0  0  0
   26.4603  -20.5504   -8.9675 C   0  0  0  0  0  0  0  0  0  0  0  0
   27.5371  -21.3273   -9.4038 C   0  0  0  0  0  0  0  0  0  0  0  0
   28.7459  -21.3594   -8.7619 C   0  0  0  0  0  0  0  0  0  0  0  0
   28.9616  -20.6056   -7.6223 C   0  0  0  0  0  0  0  0  0  0  0  0
   27.9237  -19.8271   -7.1616 C   0  0  0  0  0  0  0  0  0  0  0  0
   26.6995  -19.8068   -7.8298 C   0  0  0  0  0  0  0  0  0  0  0  0
   24.1524  -20.8284  -11.9189 C   0  0  0  0  0  0  0  0  0  0  0  0
   23.7030  -19.7108  -12.2635 O   0  0  0  0  0  0  0  0  0  0  0  0
   23.4126  -21.9805  -12.2877 N   0  0  0  0  0  0  0  0  0  0  0  0
   22.1871  -21.7791  -13.0526 C   0  0  1  0  0  0  0  0  0  0  0  0
   21.8136  -23.0641  -13.7604 C   0  0  0  0  0  0  0  0  0  0  0  0
   20.5648  -22.8723  -14.5174 C   0  0  0  0  0  0  0  0  0  0  0  0
   19.3480  -23.3600  -14.0489 C   0  0  0  0  0  0  0  0  0  0  0  0
   18.1507  -23.1758  -14.7067 C   0  0  0  0  0  0  0  0  0  0  0  0
   18.1442  -22.4768  -15.8894 C   0  0  0  0  0  0  0  0  0  0  0  0
   19.3494  -21.9701  -16.3964 C   0  0  0  0  0  0  0  0  0  0  0  0
   20.5249  -22.1705  -15.7149 C   0  0  0  0  0  0  0  0  0  0  0  0
   21.1214  -21.3878  -12.1383 C   0  0  0  0  0  0  0  0  0  0  0  0
   20.9902  -21.8372  -10.8376 O   0  0  0  0  0  0  0  0  0  0  0  0
   20.2255  -20.5725  -12.5411 O   0  0  0  0  0  0  0  0  0  0  0  0
  2  1  1  0
  3  2  2  0
  4  2  1  0
  5  4  1  0
  6  5  1  0
  6  7  1  6
  8  6  1  0
  8  9  2  0
 10  8  1  0
 11 10  1  0
 11 12  1  1
 12 13  1  0
 13 14  2  0
 13 18  1  0
 14 15  1  0
 15 16  2  0
 17 16  1  0
 18 17  2  0
 19 11  1  0
 20 19  2  0
 21 19  1  0
 22 21  1  0
 22 23  1  1
 23 24  1  0
 24 29  1  0
 25 24  2  0
 25 26  1  0
 26 27  2  0
 27 28  1  0
 29 28  2  0
 30 31  1  0
 30 22  1  0
 32 30  2  0
M  END
$$$$
