QFF.pdb
     RDKit          3D

 32 33  0  0  1  0  0  0  0  0999 V2000
   27.4419  -22.8472  -19.1908 N   0  0  0  0  0  0  0  0  0  0  0  0
   28.4417  -21.8404  -19.0948 C   0  0  0  0  0  0  0  0  0  0  0  0
   29.2054  -21.7725  -20.1182 O   0  0  0  0  0  0  0  0  0  0  0  0
   28.6103  -20.9395  -17.9375 C   0  0  0  0  0  0  0  0  0  0  0  0
   27.6462  -21.1549  -16.8368 C   0  0  0  0  0  0  0  0  0  0  0  0
   28.1963  -21.4779  -15.4906 C   0  0  2  0  0  0  0  0  0  0  0  0
   28.9705  -22.6967  -15.4999 N   0  0  0  0  0  0  0  0  0  0  0  0
   27.1693  -21.5801  -14.4380 C   0  0  0  0  0  0  0  0  0  0  0  0
   26.4714  -22.6210  -14.3410 O   0  0  0  0  0  0  0  0  0  0  0  0
   26.8810  -20.5868  -13.4882 N   0  0  0  0  0  0  0  0  0  0  0  0
   25.9475  -20.7179  -12.4046 C   0  0  1  0  0  0  0  0  0  0  0  0
   26.1667  -19.8304  -11.2526 C   0  0  0  0  0  0  0  0  0  0  0  0
   27.2349  -20.2946  -10.3597 C   0  0  0  0  0  0  0  0  0  0  0  0
   28.4487  -20.7161  -10.9099 C   0  0  0  0  0  0  0  0  0  0  0  0
   29.5085  -21.1362  -10.1519 C   0  0  0  0  0  0  0  0  0  0  0  0
   29.4237  -21.1641   -8.7716 C   0  0  0  0  0  0  0  0  0  0  0  0
   28.2432  -20.7560   -8.1925 C   0  0  0  0  0  0  0  0  0  0  0  0
   27.1745  -20.3304   -8.9815 C   0  0  0  0  0  0  0  0  0  0  0  0
   24.5913  -20.5721  -12.9586 C   0  0  0  0  0  0  0  0  0  0  0  0
   24.3271  -19.5707  -13.6638 O   0  0  0  0  0  0  0  0  0  0  0  0
   23.5564  -21.5156  -12.7367 N   0  0  0  0  0  0  0  0  0  0  0  0
   22.2632  -21.2580  -13.3603 C   0  0  1  0  0  0  0  0  0  0  0  0
   21.8787  -22.4320  -14.2352 C   0  0  0  0  0  0  0  0  0  0  0  0
   20.5425  -22.2076  -14.8128 C   0  0  0  0  0  0  0  0  0  0  0  0
   20.3647  -21.4315  -15.9547 C   0  0  0  0  0  0  0  0  0  0  0  0
   19.1384  -21.2216  -16.5483 C   0  0  0  0  0  0  0  0  0  0  0  0
   18.0243  -21.8023  -15.9927 C   0  0  0  0  0  0  0  0  0  0  0  0
   18.1605  -22.5905  -14.8410 C   0  0  0  0  0  0  0  0  0  0  0  0
   19.3974  -22.7804  -14.2753 C   0  0  0  0  0  0  0  0  0  0  0  0
   21.2659  -21.0706  -12.3139 C   0  0  0  0  0  0  0  0  0  0  0  0
   20.1953  -20.1993  -12.3883 O   0  0  0  0  0  0  0  0  0  0  0  0
   21.3634  -21.7457  -11.2348 O   0  0  0  0  0  0  0  0  0  0  0  0
  2  1  1  0
  3  2  2  0
  4  2  1  0
  5  4  1  0
  6  5  1  0
  6  7  1  6
  8  6  1  0
  8  9  2  0
 10  8  1  0
 11 10  1  0
 11 12  1  1
 12 13  1  0
 13 14  2  0
 13 18  1  0
 14 15  1  0
 15 16  2  0
 17 16  1  0
 18 17  2  0
 19 11  1  0
 20 19  2  0
 21 19  1  0
 22 21  1  0
 22 23  1  6
 23 24  1  0
 24 29  1  0
 25 24  2  0
 25 26  1  0
 26 27  2  0
 27 28  1  0
 29 28  2  0
 30 31  1  0
 30 22  1  0
 32 30  2  0
M  END
$$$$
