QFF.pdb
     RDKit          3D

 32 33  0  0  1  0  0  0  0  0999 V2000
   28.5183  -26.4699  -17.0118 N   0  0  0  0  0  0  0  0  0  0  0  0
   27.9756  -25.7248  -18.0948 C   0  0  0  0  0  0  0  0  0  0  0  0
   27.0191  -26.3186  -18.7012 O   0  0  0  0  0  0  0  0  0  0  0  0
   28.4469  -24.3879  -18.5071 C   0  0  0  0  0  0  0  0  0  0  0  0
   28.5584  -23.4027  -17.4097 C   0  0  0  0  0  0  0  0  0  0  0  0
   27.3052  -22.7487  -16.9393 C   0  0  2  0  0  0  0  0  0  0  0  0
   26.7619  -21.8458  -17.9265 N   0  0  0  0  0  0  0  0  0  0  0  0
   27.4569  -22.0199  -15.6669 C   0  0  0  0  0  0  0  0  0  0  0  0
   28.4228  -22.2802  -14.9058 O   0  0  0  0  0  0  0  0  0  0  0  0
   26.5925  -21.0167  -15.1999 N   0  0  0  0  0  0  0  0  0  0  0  0
   26.7576  -20.2785  -13.9789 C   0  0  1  0  0  0  0  0  0  0  0  0
   26.6819  -18.8143  -14.0945 C   0  0  0  0  0  0  0  0  0  0  0  0
   27.5298  -18.2738  -15.1634 C   0  0  0  0  0  0  0  0  0  0  0  0
   28.9196  -18.3569  -15.0395 C   0  0  0  0  0  0  0  0  0  0  0  0
   29.7851  -17.9062  -15.9997 C   0  0  0  0  0  0  0  0  0  0  0  0
   29.3113  -17.3324  -17.1656 C   0  0  0  0  0  0  0  0  0  0  0  0
   27.9474  -17.2330  -17.3241 C   0  0  0  0  0  0  0  0  0  0  0  0
   27.0811  -17.6987  -16.3349 C   0  0  0  0  0  0  0  0  0  0  0  0
   25.7889  -20.8020  -13.0017 C   0  0  0  0  0  0  0  0  0  0  0  0
   24.6407  -21.1163  -13.3925 O   0  0  0  0  0  0  0  0  0  0  0  0
   26.0891  -20.9741  -11.6267 N   0  0  0  0  0  0  0  0  0  0  0  0
   25.0210  -21.4559  -10.7579 C   0  0  1  0  0  0  0  0  0  0  0  0
   25.6186  -22.0474   -9.4991 C   0  0  0  0  0  0  0  0  0  0  0  0
   26.4992  -21.0595   -8.8526 C   0  0  0  0  0  0  0  0  0  0  0  0
   27.8789  -21.0849   -9.0360 C   0  0  0  0  0  0  0  0  0  0  0  0
   28.7375  -20.1621   -8.4779 C   0  0  0  0  0  0  0  0  0  0  0  0
   28.2170  -19.1597   -7.6959 C   0  0  0  0  0  0  0  0  0  0  0  0
   26.8320  -19.0997   -7.4851 C   0  0  0  0  0  0  0  0  0  0  0  0
   26.0043  -20.0345   -8.0571 C   0  0  0  0  0  0  0  0  0  0  0  0
   24.1519  -20.3366  -10.4167 C   0  0  0  0  0  0  0  0  0  0  0  0
   22.9240  -20.4503   -9.7920 O   0  0  0  0  0  0  0  0  0  0  0  0
   24.5240  -19.1503  -10.7066 O   0  0  0  0  0  0  0  0  0  0  0  0
  2  1  1  0
  3  2  2  0
  4  2  1  0
  5  4  1  0
  6  5  1  0
  6  7  1  6
  8  6  1  0
  8  9  2  0
 10  8  1  0
 11 10  1  0
 11 12  1  6
 12 13  1  0
 13 14  2  0
 13 18  1  0
 14 15  1  0
 15 16  2  0
 17 16  1  0
 18 17  2  0
 19 11  1  0
 20 19  2  0
 21 19  1  0
 22 21  1  0
 22 23  1  1
 23 24  1  0
 24 29  1  0
 25 24  2  0
 25 26  1  0
 26 27  2  0
 27 28  1  0
 29 28  2  0
 30 31  1  0
 30 22  1  0
 32 30  2  0
M  END
$$$$
