QFF.pdb
     RDKit          3D

 32 33  0  0  1  0  0  0  0  0999 V2000
   19.4058  -11.5041  -17.5843 N   0  0  0  0  0  0  0  0  0  0  0  0
   18.5481  -12.1784  -18.4965 C   0  0  0  0  0  0  0  0  0  0  0  0
   17.3051  -12.0557  -18.2226 O   0  0  0  0  0  0  0  0  0  0  0  0
   19.0147  -12.9552  -19.6620 C   0  0  0  0  0  0  0  0  0  0  0  0
   20.4818  -12.9747  -19.8486 C   0  0  0  0  0  0  0  0  0  0  0  0
   21.0797  -11.9310  -20.7275 C   0  0  2  0  0  0  0  0  0  0  0  0
   21.8216  -12.5065  -21.8245 N   0  0  0  0  0  0  0  0  0  0  0  0
   21.9539  -10.9827  -20.0135 C   0  0  0  0  0  0  0  0  0  0  0  0
   23.1026  -11.3402  -19.6492 O   0  0  0  0  0  0  0  0  0  0  0  0
   21.6176   -9.6591  -19.6869 N   0  0  0  0  0  0  0  0  0  0  0  0
   22.4965   -8.7056  -19.0695 C   0  0  1  0  0  0  0  0  0  0  0  0
   22.9893   -7.6254  -19.9375 C   0  0  0  0  0  0  0  0  0  0  0  0
   21.9351   -7.0134  -20.7546 C   0  0  0  0  0  0  0  0  0  0  0  0
   21.3080   -5.8501  -20.2994 C   0  0  0  0  0  0  0  0  0  0  0  0
   20.3369   -5.1963  -21.0091 C   0  0  0  0  0  0  0  0  0  0  0  0
   19.9208   -5.6700  -22.2402 C   0  0  0  0  0  0  0  0  0  0  0  0
   20.5156   -6.8143  -22.7223 C   0  0  0  0  0  0  0  0  0  0  0  0
   21.5041   -7.4661  -21.9849 C   0  0  0  0  0  0  0  0  0  0  0  0
   21.8212   -8.1808  -17.8712 C   0  0  0  0  0  0  0  0  0  0  0  0
   20.5789   -8.0196  -17.8950 O   0  0  0  0  0  0  0  0  0  0  0  0
   22.5082   -7.8464  -16.6767 N   0  0  0  0  0  0  0  0  0  0  0  0
   21.7292   -7.2603  -15.5917 C   0  0  1  0  0  0  0  0  0  0  0  0
   22.1349   -7.8917  -14.2771 C   0  0  0  0  0  0  0  0  0  0  0  0
   23.4866   -8.4649  -14.3946 C   0  0  0  0  0  0  0  0  0  0  0  0
   24.6178   -7.6553  -14.4476 C   0  0  0  0  0  0  0  0  0  0  0  0
   25.9029   -8.1481  -14.5243 C   0  0  0  0  0  0  0  0  0  0  0  0
   26.0912   -9.5086  -14.5523 C   0  0  0  0  0  0  0  0  0  0  0  0
   24.9773  -10.3590  -14.5024 C   0  0  0  0  0  0  0  0  0  0  0  0
   23.7102   -9.8350  -14.4249 C   0  0  0  0  0  0  0  0  0  0  0  0
   21.9829   -5.8255  -15.5528 C   0  0  0  0  0  0  0  0  0  0  0  0
   21.3339   -4.9295  -14.7240 O   0  0  0  0  0  0  0  0  0  0  0  0
   22.8628   -5.3289  -16.3331 O   0  0  0  0  0  0  0  0  0  0  0  0
  2  1  1  0
  3  2  2  0
  4  2  1  0
  5  4  1  0
  6  5  1  0
  6  7  1  6
  8  6  1  0
  8  9  2  0
 10  8  1  0
 11 10  1  0
 11 12  1  6
 12 13  1  0
 13 14  2  0
 13 18  1  0
 14 15  1  0
 15 16  2  0
 17 16  1  0
 18 17  2  0
 19 11  1  0
 20 19  2  0
 21 19  1  0
 22 21  1  0
 22 23  1  1
 23 24  1  0
 24 29  1  0
 25 24  2  0
 25 26  1  0
 26 27  2  0
 27 28  1  0
 29 28  2  0
 30 31  1  0
 30 22  1  0
 32 30  2  0
M  END
$$$$
