QFF.pdb
     RDKit          3D

 32 33  0  0  1  0  0  0  0  0999 V2000
   25.2378  -21.2371  -15.7432 N   0  0  0  0  0  0  0  0  0  0  0  0
   26.1142  -20.1992  -16.1640 C   0  0  0  0  0  0  0  0  0  0  0  0
   25.8522  -19.7439  -17.3299 O   0  0  0  0  0  0  0  0  0  0  0  0
   27.2312  -19.6713  -15.3560 C   0  0  0  0  0  0  0  0  0  0  0  0
   27.3147  -20.2131  -13.9823 C   0  0  0  0  0  0  0  0  0  0  0  0
   26.7203  -19.4020  -12.8831 C   0  0  2  0  0  0  0  0  0  0  0  0
   27.0925  -18.0099  -12.9749 N   0  0  0  0  0  0  0  0  0  0  0  0
   27.0574  -19.8919  -11.5342 C   0  0  0  0  0  0  0  0  0  0  0  0
   27.1976  -21.1244  -11.3310 O   0  0  0  0  0  0  0  0  0  0  0  0
   27.2488  -19.0827  -10.4027 N   0  0  0  0  0  0  0  0  0  0  0  0
   27.3667  -19.5560   -9.0518 C   0  0  1  0  0  0  0  0  0  0  0  0
   28.2450  -18.7745   -8.1682 C   0  0  0  0  0  0  0  0  0  0  0  0
   28.1983  -19.2152   -6.7692 C   0  0  0  0  0  0  0  0  0  0  0  0
   28.9284  -20.3433   -6.3847 C   0  0  0  0  0  0  0  0  0  0  0  0
   28.9664  -20.8075   -5.0973 C   0  0  0  0  0  0  0  0  0  0  0  0
   28.2652  -20.1650   -4.0929 C   0  0  0  0  0  0  0  0  0  0  0  0
   27.5338  -19.0493   -4.4331 C   0  0  0  0  0  0  0  0  0  0  0  0
   27.5080  -18.5909   -5.7503 C   0  0  0  0  0  0  0  0  0  0  0  0
   26.0080  -19.6848   -8.4997 C   0  0  0  0  0  0  0  0  0  0  0  0
   25.2262  -18.7086   -8.5748 O   0  0  0  0  0  0  0  0  0  0  0  0
   25.5299  -20.8684   -7.8824 N   0  0  0  0  0  0  0  0  0  0  0  0
   24.1880  -20.8369   -7.3114 C   0  0  1  0  0  0  0  0  0  0  0  0
   23.1746  -21.1973   -8.3767 C   0  0  0  0  0  0  0  0  0  0  0  0
   23.7485  -22.1965   -9.2941 C   0  0  0  0  0  0  0  0  0  0  0  0
   23.7929  -23.5477   -8.9623 C   0  0  0  0  0  0  0  0  0  0  0  0
   24.2903  -24.5212   -9.8021 C   0  0  0  0  0  0  0  0  0  0  0  0
   24.7722  -24.1514  -11.0343 C   0  0  0  0  0  0  0  0  0  0  0  0
   24.7468  -22.7996  -11.4062 C   0  0  0  0  0  0  0  0  0  0  0  0
   24.2432  -21.8550  -10.5458 C   0  0  0  0  0  0  0  0  0  0  0  0
   24.1204  -21.7967   -6.2165 C   0  0  0  0  0  0  0  0  0  0  0  0
   24.1976  -23.1692   -6.3618 O   0  0  0  0  0  0  0  0  0  0  0  0
   23.9764  -21.3681   -5.0227 O   0  0  0  0  0  0  0  0  0  0  0  0
  2  1  1  0
  3  2  2  0
  4  2  1  0
  5  4  1  0
  6  5  1  0
  6  7  1  1
  8  6  1  0
  8  9  2  0
 10  8  1  0
 11 10  1  0
 11 12  1  1
 12 13  1  0
 13 14  2  0
 13 18  1  0
 14 15  1  0
 15 16  2  0
 17 16  1  0
 18 17  2  0
 19 11  1  0
 20 19  2  0
 21 19  1  0
 22 21  1  0
 22 23  1  6
 23 24  1  0
 24 29  1  0
 25 24  2  0
 25 26  1  0
 26 27  2  0
 27 28  1  0
 29 28  2  0
 30 31  1  0
 30 22  1  0
 32 30  2  0
M  END
$$$$
