NTG.pdb
     RDKit          3D

 20 19  0  0  1  0  0  0  0  0999 V2000
   17.9303  -15.3161  -16.5829 N   0  0  0  0  0  0  0  0  0  0  0  0
   18.1721  -14.1429  -15.8484 C   0  0  0  0  0  0  0  0  0  0  0  0
   17.3166  -13.8429  -14.9464 O   0  0  0  0  0  0  0  0  0  0  0  0
   19.3623  -13.2686  -16.0874 C   0  0  0  0  0  0  0  0  0  0  0  0
   18.8967  -11.8312  -16.0847 C   0  0  2  0  0  0  0  0  0  0  0  0
   17.9373  -11.5885  -17.1172 N   0  0  0  0  0  0  0  0  0  0  0  0
   20.0215  -10.8740  -16.1046 C   0  0  0  0  0  0  0  0  0  0  0  0
   21.1665  -11.2494  -15.7935 O   0  0  0  0  0  0  0  0  0  0  0  0
   21.5620   -8.9255  -18.8962 C   0  0  0  0  0  0  0  0  0  0  0  0
   21.1980   -7.9091  -17.8256 C   0  0  1  0  0  0  0  0  0  0  0  0
   19.9767   -7.3489  -18.2598 O   0  0  0  0  0  0  0  0  0  0  0  0
   20.9151   -8.5443  -16.5091 C   0  0  2  0  0  0  0  0  0  0  0  0
   19.8904   -9.5085  -16.4649 N   0  0  0  0  0  0  0  0  0  0  0  0
   20.5542   -7.4384  -15.5514 C   0  0  0  0  0  0  0  0  0  0  0  0
   19.3335   -7.3163  -15.2767 O   0  0  0  0  0  0  0  0  0  0  0  0
   21.5213   -6.5903  -14.9949 N   0  0  0  0  0  0  0  0  0  0  0  0
   21.1199   -5.5485  -14.0827 C   0  0  0  0  0  0  0  0  0  0  0  0
   22.2337   -4.6565  -13.7249 C   0  0  0  0  0  0  0  0  0  0  0  0
   23.4090   -4.8768  -14.1104 O   0  0  0  0  0  0  0  0  0  0  0  0
   21.9941   -3.5458  -12.9460 O   0  0  0  0  0  0  0  0  0  0  0  0
  2  1  1  0
  3  2  2  0
  4  2  1  0
  5  4  1  0
  5  6  1  6
  7  5  1  0
  8  7  2  0
 10  9  1  6
 10 12  1  0
 11 10  1  0
 12 14  1  0
 12 13  1  6
 13  7  1  0
 14 16  1  0
 15 14  2  0
 16 17  1  0
 18 17  1  0
 18 20  1  0
 19 18  2  0
M  END
$$$$
