NTG.pdb
     RDKit          3D

 20 19  0  0  1  0  0  0  0  0999 V2000
   18.9811  -15.0779  -15.4499 N   0  0  0  0  0  0  0  0  0  0  0  0
   20.2262  -14.7563  -16.0162 C   0  0  0  0  0  0  0  0  0  0  0  0
   21.0914  -15.6963  -16.0738 O   0  0  0  0  0  0  0  0  0  0  0  0
   20.5519  -13.3912  -16.5344 C   0  0  0  0  0  0  0  0  0  0  0  0
   19.3094  -12.5387  -16.4245 C   0  0  2  0  0  0  0  0  0  0  0  0
   18.2325  -13.0789  -17.1951 N   0  0  0  0  0  0  0  0  0  0  0  0
   19.5739  -11.1157  -16.7192 C   0  0  0  0  0  0  0  0  0  0  0  0
   20.0027  -10.7789  -17.8379 O   0  0  0  0  0  0  0  0  0  0  0  0
   17.0510   -8.4228  -16.6915 C   0  0  0  0  0  0  0  0  0  0  0  0
   18.2117   -7.8800  -15.8731 C   0  0  1  0  0  0  0  0  0  0  0  0
   17.8166   -8.0509  -14.5283 O   0  0  0  0  0  0  0  0  0  0  0  0
   19.4539   -8.6830  -16.0430 C   0  0  2  0  0  0  0  0  0  0  0  0
   19.3684  -10.0649  -15.7890 N   0  0  0  0  0  0  0  0  0  0  0  0
   20.4879   -8.1026  -15.1133 C   0  0  0  0  0  0  0  0  0  0  0  0
   20.5779   -8.6359  -13.9784 O   0  0  0  0  0  0  0  0  0  0  0  0
   21.3064   -7.0284  -15.4876 N   0  0  0  0  0  0  0  0  0  0  0  0
   22.3722   -6.6027  -14.6150 C   0  0  0  0  0  0  0  0  0  0  0  0
   21.9425   -5.5574  -13.6733 C   0  0  0  0  0  0  0  0  0  0  0  0
   20.7431   -5.1922  -13.5909 O   0  0  0  0  0  0  0  0  0  0  0  0
   22.8715   -4.9546  -12.8538 O   0  0  0  0  0  0  0  0  0  0  0  0
  2  1  1  0
  3  2  2  0
  4  2  1  0
  5  4  1  0
  5  6  1  6
  7  5  1  0
  8  7  2  0
 10  9  1  6
 10 12  1  0
 11 10  1  0
 12 14  1  0
 12 13  1  1
 13  7  1  0
 14 16  1  0
 15 14  2  0
 16 17  1  0
 18 17  1  0
 18 20  1  0
 19 18  2  0
M  END
$$$$
