NTG.pdb
     RDKit          3D

 20 19  0  0  1  0  0  0  0  0999 V2000
   17.2862  -12.2690  -16.8800 N   0  0  0  0  0  0  0  0  0  0  0  0
   17.2202  -12.2113  -15.4776 C   0  0  0  0  0  0  0  0  0  0  0  0
   16.3705  -12.9803  -14.9101 O   0  0  0  0  0  0  0  0  0  0  0  0
   18.0880  -11.3054  -14.6625 C   0  0  0  0  0  0  0  0  0  0  0  0
   18.9868  -10.5418  -15.6069 C   0  0  2  0  0  0  0  0  0  0  0  0
   19.7433  -11.4243  -16.4401 N   0  0  0  0  0  0  0  0  0  0  0  0
   19.8254   -9.5473  -14.9071 C   0  0  0  0  0  0  0  0  0  0  0  0
   19.7493   -9.4256  -13.6709 O   0  0  0  0  0  0  0  0  0  0  0  0
   23.6133   -9.4020  -15.0042 C   0  0  0  0  0  0  0  0  0  0  0  0
   23.1075   -8.0008  -15.3087 C   0  0  1  0  0  0  0  0  0  0  0  0
   23.1785   -7.8889  -16.7145 O   0  0  0  0  0  0  0  0  0  0  0  0
   21.6728   -7.8228  -14.9530 C   0  0  2  0  0  0  0  0  0  0  0  0
   20.7449   -8.6887  -15.5618 N   0  0  0  0  0  0  0  0  0  0  0  0
   21.2977   -6.4095  -15.3169 C   0  0  0  0  0  0  0  0  0  0  0  0
   20.7223   -6.2538  -16.4238 O   0  0  0  0  0  0  0  0  0  0  0  0
   21.5725   -5.3253  -14.4724 N   0  0  0  0  0  0  0  0  0  0  0  0
   21.2621   -3.9852  -14.9041 C   0  0  0  0  0  0  0  0  0  0  0  0
   21.5550   -2.9808  -13.8700 C   0  0  0  0  0  0  0  0  0  0  0  0
   21.4542   -1.7488  -14.0954 O   0  0  0  0  0  0  0  0  0  0  0  0
   21.9518   -3.3898  -12.6157 O   0  0  0  0  0  0  0  0  0  0  0  0
  2  1  1  0
  3  2  2  0
  4  2  1  0
  5  4  1  0
  5  6  1  1
  7  5  1  0
  8  7  2  0
 10  9  1  6
 10 12  1  0
 11 10  1  0
 12 14  1  0
 12 13  1  6
 13  7  1  0
 14 16  1  0
 15 14  2  0
 16 17  1  0
 18 17  1  0
 18 20  1  0
 19 18  2  0
M  END
$$$$
