NTG.pdb
     RDKit          3D

 20 19  0  0  1  0  0  0  0  0999 V2000
   24.4917  -13.1988  -17.7092 N   0  0  0  0  0  0  0  0  0  0  0  0
   23.1024  -13.2037  -17.9197 C   0  0  0  0  0  0  0  0  0  0  0  0
   22.5461  -14.3469  -18.0576 O   0  0  0  0  0  0  0  0  0  0  0  0
   22.2885  -11.9500  -17.9840 C   0  0  0  0  0  0  0  0  0  0  0  0
   22.9907  -10.8922  -17.1650 C   0  0  2  0  0  0  0  0  0  0  0  0
   23.4955  -11.4273  -15.9385 N   0  0  0  0  0  0  0  0  0  0  0  0
   22.1606   -9.6860  -16.9709 C   0  0  0  0  0  0  0  0  0  0  0  0
   21.6697   -9.1010  -17.9535 O   0  0  0  0  0  0  0  0  0  0  0  0
   18.8337   -9.2368  -15.5676 C   0  0  0  0  0  0  0  0  0  0  0  0
   19.7315   -8.3191  -14.7529 C   0  0  1  0  0  0  0  0  0  0  0  0
   20.0581   -9.0645  -13.5990 O   0  0  0  0  0  0  0  0  0  0  0  0
   21.0224   -8.0308  -15.4364 C   0  0  2  0  0  0  0  0  0  0  0  0
   21.8698   -9.1231  -15.7020 N   0  0  0  0  0  0  0  0  0  0  0  0
   21.7767   -7.0580  -14.5675 C   0  0  0  0  0  0  0  0  0  0  0  0
   22.8130   -7.4986  -14.0085 O   0  0  0  0  0  0  0  0  0  0  0  0
   21.3514   -5.7346  -14.3889 N   0  0  0  0  0  0  0  0  0  0  0  0
   22.1049   -4.8496  -13.5358 C   0  0  0  0  0  0  0  0  0  0  0  0
   21.5982   -3.4690  -13.5726 C   0  0  0  0  0  0  0  0  0  0  0  0
   20.6692   -3.1245  -14.3451 O   0  0  0  0  0  0  0  0  0  0  0  0
   22.1494   -2.5184  -12.7417 O   0  0  0  0  0  0  0  0  0  0  0  0
  2  1  1  0
  3  2  2  0
  4  2  1  0
  5  4  1  0
  5  6  1  1
  7  5  1  0
  8  7  2  0
 10  9  1  6
 10 12  1  0
 11 10  1  0
 12 14  1  0
 12 13  1  1
 13  7  1  0
 14 16  1  0
 15 14  2  0
 16 17  1  0
 18 17  1  0
 18 20  1  0
 19 18  2  0
M  END
$$$$
