NTG.pdb
     RDKit          3D

 20 19  0  0  1  0  0  0  0  0999 V2000
   20.6529  -14.4558  -17.5090 N   0  0  0  0  0  0  0  0  0  0  0  0
   19.8954  -13.4718  -16.8517 C   0  0  0  0  0  0  0  0  0  0  0  0
   18.6554  -13.7268  -16.6702 O   0  0  0  0  0  0  0  0  0  0  0  0
   20.4828  -12.1805  -16.3765 C   0  0  0  0  0  0  0  0  0  0  0  0
   21.9274  -12.1320  -16.8167 C   0  0  2  0  0  0  0  0  0  0  0  0
   22.5966  -13.3691  -16.5578 N   0  0  0  0  0  0  0  0  0  0  0  0
   22.6444  -10.9618  -16.2705 C   0  0  0  0  0  0  0  0  0  0  0  0
   23.1014  -10.9937  -15.1134 O   0  0  0  0  0  0  0  0  0  0  0  0
   25.7747   -9.3235  -17.5141 C   0  0  0  0  0  0  0  0  0  0  0  0
   24.7517   -8.2093  -17.3590 C   0  0  1  0  0  0  0  0  0  0  0  0
   24.2706   -7.9762  -18.6658 O   0  0  0  0  0  0  0  0  0  0  0  0
   23.5713   -8.6273  -16.5536 C   0  0  2  0  0  0  0  0  0  0  0  0
   22.8595   -9.7598  -16.9920 N   0  0  0  0  0  0  0  0  0  0  0  0
   22.6177   -7.4610  -16.5261 C   0  0  0  0  0  0  0  0  0  0  0  0
   21.7102   -7.4634  -17.3962 O   0  0  0  0  0  0  0  0  0  0  0  0
   22.7312   -6.4284  -15.5854 N   0  0  0  0  0  0  0  0  0  0  0  0
   21.8065   -5.3227  -15.6212 C   0  0  0  0  0  0  0  0  0  0  0  0
   22.1308   -4.2880  -14.6270 C   0  0  0  0  0  0  0  0  0  0  0  0
   23.0700   -4.4304  -13.8047 O   0  0  0  0  0  0  0  0  0  0  0  0
   21.3914   -3.1263  -14.5866 O   0  0  0  0  0  0  0  0  0  0  0  0
  2  1  1  0
  3  2  2  0
  4  2  1  0
  5  4  1  0
  5  6  1  1
  7  5  1  0
  8  7  2  0
 10  9  1  6
 10 12  1  0
 11 10  1  0
 12 14  1  0
 12 13  1  6
 13  7  1  0
 14 16  1  0
 15 14  2  0
 16 17  1  0
 18 17  1  0
 18 20  1  0
 19 18  2  0
M  END
$$$$
