NTG.pdb
     RDKit          3D

 20 19  0  0  1  0  0  0  0  0999 V2000
   15.9718  -11.8394  -16.8307 N   0  0  0  0  0  0  0  0  0  0  0  0
   16.0518  -11.3514  -15.5155 C   0  0  0  0  0  0  0  0  0  0  0  0
   14.9616  -11.3171  -14.8479 O   0  0  0  0  0  0  0  0  0  0  0  0
   17.3343  -10.8881  -14.9001 C   0  0  0  0  0  0  0  0  0  0  0  0
   18.4320  -11.0493  -15.9258 C   0  0  2  0  0  0  0  0  0  0  0  0
   18.5564  -12.4087  -16.3520 N   0  0  0  0  0  0  0  0  0  0  0  0
   19.7125  -10.4647  -15.4779 C   0  0  0  0  0  0  0  0  0  0  0  0
   20.4494  -11.0971  -14.6996 O   0  0  0  0  0  0  0  0  0  0  0  0
   22.5728   -9.5044  -17.6917 C   0  0  0  0  0  0  0  0  0  0  0  0
   22.2985   -8.2992  -16.8062 C   0  0  1  0  0  0  0  0  0  0  0  0
   21.5240   -7.4316  -17.6069 O   0  0  0  0  0  0  0  0  0  0  0  0
   21.4530   -8.6378  -15.6284 C   0  0  2  0  0  0  0  0  0  0  0  0
   20.1833   -9.1896  -15.8831 N   0  0  0  0  0  0  0  0  0  0  0  0
   21.2583   -7.3672  -14.8422 C   0  0  0  0  0  0  0  0  0  0  0  0
   20.1320   -6.8178  -14.9422 O   0  0  0  0  0  0  0  0  0  0  0  0
   22.2728   -6.8237  -14.0425 N   0  0  0  0  0  0  0  0  0  0  0  0
   22.0071   -5.6495  -13.2491 C   0  0  0  0  0  0  0  0  0  0  0  0
   21.9593   -4.4234  -14.0605 C   0  0  0  0  0  0  0  0  0  0  0  0
   22.1334   -4.4449  -15.3046 O   0  0  0  0  0  0  0  0  0  0  0  0
   21.7177   -3.2118  -13.4509 O   0  0  0  0  0  0  0  0  0  0  0  0
  2  1  1  0
  3  2  2  0
  4  2  1  0
  5  4  1  0
  5  6  1  1
  7  5  1  0
  8  7  2  0
 10  9  1  6
 10 12  1  0
 11 10  1  0
 12 14  1  0
 12 13  1  6
 13  7  1  0
 14 16  1  0
 15 14  2  0
 16 17  1  0
 18 17  1  0
 18 20  1  0
 19 18  2  0
M  END
$$$$
