ETW.pdb
     RDKit          3D

 31 32  0  0  1  0  0  0  0  0999 V2000
   10.9197  -17.7518   16.9827 N   0  0  0  0  0  0  0  0  0  0  0  0
   10.4184  -18.3147   18.2189 C   0  0  1  0  0  0  0  0  0  0  0  0
   11.3599  -19.3669   18.6912 C   0  0  0  0  0  0  0  0  0  0  0  0
   11.8080  -20.1519   17.4518 C   0  0  0  0  0  0  0  0  0  0  0  0
   13.2670  -19.9893   17.2390 C   0  0  0  0  0  0  0  0  0  0  0  0
   13.7073  -19.5912   16.1494 O   0  0  0  0  0  0  0  0  0  0  0  0
   10.1090  -17.2587   19.1791 C   0  0  0  0  0  0  0  0  0  0  0  0
   10.9131  -16.3010   19.3142 O   0  0  0  0  0  0  0  0  0  0  0  0
   14.1416  -20.2823   18.2584 O   0  0  0  0  0  0  0  0  0  0  0  0
    7.0543  -14.8991   19.5740 C   0  0  0  0  0  0  0  0  0  0  0  0
    7.2273  -15.7606   20.7883 C   0  0  1  0  0  0  0  0  0  0  0  0
    6.3353  -16.8007   20.8604 O   0  0  0  0  0  0  0  0  0  0  0  0
    8.6789  -16.1816   20.9758 C   0  0  2  0  0  0  0  0  0  0  0  0
    8.9404  -17.2320   19.9908 N   0  0  0  0  0  0  0  0  0  0  0  0
    9.0014  -16.6001   22.3341 C   0  0  0  0  0  0  0  0  0  0  0  0
   10.1897  -16.7932   22.6719 O   0  0  0  0  0  0  0  0  0  0  0  0
    7.9725  -16.7896   23.2803 N   0  0  0  0  0  0  0  0  0  0  0  0
    8.0711  -16.3933   24.6880 C   0  0  1  0  0  0  0  0  0  0  0  0
    8.5639  -15.0001   24.7938 C   0  0  0  0  0  0  0  0  0  0  0  0
    8.4618  -14.4052   26.1162 C   0  0  0  0  0  0  0  0  0  0  0  0
    8.9579  -14.8561   27.3347 C   0  0  0  0  0  0  0  0  0  0  0  0
    8.6256  -14.0303   28.3348 N   0  0  0  0  0  0  0  0  0  0  0  0
    7.9111  -13.0245   27.8139 C   0  0  0  0  0  0  0  0  0  0  0  0
    7.3505  -11.9091   28.4411 C   0  0  0  0  0  0  0  0  0  0  0  0
    6.6586  -10.9672   27.7183 C   0  0  0  0  0  0  0  0  0  0  0  0
    6.5408  -11.1693   26.3471 C   0  0  0  0  0  0  0  0  0  0  0  0
    7.0927  -12.2663   25.7379 C   0  0  0  0  0  0  0  0  0  0  0  0
    7.7931  -13.2277   26.4460 C   0  0  0  0  0  0  0  0  0  0  0  0
    6.8814  -16.7765   25.4115 C   0  0  0  0  0  0  0  0  0  0  0  0
    5.6273  -16.6404   24.8893 O   0  0  0  0  0  0  0  0  0  0  0  0
    6.9944  -17.2579   26.5865 O   0  0  0  0  0  0  0  0  0  0  0  0
  2  3  1  0
  2  1  1  6
  3  4  1  0
  4  5  1  0
  5  9  1  0
  6  5  2  0
  7  2  1  0
  8  7  2  0
 11 10  1  6
 11 13  1  0
 12 11  1  0
 13 14  1  6
 14  7  1  0
 15 13  1  0
 15 17  1  0
 16 15  2  0
 18 17  1  0
 18 29  1  0
 18 19  1  6
 20 19  1  0
 20 21  2  0
 22 21  1  0
 23 22  1  0
 24 23  2  0
 25 24  1  0
 26 25  2  0
 26 27  1  0
 27 28  2  0
 28 23  1  0
 28 20  1  0
 29 30  1  0
 31 29  2  0
M  END
$$$$
