ETW.pdb
     RDKit          3D

 31 32  0  0  1  0  0  0  0  0999 V2000
   10.3475  -18.7321   18.4388 N   0  0  0  0  0  0  0  0  0  0  0  0
   11.2246  -17.5886   18.5782 C   0  0  1  0  0  0  0  0  0  0  0  0
   11.5286  -17.0415   17.2274 C   0  0  0  0  0  0  0  0  0  0  0  0
   10.9578  -18.0338   16.2064 C   0  0  0  0  0  0  0  0  0  0  0  0
   11.3692  -17.6533   14.8329 C   0  0  0  0  0  0  0  0  0  0  0  0
   10.9750  -18.3021   13.8514 O   0  0  0  0  0  0  0  0  0  0  0  0
   10.6827  -16.6369   19.5443 C   0  0  0  0  0  0  0  0  0  0  0  0
   11.2992  -15.5606   19.7534 O   0  0  0  0  0  0  0  0  0  0  0  0
   12.1957  -16.5711   14.6438 O   0  0  0  0  0  0  0  0  0  0  0  0
    7.2227  -14.9817   20.0400 C   0  0  0  0  0  0  0  0  0  0  0  0
    7.5701  -15.7816   21.2590 C   0  0  1  0  0  0  0  0  0  0  0  0
    6.8473  -16.9410   21.3845 O   0  0  0  0  0  0  0  0  0  0  0  0
    9.0746  -15.9778   21.3917 C   0  0  2  0  0  0  0  0  0  0  0  0
    9.4834  -16.8408   20.2826 N   0  0  0  0  0  0  0  0  0  0  0  0
    9.4895  -16.5022   22.6867 C   0  0  0  0  0  0  0  0  0  0  0  0
   10.1079  -17.5864   22.7621 O   0  0  0  0  0  0  0  0  0  0  0  0
    9.1966  -15.7881   23.8673 N   0  0  0  0  0  0  0  0  0  0  0  0
    9.5965  -16.2236   25.2085 C   0  0  1  0  0  0  0  0  0  0  0  0
    9.4334  -15.1138   26.1764 C   0  0  0  0  0  0  0  0  0  0  0  0
    8.0649  -14.6711   26.3871 C   0  0  0  0  0  0  0  0  0  0  0  0
    6.8778  -15.3932   26.3280 C   0  0  0  0  0  0  0  0  0  0  0  0
    5.8163  -14.6105   26.5587 N   0  0  0  0  0  0  0  0  0  0  0  0
    6.2645  -13.3671   26.7741 C   0  0  0  0  0  0  0  0  0  0  0  0
    5.5547  -12.2009   27.0708 C   0  0  0  0  0  0  0  0  0  0  0  0
    6.2090  -11.0103   27.2774 C   0  0  0  0  0  0  0  0  0  0  0  0
    7.5965  -11.0149   27.1795 C   0  0  0  0  0  0  0  0  0  0  0  0
    8.2871  -12.1625   26.8874 C   0  0  0  0  0  0  0  0  0  0  0  0
    7.6489  -13.3724   26.6750 C   0  0  0  0  0  0  0  0  0  0  0  0
    9.0299  -17.5158   25.5165 C   0  0  0  0  0  0  0  0  0  0  0  0
    9.5126  -18.3112   26.5156 O   0  0  0  0  0  0  0  0  0  0  0  0
    8.0428  -17.9427   24.8321 O   0  0  0  0  0  0  0  0  0  0  0  0
  2  3  1  0
  2  1  1  6
  3  4  1  0
  4  5  1  0
  5  9  1  0
  6  5  2  0
  7  2  1  0
  8  7  2  0
 11 10  1  6
 11 13  1  0
 12 11  1  0
 13 14  1  6
 14  7  1  0
 15 13  1  0
 15 17  1  0
 16 15  2  0
 18 17  1  0
 18 29  1  0
 18 19  1  1
 20 19  1  0
 20 21  2  0
 22 21  1  0
 23 22  1  0
 24 23  2  0
 25 24  1  0
 26 25  2  0
 26 27  1  0
 27 28  2  0
 28 23  1  0
 28 20  1  0
 29 30  1  0
 31 29  2  0
M  END
$$$$
