ETW.pdb
     RDKit          3D

 31 32  0  0  1  0  0  0  0  0999 V2000
   10.6439  -14.7804   16.6456 N   0  0  0  0  0  0  0  0  0  0  0  0
   10.9635  -15.6255   17.7770 C   0  0  1  0  0  0  0  0  0  0  0  0
   12.4407  -15.7923   17.8575 C   0  0  0  0  0  0  0  0  0  0  0  0
   13.0466  -14.3834   17.8911 C   0  0  0  0  0  0  0  0  0  0  0  0
   14.4541  -14.4392   18.3560 C   0  0  0  0  0  0  0  0  0  0  0  0
   15.3801  -14.6216   17.5504 O   0  0  0  0  0  0  0  0  0  0  0  0
   10.3104  -15.1359   18.9880 C   0  0  0  0  0  0  0  0  0  0  0  0
    9.5454  -14.1406   18.9098 O   0  0  0  0  0  0  0  0  0  0  0  0
   14.7372  -14.2873   19.6927 O   0  0  0  0  0  0  0  0  0  0  0  0
    7.7079  -15.5975   19.5702 C   0  0  0  0  0  0  0  0  0  0  0  0
    8.2112  -16.2681   20.8126 C   0  0  1  0  0  0  0  0  0  0  0  0
    8.3088  -17.6324   20.7041 O   0  0  0  0  0  0  0  0  0  0  0  0
    9.4757  -15.6012   21.3375 C   0  0  2  0  0  0  0  0  0  0  0  0
   10.4788  -15.7135   20.2777 N   0  0  0  0  0  0  0  0  0  0  0  0
    9.9450  -16.1423   22.6069 C   0  0  0  0  0  0  0  0  0  0  0  0
   10.8264  -17.0290   22.6302 O   0  0  0  0  0  0  0  0  0  0  0  0
    9.4075  -15.6676   23.8215 N   0  0  0  0  0  0  0  0  0  0  0  0
    9.9521  -15.9961   25.1421 C   0  0  1  0  0  0  0  0  0  0  0  0
    9.6324  -14.9203   26.1093 C   0  0  0  0  0  0  0  0  0  0  0  0
    8.2179  -14.6192   26.2562 C   0  0  0  0  0  0  0  0  0  0  0  0
    7.1188  -15.4703   26.2156 C   0  0  0  0  0  0  0  0  0  0  0  0
    5.9716  -14.7968   26.3676 N   0  0  0  0  0  0  0  0  0  0  0  0
    6.2750  -13.5003   26.5112 C   0  0  0  0  0  0  0  0  0  0  0  0
    5.4335  -12.4034   26.7125 C   0  0  0  0  0  0  0  0  0  0  0  0
    5.9476  -11.1371   26.8560 C   0  0  0  0  0  0  0  0  0  0  0  0
    7.3298  -10.9945   26.7930 C   0  0  0  0  0  0  0  0  0  0  0  0
    8.1500  -12.0749   26.5947 C   0  0  0  0  0  0  0  0  0  0  0  0
    7.6542  -13.3589   26.4471 C   0  0  0  0  0  0  0  0  0  0  0  0
    9.6577  -17.3665   25.4900 C   0  0  0  0  0  0  0  0  0  0  0  0
   10.3705  -18.0566   26.4278 O   0  0  0  0  0  0  0  0  0  0  0  0
    8.6994  -17.9669   24.9014 O   0  0  0  0  0  0  0  0  0  0  0  0
  2  3  1  0
  2  1  1  6
  3  4  1  0
  4  5  1  0
  5  9  1  0
  6  5  2  0
  7  2  1  0
  8  7  2  0
 11 10  1  6
 11 13  1  0
 12 11  1  0
 13 14  1  6
 14  7  1  0
 15 13  1  0
 15 17  1  0
 16 15  2  0
 18 17  1  0
 18 29  1  0
 18 19  1  1
 20 19  1  0
 20 21  2  0
 22 21  1  0
 23 22  1  0
 24 23  2  0
 25 24  1  0
 26 25  2  0
 26 27  1  0
 27 28  2  0
 28 23  1  0
 28 20  1  0
 29 30  1  0
 31 29  2  0
M  END
$$$$
