ETW.pdb
     RDKit          3D

 31 32  0  0  1  0  0  0  0  0999 V2000
    9.3991  -15.7246   19.5781 N   0  0  0  0  0  0  0  0  0  0  0  0
    8.3274  -16.5421   20.1067 C   0  0  1  0  0  0  0  0  0  0  0  0
    7.7688  -17.3800   19.0102 C   0  0  0  0  0  0  0  0  0  0  0  0
    7.6370  -16.4733   17.7800 C   0  0  0  0  0  0  0  0  0  0  0  0
    7.1453  -17.2517   16.6169 C   0  0  0  0  0  0  0  0  0  0  0  0
    7.5918  -17.0394   15.4788 O   0  0  0  0  0  0  0  0  0  0  0  0
    8.7670  -17.2623   21.2987 C   0  0  0  0  0  0  0  0  0  0  0  0
    7.9502  -18.0076   21.8982 O   0  0  0  0  0  0  0  0  0  0  0  0
    6.1851  -18.2183   16.8001 O   0  0  0  0  0  0  0  0  0  0  0  0
   12.4498  -19.1499   23.9753 C   0  0  0  0  0  0  0  0  0  0  0  0
   11.9149  -18.3846   22.8028 C   0  0  1  0  0  0  0  0  0  0  0  0
   12.0902  -19.0211   21.6000 O   0  0  0  0  0  0  0  0  0  0  0  0
   10.4878  -17.9111   23.0455 C   0  0  2  0  0  0  0  0  0  0  0  0
   10.0790  -17.1819   21.8442 N   0  0  0  0  0  0  0  0  0  0  0  0
   10.3269  -17.1192   24.2584 C   0  0  0  0  0  0  0  0  0  0  0  0
   10.7587  -15.9469   24.3112 O   0  0  0  0  0  0  0  0  0  0  0  0
    9.6801  -17.6707   25.3841 N   0  0  0  0  0  0  0  0  0  0  0  0
    9.5452  -16.9814   26.6706 C   0  0  1  0  0  0  0  0  0  0  0  0
    8.1158  -16.7312   26.9694 C   0  0  0  0  0  0  0  0  0  0  0  0
    7.4719  -15.7355   26.1285 C   0  0  0  0  0  0  0  0  0  0  0  0
    6.6811  -15.9043   24.9970 C   0  0  0  0  0  0  0  0  0  0  0  0
    6.2968  -14.7272   24.4878 N   0  0  0  0  0  0  0  0  0  0  0  0
    6.8144  -13.7607   25.2568 C   0  0  0  0  0  0  0  0  0  0  0  0
    6.6908  -12.3731   25.1510 C   0  0  0  0  0  0  0  0  0  0  0  0
    7.2925  -11.5400   26.0633 C   0  0  0  0  0  0  0  0  0  0  0  0
    8.0239  -12.1314   27.0881 C   0  0  0  0  0  0  0  0  0  0  0  0
    8.1418  -13.4936   27.1858 C   0  0  0  0  0  0  0  0  0  0  0  0
    7.5449  -14.3517   26.2783 C   0  0  0  0  0  0  0  0  0  0  0  0
   10.3759  -17.6048   27.6742 C   0  0  0  0  0  0  0  0  0  0  0  0
   11.1037  -18.7335   27.4289 O   0  0  0  0  0  0  0  0  0  0  0  0
   10.4362  -17.0920   28.8397 O   0  0  0  0  0  0  0  0  0  0  0  0
  2  3  1  0
  2  1  1  6
  3  4  1  0
  4  5  1  0
  5  9  1  0
  6  5  2  0
  7  2  1  0
  8  7  2  0
 11 10  1  1
 11 13  1  0
 12 11  1  0
 13 14  1  6
 14  7  1  0
 15 13  1  0
 15 17  1  0
 16 15  2  0
 18 17  1  0
 18 29  1  0
 18 19  1  1
 20 19  1  0
 20 21  2  0
 22 21  1  0
 23 22  1  0
 24 23  2  0
 25 24  1  0
 26 25  2  0
 26 27  1  0
 27 28  2  0
 28 23  1  0
 28 20  1  0
 29 30  1  0
 31 29  2  0
M  END
$$$$
