ETW.pdb
     RDKit          3D

 31 32  0  0  1  0  0  0  0  0999 V2000
    6.9735  -16.6347   18.4094 N   0  0  0  0  0  0  0  0  0  0  0  0
    8.2436  -16.6059   19.1039 C   0  0  1  0  0  0  0  0  0  0  0  0
    8.8786  -15.2746   18.9011 C   0  0  0  0  0  0  0  0  0  0  0  0
    7.7465  -14.2398   18.8817 C   0  0  0  0  0  0  0  0  0  0  0  0
    8.3027  -12.8703   18.7577 C   0  0  0  0  0  0  0  0  0  0  0  0
    8.4532  -12.1549   19.7604 O   0  0  0  0  0  0  0  0  0  0  0  0
    8.0831  -17.0307   20.4918 C   0  0  0  0  0  0  0  0  0  0  0  0
    6.9512  -16.9369   21.0325 O   0  0  0  0  0  0  0  0  0  0  0  0
    8.6556  -12.3871   17.5199 O   0  0  0  0  0  0  0  0  0  0  0  0
   10.6381  -19.7702   22.1044 C   0  0  0  0  0  0  0  0  0  0  0  0
    9.2681  -19.5190   22.6582 C   0  0  1  0  0  0  0  0  0  0  0  0
    9.0325  -20.1445   23.8565 O   0  0  0  0  0  0  0  0  0  0  0  0
    8.9280  -18.0345   22.6625 C   0  0  2  0  0  0  0  0  0  0  0  0
    9.1344  -17.5540   21.2956 N   0  0  0  0  0  0  0  0  0  0  0  0
    9.6778  -17.2600   23.6434 C   0  0  0  0  0  0  0  0  0  0  0  0
   10.7327  -16.6741   23.3154 O   0  0  0  0  0  0  0  0  0  0  0  0
    9.2172  -17.1647   24.9732 N   0  0  0  0  0  0  0  0  0  0  0  0
    9.9336  -16.4591   26.0397 C   0  0  1  0  0  0  0  0  0  0  0  0
    8.9748  -15.9356   27.0405 C   0  0  0  0  0  0  0  0  0  0  0  0
    7.8123  -15.2583   26.4901 C   0  0  0  0  0  0  0  0  0  0  0  0
    6.6329  -15.7895   25.9791 C   0  0  0  0  0  0  0  0  0  0  0  0
    5.8118  -14.8271   25.5406 N   0  0  0  0  0  0  0  0  0  0  0  0
    6.4156  -13.6496   25.7464 C   0  0  0  0  0  0  0  0  0  0  0  0
    5.9650  -12.3555   25.4743 C   0  0  0  0  0  0  0  0  0  0  0  0
    6.7372  -11.2609   25.7805 C   0  0  0  0  0  0  0  0  0  0  0  0
    7.9764  -11.4936   26.3680 C   0  0  0  0  0  0  0  0  0  0  0  0
    8.4130  -12.7660   26.6318 C   0  0  0  0  0  0  0  0  0  0  0  0
    7.6523  -13.8829   26.3315 C   0  0  0  0  0  0  0  0  0  0  0  0
   11.0699  -17.2293   26.4884 C   0  0  0  0  0  0  0  0  0  0  0  0
   12.0983  -16.6780   27.1971 O   0  0  0  0  0  0  0  0  0  0  0  0
   11.1276  -18.4729   26.2139 O   0  0  0  0  0  0  0  0  0  0  0  0
  2  3  1  0
  2  1  1  1
  3  4  1  0
  4  5  1  0
  5  9  1  0
  6  5  2  0
  7  2  1  0
  8  7  2  0
 11 10  1  1
 11 13  1  0
 12 11  1  0
 13 14  1  6
 14  7  1  0
 15 13  1  0
 15 17  1  0
 16 15  2  0
 18 17  1  0
 18 29  1  0
 18 19  1  1
 20 19  1  0
 20 21  2  0
 22 21  1  0
 23 22  1  0
 24 23  2  0
 25 24  1  0
 26 25  2  0
 26 27  1  0
 27 28  2  0
 28 23  1  0
 28 20  1  0
 29 30  1  0
 31 29  2  0
M  END
$$$$
