ETW.pdb
     RDKit          3D

 31 32  0  0  1  0  0  0  0  0999 V2000
    9.9199  -18.5293   18.4368 N   0  0  0  0  0  0  0  0  0  0  0  0
    9.6636  -18.4744   19.8608 C   0  0  1  0  0  0  0  0  0  0  0  0
   10.6066  -19.3898   20.5602 C   0  0  0  0  0  0  0  0  0  0  0  0
   10.3409  -20.8005   20.0195 C   0  0  0  0  0  0  0  0  0  0  0  0
   11.3039  -21.7657   20.6038 C   0  0  0  0  0  0  0  0  0  0  0  0
   12.1669  -21.3885   21.4117 O   0  0  0  0  0  0  0  0  0  0  0  0
    9.6514  -17.0916   20.3303 C   0  0  0  0  0  0  0  0  0  0  0  0
   10.5007  -16.2838   19.8739 O   0  0  0  0  0  0  0  0  0  0  0  0
   11.2409  -23.0921   20.2478 O   0  0  0  0  0  0  0  0  0  0  0  0
    7.1993  -14.1841   20.0865 C   0  0  0  0  0  0  0  0  0  0  0  0
    7.3716  -14.6195   21.5104 C   0  0  1  0  0  0  0  0  0  0  0  0
    6.3534  -15.4144   21.9730 O   0  0  0  0  0  0  0  0  0  0  0  0
    8.7604  -15.1936   21.7576 C   0  0  2  0  0  0  0  0  0  0  0  0
    8.7305  -16.5789   21.2865 N   0  0  0  0  0  0  0  0  0  0  0  0
    9.2056  -15.0863   23.1413 C   0  0  0  0  0  0  0  0  0  0  0  0
    9.4448  -13.9668   23.6445 O   0  0  0  0  0  0  0  0  0  0  0  0
    9.3693  -16.2475   23.9251 N   0  0  0  0  0  0  0  0  0  0  0  0
    9.8712  -16.2421   25.3022 C   0  0  1  0  0  0  0  0  0  0  0  0
    8.7609  -16.4868   26.2522 C   0  0  0  0  0  0  0  0  0  0  0  0
    7.6525  -15.5505   26.1646 C   0  0  0  0  0  0  0  0  0  0  0  0
    6.3346  -15.7666   25.7765 C   0  0  0  0  0  0  0  0  0  0  0  0
    5.6233  -14.6326   25.8046 N   0  0  0  0  0  0  0  0  0  0  0  0
    6.4384  -13.6489   26.2064 C   0  0  0  0  0  0  0  0  0  0  0  0
    6.1694  -12.2928   26.4083 C   0  0  0  0  0  0  0  0  0  0  0  0
    7.1510  -11.4368   26.8465 C   0  0  0  0  0  0  0  0  0  0  0  0
    8.4134  -11.9727   27.0787 C   0  0  0  0  0  0  0  0  0  0  0  0
    8.6710  -13.3041   26.8780 C   0  0  0  0  0  0  0  0  0  0  0  0
    7.6981  -14.1843   26.4366 C   0  0  0  0  0  0  0  0  0  0  0  0
   11.0770  -17.0297   25.4100 C   0  0  0  0  0  0  0  0  0  0  0  0
   11.6132  -17.7023   24.3498 O   0  0  0  0  0  0  0  0  0  0  0  0
   11.6699  -17.1108   26.5356 O   0  0  0  0  0  0  0  0  0  0  0  0
  2  3  1  0
  2  1  1  6
  3  4  1  0
  4  5  1  0
  5  9  1  0
  6  5  2  0
  7  2  1  0
  8  7  2  0
 11 10  1  6
 11 13  1  0
 12 11  1  0
 13 14  1  1
 14  7  1  0
 15 13  1  0
 15 17  1  0
 16 15  2  0
 18 17  1  0
 18 29  1  0
 18 19  1  1
 20 19  1  0
 20 21  2  0
 22 21  1  0
 23 22  1  0
 24 23  2  0
 25 24  1  0
 26 25  2  0
 26 27  1  0
 27 28  2  0
 28 23  1  0
 28 20  1  0
 29 30  1  0
 31 29  2  0
M  END
$$$$
