ETW.pdb
     RDKit          3D

 31 32  0  0  1  0  0  0  0  0999 V2000
    8.7769  -18.4074   18.5921 N   0  0  0  0  0  0  0  0  0  0  0  0
    9.8623  -17.9906   19.4549 C   0  0  1  0  0  0  0  0  0  0  0  0
   11.1503  -18.1425   18.7238 C   0  0  0  0  0  0  0  0  0  0  0  0
   11.1615  -19.5572   18.1310 C   0  0  0  0  0  0  0  0  0  0  0  0
   12.3786  -19.7609   17.3078 C   0  0  0  0  0  0  0  0  0  0  0  0
   12.2883  -20.0986   16.1172 O   0  0  0  0  0  0  0  0  0  0  0  0
    9.5987  -16.6673   20.0137 C   0  0  0  0  0  0  0  0  0  0  0  0
    9.4493  -15.6929   19.2325 O   0  0  0  0  0  0  0  0  0  0  0  0
   13.6200  -19.5742   17.8682 O   0  0  0  0  0  0  0  0  0  0  0  0
    7.5406  -14.6399   20.0200 C   0  0  0  0  0  0  0  0  0  0  0  0
    7.6424  -14.8787   21.4962 C   0  0  1  0  0  0  0  0  0  0  0  0
    6.7775  -15.8362   21.9627 O   0  0  0  0  0  0  0  0  0  0  0  0
    9.0863  -15.0896   21.9324 C   0  0  2  0  0  0  0  0  0  0  0  0
    9.4963  -16.3923   21.4062 N   0  0  0  0  0  0  0  0  0  0  0  0
    9.2897  -14.9822   23.3717 C   0  0  0  0  0  0  0  0  0  0  0  0
    9.1750  -13.8778   23.9467 O   0  0  0  0  0  0  0  0  0  0  0  0
    9.6171  -16.1266   24.1284 N   0  0  0  0  0  0  0  0  0  0  0  0
   10.0936  -16.0837   25.5139 C   0  0  1  0  0  0  0  0  0  0  0  0
    8.9937  -16.4303   26.4441 C   0  0  0  0  0  0  0  0  0  0  0  0
    7.7964  -15.6154   26.3192 C   0  0  0  0  0  0  0  0  0  0  0  0
    6.5136  -15.9753   25.9205 C   0  0  0  0  0  0  0  0  0  0  0  0
    5.6894  -14.9202   25.9111 N   0  0  0  0  0  0  0  0  0  0  0  0
    6.3931  -13.8485   26.2979 C   0  0  0  0  0  0  0  0  0  0  0  0
    5.9834  -12.5229   26.4622 C   0  0  0  0  0  0  0  0  0  0  0  0
    6.8653  -11.5602   26.8906 C   0  0  0  0  0  0  0  0  0  0  0  0
    8.1725  -11.9575   27.1518 C   0  0  0  0  0  0  0  0  0  0  0  0
    8.5683  -13.2597   26.9879 C   0  0  0  0  0  0  0  0  0  0  0  0
    7.6975  -14.2457   26.5571 C   0  0  0  0  0  0  0  0  0  0  0  0
   11.3624  -16.7622   25.6393 C   0  0  0  0  0  0  0  0  0  0  0  0
   12.0559  -16.8135   26.8141 O   0  0  0  0  0  0  0  0  0  0  0  0
   11.8661  -17.3357   24.6183 O   0  0  0  0  0  0  0  0  0  0  0  0
  2  3  1  0
  2  1  1  6
  3  4  1  0
  4  5  1  0
  5  9  1  0
  6  5  2  0
  7  2  1  0
  8  7  2  0
 11 10  1  6
 11 13  1  0
 12 11  1  0
 13 14  1  1
 14  7  1  0
 15 13  1  0
 15 17  1  0
 16 15  2  0
 18 17  1  0
 18 29  1  0
 18 19  1  1
 20 19  1  0
 20 21  2  0
 22 21  1  0
 23 22  1  0
 24 23  2  0
 25 24  1  0
 26 25  2  0
 26 27  1  0
 27 28  2  0
 28 23  1  0
 28 20  1  0
 29 30  1  0
 31 29  2  0
M  END
$$$$
