DSK.pdb
     RDKit          3D

 24 23  0  0  1  0  0  0  0  0999 V2000
    9.0751  -15.0985   16.8089 N   0  0  0  0  0  0  0  0  0  0  0  0
    9.4028  -16.0340   17.8957 C   0  0  1  0  0  0  0  0  0  0  0  0
   10.8135  -16.4472   17.6636 C   0  0  0  0  0  0  0  0  0  0  0  0
   11.0902  -17.2527   16.4893 C   0  0  0  0  0  0  0  0  0  0  0  0
   10.2390  -17.5354   15.6269 O   0  0  0  0  0  0  0  0  0  0  0  0
    9.1493  -15.3890   19.2078 C   0  0  0  0  0  0  0  0  0  0  0  0
    9.8992  -14.5403   19.7403 O   0  0  0  0  0  0  0  0  0  0  0  0
   12.3709  -17.7517   16.2890 O   0  0  0  0  0  0  0  0  0  0  0  0
    6.0589  -16.7773   21.5705 O   0  0  0  0  0  0  0  0  0  0  0  0
    6.2253  -15.3828   21.5846 C   0  0  0  0  0  0  0  0  0  0  0  0
    7.6899  -15.1290   21.2608 C   0  0  2  0  0  0  0  0  0  0  0  0
    7.9801  -15.7038   19.9930 N   0  0  0  0  0  0  0  0  0  0  0  0
    8.5063  -15.6375   22.3661 C   0  0  0  0  0  0  0  0  0  0  0  0
    9.3119  -16.5776   22.1471 O   0  0  0  0  0  0  0  0  0  0  0  0
    8.4506  -15.1345   23.6902 N   0  0  0  0  0  0  0  0  0  0  0  0
    9.2697  -15.7292   24.7759 C   0  0  1  0  0  0  0  0  0  0  0  0
    9.2475  -14.7903   25.9520 C   0  0  0  0  0  0  0  0  0  0  0  0
    9.9734  -15.2990   27.1446 C   0  0  0  0  0  0  0  0  0  0  0  0
    9.8453  -14.2624   28.2541 C   0  0  0  0  0  0  0  0  0  0  0  0
   10.5509  -14.7244   29.5103 C   0  0  0  0  0  0  0  0  0  0  0  0
   10.3206  -13.7036   30.5272 N   0  0  0  0  0  0  0  0  0  0  0  0
    8.6313  -17.0049   25.1068 C   0  0  0  0  0  0  0  0  0  0  0  0
    7.4084  -17.1709   24.9195 O   0  0  0  0  0  0  0  0  0  0  0  0
    9.3651  -18.0442   25.6275 O   0  0  0  0  0  0  0  0  0  0  0  0
  2  1  1  6
  2  3  1  0
  3  4  1  0
  4  5  2  0
  4  8  1  0
  6  2  1  0
  7  6  2  0
  9 10  1  0
 11 10  1  1
 11 13  1  0
 11 12  1  0
 12  6  1  0
 13 14  2  0
 15 16  1  0
 15 13  1  0
 17 18  1  0
 16 17  1  1
 19 20  1  0
 19 18  1  0
 20 21  1  0
 22 24  1  0
 22 16  1  0
 23 22  2  0
M  END
$$$$
