DSK.pdb
     RDKit          3D

 24 23  0  0  1  0  0  0  0  0999 V2000
   11.3417  -16.4477   17.2687 N   0  0  0  0  0  0  0  0  0  0  0  0
   11.3927  -17.3330   18.4422 C   0  0  1  0  0  0  0  0  0  0  0  0
   12.8089  -17.7759   18.5549 C   0  0  0  0  0  0  0  0  0  0  0  0
   13.3449  -18.5847   17.4764 C   0  0  0  0  0  0  0  0  0  0  0  0
   12.8076  -19.6265   17.0589 O   0  0  0  0  0  0  0  0  0  0  0  0
   10.8649  -16.6211   19.6324 C   0  0  0  0  0  0  0  0  0  0  0  0
   11.4523  -15.6855   20.2204 O   0  0  0  0  0  0  0  0  0  0  0  0
   14.5253  -18.1988   16.8542 O   0  0  0  0  0  0  0  0  0  0  0  0
    7.5222  -18.0757   21.5129 O   0  0  0  0  0  0  0  0  0  0  0  0
    7.5364  -16.6756   21.4033 C   0  0  0  0  0  0  0  0  0  0  0  0
    9.0008  -16.2740   21.3107 C   0  0  2  0  0  0  0  0  0  0  0  0
    9.5927  -16.9672   20.2194 N   0  0  0  0  0  0  0  0  0  0  0  0
    9.6341  -16.5192   22.6090 C   0  0  0  0  0  0  0  0  0  0  0  0
   10.4428  -17.4752   22.7224 O   0  0  0  0  0  0  0  0  0  0  0  0
    9.3946  -15.7395   23.7683 N   0  0  0  0  0  0  0  0  0  0  0  0
   10.0471  -16.0613   25.0622 C   0  0  1  0  0  0  0  0  0  0  0  0
    9.5644  -15.0756   26.0921 C   0  0  0  0  0  0  0  0  0  0  0  0
   10.0791  -15.3328   27.4620 C   0  0  0  0  0  0  0  0  0  0  0  0
    9.4528  -14.3104   28.4023 C   0  0  0  0  0  0  0  0  0  0  0  0
    9.8185  -14.6032   29.8411 C   0  0  0  0  0  0  0  0  0  0  0  0
    9.2508  -13.5301   30.6509 N   0  0  0  0  0  0  0  0  0  0  0  0
    9.6249  -17.4231   25.3963 C   0  0  0  0  0  0  0  0  0  0  0  0
   10.3655  -18.1716   26.0668 O   0  0  0  0  0  0  0  0  0  0  0  0
    8.4055  -17.9030   24.9809 O   0  0  0  0  0  0  0  0  0  0  0  0
  2  1  1  6
  2  3  1  0
  3  4  1  0
  4  5  2  0
  4  8  1  0
  6  2  1  0
  7  6  2  0
  9 10  1  0
 11 10  1  1
 11 13  1  0
 11 12  1  0
 12  6  1  0
 13 14  2  0
 15 16  1  0
 15 13  1  0
 17 18  1  0
 16 17  1  1
 19 20  1  0
 19 18  1  0
 20 21  1  0
 22 24  1  0
 22 16  1  0
 23 22  2  0
M  END
$$$$
