DSK.pdb
     RDKit          3D

 24 23  0  0  1  0  0  0  0  0999 V2000
   12.3376  -15.1249   16.9654 N   0  0  0  0  0  0  0  0  0  0  0  0
   12.9404  -15.3400   18.2898 C   0  0  1  0  0  0  0  0  0  0  0  0
   14.3142  -14.7738   18.2070 C   0  0  0  0  0  0  0  0  0  0  0  0
   15.0123  -14.8943   16.9411 C   0  0  0  0  0  0  0  0  0  0  0  0
   15.2438  -15.9797   16.3783 O   0  0  0  0  0  0  0  0  0  0  0  0
   12.0795  -14.7380   19.3379 C   0  0  0  0  0  0  0  0  0  0  0  0
   12.4109  -14.5963   20.5363 O   0  0  0  0  0  0  0  0  0  0  0  0
   15.4606  -13.7488   16.2960 O   0  0  0  0  0  0  0  0  0  0  0  0
    7.9144  -14.1058   18.7489 O   0  0  0  0  0  0  0  0  0  0  0  0
    8.6898  -13.0743   19.3032 C   0  0  0  0  0  0  0  0  0  0  0  0
    9.8477  -13.7541   20.0185 C   0  0  2  0  0  0  0  0  0  0  0  0
   10.7518  -14.2556   19.0423 N   0  0  0  0  0  0  0  0  0  0  0  0
    9.3040  -14.7659   20.9280 C   0  0  0  0  0  0  0  0  0  0  0  0
    9.0285  -15.9067   20.4770 O   0  0  0  0  0  0  0  0  0  0  0  0
    9.0621  -14.5448   22.3072 N   0  0  0  0  0  0  0  0  0  0  0  0
    8.7182  -15.6648   23.2188 C   0  0  1  0  0  0  0  0  0  0  0  0
    9.9974  -16.2297   23.7754 C   0  0  0  0  0  0  0  0  0  0  0  0
    9.7980  -17.3604   24.7187 C   0  0  0  0  0  0  0  0  0  0  0  0
   11.1699  -17.8793   25.1318 C   0  0  0  0  0  0  0  0  0  0  0  0
   11.0460  -18.9516   26.1920 C   0  0  0  0  0  0  0  0  0  0  0  0
   12.4018  -19.3058   26.5990 N   0  0  0  0  0  0  0  0  0  0  0  0
    7.8941  -15.0803   24.2788 C   0  0  0  0  0  0  0  0  0  0  0  0
    7.8495  -13.8433   24.4399 O   0  0  0  0  0  0  0  0  0  0  0  0
    7.1524  -15.8808   25.1148 O   0  0  0  0  0  0  0  0  0  0  0  0
  2  1  1  6
  2  3  1  0
  3  4  1  0
  4  5  2  0
  4  8  1  0
  6  2  1  0
  7  6  2  0
  9 10  1  0
 11 10  1  6
 11 13  1  0
 11 12  1  0
 12  6  1  0
 13 14  2  0
 15 16  1  0
 15 13  1  0
 17 18  1  0
 16 17  1  1
 19 20  1  0
 19 18  1  0
 20 21  1  0
 22 24  1  0
 22 16  1  0
 23 22  2  0
M  END
$$$$
