DSK.pdb
     RDKit          3D

 24 23  0  0  1  0  0  0  0  0999 V2000
    9.0345  -20.4079   21.8050 N   0  0  0  0  0  0  0  0  0  0  0  0
   10.3868  -20.4870   22.3784 C   0  0  1  0  0  0  0  0  0  0  0  0
   11.2933  -19.8825   21.3648 C   0  0  0  0  0  0  0  0  0  0  0  0
   11.2824  -20.4546   20.0317 C   0  0  0  0  0  0  0  0  0  0  0  0
   12.2679  -21.0016   19.5047 O   0  0  0  0  0  0  0  0  0  0  0  0
   10.4086  -19.8273   23.7075 C   0  0  0  0  0  0  0  0  0  0  0  0
   11.4456  -19.5852   24.3648 O   0  0  0  0  0  0  0  0  0  0  0  0
   10.1184  -20.4036   19.2755 O   0  0  0  0  0  0  0  0  0  0  0  0
    6.8162  -18.8945   25.5340 O   0  0  0  0  0  0  0  0  0  0  0  0
    7.8622  -17.9822   25.7487 C   0  0  0  0  0  0  0  0  0  0  0  0
    9.1506  -18.7840   25.6417 C   0  0  2  0  0  0  0  0  0  0  0  0
    9.1946  -19.4025   24.3620 N   0  0  0  0  0  0  0  0  0  0  0  0
    9.2174  -19.7117   26.7738 C   0  0  0  0  0  0  0  0  0  0  0  0
    8.4443  -20.7029   26.7966 O   0  0  0  0  0  0  0  0  0  0  0  0
   10.1094  -19.5675   27.8659 N   0  0  0  0  0  0  0  0  0  0  0  0
   10.1843  -20.5891   28.9403 C   0  0  1  0  0  0  0  0  0  0  0  0
   11.3308  -21.5144   28.6322 C   0  0  0  0  0  0  0  0  0  0  0  0
   11.5610  -22.5558   29.6669 C   0  0  0  0  0  0  0  0  0  0  0  0
   12.7902  -23.3605   29.2628 C   0  0  0  0  0  0  0  0  0  0  0  0
   13.1543  -24.3663   30.3329 C   0  0  0  0  0  0  0  0  0  0  0  0
   14.3755  -25.0326   29.8923 N   0  0  0  0  0  0  0  0  0  0  0  0
   10.4221  -19.8491   30.1813 C   0  0  0  0  0  0  0  0  0  0  0  0
   10.7694  -18.6506   30.1499 O   0  0  0  0  0  0  0  0  0  0  0  0
   10.2655  -20.4579   31.4039 O   0  0  0  0  0  0  0  0  0  0  0  0
  2  1  1  6
  2  3  1  0
  3  4  1  0
  4  5  2  0
  4  8  1  0
  6  2  1  0
  7  6  2  0
  9 10  1  0
 11 10  1  1
 11 13  1  0
 11 12  1  0
 12  6  1  0
 13 14  2  0
 15 16  1  0
 15 13  1  0
 17 18  1  0
 16 17  1  6
 19 20  1  0
 19 18  1  0
 20 21  1  0
 22 24  1  0
 22 16  1  0
 23 22  2  0
M  END
$$$$
