VEV.pdb
     RDKit          3D

 24 23  0  0  1  0  0  0  0  0999 V2000
   20.5967  -12.8406  -18.6314 C   0  0  0  0  0  0  0  0  0  0  0  0
   19.4576  -13.3846  -17.8013 C   0  0  1  0  0  0  0  0  0  0  0  0
   19.5431  -14.8911  -17.6916 C   0  0  0  0  0  0  0  0  0  0  0  0
   19.4960  -12.7421  -16.4307 C   0  0  2  0  0  0  0  0  0  0  0  0
   18.5696  -13.4391  -15.5873 N   0  0  0  0  0  0  0  0  0  0  0  0
   19.2206  -11.2885  -16.5014 C   0  0  0  0  0  0  0  0  0  0  0  0
   19.9242  -10.5559  -17.2328 O   0  0  0  0  0  0  0  0  0  0  0  0
   18.1752  -10.6753  -15.7640 N   0  0  0  0  0  0  0  0  0  0  0  0
   17.8542   -9.2548  -15.8827 C   0  0  1  0  0  0  0  0  0  0  0  0
   16.4049   -9.1095  -15.5881 C   0  0  0  0  0  0  0  0  0  0  0  0
   15.4671   -9.8215  -16.4981 C   0  0  0  0  0  0  0  0  0  0  0  0
   14.4595  -10.6602  -15.8313 C   0  0  0  0  0  0  0  0  0  0  0  0
   13.9192  -11.6233  -16.4254 O   0  0  0  0  0  0  0  0  0  0  0  0
   18.7354   -8.4293  -15.0275 C   0  0  0  0  0  0  0  0  0  0  0  0
   18.8622   -8.7767  -13.8248 O   0  0  0  0  0  0  0  0  0  0  0  0
   14.0545  -10.4363  -14.5230 O   0  0  0  0  0  0  0  0  0  0  0  0
   22.3404   -7.8445  -15.1916 C   0  0  0  0  0  0  0  0  0  0  0  0
   21.7151   -6.4996  -14.9994 C   0  0  2  0  0  0  0  0  0  0  0  0
   22.5495   -5.6622  -14.0534 C   0  0  0  0  0  0  0  0  0  0  0  0
   20.2787   -6.5713  -14.5509 C   0  0  2  0  0  0  0  0  0  0  0  0
   19.4361   -7.2899  -15.4660 N   0  0  0  0  0  0  0  0  0  0  0  0
   19.7569   -5.2098  -14.3162 C   0  0  0  0  0  0  0  0  0  0  0  0
   18.9359   -4.6413  -15.0752 O   0  0  0  0  0  0  0  0  0  0  0  0
   20.1946   -4.5188  -13.1987 O   0  0  0  0  0  0  0  0  0  0  0  0
  2  1  1  6
  2  4  1  0
  3  2  1  0
  4  5  1  1
  6  8  1  0
  6  4  1  0
  7  6  2  0
  9  8  1  0
 10 11  1  0
  9 10  1  1
 12 16  1  0
 12 11  1  0
 13 12  2  0
 14 21  1  0
 14  9  1  0
 15 14  2  0
 18 17  1  1
 18 20  1  0
 19 18  1  0
 20 21  1  6
 20 22  1  0
 22 24  1  0
 23 22  2  0
M  END
$$$$
