VEV.pdb
     RDKit          3D

 24 23  0  0  1  0  0  0  0  0999 V2000
   15.6855  -15.9855  -17.0362 C   0  0  0  0  0  0  0  0  0  0  0  0
   16.3587  -14.7213  -17.5171 C   0  0  1  0  0  0  0  0  0  0  0  0
   15.3355  -13.6504  -17.8254 C   0  0  0  0  0  0  0  0  0  0  0  0
   17.3314  -14.2474  -16.4578 C   0  0  2  0  0  0  0  0  0  0  0  0
   16.6577  -14.2737  -15.1926 N   0  0  0  0  0  0  0  0  0  0  0  0
   17.8837  -12.9120  -16.7823 C   0  0  0  0  0  0  0  0  0  0  0  0
   18.5849  -12.7601  -17.8079 O   0  0  0  0  0  0  0  0  0  0  0  0
   17.6502  -11.7737  -15.9683 N   0  0  0  0  0  0  0  0  0  0  0  0
   18.2055  -10.4575  -16.2749 C   0  0  1  0  0  0  0  0  0  0  0  0
   17.0575   -9.5296  -16.4471 C   0  0  0  0  0  0  0  0  0  0  0  0
   16.4824   -9.4308  -17.8162 C   0  0  0  0  0  0  0  0  0  0  0  0
   15.3889   -8.4593  -17.9698 C   0  0  0  0  0  0  0  0  0  0  0  0
   15.4916   -7.4830  -18.7499 O   0  0  0  0  0  0  0  0  0  0  0  0
   19.1838  -10.0323  -15.2494 C   0  0  0  0  0  0  0  0  0  0  0  0
   18.8522  -10.1707  -14.0435 O   0  0  0  0  0  0  0  0  0  0  0  0
   14.1959   -8.5666  -17.2690 O   0  0  0  0  0  0  0  0  0  0  0  0
   23.4541   -9.4949  -15.7115 C   0  0  0  0  0  0  0  0  0  0  0  0
   22.6525   -9.8119  -14.4893 C   0  0  2  0  0  0  0  0  0  0  0  0
   22.4900  -11.3099  -14.3411 C   0  0  0  0  0  0  0  0  0  0  0  0
   21.3216   -9.1071  -14.4530 C   0  0  2  0  0  0  0  0  0  0  0  0
   20.4509   -9.4876  -15.5304 N   0  0  0  0  0  0  0  0  0  0  0  0
   21.5277   -7.6447  -14.4367 C   0  0  0  0  0  0  0  0  0  0  0  0
   21.2786   -6.8983  -15.4135 O   0  0  0  0  0  0  0  0  0  0  0  0
   22.0227   -7.0608  -13.2825 O   0  0  0  0  0  0  0  0  0  0  0  0
  2  1  1  1
  2  4  1  0
  3  2  1  0
  4  5  1  1
  6  8  1  0
  6  4  1  0
  7  6  2  0
  9  8  1  0
 10 11  1  0
  9 10  1  1
 12 16  1  0
 12 11  1  0
 13 12  2  0
 14 21  1  0
 14  9  1  0
 15 14  2  0
 18 17  1  6
 18 20  1  0
 19 18  1  0
 20 21  1  6
 20 22  1  0
 22 24  1  0
 23 22  2  0
M  END
$$$$
