VEV.pdb
     RDKit          3D

 24 23  0  0  1  0  0  0  0  0999 V2000
   16.8541  -13.5467  -17.2160 C   0  0  0  0  0  0  0  0  0  0  0  0
   16.8084  -12.0421  -17.3451 C   0  0  1  0  0  0  0  0  0  0  0  0
   15.5898  -11.4787  -16.6475 C   0  0  0  0  0  0  0  0  0  0  0  0
   18.0791  -11.4587  -16.7639 C   0  0  2  0  0  0  0  0  0  0  0  0
   18.3208  -12.0914  -15.5003 N   0  0  0  0  0  0  0  0  0  0  0  0
   18.0035   -9.9833  -16.6578 C   0  0  0  0  0  0  0  0  0  0  0  0
   17.9351   -9.2867  -17.6954 O   0  0  0  0  0  0  0  0  0  0  0  0
   18.0051   -9.3090  -15.4095 N   0  0  0  0  0  0  0  0  0  0  0  0
   18.1217   -7.8569  -15.2975 C   0  0  1  0  0  0  0  0  0  0  0  0
   16.8373   -7.3583  -14.7407 C   0  0  0  0  0  0  0  0  0  0  0  0
   16.2119   -6.2047  -15.4427 C   0  0  0  0  0  0  0  0  0  0  0  0
   15.2890   -5.3990  -14.6288 C   0  0  0  0  0  0  0  0  0  0  0  0
   15.6589   -4.3251  -14.0977 O   0  0  0  0  0  0  0  0  0  0  0  0
   19.3161   -7.4704  -14.5143 C   0  0  0  0  0  0  0  0  0  0  0  0
   19.4762   -8.0237  -13.3956 O   0  0  0  0  0  0  0  0  0  0  0  0
   13.9725   -5.7768  -14.4051 O   0  0  0  0  0  0  0  0  0  0  0  0
   22.9998   -6.3178  -16.1120 C   0  0  0  0  0  0  0  0  0  0  0  0
   22.7040   -6.8780  -14.7572 C   0  0  2  0  0  0  0  0  0  0  0  0
   22.6546   -8.3902  -14.8128 C   0  0  0  0  0  0  0  0  0  0  0  0
   21.4537   -6.3082  -14.1393 C   0  0  2  0  0  0  0  0  0  0  0  0
   20.2780   -6.5321  -14.9338 N   0  0  0  0  0  0  0  0  0  0  0  0
   21.6379   -4.8679  -13.8695 C   0  0  0  0  0  0  0  0  0  0  0  0
   21.0733   -3.9614  -14.5273 O   0  0  0  0  0  0  0  0  0  0  0  0
   22.4786   -4.4925  -12.8349 O   0  0  0  0  0  0  0  0  0  0  0  0
  2  1  1  1
  2  4  1  0
  3  2  1  0
  4  5  1  1
  6  8  1  0
  6  4  1  0
  7  6  2  0
  9  8  1  0
 10 11  1  0
  9 10  1  1
 12 16  1  0
 12 11  1  0
 13 12  2  0
 14 21  1  0
 14  9  1  0
 15 14  2  0
 18 17  1  6
 18 20  1  0
 19 18  1  0
 20 21  1  6
 20 22  1  0
 22 24  1  0
 23 22  2  0
M  END
$$$$
