VEV.pdb
     RDKit          3D

 24 23  0  0  1  0  0  0  0  0999 V2000
   16.7615  -16.1224  -18.1348 C   0  0  0  0  0  0  0  0  0  0  0  0
   16.8960  -14.6388  -18.3869 C   0  0  1  0  0  0  0  0  0  0  0  0
   15.6295  -13.9094  -17.9958 C   0  0  0  0  0  0  0  0  0  0  0  0
   18.0828  -14.1122  -17.6080 C   0  0  2  0  0  0  0  0  0  0  0  0
   17.9622  -14.5665  -16.2536 N   0  0  0  0  0  0  0  0  0  0  0  0
   18.1907  -12.6384  -17.7078 C   0  0  0  0  0  0  0  0  0  0  0  0
   18.3883  -12.1021  -18.8213 O   0  0  0  0  0  0  0  0  0  0  0  0
   18.0781  -11.7888  -16.5772 N   0  0  0  0  0  0  0  0  0  0  0  0
   18.3171  -10.3490  -16.6455 C   0  0  1  0  0  0  0  0  0  0  0  0
   16.9882   -9.6847  -16.6126 C   0  0  0  0  0  0  0  0  0  0  0  0
   16.1402   -9.9533  -15.4195 C   0  0  0  0  0  0  0  0  0  0  0  0
   14.8387   -9.2684  -15.4064 C   0  0  0  0  0  0  0  0  0  0  0  0
   14.7407   -8.0533  -15.7001 O   0  0  0  0  0  0  0  0  0  0  0  0
   19.2464   -9.9054  -15.5829 C   0  0  0  0  0  0  0  0  0  0  0  0
   19.0705  -10.3761  -14.4293 O   0  0  0  0  0  0  0  0  0  0  0  0
   13.6598   -9.9197  -15.0723 O   0  0  0  0  0  0  0  0  0  0  0  0
   23.2607   -8.8641  -16.0413 C   0  0  0  0  0  0  0  0  0  0  0  0
   22.5422   -9.2697  -14.7939 C   0  0  2  0  0  0  0  0  0  0  0  0
   22.4921  -10.7789  -14.6831 C   0  0  0  0  0  0  0  0  0  0  0  0
   21.1684   -8.6627  -14.6761 C   0  0  2  0  0  0  0  0  0  0  0  0
   20.3059   -8.9988  -15.7747 N   0  0  0  0  0  0  0  0  0  0  0  0
   21.2776   -7.1977  -14.5242 C   0  0  0  0  0  0  0  0  0  0  0  0
   21.8779   -6.6419  -13.5734 O   0  0  0  0  0  0  0  0  0  0  0  0
   20.6869   -6.3891  -15.4809 O   0  0  0  0  0  0  0  0  0  0  0  0
  2  1  1  1
  2  4  1  0
  3  2  1  0
  4  5  1  1
  6  8  1  0
  6  4  1  0
  7  6  2  0
  9  8  1  0
 10 11  1  0
  9 10  1  1
 12 16  1  0
 12 11  1  0
 13 12  2  0
 14 21  1  0
 14  9  1  0
 15 14  2  0
 18 17  1  6
 18 20  1  0
 19 18  1  0
 20 21  1  6
 20 22  1  0
 22 24  1  0
 23 22  2  0
M  END
$$$$
