VEV.pdb
     RDKit          3D

 24 23  0  0  1  0  0  0  0  0999 V2000
   29.1968  -21.2915  -14.8327 C   0  0  0  0  0  0  0  0  0  0  0  0
   28.6356  -20.6872  -13.5669 C   0  0  1  0  0  0  0  0  0  0  0  0
   29.1616  -19.2837  -13.3612 C   0  0  0  0  0  0  0  0  0  0  0  0
   27.1236  -20.6887  -13.6484 C   0  0  2  0  0  0  0  0  0  0  0  0
   26.7417  -19.9722  -14.8300 N   0  0  0  0  0  0  0  0  0  0  0  0
   26.5102  -20.1320  -12.4205 C   0  0  0  0  0  0  0  0  0  0  0  0
   26.2408  -18.9114  -12.3570 O   0  0  0  0  0  0  0  0  0  0  0  0
   26.2077  -20.9341  -11.2901 N   0  0  0  0  0  0  0  0  0  0  0  0
   25.5432  -20.4038  -10.1018 C   0  0  1  0  0  0  0  0  0  0  0  0
   24.1278  -20.8530  -10.1570 C   0  0  0  0  0  0  0  0  0  0  0  0
   23.2624  -20.4661   -9.0097 C   0  0  0  0  0  0  0  0  0  0  0  0
   21.8475  -20.8483   -9.1328 C   0  0  0  0  0  0  0  0  0  0  0  0
   21.4355  -21.5074  -10.1167 O   0  0  0  0  0  0  0  0  0  0  0  0
   26.2577  -20.7921   -8.8656 C   0  0  0  0  0  0  0  0  0  0  0  0
   26.7151  -21.9628   -8.8073 O   0  0  0  0  0  0  0  0  0  0  0  0
   20.8997  -20.5054   -8.1790 O   0  0  0  0  0  0  0  0  0  0  0  0
   29.0851  -18.7664   -6.8919 C   0  0  0  0  0  0  0  0  0  0  0  0
   28.0410  -19.3319   -5.9826 C   0  0  2  0  0  0  0  0  0  0  0  0
   28.6718  -19.8142   -4.6935 C   0  0  0  0  0  0  0  0  0  0  0  0
   27.2129  -20.4119   -6.6286 C   0  0  2  0  0  0  0  0  0  0  0  0
   26.4585  -19.9458   -7.7588 N   0  0  0  0  0  0  0  0  0  0  0  0
   26.3248  -21.0324   -5.6250 C   0  0  0  0  0  0  0  0  0  0  0  0
   25.0729  -20.9721   -5.6750 O   0  0  0  0  0  0  0  0  0  0  0  0
   26.9004  -21.7194   -4.5692 O   0  0  0  0  0  0  0  0  0  0  0  0
  2  1  1  6
  2  4  1  0
  3  2  1  0
  4  5  1  6
  6  8  1  0
  6  4  1  0
  7  6  2  0
  9  8  1  0
 10 11  1  0
  9 10  1  1
 12 16  1  0
 12 11  1  0
 13 12  2  0
 14 21  1  0
 14  9  1  0
 15 14  2  0
 18 17  1  6
 18 20  1  0
 19 18  1  0
 20 21  1  6
 20 22  1  0
 22 24  1  0
 23 22  2  0
M  END
$$$$
