VEV.pdb
     RDKit          3D

 24 23  0  0  1  0  0  0  0  0999 V2000
   20.9986  -13.7780  -19.9970 C   0  0  0  0  0  0  0  0  0  0  0  0
   20.2432  -12.5242  -19.6231 C   0  0  1  0  0  0  0  0  0  0  0  0
   19.0641  -12.8513  -18.7334 C   0  0  0  0  0  0  0  0  0  0  0  0
   21.1901  -11.5663  -18.9312 C   0  0  2  0  0  0  0  0  0  0  0  0
   21.8615  -12.2825  -17.8864 N   0  0  0  0  0  0  0  0  0  0  0  0
   20.4831  -10.3632  -18.4348 C   0  0  0  0  0  0  0  0  0  0  0  0
   19.9111   -9.5984  -19.2439 O   0  0  0  0  0  0  0  0  0  0  0  0
   20.4226  -10.0304  -17.0570 N   0  0  0  0  0  0  0  0  0  0  0  0
   19.7312   -8.8421  -16.5622 C   0  0  1  0  0  0  0  0  0  0  0  0
   18.7336   -9.3033  -15.5619 C   0  0  0  0  0  0  0  0  0  0  0  0
   17.9328   -8.2467  -14.8860 C   0  0  0  0  0  0  0  0  0  0  0  0
   17.0391   -8.7215  -13.8187 C   0  0  0  0  0  0  0  0  0  0  0  0
   16.0906   -9.5036  -14.0653 O   0  0  0  0  0  0  0  0  0  0  0  0
   20.6873   -7.8359  -16.0496 C   0  0  0  0  0  0  0  0  0  0  0  0
   21.6798   -8.2602  -15.4028 O   0  0  0  0  0  0  0  0  0  0  0  0
   17.1930   -8.3359  -12.4945 O   0  0  0  0  0  0  0  0  0  0  0  0
   22.9817   -5.7375  -17.8627 C   0  0  0  0  0  0  0  0  0  0  0  0
   22.2890   -4.8291  -16.8974 C   0  0  2  0  0  0  0  0  0  0  0  0
   23.2552   -3.7917  -16.3658 C   0  0  0  0  0  0  0  0  0  0  0  0
   21.6008   -5.5659  -15.7780 C   0  0  2  0  0  0  0  0  0  0  0  0
   20.5618   -6.4462  -16.2356 N   0  0  0  0  0  0  0  0  0  0  0  0
   21.0744   -4.6020  -14.7907 C   0  0  0  0  0  0  0  0  0  0  0  0
   19.8639   -4.2837  -14.7095 O   0  0  0  0  0  0  0  0  0  0  0  0
   21.9614   -4.0146  -13.9040 O   0  0  0  0  0  0  0  0  0  0  0  0
  2  1  1  1
  2  4  1  0
  3  2  1  0
  4  5  1  1
  6  8  1  0
  6  4  1  0
  7  6  2  0
  9  8  1  0
 10 11  1  0
  9 10  1  1
 12 16  1  0
 12 11  1  0
 13 12  2  0
 14 21  1  0
 14  9  1  0
 15 14  2  0
 18 17  1  1
 18 20  1  0
 19 18  1  0
 20 21  1  6
 20 22  1  0
 22 24  1  0
 23 22  2  0
M  END
$$$$
