VEV.pdb
     RDKit          3D

 24 23  0  0  1  0  0  0  0  0999 V2000
   16.1403  -12.5201  -19.4327 C   0  0  0  0  0  0  0  0  0  0  0  0
   17.0701  -11.3301  -19.3887 C   0  0  1  0  0  0  0  0  0  0  0  0
   16.3947  -10.0983  -19.9503 C   0  0  0  0  0  0  0  0  0  0  0  0
   17.5072  -11.0990  -17.9575 C   0  0  2  0  0  0  0  0  0  0  0  0
   16.3446  -11.1677  -17.1214 N   0  0  0  0  0  0  0  0  0  0  0  0
   18.2407   -9.8206  -17.8105 C   0  0  0  0  0  0  0  0  0  0  0  0
   19.3383   -9.6618  -18.3908 O   0  0  0  0  0  0  0  0  0  0  0  0
   17.7472   -8.7459  -17.0269 N   0  0  0  0  0  0  0  0  0  0  0  0
   18.5004   -7.5115  -16.8174 C   0  0  1  0  0  0  0  0  0  0  0  0
   17.5145   -6.4002  -16.7820 C   0  0  0  0  0  0  0  0  0  0  0  0
   18.0586   -5.0366  -16.5386 C   0  0  0  0  0  0  0  0  0  0  0  0
   17.1071   -4.0737  -15.9634 C   0  0  0  0  0  0  0  0  0  0  0  0
   15.9716   -3.9022  -16.4669 O   0  0  0  0  0  0  0  0  0  0  0  0
   19.3604   -7.6014  -15.6167 C   0  0  0  0  0  0  0  0  0  0  0  0
   18.8562   -8.1119  -14.5830 O   0  0  0  0  0  0  0  0  0  0  0  0
   17.4081   -3.3097  -14.8447 O   0  0  0  0  0  0  0  0  0  0  0  0
   23.2315   -8.9462  -13.3853 C   0  0  0  0  0  0  0  0  0  0  0  0
   22.4601   -8.5845  -14.6145 C   0  0  2  0  0  0  0  0  0  0  0  0
   23.4047   -8.2936  -15.7614 C   0  0  0  0  0  0  0  0  0  0  0  0
   21.4929   -7.4503  -14.3959 C   0  0  2  0  0  0  0  0  0  0  0  0
   20.6946   -7.1572  -15.5538 N   0  0  0  0  0  0  0  0  0  0  0  0
   22.2220   -6.2482  -13.9437 C   0  0  0  0  0  0  0  0  0  0  0  0
   22.8445   -6.1826  -12.8567 O   0  0  0  0  0  0  0  0  0  0  0  0
   22.2215   -5.1297  -14.7604 O   0  0  0  0  0  0  0  0  0  0  0  0
  2  1  1  1
  2  4  1  0
  3  2  1  0
  4  5  1  1
  6  8  1  0
  6  4  1  0
  7  6  2  0
  9  8  1  0
 10 11  1  0
  9 10  1  1
 12 16  1  0
 12 11  1  0
 13 12  2  0
 14 21  1  0
 14  9  1  0
 15 14  2  0
 18 17  1  1
 18 20  1  0
 19 18  1  0
 20 21  1  6
 20 22  1  0
 22 24  1  0
 23 22  2  0
M  END
$$$$
