VEV.pdb
     RDKit          3D

 24 23  0  0  1  0  0  0  0  0999 V2000
   24.9872  -13.7686  -16.1408 C   0  0  0  0  0  0  0  0  0  0  0  0
   24.3126  -12.4171  -16.1754 C   0  0  1  0  0  0  0  0  0  0  0  0
   25.1706  -11.4058  -16.9035 C   0  0  0  0  0  0  0  0  0  0  0  0
   22.9615  -12.5577  -16.8444 C   0  0  2  0  0  0  0  0  0  0  0  0
   23.1644  -13.1464  -18.1357 N   0  0  0  0  0  0  0  0  0  0  0  0
   22.2495  -11.2608  -16.9143 C   0  0  0  0  0  0  0  0  0  0  0  0
   22.3324  -10.5594  -17.9477 O   0  0  0  0  0  0  0  0  0  0  0  0
   21.4619  -10.7664  -15.8429 N   0  0  0  0  0  0  0  0  0  0  0  0
   20.6834   -9.5338  -15.9395 C   0  0  1  0  0  0  0  0  0  0  0  0
   19.3154   -9.8427  -15.4480 C   0  0  0  0  0  0  0  0  0  0  0  0
   18.3405   -8.7184  -15.4453 C   0  0  0  0  0  0  0  0  0  0  0  0
   17.0001   -9.0501  -14.9386 C   0  0  0  0  0  0  0  0  0  0  0  0
   16.7294   -8.9718  -13.7168 O   0  0  0  0  0  0  0  0  0  0  0  0
   21.3483   -8.4186  -15.2297 C   0  0  0  0  0  0  0  0  0  0  0  0
   21.9339   -8.6899  -14.1496 O   0  0  0  0  0  0  0  0  0  0  0  0
   15.9716   -9.4633  -15.7735 O   0  0  0  0  0  0  0  0  0  0  0  0
   21.9354   -4.3124  -16.6995 C   0  0  0  0  0  0  0  0  0  0  0  0
   22.8435   -5.1252  -15.8327 C   0  0  2  0  0  0  0  0  0  0  0  0
   23.8846   -5.8296  -16.6767 C   0  0  0  0  0  0  0  0  0  0  0  0
   22.1067   -6.0939  -14.9448 C   0  0  2  0  0  0  0  0  0  0  0  0
   21.3693   -7.0846  -15.6786 N   0  0  0  0  0  0  0  0  0  0  0  0
   21.2196   -5.3558  -14.0231 C   0  0  0  0  0  0  0  0  0  0  0  0
   19.9678   -5.3754  -14.1009 O   0  0  0  0  0  0  0  0  0  0  0  0
   21.7961   -4.5995  -13.0163 O   0  0  0  0  0  0  0  0  0  0  0  0
  2  1  1  6
  2  4  1  0
  3  2  1  0
  4  5  1  6
  6  8  1  0
  6  4  1  0
  7  6  2  0
  9  8  1  0
 10 11  1  0
  9 10  1  1
 12 16  1  0
 12 11  1  0
 13 12  2  0
 14 21  1  0
 14  9  1  0
 15 14  2  0
 18 17  1  6
 18 20  1  0
 19 18  1  0
 20 21  1  6
 20 22  1  0
 22 24  1  0
 23 22  2  0
M  END
$$$$
