VEV.pdb
     RDKit          3D

 24 23  0  0  1  0  0  0  0  0999 V2000
   17.6582  -13.3560  -17.0540 C   0  0  0  0  0  0  0  0  0  0  0  0
   17.1656  -13.2135  -15.6328 C   0  0  1  0  0  0  0  0  0  0  0  0
   18.3243  -13.0286  -14.6776 C   0  0  0  0  0  0  0  0  0  0  0  0
   16.2129  -12.0390  -15.5569 C   0  0  2  0  0  0  0  0  0  0  0  0
   15.0973  -12.3160  -16.4137 N   0  0  0  0  0  0  0  0  0  0  0  0
   16.8889  -10.7651  -15.8946 C   0  0  0  0  0  0  0  0  0  0  0  0
   17.3199  -10.5768  -17.0545 O   0  0  0  0  0  0  0  0  0  0  0  0
   17.0744   -9.7272  -14.9453 N   0  0  0  0  0  0  0  0  0  0  0  0
   17.6725   -8.4398  -15.2910 C   0  0  1  0  0  0  0  0  0  0  0  0
   16.6301   -7.4030  -15.0748 C   0  0  0  0  0  0  0  0  0  0  0  0
   17.0373   -5.9914  -15.3122 C   0  0  0  0  0  0  0  0  0  0  0  0
   16.0182   -4.9807  -14.9908 C   0  0  0  0  0  0  0  0  0  0  0  0
   15.6597   -4.7727  -13.8074 O   0  0  0  0  0  0  0  0  0  0  0  0
   18.9266   -8.2085  -14.5405 C   0  0  0  0  0  0  0  0  0  0  0  0
   18.9192   -8.4716  -13.3100 O   0  0  0  0  0  0  0  0  0  0  0  0
   15.4031   -4.2095  -15.9668 O   0  0  0  0  0  0  0  0  0  0  0  0
   22.8398   -8.0897  -16.1814 C   0  0  0  0  0  0  0  0  0  0  0  0
   22.4606   -8.3738  -14.7628 C   0  0  2  0  0  0  0  0  0  0  0  0
   22.2187   -9.8559  -14.5700 C   0  0  0  0  0  0  0  0  0  0  0  0
   21.2872   -7.5575  -14.2872 C   0  0  2  0  0  0  0  0  0  0  0  0
   20.1181   -7.7174  -15.1066 N   0  0  0  0  0  0  0  0  0  0  0  0
   21.6705   -6.1344  -14.1923 C   0  0  0  0  0  0  0  0  0  0  0  0
   21.2370   -5.2464  -14.9649 O   0  0  0  0  0  0  0  0  0  0  0  0
   22.5565   -5.7543  -13.1981 O   0  0  0  0  0  0  0  0  0  0  0  0
  2  1  1  6
  2  4  1  0
  3  2  1  0
  4  5  1  6
  6  8  1  0
  6  4  1  0
  7  6  2  0
  9  8  1  0
 10 11  1  0
  9 10  1  1
 12 16  1  0
 12 11  1  0
 13 12  2  0
 14 21  1  0
 14  9  1  0
 15 14  2  0
 18 17  1  6
 18 20  1  0
 19 18  1  0
 20 21  1  6
 20 22  1  0
 22 24  1  0
 23 22  2  0
M  END
$$$$
