VEV.pdb
     RDKit          3D

 24 23  0  0  1  0  0  0  0  0999 V2000
   12.2007  -11.4228  -11.6606 C   0  0  0  0  0  0  0  0  0  0  0  0
   12.9804  -12.6738  -11.9913 C   0  0  1  0  0  0  0  0  0  0  0  0
   12.0788  -13.7246  -12.6010 C   0  0  0  0  0  0  0  0  0  0  0  0
   14.1071  -12.3165  -12.9377 C   0  0  2  0  0  0  0  0  0  0  0  0
   14.9195  -13.4833  -13.1218 N   0  0  0  0  0  0  0  0  0  0  0  0
   14.8824  -11.1531  -12.4486 C   0  0  0  0  0  0  0  0  0  0  0  0
   15.6875  -11.2948  -11.5008 O   0  0  0  0  0  0  0  0  0  0  0  0
   14.7525   -9.8592  -13.0159 N   0  0  0  0  0  0  0  0  0  0  0  0
   15.5674   -8.7247  -12.5875 C   0  0  1  0  0  0  0  0  0  0  0  0
   16.0128   -8.0191  -13.8172 C   0  0  0  0  0  0  0  0  0  0  0  0
   16.8289   -6.7904  -13.6198 C   0  0  0  0  0  0  0  0  0  0  0  0
   18.2825   -7.0051  -13.5551 C   0  0  0  0  0  0  0  0  0  0  0  0
   18.9009   -7.5552  -14.4971 O   0  0  0  0  0  0  0  0  0  0  0  0
   14.8383   -7.8696  -11.6249 C   0  0  0  0  0  0  0  0  0  0  0  0
   13.6256   -7.6352  -11.8651 O   0  0  0  0  0  0  0  0  0  0  0  0
   19.0430   -6.6158  -12.4616 O   0  0  0  0  0  0  0  0  0  0  0  0
   16.0065   -6.8602   -7.6031 C   0  0  0  0  0  0  0  0  0  0  0  0
   14.6331   -6.7950   -8.1916 C   0  0  2  0  0  0  0  0  0  0  0  0
   13.8982   -8.0976   -7.9567 C   0  0  0  0  0  0  0  0  0  0  0  0
   14.6294   -6.4153   -9.6495 C   0  0  2  0  0  0  0  0  0  0  0  0
   15.4062   -7.3051  -10.4672 N   0  0  0  0  0  0  0  0  0  0  0  0
   15.0906   -5.0212   -9.8069 C   0  0  0  0  0  0  0  0  0  0  0  0
   14.4410   -4.0262   -9.4053 O   0  0  0  0  0  0  0  0  0  0  0  0
   16.3059   -4.7946  -10.4313 O   0  0  0  0  0  0  0  0  0  0  0  0
  2  1  1  6
  2  4  1  0
  3  2  1  0
  4  5  1  1
  6  8  1  0
  6  4  1  0
  7  6  2  0
  9  8  1  0
 10 11  1  0
  9 10  1  6
 12 16  1  0
 12 11  1  0
 13 12  2  0
 14 21  1  0
 14  9  1  0
 15 14  2  0
 18 17  1  6
 18 20  1  0
 19 18  1  0
 20 21  1  6
 20 22  1  0
 22 24  1  0
 23 22  2  0
M  END
$$$$
