RSE.pdb
     RDKit          3D

 27 26  0  0  1  0  0  0  0  0999 V2000
   23.3062  -20.7993   -7.9309 N   0  0  0  0  0  0  0  0  0  0  0  0
   22.2051  -21.4519   -8.5435 C   0  0  0  0  0  0  0  0  0  0  0  0
   21.4364  -22.2574   -7.8636 N   0  0  0  0  0  0  0  0  0  0  0  0
   21.8872  -21.2630   -9.9133 N   0  0  0  0  0  0  0  0  0  0  0  0
   22.8872  -20.8653  -10.8480 C   0  0  0  0  0  0  0  0  0  0  0  0
   24.2640  -20.8247  -10.1772 C   0  0  0  0  0  0  0  0  0  0  0  0
   25.3317  -20.3147  -11.1135 C   0  0  0  0  0  0  0  0  0  0  0  0
   25.6036  -21.1930  -12.2649 C   0  0  2  0  0  0  0  0  0  0  0  0
   26.7535  -22.0541  -12.0858 N   0  0  0  0  0  0  0  0  0  0  0  0
   25.5894  -20.6199  -13.6067 C   0  0  0  0  0  0  0  0  0  0  0  0
   26.3258  -19.5952  -13.8615 O   0  0  0  0  0  0  0  0  0  0  0  0
   20.6911  -22.7729   -8.3810 O   0  0  0  0  0  0  0  0  0  0  0  0
   26.4635  -22.0815  -16.9860 C   0  0  0  0  0  0  0  0  0  0  0  0
   25.1602  -21.6049  -17.0216 C   0  0  2  0  0  0  0  0  0  0  0  0
   24.9658  -20.4682  -16.0435 N   0  0  0  0  0  0  0  0  0  0  0  0
   24.8320  -21.0586  -14.7223 C   0  0  0  0  0  0  0  0  0  0  0  0
   23.7237  -19.7409  -16.4350 O   0  0  0  0  0  0  0  0  0  0  0  0
   22.6034  -20.1441  -16.0302 N   0  0  0  0  0  0  0  0  0  0  0  0
   23.7841  -18.5891  -17.2651 C   0  0  2  0  0  0  0  0  0  0  0  0
   22.5926  -17.8368  -17.6406 C   0  0  0  0  0  0  0  0  0  0  0  0
   23.0438  -16.6503  -18.4429 C   0  0  0  0  0  0  0  0  0  0  0  0
   21.9603  -15.7435  -18.9053 C   0  0  0  0  0  0  0  0  0  0  0  0
   22.4075  -14.6073  -19.7290 O   0  0  0  0  0  0  0  0  0  0  0  0
   23.5040  -14.5857  -20.3410 C   0  0  0  0  0  0  0  0  0  0  0  0
   21.6201  -18.6916  -18.3582 O   0  0  0  0  0  0  0  0  0  0  0  0
   22.0310  -19.6283  -19.0859 O   0  0  0  0  0  0  0  0  0  0  0  0
   21.6037  -13.4922  -19.8552 O   0  0  0  0  0  0  0  0  0  0  0  0
  2  3  2  0
  2  1  1  0
  4  2  1  0
  5  4  1  0
  6  5  1  0
  7  6  1  0
  8  7  1  0
  8 10  1  0
  8  9  1  1
 10 11  2  0
 13 12  1  0
 14 13  1  1
 15 10  1  0
 15 14  1  0
 16 14  1  0
 16 17  2  0
 18 16  1  0
 19 24  1  0
 19 18  1  0
 19 20  1  6
 21 20  1  0
 22 21  1  0
 23 22  2  0
 24 27  1  0
 25 24  2  0
 26 22  1  0
M  END
$$$$
