RSE.pdb
     RDKit          3D

 27 26  0  0  1  0  0  0  0  0999 V2000
   12.1417  -15.4966  -14.0044 N   0  0  0  0  0  0  0  0  0  0  0  0
   11.3848  -14.5295  -14.7155 C   0  0  0  0  0  0  0  0  0  0  0  0
   10.7781  -14.8353  -15.8292 N   0  0  0  0  0  0  0  0  0  0  0  0
   11.2503  -13.1941  -14.2554 N   0  0  0  0  0  0  0  0  0  0  0  0
   12.1664  -12.1828  -14.6679 C   0  0  0  0  0  0  0  0  0  0  0  0
   13.5048  -12.3405  -13.9391 C   0  0  0  0  0  0  0  0  0  0  0  0
   14.5085  -11.3012  -14.3739 C   0  0  0  0  0  0  0  0  0  0  0  0
   15.3227  -11.6893  -15.5390 C   0  0  2  0  0  0  0  0  0  0  0  0
   15.7858  -13.0603  -15.4991 N   0  0  0  0  0  0  0  0  0  0  0  0
   16.3869  -10.7956  -15.9837 C   0  0  0  0  0  0  0  0  0  0  0  0
   17.5971  -11.0213  -15.6071 O   0  0  0  0  0  0  0  0  0  0  0  0
   10.3363  -14.0615  -16.3723 O   0  0  0  0  0  0  0  0  0  0  0  0
   15.8588   -7.7047  -18.6589 C   0  0  0  0  0  0  0  0  0  0  0  0
   17.0897   -8.3458  -18.6288 C   0  0  1  0  0  0  0  0  0  0  0  0
   17.4034   -8.8642  -17.2433 N   0  0  0  0  0  0  0  0  0  0  0  0
   16.2606   -9.6518  -16.8122 C   0  0  0  0  0  0  0  0  0  0  0  0
   17.6091   -7.6846  -16.3538 O   0  0  0  0  0  0  0  0  0  0  0  0
   16.6618   -7.2562  -15.6464 N   0  0  0  0  0  0  0  0  0  0  0  0
   18.8688   -7.0300  -16.2906 C   0  0  1  0  0  0  0  0  0  0  0  0
   19.1100   -5.8890  -15.4149 C   0  0  0  0  0  0  0  0  0  0  0  0
   20.5462   -5.9509  -14.9806 C   0  0  0  0  0  0  0  0  0  0  0  0
   20.9850   -4.8603  -14.0706 C   0  0  0  0  0  0  0  0  0  0  0  0
   22.4225   -4.8570  -13.7494 O   0  0  0  0  0  0  0  0  0  0  0  0
   23.1786   -5.8395  -13.9505 C   0  0  0  0  0  0  0  0  0  0  0  0
   18.7552   -4.6151  -16.0802 O   0  0  0  0  0  0  0  0  0  0  0  0
   18.7937   -4.5336  -17.3323 O   0  0  0  0  0  0  0  0  0  0  0  0
   23.0001   -3.7317  -13.1967 O   0  0  0  0  0  0  0  0  0  0  0  0
  2  3  2  0
  2  1  1  0
  4  2  1  0
  5  4  1  0
  6  5  1  0
  7  6  1  0
  8  7  1  0
  8 10  1  0
  8  9  1  1
 10 11  2  0
 13 12  1  0
 14 13  1  6
 15 10  1  0
 15 14  1  0
 16 14  1  0
 16 17  2  0
 18 16  1  0
 19 24  1  0
 19 18  1  0
 19 20  1  6
 21 20  1  0
 22 21  1  0
 23 22  2  0
 24 27  1  0
 25 24  2  0
 26 22  1  0
M  END
$$$$
