RSE.pdb
     RDKit          3D

 27 26  0  0  1  0  0  0  0  0999 V2000
   30.7925  -20.9672  -11.3589 N   0  0  0  0  0  0  0  0  0  0  0  0
   31.0430  -21.5848  -10.1061 C   0  0  0  0  0  0  0  0  0  0  0  0
   32.1573  -22.2251   -9.8820 N   0  0  0  0  0  0  0  0  0  0  0  0
   30.1036  -21.5372   -9.0439 N   0  0  0  0  0  0  0  0  0  0  0  0
   28.8251  -20.9334   -9.2248 C   0  0  0  0  0  0  0  0  0  0  0  0
   28.0617  -21.6218  -10.3609 C   0  0  0  0  0  0  0  0  0  0  0  0
   26.7451  -20.9425  -10.6471 C   0  0  0  0  0  0  0  0  0  0  0  0
   25.9522  -21.5746  -11.7161 C   0  0  2  0  0  0  0  0  0  0  0  0
   26.7111  -22.4849  -12.5476 N   0  0  0  0  0  0  0  0  0  0  0  0
   25.0741  -20.7398  -12.5291 C   0  0  0  0  0  0  0  0  0  0  0  0
   24.1719  -20.0257  -11.9515 O   0  0  0  0  0  0  0  0  0  0  0  0
   32.2705  -22.6988   -8.9591 O   0  0  0  0  0  0  0  0  0  0  0  0
   24.8950  -20.9513  -16.5802 C   0  0  0  0  0  0  0  0  0  0  0  0
   24.6024  -19.6859  -16.0902 C   0  0  1  0  0  0  0  0  0  0  0  0
   24.1435  -19.7485  -14.6507 N   0  0  0  0  0  0  0  0  0  0  0  0
   25.0776  -20.6061  -13.9407 C   0  0  0  0  0  0  0  0  0  0  0  0
   22.7682  -20.3259  -14.6382 O   0  0  0  0  0  0  0  0  0  0  0  0
   22.5979  -21.5418  -14.3662 N   0  0  0  0  0  0  0  0  0  0  0  0
   21.6358  -19.5187  -14.9306 C   0  0  1  0  0  0  0  0  0  0  0  0
   20.2824  -20.0606  -14.9684 C   0  0  0  0  0  0  0  0  0  0  0  0
   19.4282  -19.1998  -14.0827 C   0  0  0  0  0  0  0  0  0  0  0  0
   17.9799  -19.5350  -14.0721 C   0  0  0  0  0  0  0  0  0  0  0  0
   17.1461  -18.6700  -13.2200 O   0  0  0  0  0  0  0  0  0  0  0  0
   17.6128  -17.7584  -12.4929 C   0  0  0  0  0  0  0  0  0  0  0  0
   19.7775  -20.1521  -16.3569 O   0  0  0  0  0  0  0  0  0  0  0  0
   20.2028  -19.3554  -17.2289 O   0  0  0  0  0  0  0  0  0  0  0  0
   15.7771  -18.8447  -13.1952 O   0  0  0  0  0  0  0  0  0  0  0  0
  2  3  2  0
  2  1  1  0
  4  2  1  0
  5  4  1  0
  6  5  1  0
  7  6  1  0
  8  7  1  0
  8 10  1  0
  8  9  1  6
 10 11  2  0
 13 12  1  0
 14 13  1  1
 15 10  1  0
 15 14  1  0
 16 14  1  0
 16 17  2  0
 18 16  1  0
 19 24  1  0
 19 18  1  0
 19 20  1  6
 21 20  1  0
 22 21  1  0
 23 22  2  0
 24 27  1  0
 25 24  2  0
 26 22  1  0
M  END
$$$$
