RSE.pdb
     RDKit          3D

 27 26  0  0  1  0  0  0  0  0999 V2000
   27.0501  -15.8787  -14.5454 N   0  0  0  0  0  0  0  0  0  0  0  0
   27.0515  -15.9627  -15.9620 C   0  0  0  0  0  0  0  0  0  0  0  0
   27.5876  -16.9816  -16.5755 N   0  0  0  0  0  0  0  0  0  0  0  0
   26.4750  -14.9529  -16.7750 N   0  0  0  0  0  0  0  0  0  0  0  0
   25.7112  -13.8967  -16.1977 C   0  0  0  0  0  0  0  0  0  0  0  0
   24.3213  -14.3980  -15.7928 C   0  0  0  0  0  0  0  0  0  0  0  0
   23.4442  -13.2788  -15.2878 C   0  0  0  0  0  0  0  0  0  0  0  0
   22.1820  -13.1110  -16.0291 C   0  0  2  0  0  0  0  0  0  0  0  0
   22.1286  -13.8544  -17.2702 N   0  0  0  0  0  0  0  0  0  0  0  0
   21.6429  -11.7668  -16.2066 C   0  0  0  0  0  0  0  0  0  0  0  0
   21.7643  -11.1855  -17.3489 O   0  0  0  0  0  0  0  0  0  0  0  0
   27.5720  -16.9861  -17.6189 O   0  0  0  0  0  0  0  0  0  0  0  0
   18.4124   -8.4079  -15.0980 C   0  0  0  0  0  0  0  0  0  0  0  0
   19.0285   -9.6354  -14.8962 C   0  0  1  0  0  0  0  0  0  0  0  0
   20.3887   -9.6804  -15.5554 N   0  0  0  0  0  0  0  0  0  0  0  0
   20.9741  -10.9729  -15.2407 C   0  0  0  0  0  0  0  0  0  0  0  0
   21.2048   -8.5686  -14.9872 O   0  0  0  0  0  0  0  0  0  0  0  0
   21.8528   -8.7425  -13.9237 N   0  0  0  0  0  0  0  0  0  0  0  0
   21.2638   -7.3040  -15.6327 C   0  0  1  0  0  0  0  0  0  0  0  0
   22.0893   -6.2116  -15.1306 C   0  0  0  0  0  0  0  0  0  0  0  0
   22.2358   -5.2113  -16.2410 C   0  0  0  0  0  0  0  0  0  0  0  0
   23.0574   -4.0151  -15.9178 C   0  0  0  0  0  0  0  0  0  0  0  0
   23.1838   -3.0327  -17.0079 O   0  0  0  0  0  0  0  0  0  0  0  0
   22.7164   -3.2132  -18.1596 C   0  0  0  0  0  0  0  0  0  0  0  0
   21.5205   -5.6316  -13.8931 O   0  0  0  0  0  0  0  0  0  0  0  0
   20.2761   -5.6126  -13.7280 O   0  0  0  0  0  0  0  0  0  0  0  0
   23.8455   -1.8418  -16.7857 O   0  0  0  0  0  0  0  0  0  0  0  0
  2  3  2  0
  2  1  1  0
  4  2  1  0
  5  4  1  0
  6  5  1  0
  7  6  1  0
  8  7  1  0
  8 10  1  0
  8  9  1  6
 10 11  2  0
 13 12  1  0
 14 13  1  6
 15 10  1  0
 15 14  1  0
 16 14  1  0
 16 17  2  0
 18 16  1  0
 19 24  1  0
 19 18  1  0
 19 20  1  1
 21 20  1  0
 22 21  1  0
 23 22  2  0
 24 27  1  0
 25 24  2  0
 26 22  1  0
M  END
$$$$
