RSE.pdb
     RDKit          3D

 27 26  0  0  1  0  0  0  0  0999 V2000
    8.7507   -6.1173   -8.1494 N   0  0  0  0  0  0  0  0  0  0  0  0
    9.1065   -7.0359   -7.1280 C   0  0  0  0  0  0  0  0  0  0  0  0
    8.2148   -7.4915   -6.2918 N   0  0  0  0  0  0  0  0  0  0  0  0
   10.4370   -7.5014   -6.9664 N   0  0  0  0  0  0  0  0  0  0  0  0
   11.3766   -7.4154   -8.0349 C   0  0  0  0  0  0  0  0  0  0  0  0
   12.7273   -8.0013   -7.6111 C   0  0  0  0  0  0  0  0  0  0  0  0
   13.7630   -7.8746   -8.7011 C   0  0  0  0  0  0  0  0  0  0  0  0
   14.2236   -9.1590   -9.2572 C   0  0  2  0  0  0  0  0  0  0  0  0
   14.3233  -10.2194   -8.2767 N   0  0  0  0  0  0  0  0  0  0  0  0
   15.3790   -9.1667  -10.1482 C   0  0  0  0  0  0  0  0  0  0  0  0
   16.5595   -9.2812   -9.6476 O   0  0  0  0  0  0  0  0  0  0  0  0
    8.5335   -8.1562   -5.5531 O   0  0  0  0  0  0  0  0  0  0  0  0
   15.1991   -9.2646  -14.2888 C   0  0  0  0  0  0  0  0  0  0  0  0
   16.2858   -9.8230  -13.6297 C   0  0  1  0  0  0  0  0  0  0  0  0
   16.5958   -9.0742  -12.3530 N   0  0  0  0  0  0  0  0  0  0  0  0
   15.3769   -9.0546  -11.5618 C   0  0  0  0  0  0  0  0  0  0  0  0
   17.0149   -7.6927  -12.7281 O   0  0  0  0  0  0  0  0  0  0  0  0
   16.1617   -6.7712  -12.7928 N   0  0  0  0  0  0  0  0  0  0  0  0
   18.3745   -7.3962  -13.0164 C   0  0  1  0  0  0  0  0  0  0  0  0
   18.8088   -6.0708  -13.4422 C   0  0  0  0  0  0  0  0  0  0  0  0
   20.3046   -6.0261  -13.3183 C   0  0  0  0  0  0  0  0  0  0  0  0
   20.9447   -4.7624  -13.7697 C   0  0  0  0  0  0  0  0  0  0  0  0
   22.4175   -4.7701  -13.7559 O   0  0  0  0  0  0  0  0  0  0  0  0
   23.1001   -5.7232  -13.3054 C   0  0  0  0  0  0  0  0  0  0  0  0
   18.3259   -5.7583  -14.8062 O   0  0  0  0  0  0  0  0  0  0  0  0
   18.2291   -6.6747  -15.6587 O   0  0  0  0  0  0  0  0  0  0  0  0
   23.1146   -3.6885  -14.2556 O   0  0  0  0  0  0  0  0  0  0  0  0
  2  3  2  0
  2  1  1  0
  4  2  1  0
  5  4  1  0
  6  5  1  0
  7  6  1  0
  8  7  1  0
  8 10  1  0
  8  9  1  1
 10 11  2  0
 13 12  1  0
 14 13  1  1
 15 10  1  0
 15 14  1  0
 16 14  1  0
 16 17  2  0
 18 16  1  0
 19 24  1  0
 19 18  1  0
 19 20  1  6
 21 20  1  0
 22 21  1  0
 23 22  2  0
 24 27  1  0
 25 24  2  0
 26 22  1  0
M  END
$$$$
