RSE.pdb
     RDKit          3D

 27 26  0  0  1  0  0  0  0  0999 V2000
   22.2467  -20.7270  -10.4646 N   0  0  0  0  0  0  0  0  0  0  0  0
   23.0164  -21.0586   -9.3195 C   0  0  0  0  0  0  0  0  0  0  0  0
   22.4429  -21.3826   -8.1935 N   0  0  0  0  0  0  0  0  0  0  0  0
   24.4351  -21.0550   -9.3412 N   0  0  0  0  0  0  0  0  0  0  0  0
   25.1474  -20.7442  -10.5362 C   0  0  0  0  0  0  0  0  0  0  0  0
   26.6522  -20.9478  -10.3330 C   0  0  0  0  0  0  0  0  0  0  0  0
   27.4573  -20.3686  -11.4702 C   0  0  0  0  0  0  0  0  0  0  0  0
   27.0360  -20.8203  -12.8080 C   0  0  2  0  0  0  0  0  0  0  0  0
   28.1240  -21.3010  -13.6332 N   0  0  0  0  0  0  0  0  0  0  0  0
   26.1308  -19.9783  -13.5829 C   0  0  0  0  0  0  0  0  0  0  0  0
   25.8361  -18.8032  -13.1474 O   0  0  0  0  0  0  0  0  0  0  0  0
   23.0568  -21.5953   -7.3769 O   0  0  0  0  0  0  0  0  0  0  0  0
   25.2861  -20.5231  -17.5006 C   0  0  0  0  0  0  0  0  0  0  0  0
   25.1328  -19.2666  -16.9307 C   0  0  1  0  0  0  0  0  0  0  0  0
   24.6257  -19.3679  -15.5096 N   0  0  0  0  0  0  0  0  0  0  0  0
   25.4962  -20.2979  -14.8100 C   0  0  0  0  0  0  0  0  0  0  0  0
   23.2256  -19.8795  -15.5634 O   0  0  0  0  0  0  0  0  0  0  0  0
   22.9976  -21.1076  -15.4176 N   0  0  0  0  0  0  0  0  0  0  0  0
   22.1340  -18.9955  -15.7782 C   0  0  1  0  0  0  0  0  0  0  0  0
   20.7521  -19.4597  -15.8154 C   0  0  0  0  0  0  0  0  0  0  0  0
   19.8712  -18.2718  -15.5544 C   0  0  0  0  0  0  0  0  0  0  0  0
   19.9238  -17.7303  -14.1709 C   0  0  0  0  0  0  0  0  0  0  0  0
   19.0493  -16.5717  -13.9214 O   0  0  0  0  0  0  0  0  0  0  0  0
   18.4701  -15.9327  -14.8345 C   0  0  0  0  0  0  0  0  0  0  0  0
   20.4478  -20.1433  -17.0926 O   0  0  0  0  0  0  0  0  0  0  0  0
   19.4912  -20.9540  -17.1537 O   0  0  0  0  0  0  0  0  0  0  0  0
   18.8347  -16.1391  -12.6282 O   0  0  0  0  0  0  0  0  0  0  0  0
  2  3  2  0
  2  1  1  0
  4  2  1  0
  5  4  1  0
  6  5  1  0
  7  6  1  0
  8  7  1  0
  8 10  1  0
  8  9  1  6
 10 11  2  0
 13 12  1  0
 14 13  1  1
 15 10  1  0
 15 14  1  0
 16 14  1  0
 16 17  2  0
 18 16  1  0
 19 24  1  0
 19 18  1  0
 19 20  1  6
 21 20  1  0
 22 21  1  0
 23 22  2  0
 24 27  1  0
 25 24  2  0
 26 22  1  0
M  END
$$$$
