LQV.pdb
     RDKit          3D

 25 24  0  0  1  0  0  0  0  0999 V2000
    9.4560  -13.4068   19.9650 C   0  0  0  0  0  0  0  0  0  0  0  0
    8.2568  -13.6267   19.0942 C   0  0  2  0  0  0  0  0  0  0  0  0
    7.6669  -12.2515   18.7905 C   0  0  0  0  0  0  0  0  0  0  0  0
    7.1853  -14.4385   19.7438 C   0  0  0  0  0  0  0  0  0  0  0  0
    7.6872  -15.7953   20.1759 C   0  0  2  0  0  0  0  0  0  0  0  0
    6.9010  -16.7994   19.5271 N   0  0  0  0  0  0  0  0  0  0  0  0
    7.6081  -15.9744   21.6427 C   0  0  0  0  0  0  0  0  0  0  0  0
    6.4759  -16.0514   22.2215 O   0  0  0  0  0  0  0  0  0  0  0  0
   11.5444  -19.5463   24.4893 N   0  0  0  0  0  0  0  0  0  0  0  0
   10.9129  -18.9853   25.6486 C   0  0  0  0  0  0  0  0  0  0  0  0
   11.2331  -19.4824   26.7511 O   0  0  0  0  0  0  0  0  0  0  0  0
    9.9331  -17.8744   25.5327 C   0  0  0  0  0  0  0  0  0  0  0  0
    9.8103  -17.5249   24.0662 C   0  0  0  0  0  0  0  0  0  0  0  0
    8.7692  -16.4495   23.8378 C   0  0  2  0  0  0  0  0  0  0  0  0
    8.7723  -16.0653   22.4452 N   0  0  0  0  0  0  0  0  0  0  0  0
    9.0451  -15.2392   24.6453 C   0  0  0  0  0  0  0  0  0  0  0  0
   10.1097  -14.5726   24.4582 O   0  0  0  0  0  0  0  0  0  0  0  0
    6.9166  -12.1382   25.4152 C   0  0  0  0  0  0  0  0  0  0  0  0
    7.3434  -12.7762   26.6938 C   0  0  1  0  0  0  0  0  0  0  0  0
    6.2549  -13.6772   27.2764 C   0  0  0  0  0  0  0  0  0  0  0  0
    8.5700  -13.6658   26.5293 C   0  0  2  0  0  0  0  0  0  0  0  0
    8.1835  -14.7471   25.6481 N   0  0  0  0  0  0  0  0  0  0  0  0
    9.0733  -14.1532   27.8282 C   0  0  0  0  0  0  0  0  0  0  0  0
    8.9126  -15.3611   28.1357 O   0  0  0  0  0  0  0  0  0  0  0  0
    9.7250  -13.3420   28.7460 O   0  0  0  0  0  0  0  0  0  0  0  0
  2  1  1  1
  2  3  1  0
  4  2  1  0
  4  5  1  0
  5  7  1  0
  5  6  1  6
  7  8  2  0
  9 10  1  0
 10 12  1  0
 11 10  2  0
 12 13  1  0
 14 13  1  6
 15 14  1  0
 15  7  1  0
 16 17  2  0
 16 14  1  0
 19 18  1  6
 19 21  1  0
 20 19  1  0
 21 23  1  0
 21 22  1  6
 22 16  1  0
 23 25  1  0
 24 23  2  0
M  END
$$$$
