LQV.pdb
     RDKit          3D

 25 24  0  0  1  0  0  0  0  0999 V2000
    9.1395  -13.7119   20.3510 C   0  0  0  0  0  0  0  0  0  0  0  0
    8.1974  -13.8343   19.1924 C   0  0  2  0  0  0  0  0  0  0  0  0
    7.5602  -12.4619   18.9878 C   0  0  0  0  0  0  0  0  0  0  0  0
    7.0912  -14.8107   19.4201 C   0  0  0  0  0  0  0  0  0  0  0  0
    7.5593  -16.0287   20.1797 C   0  0  2  0  0  0  0  0  0  0  0  0
    7.1591  -17.1973   19.4575 N   0  0  0  0  0  0  0  0  0  0  0  0
    7.0008  -16.0765   21.5491 C   0  0  0  0  0  0  0  0  0  0  0  0
    5.7400  -16.1010   21.7295 O   0  0  0  0  0  0  0  0  0  0  0  0
    7.0843  -19.7778   27.6157 N   0  0  0  0  0  0  0  0  0  0  0  0
    7.3942  -19.2745   26.3088 C   0  0  0  0  0  0  0  0  0  0  0  0
    7.8597  -20.0995   25.4916 O   0  0  0  0  0  0  0  0  0  0  0  0
    7.1698  -17.8485   25.9574 C   0  0  0  0  0  0  0  0  0  0  0  0
    7.6308  -17.6519   24.5302 C   0  0  0  0  0  0  0  0  0  0  0  0
    7.3539  -16.2438   24.0470 C   0  0  2  0  0  0  0  0  0  0  0  0
    7.8362  -16.0965   22.6934 N   0  0  0  0  0  0  0  0  0  0  0  0
    8.0356  -15.2323   24.8867 C   0  0  0  0  0  0  0  0  0  0  0  0
    9.2716  -14.9910   24.7232 O   0  0  0  0  0  0  0  0  0  0  0  0
    6.6700  -11.7192   25.8017 C   0  0  0  0  0  0  0  0  0  0  0  0
    7.1579  -12.4024   27.0342 C   0  0  1  0  0  0  0  0  0  0  0  0
    6.0142  -13.0192   27.8387 C   0  0  0  0  0  0  0  0  0  0  0  0
    8.1156  -13.5494   26.7339 C   0  0  2  0  0  0  0  0  0  0  0  0
    7.3945  -14.4839   25.8961 N   0  0  0  0  0  0  0  0  0  0  0  0
    8.6231  -14.1789   27.9685 C   0  0  0  0  0  0  0  0  0  0  0  0
    8.2430  -15.3386   28.2684 O   0  0  0  0  0  0  0  0  0  0  0  0
    9.5109  -13.5545   28.8330 O   0  0  0  0  0  0  0  0  0  0  0  0
  2  1  1  1
  2  3  1  0
  4  2  1  0
  4  5  1  0
  5  7  1  0
  5  6  1  6
  7  8  2  0
  9 10  1  0
 10 12  1  0
 11 10  2  0
 12 13  1  0
 14 13  1  1
 15 14  1  0
 15  7  1  0
 16 17  2  0
 16 14  1  0
 19 18  1  6
 19 21  1  0
 20 19  1  0
 21 23  1  0
 21 22  1  6
 22 16  1  0
 23 25  1  0
 24 23  2  0
M  END
$$$$
