LQV.pdb
     RDKit          3D

 25 24  0  0  1  0  0  0  0  0999 V2000
    8.3314  -12.9646   18.3790 C   0  0  0  0  0  0  0  0  0  0  0  0
    8.2134  -13.9525   19.4992 C   0  0  2  0  0  0  0  0  0  0  0  0
    7.4530  -13.2599   20.6276 C   0  0  0  0  0  0  0  0  0  0  0  0
    9.5290  -14.3921   20.0515 C   0  0  0  0  0  0  0  0  0  0  0  0
    9.3808  -15.5440   21.0164 C   0  0  2  0  0  0  0  0  0  0  0  0
    8.2067  -16.2830   20.6663 N   0  0  0  0  0  0  0  0  0  0  0  0
    9.2767  -15.0827   22.4185 C   0  0  0  0  0  0  0  0  0  0  0  0
   10.1047  -14.2311   22.8790 O   0  0  0  0  0  0  0  0  0  0  0  0
    5.5773  -12.9047   24.8301 N   0  0  0  0  0  0  0  0  0  0  0  0
    5.8375  -13.3828   26.1571 C   0  0  0  0  0  0  0  0  0  0  0  0
    5.6469  -12.5693   27.0882 O   0  0  0  0  0  0  0  0  0  0  0  0
    6.3076  -14.7713   26.3992 C   0  0  0  0  0  0  0  0  0  0  0  0
    6.6296  -15.3854   25.0550 C   0  0  0  0  0  0  0  0  0  0  0  0
    8.0486  -15.0734   24.6285 C   0  0  2  0  0  0  0  0  0  0  0  0
    8.2666  -15.5645   23.2876 N   0  0  0  0  0  0  0  0  0  0  0  0
    9.0422  -15.7181   25.5174 C   0  0  0  0  0  0  0  0  0  0  0  0
    9.6064  -16.8013   25.1693 O   0  0  0  0  0  0  0  0  0  0  0  0
   11.2494  -13.4414   27.9774 C   0  0  0  0  0  0  0  0  0  0  0  0
   10.9110  -14.7600   28.5862 C   0  0  1  0  0  0  0  0  0  0  0  0
    9.7407  -14.6568   29.5638 C   0  0  0  0  0  0  0  0  0  0  0  0
   10.4932  -15.7984   27.5518 C   0  0  2  0  0  0  0  0  0  0  0  0
    9.4283  -15.2034   26.7728 N   0  0  0  0  0  0  0  0  0  0  0  0
   10.0846  -17.0686   28.1825 C   0  0  0  0  0  0  0  0  0  0  0  0
    8.8671  -17.3794   28.2066 O   0  0  0  0  0  0  0  0  0  0  0  0
   10.9814  -17.9556   28.7607 O   0  0  0  0  0  0  0  0  0  0  0  0
  2  1  1  6
  2  3  1  0
  4  2  1  0
  4  5  1  0
  5  7  1  0
  5  6  1  6
  7  8  2  0
  9 10  1  0
 10 12  1  0
 11 10  2  0
 12 13  1  0
 14 13  1  1
 15 14  1  0
 15  7  1  0
 16 17  2  0
 16 14  1  0
 19 18  1  6
 19 21  1  0
 20 19  1  0
 21 23  1  0
 21 22  1  1
 22 16  1  0
 23 25  1  0
 24 23  2  0
M  END
$$$$
