LQV.pdb
     RDKit          3D

 25 24  0  0  1  0  0  0  0  0999 V2000
    9.3397  -13.8536   19.9562 C   0  0  0  0  0  0  0  0  0  0  0  0
    8.0001  -13.9466   19.2916 C   0  0  2  0  0  0  0  0  0  0  0  0
    7.5768  -12.5228   18.9382 C   0  0  0  0  0  0  0  0  0  0  0  0
    6.9365  -14.5247   20.1653 C   0  0  0  0  0  0  0  0  0  0  0  0
    7.3229  -15.8809   20.7048 C   0  0  2  0  0  0  0  0  0  0  0  0
    6.6497  -16.8844   19.9386 N   0  0  0  0  0  0  0  0  0  0  0  0
    6.9715  -16.0295   22.1345 C   0  0  0  0  0  0  0  0  0  0  0  0
    5.7606  -15.9190   22.5144 O   0  0  0  0  0  0  0  0  0  0  0  0
    7.3394  -20.7685   25.0070 N   0  0  0  0  0  0  0  0  0  0  0  0
    7.1586  -19.9555   26.1748 C   0  0  0  0  0  0  0  0  0  0  0  0
    6.9107  -20.5616   27.2408 O   0  0  0  0  0  0  0  0  0  0  0  0
    7.2627  -18.4749   26.1085 C   0  0  0  0  0  0  0  0  0  0  0  0
    7.5098  -18.0986   24.6645 C   0  0  0  0  0  0  0  0  0  0  0  0
    7.6588  -16.6008   24.4995 C   0  0  2  0  0  0  0  0  0  0  0  0
    7.9551  -16.2964   23.1189 N   0  0  0  0  0  0  0  0  0  0  0  0
    8.7604  -16.0648   25.3313 C   0  0  0  0  0  0  0  0  0  0  0  0
    9.9675  -16.3484   25.0568 O   0  0  0  0  0  0  0  0  0  0  0  0
    8.8372  -12.4757   26.7089 C   0  0  0  0  0  0  0  0  0  0  0  0
    9.2939  -13.3951   27.7905 C   0  0  1  0  0  0  0  0  0  0  0  0
    8.2072  -13.6317   28.8389 C   0  0  0  0  0  0  0  0  0  0  0  0
    9.6723  -14.7769   27.2705 C   0  0  2  0  0  0  0  0  0  0  0  0
    8.5680  -15.2290   26.4514 N   0  0  0  0  0  0  0  0  0  0  0  0
    9.9756  -15.7136   28.3700 C   0  0  0  0  0  0  0  0  0  0  0  0
    9.1589  -16.6299   28.6399 O   0  0  0  0  0  0  0  0  0  0  0  0
   11.1298  -15.6408   29.1367 O   0  0  0  0  0  0  0  0  0  0  0  0
  2  1  1  1
  2  3  1  0
  4  2  1  0
  4  5  1  0
  5  7  1  0
  5  6  1  6
  7  8  2  0
  9 10  1  0
 10 12  1  0
 11 10  2  0
 12 13  1  0
 14 13  1  6
 15 14  1  0
 15  7  1  0
 16 17  2  0
 16 14  1  0
 19 18  1  6
 19 21  1  0
 20 19  1  0
 21 23  1  0
 21 22  1  1
 22 16  1  0
 23 25  1  0
 24 23  2  0
M  END
$$$$
