LQV.pdb
     RDKit          3D

 25 24  0  0  1  0  0  0  0  0999 V2000
    9.5977  -13.4321   19.8093 C   0  0  0  0  0  0  0  0  0  0  0  0
    8.3829  -13.6997   18.9743 C   0  0  2  0  0  0  0  0  0  0  0  0
    7.7198  -12.3510   18.7050 C   0  0  0  0  0  0  0  0  0  0  0  0
    7.3720  -14.5677   19.6478 C   0  0  0  0  0  0  0  0  0  0  0  0
    7.9922  -15.8211   20.2172 C   0  0  2  0  0  0  0  0  0  0  0  0
    7.7195  -16.9084   19.3280 N   0  0  0  0  0  0  0  0  0  0  0  0
    7.4662  -16.1375   21.5636 C   0  0  0  0  0  0  0  0  0  0  0  0
    6.2106  -16.2238   21.7601 O   0  0  0  0  0  0  0  0  0  0  0  0
    5.2252  -19.6763   23.5633 N   0  0  0  0  0  0  0  0  0  0  0  0
    6.4005  -19.3767   24.3291 C   0  0  0  0  0  0  0  0  0  0  0  0
    6.2614  -19.3478   25.5721 O   0  0  0  0  0  0  0  0  0  0  0  0
    7.7062  -19.1167   23.6696 C   0  0  0  0  0  0  0  0  0  0  0  0
    8.3887  -18.0023   24.4314 C   0  0  0  0  0  0  0  0  0  0  0  0
    7.8723  -16.6436   24.0072 C   0  0  2  0  0  0  0  0  0  0  0  0
    8.3280  -16.3529   22.6676 N   0  0  0  0  0  0  0  0  0  0  0  0
    8.3628  -15.5680   24.8991 C   0  0  0  0  0  0  0  0  0  0  0  0
    9.5693  -15.1778   24.8296 O   0  0  0  0  0  0  0  0  0  0  0  0
    7.3779  -11.9137   28.0775 C   0  0  0  0  0  0  0  0  0  0  0  0
    6.9517  -13.0263   27.1806 C   0  0  1  0  0  0  0  0  0  0  0  0
    6.3487  -12.5109   25.8743 C   0  0  0  0  0  0  0  0  0  0  0  0
    8.1080  -13.9312   26.7717 C   0  0  2  0  0  0  0  0  0  0  0  0
    7.5631  -14.9149   25.8603 N   0  0  0  0  0  0  0  0  0  0  0  0
    8.7609  -14.5508   27.9412 C   0  0  0  0  0  0  0  0  0  0  0  0
    8.4890  -15.7414   28.2381 O   0  0  0  0  0  0  0  0  0  0  0  0
    9.6734  -13.8845   28.7466 O   0  0  0  0  0  0  0  0  0  0  0  0
  2  1  1  1
  2  3  1  0
  4  2  1  0
  4  5  1  0
  5  7  1  0
  5  6  1  6
  7  8  2  0
  9 10  1  0
 10 12  1  0
 11 10  2  0
 12 13  1  0
 14 13  1  1
 15 14  1  0
 15  7  1  0
 16 17  2  0
 16 14  1  0
 19 18  1  1
 19 21  1  0
 20 19  1  0
 21 23  1  0
 21 22  1  6
 22 16  1  0
 23 25  1  0
 24 23  2  0
M  END
$$$$
