LQV.pdb
     RDKit          3D

 25 24  0  0  1  0  0  0  0  0999 V2000
    9.3463  -13.2818   20.2622 C   0  0  0  0  0  0  0  0  0  0  0  0
    8.4254  -13.5368   19.1083 C   0  0  2  0  0  0  0  0  0  0  0  0
    7.6551  -12.2427   18.8567 C   0  0  0  0  0  0  0  0  0  0  0  0
    7.4212  -14.6105   19.3690 C   0  0  0  0  0  0  0  0  0  0  0  0
    8.0622  -15.8639   19.9148 C   0  0  2  0  0  0  0  0  0  0  0  0
    7.5424  -16.9893   19.2004 N   0  0  0  0  0  0  0  0  0  0  0  0
    7.8046  -16.0331   21.3621 C   0  0  0  0  0  0  0  0  0  0  0  0
    6.6111  -16.1315   21.7962 O   0  0  0  0  0  0  0  0  0  0  0  0
   10.8393  -19.8719   24.9269 N   0  0  0  0  0  0  0  0  0  0  0  0
   10.5989  -18.8317   25.8847 C   0  0  0  0  0  0  0  0  0  0  0  0
   11.2238  -18.9160   26.9653 O   0  0  0  0  0  0  0  0  0  0  0  0
    9.6563  -17.7199   25.5970 C   0  0  0  0  0  0  0  0  0  0  0  0
    9.6587  -17.4946   24.1013 C   0  0  0  0  0  0  0  0  0  0  0  0
    8.6842  -16.4063   23.7029 C   0  0  2  0  0  0  0  0  0  0  0  0
    8.8613  -16.0908   22.3044 N   0  0  0  0  0  0  0  0  0  0  0  0
    8.9005  -15.1652   24.4813 C   0  0  0  0  0  0  0  0  0  0  0  0
   10.0171  -14.5624   24.4296 O   0  0  0  0  0  0  0  0  0  0  0  0
    5.8102  -13.3117   26.8505 C   0  0  0  0  0  0  0  0  0  0  0  0
    6.9496  -12.5934   26.2103 C   0  0  1  0  0  0  0  0  0  0  0  0
    7.3290  -11.3247   26.9734 C   0  0  0  0  0  0  0  0  0  0  0  0
    8.2196  -13.4340   26.1515 C   0  0  2  0  0  0  0  0  0  0  0  0
    7.9241  -14.5743   25.3105 N   0  0  0  0  0  0  0  0  0  0  0  0
    8.6773  -13.8326   27.4968 C   0  0  0  0  0  0  0  0  0  0  0  0
    8.4657  -15.0054   27.8957 O   0  0  0  0  0  0  0  0  0  0  0  0
    9.3392  -12.9736   28.3623 O   0  0  0  0  0  0  0  0  0  0  0  0
  2  1  1  1
  2  3  1  0
  4  2  1  0
  4  5  1  0
  5  7  1  0
  5  6  1  6
  7  8  2  0
  9 10  1  0
 10 12  1  0
 11 10  2  0
 12 13  1  0
 14 13  1  1
 15 14  1  0
 15  7  1  0
 16 17  2  0
 16 14  1  0
 19 18  1  1
 19 21  1  0
 20 19  1  0
 21 23  1  0
 21 22  1  6
 22 16  1  0
 23 25  1  0
 24 23  2  0
M  END
$$$$
