LQV.pdb
     RDKit          3D

 25 24  0  0  1  0  0  0  0  0999 V2000
    9.6358  -12.8683   19.7083 C   0  0  0  0  0  0  0  0  0  0  0  0
    8.4931  -13.2762   18.8293 C   0  0  2  0  0  0  0  0  0  0  0  0
    7.6240  -12.0379   18.6228 C   0  0  0  0  0  0  0  0  0  0  0  0
    7.6265  -14.3355   19.4259 C   0  0  0  0  0  0  0  0  0  0  0  0
    8.4341  -15.5003   19.9461 C   0  0  2  0  0  0  0  0  0  0  0  0
    8.2123  -16.6260   19.0913 N   0  0  0  0  0  0  0  0  0  0  0  0
    8.0672  -15.8526   21.3356 C   0  0  0  0  0  0  0  0  0  0  0  0
    6.8837  -16.2344   21.6116 O   0  0  0  0  0  0  0  0  0  0  0  0
   11.3742  -19.7245   23.0624 N   0  0  0  0  0  0  0  0  0  0  0  0
   10.1483  -19.3218   22.4360 C   0  0  0  0  0  0  0  0  0  0  0  0
   10.0675  -19.5089   21.2016 O   0  0  0  0  0  0  0  0  0  0  0  0
    9.0421  -18.7166   23.2217 C   0  0  0  0  0  0  0  0  0  0  0  0
    9.6054  -17.5210   23.9574 C   0  0  0  0  0  0  0  0  0  0  0  0
    8.7654  -16.2823   23.7273 C   0  0  2  0  0  0  0  0  0  0  0  0
    9.0057  -15.7792   22.3947 N   0  0  0  0  0  0  0  0  0  0  0  0
    9.1008  -15.2066   24.6882 C   0  0  0  0  0  0  0  0  0  0  0  0
   10.2535  -14.6738   24.6775 O   0  0  0  0  0  0  0  0  0  0  0  0
    6.9468  -12.1014   25.6979 C   0  0  0  0  0  0  0  0  0  0  0  0
    7.3952  -12.8464   26.9094 C   0  0  1  0  0  0  0  0  0  0  0  0
    6.3109  -13.7834   27.4404 C   0  0  0  0  0  0  0  0  0  0  0  0
    8.6089  -13.7294   26.6443 C   0  0  2  0  0  0  0  0  0  0  0  0
    8.2041  -14.7054   25.6551 N   0  0  0  0  0  0  0  0  0  0  0  0
    9.1108  -14.3590   27.8812 C   0  0  0  0  0  0  0  0  0  0  0  0
    8.9212  -15.5875   28.0663 O   0  0  0  0  0  0  0  0  0  0  0  0
    9.7919  -13.6622   28.8690 O   0  0  0  0  0  0  0  0  0  0  0  0
  2  1  1  1
  2  3  1  0
  4  2  1  0
  4  5  1  0
  5  7  1  0
  5  6  1  6
  7  8  2  0
  9 10  1  0
 10 12  1  0
 11 10  2  0
 12 13  1  0
 14 13  1  1
 15 14  1  0
 15  7  1  0
 16 17  2  0
 16 14  1  0
 19 18  1  6
 19 21  1  0
 20 19  1  0
 21 23  1  0
 21 22  1  6
 22 16  1  0
 23 25  1  0
 24 23  2  0
M  END
$$$$
