LQV.pdb
     RDKit          3D

 25 24  0  0  1  0  0  0  0  0999 V2000
    9.4363  -13.8387   19.5239 C   0  0  0  0  0  0  0  0  0  0  0  0
    8.0024  -13.8596   19.0901 C   0  0  2  0  0  0  0  0  0  0  0  0
    7.6051  -12.4161   18.7904 C   0  0  0  0  0  0  0  0  0  0  0  0
    7.0675  -14.3722   20.1352 C   0  0  0  0  0  0  0  0  0  0  0  0
    7.6456  -15.5499   20.8826 C   0  0  2  0  0  0  0  0  0  0  0  0
    7.1909  -16.7537   20.2572 N   0  0  0  0  0  0  0  0  0  0  0  0
    7.2484  -15.5509   22.3081 C   0  0  0  0  0  0  0  0  0  0  0  0
    6.4793  -14.6427   22.7625 O   0  0  0  0  0  0  0  0  0  0  0  0
    7.2701  -21.3715   24.2086 N   0  0  0  0  0  0  0  0  0  0  0  0
    6.7292  -20.3345   25.0388 C   0  0  0  0  0  0  0  0  0  0  0  0
    6.4949  -20.6409   26.2290 O   0  0  0  0  0  0  0  0  0  0  0  0
    6.4659  -18.9742   24.5023 C   0  0  0  0  0  0  0  0  0  0  0  0
    7.4997  -18.0420   25.0939 C   0  0  0  0  0  0  0  0  0  0  0  0
    7.3165  -16.6236   24.5965 C   0  0  2  0  0  0  0  0  0  0  0  0
    7.7027  -16.5478   23.2066 N   0  0  0  0  0  0  0  0  0  0  0  0
    8.1521  -15.6646   25.3549 C   0  0  0  0  0  0  0  0  0  0  0  0
    9.4136  -15.6580   25.2086 O   0  0  0  0  0  0  0  0  0  0  0  0
    7.5417  -11.8747   25.7656 C   0  0  0  0  0  0  0  0  0  0  0  0
    7.7759  -12.4906   27.1034 C   0  0  1  0  0  0  0  0  0  0  0  0
    6.4678  -12.7716   27.8423 C   0  0  0  0  0  0  0  0  0  0  0  0
    8.4970  -13.8307   27.0186 C   0  0  2  0  0  0  0  0  0  0  0  0
    7.6369  -14.7181   26.2652 N   0  0  0  0  0  0  0  0  0  0  0  0
    8.8219  -14.3652   28.3553 C   0  0  0  0  0  0  0  0  0  0  0  0
    8.2030  -15.3725   28.7817 O   0  0  0  0  0  0  0  0  0  0  0  0
    9.7875  -13.8114   29.1837 O   0  0  0  0  0  0  0  0  0  0  0  0
  2  1  1  1
  2  3  1  0
  4  2  1  0
  4  5  1  0
  5  7  1  0
  5  6  1  6
  7  8  2  0
  9 10  1  0
 10 12  1  0
 11 10  2  0
 12 13  1  0
 14 13  1  1
 15 14  1  0
 15  7  1  0
 16 17  2  0
 16 14  1  0
 19 18  1  6
 19 21  1  0
 20 19  1  0
 21 23  1  0
 21 22  1  1
 22 16  1  0
 23 25  1  0
 24 23  2  0
M  END
$$$$
