HTH.pdb
     RDKit          3D

 28 29  0  0  1  0  0  0  0  0999 V2000
   33.9025  -37.4928   -9.0054 N   0  0  0  0  0  0  0  0  0  0  0  0
   33.6310  -36.3971   -8.1282 C   0  0  1  0  0  0  0  0  0  0  0  0
   33.2963  -35.1543   -8.9254 C   0  0  0  0  0  0  0  0  0  0  0  0
   34.4921  -34.6513   -9.6354 C   0  0  0  0  0  0  0  0  0  0  0  0
   35.8005  -35.1002   -9.5454 C   0  0  0  0  0  0  0  0  0  0  0  0
   36.5176  -34.3345  -10.3737 N   0  0  0  0  0  0  0  0  0  0  0  0
   35.7175  -33.4347  -10.9711 C   0  0  0  0  0  0  0  0  0  0  0  0
   34.4758  -33.6272  -10.5200 N   0  0  0  0  0  0  0  0  0  0  0  0
   32.4901  -36.6873   -7.2013 C   0  0  0  0  0  0  0  0  0  0  0  0
   31.5138  -37.3440   -7.6461 O   0  0  0  0  0  0  0  0  0  0  0  0
   32.4418  -38.6412   -4.1309 C   0  0  0  0  0  0  0  0  0  0  0  0
   31.8621  -37.2881   -3.7526 C   0  0  1  0  0  0  0  0  0  0  0  0
   32.8569  -36.5320   -3.1575 O   0  0  0  0  0  0  0  0  0  0  0  0
   31.3546  -36.5576   -5.0064 C   0  0  2  0  0  0  0  0  0  0  0  0
   32.4949  -36.2416   -5.8580 N   0  0  0  0  0  0  0  0  0  0  0  0
   30.5721  -35.3694   -4.6786 C   0  0  0  0  0  0  0  0  0  0  0  0
   31.0805  -34.2256   -4.4654 O   0  0  0  0  0  0  0  0  0  0  0  0
   29.1632  -35.4549   -4.5855 N   0  0  0  0  0  0  0  0  0  0  0  0
   28.3379  -34.2525   -4.3892 C   0  0  1  0  0  0  0  0  0  0  0  0
   27.0841  -34.5155   -5.1916 C   0  0  0  0  0  0  0  0  0  0  0  0
   27.1800  -34.0337   -6.5986 C   0  0  0  0  0  0  0  0  0  0  0  0
   28.2841  -33.4973   -7.1854 C   0  0  0  0  0  0  0  0  0  0  0  0
   27.9692  -33.1801   -8.4483 N   0  0  0  0  0  0  0  0  0  0  0  0
   26.6960  -33.5071   -8.6575 C   0  0  0  0  0  0  0  0  0  0  0  0
   26.2014  -34.0329   -7.5262 N   0  0  0  0  0  0  0  0  0  0  0  0
   27.9792  -34.2103   -2.9540 C   0  0  0  0  0  0  0  0  0  0  0  0
   27.3041  -33.2734   -2.4394 O   0  0  0  0  0  0  0  0  0  0  0  0
   28.3670  -35.2115   -2.0680 O   0  0  0  0  0  0  0  0  0  0  0  0
  2  1  1  6
  2  9  1  0
  3  2  1  0
  3  4  1  0
  4  5  2  0
  5  6  1  0
  7  6  1  0
  8  4  1  0
  8  7  2  0
  9 10  2  0
 12 11  1  6
 12 14  1  0
 13 12  1  0
 14 16  1  0
 14 15  1  6
 15  9  1  0
 16 17  2  0
 16 18  1  0
 18 19  1  0
 19 26  1  0
 19 20  1  6
 21 20  1  0
 21 22  2  0
 23 22  1  0
 24 23  1  0
 25 24  2  0
 25 21  1  0
 26 27  2  0
 26 28  1  0
M  END
$$$$
