HTH.pdb
     RDKit          3D

 28 29  0  0  1  0  0  0  0  0999 V2000
   22.8923  -13.2044  -21.5887 N   0  0  0  0  0  0  0  0  0  0  0  0
   21.6857  -12.5089  -21.2658 C   0  0  1  0  0  0  0  0  0  0  0  0
   20.5839  -12.8884  -22.2324 C   0  0  0  0  0  0  0  0  0  0  0  0
   20.9377  -12.4873  -23.6112 C   0  0  0  0  0  0  0  0  0  0  0  0
   20.6196  -11.3134  -24.2760 C   0  0  0  0  0  0  0  0  0  0  0  0
   21.1593  -11.4143  -25.4947 N   0  0  0  0  0  0  0  0  0  0  0  0
   21.7953  -12.5923  -25.6160 C   0  0  0  0  0  0  0  0  0  0  0  0
   21.6607  -13.2514  -24.4628 N   0  0  0  0  0  0  0  0  0  0  0  0
   21.2188  -12.8079  -19.8738 C   0  0  0  0  0  0  0  0  0  0  0  0
   21.3717  -13.9759  -19.4324 O   0  0  0  0  0  0  0  0  0  0  0  0
   22.2120  -11.0704  -16.6966 C   0  0  0  0  0  0  0  0  0  0  0  0
   20.6929  -11.0806  -16.7430 C   0  0  1  0  0  0  0  0  0  0  0  0
   20.2560   -9.8434  -17.1836 O   0  0  0  0  0  0  0  0  0  0  0  0
   20.1976  -12.1655  -17.7131 C   0  0  2  0  0  0  0  0  0  0  0  0
   20.6196  -11.8141  -19.0636 N   0  0  0  0  0  0  0  0  0  0  0  0
   18.7546  -12.3704  -17.6279 C   0  0  0  0  0  0  0  0  0  0  0  0
   17.9242  -11.9027  -18.4667 O   0  0  0  0  0  0  0  0  0  0  0  0
   18.2104  -13.1296  -16.5656 N   0  0  0  0  0  0  0  0  0  0  0  0
   16.7644  -13.3871  -16.4755 C   0  0  1  0  0  0  0  0  0  0  0  0
   16.6479  -14.5966  -15.5762 C   0  0  0  0  0  0  0  0  0  0  0  0
   15.2433  -15.0654  -15.4080 C   0  0  0  0  0  0  0  0  0  0  0  0
   14.1411  -14.5054  -15.9761 C   0  0  0  0  0  0  0  0  0  0  0  0
   13.0696  -15.2038  -15.5777 N   0  0  0  0  0  0  0  0  0  0  0  0
   13.4820  -16.1831  -14.7760 C   0  0  0  0  0  0  0  0  0  0  0  0
   14.8172  -16.1068  -14.6650 N   0  0  0  0  0  0  0  0  0  0  0  0
   16.1659  -12.2245  -15.7823 C   0  0  0  0  0  0  0  0  0  0  0  0
   16.7972  -11.5243  -14.9400 O   0  0  0  0  0  0  0  0  0  0  0  0
   14.8539  -11.8227  -16.0162 O   0  0  0  0  0  0  0  0  0  0  0  0
  2  1  1  6
  2  9  1  0
  3  2  1  0
  3  4  1  0
  4  5  2  0
  5  6  1  0
  7  6  1  0
  8  4  1  0
  8  7  2  0
  9 10  2  0
 12 11  1  6
 12 14  1  0
 13 12  1  0
 14 16  1  0
 14 15  1  6
 15  9  1  0
 16 17  2  0
 16 18  1  0
 18 19  1  0
 19 26  1  0
 19 20  1  1
 21 20  1  0
 21 22  2  0
 23 22  1  0
 24 23  1  0
 25 24  2  0
 25 21  1  0
 26 27  2  0
 26 28  1  0
M  END
$$$$
