HTH.pdb
     RDKit          3D

 28 29  0  0  1  0  0  0  0  0999 V2000
   27.2576   -3.6129  -20.6213 N   0  0  0  0  0  0  0  0  0  0  0  0
   26.5141   -4.8248  -20.4711 C   0  0  1  0  0  0  0  0  0  0  0  0
   27.4506   -5.9930  -20.2464 C   0  0  0  0  0  0  0  0  0  0  0  0
   28.2381   -6.2733  -21.4663 C   0  0  0  0  0  0  0  0  0  0  0  0
   27.8206   -6.8770  -22.6422 C   0  0  0  0  0  0  0  0  0  0  0  0
   28.8870   -6.9072  -23.4476 N   0  0  0  0  0  0  0  0  0  0  0  0
   29.9427   -6.3521  -22.8279 C   0  0  0  0  0  0  0  0  0  0  0  0
   29.5472   -5.9630  -21.6136 N   0  0  0  0  0  0  0  0  0  0  0  0
   25.5550   -4.7582  -19.3219 C   0  0  0  0  0  0  0  0  0  0  0  0
   25.9538   -4.2510  -18.2421 O   0  0  0  0  0  0  0  0  0  0  0  0
   22.5724   -2.8887  -19.0682 C   0  0  0  0  0  0  0  0  0  0  0  0
   22.1269   -4.2873  -18.6740 C   0  0  1  0  0  0  0  0  0  0  0  0
   21.4925   -4.8705  -19.7569 O   0  0  0  0  0  0  0  0  0  0  0  0
   23.3429   -5.1419  -18.2811 C   0  0  2  0  0  0  0  0  0  0  0  0
   24.2318   -5.2484  -19.4317 N   0  0  0  0  0  0  0  0  0  0  0  0
   22.9578   -6.4524  -17.7654 C   0  0  0  0  0  0  0  0  0  0  0  0
   22.8733   -7.4966  -18.4828 O   0  0  0  0  0  0  0  0  0  0  0  0
   22.6553   -6.6104  -16.3927 N   0  0  0  0  0  0  0  0  0  0  0  0
   22.1330   -7.8824  -15.8688 C   0  0  1  0  0  0  0  0  0  0  0  0
   23.2458   -8.4226  -15.0000 C   0  0  0  0  0  0  0  0  0  0  0  0
   22.8894   -9.7019  -14.3237 C   0  0  0  0  0  0  0  0  0  0  0  0
   21.7000  -10.3546  -14.4257 C   0  0  0  0  0  0  0  0  0  0  0  0
   21.7653  -11.4557  -13.6654 N   0  0  0  0  0  0  0  0  0  0  0  0
   22.9669  -11.5003  -13.0947 C   0  0  0  0  0  0  0  0  0  0  0  0
   23.6660  -10.4263  -13.4929 N   0  0  0  0  0  0  0  0  0  0  0  0
   20.9799   -7.5468  -15.0038 C   0  0  0  0  0  0  0  0  0  0  0  0
   20.8996   -6.4676  -14.3503 O   0  0  0  0  0  0  0  0  0  0  0  0
   19.8970   -8.4082  -14.8527 O   0  0  0  0  0  0  0  0  0  0  0  0
  2  1  1  1
  2  9  1  0
  3  2  1  0
  3  4  1  0
  4  5  2  0
  5  6  1  0
  7  6  1  0
  8  4  1  0
  8  7  2  0
  9 10  2  0
 12 11  1  6
 12 14  1  0
 13 12  1  0
 14 16  1  0
 14 15  1  6
 15  9  1  0
 16 17  2  0
 16 18  1  0
 18 19  1  0
 19 26  1  0
 19 20  1  1
 21 20  1  0
 21 22  2  0
 23 22  1  0
 24 23  1  0
 25 24  2  0
 25 21  1  0
 26 27  2  0
 26 28  1  0
M  END
$$$$
