HTH.pdb
     RDKit          3D

 28 29  0  0  1  0  0  0  0  0999 V2000
   23.1156  -12.7210  -19.8581 N   0  0  0  0  0  0  0  0  0  0  0  0
   21.9787  -12.5886  -19.0015 C   0  0  1  0  0  0  0  0  0  0  0  0
   20.9867  -11.6080  -19.5902 C   0  0  0  0  0  0  0  0  0  0  0  0
   21.5767  -10.2545  -19.6733 C   0  0  0  0  0  0  0  0  0  0  0  0
   22.2549   -9.6733  -20.7332 C   0  0  0  0  0  0  0  0  0  0  0  0
   22.5936   -8.4438  -20.3329 N   0  0  0  0  0  0  0  0  0  0  0  0
   22.1584   -8.2363  -19.0782 C   0  0  0  0  0  0  0  0  0  0  0  0
   21.5349   -9.3448  -18.6721 N   0  0  0  0  0  0  0  0  0  0  0  0
   21.2809  -13.8969  -18.7857 C   0  0  0  0  0  0  0  0  0  0  0  0
   21.0505  -14.6213  -19.7880 O   0  0  0  0  0  0  0  0  0  0  0  0
   22.5651  -16.5831  -16.6224 C   0  0  0  0  0  0  0  0  0  0  0  0
   21.1168  -16.3769  -16.2104 C   0  0  1  0  0  0  0  0  0  0  0  0
   21.0892  -15.5939  -15.0696 O   0  0  0  0  0  0  0  0  0  0  0  0
   20.3415  -15.6643  -17.3305 C   0  0  2  0  0  0  0  0  0  0  0  0
   20.8849  -14.3215  -17.4950 N   0  0  0  0  0  0  0  0  0  0  0  0
   18.9025  -15.6447  -17.0847 C   0  0  0  0  0  0  0  0  0  0  0  0
   18.2929  -14.6754  -16.5361 O   0  0  0  0  0  0  0  0  0  0  0  0
   18.1055  -16.7492  -17.4665 N   0  0  0  0  0  0  0  0  0  0  0  0
   16.6569  -16.7694  -17.2083 C   0  0  1  0  0  0  0  0  0  0  0  0
   16.1361  -17.9145  -18.0465 C   0  0  0  0  0  0  0  0  0  0  0  0
   14.6650  -18.1126  -17.9140 C   0  0  0  0  0  0  0  0  0  0  0  0
   13.7294  -17.1271  -17.8477 C   0  0  0  0  0  0  0  0  0  0  0  0
   12.5273  -17.7050  -17.7224 N   0  0  0  0  0  0  0  0  0  0  0  0
   12.6963  -19.0252  -17.7094 C   0  0  0  0  0  0  0  0  0  0  0  0
   14.0073  -19.2864  -17.8266 N   0  0  0  0  0  0  0  0  0  0  0  0
   16.4826  -17.1134  -15.7794 C   0  0  0  0  0  0  0  0  0  0  0  0
   17.3992  -17.6288  -15.0776 O   0  0  0  0  0  0  0  0  0  0  0  0
   15.2838  -16.8888  -15.1086 O   0  0  0  0  0  0  0  0  0  0  0  0
  2  1  1  6
  2  9  1  0
  3  2  1  0
  3  4  1  0
  4  5  2  0
  5  6  1  0
  7  6  1  0
  8  4  1  0
  8  7  2  0
  9 10  2  0
 12 11  1  6
 12 14  1  0
 13 12  1  0
 14 16  1  0
 14 15  1  1
 15  9  1  0
 16 17  2  0
 16 18  1  0
 18 19  1  0
 19 26  1  0
 19 20  1  6
 21 20  1  0
 21 22  2  0
 23 22  1  0
 24 23  1  0
 25 24  2  0
 25 21  1  0
 26 27  2  0
 26 28  1  0
M  END
$$$$
