HTH.pdb
     RDKit          3D

 28 29  0  0  1  0  0  0  0  0999 V2000
   27.3344  -20.1841  -16.4355 N   0  0  0  0  0  0  0  0  0  0  0  0
   26.4069  -19.4187  -15.6623 C   0  0  1  0  0  0  0  0  0  0  0  0
   25.6476  -18.4567  -16.5512 C   0  0  0  0  0  0  0  0  0  0  0  0
   26.5720  -17.4949  -17.1895 C   0  0  0  0  0  0  0  0  0  0  0  0
   27.7672  -16.9926  -16.6990 C   0  0  0  0  0  0  0  0  0  0  0  0
   28.2361  -16.1603  -17.6340 N   0  0  0  0  0  0  0  0  0  0  0  0
   27.3901  -16.1233  -18.6779 C   0  0  0  0  0  0  0  0  0  0  0  0
   26.3696  -16.9405  -18.4074 N   0  0  0  0  0  0  0  0  0  0  0  0
   25.4163  -20.2878  -14.9492 C   0  0  0  0  0  0  0  0  0  0  0  0
   24.9615  -21.2925  -15.5543 O   0  0  0  0  0  0  0  0  0  0  0  0
   25.9642  -21.4985  -11.4809 C   0  0  0  0  0  0  0  0  0  0  0  0
   24.4926  -21.1216  -11.5272 C   0  0  1  0  0  0  0  0  0  0  0  0
   24.3139  -19.9498  -10.8129 O   0  0  0  0  0  0  0  0  0  0  0  0
   24.0460  -20.8994  -12.9814 C   0  0  2  0  0  0  0  0  0  0  0  0
   24.9928  -20.0002  -13.6297 N   0  0  0  0  0  0  0  0  0  0  0  0
   22.6748  -20.4065  -13.0724 C   0  0  0  0  0  0  0  0  0  0  0  0
   22.3735  -19.1868  -13.2560 O   0  0  0  0  0  0  0  0  0  0  0  0
   21.5909  -21.3080  -12.9564 N   0  0  0  0  0  0  0  0  0  0  0  0
   20.1988  -20.8310  -12.9621 C   0  0  1  0  0  0  0  0  0  0  0  0
   19.9470  -20.4069  -14.3911 C   0  0  0  0  0  0  0  0  0  0  0  0
   18.5807  -19.8504  -14.6023 C   0  0  0  0  0  0  0  0  0  0  0  0
   17.7773  -19.3196  -13.6411 C   0  0  0  0  0  0  0  0  0  0  0  0
   16.6315  -18.9400  -14.2221 N   0  0  0  0  0  0  0  0  0  0  0  0
   16.7061  -19.2233  -15.5205 C   0  0  0  0  0  0  0  0  0  0  0  0
   17.9008  -19.7835  -15.7647 N   0  0  0  0  0  0  0  0  0  0  0  0
   19.3451  -22.0016  -12.6601 C   0  0  0  0  0  0  0  0  0  0  0  0
   18.2712  -21.9191  -11.9981 O   0  0  0  0  0  0  0  0  0  0  0  0
   19.6738  -23.2839  -13.0908 O   0  0  0  0  0  0  0  0  0  0  0  0
  2  1  1  6
  2  9  1  0
  3  2  1  0
  3  4  1  0
  4  5  2  0
  5  6  1  0
  7  6  1  0
  8  4  1  0
  8  7  2  0
  9 10  2  0
 12 11  1  6
 12 14  1  0
 13 12  1  0
 14 16  1  0
 14 15  1  1
 15  9  1  0
 16 17  2  0
 16 18  1  0
 18 19  1  0
 19 26  1  0
 19 20  1  6
 21 20  1  0
 21 22  2  0
 23 22  1  0
 24 23  1  0
 25 24  2  0
 25 21  1  0
 26 27  2  0
 26 28  1  0
M  END
$$$$
