HTH.pdb
     RDKit          3D

 28 29  0  0  1  0  0  0  0  0999 V2000
   23.6181  -20.8086  -16.6923 N   0  0  0  0  0  0  0  0  0  0  0  0
   23.5350  -20.3843  -15.3296 C   0  0  1  0  0  0  0  0  0  0  0  0
   24.4955  -21.1793  -14.4706 C   0  0  0  0  0  0  0  0  0  0  0  0
   24.4759  -22.6083  -14.8508 C   0  0  0  0  0  0  0  0  0  0  0  0
   23.7729  -23.2175  -15.8785 C   0  0  0  0  0  0  0  0  0  0  0  0
   24.0777  -24.5177  -15.8222 N   0  0  0  0  0  0  0  0  0  0  0  0
   24.9341  -24.7424  -14.8109 C   0  0  0  0  0  0  0  0  0  0  0  0
   25.1794  -23.5735  -14.2142 N   0  0  0  0  0  0  0  0  0  0  0  0
   23.8527  -18.9284  -15.1729 C   0  0  0  0  0  0  0  0  0  0  0  0
   23.8287  -18.4348  -14.0162 O   0  0  0  0  0  0  0  0  0  0  0  0
   26.7904  -17.0601  -15.3419 C   0  0  0  0  0  0  0  0  0  0  0  0
   25.8974  -16.3990  -16.3789 C   0  0  1  0  0  0  0  0  0  0  0  0
   26.2155  -16.9091  -17.6255 O   0  0  0  0  0  0  0  0  0  0  0  0
   24.4198  -16.6947  -16.0746 C   0  0  2  0  0  0  0  0  0  0  0  0
   24.1734  -18.1159  -16.2865 N   0  0  0  0  0  0  0  0  0  0  0  0
   23.5133  -15.8605  -16.8582 C   0  0  0  0  0  0  0  0  0  0  0  0
   22.8035  -16.2962  -17.8166 O   0  0  0  0  0  0  0  0  0  0  0  0
   23.3885  -14.4827  -16.5633 N   0  0  0  0  0  0  0  0  0  0  0  0
   22.4207  -13.6350  -17.2776 C   0  0  1  0  0  0  0  0  0  0  0  0
   21.7535  -12.8208  -16.1927 C   0  0  0  0  0  0  0  0  0  0  0  0
   20.6111  -13.5300  -15.5501 C   0  0  0  0  0  0  0  0  0  0  0  0
   20.1294  -14.7523  -15.9037 C   0  0  0  0  0  0  0  0  0  0  0  0
   19.0972  -15.0391  -15.0994 N   0  0  0  0  0  0  0  0  0  0  0  0
   18.9280  -14.0233  -14.2561 C   0  0  0  0  0  0  0  0  0  0  0  0
   19.8540  -13.0899  -14.5249 N   0  0  0  0  0  0  0  0  0  0  0  0
   23.2061  -12.7215  -18.1374 C   0  0  0  0  0  0  0  0  0  0  0  0
   24.4546  -12.5639  -18.0160 O   0  0  0  0  0  0  0  0  0  0  0  0
   22.6133  -11.9684  -19.1468 O   0  0  0  0  0  0  0  0  0  0  0  0
  2  1  1  6
  2  9  1  0
  3  2  1  0
  3  4  1  0
  4  5  2  0
  5  6  1  0
  7  6  1  0
  8  4  1  0
  8  7  2  0
  9 10  2  0
 12 11  1  1
 12 14  1  0
 13 12  1  0
 14 16  1  0
 14 15  1  6
 15  9  1  0
 16 17  2  0
 16 18  1  0
 18 19  1  0
 19 26  1  0
 19 20  1  1
 21 20  1  0
 21 22  2  0
 23 22  1  0
 24 23  1  0
 25 24  2  0
 25 21  1  0
 26 27  2  0
 26 28  1  0
M  END
$$$$
