HTH.pdb
     RDKit          3D

 28 29  0  0  1  0  0  0  0  0999 V2000
   44.3499  -11.1116   -6.4451 N   0  0  0  0  0  0  0  0  0  0  0  0
   43.3675  -10.1220   -6.1297 C   0  0  1  0  0  0  0  0  0  0  0  0
   44.0344   -8.8018   -5.8064 C   0  0  0  0  0  0  0  0  0  0  0  0
   44.8140   -8.9034   -4.5538 C   0  0  0  0  0  0  0  0  0  0  0  0
   46.1754   -8.7196   -4.3684 C   0  0  0  0  0  0  0  0  0  0  0  0
   46.4068   -8.9176   -3.0669 N   0  0  0  0  0  0  0  0  0  0  0  0
   45.2561   -9.2145   -2.4388 C   0  0  0  0  0  0  0  0  0  0  0  0
   44.2788   -9.2064   -3.3482 N   0  0  0  0  0  0  0  0  0  0  0  0
   42.4059   -9.9036   -7.2578 C   0  0  0  0  0  0  0  0  0  0  0  0
   42.8329  -10.0205   -8.4353 O   0  0  0  0  0  0  0  0  0  0  0  0
   39.1036  -11.5807   -7.9992 C   0  0  0  0  0  0  0  0  0  0  0  0
   38.8584  -10.0814   -7.9543 C   0  0  1  0  0  0  0  0  0  0  0  0
   38.3371   -9.7559   -6.7143 O   0  0  0  0  0  0  0  0  0  0  0  0
   40.1777   -9.3203   -8.1628 C   0  0  2  0  0  0  0  0  0  0  0  0
   41.0498   -9.5738   -7.0224 N   0  0  0  0  0  0  0  0  0  0  0  0
   39.9668   -7.8924   -8.3821 C   0  0  0  0  0  0  0  0  0  0  0  0
   39.8607   -7.0421   -7.4451 O   0  0  0  0  0  0  0  0  0  0  0  0
   39.8714   -7.3864   -9.6996 N   0  0  0  0  0  0  0  0  0  0  0  0
   39.5683   -5.9687   -9.9516 C   0  0  1  0  0  0  0  0  0  0  0  0
   39.9199   -5.7564  -11.4064 C   0  0  0  0  0  0  0  0  0  0  0  0
   39.7511   -4.3428  -11.8472 C   0  0  0  0  0  0  0  0  0  0  0  0
   39.8901   -3.2398  -11.0628 C   0  0  0  0  0  0  0  0  0  0  0  0
   39.6498   -2.1607  -11.8194 N   0  0  0  0  0  0  0  0  0  0  0  0
   39.3650   -2.5692  -13.0538 C   0  0  0  0  0  0  0  0  0  0  0  0
   39.4245   -3.9095  -13.0816 N   0  0  0  0  0  0  0  0  0  0  0  0
   38.1056   -5.8097   -9.7918 C   0  0  0  0  0  0  0  0  0  0  0  0
   37.2786   -6.7257  -10.0663 O   0  0  0  0  0  0  0  0  0  0  0  0
   37.5400   -4.6273   -9.3232 O   0  0  0  0  0  0  0  0  0  0  0  0
  2  1  1  6
  2  9  1  0
  3  2  1  0
  3  4  1  0
  4  5  2  0
  5  6  1  0
  7  6  1  0
  8  4  1  0
  8  7  2  0
  9 10  2  0
 12 11  1  1
 12 14  1  0
 13 12  1  0
 14 16  1  0
 14 15  1  1
 15  9  1  0
 16 17  2  0
 16 18  1  0
 18 19  1  0
 19 26  1  0
 19 20  1  6
 21 20  1  0
 21 22  2  0
 23 22  1  0
 24 23  1  0
 25 24  2  0
 25 21  1  0
 26 27  2  0
 26 28  1  0
M  END
$$$$
