HTH.pdb
     RDKit          3D

 28 29  0  0  1  0  0  0  0  0999 V2000
   23.7745  -18.8698  -17.6774 N   0  0  0  0  0  0  0  0  0  0  0  0
   24.7021  -18.5844  -16.6277 C   0  0  1  0  0  0  0  0  0  0  0  0
   24.8224  -17.0891  -16.4230 C   0  0  0  0  0  0  0  0  0  0  0  0
   25.3466  -16.4356  -17.6416 C   0  0  0  0  0  0  0  0  0  0  0  0
   24.7334  -15.4838  -18.4412 C   0  0  0  0  0  0  0  0  0  0  0  0
   25.5990  -15.2018  -19.4199 N   0  0  0  0  0  0  0  0  0  0  0  0
   26.7167  -15.9322  -19.2649 C   0  0  0  0  0  0  0  0  0  0  0  0
   26.5641  -16.6889  -18.1757 N   0  0  0  0  0  0  0  0  0  0  0  0
   24.2925  -19.2093  -15.3289 C   0  0  0  0  0  0  0  0  0  0  0  0
   23.1543  -18.9348  -14.8689 O   0  0  0  0  0  0  0  0  0  0  0  0
   23.6303  -22.5292  -14.8943 C   0  0  0  0  0  0  0  0  0  0  0  0
   24.5612  -22.2696  -13.7213 C   0  0  1  0  0  0  0  0  0  0  0  0
   25.8207  -22.7444  -14.0433 O   0  0  0  0  0  0  0  0  0  0  0  0
   24.6483  -20.7617  -13.4349 C   0  0  2  0  0  0  0  0  0  0  0  0
   25.1512  -20.0873  -14.6256 N   0  0  0  0  0  0  0  0  0  0  0  0
   25.4580  -20.4657  -12.2566 C   0  0  0  0  0  0  0  0  0  0  0  0
   26.6274  -19.9738  -12.3088 O   0  0  0  0  0  0  0  0  0  0  0  0
   24.9458  -20.7256  -10.9640 N   0  0  0  0  0  0  0  0  0  0  0  0
   25.8267  -20.7488   -9.7855 C   0  0  1  0  0  0  0  0  0  0  0  0
   26.2337  -19.3068   -9.5853 C   0  0  0  0  0  0  0  0  0  0  0  0
   26.9748  -19.0812   -8.3122 C   0  0  0  0  0  0  0  0  0  0  0  0
   27.3238  -20.0387   -7.4109 C   0  0  0  0  0  0  0  0  0  0  0  0
   27.9667  -19.4407   -6.3992 N   0  0  0  0  0  0  0  0  0  0  0  0
   28.0241  -18.1352   -6.6524 C   0  0  0  0  0  0  0  0  0  0  0  0
   27.4169  -17.9036   -7.8265 N   0  0  0  0  0  0  0  0  0  0  0  0
   24.9924  -21.1672   -8.6369 C   0  0  0  0  0  0  0  0  0  0  0  0
   23.7373  -21.0186   -8.6062 O   0  0  0  0  0  0  0  0  0  0  0  0
   25.5429  -21.7583   -7.5032 O   0  0  0  0  0  0  0  0  0  0  0  0
  2  1  1  6
  2  9  1  0
  3  2  1  0
  3  4  1  0
  4  5  2  0
  5  6  1  0
  7  6  1  0
  8  4  1  0
  8  7  2  0
  9 10  2  0
 12 11  1  6
 12 14  1  0
 13 12  1  0
 14 16  1  0
 14 15  1  6
 15  9  1  0
 16 17  2  0
 16 18  1  0
 18 19  1  0
 19 26  1  0
 19 20  1  1
 21 20  1  0
 21 22  2  0
 23 22  1  0
 24 23  1  0
 25 24  2  0
 25 21  1  0
 26 27  2  0
 26 28  1  0
M  END
$$$$
