HTH.pdb
     RDKit          3D

 28 29  0  0  1  0  0  0  0  0999 V2000
   29.9726   -8.8680  -17.9785 N   0  0  0  0  0  0  0  0  0  0  0  0
   31.0302   -7.9589  -18.2931 C   0  0  1  0  0  0  0  0  0  0  0  0
   30.4733   -6.7021  -18.9275 C   0  0  0  0  0  0  0  0  0  0  0  0
   29.8888   -7.0008  -20.2527 C   0  0  0  0  0  0  0  0  0  0  0  0
   30.4529   -7.7052  -21.3048 C   0  0  0  0  0  0  0  0  0  0  0  0
   29.5433   -7.7090  -22.2843 N   0  0  0  0  0  0  0  0  0  0  0  0
   28.4451   -7.0420  -21.8898 C   0  0  0  0  0  0  0  0  0  0  0  0
   28.6547   -6.6071  -20.6450 N   0  0  0  0  0  0  0  0  0  0  0  0
   31.8169   -7.5686  -17.0791 C   0  0  0  0  0  0  0  0  0  0  0  0
   31.1920   -7.3506  -16.0093 O   0  0  0  0  0  0  0  0  0  0  0  0
   35.9466   -7.6938  -14.5064 C   0  0  0  0  0  0  0  0  0  0  0  0
   35.1530   -8.0422  -15.7548 C   0  0  1  0  0  0  0  0  0  0  0  0
   34.7123   -9.3498  -15.6476 O   0  0  0  0  0  0  0  0  0  0  0  0
   33.9383   -7.1098  -15.8903 C   0  0  2  0  0  0  0  0  0  0  0  0
   33.2262   -7.4439  -17.1178 N   0  0  0  0  0  0  0  0  0  0  0  0
   34.3124   -5.6993  -15.8428 C   0  0  0  0  0  0  0  0  0  0  0  0
   34.7146   -5.0410  -16.8513 O   0  0  0  0  0  0  0  0  0  0  0  0
   34.2346   -4.9886  -14.6223 N   0  0  0  0  0  0  0  0  0  0  0  0
   34.6466   -3.5787  -14.5337 C   0  0  1  0  0  0  0  0  0  0  0  0
   33.4583   -2.8720  -13.9223 C   0  0  0  0  0  0  0  0  0  0  0  0
   32.4528   -2.4397  -14.9337 C   0  0  0  0  0  0  0  0  0  0  0  0
   32.5563   -2.5984  -16.2810 C   0  0  0  0  0  0  0  0  0  0  0  0
   31.4605   -2.0735  -16.8453 N   0  0  0  0  0  0  0  0  0  0  0  0
   30.6807   -1.5933  -15.8793 C   0  0  0  0  0  0  0  0  0  0  0  0
   31.2818   -1.8134  -14.6999 N   0  0  0  0  0  0  0  0  0  0  0  0
   35.7732   -3.5223  -13.5755 C   0  0  0  0  0  0  0  0  0  0  0  0
   36.0415   -4.4600  -12.7711 O   0  0  0  0  0  0  0  0  0  0  0  0
   36.6197   -2.4200  -13.4978 O   0  0  0  0  0  0  0  0  0  0  0  0
  2  1  1  1
  2  9  1  0
  3  2  1  0
  3  4  1  0
  4  5  2  0
  5  6  1  0
  7  6  1  0
  8  4  1  0
  8  7  2  0
  9 10  2  0
 12 11  1  1
 12 14  1  0
 13 12  1  0
 14 16  1  0
 14 15  1  6
 15  9  1  0
 16 17  2  0
 16 18  1  0
 18 19  1  0
 19 26  1  0
 19 20  1  1
 21 20  1  0
 21 22  2  0
 23 22  1  0
 24 23  1  0
 25 24  2  0
 25 21  1  0
 26 27  2  0
 26 28  1  0
M  END
$$$$
