HTH.pdb
     RDKit          3D

 28 29  0  0  1  0  0  0  0  0999 V2000
   40.5008  -10.9207   -8.1349 N   0  0  0  0  0  0  0  0  0  0  0  0
   40.8007   -9.5363   -7.9417 C   0  0  1  0  0  0  0  0  0  0  0  0
   39.6239   -8.8258   -7.3071 C   0  0  0  0  0  0  0  0  0  0  0  0
   38.4703   -9.7417   -7.1751 C   0  0  0  0  0  0  0  0  0  0  0  0
   38.0345  -10.4224   -6.0490 C   0  0  0  0  0  0  0  0  0  0  0  0
   36.9588  -11.1208   -6.4257 N   0  0  0  0  0  0  0  0  0  0  0  0
   36.7083  -10.9056   -7.7287 C   0  0  0  0  0  0  0  0  0  0  0  0
   37.6334  -10.0606   -8.1898 N   0  0  0  0  0  0  0  0  0  0  0  0
   42.0018   -9.3369   -7.0684 C   0  0  0  0  0  0  0  0  0  0  0  0
   41.8488   -9.4017   -5.8215 O   0  0  0  0  0  0  0  0  0  0  0  0
   44.3033  -11.3969   -6.0762 C   0  0  0  0  0  0  0  0  0  0  0  0
   45.1708  -10.3191   -6.7053 C   0  0  1  0  0  0  0  0  0  0  0  0
   45.4605  -10.6890   -8.0070 O   0  0  0  0  0  0  0  0  0  0  0  0
   44.4245   -8.9751   -6.7166 C   0  0  2  0  0  0  0  0  0  0  0  0
   43.2818   -9.0817   -7.6157 N   0  0  0  0  0  0  0  0  0  0  0  0
   45.2959   -7.8586   -7.0710 C   0  0  0  0  0  0  0  0  0  0  0  0
   45.2869   -7.2882   -8.2053 O   0  0  0  0  0  0  0  0  0  0  0  0
   46.2161   -7.3523   -6.1235 N   0  0  0  0  0  0  0  0  0  0  0  0
   47.0434   -6.1719   -6.4198 C   0  0  1  0  0  0  0  0  0  0  0  0
   47.5627   -5.7226   -5.0731 C   0  0  0  0  0  0  0  0  0  0  0  0
   46.5251   -5.0475   -4.2433 C   0  0  0  0  0  0  0  0  0  0  0  0
   45.3080   -4.6218   -4.6775 C   0  0  0  0  0  0  0  0  0  0  0  0
   44.6721   -4.0593   -3.6412 N   0  0  0  0  0  0  0  0  0  0  0  0
   45.4666   -4.1263   -2.5754 C   0  0  0  0  0  0  0  0  0  0  0  0
   46.6087   -4.7323   -2.9350 N   0  0  0  0  0  0  0  0  0  0  0  0
   48.1865   -6.6447   -7.2323 C   0  0  0  0  0  0  0  0  0  0  0  0
   48.5797   -7.8462   -7.2357 O   0  0  0  0  0  0  0  0  0  0  0  0
   48.9107   -5.7862   -8.0547 O   0  0  0  0  0  0  0  0  0  0  0  0
  2  1  1  1
  2  9  1  0
  3  2  1  0
  3  4  1  0
  4  5  2  0
  5  6  1  0
  7  6  1  0
  8  4  1  0
  8  7  2  0
  9 10  2  0
 12 11  1  6
 12 14  1  0
 13 12  1  0
 14 16  1  0
 14 15  1  6
 15  9  1  0
 16 17  2  0
 16 18  1  0
 18 19  1  0
 19 26  1  0
 19 20  1  1
 21 20  1  0
 21 22  2  0
 23 22  1  0
 24 23  1  0
 25 24  2  0
 25 21  1  0
 26 27  2  0
 26 28  1  0
M  END
$$$$
