SKD.pdb
     RDKit          3D

 24 23  0  0  1  0  0  0  0  0999 V2000
   11.4349  -18.1406   17.1152 O   0  0  0  0  0  0  0  0  0  0  0  0
   11.8341  -17.6139   15.8858 C   0  0  0  0  0  0  0  0  0  0  0  0
   11.1185  -16.2724   15.7399 C   0  0  2  0  0  0  0  0  0  0  0  0
   11.3928  -15.6616   14.4745 N   0  0  0  0  0  0  0  0  0  0  0  0
   11.5512  -15.3790   16.8343 C   0  0  0  0  0  0  0  0  0  0  0  0
   12.6055  -14.7080   16.8056 O   0  0  0  0  0  0  0  0  0  0  0  0
   10.7454  -15.2446   18.0144 N   0  0  0  0  0  0  0  0  0  0  0  0
   11.1861  -14.4700   19.1561 C   0  0  1  0  0  0  0  0  0  0  0  0
   10.0272  -14.1316   20.0941 C   0  0  0  0  0  0  0  0  0  0  0  0
    9.2129  -13.0629   19.4328 C   0  0  0  0  0  0  0  0  0  0  0  0
    8.0634  -13.6223   18.6259 C   0  0  0  0  0  0  0  0  0  0  0  0
    7.1773  -12.5400   18.0675 C   0  0  0  0  0  0  0  0  0  0  0  0
    6.1431  -13.2193   17.2780 N   0  0  0  0  0  0  0  0  0  0  0  0
   12.1318  -15.2927   19.9457 C   0  0  0  0  0  0  0  0  0  0  0  0
   12.0368  -16.5421   19.9420 O   0  0  0  0  0  0  0  0  0  0  0  0
   13.1834  -14.7226   20.7396 N   0  0  0  0  0  0  0  0  0  0  0  0
   14.0795  -15.5824   21.4834 C   0  0  1  0  0  0  0  0  0  0  0  0
   15.4715  -15.0047   21.5762 C   0  0  0  0  0  0  0  0  0  0  0  0
   16.3905  -15.8913   22.3104 C   0  0  0  0  0  0  0  0  0  0  0  0
   16.0338  -17.0542   22.5886 O   0  0  0  0  0  0  0  0  0  0  0  0
   13.5341  -15.9376   22.8055 C   0  0  0  0  0  0  0  0  0  0  0  0
   12.3388  -15.4312   23.2797 O   0  0  0  0  0  0  0  0  0  0  0  0
   17.6315  -15.3979   22.6702 O   0  0  0  0  0  0  0  0  0  0  0  0
   14.1754  -16.7303   23.5335 O   0  0  0  0  0  0  0  0  0  0  0  0
  1  2  1  0
  3  5  1  0
  3  2  1  0
  3  4  1  6
  5  6  2  0
  7  8  1  0
  7  5  1  0
  8  9  1  1
 10  9  1  0
 11 10  1  0
 12 11  1  0
 12 13  1  0
 14 16  1  0
 14  8  1  0
 15 14  2  0
 17 18  1  1
 17 16  1  0
 18 19  1  0
 19 20  2  0
 21 17  1  0
 21 22  1  0
 23 19  1  0
 24 21  2  0
M  END
$$$$
