SKD.pdb
     RDKit          3D

 24 23  0  0  1  0  0  0  0  0999 V2000
    8.1138  -15.3632   16.8882 O   0  0  0  0  0  0  0  0  0  0  0  0
    8.1154  -15.4648   18.2803 C   0  0  0  0  0  0  0  0  0  0  0  0
    7.6054  -14.1258   18.8097 C   0  0  2  0  0  0  0  0  0  0  0  0
    7.9505  -13.0456   17.9359 N   0  0  0  0  0  0  0  0  0  0  0  0
    8.1807  -13.8921   20.1504 C   0  0  0  0  0  0  0  0  0  0  0  0
    9.3817  -13.6086   20.3496 O   0  0  0  0  0  0  0  0  0  0  0  0
    7.3489  -13.9859   21.3164 N   0  0  0  0  0  0  0  0  0  0  0  0
    7.8814  -13.8043   22.6511 C   0  0  1  0  0  0  0  0  0  0  0  0
    6.7834  -13.4636   23.6589 C   0  0  0  0  0  0  0  0  0  0  0  0
    7.4479  -13.2078   24.9762 C   0  0  0  0  0  0  0  0  0  0  0  0
    6.4805  -12.7226   26.0318 C   0  0  0  0  0  0  0  0  0  0  0  0
    7.1717  -12.3769   27.3245 C   0  0  0  0  0  0  0  0  0  0  0  0
    6.1198  -11.9445   28.2524 N   0  0  0  0  0  0  0  0  0  0  0  0
    8.4727  -15.0863   23.0999 C   0  0  0  0  0  0  0  0  0  0  0  0
    7.9004  -16.1704   22.8409 O   0  0  0  0  0  0  0  0  0  0  0  0
    9.7023  -15.1598   23.8376 N   0  0  0  0  0  0  0  0  0  0  0  0
   10.2830  -16.4473   24.1549 C   0  0  1  0  0  0  0  0  0  0  0  0
   11.6023  -16.6619   23.4526 C   0  0  0  0  0  0  0  0  0  0  0  0
   12.2203  -17.9482   23.8176 C   0  0  0  0  0  0  0  0  0  0  0  0
   11.6353  -19.0142   23.5376 O   0  0  0  0  0  0  0  0  0  0  0  0
   10.3835  -16.6650   25.6089 C   0  0  0  0  0  0  0  0  0  0  0  0
   10.5848  -17.9147   26.1637 O   0  0  0  0  0  0  0  0  0  0  0  0
   13.4420  -17.9294   24.4657 O   0  0  0  0  0  0  0  0  0  0  0  0
   10.2831  -15.6813   26.3781 O   0  0  0  0  0  0  0  0  0  0  0  0
  1  2  1  0
  3  5  1  0
  3  2  1  0
  3  4  1  6
  5  6  2  0
  7  8  1  0
  7  5  1  0
  8  9  1  1
 10  9  1  0
 11 10  1  0
 12 11  1  0
 12 13  1  0
 14 16  1  0
 14  8  1  0
 15 14  2  0
 17 18  1  6
 17 16  1  0
 18 19  1  0
 19 20  2  0
 21 17  1  0
 21 22  1  0
 23 19  1  0
 24 21  2  0
M  END
$$$$
