SKD.pdb
     RDKit          3D

 24 23  0  0  1  0  0  0  0  0999 V2000
    7.3274  -16.3698   18.1832 O   0  0  0  0  0  0  0  0  0  0  0  0
    8.3948  -15.5298   18.5043 C   0  0  0  0  0  0  0  0  0  0  0  0
    7.7801  -14.2040   18.9489 C   0  0  2  0  0  0  0  0  0  0  0  0
    8.0977  -13.1432   18.0416 N   0  0  0  0  0  0  0  0  0  0  0  0
    8.2785  -13.8762   20.3007 C   0  0  0  0  0  0  0  0  0  0  0  0
    9.4062  -13.3852   20.5236 O   0  0  0  0  0  0  0  0  0  0  0  0
    7.4538  -14.1193   21.4500 N   0  0  0  0  0  0  0  0  0  0  0  0
    7.9323  -13.8850   22.7968 C   0  0  1  0  0  0  0  0  0  0  0  0
    6.8059  -13.4408   23.7302 C   0  0  0  0  0  0  0  0  0  0  0  0
    7.4152  -13.1713   25.0713 C   0  0  0  0  0  0  0  0  0  0  0  0
    6.4251  -12.5890   26.0543 C   0  0  0  0  0  0  0  0  0  0  0  0
    7.0543  -12.2901   27.3896 C   0  0  0  0  0  0  0  0  0  0  0  0
    5.9756  -11.7941   28.2526 N   0  0  0  0  0  0  0  0  0  0  0  0
    8.4437  -15.1634   23.3433 C   0  0  0  0  0  0  0  0  0  0  0  0
    7.7341  -16.1953   23.3044 O   0  0  0  0  0  0  0  0  0  0  0  0
    9.7464  -15.2915   23.9332 N   0  0  0  0  0  0  0  0  0  0  0  0
   10.1781  -16.5643   24.4709 C   0  0  1  0  0  0  0  0  0  0  0  0
   11.6604  -16.7840   24.2850 C   0  0  0  0  0  0  0  0  0  0  0  0
   12.0293  -16.8920   22.8630 C   0  0  0  0  0  0  0  0  0  0  0  0
   11.1476  -17.1365   22.0146 O   0  0  0  0  0  0  0  0  0  0  0  0
    9.7596  -16.7426   25.8725 C   0  0  0  0  0  0  0  0  0  0  0  0
    9.3548  -15.6888   26.6698 O   0  0  0  0  0  0  0  0  0  0  0  0
   13.3560  -16.7165   22.5138 O   0  0  0  0  0  0  0  0  0  0  0  0
    9.7690  -17.8937   26.3669 O   0  0  0  0  0  0  0  0  0  0  0  0
  1  2  1  0
  3  5  1  0
  3  2  1  0
  3  4  1  6
  5  6  2  0
  7  8  1  0
  7  5  1  0
  8  9  1  1
 10  9  1  0
 11 10  1  0
 12 11  1  0
 12 13  1  0
 14 16  1  0
 14  8  1  0
 15 14  2  0
 17 18  1  1
 17 16  1  0
 18 19  1  0
 19 20  2  0
 21 17  1  0
 21 22  1  0
 23 19  1  0
 24 21  2  0
M  END
$$$$
