SKD.pdb
     RDKit          3D

 24 23  0  0  1  0  0  0  0  0999 V2000
    9.0047  -15.1557   17.3062 O   0  0  0  0  0  0  0  0  0  0  0  0
    7.6442  -14.8666   17.4227 C   0  0  0  0  0  0  0  0  0  0  0  0
    7.5459  -13.5859   18.2494 C   0  0  2  0  0  0  0  0  0  0  0  0
    8.1163  -12.4674   17.5615 N   0  0  0  0  0  0  0  0  0  0  0  0
    8.2420  -13.7936   19.5360 C   0  0  0  0  0  0  0  0  0  0  0  0
    9.4146  -13.4216   19.7578 O   0  0  0  0  0  0  0  0  0  0  0  0
    7.5707  -14.4553   20.6184 N   0  0  0  0  0  0  0  0  0  0  0  0
    8.2407  -14.7457   21.8693 C   0  0  1  0  0  0  0  0  0  0  0  0
    7.2736  -15.2986   22.9164 C   0  0  0  0  0  0  0  0  0  0  0  0
    8.0612  -15.5518   24.1646 C   0  0  0  0  0  0  0  0  0  0  0  0
    7.2279  -16.1711   25.2633 C   0  0  0  0  0  0  0  0  0  0  0  0
    7.9585  -16.2135   26.5796 C   0  0  0  0  0  0  0  0  0  0  0  0
    6.9658  -16.5962   27.5908 N   0  0  0  0  0  0  0  0  0  0  0  0
    9.2442  -15.8087   21.6295 C   0  0  0  0  0  0  0  0  0  0  0  0
    9.3026  -16.3823   20.5171 O   0  0  0  0  0  0  0  0  0  0  0  0
   10.1827  -16.2325   22.6300 N   0  0  0  0  0  0  0  0  0  0  0  0
   11.4194  -16.8758   22.2397 C   0  0  1  0  0  0  0  0  0  0  0  0
   12.1252  -16.1238   21.1369 C   0  0  0  0  0  0  0  0  0  0  0  0
   13.4082  -16.7499   20.7739 C   0  0  0  0  0  0  0  0  0  0  0  0
   14.4507  -16.4075   21.3680 O   0  0  0  0  0  0  0  0  0  0  0  0
   12.2995  -17.1280   23.3944 C   0  0  0  0  0  0  0  0  0  0  0  0
   11.9595  -16.7663   24.6842 O   0  0  0  0  0  0  0  0  0  0  0  0
   13.4126  -17.7068   19.7753 O   0  0  0  0  0  0  0  0  0  0  0  0
   13.4017  -17.6928   23.2053 O   0  0  0  0  0  0  0  0  0  0  0  0
  1  2  1  0
  3  5  1  0
  3  2  1  0
  3  4  1  6
  5  6  2  0
  7  8  1  0
  7  5  1  0
  8  9  1  1
 10  9  1  0
 11 10  1  0
 12 11  1  0
 12 13  1  0
 14 16  1  0
 14  8  1  0
 15 14  2  0
 17 18  1  6
 17 16  1  0
 18 19  1  0
 19 20  2  0
 21 17  1  0
 21 22  1  0
 23 19  1  0
 24 21  2  0
M  END
$$$$
