SKD.pdb
     RDKit          3D

 24 23  0  0  1  0  0  0  0  0999 V2000
    7.7473  -18.5045   19.7963 O   0  0  0  0  0  0  0  0  0  0  0  0
    8.5270  -17.9183   18.7979 C   0  0  0  0  0  0  0  0  0  0  0  0
    8.2545  -16.4168   18.8657 C   0  0  2  0  0  0  0  0  0  0  0  0
    8.8836  -15.7160   17.7874 N   0  0  0  0  0  0  0  0  0  0  0  0
    8.7491  -15.8997   20.1584 C   0  0  0  0  0  0  0  0  0  0  0  0
    9.9560  -15.8854   20.4832 O   0  0  0  0  0  0  0  0  0  0  0  0
    7.8257  -15.3753   21.1241 N   0  0  0  0  0  0  0  0  0  0  0  0
    8.2673  -14.8738   22.4091 C   0  0  1  0  0  0  0  0  0  0  0  0
    7.0930  -14.4104   23.2716 C   0  0  0  0  0  0  0  0  0  0  0  0
    7.6637  -13.7311   24.4780 C   0  0  0  0  0  0  0  0  0  0  0  0
    6.5957  -13.2026   25.4083 C   0  0  0  0  0  0  0  0  0  0  0  0
    7.1772  -12.4587   26.5816 C   0  0  0  0  0  0  0  0  0  0  0  0
    6.0406  -12.0487   27.4151 N   0  0  0  0  0  0  0  0  0  0  0  0
    8.9135  -15.9822   23.1497 C   0  0  0  0  0  0  0  0  0  0  0  0
    9.1721  -17.0624   22.5699 O   0  0  0  0  0  0  0  0  0  0  0  0
    9.2716  -15.8864   24.5367 N   0  0  0  0  0  0  0  0  0  0  0  0
   10.4267  -16.5993   25.0395 C   0  0  1  0  0  0  0  0  0  0  0  0
   11.6472  -16.3788   24.1783 C   0  0  0  0  0  0  0  0  0  0  0  0
   12.3255  -17.6434   23.8461 C   0  0  0  0  0  0  0  0  0  0  0  0
   12.6348  -18.4351   24.7596 O   0  0  0  0  0  0  0  0  0  0  0  0
   10.6851  -16.3014   26.4594 C   0  0  0  0  0  0  0  0  0  0  0  0
   11.1309  -17.2571   27.3528 O   0  0  0  0  0  0  0  0  0  0  0  0
   12.5991  -17.9124   22.5173 O   0  0  0  0  0  0  0  0  0  0  0  0
   10.4948  -15.1366   26.8794 O   0  0  0  0  0  0  0  0  0  0  0  0
  1  2  1  0
  3  5  1  0
  3  2  1  0
  3  4  1  6
  5  6  2  0
  7  8  1  0
  7  5  1  0
  8  9  1  1
 10  9  1  0
 11 10  1  0
 12 11  1  0
 12 13  1  0
 14 16  1  0
 14  8  1  0
 15 14  2  0
 17 18  1  6
 17 16  1  0
 18 19  1  0
 19 20  2  0
 21 17  1  0
 21 22  1  0
 23 19  1  0
 24 21  2  0
M  END
$$$$
