SKD.pdb
     RDKit          3D

 24 23  0  0  1  0  0  0  0  0999 V2000
    7.6669  -14.6813   16.8886 O   0  0  0  0  0  0  0  0  0  0  0  0
    8.3812  -14.7826   18.0835 C   0  0  0  0  0  0  0  0  0  0  0  0
    7.6335  -13.9281   19.1052 C   0  0  2  0  0  0  0  0  0  0  0  0
    7.7123  -12.5343   18.7880 N   0  0  0  0  0  0  0  0  0  0  0  0
    8.2083  -14.1728   20.4442 C   0  0  0  0  0  0  0  0  0  0  0  0
    9.2549  -13.6297   20.8590 O   0  0  0  0  0  0  0  0  0  0  0  0
    7.5604  -15.0774   21.3508 N   0  0  0  0  0  0  0  0  0  0  0  0
    8.1425  -15.4227   22.6314 C   0  0  1  0  0  0  0  0  0  0  0  0
    7.2147  -16.3171   23.4540 C   0  0  0  0  0  0  0  0  0  0  0  0
    7.9518  -16.7025   24.6992 C   0  0  0  0  0  0  0  0  0  0  0  0
    7.1529  -17.6313   25.5849 C   0  0  0  0  0  0  0  0  0  0  0  0
    7.8831  -17.9774   26.8558 C   0  0  0  0  0  0  0  0  0  0  0  0
    6.9972  -18.8716   27.6108 N   0  0  0  0  0  0  0  0  0  0  0  0
    9.3731  -16.2116   22.3911 C   0  0  0  0  0  0  0  0  0  0  0  0
    9.5696  -16.7512   21.2775 O   0  0  0  0  0  0  0  0  0  0  0  0
   10.3848  -16.3991   23.3925 N   0  0  0  0  0  0  0  0  0  0  0  0
   11.6997  -16.8737   23.0165 C   0  0  1  0  0  0  0  0  0  0  0  0
   12.2933  -16.0631   21.8893 C   0  0  0  0  0  0  0  0  0  0  0  0
   13.6603  -16.4983   21.5555 C   0  0  0  0  0  0  0  0  0  0  0  0
   13.9445  -17.7130   21.5842 O   0  0  0  0  0  0  0  0  0  0  0  0
   12.6061  -16.9656   24.1746 C   0  0  0  0  0  0  0  0  0  0  0  0
   13.7311  -17.7684   24.1793 O   0  0  0  0  0  0  0  0  0  0  0  0
   14.5924  -15.5339   21.2177 O   0  0  0  0  0  0  0  0  0  0  0  0
   12.3519  -16.2910   25.1993 O   0  0  0  0  0  0  0  0  0  0  0  0
  1  2  1  0
  3  5  1  0
  3  2  1  0
  3  4  1  6
  5  6  2  0
  7  8  1  0
  7  5  1  0
  8  9  1  1
 10  9  1  0
 11 10  1  0
 12 11  1  0
 12 13  1  0
 14 16  1  0
 14  8  1  0
 15 14  2  0
 17 18  1  6
 17 16  1  0
 18 19  1  0
 19 20  2  0
 21 17  1  0
 21 22  1  0
 23 19  1  0
 24 21  2  0
M  END
$$$$
