SKD.pdb
     RDKit          3D

 24 23  0  0  1  0  0  0  0  0999 V2000
   13.5909  -18.5801   16.6413 O   0  0  0  0  0  0  0  0  0  0  0  0
   12.3420  -18.1530   16.1874 C   0  0  0  0  0  0  0  0  0  0  0  0
   12.4632  -16.6496   15.9461 C   0  0  2  0  0  0  0  0  0  0  0  0
   13.5765  -16.3375   15.1019 N   0  0  0  0  0  0  0  0  0  0  0  0
   12.6124  -15.9675   17.2483 C   0  0  0  0  0  0  0  0  0  0  0  0
   13.6962  -15.5106   17.6713 O   0  0  0  0  0  0  0  0  0  0  0  0
   11.4744  -15.7990   18.1066 N   0  0  0  0  0  0  0  0  0  0  0  0
   11.5577  -15.0594   19.3492 C   0  0  1  0  0  0  0  0  0  0  0  0
   10.1742  -14.7735   19.9335 C   0  0  0  0  0  0  0  0  0  0  0  0
    9.4964  -13.7965   19.0232 C   0  0  0  0  0  0  0  0  0  0  0  0
    8.0737  -13.5019   19.4409 C   0  0  0  0  0  0  0  0  0  0  0  0
    7.4038  -12.5099   18.5270 C   0  0  0  0  0  0  0  0  0  0  0  0
    6.0223  -12.3757   19.0046 N   0  0  0  0  0  0  0  0  0  0  0  0
   12.2647  -15.8952   20.3473 C   0  0  0  0  0  0  0  0  0  0  0  0
   12.1984  -17.1448   20.2847 O   0  0  0  0  0  0  0  0  0  0  0  0
   13.0455  -15.3378   21.4154 N   0  0  0  0  0  0  0  0  0  0  0  0
   13.7428  -16.2097   22.3369 C   0  0  1  0  0  0  0  0  0  0  0  0
   15.1141  -15.6833   22.6868 C   0  0  0  0  0  0  0  0  0  0  0  0
   15.8440  -16.5951   23.5843 C   0  0  0  0  0  0  0  0  0  0  0  0
   15.9088  -16.3382   24.8037 O   0  0  0  0  0  0  0  0  0  0  0  0
   12.9370  -16.5058   23.5346 C   0  0  0  0  0  0  0  0  0  0  0  0
   13.1791  -17.5991   24.3447 O   0  0  0  0  0  0  0  0  0  0  0  0
   16.4391  -17.7176   23.0377 O   0  0  0  0  0  0  0  0  0  0  0  0
   11.9930  -15.7392   23.8357 O   0  0  0  0  0  0  0  0  0  0  0  0
  1  2  1  0
  3  5  1  0
  3  2  1  0
  3  4  1  6
  5  6  2  0
  7  8  1  0
  7  5  1  0
  8  9  1  1
 10  9  1  0
 11 10  1  0
 12 11  1  0
 12 13  1  0
 14 16  1  0
 14  8  1  0
 15 14  2  0
 17 18  1  1
 17 16  1  0
 18 19  1  0
 19 20  2  0
 21 17  1  0
 21 22  1  0
 23 19  1  0
 24 21  2  0
M  END
$$$$
