SKD.pdb
     RDKit          3D

 24 23  0  0  1  0  0  0  0  0999 V2000
    8.7646  -18.1677   27.6006 O   0  0  0  0  0  0  0  0  0  0  0  0
    7.6103  -17.4066   27.4099 C   0  0  0  0  0  0  0  0  0  0  0  0
    6.7904  -18.1289   26.3426 C   0  0  2  0  0  0  0  0  0  0  0  0
    6.6834  -19.5300   26.6161 N   0  0  0  0  0  0  0  0  0  0  0  0
    7.4299  -17.9204   25.0271 C   0  0  0  0  0  0  0  0  0  0  0  0
    7.9891  -18.8293   24.3763 O   0  0  0  0  0  0  0  0  0  0  0  0
    7.4317  -16.6167   24.4266 N   0  0  0  0  0  0  0  0  0  0  0  0
    8.1037  -16.3552   23.1705 C   0  0  1  0  0  0  0  0  0  0  0  0
    7.7144  -14.9952   22.5907 C   0  0  0  0  0  0  0  0  0  0  0  0
    8.3227  -14.8992   21.2257 C   0  0  0  0  0  0  0  0  0  0  0  0
    7.9344  -13.6292   20.5033 C   0  0  0  0  0  0  0  0  0  0  0  0
    8.4301  -13.6065   19.0813 C   0  0  0  0  0  0  0  0  0  0  0  0
    7.9564  -12.3452   18.4988 N   0  0  0  0  0  0  0  0  0  0  0  0
    9.5626  -16.2968   23.4209 C   0  0  0  0  0  0  0  0  0  0  0  0
   10.0166  -15.5798   24.3427 O   0  0  0  0  0  0  0  0  0  0  0  0
   10.5155  -17.0378   22.6437 N   0  0  0  0  0  0  0  0  0  0  0  0
   11.9227  -16.9879   22.9798 C   0  0  1  0  0  0  0  0  0  0  0  0
   12.4803  -18.3571   23.2869 C   0  0  0  0  0  0  0  0  0  0  0  0
   13.9285  -18.3175   23.5528 C   0  0  0  0  0  0  0  0  0  0  0  0
   14.3495  -17.7687   24.5914 O   0  0  0  0  0  0  0  0  0  0  0  0
   12.7112  -16.2820   21.9544 C   0  0  0  0  0  0  0  0  0  0  0  0
   13.8822  -15.6086   22.2467 O   0  0  0  0  0  0  0  0  0  0  0  0
   14.7815  -18.8969   22.6310 O   0  0  0  0  0  0  0  0  0  0  0  0
   12.3087  -16.2891   20.7680 O   0  0  0  0  0  0  0  0  0  0  0  0
  1  2  1  0
  3  5  1  0
  3  2  1  0
  3  4  1  1
  5  6  2  0
  7  8  1  0
  7  5  1  0
  8  9  1  1
 10  9  1  0
 11 10  1  0
 12 11  1  0
 12 13  1  0
 14 16  1  0
 14  8  1  0
 15 14  2  0
 17 18  1  6
 17 16  1  0
 18 19  1  0
 19 20  2  0
 21 17  1  0
 21 22  1  0
 23 19  1  0
 24 21  2  0
M  END
$$$$
