SKD.pdb
     RDKit          3D

 24 23  0  0  1  0  0  0  0  0999 V2000
    9.4978  -15.0948   18.5247 O   0  0  0  0  0  0  0  0  0  0  0  0
   10.1618  -16.2135   19.0306 C   0  0  0  0  0  0  0  0  0  0  0  0
    9.2372  -16.8231   20.0826 C   0  0  2  0  0  0  0  0  0  0  0  0
    7.8619  -16.7285   19.6964 N   0  0  0  0  0  0  0  0  0  0  0  0
    9.4485  -16.1238   21.3668 C   0  0  0  0  0  0  0  0  0  0  0  0
   10.5664  -15.9977   21.9118 O   0  0  0  0  0  0  0  0  0  0  0  0
    8.3350  -15.5419   22.0608 N   0  0  0  0  0  0  0  0  0  0  0  0
    8.4894  -14.8997   23.3498 C   0  0  1  0  0  0  0  0  0  0  0  0
    7.2398  -14.1127   23.7453 C   0  0  0  0  0  0  0  0  0  0  0  0
    7.5251  -13.4478   25.0564 C   0  0  0  0  0  0  0  0  0  0  0  0
    6.3788  -12.5856   25.5337 C   0  0  0  0  0  0  0  0  0  0  0  0
    6.6719  -11.9259   26.8555 C   0  0  0  0  0  0  0  0  0  0  0  0
    5.4746  -11.1523   27.2055 N   0  0  0  0  0  0  0  0  0  0  0  0
    8.6615  -15.9497   24.3807 C   0  0  0  0  0  0  0  0  0  0  0  0
    7.8638  -16.9141   24.4386 O   0  0  0  0  0  0  0  0  0  0  0  0
    9.7230  -15.9244   25.3470 N   0  0  0  0  0  0  0  0  0  0  0  0
   10.1834  -17.1561   25.9524 C   0  0  1  0  0  0  0  0  0  0  0  0
   10.5551  -18.1911   24.9178 C   0  0  0  0  0  0  0  0  0  0  0  0
   11.1190  -19.4067   25.5294 C   0  0  0  0  0  0  0  0  0  0  0  0
   10.6261  -19.8501   26.5865 O   0  0  0  0  0  0  0  0  0  0  0  0
   11.2678  -16.9233   26.9227 C   0  0  0  0  0  0  0  0  0  0  0  0
   11.8161  -15.6739   27.1428 O   0  0  0  0  0  0  0  0  0  0  0  0
   12.1879  -20.0216   24.9031 O   0  0  0  0  0  0  0  0  0  0  0  0
   11.7148  -17.8934   27.5775 O   0  0  0  0  0  0  0  0  0  0  0  0
  1  2  1  0
  3  5  1  0
  3  2  1  0
  3  4  1  6
  5  6  2  0
  7  8  1  0
  7  5  1  0
  8  9  1  1
 10  9  1  0
 11 10  1  0
 12 11  1  0
 12 13  1  0
 14 16  1  0
 14  8  1  0
 15 14  2  0
 17 18  1  6
 17 16  1  0
 18 19  1  0
 19 20  2  0
 21 17  1  0
 21 22  1  0
 23 19  1  0
 24 21  2  0
M  END
$$$$
