SKD.pdb
     RDKit          3D

 24 23  0  0  1  0  0  0  0  0999 V2000
    9.9240  -17.3463   12.2535 O   0  0  0  0  0  0  0  0  0  0  0  0
    8.6740  -17.0345   12.7907 C   0  0  0  0  0  0  0  0  0  0  0  0
    8.7049  -15.5419   13.1135 C   0  0  2  0  0  0  0  0  0  0  0  0
    9.2604  -14.7793   12.0367 N   0  0  0  0  0  0  0  0  0  0  0  0
    9.5020  -15.3351   14.3402 C   0  0  0  0  0  0  0  0  0  0  0  0
   10.6686  -14.8861   14.3414 O   0  0  0  0  0  0  0  0  0  0  0  0
    8.9437  -15.6548   15.6233 N   0  0  0  0  0  0  0  0  0  0  0  0
    9.7078  -15.5129   16.8455 C   0  0  1  0  0  0  0  0  0  0  0  0
    8.8398  -15.7271   18.0858 C   0  0  0  0  0  0  0  0  0  0  0  0
    7.8973  -14.5671   18.1788 C   0  0  0  0  0  0  0  0  0  0  0  0
    6.9082  -14.7102   19.3131 C   0  0  0  0  0  0  0  0  0  0  0  0
    5.9440  -13.5551   19.3794 C   0  0  0  0  0  0  0  0  0  0  0  0
    5.0936  -13.7937   20.5518 N   0  0  0  0  0  0  0  0  0  0  0  0
   10.7445  -16.5707   16.8775 C   0  0  0  0  0  0  0  0  0  0  0  0
   11.1110  -17.1275   15.8166 O   0  0  0  0  0  0  0  0  0  0  0  0
   11.3728  -17.0077   18.0922 N   0  0  0  0  0  0  0  0  0  0  0  0
   12.4729  -17.9473   18.0435 C   0  0  1  0  0  0  0  0  0  0  0  0
   13.5727  -17.4839   17.1186 C   0  0  0  0  0  0  0  0  0  0  0  0
   14.7198  -18.4079   17.1168 C   0  0  0  0  0  0  0  0  0  0  0  0
   14.5314  -19.6236   16.9081 O   0  0  0  0  0  0  0  0  0  0  0  0
   12.9775  -18.2776   19.3881 C   0  0  0  0  0  0  0  0  0  0  0  0
   12.4777  -17.6932   20.5365 O   0  0  0  0  0  0  0  0  0  0  0  0
   15.9809  -17.8897   17.3495 O   0  0  0  0  0  0  0  0  0  0  0  0
   13.8965  -19.1215   19.5010 O   0  0  0  0  0  0  0  0  0  0  0  0
  1  2  1  0
  3  5  1  0
  3  2  1  0
  3  4  1  6
  5  6  2  0
  7  8  1  0
  7  5  1  0
  8  9  1  1
 10  9  1  0
 11 10  1  0
 12 11  1  0
 12 13  1  0
 14 16  1  0
 14  8  1  0
 15 14  2  0
 17 18  1  6
 17 16  1  0
 18 19  1  0
 19 20  2  0
 21 17  1  0
 21 22  1  0
 23 19  1  0
 24 21  2  0
M  END
$$$$
