SKD.pdb
     RDKit          3D

 24 23  0  0  1  0  0  0  0  0999 V2000
    9.4821  -18.9878   18.6386 O   0  0  0  0  0  0  0  0  0  0  0  0
    9.3725  -18.3359   19.8679 C   0  0  0  0  0  0  0  0  0  0  0  0
    9.1501  -16.8579   19.5526 C   0  0  2  0  0  0  0  0  0  0  0  0
    9.9232  -16.4358   18.4240 N   0  0  0  0  0  0  0  0  0  0  0  0
    9.5135  -16.0566   20.7395 C   0  0  0  0  0  0  0  0  0  0  0  0
   10.6716  -15.6480   20.9721 O   0  0  0  0  0  0  0  0  0  0  0  0
    8.5109  -15.7055   21.7048 N   0  0  0  0  0  0  0  0  0  0  0  0
    8.8478  -15.0522   22.9528 C   0  0  1  0  0  0  0  0  0  0  0  0
    7.6048  -14.5308   23.6743 C   0  0  0  0  0  0  0  0  0  0  0  0
    8.0602  -13.9050   24.9563 C   0  0  0  0  0  0  0  0  0  0  0  0
    6.9167  -13.3345   25.7641 C   0  0  0  0  0  0  0  0  0  0  0  0
    7.3855  -12.6916   27.0428 C   0  0  0  0  0  0  0  0  0  0  0  0
    6.1765  -12.2711   27.7611 N   0  0  0  0  0  0  0  0  0  0  0  0
    9.4625  -16.0525   23.8562 C   0  0  0  0  0  0  0  0  0  0  0  0
    8.8799  -17.1376   24.0862 O   0  0  0  0  0  0  0  0  0  0  0  0
   10.7268  -15.8430   24.5034 N   0  0  0  0  0  0  0  0  0  0  0  0
   11.3013  -16.8839   25.3293 C   0  0  1  0  0  0  0  0  0  0  0  0
   12.8087  -16.8076   25.3693 C   0  0  0  0  0  0  0  0  0  0  0  0
   13.3919  -16.6793   24.0228 C   0  0  0  0  0  0  0  0  0  0  0  0
   13.1800  -17.5675   23.1724 O   0  0  0  0  0  0  0  0  0  0  0  0
   10.7083  -16.9096   26.6780 C   0  0  0  0  0  0  0  0  0  0  0  0
   11.0522  -17.8546   27.6260 O   0  0  0  0  0  0  0  0  0  0  0  0
   14.1633  -15.5654   23.7448 O   0  0  0  0  0  0  0  0  0  0  0  0
    9.8574  -16.0422   26.9835 O   0  0  0  0  0  0  0  0  0  0  0  0
  1  2  1  0
  3  5  1  0
  3  2  1  0
  3  4  1  6
  5  6  2  0
  7  8  1  0
  7  5  1  0
  8  9  1  1
 10  9  1  0
 11 10  1  0
 12 11  1  0
 12 13  1  0
 14 16  1  0
 14  8  1  0
 15 14  2  0
 17 18  1  1
 17 16  1  0
 18 19  1  0
 19 20  2  0
 21 17  1  0
 21 22  1  0
 23 19  1  0
 24 21  2  0
M  END
$$$$
