VGF.pdb
     RDKit          3D

 23 23  0  0  1  0  0  0  0  0999 V2000
   25.5904  -16.6674  -17.9748 C   0  0  0  0  0  0  0  0  0  0  0  0
   26.2892  -16.8576  -16.6373 C   0  0  2  0  0  0  0  0  0  0  0  0
   27.7382  -16.5102  -16.6931 C   0  0  0  0  0  0  0  0  0  0  0  0
   26.0256  -18.2628  -16.1516 C   0  0  2  0  0  0  0  0  0  0  0  0
   24.6288  -18.4378  -15.9341 N   0  0  0  0  0  0  0  0  0  0  0  0
   26.8017  -18.6317  -14.9786 C   0  0  0  0  0  0  0  0  0  0  0  0
   27.9201  -19.2045  -14.9822 O   0  0  0  0  0  0  0  0  0  0  0  0
   26.2635  -18.3244  -13.6695 N   0  0  0  0  0  0  0  0  0  0  0  0
   26.9888  -18.6511  -12.4892 C   0  0  0  0  0  0  0  0  0  0  0  0
   26.3870  -19.7160  -11.6742 C   0  0  0  0  0  0  0  0  0  0  0  0
   26.2188  -20.8867  -12.2117 O   0  0  0  0  0  0  0  0  0  0  0  0
   25.9713  -19.5644  -10.3334 N   0  0  0  0  0  0  0  0  0  0  0  0
   25.3822  -20.6907   -9.5919 C   0  0  1  0  0  0  0  0  0  0  0  0
   25.4494  -20.2923   -8.1389 C   0  0  0  0  0  0  0  0  0  0  0  0
   26.8209  -20.1175   -7.6283 C   0  0  0  0  0  0  0  0  0  0  0  0
   27.8038  -21.0086   -7.9772 C   0  0  0  0  0  0  0  0  0  0  0  0
   29.0918  -20.8639   -7.5151 C   0  0  0  0  0  0  0  0  0  0  0  0
   29.3843  -19.8038   -6.6906 C   0  0  0  0  0  0  0  0  0  0  0  0
   28.4050  -18.9098   -6.3388 C   0  0  0  0  0  0  0  0  0  0  0  0
   27.1238  -19.0631   -6.8050 C   0  0  0  0  0  0  0  0  0  0  0  0
   23.9983  -20.9174  -10.0702 C   0  0  0  0  0  0  0  0  0  0  0  0
   23.4698  -20.0993  -10.8520 O   0  0  0  0  0  0  0  0  0  0  0  0
   23.2700  -22.0221   -9.6698 O   0  0  0  0  0  0  0  0  0  0  0  0
  2  1  1  6
  2  3  1  0
  4  6  1  0
  4  2  1  0
  4  5  1  1
  6  8  1  0
  7  6  2  0
  8  9  1  0
  9 10  1  0
 10 11  2  0
 10 12  1  0
 12 13  1  0
 13 21  1  0
 13 14  1  1
 15 14  1  0
 15 16  2  0
 17 16  1  0
 18 17  2  0
 19 20  2  0
 19 18  1  0
 20 15  1  0
 21 22  2  0
 21 23  1  0
M  END
$$$$
