VGF.pdb
     RDKit          3D

 23 23  0  0  1  0  0  0  0  0999 V2000
   23.6969  -19.4378  -16.5041 C   0  0  0  0  0  0  0  0  0  0  0  0
   23.0547  -19.8289  -15.1820 C   0  0  2  0  0  0  0  0  0  0  0  0
   21.7566  -19.1336  -14.9475 C   0  0  0  0  0  0  0  0  0  0  0  0
   24.0602  -19.6151  -14.0761 C   0  0  2  0  0  0  0  0  0  0  0  0
   25.3766  -19.6260  -14.6201 N   0  0  0  0  0  0  0  0  0  0  0  0
   23.9271  -20.5547  -12.9744 C   0  0  0  0  0  0  0  0  0  0  0  0
   22.8993  -20.7317  -12.2736 O   0  0  0  0  0  0  0  0  0  0  0  0
   25.0670  -21.3781  -12.6272 N   0  0  0  0  0  0  0  0  0  0  0  0
   25.0536  -22.1818  -11.4526 C   0  0  0  0  0  0  0  0  0  0  0  0
   25.2988  -21.4468  -10.2035 C   0  0  0  0  0  0  0  0  0  0  0  0
   24.3745  -20.6465   -9.7646 O   0  0  0  0  0  0  0  0  0  0  0  0
   26.4772  -21.5438   -9.4319 N   0  0  0  0  0  0  0  0  0  0  0  0
   26.6423  -20.7555   -8.2003 C   0  0  1  0  0  0  0  0  0  0  0  0
   27.9417  -21.2249   -7.5956 C   0  0  0  0  0  0  0  0  0  0  0  0
   28.3440  -20.4812   -6.3884 C   0  0  0  0  0  0  0  0  0  0  0  0
   28.4382  -19.1131   -6.4225 C   0  0  0  0  0  0  0  0  0  0  0  0
   28.8089  -18.3976   -5.3071 C   0  0  0  0  0  0  0  0  0  0  0  0
   29.0867  -19.0782   -4.1458 C   0  0  0  0  0  0  0  0  0  0  0  0
   28.9939  -20.4464   -4.1065 C   0  0  0  0  0  0  0  0  0  0  0  0
   28.6233  -21.1505   -5.2241 C   0  0  0  0  0  0  0  0  0  0  0  0
   26.6464  -19.3139   -8.5424 C   0  0  0  0  0  0  0  0  0  0  0  0
   27.1775  -18.9295   -9.6055 O   0  0  0  0  0  0  0  0  0  0  0  0
   26.0716  -18.3741   -7.7073 O   0  0  0  0  0  0  0  0  0  0  0  0
  2  1  1  6
  2  3  1  0
  4  6  1  0
  4  2  1  0
  4  5  1  6
  6  8  1  0
  7  6  2  0
  8  9  1  0
  9 10  1  0
 10 11  2  0
 10 12  1  0
 12 13  1  0
 13 21  1  0
 13 14  1  6
 15 14  1  0
 15 16  2  0
 17 16  1  0
 18 17  2  0
 19 20  2  0
 19 18  1  0
 20 15  1  0
 21 22  2  0
 21 23  1  0
M  END
$$$$
