VGF.pdb
     RDKit          3D

 23 23  0  0  1  0  0  0  0  0999 V2000
   26.4440  -15.0873  -18.4450 C   0  0  0  0  0  0  0  0  0  0  0  0
   27.3727  -16.1241  -17.8320 C   0  0  2  0  0  0  0  0  0  0  0  0
   28.5370  -16.4402  -18.7082 C   0  0  0  0  0  0  0  0  0  0  0  0
   26.5573  -17.3374  -17.4537 C   0  0  2  0  0  0  0  0  0  0  0  0
   25.1706  -17.0175  -17.5143 N   0  0  0  0  0  0  0  0  0  0  0  0
   26.9205  -17.9085  -16.1668 C   0  0  0  0  0  0  0  0  0  0  0  0
   27.8108  -18.7722  -15.9660 O   0  0  0  0  0  0  0  0  0  0  0  0
   26.2089  -17.4617  -14.9871 N   0  0  0  0  0  0  0  0  0  0  0  0
   26.6334  -17.8574  -13.6874 C   0  0  0  0  0  0  0  0  0  0  0  0
   26.0893  -19.1438  -13.2296 C   0  0  0  0  0  0  0  0  0  0  0  0
   25.3392  -19.8236  -14.0436 O   0  0  0  0  0  0  0  0  0  0  0  0
   26.3215  -19.7071  -11.9558 N   0  0  0  0  0  0  0  0  0  0  0  0
   25.8529  -21.0638  -11.6315 C   0  0  1  0  0  0  0  0  0  0  0  0
   26.7653  -21.5508  -10.5339 C   0  0  0  0  0  0  0  0  0  0  0  0
   26.5676  -20.8674   -9.2431 C   0  0  0  0  0  0  0  0  0  0  0  0
   27.4149  -19.8581   -8.8620 C   0  0  0  0  0  0  0  0  0  0  0  0
   27.2479  -19.2039   -7.6630 C   0  0  0  0  0  0  0  0  0  0  0  0
   26.2104  -19.5785   -6.8431 C   0  0  0  0  0  0  0  0  0  0  0  0
   25.3603  -20.5872   -7.2196 C   0  0  0  0  0  0  0  0  0  0  0  0
   25.5353  -21.2332   -8.4172 C   0  0  0  0  0  0  0  0  0  0  0  0
   24.4304  -21.0023  -11.2219 C   0  0  0  0  0  0  0  0  0  0  0  0
   23.9474  -19.9247  -10.8151 O   0  0  0  0  0  0  0  0  0  0  0  0
   23.6157  -22.1177  -11.2792 O   0  0  0  0  0  0  0  0  0  0  0  0
  2  1  1  6
  2  3  1  0
  4  6  1  0
  4  2  1  0
  4  5  1  1
  6  8  1  0
  7  6  2  0
  8  9  1  0
  9 10  1  0
 10 11  2  0
 10 12  1  0
 12 13  1  0
 13 21  1  0
 13 14  1  1
 15 14  1  0
 15 16  2  0
 17 16  1  0
 18 17  2  0
 19 20  2  0
 19 18  1  0
 20 15  1  0
 21 22  2  0
 21 23  1  0
M  END
$$$$
