VGF.pdb
     RDKit          3D

 23 23  0  0  1  0  0  0  0  0999 V2000
   28.4734  -18.0929  -14.7124 C   0  0  0  0  0  0  0  0  0  0  0  0
   27.1819  -18.7364  -15.1933 C   0  0  2  0  0  0  0  0  0  0  0  0
   26.2939  -17.7749  -15.9077 C   0  0  0  0  0  0  0  0  0  0  0  0
   26.5152  -19.4136  -14.0201 C   0  0  2  0  0  0  0  0  0  0  0  0
   25.8925  -18.4338  -13.1948 N   0  0  0  0  0  0  0  0  0  0  0  0
   27.4065  -20.2712  -13.2555 C   0  0  0  0  0  0  0  0  0  0  0  0
   27.8160  -21.4076  -13.6015 O   0  0  0  0  0  0  0  0  0  0  0  0
   27.8846  -19.8010  -11.9717 N   0  0  0  0  0  0  0  0  0  0  0  0
   28.6390  -20.6549  -11.1187 C   0  0  0  0  0  0  0  0  0  0  0  0
   27.9217  -21.1150   -9.9212 C   0  0  0  0  0  0  0  0  0  0  0  0
   28.6144  -21.5757   -8.9234 O   0  0  0  0  0  0  0  0  0  0  0  0
   26.5182  -21.0954   -9.7678 N   0  0  0  0  0  0  0  0  0  0  0  0
   25.9043  -20.9646   -8.4368 C   0  0  1  0  0  0  0  0  0  0  0  0
   26.3802  -19.6359   -7.9053 C   0  0  0  0  0  0  0  0  0  0  0  0
   27.2760  -19.7430   -6.7398 C   0  0  0  0  0  0  0  0  0  0  0  0
   28.4052  -18.9676   -6.6663 C   0  0  0  0  0  0  0  0  0  0  0  0
   29.2546  -19.0484   -5.5867 C   0  0  0  0  0  0  0  0  0  0  0  0
   28.9541  -19.9253   -4.5718 C   0  0  0  0  0  0  0  0  0  0  0  0
   27.8260  -20.7029   -4.6405 C   0  0  0  0  0  0  0  0  0  0  0  0
   26.9856  -20.6147   -5.7214 C   0  0  0  0  0  0  0  0  0  0  0  0
   24.4309  -21.0442   -8.5708 C   0  0  0  0  0  0  0  0  0  0  0  0
   23.8859  -20.7090   -9.6435 O   0  0  0  0  0  0  0  0  0  0  0  0
   23.6359  -21.4846   -7.5291 O   0  0  0  0  0  0  0  0  0  0  0  0
  2  1  1  1
  2  3  1  0
  4  6  1  0
  4  2  1  0
  4  5  1  1
  6  8  1  0
  7  6  2  0
  8  9  1  0
  9 10  1  0
 10 11  2  0
 10 12  1  0
 12 13  1  0
 13 21  1  0
 13 14  1  6
 15 14  1  0
 15 16  2  0
 17 16  1  0
 18 17  2  0
 19 20  2  0
 19 18  1  0
 20 15  1  0
 21 22  2  0
 21 23  1  0
M  END
$$$$
