VGF.pdb
     RDKit          3D

 23 23  0  0  1  0  0  0  0  0999 V2000
   25.2884  -18.6827  -15.7825 C   0  0  0  0  0  0  0  0  0  0  0  0
   26.6756  -18.4692  -16.3685 C   0  0  2  0  0  0  0  0  0  0  0  0
   26.7920  -18.9765  -17.7658 C   0  0  0  0  0  0  0  0  0  0  0  0
   27.6937  -19.0643  -15.4255 C   0  0  2  0  0  0  0  0  0  0  0  0
   27.5774  -20.4839  -15.4328 N   0  0  0  0  0  0  0  0  0  0  0  0
   27.6255  -18.5272  -14.0760 C   0  0  0  0  0  0  0  0  0  0  0  0
   27.7430  -17.3182  -13.7545 O   0  0  0  0  0  0  0  0  0  0  0  0
   27.4023  -19.4448  -12.9777 N   0  0  0  0  0  0  0  0  0  0  0  0
   27.2939  -18.9677  -11.6411 C   0  0  0  0  0  0  0  0  0  0  0  0
   26.9549  -19.9968  -10.6479 C   0  0  0  0  0  0  0  0  0  0  0  0
   27.0116  -21.2445  -11.0052 O   0  0  0  0  0  0  0  0  0  0  0  0
   26.5666  -19.7320   -9.3165 N   0  0  0  0  0  0  0  0  0  0  0  0
   25.9950  -20.7913   -8.4700 C   0  0  1  0  0  0  0  0  0  0  0  0
   25.9083  -20.1958   -7.0872 C   0  0  0  0  0  0  0  0  0  0  0  0
   27.2095  -20.0702   -6.4063 C   0  0  0  0  0  0  0  0  0  0  0  0
   27.6933  -21.1074   -5.6501 C   0  0  0  0  0  0  0  0  0  0  0  0
   28.9067  -21.0139   -5.0079 C   0  0  0  0  0  0  0  0  0  0  0  0
   29.6357  -19.8557   -5.1350 C   0  0  0  0  0  0  0  0  0  0  0  0
   29.1563  -18.8155   -5.8902 C   0  0  0  0  0  0  0  0  0  0  0  0
   27.9452  -18.9189   -6.5266 C   0  0  0  0  0  0  0  0  0  0  0  0
   24.6767  -21.1915   -9.0154 C   0  0  0  0  0  0  0  0  0  0  0  0
   24.0014  -20.3711   -9.6718 O   0  0  0  0  0  0  0  0  0  0  0  0
   24.1702  -22.4620   -8.8149 O   0  0  0  0  0  0  0  0  0  0  0  0
  2  1  1  1
  2  3  1  0
  4  6  1  0
  4  2  1  0
  4  5  1  1
  6  8  1  0
  7  6  2  0
  8  9  1  0
  9 10  1  0
 10 11  2  0
 10 12  1  0
 12 13  1  0
 13 21  1  0
 13 14  1  1
 15 14  1  0
 15 16  2  0
 17 16  1  0
 18 17  2  0
 19 20  2  0
 19 18  1  0
 20 15  1  0
 21 22  2  0
 21 23  1  0
M  END
$$$$
