VGF.pdb
     RDKit          3D

 23 23  0  0  1  0  0  0  0  0999 V2000
   24.3273  -19.2627  -15.2347 C   0  0  0  0  0  0  0  0  0  0  0  0
   23.2798  -20.2771  -14.8020 C   0  0  2  0  0  0  0  0  0  0  0  0
   21.8878  -19.8093  -15.0605 C   0  0  0  0  0  0  0  0  0  0  0  0
   23.5328  -20.6454  -13.3598 C   0  0  2  0  0  0  0  0  0  0  0  0
   23.2672  -19.5208  -12.5270 N   0  0  0  0  0  0  0  0  0  0  0  0
   24.8593  -21.1901  -13.1190 C   0  0  0  0  0  0  0  0  0  0  0  0
   25.2522  -22.3433  -13.4269 O   0  0  0  0  0  0  0  0  0  0  0  0
   25.8424  -20.3510  -12.4653 N   0  0  0  0  0  0  0  0  0  0  0  0
   27.1432  -20.8481  -12.1707 C   0  0  0  0  0  0  0  0  0  0  0  0
   27.4153  -21.0447  -10.7397 C   0  0  0  0  0  0  0  0  0  0  0  0
   28.4599  -21.7372  -10.3976 O   0  0  0  0  0  0  0  0  0  0  0  0
   26.6189  -20.5326   -9.6923 N   0  0  0  0  0  0  0  0  0  0  0  0
   26.9584  -20.7967   -8.2850 C   0  0  1  0  0  0  0  0  0  0  0  0
   27.9402  -19.7184   -7.9008 C   0  0  0  0  0  0  0  0  0  0  0  0
   28.3589  -19.7648   -6.4884 C   0  0  0  0  0  0  0  0  0  0  0  0
   28.0115  -18.7495   -5.6340 C   0  0  0  0  0  0  0  0  0  0  0  0
   28.3886  -18.7729   -4.3108 C   0  0  0  0  0  0  0  0  0  0  0  0
   29.1258  -19.8379   -3.8510 C   0  0  0  0  0  0  0  0  0  0  0  0
   29.4757  -20.8559   -4.7015 C   0  0  0  0  0  0  0  0  0  0  0  0
   29.0947  -20.8231   -6.0190 C   0  0  0  0  0  0  0  0  0  0  0  0
   25.7194  -20.7724   -7.4728 C   0  0  0  0  0  0  0  0  0  0  0  0
   25.7332  -21.2168   -6.3057 O   0  0  0  0  0  0  0  0  0  0  0  0
   24.5370  -20.2653   -7.9785 O   0  0  0  0  0  0  0  0  0  0  0  0
  2  1  1  1
  2  3  1  0
  4  6  1  0
  4  2  1  0
  4  5  1  1
  6  8  1  0
  7  6  2  0
  8  9  1  0
  9 10  1  0
 10 11  2  0
 10 12  1  0
 12 13  1  0
 13 21  1  0
 13 14  1  1
 15 14  1  0
 15 16  2  0
 17 16  1  0
 18 17  2  0
 19 20  2  0
 19 18  1  0
 20 15  1  0
 21 22  2  0
 21 23  1  0
M  END
$$$$
