VGF.pdb
     RDKit          3D

 23 23  0  0  1  0  0  0  0  0999 V2000
   24.0217  -16.7092  -17.3624 C   0  0  0  0  0  0  0  0  0  0  0  0
   25.2112  -17.3500  -18.0609 C   0  0  2  0  0  0  0  0  0  0  0  0
   25.1521  -18.8398  -18.0428 C   0  0  0  0  0  0  0  0  0  0  0  0
   26.4797  -16.7908  -17.4626 C   0  0  2  0  0  0  0  0  0  0  0  0
   27.4869  -16.7140  -18.4668 N   0  0  0  0  0  0  0  0  0  0  0  0
   26.9439  -17.5169  -16.2914 C   0  0  0  0  0  0  0  0  0  0  0  0
   27.7212  -18.5042  -16.2936 O   0  0  0  0  0  0  0  0  0  0  0  0
   26.4863  -17.0874  -14.9861 N   0  0  0  0  0  0  0  0  0  0  0  0
   26.8726  -17.7919  -13.8111 C   0  0  0  0  0  0  0  0  0  0  0  0
   26.0854  -19.0020  -13.5347 C   0  0  0  0  0  0  0  0  0  0  0  0
   25.4245  -19.5471  -14.5112 O   0  0  0  0  0  0  0  0  0  0  0  0
   25.9897  -19.6277  -12.2725 N   0  0  0  0  0  0  0  0  0  0  0  0
   25.2622  -20.8965  -12.1102 C   0  0  1  0  0  0  0  0  0  0  0  0
   26.0360  -21.6719  -11.0737 C   0  0  0  0  0  0  0  0  0  0  0  0
   26.1281  -20.9975   -9.7664 C   0  0  0  0  0  0  0  0  0  0  0  0
   25.0859  -21.0738   -8.8778 C   0  0  0  0  0  0  0  0  0  0  0  0
   25.1507  -20.4548   -7.6505 C   0  0  0  0  0  0  0  0  0  0  0  0
   26.2852  -19.7516   -7.3226 C   0  0  0  0  0  0  0  0  0  0  0  0
   27.3304  -19.6724   -8.2077 C   0  0  0  0  0  0  0  0  0  0  0  0
   27.2557  -20.2932   -9.4289 C   0  0  0  0  0  0  0  0  0  0  0  0
   23.8675  -20.6087  -11.7012 C   0  0  0  0  0  0  0  0  0  0  0  0
   23.5730  -19.4825  -11.2485 O   0  0  0  0  0  0  0  0  0  0  0  0
   22.8739  -21.5638  -11.8089 O   0  0  0  0  0  0  0  0  0  0  0  0
  2  1  1  1
  2  3  1  0
  4  6  1  0
  4  2  1  0
  4  5  1  6
  6  8  1  0
  7  6  2  0
  8  9  1  0
  9 10  1  0
 10 11  2  0
 10 12  1  0
 12 13  1  0
 13 21  1  0
 13 14  1  1
 15 14  1  0
 15 16  2  0
 17 16  1  0
 18 17  2  0
 19 20  2  0
 19 18  1  0
 20 15  1  0
 21 22  2  0
 21 23  1  0
M  END
$$$$
