VGF.pdb
     RDKit          3D

 23 23  0  0  1  0  0  0  0  0999 V2000
   18.9236  -10.2039  -16.9370 C   0  0  0  0  0  0  0  0  0  0  0  0
   18.6523  -10.2767  -18.4318 C   0  0  2  0  0  0  0  0  0  0  0  0
   19.4997  -11.2928  -19.1193 C   0  0  0  0  0  0  0  0  0  0  0  0
   18.7848   -8.8897  -19.0135 C   0  0  2  0  0  0  0  0  0  0  0  0
   20.1634   -8.5701  -19.1750 N   0  0  0  0  0  0  0  0  0  0  0  0
   18.0823   -7.8674  -18.2547 C   0  0  0  0  0  0  0  0  0  0  0  0
   16.8755   -7.9035  -17.9064 O   0  0  0  0  0  0  0  0  0  0  0  0
   18.8131   -6.6851  -17.8471 N   0  0  0  0  0  0  0  0  0  0  0  0
   18.1962   -5.6917  -17.0356 C   0  0  0  0  0  0  0  0  0  0  0  0
   18.9250   -5.3689  -15.8007 C   0  0  0  0  0  0  0  0  0  0  0  0
   18.4745   -4.4101  -15.0487 O   0  0  0  0  0  0  0  0  0  0  0  0
   20.0934   -6.0286  -15.3611 N   0  0  0  0  0  0  0  0  0  0  0  0
   20.7233   -5.6775  -14.0783 C   0  0  1  0  0  0  0  0  0  0  0  0
   20.6575   -6.9318  -13.2435 C   0  0  0  0  0  0  0  0  0  0  0  0
   21.2665   -8.1109  -13.8847 C   0  0  0  0  0  0  0  0  0  0  0  0
   22.6314   -8.2233  -13.9635 C   0  0  0  0  0  0  0  0  0  0  0  0
   23.2222   -9.3163  -14.5549 C   0  0  0  0  0  0  0  0  0  0  0  0
   22.4189  -10.3048  -15.0712 C   0  0  0  0  0  0  0  0  0  0  0  0
   21.0534  -10.1973  -14.9949 C   0  0  0  0  0  0  0  0  0  0  0  0
   20.4742   -9.1034  -14.4031 C   0  0  0  0  0  0  0  0  0  0  0  0
   22.1090   -5.2156  -14.3272 C   0  0  0  0  0  0  0  0  0  0  0  0
   22.5543   -5.1883  -15.4937 O   0  0  0  0  0  0  0  0  0  0  0  0
   22.9296   -4.8098  -13.2914 O   0  0  0  0  0  0  0  0  0  0  0  0
  2  1  1  1
  2  3  1  0
  4  6  1  0
  4  2  1  0
  4  5  1  1
  6  8  1  0
  7  6  2  0
  8  9  1  0
  9 10  1  0
 10 11  2  0
 10 12  1  0
 12 13  1  0
 13 21  1  0
 13 14  1  1
 15 14  1  0
 15 16  2  0
 17 16  1  0
 18 17  2  0
 19 20  2  0
 19 18  1  0
 20 15  1  0
 21 22  2  0
 21 23  1  0
M  END
$$$$
