YPI.pdb
     RDKit          3D

 28 29  0  0  1  0  0  0  0  0999 V2000
    9.0329  -20.8204   28.7984 O   0  0  0  0  0  0  0  0  0  0  0  0
    8.2295  -20.0887   27.9206 C   0  0  0  0  0  0  0  0  0  0  0  0
    8.5717  -18.8411   27.4701 C   0  0  0  0  0  0  0  0  0  0  0  0
    7.7384  -18.1429   26.5918 C   0  0  0  0  0  0  0  0  0  0  0  0
    6.5522  -18.6901   26.1561 C   0  0  0  0  0  0  0  0  0  0  0  0
    5.6526  -17.9767   25.2248 C   0  0  0  0  0  0  0  0  0  0  0  0
    5.9818  -18.2238   23.7665 C   0  0  2  0  0  0  0  0  0  0  0  0
    5.7902  -19.5743   23.3434 N   0  0  0  0  0  0  0  0  0  0  0  0
    7.2890  -17.6286   23.4006 C   0  0  0  0  0  0  0  0  0  0  0  0
    8.0886  -18.3775   22.7108 O   0  0  0  0  0  0  0  0  0  0  0  0
    6.2290  -19.9580   26.6290 C   0  0  0  0  0  0  0  0  0  0  0  0
    7.0504  -20.6444   27.4938 C   0  0  0  0  0  0  0  0  0  0  0  0
    7.7384  -16.3320   23.7327 N   0  0  0  0  0  0  0  0  0  0  0  0
    7.1542  -15.3094   24.5458 C   0  0  0  0  0  0  0  0  0  0  0  0
    7.5466  -14.0178   23.8361 C   0  0  0  0  0  0  0  0  0  0  0  0
    8.6087  -14.3935   22.8634 C   0  0  0  0  0  0  0  0  0  0  0  0
    9.0103  -15.7717   23.2640 C   0  0  1  0  0  0  0  0  0  0  0  0
    9.9967  -15.8479   24.3434 C   0  0  0  0  0  0  0  0  0  0  0  0
    9.6134  -15.8535   25.5590 O   0  0  0  0  0  0  0  0  0  0  0  0
   13.9951  -18.6000   22.0506 C   0  0  0  0  0  0  0  0  0  0  0  0
   13.0249  -18.1416   23.0533 C   0  0  0  0  0  0  0  0  0  0  0  0
   13.3875  -17.2548   24.1518 C   0  0  2  0  0  0  0  0  0  0  0  0
   14.5137  -17.8339   25.0235 C   0  0  0  0  0  0  0  0  0  0  0  0
   12.3144  -16.6699   24.9768 C   0  0  2  0  0  0  0  0  0  0  0  0
   11.3851  -15.9169   24.0877 N   0  0  0  0  0  0  0  0  0  0  0  0
   12.7632  -15.7013   25.9559 C   0  0  0  0  0  0  0  0  0  0  0  0
   12.7944  -14.4763   25.6735 O   0  0  0  0  0  0  0  0  0  0  0  0
   13.1623  -16.0470   27.2189 O   0  0  0  0  0  0  0  0  0  0  0  0
  2  1  1  0
  3  2  2  0
  4  3  1  0
  5  4  2  0
  5 11  1  0
  6  5  1  0
  7  9  1  0
  7  6  1  0
  7  8  1  1
  9 13  1  0
  9 10  2  0
 11 12  2  0
 12  2  1  0
 13 14  1  0
 14 15  1  0
 16 15  1  0
 17 13  1  0
 17 16  1  0
 17 18  1  1
 19 18  2  0
 20 21  1  0
 21 22  1  0
 22 24  1  0
 22 23  1  1
 24 25  1  6
 25 18  1  0
 26 24  1  0
 26 28  1  0
 27 26  2  0
M  END
$$$$
